default_name
  -OEChem-02102213163D

 34 33  0     1  0  0  0  0  0999 V2000
   -3.8899   -3.6747    1.6490 H   0  0  0  0  0  0  0  0  0  0  0  0
   -3.9109   -2.6717    1.2250 C   0  0  0  0  0  0  0  0  0  0  0  0
   -4.6009   -2.0517    1.7950 H   0  0  0  0  0  0  0  0  0  0  0  0
   -4.2309   -2.7237    0.1860 H   0  0  0  0  0  0  0  0  0  0  0  0
   -2.5229   -2.0787    1.2980 C   0  0  0  0  0  0  0  0  0  0  0  0
   -1.5999   -2.7227    1.7810 O   0  0  0  0  0  0  0  0  0  0  0  0
   -2.3659   -0.8447    0.8120 N   0  0  0  0  0  0  0  0  0  0  0  0
   -3.1749   -0.3807    0.4220 H   0  0  0  0  0  0  0  0  0  0  0  0
   -1.0919   -0.1077    0.8170 C   0  0  1  0  0  0  0  0  0  0  0  0
   -0.3571   -0.6901    0.2581 H   0  0  0  0  0  0  0  0  0  0  0  0
   -1.3037    1.2411    0.1040 C   0  0  0  0  0  0  0  0  0  0  0  0
   -1.6318    1.0461   -0.9182 H   0  0  0  0  0  0  0  0  0  0  0  0
   -2.0930    1.7966    0.6144 H   0  0  0  0  0  0  0  0  0  0  0  0
   -0.0334    2.1033    0.0473 C   0  0  0  0  0  0  0  0  0  0  0  0
    0.3125    2.3149    1.0600 H   0  0  0  0  0  0  0  0  0  0  0  0
    0.7464    1.5595   -0.4894 H   0  0  0  0  0  0  0  0  0  0  0  0
   -0.3180    3.4277   -0.6745 C   0  0  0  0  0  0  0  0  0  0  0  0
   -0.6784    3.2121   -1.6832 H   0  0  0  0  0  0  0  0  0  0  0  0
   -1.0916    3.9716   -0.1288 H   0  0  0  0  0  0  0  0  0  0  0  0
    0.9554    4.2789   -0.7537 C   0  0  0  0  0  0  0  0  0  0  0  0
    1.3043    4.4772    0.2650 H   0  0  0  0  0  0  0  0  0  0  0  0
    1.7294    3.6998   -1.2663 H   0  0  0  0  0  0  0  0  0  0  0  0
    0.7139    5.5573   -1.4693 N   0  3  0  0  0  0  0  0  0  0  0  0
    0.0058    6.1026   -0.9937 H   0  0  0  0  0  0  0  0  0  0  0  0
    1.5631    6.1066   -1.5132 H   0  0  0  0  0  0  0  0  0  0  0  0
    0.3991    5.3792   -2.4159 H   0  0  0  0  0  0  0  0  0  0  0  0
   -0.5865    0.0771    2.2496 C   0  0  0  0  0  0  0  0  0  0  0  0
    0.5860   -0.1608    2.5143 O   0  0  0  0  0  0  0  0  0  0  0  0
   -1.4786    0.4656    3.1667 N   0  0  0  0  0  0  0  0  0  0  0  0
   -2.4139    0.6698    2.8558 H   0  0  0  0  0  0  0  0  0  0  0  0
   -1.1587    0.6908    4.5775 C   0  0  0  0  0  0  0  0  0  0  0  0
   -0.4270    1.4968    4.6656 H   0  0  0  0  0  0  0  0  0  0  0  0
   -2.0565    0.9649    5.1327 H   0  0  0  0  0  0  0  0  0  0  0  0
   -0.7281   -0.2137    5.0125 H   0  0  0  0  0  0  0  0  0  0  0  0
  5  6  2  0  0  0  0
  5  7  1  0  0  0  0
  2  3  1  0  0  0  0
  2  4  1  0  0  0  0
  2  5  1  0  0  0  0
  1  2  1  0  0  0  0
 27 28  2  0  0  0  0
 27 29  1  0  0  0  0
 23 24  1  0  0  0  0
 23 25  1  0  0  0  0
 23 26  1  0  0  0  0
 20 21  1  0  0  0  0
 20 22  1  0  0  0  0
 20 23  1  0  0  0  0
 17 18  1  0  0  0  0
 17 19  1  0  0  0  0
 17 20  1  0  0  0  0
 14 15  1  0  0  0  0
 14 16  1  0  0  0  0
 14 17  1  0  0  0  0
 11 12  1  0  0  0  0
 11 13  1  0  0  0  0
 11 14  1  0  0  0  0
  9 10  1  0  0  0  0
  9 11  1  0  0  0  0
  9 27  1  0  0  0  0
  7  8  1  0  0  0  0
  7  9  1  0  0  0  0
 31 32  1  0  0  0  0
 31 33  1  0  0  0  0
 31 34  1  0  0  0  0
 29 30  1  0  0  0  0
 29 31  1  0  0  0  0
M  CHG  1  23   1
M  END
$$$$
default_name
  -OEChem-02102213163D

 34 33  0     1  0  0  0  0  0999 V2000
   -3.8899   -3.6747    1.6490 H   0  0  0  0  0  0  0  0  0  0  0  0
   -3.9109   -2.6717    1.2250 C   0  0  0  0  0  0  0  0  0  0  0  0
   -4.6009   -2.0517    1.7950 H   0  0  0  0  0  0  0  0  0  0  0  0
   -4.2309   -2.7237    0.1860 H   0  0  0  0  0  0  0  0  0  0  0  0
   -2.5229   -2.0787    1.2980 C   0  0  0  0  0  0  0  0  0  0  0  0
   -1.5999   -2.7227    1.7810 O   0  0  0  0  0  0  0  0  0  0  0  0
   -2.3659   -0.8447    0.8120 N   0  0  0  0  0  0  0  0  0  0  0  0
   -3.1749   -0.3807    0.4220 H   0  0  0  0  0  0  0  0  0  0  0  0
   -1.0919   -0.1077    0.8170 C   0  0  1  0  0  0  0  0  0  0  0  0
   -0.3571   -0.6901    0.2581 H   0  0  0  0  0  0  0  0  0  0  0  0
   -1.3037    1.2411    0.1040 C   0  0  0  0  0  0  0  0  0  0  0  0
   -1.6318    1.0461   -0.9182 H   0  0  0  0  0  0  0  0  0  0  0  0
   -2.0930    1.7966    0.6144 H   0  0  0  0  0  0  0  0  0  0  0  0
   -0.0334    2.1033    0.0473 C   0  0  0  0  0  0  0  0  0  0  0  0
    0.4601    2.0947    1.0201 H   0  0  0  0  0  0  0  0  0  0  0  0
    0.6468    1.6924   -0.7012 H   0  0  0  0  0  0  0  0  0  0  0  0
   -0.3855    3.5500   -0.3258 C   0  0  0  0  0  0  0  0  0  0  0  0
   -0.8929    3.5537   -1.2935 H   0  0  0  0  0  0  0  0  0  0  0  0
   -1.0583    3.9591    0.4305 H   0  0  0  0  0  0  0  0  0  0  0  0
    0.8844    4.4064   -0.4071 C   0  0  0  0  0  0  0  0  0  0  0  0
    1.3814    4.3834    0.5682 H   0  0  0  0  0  0  0  0  0  0  0  0
    1.5615    3.9556   -1.1389 H   0  0  0  0  0  0  0  0  0  0  0  0
    0.5747    5.8070   -0.7903 N   0  3  0  0  0  0  0  0  0  0  0  0
   -0.0434    6.2330   -0.1110 H   0  0  0  0  0  0  0  0  0  0  0  0
    1.4224    6.3582   -0.8398 H   0  0  0  0  0  0  0  0  0  0  0  0
    0.1223    5.8343   -1.6966 H   0  0  0  0  0  0  0  0  0  0  0  0
   -0.5865    0.0771    2.2496 C   0  0  0  0  0  0  0  0  0  0  0  0
    0.5860   -0.1608    2.5143 O   0  0  0  0  0  0  0  0  0  0  0  0
   -1.4786    0.4656    3.1667 N   0  0  0  0  0  0  0  0  0  0  0  0
   -2.4139    0.6698    2.8558 H   0  0  0  0  0  0  0  0  0  0  0  0
   -1.1587    0.6908    4.5775 C   0  0  0  0  0  0  0  0  0  0  0  0
   -0.4270    1.4968    4.6656 H   0  0  0  0  0  0  0  0  0  0  0  0
   -2.0565    0.9649    5.1327 H   0  0  0  0  0  0  0  0  0  0  0  0
   -0.7281   -0.2137    5.0125 H   0  0  0  0  0  0  0  0  0  0  0  0
  5  6  2  0  0  0  0
  5  7  1  0  0  0  0
  2  3  1  0  0  0  0
  2  4  1  0  0  0  0
  2  5  1  0  0  0  0
  1  2  1  0  0  0  0
 27 28  2  0  0  0  0
 27 29  1  0  0  0  0
 23 24  1  0  0  0  0
 23 25  1  0  0  0  0
 23 26  1  0  0  0  0
 20 21  1  0  0  0  0
 20 22  1  0  0  0  0
 20 23  1  0  0  0  0
 17 18  1  0  0  0  0
 17 19  1  0  0  0  0
 17 20  1  0  0  0  0
 14 15  1  0  0  0  0
 14 16  1  0  0  0  0
 14 17  1  0  0  0  0
 11 12  1  0  0  0  0
 11 13  1  0  0  0  0
 11 14  1  0  0  0  0
  9 10  1  0  0  0  0
  9 11  1  0  0  0  0
  9 27  1  0  0  0  0
  7  8  1  0  0  0  0
  7  9  1  0  0  0  0
 31 32  1  0  0  0  0
 31 33  1  0  0  0  0
 31 34  1  0  0  0  0
 29 30  1  0  0  0  0
 29 31  1  0  0  0  0
M  CHG  1  23   1
M  END
$$$$
default_name
  -OEChem-02102213163D

 34 33  0     1  0  0  0  0  0999 V2000
   -3.8899   -3.6747    1.6490 H   0  0  0  0  0  0  0  0  0  0  0  0
   -3.9109   -2.6717    1.2250 C   0  0  0  0  0  0  0  0  0  0  0  0
   -4.6009   -2.0517    1.7950 H   0  0  0  0  0  0  0  0  0  0  0  0
   -4.2309   -2.7237    0.1860 H   0  0  0  0  0  0  0  0  0  0  0  0
   -2.5229   -2.0787    1.2980 C   0  0  0  0  0  0  0  0  0  0  0  0
   -1.5999   -2.7227    1.7810 O   0  0  0  0  0  0  0  0  0  0  0  0
   -2.3659   -0.8447    0.8120 N   0  0  0  0  0  0  0  0  0  0  0  0
   -3.1749   -0.3807    0.4220 H   0  0  0  0  0  0  0  0  0  0  0  0
   -1.0919   -0.1077    0.8170 C   0  0  1  0  0  0  0  0  0  0  0  0
   -0.3571   -0.6901    0.2581 H   0  0  0  0  0  0  0  0  0  0  0  0
   -1.3037    1.2411    0.1040 C   0  0  0  0  0  0  0  0  0  0  0  0
   -1.6318    1.0461   -0.9182 H   0  0  0  0  0  0  0  0  0  0  0  0
   -2.0930    1.7966    0.6144 H   0  0  0  0  0  0  0  0  0  0  0  0
   -0.0334    2.1033    0.0473 C   0  0  0  0  0  0  0  0  0  0  0  0
    0.5949    1.8891    0.9129 H   0  0  0  0  0  0  0  0  0  0  0  0
    0.5211    1.8669   -0.8629 H   0  0  0  0  0  0  0  0  0  0  0  0
   -0.3988    3.5941    0.0470 C   0  0  0  0  0  0  0  0  0  0  0  0
   -1.0403    3.8023   -0.8127 H   0  0  0  0  0  0  0  0  0  0  0  0
   -0.9449    3.8271    0.9632 H   0  0  0  0  0  0  0  0  0  0  0  0
    0.8674    4.4559   -0.0346 C   0  0  0  0  0  0  0  0  0  0  0  0
    1.4991    4.2272    0.8299 H   0  0  0  0  0  0  0  0  0  0  0  0
    1.4202    4.1770   -0.9368 H   0  0  0  0  0  0  0  0  0  0  0  0
    0.5412    5.9042   -0.0607 N   0  3  0  0  0  0  0  0  0  0  0  0
    0.0386    6.1705    0.7767 H   0  0  0  0  0  0  0  0  0  0  0  0
    1.3866    6.4585   -0.1150 H   0  0  0  0  0  0  0  0  0  0  0  0
   -0.0363    6.1227   -0.8642 H   0  0  0  0  0  0  0  0  0  0  0  0
   -0.5865    0.0771    2.2496 C   0  0  0  0  0  0  0  0  0  0  0  0
    0.5860   -0.1608    2.5143 O   0  0  0  0  0  0  0  0  0  0  0  0
   -1.4786    0.4656    3.1667 N   0  0  0  0  0  0  0  0  0  0  0  0
   -2.4139    0.6698    2.8558 H   0  0  0  0  0  0  0  0  0  0  0  0
   -1.1587    0.6908    4.5775 C   0  0  0  0  0  0  0  0  0  0  0  0
   -0.4270    1.4968    4.6656 H   0  0  0  0  0  0  0  0  0  0  0  0
   -2.0565    0.9649    5.1327 H   0  0  0  0  0  0  0  0  0  0  0  0
   -0.7281   -0.2137    5.0125 H   0  0  0  0  0  0  0  0  0  0  0  0
  5  6  2  0  0  0  0
  5  7  1  0  0  0  0
  2  3  1  0  0  0  0
  2  4  1  0  0  0  0
  2  5  1  0  0  0  0
  1  2  1  0  0  0  0
 27 28  2  0  0  0  0
 27 29  1  0  0  0  0
 23 24  1  0  0  0  0
 23 25  1  0  0  0  0
 23 26  1  0  0  0  0
 20 21  1  0  0  0  0
 20 22  1  0  0  0  0
 20 23  1  0  0  0  0
 17 18  1  0  0  0  0
 17 19  1  0  0  0  0
 17 20  1  0  0  0  0
 14 15  1  0  0  0  0
 14 16  1  0  0  0  0
 14 17  1  0  0  0  0
 11 12  1  0  0  0  0
 11 13  1  0  0  0  0
 11 14  1  0  0  0  0
  9 10  1  0  0  0  0
  9 11  1  0  0  0  0
  9 27  1  0  0  0  0
  7  8  1  0  0  0  0
  7  9  1  0  0  0  0
 31 32  1  0  0  0  0
 31 33  1  0  0  0  0
 31 34  1  0  0  0  0
 29 30  1  0  0  0  0
 29 31  1  0  0  0  0
M  CHG  1  23   1
M  END
$$$$
default_name
  -OEChem-02102213163D

 34 33  0     1  0  0  0  0  0999 V2000
   -3.8899   -3.6747    1.6490 H   0  0  0  0  0  0  0  0  0  0  0  0
   -3.9109   -2.6717    1.2250 C   0  0  0  0  0  0  0  0  0  0  0  0
   -4.6009   -2.0517    1.7950 H   0  0  0  0  0  0  0  0  0  0  0  0
   -4.2309   -2.7237    0.1860 H   0  0  0  0  0  0  0  0  0  0  0  0
   -2.5229   -2.0787    1.2980 C   0  0  0  0  0  0  0  0  0  0  0  0
   -1.5999   -2.7227    1.7810 O   0  0  0  0  0  0  0  0  0  0  0  0
   -2.3659   -0.8447    0.8120 N   0  0  0  0  0  0  0  0  0  0  0  0
   -3.1749   -0.3807    0.4220 H   0  0  0  0  0  0  0  0  0  0  0  0
   -1.0919   -0.1077    0.8170 C   0  0  1  0  0  0  0  0  0  0  0  0
   -0.3571   -0.6901    0.2581 H   0  0  0  0  0  0  0  0  0  0  0  0
   -1.3037    1.2411    0.1040 C   0  0  0  0  0  0  0  0  0  0  0  0
   -1.6318    1.0461   -0.9182 H   0  0  0  0  0  0  0  0  0  0  0  0
   -2.0930    1.7966    0.6144 H   0  0  0  0  0  0  0  0  0  0  0  0
   -0.0334    2.1033    0.0473 C   0  0  0  0  0  0  0  0  0  0  0  0
    0.7075    1.7122    0.7459 H   0  0  0  0  0  0  0  0  0  0  0  0
    0.3779    2.0714   -0.9635 H   0  0  0  0  0  0  0  0  0  0  0  0
   -0.3571    3.5571    0.4184 C   0  0  0  0  0  0  0  0  0  0  0  0
   -1.1104    3.9410   -0.2738 H   0  0  0  0  0  0  0  0  0  0  0  0
   -0.7593    3.5845    1.4331 H   0  0  0  0  0  0  0  0  0  0  0  0
    0.9055    4.4243    0.3382 C   0  0  0  0  0  0  0  0  0  0  0  0
    1.6493    4.0193    1.0321 H   0  0  0  0  0  0  0  0  0  0  0  0
    1.3152    4.3490   -0.6736 H   0  0  0  0  0  0  0  0  0  0  0  0
    0.6158    5.8423    0.6696 N   0  3  0  0  0  0  0  0  0  0  0  0
    0.2462    5.9194    1.6089 H   0  0  0  0  0  0  0  0  0  0  0  0
    1.4583    6.4006    0.6118 H   0  0  0  0  0  0  0  0  0  0  0  0
   -0.0658    6.2245    0.0245 H   0  0  0  0  0  0  0  0  0  0  0  0
   -0.5865    0.0771    2.2496 C   0  0  0  0  0  0  0  0  0  0  0  0
    0.5860   -0.1608    2.5143 O   0  0  0  0  0  0  0  0  0  0  0  0
   -1.4786    0.4656    3.1667 N   0  0  0  0  0  0  0  0  0  0  0  0
   -2.4139    0.6698    2.8558 H   0  0  0  0  0  0  0  0  0  0  0  0
   -1.1587    0.6908    4.5775 C   0  0  0  0  0  0  0  0  0  0  0  0
   -0.4270    1.4968    4.6656 H   0  0  0  0  0  0  0  0  0  0  0  0
   -2.0565    0.9649    5.1327 H   0  0  0  0  0  0  0  0  0  0  0  0
   -0.7281   -0.2137    5.0125 H   0  0  0  0  0  0  0  0  0  0  0  0
  5  6  2  0  0  0  0
  5  7  1  0  0  0  0
  2  3  1  0  0  0  0
  2  4  1  0  0  0  0
  2  5  1  0  0  0  0
  1  2  1  0  0  0  0
 27 28  2  0  0  0  0
 27 29  1  0  0  0  0
 23 24  1  0  0  0  0
 23 25  1  0  0  0  0
 23 26  1  0  0  0  0
 20 21  1  0  0  0  0
 20 22  1  0  0  0  0
 20 23  1  0  0  0  0
 17 18  1  0  0  0  0
 17 19  1  0  0  0  0
 17 20  1  0  0  0  0
 14 15  1  0  0  0  0
 14 16  1  0  0  0  0
 14 17  1  0  0  0  0
 11 12  1  0  0  0  0
 11 13  1  0  0  0  0
 11 14  1  0  0  0  0
  9 10  1  0  0  0  0
  9 11  1  0  0  0  0
  9 27  1  0  0  0  0
  7  8  1  0  0  0  0
  7  9  1  0  0  0  0
 31 32  1  0  0  0  0
 31 33  1  0  0  0  0
 31 34  1  0  0  0  0
 29 30  1  0  0  0  0
 29 31  1  0  0  0  0
M  CHG  1  23   1
M  END
$$$$
default_name
  -OEChem-02102213163D

 34 33  0     1  0  0  0  0  0999 V2000
   -3.8899   -3.6747    1.6490 H   0  0  0  0  0  0  0  0  0  0  0  0
   -3.9109   -2.6717    1.2250 C   0  0  0  0  0  0  0  0  0  0  0  0
   -4.6009   -2.0517    1.7950 H   0  0  0  0  0  0  0  0  0  0  0  0
   -4.2309   -2.7237    0.1860 H   0  0  0  0  0  0  0  0  0  0  0  0
   -2.5229   -2.0787    1.2980 C   0  0  0  0  0  0  0  0  0  0  0  0
   -1.5999   -2.7227    1.7810 O   0  0  0  0  0  0  0  0  0  0  0  0
   -2.3659   -0.8447    0.8120 N   0  0  0  0  0  0  0  0  0  0  0  0
   -3.1749   -0.3807    0.4220 H   0  0  0  0  0  0  0  0  0  0  0  0
   -1.0919   -0.1077    0.8170 C   0  0  1  0  0  0  0  0  0  0  0  0
   -0.3571   -0.6901    0.2581 H   0  0  0  0  0  0  0  0  0  0  0  0
   -1.3037    1.2411    0.1040 C   0  0  0  0  0  0  0  0  0  0  0  0
   -1.6318    1.0461   -0.9182 H   0  0  0  0  0  0  0  0  0  0  0  0
   -2.0930    1.7966    0.6144 H   0  0  0  0  0  0  0  0  0  0  0  0
   -0.0334    2.1033    0.0473 C   0  0  0  0  0  0  0  0  0  0  0  0
    0.7904    1.5760    0.5303 H   0  0  0  0  0  0  0  0  0  0  0  0
    0.2269    2.2917   -0.9960 H   0  0  0  0  0  0  0  0  0  0  0  0
   -0.2633    3.4415    0.7632 C   0  0  0  0  0  0  0  0  0  0  0  0
   -1.0985    3.9603    0.2867 H   0  0  0  0  0  0  0  0  0  0  0  0
   -0.5141    3.2479    1.8081 H   0  0  0  0  0  0  0  0  0  0  0  0
    0.9962    4.3135    0.6860 C   0  0  0  0  0  0  0  0  0  0  0  0
    1.8217    3.7737    1.1611 H   0  0  0  0  0  0  0  0  0  0  0  0
    1.2536    4.4599   -0.3674 H   0  0  0  0  0  0  0  0  0  0  0  0
    0.7934    5.6254    1.3510 N   0  3  0  0  0  0  0  0  0  0  0  0
    0.5651    5.4968    2.3288 H   0  0  0  0  0  0  0  0  0  0  0  0
    1.6326    6.1885    1.2910 H   0  0  0  0  0  0  0  0  0  0  0  0
    0.0357    6.1330    0.9091 H   0  0  0  0  0  0  0  0  0  0  0  0
   -0.5865    0.0771    2.2496 C   0  0  0  0  0  0  0  0  0  0  0  0
    0.5860   -0.1608    2.5143 O   0  0  0  0  0  0  0  0  0  0  0  0
   -1.4786    0.4656    3.1667 N   0  0  0  0  0  0  0  0  0  0  0  0
   -2.4139    0.6698    2.8558 H   0  0  0  0  0  0  0  0  0  0  0  0
   -1.1587    0.6908    4.5775 C   0  0  0  0  0  0  0  0  0  0  0  0
   -0.4270    1.4968    4.6656 H   0  0  0  0  0  0  0  0  0  0  0  0
   -2.0565    0.9649    5.1327 H   0  0  0  0  0  0  0  0  0  0  0  0
   -0.7281   -0.2137    5.0125 H   0  0  0  0  0  0  0  0  0  0  0  0
  5  6  2  0  0  0  0
  5  7  1  0  0  0  0
  2  3  1  0  0  0  0
  2  4  1  0  0  0  0
  2  5  1  0  0  0  0
  1  2  1  0  0  0  0
 27 28  2  0  0  0  0
 27 29  1  0  0  0  0
 23 24  1  0  0  0  0
 23 25  1  0  0  0  0
 23 26  1  0  0  0  0
 20 21  1  0  0  0  0
 20 22  1  0  0  0  0
 20 23  1  0  0  0  0
 17 18  1  0  0  0  0
 17 19  1  0  0  0  0
 17 20  1  0  0  0  0
 14 15  1  0  0  0  0
 14 16  1  0  0  0  0
 14 17  1  0  0  0  0
 11 12  1  0  0  0  0
 11 13  1  0  0  0  0
 11 14  1  0  0  0  0
  9 10  1  0  0  0  0
  9 11  1  0  0  0  0
  9 27  1  0  0  0  0
  7  8  1  0  0  0  0
  7  9  1  0  0  0  0
 31 32  1  0  0  0  0
 31 33  1  0  0  0  0
 31 34  1  0  0  0  0
 29 30  1  0  0  0  0
 29 31  1  0  0  0  0
M  CHG  1  23   1
M  END
$$$$
default_name
  -OEChem-02102213163D

 34 33  0     1  0  0  0  0  0999 V2000
   -3.8899   -3.6747    1.6490 H   0  0  0  0  0  0  0  0  0  0  0  0
   -3.9109   -2.6717    1.2250 C   0  0  0  0  0  0  0  0  0  0  0  0
   -4.6009   -2.0517    1.7950 H   0  0  0  0  0  0  0  0  0  0  0  0
   -4.2309   -2.7237    0.1860 H   0  0  0  0  0  0  0  0  0  0  0  0
   -2.5229   -2.0787    1.2980 C   0  0  0  0  0  0  0  0  0  0  0  0
   -1.5999   -2.7227    1.7810 O   0  0  0  0  0  0  0  0  0  0  0  0
   -2.3659   -0.8447    0.8120 N   0  0  0  0  0  0  0  0  0  0  0  0
   -3.1749   -0.3807    0.4220 H   0  0  0  0  0  0  0  0  0  0  0  0
   -1.0919   -0.1077    0.8170 C   0  0  1  0  0  0  0  0  0  0  0  0
   -0.3571   -0.6901    0.2581 H   0  0  0  0  0  0  0  0  0  0  0  0
   -1.3037    1.2411    0.1040 C   0  0  0  0  0  0  0  0  0  0  0  0
   -1.6318    1.0461   -0.9182 H   0  0  0  0  0  0  0  0  0  0  0  0
   -2.0930    1.7966    0.6144 H   0  0  0  0  0  0  0  0  0  0  0  0
   -0.0334    2.1033    0.0473 C   0  0  0  0  0  0  0  0  0  0  0  0
    0.8378    1.4898    0.2809 H   0  0  0  0  0  0  0  0  0  0  0  0
    0.0784    2.5130   -0.9584 H   0  0  0  0  0  0  0  0  0  0  0  0
   -0.1236    3.2551    1.0579 C   0  0  0  0  0  0  0  0  0  0  0  0
   -1.0054    3.8589    0.8305 H   0  0  0  0  0  0  0  0  0  0  0  0
   -0.2259    2.8401    2.0626 H   0  0  0  0  0  0  0  0  0  0  0  0
    1.1332    4.1313    0.9851 C   0  0  0  0  0  0  0  0  0  0  0  0
    2.0047    3.5072    1.2081 H   0  0  0  0  0  0  0  0  0  0  0  0
    1.2397    4.5020   -0.0389 H   0  0  0  0  0  0  0  0  0  0  0  0
    1.0618    5.2685    1.9369 N   0  3  0  0  0  0  0  0  0  0  0  0
    0.9737    4.9315    2.8875 H   0  0  0  0  0  0  0  0  0  0  0  0
    1.8976    5.8365    1.8763 H   0  0  0  0  0  0  0  0  0  0  0  0
    0.2615    5.8544    1.7292 H   0  0  0  0  0  0  0  0  0  0  0  0
   -0.5865    0.0771    2.2496 C   0  0  0  0  0  0  0  0  0  0  0  0
    0.5860   -0.1608    2.5143 O   0  0  0  0  0  0  0  0  0  0  0  0
   -1.4786    0.4656    3.1667 N   0  0  0  0  0  0  0  0  0  0  0  0
   -2.4139    0.6698    2.8558 H   0  0  0  0  0  0  0  0  0  0  0  0
   -1.1587    0.6908    4.5775 C   0  0  0  0  0  0  0  0  0  0  0  0
   -0.4270    1.4968    4.6656 H   0  0  0  0  0  0  0  0  0  0  0  0
   -2.0565    0.9649    5.1327 H   0  0  0  0  0  0  0  0  0  0  0  0
   -0.7281   -0.2137    5.0125 H   0  0  0  0  0  0  0  0  0  0  0  0
  5  6  2  0  0  0  0
  5  7  1  0  0  0  0
  2  3  1  0  0  0  0
  2  4  1  0  0  0  0
  2  5  1  0  0  0  0
  1  2  1  0  0  0  0
 27 28  2  0  0  0  0
 27 29  1  0  0  0  0
 23 24  1  0  0  0  0
 23 25  1  0  0  0  0
 23 26  1  0  0  0  0
 20 21  1  0  0  0  0
 20 22  1  0  0  0  0
 20 23  1  0  0  0  0
 17 18  1  0  0  0  0
 17 19  1  0  0  0  0
 17 20  1  0  0  0  0
 14 15  1  0  0  0  0
 14 16  1  0  0  0  0
 14 17  1  0  0  0  0
 11 12  1  0  0  0  0
 11 13  1  0  0  0  0
 11 14  1  0  0  0  0
  9 10  1  0  0  0  0
  9 11  1  0  0  0  0
  9 27  1  0  0  0  0
  7  8  1  0  0  0  0
  7  9  1  0  0  0  0
 31 32  1  0  0  0  0
 31 33  1  0  0  0  0
 31 34  1  0  0  0  0
 29 30  1  0  0  0  0
 29 31  1  0  0  0  0
M  CHG  1  23   1
M  END
$$$$
default_name
  -OEChem-02102213163D

 34 33  0     1  0  0  0  0  0999 V2000
   -3.8899   -3.6747    1.6490 H   0  0  0  0  0  0  0  0  0  0  0  0
   -3.9109   -2.6717    1.2250 C   0  0  0  0  0  0  0  0  0  0  0  0
   -4.6009   -2.0517    1.7950 H   0  0  0  0  0  0  0  0  0  0  0  0
   -4.2309   -2.7237    0.1860 H   0  0  0  0  0  0  0  0  0  0  0  0
   -2.5229   -2.0787    1.2980 C   0  0  0  0  0  0  0  0  0  0  0  0
   -1.5999   -2.7227    1.7810 O   0  0  0  0  0  0  0  0  0  0  0  0
   -2.3659   -0.8447    0.8120 N   0  0  0  0  0  0  0  0  0  0  0  0
   -3.1749   -0.3807    0.4220 H   0  0  0  0  0  0  0  0  0  0  0  0
   -1.0919   -0.1077    0.8170 C   0  0  1  0  0  0  0  0  0  0  0  0
   -0.3571   -0.6901    0.2581 H   0  0  0  0  0  0  0  0  0  0  0  0
   -1.3037    1.2411    0.1040 C   0  0  0  0  0  0  0  0  0  0  0  0
   -1.6318    1.0461   -0.9182 H   0  0  0  0  0  0  0  0  0  0  0  0
   -2.0930    1.7966    0.6144 H   0  0  0  0  0  0  0  0  0  0  0  0
   -0.0334    2.1033    0.0473 C   0  0  0  0  0  0  0  0  0  0  0  0
    0.8465    1.4594    0.0146 H   0  0  0  0  0  0  0  0  0  0  0  0
   -0.0575    2.7201   -0.8532 H   0  0  0  0  0  0  0  0  0  0  0  0
    0.0523    3.0107    1.2824 C   0  0  0  0  0  0  0  0  0  0  0  0
   -0.8374    3.6437    1.3205 H   0  0  0  0  0  0  0  0  0  0  0  0
    0.0854    2.3890    2.1794 H   0  0  0  0  0  0  0  0  0  0  0  0
    1.3073    3.8899    1.2151 C   0  0  0  0  0  0  0  0  0  0  0  0
    2.1857    3.2379    1.1698 H   0  0  0  0  0  0  0  0  0  0  0  0
    1.2743    4.4725    0.2895 H   0  0  0  0  0  0  0  0  0  0  0  0
    1.4027    4.7958    2.3875 N   0  3  0  0  0  0  0  0  0  0  0  0
    1.4442    4.2620    3.2467 H   0  0  0  0  0  0  0  0  0  0  0  0
    2.2352    5.3688    2.3278 H   0  0  0  0  0  0  0  0  0  0  0  0
    0.5959    5.4076    2.4289 H   0  0  0  0  0  0  0  0  0  0  0  0
   -0.5865    0.0771    2.2496 C   0  0  0  0  0  0  0  0  0  0  0  0
    0.5860   -0.1608    2.5143 O   0  0  0  0  0  0  0  0  0  0  0  0
   -1.4786    0.4656    3.1667 N   0  0  0  0  0  0  0  0  0  0  0  0
   -2.4139    0.6698    2.8558 H   0  0  0  0  0  0  0  0  0  0  0  0
   -1.1587    0.6908    4.5775 C   0  0  0  0  0  0  0  0  0  0  0  0
   -0.4270    1.4968    4.6656 H   0  0  0  0  0  0  0  0  0  0  0  0
   -2.0565    0.9649    5.1327 H   0  0  0  0  0  0  0  0  0  0  0  0
   -0.7281   -0.2137    5.0125 H   0  0  0  0  0  0  0  0  0  0  0  0
  5  6  2  0  0  0  0
  5  7  1  0  0  0  0
  2  3  1  0  0  0  0
  2  4  1  0  0  0  0
  2  5  1  0  0  0  0
  1  2  1  0  0  0  0
 27 28  2  0  0  0  0
 27 29  1  0  0  0  0
 23 24  1  0  0  0  0
 23 25  1  0  0  0  0
 23 26  1  0  0  0  0
 20 21  1  0  0  0  0
 20 22  1  0  0  0  0
 20 23  1  0  0  0  0
 17 18  1  0  0  0  0
 17 19  1  0  0  0  0
 17 20  1  0  0  0  0
 14 15  1  0  0  0  0
 14 16  1  0  0  0  0
 14 17  1  0  0  0  0
 11 12  1  0  0  0  0
 11 13  1  0  0  0  0
 11 14  1  0  0  0  0
  9 10  1  0  0  0  0
  9 11  1  0  0  0  0
  9 27  1  0  0  0  0
  7  8  1  0  0  0  0
  7  9  1  0  0  0  0
 31 32  1  0  0  0  0
 31 33  1  0  0  0  0
 31 34  1  0  0  0  0
 29 30  1  0  0  0  0
 29 31  1  0  0  0  0
M  CHG  1  23   1
M  END
$$$$
default_name
  -OEChem-02102213163D

 34 33  0     1  0  0  0  0  0999 V2000
   -3.8899   -3.6747    1.6490 H   0  0  0  0  0  0  0  0  0  0  0  0
   -3.9109   -2.6717    1.2250 C   0  0  0  0  0  0  0  0  0  0  0  0
   -4.6009   -2.0517    1.7950 H   0  0  0  0  0  0  0  0  0  0  0  0
   -4.2309   -2.7237    0.1860 H   0  0  0  0  0  0  0  0  0  0  0  0
   -2.5229   -2.0787    1.2980 C   0  0  0  0  0  0  0  0  0  0  0  0
   -1.5999   -2.7227    1.7810 O   0  0  0  0  0  0  0  0  0  0  0  0
   -2.3659   -0.8447    0.8120 N   0  0  0  0  0  0  0  0  0  0  0  0
   -3.1749   -0.3807    0.4220 H   0  0  0  0  0  0  0  0  0  0  0  0
   -1.0919   -0.1077    0.8170 C   0  0  1  0  0  0  0  0  0  0  0  0
   -0.3571   -0.6901    0.2581 H   0  0  0  0  0  0  0  0  0  0  0  0
   -1.3037    1.2411    0.1040 C   0  0  0  0  0  0  0  0  0  0  0  0
   -1.6318    1.0461   -0.9182 H   0  0  0  0  0  0  0  0  0  0  0  0
   -2.0930    1.7966    0.6144 H   0  0  0  0  0  0  0  0  0  0  0  0
   -0.0334    2.1033    0.0473 C   0  0  0  0  0  0  0  0  0  0  0  0
    0.8160    1.4870   -0.2503 H   0  0  0  0  0  0  0  0  0  0  0  0
   -0.1715    2.8989   -0.6875 H   0  0  0  0  0  0  0  0  0  0  0  0
    0.2525    2.7248    1.4214 C   0  0  0  0  0  0  0  0  0  0  0  0
   -0.6061    3.3293    1.7233 H   0  0  0  0  0  0  0  0  0  0  0  0
    0.3989    1.9253    2.1504 H   0  0  0  0  0  0  0  0  0  0  0  0
    1.5065    3.6059    1.3603 C   0  0  0  0  0  0  0  0  0  0  0  0
    2.3525    2.9844    1.0490 H   0  0  0  0  0  0  0  0  0  0  0  0
    1.3552    4.3734    0.5952 H   0  0  0  0  0  0  0  0  0  0  0  0
    1.7930    4.2395    2.6721 N   0  3  0  0  0  0  0  0  0  0  0  0
    1.9444    3.5339    3.3822 H   0  0  0  0  0  0  0  0  0  0  0  0
    2.6224    4.8171    2.6149 H   0  0  0  0  0  0  0  0  0  0  0  0
    1.0164    4.8230    2.9606 H   0  0  0  0  0  0  0  0  0  0  0  0
   -0.5865    0.0771    2.2496 C   0  0  0  0  0  0  0  0  0  0  0  0
    0.5860   -0.1608    2.5143 O   0  0  0  0  0  0  0  0  0  0  0  0
   -1.4786    0.4656    3.1667 N   0  0  0  0  0  0  0  0  0  0  0  0
   -2.4139    0.6698    2.8558 H   0  0  0  0  0  0  0  0  0  0  0  0
   -1.1587    0.6908    4.5775 C   0  0  0  0  0  0  0  0  0  0  0  0
   -0.4270    1.4968    4.6656 H   0  0  0  0  0  0  0  0  0  0  0  0
   -2.0565    0.9649    5.1327 H   0  0  0  0  0  0  0  0  0  0  0  0
   -0.7281   -0.2137    5.0125 H   0  0  0  0  0  0  0  0  0  0  0  0
  5  6  2  0  0  0  0
  5  7  1  0  0  0  0
  2  3  1  0  0  0  0
  2  4  1  0  0  0  0
  2  5  1  0  0  0  0
  1  2  1  0  0  0  0
 27 28  2  0  0  0  0
 27 29  1  0  0  0  0
 23 24  1  0  0  0  0
 23 25  1  0  0  0  0
 23 26  1  0  0  0  0
 20 21  1  0  0  0  0
 20 22  1  0  0  0  0
 20 23  1  0  0  0  0
 17 18  1  0  0  0  0
 17 19  1  0  0  0  0
 17 20  1  0  0  0  0
 14 15  1  0  0  0  0
 14 16  1  0  0  0  0
 14 17  1  0  0  0  0
 11 12  1  0  0  0  0
 11 13  1  0  0  0  0
 11 14  1  0  0  0  0
  9 10  1  0  0  0  0
  9 11  1  0  0  0  0
  9 27  1  0  0  0  0
  7  8  1  0  0  0  0
  7  9  1  0  0  0  0
 31 32  1  0  0  0  0
 31 33  1  0  0  0  0
 31 34  1  0  0  0  0
 29 30  1  0  0  0  0
 29 31  1  0  0  0  0
M  CHG  1  23   1
M  END
$$$$
default_name
  -OEChem-02102213163D

 34 33  0     1  0  0  0  0  0999 V2000
   -3.8899   -3.6747    1.6490 H   0  0  0  0  0  0  0  0  0  0  0  0
   -3.9109   -2.6717    1.2250 C   0  0  0  0  0  0  0  0  0  0  0  0
   -4.6009   -2.0517    1.7950 H   0  0  0  0  0  0  0  0  0  0  0  0
   -4.2309   -2.7237    0.1860 H   0  0  0  0  0  0  0  0  0  0  0  0
   -2.5229   -2.0787    1.2980 C   0  0  0  0  0  0  0  0  0  0  0  0
   -1.5999   -2.7227    1.7810 O   0  0  0  0  0  0  0  0  0  0  0  0
   -2.3659   -0.8447    0.8120 N   0  0  0  0  0  0  0  0  0  0  0  0
   -3.1749   -0.3807    0.4220 H   0  0  0  0  0  0  0  0  0  0  0  0
   -1.0919   -0.1077    0.8170 C   0  0  1  0  0  0  0  0  0  0  0  0
   -0.3571   -0.6901    0.2581 H   0  0  0  0  0  0  0  0  0  0  0  0
   -1.3037    1.2411    0.1040 C   0  0  0  0  0  0  0  0  0  0  0  0
   -1.6318    1.0461   -0.9182 H   0  0  0  0  0  0  0  0  0  0  0  0
   -2.0930    1.7966    0.6144 H   0  0  0  0  0  0  0  0  0  0  0  0
   -0.0334    2.1033    0.0473 C   0  0  0  0  0  0  0  0  0  0  0  0
    0.7483    1.5706   -0.4959 H   0  0  0  0  0  0  0  0  0  0  0  0
   -0.2558    3.0372   -0.4726 H   0  0  0  0  0  0  0  0  0  0  0  0
    0.4634    2.4171    1.4654 C   0  0  0  0  0  0  0  0  0  0  0  0
   -0.3271    2.9373    2.0116 H   0  0  0  0  0  0  0  0  0  0  0  0
    0.6930    1.4806    1.9776 H   0  0  0  0  0  0  0  0  0  0  0  0
    1.7174    3.2985    1.4108 C   0  0  0  0  0  0  0  0  0  0  0  0
    2.4936    2.7637    0.8538 H   0  0  0  0  0  0  0  0  0  0  0  0
    1.4768    4.2115    0.8577 H   0  0  0  0  0  0  0  0  0  0  0  0
    2.2060    3.6375    2.7713 N   0  3  0  0  0  0  0  0  0  0  0  0
    2.4403    2.7969    3.2845 H   0  0  0  0  0  0  0  0  0  0  0  0
    3.0329    4.2192    2.7178 H   0  0  0  0  0  0  0  0  0  0  0  0
    1.4942    4.1406    3.2880 H   0  0  0  0  0  0  0  0  0  0  0  0
   -0.5865    0.0771    2.2496 C   0  0  0  0  0  0  0  0  0  0  0  0
    0.5860   -0.1608    2.5143 O   0  0  0  0  0  0  0  0  0  0  0  0
   -1.4786    0.4656    3.1667 N   0  0  0  0  0  0  0  0  0  0  0  0
   -2.4139    0.6698    2.8558 H   0  0  0  0  0  0  0  0  0  0  0  0
   -1.1587    0.6908    4.5775 C   0  0  0  0  0  0  0  0  0  0  0  0
   -0.4270    1.4968    4.6656 H   0  0  0  0  0  0  0  0  0  0  0  0
   -2.0565    0.9649    5.1327 H   0  0  0  0  0  0  0  0  0  0  0  0
   -0.7281   -0.2137    5.0125 H   0  0  0  0  0  0  0  0  0  0  0  0
  5  6  2  0  0  0  0
  5  7  1  0  0  0  0
  2  3  1  0  0  0  0
  2  4  1  0  0  0  0
  2  5  1  0  0  0  0
  1  2  1  0  0  0  0
 27 28  2  0  0  0  0
 27 29  1  0  0  0  0
 23 24  1  0  0  0  0
 23 25  1  0  0  0  0
 23 26  1  0  0  0  0
 20 21  1  0  0  0  0
 20 22  1  0  0  0  0
 20 23  1  0  0  0  0
 17 18  1  0  0  0  0
 17 19  1  0  0  0  0
 17 20  1  0  0  0  0
 14 15  1  0  0  0  0
 14 16  1  0  0  0  0
 14 17  1  0  0  0  0
 11 12  1  0  0  0  0
 11 13  1  0  0  0  0
 11 14  1  0  0  0  0
  9 10  1  0  0  0  0
  9 11  1  0  0  0  0
  9 27  1  0  0  0  0
  7  8  1  0  0  0  0
  7  9  1  0  0  0  0
 31 32  1  0  0  0  0
 31 33  1  0  0  0  0
 31 34  1  0  0  0  0
 29 30  1  0  0  0  0
 29 31  1  0  0  0  0
M  CHG  1  23   1
M  END
$$$$
default_name
  -OEChem-02102213163D

 34 33  0     1  0  0  0  0  0999 V2000
   -3.8899   -3.6747    1.6490 H   0  0  0  0  0  0  0  0  0  0  0  0
   -3.9109   -2.6717    1.2250 C   0  0  0  0  0  0  0  0  0  0  0  0
   -4.6009   -2.0517    1.7950 H   0  0  0  0  0  0  0  0  0  0  0  0
   -4.2309   -2.7237    0.1860 H   0  0  0  0  0  0  0  0  0  0  0  0
   -2.5229   -2.0787    1.2980 C   0  0  0  0  0  0  0  0  0  0  0  0
   -1.5999   -2.7227    1.7810 O   0  0  0  0  0  0  0  0  0  0  0  0
   -2.3659   -0.8447    0.8120 N   0  0  0  0  0  0  0  0  0  0  0  0
   -3.1749   -0.3807    0.4220 H   0  0  0  0  0  0  0  0  0  0  0  0
   -1.0919   -0.1077    0.8170 C   0  0  1  0  0  0  0  0  0  0  0  0
   -0.3571   -0.6901    0.2581 H   0  0  0  0  0  0  0  0  0  0  0  0
   -1.3037    1.2411    0.1040 C   0  0  0  0  0  0  0  0  0  0  0  0
   -1.6318    1.0461   -0.9182 H   0  0  0  0  0  0  0  0  0  0  0  0
   -2.0930    1.7966    0.6144 H   0  0  0  0  0  0  0  0  0  0  0  0
   -0.0334    2.1033    0.0473 C   0  0  0  0  0  0  0  0  0  0  0  0
    0.6480    1.7046   -0.7054 H   0  0  0  0  0  0  0  0  0  0  0  0
   -0.3047    3.1256   -0.2232 H   0  0  0  0  0  0  0  0  0  0  0  0
    0.6705    2.1084    1.4114 C   0  0  0  0  0  0  0  0  0  0  0  0
   -0.0196    2.4942    2.1656 H   0  0  0  0  0  0  0  0  0  0  0  0
    0.9477    1.0853    1.6728 H   0  0  0  0  0  0  0  0  0  0  0  0
    1.9255    2.9889    1.3632 C   0  0  0  0  0  0  0  0  0  0  0  0
    2.5994    2.5909    0.5976 H   0  0  0  0  0  0  0  0  0  0  0  0
    1.6309    3.9977    1.0588 H   0  0  0  0  0  0  0  0  0  0  0  0
    2.6136    3.0309    2.6782 N   0  3  0  0  0  0  0  0  0  0  0  0
    2.8980    2.1012    2.9604 H   0  0  0  0  0  0  0  0  0  0  0  0
    3.4386    3.6156    2.6297 H   0  0  0  0  0  0  0  0  0  0  0  0
    1.9967    3.4068    3.3888 H   0  0  0  0  0  0  0  0  0  0  0  0
   -0.5865    0.0771    2.2496 C   0  0  0  0  0  0  0  0  0  0  0  0
    0.5860   -0.1608    2.5143 O   0  0  0  0  0  0  0  0  0  0  0  0
   -1.4786    0.4656    3.1667 N   0  0  0  0  0  0  0  0  0  0  0  0
   -2.4139    0.6698    2.8558 H   0  0  0  0  0  0  0  0  0  0  0  0
   -1.1587    0.6908    4.5775 C   0  0  0  0  0  0  0  0  0  0  0  0
   -0.4270    1.4968    4.6656 H   0  0  0  0  0  0  0  0  0  0  0  0
   -2.0565    0.9649    5.1327 H   0  0  0  0  0  0  0  0  0  0  0  0
   -0.7281   -0.2137    5.0125 H   0  0  0  0  0  0  0  0  0  0  0  0
  5  6  2  0  0  0  0
  5  7  1  0  0  0  0
  2  3  1  0  0  0  0
  2  4  1  0  0  0  0
  2  5  1  0  0  0  0
  1  2  1  0  0  0  0
 27 28  2  0  0  0  0
 27 29  1  0  0  0  0
 23 24  1  0  0  0  0
 23 25  1  0  0  0  0
 23 26  1  0  0  0  0
 20 21  1  0  0  0  0
 20 22  1  0  0  0  0
 20 23  1  0  0  0  0
 17 18  1  0  0  0  0
 17 19  1  0  0  0  0
 17 20  1  0  0  0  0
 14 15  1  0  0  0  0
 14 16  1  0  0  0  0
 14 17  1  0  0  0  0
 11 12  1  0  0  0  0
 11 13  1  0  0  0  0
 11 14  1  0  0  0  0
  9 10  1  0  0  0  0
  9 11  1  0  0  0  0
  9 27  1  0  0  0  0
  7  8  1  0  0  0  0
  7  9  1  0  0  0  0
 31 32  1  0  0  0  0
 31 33  1  0  0  0  0
 31 34  1  0  0  0  0
 29 30  1  0  0  0  0
 29 31  1  0  0  0  0
M  CHG  1  23   1
M  END
$$$$
default_name
  -OEChem-02102213163D

 34 33  0     1  0  0  0  0  0999 V2000
   -3.8899   -3.6747    1.6490 H   0  0  0  0  0  0  0  0  0  0  0  0
   -3.9109   -2.6717    1.2250 C   0  0  0  0  0  0  0  0  0  0  0  0
   -4.6009   -2.0517    1.7950 H   0  0  0  0  0  0  0  0  0  0  0  0
   -4.2309   -2.7237    0.1860 H   0  0  0  0  0  0  0  0  0  0  0  0
   -2.5229   -2.0787    1.2980 C   0  0  0  0  0  0  0  0  0  0  0  0
   -1.5999   -2.7227    1.7810 O   0  0  0  0  0  0  0  0  0  0  0  0
   -2.3659   -0.8447    0.8120 N   0  0  0  0  0  0  0  0  0  0  0  0
   -3.1749   -0.3807    0.4220 H   0  0  0  0  0  0  0  0  0  0  0  0
   -1.0919   -0.1077    0.8170 C   0  0  1  0  0  0  0  0  0  0  0  0
   -0.3571   -0.6901    0.2581 H   0  0  0  0  0  0  0  0  0  0  0  0
   -1.3037    1.2411    0.1040 C   0  0  0  0  0  0  0  0  0  0  0  0
   -1.6318    1.0461   -0.9182 H   0  0  0  0  0  0  0  0  0  0  0  0
   -2.0930    1.7966    0.6144 H   0  0  0  0  0  0  0  0  0  0  0  0
   -0.0334    2.1033    0.0473 C   0  0  0  0  0  0  0  0  0  0  0  0
    0.5220    1.8798   -0.8645 H   0  0  0  0  0  0  0  0  0  0  0  0
   -0.3148    3.1581    0.0438 H   0  0  0  0  0  0  0  0  0  0  0  0
    0.8597    1.8198    1.2631 C   0  0  0  0  0  0  0  0  0  0  0  0
    0.2957    2.0304    2.1749 H   0  0  0  0  0  0  0  0  0  0  0  0
    1.1458    0.7662    1.2568 H   0  0  0  0  0  0  0  0  0  0  0  0
    2.1166    2.6979    1.2208 C   0  0  0  0  0  0  0  0  0  0  0  0
    2.6627    2.4779    0.2977 H   0  0  0  0  0  0  0  0  0  0  0  0
    1.8068    3.7468    1.1850 H   0  0  0  0  0  0  0  0  0  0  0  0
    2.9880    2.4609    2.3993 N   0  3  0  0  0  0  0  0  0  0  0  0
    3.2865    1.4942    2.4320 H   0  0  0  0  0  0  0  0  0  0  0  0
    3.8120    3.0476    2.3565 H   0  0  0  0  0  0  0  0  0  0  0  0
    2.4898    2.6717    3.2562 H   0  0  0  0  0  0  0  0  0  0  0  0
   -0.5865    0.0771    2.2496 C   0  0  0  0  0  0  0  0  0  0  0  0
    0.5860   -0.1608    2.5143 O   0  0  0  0  0  0  0  0  0  0  0  0
   -1.4786    0.4656    3.1667 N   0  0  0  0  0  0  0  0  0  0  0  0
   -2.4139    0.6698    2.8558 H   0  0  0  0  0  0  0  0  0  0  0  0
   -1.1587    0.6908    4.5775 C   0  0  0  0  0  0  0  0  0  0  0  0
   -0.4270    1.4968    4.6656 H   0  0  0  0  0  0  0  0  0  0  0  0
   -2.0565    0.9649    5.1327 H   0  0  0  0  0  0  0  0  0  0  0  0
   -0.7281   -0.2137    5.0125 H   0  0  0  0  0  0  0  0  0  0  0  0
  5  6  2  0  0  0  0
  5  7  1  0  0  0  0
  2  3  1  0  0  0  0
  2  4  1  0  0  0  0
  2  5  1  0  0  0  0
  1  2  1  0  0  0  0
 27 28  2  0  0  0  0
 27 29  1  0  0  0  0
 23 24  1  0  0  0  0
 23 25  1  0  0  0  0
 23 26  1  0  0  0  0
 20 21  1  0  0  0  0
 20 22  1  0  0  0  0
 20 23  1  0  0  0  0
 17 18  1  0  0  0  0
 17 19  1  0  0  0  0
 17 20  1  0  0  0  0
 14 15  1  0  0  0  0
 14 16  1  0  0  0  0
 14 17  1  0  0  0  0
 11 12  1  0  0  0  0
 11 13  1  0  0  0  0
 11 14  1  0  0  0  0
  9 10  1  0  0  0  0
  9 11  1  0  0  0  0
  9 27  1  0  0  0  0
  7  8  1  0  0  0  0
  7  9  1  0  0  0  0
 31 32  1  0  0  0  0
 31 33  1  0  0  0  0
 31 34  1  0  0  0  0
 29 30  1  0  0  0  0
 29 31  1  0  0  0  0
M  CHG  1  23   1
M  END
$$$$
default_name
  -OEChem-02102213163D

 34 33  0     1  0  0  0  0  0999 V2000
   -3.8899   -3.6747    1.6490 H   0  0  0  0  0  0  0  0  0  0  0  0
   -3.9109   -2.6717    1.2250 C   0  0  0  0  0  0  0  0  0  0  0  0
   -4.6009   -2.0517    1.7950 H   0  0  0  0  0  0  0  0  0  0  0  0
   -4.2309   -2.7237    0.1860 H   0  0  0  0  0  0  0  0  0  0  0  0
   -2.5229   -2.0787    1.2980 C   0  0  0  0  0  0  0  0  0  0  0  0
   -1.5999   -2.7227    1.7810 O   0  0  0  0  0  0  0  0  0  0  0  0
   -2.3659   -0.8447    0.8120 N   0  0  0  0  0  0  0  0  0  0  0  0
   -3.1749   -0.3807    0.4220 H   0  0  0  0  0  0  0  0  0  0  0  0
   -1.0919   -0.1077    0.8170 C   0  0  1  0  0  0  0  0  0  0  0  0
   -0.3571   -0.6901    0.2581 H   0  0  0  0  0  0  0  0  0  0  0  0
   -1.3037    1.2411    0.1040 C   0  0  0  0  0  0  0  0  0  0  0  0
   -1.6318    1.0461   -0.9182 H   0  0  0  0  0  0  0  0  0  0  0  0
   -2.0930    1.7966    0.6144 H   0  0  0  0  0  0  0  0  0  0  0  0
   -0.0334    2.1033    0.0473 C   0  0  0  0  0  0  0  0  0  0  0  0
    0.3788    2.0842   -0.9624 H   0  0  0  0  0  0  0  0  0  0  0  0
   -0.2856    3.1325    0.3101 H   0  0  0  0  0  0  0  0  0  0  0  0
    1.0182    1.5710    1.0306 C   0  0  0  0  0  0  0  0  0  0  0  0
    0.5971    1.5773    2.0388 H   0  0  0  0  0  0  0  0  0  0  0  0
    1.2736    0.5451    0.7580 H   0  0  0  0  0  0  0  0  0  0  0  0
    2.2777    2.4456    0.9932 C   0  0  0  0  0  0  0  0  0  0  0  0
    2.6793    2.4323   -0.0253 H   0  0  0  0  0  0  0  0  0  0  0  0
    1.9927    3.4757    1.2276 H   0  0  0  0  0  0  0  0  0  0  0  0
    3.3037    1.9665    1.9535 N   0  3  0  0  0  0  0  0  0  0  0  0
    3.5792    1.0172    1.7353 H   0  0  0  0  0  0  0  0  0  0  0  0
    4.1275    2.5539    1.9168 H   0  0  0  0  0  0  0  0  0  0  0  0
    2.9398    1.9852    2.8991 H   0  0  0  0  0  0  0  0  0  0  0  0
   -0.5865    0.0771    2.2496 C   0  0  0  0  0  0  0  0  0  0  0  0
    0.5860   -0.1608    2.5143 O   0  0  0  0  0  0  0  0  0  0  0  0
   -1.4786    0.4656    3.1667 N   0  0  0  0  0  0  0  0  0  0  0  0
   -2.4139    0.6698    2.8558 H   0  0  0  0  0  0  0  0  0  0  0  0
   -1.1587    0.6908    4.5775 C   0  0  0  0  0  0  0  0  0  0  0  0
   -0.4270    1.4968    4.6656 H   0  0  0  0  0  0  0  0  0  0  0  0
   -2.0565    0.9649    5.1327 H   0  0  0  0  0  0  0  0  0  0  0  0
   -0.7281   -0.2137    5.0125 H   0  0  0  0  0  0  0  0  0  0  0  0
  5  6  2  0  0  0  0
  5  7  1  0  0  0  0
  2  3  1  0  0  0  0
  2  4  1  0  0  0  0
  2  5  1  0  0  0  0
  1  2  1  0  0  0  0
 27 28  2  0  0  0  0
 27 29  1  0  0  0  0
 23 24  1  0  0  0  0
 23 25  1  0  0  0  0
 23 26  1  0  0  0  0
 20 21  1  0  0  0  0
 20 22  1  0  0  0  0
 20 23  1  0  0  0  0
 17 18  1  0  0  0  0
 17 19  1  0  0  0  0
 17 20  1  0  0  0  0
 14 15  1  0  0  0  0
 14 16  1  0  0  0  0
 14 17  1  0  0  0  0
 11 12  1  0  0  0  0
 11 13  1  0  0  0  0
 11 14  1  0  0  0  0
  9 10  1  0  0  0  0
  9 11  1  0  0  0  0
  9 27  1  0  0  0  0
  7  8  1  0  0  0  0
  7  9  1  0  0  0  0
 31 32  1  0  0  0  0
 31 33  1  0  0  0  0
 31 34  1  0  0  0  0
 29 30  1  0  0  0  0
 29 31  1  0  0  0  0
M  CHG  1  23   1
M  END
$$$$
default_name
  -OEChem-02102213163D

 34 33  0     1  0  0  0  0  0999 V2000
   -3.8899   -3.6747    1.6490 H   0  0  0  0  0  0  0  0  0  0  0  0
   -3.9109   -2.6717    1.2250 C   0  0  0  0  0  0  0  0  0  0  0  0
   -4.6009   -2.0517    1.7950 H   0  0  0  0  0  0  0  0  0  0  0  0
   -4.2309   -2.7237    0.1860 H   0  0  0  0  0  0  0  0  0  0  0  0
   -2.5229   -2.0787    1.2980 C   0  0  0  0  0  0  0  0  0  0  0  0
   -1.5999   -2.7227    1.7810 O   0  0  0  0  0  0  0  0  0  0  0  0
   -2.3659   -0.8447    0.8120 N   0  0  0  0  0  0  0  0  0  0  0  0
   -3.1749   -0.3807    0.4220 H   0  0  0  0  0  0  0  0  0  0  0  0
   -1.0919   -0.1077    0.8170 C   0  0  1  0  0  0  0  0  0  0  0  0
   -0.3571   -0.6901    0.2581 H   0  0  0  0  0  0  0  0  0  0  0  0
   -1.3037    1.2411    0.1040 C   0  0  0  0  0  0  0  0  0  0  0  0
   -1.6318    1.0461   -0.9182 H   0  0  0  0  0  0  0  0  0  0  0  0
   -2.0930    1.7966    0.6144 H   0  0  0  0  0  0  0  0  0  0  0  0
   -0.0334    2.1033    0.0473 C   0  0  0  0  0  0  0  0  0  0  0  0
    0.2283    2.3041   -0.9924 H   0  0  0  0  0  0  0  0  0  0  0  0
   -0.2189    3.0505    0.5576 H   0  0  0  0  0  0  0  0  0  0  0  0
    1.1352    1.3789    0.7298 C   0  0  0  0  0  0  0  0  0  0  0  0
    0.8642    1.1660    1.7666 H   0  0  0  0  0  0  0  0  0  0  0  0
    1.3225    0.4371    0.2102 H   0  0  0  0  0  0  0  0  0  0  0  0
    2.3979    2.2490    0.6959 C   0  0  0  0  0  0  0  0  0  0  0  0
    2.6479    2.4572   -0.3495 H   0  0  0  0  0  0  0  0  0  0  0  0
    2.1759    3.2029    1.1838 H   0  0  0  0  0  0  0  0  0  0  0  0
    3.5392    1.5814    1.3713 N   0  3  0  0  0  0  0  0  0  0  0  0
    3.7561    0.7028    0.9177 H   0  0  0  0  0  0  0  0  0  0  0  0
    4.3636    2.1681    1.3406 H   0  0  0  0  0  0  0  0  0  0  0  0
    3.3160    1.3943    2.3419 H   0  0  0  0  0  0  0  0  0  0  0  0
   -0.5865    0.0771    2.2496 C   0  0  0  0  0  0  0  0  0  0  0  0
    0.5860   -0.1608    2.5143 O   0  0  0  0  0  0  0  0  0  0  0  0
   -1.4786    0.4656    3.1667 N   0  0  0  0  0  0  0  0  0  0  0  0
   -2.4139    0.6698    2.8558 H   0  0  0  0  0  0  0  0  0  0  0  0
   -1.1587    0.6908    4.5775 C   0  0  0  0  0  0  0  0  0  0  0  0
   -0.4270    1.4968    4.6656 H   0  0  0  0  0  0  0  0  0  0  0  0
   -2.0565    0.9649    5.1327 H   0  0  0  0  0  0  0  0  0  0  0  0
   -0.7281   -0.2137    5.0125 H   0  0  0  0  0  0  0  0  0  0  0  0
  5  6  2  0  0  0  0
  5  7  1  0  0  0  0
  2  3  1  0  0  0  0
  2  4  1  0  0  0  0
  2  5  1  0  0  0  0
  1  2  1  0  0  0  0
 27 28  2  0  0  0  0
 27 29  1  0  0  0  0
 23 24  1  0  0  0  0
 23 25  1  0  0  0  0
 23 26  1  0  0  0  0
 20 21  1  0  0  0  0
 20 22  1  0  0  0  0
 20 23  1  0  0  0  0
 17 18  1  0  0  0  0
 17 19  1  0  0  0  0
 17 20  1  0  0  0  0
 14 15  1  0  0  0  0
 14 16  1  0  0  0  0
 14 17  1  0  0  0  0
 11 12  1  0  0  0  0
 11 13  1  0  0  0  0
 11 14  1  0  0  0  0
  9 10  1  0  0  0  0
  9 11  1  0  0  0  0
  9 27  1  0  0  0  0
  7  8  1  0  0  0  0
  7  9  1  0  0  0  0
 31 32  1  0  0  0  0
 31 33  1  0  0  0  0
 31 34  1  0  0  0  0
 29 30  1  0  0  0  0
 29 31  1  0  0  0  0
M  CHG  1  23   1
M  END
$$$$
default_name
  -OEChem-02102213163D

 34 33  0     1  0  0  0  0  0999 V2000
   -3.8899   -3.6747    1.6490 H   0  0  0  0  0  0  0  0  0  0  0  0
   -3.9109   -2.6717    1.2250 C   0  0  0  0  0  0  0  0  0  0  0  0
   -4.6009   -2.0517    1.7950 H   0  0  0  0  0  0  0  0  0  0  0  0
   -4.2309   -2.7237    0.1860 H   0  0  0  0  0  0  0  0  0  0  0  0
   -2.5229   -2.0787    1.2980 C   0  0  0  0  0  0  0  0  0  0  0  0
   -1.5999   -2.7227    1.7810 O   0  0  0  0  0  0  0  0  0  0  0  0
   -2.3659   -0.8447    0.8120 N   0  0  0  0  0  0  0  0  0  0  0  0
   -3.1749   -0.3807    0.4220 H   0  0  0  0  0  0  0  0  0  0  0  0
   -1.0919   -0.1077    0.8170 C   0  0  1  0  0  0  0  0  0  0  0  0
   -0.3571   -0.6901    0.2581 H   0  0  0  0  0  0  0  0  0  0  0  0
   -1.3037    1.2411    0.1040 C   0  0  0  0  0  0  0  0  0  0  0  0
   -1.6318    1.0461   -0.9182 H   0  0  0  0  0  0  0  0  0  0  0  0
   -2.0930    1.7966    0.6144 H   0  0  0  0  0  0  0  0  0  0  0  0
   -0.0334    2.1033    0.0473 C   0  0  0  0  0  0  0  0  0  0  0  0
    0.0806    2.5243   -0.9525 H   0  0  0  0  0  0  0  0  0  0  0  0
   -0.1193    2.9177    0.7694 H   0  0  0  0  0  0  0  0  0  0  0  0
    1.2026    1.2566    0.3811 C   0  0  0  0  0  0  0  0  0  0  0  0
    1.0787    0.8243    1.3769 H   0  0  0  0  0  0  0  0  0  0  0  0
    1.2891    0.4495   -0.3491 H   0  0  0  0  0  0  0  0  0  0  0  0
    2.4689    2.1216    0.3492 C   0  0  0  0  0  0  0  0  0  0  0  0
    2.5707    2.5510   -0.6528 H   0  0  0  0  0  0  0  0  0  0  0  0
    2.3439    2.9471    1.0565 H   0  0  0  0  0  0  0  0  0  0  0  0
    3.6783    1.3317    0.6923 N   0  3  0  0  0  0  0  0  0  0  0  0
    3.8053    0.5723    0.0349 H   0  0  0  0  0  0  0  0  0  0  0  0
    4.5044    1.9164    0.6671 H   0  0  0  0  0  0  0  0  0  0  0  0
    3.5928    0.9392    1.6226 H   0  0  0  0  0  0  0  0  0  0  0  0
   -0.5865    0.0771    2.2496 C   0  0  0  0  0  0  0  0  0  0  0  0
    0.5860   -0.1608    2.5143 O   0  0  0  0  0  0  0  0  0  0  0  0
   -1.4786    0.4656    3.1667 N   0  0  0  0  0  0  0  0  0  0  0  0
   -2.4139    0.6698    2.8558 H   0  0  0  0  0  0  0  0  0  0  0  0
   -1.1587    0.6908    4.5775 C   0  0  0  0  0  0  0  0  0  0  0  0
   -0.4270    1.4968    4.6656 H   0  0  0  0  0  0  0  0  0  0  0  0
   -2.0565    0.9649    5.1327 H   0  0  0  0  0  0  0  0  0  0  0  0
   -0.7281   -0.2137    5.0125 H   0  0  0  0  0  0  0  0  0  0  0  0
  5  6  2  0  0  0  0
  5  7  1  0  0  0  0
  2  3  1  0  0  0  0
  2  4  1  0  0  0  0
  2  5  1  0  0  0  0
  1  2  1  0  0  0  0
 27 28  2  0  0  0  0
 27 29  1  0  0  0  0
 23 24  1  0  0  0  0
 23 25  1  0  0  0  0
 23 26  1  0  0  0  0
 20 21  1  0  0  0  0
 20 22  1  0  0  0  0
 20 23  1  0  0  0  0
 17 18  1  0  0  0  0
 17 19  1  0  0  0  0
 17 20  1  0  0  0  0
 14 15  1  0  0  0  0
 14 16  1  0  0  0  0
 14 17  1  0  0  0  0
 11 12  1  0  0  0  0
 11 13  1  0  0  0  0
 11 14  1  0  0  0  0
  9 10  1  0  0  0  0
  9 11  1  0  0  0  0
  9 27  1  0  0  0  0
  7  8  1  0  0  0  0
  7  9  1  0  0  0  0
 31 32  1  0  0  0  0
 31 33  1  0  0  0  0
 31 34  1  0  0  0  0
 29 30  1  0  0  0  0
 29 31  1  0  0  0  0
M  CHG  1  23   1
M  END
$$$$
default_name
  -OEChem-02102213163D

 34 33  0     1  0  0  0  0  0999 V2000
   -3.8899   -3.6747    1.6490 H   0  0  0  0  0  0  0  0  0  0  0  0
   -3.9109   -2.6717    1.2250 C   0  0  0  0  0  0  0  0  0  0  0  0
   -4.6009   -2.0517    1.7950 H   0  0  0  0  0  0  0  0  0  0  0  0
   -4.2309   -2.7237    0.1860 H   0  0  0  0  0  0  0  0  0  0  0  0
   -2.5229   -2.0787    1.2980 C   0  0  0  0  0  0  0  0  0  0  0  0
   -1.5999   -2.7227    1.7810 O   0  0  0  0  0  0  0  0  0  0  0  0
   -2.3659   -0.8447    0.8120 N   0  0  0  0  0  0  0  0  0  0  0  0
   -3.1749   -0.3807    0.4220 H   0  0  0  0  0  0  0  0  0  0  0  0
   -1.0919   -0.1077    0.8170 C   0  0  1  0  0  0  0  0  0  0  0  0
   -0.3571   -0.6901    0.2581 H   0  0  0  0  0  0  0  0  0  0  0  0
   -1.3037    1.2411    0.1040 C   0  0  0  0  0  0  0  0  0  0  0  0
   -1.6318    1.0461   -0.9182 H   0  0  0  0  0  0  0  0  0  0  0  0
   -2.0930    1.7966    0.6144 H   0  0  0  0  0  0  0  0  0  0  0  0
   -0.0334    2.1033    0.0473 C   0  0  0  0  0  0  0  0  0  0  0  0
   -0.0541    2.7298   -0.8454 H   0  0  0  0  0  0  0  0  0  0  0  0
    0.0064    2.7431    0.9311 H   0  0  0  0  0  0  0  0  0  0  0  0
    1.2160    1.2125    0.0083 C   0  0  0  0  0  0  0  0  0  0  0  0
    1.2260    0.5757    0.8961 H   0  0  0  0  0  0  0  0  0  0  0  0
    1.1758    0.5815   -0.8818 H   0  0  0  0  0  0  0  0  0  0  0  0
    2.4859    2.0720   -0.0232 C   0  0  0  0  0  0  0  0  0  0  0  0
    2.4530    2.7072   -0.9144 H   0  0  0  0  0  0  0  0  0  0  0  0
    2.4852    2.7256    0.8543 H   0  0  0  0  0  0  0  0  0  0  0  0
    3.7118    1.2345   -0.0372 N   0  3  0  0  0  0  0  0  0  0  0  0
    3.7233    0.6348   -0.8528 H   0  0  0  0  0  0  0  0  0  0  0  0
    4.5401    1.8162   -0.0577 H   0  0  0  0  0  0  0  0  0  0  0  0
    3.7514    0.6509    0.7902 H   0  0  0  0  0  0  0  0  0  0  0  0
   -0.5865    0.0771    2.2496 C   0  0  0  0  0  0  0  0  0  0  0  0
    0.5860   -0.1608    2.5143 O   0  0  0  0  0  0  0  0  0  0  0  0
   -1.4786    0.4656    3.1667 N   0  0  0  0  0  0  0  0  0  0  0  0
   -2.4139    0.6698    2.8558 H   0  0  0  0  0  0  0  0  0  0  0  0
   -1.1587    0.6908    4.5775 C   0  0  0  0  0  0  0  0  0  0  0  0
   -0.4270    1.4968    4.6656 H   0  0  0  0  0  0  0  0  0  0  0  0
   -2.0565    0.9649    5.1327 H   0  0  0  0  0  0  0  0  0  0  0  0
   -0.7281   -0.2137    5.0125 H   0  0  0  0  0  0  0  0  0  0  0  0
  5  6  2  0  0  0  0
  5  7  1  0  0  0  0
  2  3  1  0  0  0  0
  2  4  1  0  0  0  0
  2  5  1  0  0  0  0
  1  2  1  0  0  0  0
 27 28  2  0  0  0  0
 27 29  1  0  0  0  0
 23 24  1  0  0  0  0
 23 25  1  0  0  0  0
 23 26  1  0  0  0  0
 20 21  1  0  0  0  0
 20 22  1  0  0  0  0
 20 23  1  0  0  0  0
 17 18  1  0  0  0  0
 17 19  1  0  0  0  0
 17 20  1  0  0  0  0
 14 15  1  0  0  0  0
 14 16  1  0  0  0  0
 14 17  1  0  0  0  0
 11 12  1  0  0  0  0
 11 13  1  0  0  0  0
 11 14  1  0  0  0  0
  9 10  1  0  0  0  0
  9 11  1  0  0  0  0
  9 27  1  0  0  0  0
  7  8  1  0  0  0  0
  7  9  1  0  0  0  0
 31 32  1  0  0  0  0
 31 33  1  0  0  0  0
 31 34  1  0  0  0  0
 29 30  1  0  0  0  0
 29 31  1  0  0  0  0
M  CHG  1  23   1
M  END
$$$$
default_name
  -OEChem-02102213163D

 34 33  0     1  0  0  0  0  0999 V2000
   -3.8899   -3.6747    1.6490 H   0  0  0  0  0  0  0  0  0  0  0  0
   -3.9109   -2.6717    1.2250 C   0  0  0  0  0  0  0  0  0  0  0  0
   -4.6009   -2.0517    1.7950 H   0  0  0  0  0  0  0  0  0  0  0  0
   -4.2309   -2.7237    0.1860 H   0  0  0  0  0  0  0  0  0  0  0  0
   -2.5229   -2.0787    1.2980 C   0  0  0  0  0  0  0  0  0  0  0  0
   -1.5999   -2.7227    1.7810 O   0  0  0  0  0  0  0  0  0  0  0  0
   -2.3659   -0.8447    0.8120 N   0  0  0  0  0  0  0  0  0  0  0  0
   -3.1749   -0.3807    0.4220 H   0  0  0  0  0  0  0  0  0  0  0  0
   -1.0919   -0.1077    0.8170 C   0  0  1  0  0  0  0  0  0  0  0  0
   -0.3571   -0.6901    0.2581 H   0  0  0  0  0  0  0  0  0  0  0  0
   -1.3037    1.2411    0.1040 C   0  0  0  0  0  0  0  0  0  0  0  0
   -1.6318    1.0461   -0.9182 H   0  0  0  0  0  0  0  0  0  0  0  0
   -2.0930    1.7966    0.6144 H   0  0  0  0  0  0  0  0  0  0  0  0
   -0.0334    2.1033    0.0473 C   0  0  0  0  0  0  0  0  0  0  0  0
   -0.1668    2.9068   -0.6783 H   0  0  0  0  0  0  0  0  0  0  0  0
    0.1497    2.5387    1.0316 H   0  0  0  0  0  0  0  0  0  0  0  0
    1.1743    1.2495   -0.3632 C   0  0  0  0  0  0  0  0  0  0  0  0
    1.2961    0.4370    0.3572 H   0  0  0  0  0  0  0  0  0  0  0  0
    0.9901    0.8241   -1.3517 H   0  0  0  0  0  0  0  0  0  0  0  0
    2.4478    2.1037   -0.3960 C   0  0  0  0  0  0  0  0  0  0  0  0
    2.3029    2.9152   -1.1166 H   0  0  0  0  0  0  0  0  0  0  0  0
    2.5902    2.5536    0.5912 H   0  0  0  0  0  0  0  0  0  0  0  0
    3.6372    1.2964   -0.7676 N   0  3  0  0  0  0  0  0  0  0  0  0
    3.5157    0.8859   -1.6849 H   0  0  0  0  0  0  0  0  0  0  0  0
    4.4684    1.8741   -0.7844 H   0  0  0  0  0  0  0  0  0  0  0  0
    3.7809    0.5490   -0.0985 H   0  0  0  0  0  0  0  0  0  0  0  0
   -0.5865    0.0771    2.2496 C   0  0  0  0  0  0  0  0  0  0  0  0
    0.5860   -0.1608    2.5143 O   0  0  0  0  0  0  0  0  0  0  0  0
   -1.4786    0.4656    3.1667 N   0  0  0  0  0  0  0  0  0  0  0  0
   -2.4139    0.6698    2.8558 H   0  0  0  0  0  0  0  0  0  0  0  0
   -1.1587    0.6908    4.5775 C   0  0  0  0  0  0  0  0  0  0  0  0
   -0.4270    1.4968    4.6656 H   0  0  0  0  0  0  0  0  0  0  0  0
   -2.0565    0.9649    5.1327 H   0  0  0  0  0  0  0  0  0  0  0  0
   -0.7281   -0.2137    5.0125 H   0  0  0  0  0  0  0  0  0  0  0  0
  5  6  2  0  0  0  0
  5  7  1  0  0  0  0
  2  3  1  0  0  0  0
  2  4  1  0  0  0  0
  2  5  1  0  0  0  0
  1  2  1  0  0  0  0
 27 28  2  0  0  0  0
 27 29  1  0  0  0  0
 23 24  1  0  0  0  0
 23 25  1  0  0  0  0
 23 26  1  0  0  0  0
 20 21  1  0  0  0  0
 20 22  1  0  0  0  0
 20 23  1  0  0  0  0
 17 18  1  0  0  0  0
 17 19  1  0  0  0  0
 17 20  1  0  0  0  0
 14 15  1  0  0  0  0
 14 16  1  0  0  0  0
 14 17  1  0  0  0  0
 11 12  1  0  0  0  0
 11 13  1  0  0  0  0
 11 14  1  0  0  0  0
  9 10  1  0  0  0  0
  9 11  1  0  0  0  0
  9 27  1  0  0  0  0
  7  8  1  0  0  0  0
  7  9  1  0  0  0  0
 31 32  1  0  0  0  0
 31 33  1  0  0  0  0
 31 34  1  0  0  0  0
 29 30  1  0  0  0  0
 29 31  1  0  0  0  0
M  CHG  1  23   1
M  END
$$$$
default_name
  -OEChem-02102213163D

 34 33  0     1  0  0  0  0  0999 V2000
   -3.8899   -3.6747    1.6490 H   0  0  0  0  0  0  0  0  0  0  0  0
   -3.9109   -2.6717    1.2250 C   0  0  0  0  0  0  0  0  0  0  0  0
   -4.6009   -2.0517    1.7950 H   0  0  0  0  0  0  0  0  0  0  0  0
   -4.2309   -2.7237    0.1860 H   0  0  0  0  0  0  0  0  0  0  0  0
   -2.5229   -2.0787    1.2980 C   0  0  0  0  0  0  0  0  0  0  0  0
   -1.5999   -2.7227    1.7810 O   0  0  0  0  0  0  0  0  0  0  0  0
   -2.3659   -0.8447    0.8120 N   0  0  0  0  0  0  0  0  0  0  0  0
   -3.1749   -0.3807    0.4220 H   0  0  0  0  0  0  0  0  0  0  0  0
   -1.0919   -0.1077    0.8170 C   0  0  1  0  0  0  0  0  0  0  0  0
   -0.3571   -0.6901    0.2581 H   0  0  0  0  0  0  0  0  0  0  0  0
   -1.3037    1.2411    0.1040 C   0  0  0  0  0  0  0  0  0  0  0  0
   -1.6318    1.0461   -0.9182 H   0  0  0  0  0  0  0  0  0  0  0  0
   -2.0930    1.7966    0.6144 H   0  0  0  0  0  0  0  0  0  0  0  0
   -0.0334    2.1033    0.0473 C   0  0  0  0  0  0  0  0  0  0  0  0
   -0.2496    3.0430   -0.4627 H   0  0  0  0  0  0  0  0  0  0  0  0
    0.3007    2.3183    1.0642 H   0  0  0  0  0  0  0  0  0  0  0  0
    1.0804    1.3651   -0.7080 C   0  0  0  0  0  0  0  0  0  0  0  0
    1.2842    0.4177   -0.2033 H   0  0  0  0  0  0  0  0  0  0  0  0
    0.7449    1.1608   -1.7267 H   0  0  0  0  0  0  0  0  0  0  0  0
    2.3571    2.2144   -0.7438 C   0  0  0  0  0  0  0  0  0  0  0  0
    2.1304    3.1608   -1.2456 H   0  0  0  0  0  0  0  0  0  0  0  0
    2.6518    2.4428    0.2849 H   0  0  0  0  0  0  0  0  0  0  0  0
    3.4596    1.5132   -1.4489 N   0  3  0  0  0  0  0  0  0  0  0  0
    3.1968    1.3085   -2.4049 H   0  0  0  0  0  0  0  0  0  0  0  0
    4.2941    2.0862   -1.4636 H   0  0  0  0  0  0  0  0  0  0  0  0
    3.6794    0.6405   -0.9831 H   0  0  0  0  0  0  0  0  0  0  0  0
   -0.5865    0.0771    2.2496 C   0  0  0  0  0  0  0  0  0  0  0  0
    0.5860   -0.1608    2.5143 O   0  0  0  0  0  0  0  0  0  0  0  0
   -1.4786    0.4656    3.1667 N   0  0  0  0  0  0  0  0  0  0  0  0
   -2.4139    0.6698    2.8558 H   0  0  0  0  0  0  0  0  0  0  0  0
   -1.1587    0.6908    4.5775 C   0  0  0  0  0  0  0  0  0  0  0  0
   -0.4270    1.4968    4.6656 H   0  0  0  0  0  0  0  0  0  0  0  0
   -2.0565    0.9649    5.1327 H   0  0  0  0  0  0  0  0  0  0  0  0
   -0.7281   -0.2137    5.0125 H   0  0  0  0  0  0  0  0  0  0  0  0
  5  6  2  0  0  0  0
  5  7  1  0  0  0  0
  2  3  1  0  0  0  0
  2  4  1  0  0  0  0
  2  5  1  0  0  0  0
  1  2  1  0  0  0  0
 27 28  2  0  0  0  0
 27 29  1  0  0  0  0
 23 24  1  0  0  0  0
 23 25  1  0  0  0  0
 23 26  1  0  0  0  0
 20 21  1  0  0  0  0
 20 22  1  0  0  0  0
 20 23  1  0  0  0  0
 17 18  1  0  0  0  0
 17 19  1  0  0  0  0
 17 20  1  0  0  0  0
 14 15  1  0  0  0  0
 14 16  1  0  0  0  0
 14 17  1  0  0  0  0
 11 12  1  0  0  0  0
 11 13  1  0  0  0  0
 11 14  1  0  0  0  0
  9 10  1  0  0  0  0
  9 11  1  0  0  0  0
  9 27  1  0  0  0  0
  7  8  1  0  0  0  0
  7  9  1  0  0  0  0
 31 32  1  0  0  0  0
 31 33  1  0  0  0  0
 31 34  1  0  0  0  0
 29 30  1  0  0  0  0
 29 31  1  0  0  0  0
M  CHG  1  23   1
M  END
$$$$
default_name
  -OEChem-02102213163D

 34 33  0     1  0  0  0  0  0999 V2000
   -3.8899   -3.6747    1.6490 H   0  0  0  0  0  0  0  0  0  0  0  0
   -3.9109   -2.6717    1.2250 C   0  0  0  0  0  0  0  0  0  0  0  0
   -4.6009   -2.0517    1.7950 H   0  0  0  0  0  0  0  0  0  0  0  0
   -4.2309   -2.7237    0.1860 H   0  0  0  0  0  0  0  0  0  0  0  0
   -2.5229   -2.0787    1.2980 C   0  0  0  0  0  0  0  0  0  0  0  0
   -1.5999   -2.7227    1.7810 O   0  0  0  0  0  0  0  0  0  0  0  0
   -2.3659   -0.8447    0.8120 N   0  0  0  0  0  0  0  0  0  0  0  0
   -3.1749   -0.3807    0.4220 H   0  0  0  0  0  0  0  0  0  0  0  0
   -1.0919   -0.1077    0.8170 C   0  0  1  0  0  0  0  0  0  0  0  0
   -0.3571   -0.6901    0.2581 H   0  0  0  0  0  0  0  0  0  0  0  0
   -1.3037    1.2411    0.1040 C   0  0  0  0  0  0  0  0  0  0  0  0
   -1.6318    1.0461   -0.9182 H   0  0  0  0  0  0  0  0  0  0  0  0
   -2.0930    1.7966    0.6144 H   0  0  0  0  0  0  0  0  0  0  0  0
   -0.0334    2.1033    0.0473 C   0  0  0  0  0  0  0  0  0  0  0  0
   -0.2970    3.1292   -0.2133 H   0  0  0  0  0  0  0  0  0  0  0  0
    0.4492    2.0971    1.0266 H   0  0  0  0  0  0  0  0  0  0  0  0
    0.9408    1.5515   -1.0027 C   0  0  0  0  0  0  0  0  0  0  0  0
    1.1911    0.5191   -0.7471 H   0  0  0  0  0  0  0  0  0  0  0  0
    0.4568    1.5685   -1.9812 H   0  0  0  0  0  0  0  0  0  0  0  0
    2.2201    2.3967   -1.0429 C   0  0  0  0  0  0  0  0  0  0  0  0
    1.9474    3.4273   -1.2926 H   0  0  0  0  0  0  0  0  0  0  0  0
    2.6657    2.4007   -0.0436 H   0  0  0  0  0  0  0  0  0  0  0  0
    3.1912    1.8701   -2.0349 N   0  3  0  0  0  0  0  0  0  0  0  0
    2.7882    1.8738   -2.9635 H   0  0  0  0  0  0  0  0  0  0  0  0
    4.0292    2.4382   -2.0489 H   0  0  0  0  0  0  0  0  0  0  0  0
    3.4536    0.9192   -1.8032 H   0  0  0  0  0  0  0  0  0  0  0  0
   -0.5865    0.0771    2.2496 C   0  0  0  0  0  0  0  0  0  0  0  0
    0.5860   -0.1608    2.5143 O   0  0  0  0  0  0  0  0  0  0  0  0
   -1.4786    0.4656    3.1667 N   0  0  0  0  0  0  0  0  0  0  0  0
   -2.4139    0.6698    2.8558 H   0  0  0  0  0  0  0  0  0  0  0  0
   -1.1587    0.6908    4.5775 C   0  0  0  0  0  0  0  0  0  0  0  0
   -0.4270    1.4968    4.6656 H   0  0  0  0  0  0  0  0  0  0  0  0
   -2.0565    0.9649    5.1327 H   0  0  0  0  0  0  0  0  0  0  0  0
   -0.7281   -0.2137    5.0125 H   0  0  0  0  0  0  0  0  0  0  0  0
  5  6  2  0  0  0  0
  5  7  1  0  0  0  0
  2  3  1  0  0  0  0
  2  4  1  0  0  0  0
  2  5  1  0  0  0  0
  1  2  1  0  0  0  0
 27 28  2  0  0  0  0
 27 29  1  0  0  0  0
 23 24  1  0  0  0  0
 23 25  1  0  0  0  0
 23 26  1  0  0  0  0
 20 21  1  0  0  0  0
 20 22  1  0  0  0  0
 20 23  1  0  0  0  0
 17 18  1  0  0  0  0
 17 19  1  0  0  0  0
 17 20  1  0  0  0  0
 14 15  1  0  0  0  0
 14 16  1  0  0  0  0
 14 17  1  0  0  0  0
 11 12  1  0  0  0  0
 11 13  1  0  0  0  0
 11 14  1  0  0  0  0
  9 10  1  0  0  0  0
  9 11  1  0  0  0  0
  9 27  1  0  0  0  0
  7  8  1  0  0  0  0
  7  9  1  0  0  0  0
 31 32  1  0  0  0  0
 31 33  1  0  0  0  0
 31 34  1  0  0  0  0
 29 30  1  0  0  0  0
 29 31  1  0  0  0  0
M  CHG  1  23   1
M  END
$$$$
default_name
  -OEChem-02102213163D

 34 33  0     1  0  0  0  0  0999 V2000
   -3.8899   -3.6747    1.6490 H   0  0  0  0  0  0  0  0  0  0  0  0
   -3.9109   -2.6717    1.2250 C   0  0  0  0  0  0  0  0  0  0  0  0
   -4.6009   -2.0517    1.7950 H   0  0  0  0  0  0  0  0  0  0  0  0
   -4.2309   -2.7237    0.1860 H   0  0  0  0  0  0  0  0  0  0  0  0
   -2.5229   -2.0787    1.2980 C   0  0  0  0  0  0  0  0  0  0  0  0
   -1.5999   -2.7227    1.7810 O   0  0  0  0  0  0  0  0  0  0  0  0
   -2.3659   -0.8447    0.8120 N   0  0  0  0  0  0  0  0  0  0  0  0
   -3.1749   -0.3807    0.4220 H   0  0  0  0  0  0  0  0  0  0  0  0
   -1.0919   -0.1077    0.8170 C   0  0  1  0  0  0  0  0  0  0  0  0
   -0.3571   -0.6901    0.2581 H   0  0  0  0  0  0  0  0  0  0  0  0
   -1.3037    1.2411    0.1040 C   0  0  0  0  0  0  0  0  0  0  0  0
   -1.6318    1.0461   -0.9182 H   0  0  0  0  0  0  0  0  0  0  0  0
   -2.0930    1.7966    0.6144 H   0  0  0  0  0  0  0  0  0  0  0  0
   -0.0334    2.1033    0.0473 C   0  0  0  0  0  0  0  0  0  0  0  0
   -0.3058    3.1596    0.0529 H   0  0  0  0  0  0  0  0  0  0  0  0
    0.5851    1.8900    0.9213 H   0  0  0  0  0  0  0  0  0  0  0  0
    0.7649    1.7960   -1.2272 C   0  0  0  0  0  0  0  0  0  0  0  0
    1.0232    0.7343   -1.2371 H   0  0  0  0  0  0  0  0  0  0  0  0
    0.1454    2.0196   -2.0980 H   0  0  0  0  0  0  0  0  0  0  0  0
    2.0460    2.6381   -1.2729 C   0  0  0  0  0  0  0  0  0  0  0  0
    1.7664    3.6965   -1.2544 H   0  0  0  0  0  0  0  0  0  0  0  0
    2.6310    2.4302   -0.3719 H   0  0  0  0  0  0  0  0  0  0  0  0
    2.8503    2.3429   -2.4855 N   0  3  0  0  0  0  0  0  0  0  0  0
    2.3177    2.5433   -3.3228 H   0  0  0  0  0  0  0  0  0  0  0  0
    3.6916    2.9059   -2.5005 H   0  0  0  0  0  0  0  0  0  0  0  0
    3.1192    1.3660   -2.5029 H   0  0  0  0  0  0  0  0  0  0  0  0
   -0.5865    0.0771    2.2496 C   0  0  0  0  0  0  0  0  0  0  0  0
    0.5860   -0.1608    2.5143 O   0  0  0  0  0  0  0  0  0  0  0  0
   -1.4786    0.4656    3.1667 N   0  0  0  0  0  0  0  0  0  0  0  0
   -2.4139    0.6698    2.8558 H   0  0  0  0  0  0  0  0  0  0  0  0
   -1.1587    0.6908    4.5775 C   0  0  0  0  0  0  0  0  0  0  0  0
   -0.4270    1.4968    4.6656 H   0  0  0  0  0  0  0  0  0  0  0  0
   -2.0565    0.9649    5.1327 H   0  0  0  0  0  0  0  0  0  0  0  0
   -0.7281   -0.2137    5.0125 H   0  0  0  0  0  0  0  0  0  0  0  0
  5  6  2  0  0  0  0
  5  7  1  0  0  0  0
  2  3  1  0  0  0  0
  2  4  1  0  0  0  0
  2  5  1  0  0  0  0
  1  2  1  0  0  0  0
 27 28  2  0  0  0  0
 27 29  1  0  0  0  0
 23 24  1  0  0  0  0
 23 25  1  0  0  0  0
 23 26  1  0  0  0  0
 20 21  1  0  0  0  0
 20 22  1  0  0  0  0
 20 23  1  0  0  0  0
 17 18  1  0  0  0  0
 17 19  1  0  0  0  0
 17 20  1  0  0  0  0
 14 15  1  0  0  0  0
 14 16  1  0  0  0  0
 14 17  1  0  0  0  0
 11 12  1  0  0  0  0
 11 13  1  0  0  0  0
 11 14  1  0  0  0  0
  9 10  1  0  0  0  0
  9 11  1  0  0  0  0
  9 27  1  0  0  0  0
  7  8  1  0  0  0  0
  7  9  1  0  0  0  0
 31 32  1  0  0  0  0
 31 33  1  0  0  0  0
 31 34  1  0  0  0  0
 29 30  1  0  0  0  0
 29 31  1  0  0  0  0
M  CHG  1  23   1
M  END
$$$$
default_name
  -OEChem-02102213163D

 34 33  0     1  0  0  0  0  0999 V2000
   -3.8899   -3.6747    1.6490 H   0  0  0  0  0  0  0  0  0  0  0  0
   -3.9109   -2.6717    1.2250 C   0  0  0  0  0  0  0  0  0  0  0  0
   -4.6009   -2.0517    1.7950 H   0  0  0  0  0  0  0  0  0  0  0  0
   -4.2309   -2.7237    0.1860 H   0  0  0  0  0  0  0  0  0  0  0  0
   -2.5229   -2.0787    1.2980 C   0  0  0  0  0  0  0  0  0  0  0  0
   -1.5999   -2.7227    1.7810 O   0  0  0  0  0  0  0  0  0  0  0  0
   -2.3659   -0.8447    0.8120 N   0  0  0  0  0  0  0  0  0  0  0  0
   -3.1749   -0.3807    0.4220 H   0  0  0  0  0  0  0  0  0  0  0  0
   -1.0919   -0.1077    0.8170 C   0  0  1  0  0  0  0  0  0  0  0  0
   -0.3571   -0.6901    0.2581 H   0  0  0  0  0  0  0  0  0  0  0  0
   -1.3037    1.2411    0.1040 C   0  0  0  0  0  0  0  0  0  0  0  0
   -1.6318    1.0461   -0.9182 H   0  0  0  0  0  0  0  0  0  0  0  0
   -2.0930    1.7966    0.6144 H   0  0  0  0  0  0  0  0  0  0  0  0
   -0.0334    2.1033    0.0473 C   0  0  0  0  0  0  0  0  0  0  0  0
   -0.2752    3.1320    0.3179 H   0  0  0  0  0  0  0  0  0  0  0  0
    0.6990    1.7112    0.7556 H   0  0  0  0  0  0  0  0  0  0  0  0
    0.5647    2.0818   -1.3661 C   0  0  0  0  0  0  0  0  0  0  0  0
    0.7919    1.0487   -1.6399 H   0  0  0  0  0  0  0  0  0  0  0  0
   -0.1680    2.4833   -2.0690 H   0  0  0  0  0  0  0  0  0  0  0  0
    1.8467    2.9221   -1.4181 C   0  0  0  0  0  0  0  0  0  0  0  0
    1.5997    3.9501   -1.1336 H   0  0  0  0  0  0  0  0  0  0  0  0
    2.5501    2.5293   -0.6777 H   0  0  0  0  0  0  0  0  0  0  0  0
    2.4600    2.8992   -2.7701 N   0  3  0  0  0  0  0  0  0  0  0  0
    1.8175    3.2714   -3.4582 H   0  0  0  0  0  0  0  0  0  0  0  0
    3.3043    3.4575   -2.7875 H   0  0  0  0  0  0  0  0  0  0  0  0
    2.6987    1.9505   -3.0346 H   0  0  0  0  0  0  0  0  0  0  0  0
   -0.5865    0.0771    2.2496 C   0  0  0  0  0  0  0  0  0  0  0  0
    0.5860   -0.1608    2.5143 O   0  0  0  0  0  0  0  0  0  0  0  0
   -1.4786    0.4656    3.1667 N   0  0  0  0  0  0  0  0  0  0  0  0
   -2.4139    0.6698    2.8558 H   0  0  0  0  0  0  0  0  0  0  0  0
   -1.1587    0.6908    4.5775 C   0  0  0  0  0  0  0  0  0  0  0  0
   -0.4270    1.4968    4.6656 H   0  0  0  0  0  0  0  0  0  0  0  0
   -2.0565    0.9649    5.1327 H   0  0  0  0  0  0  0  0  0  0  0  0
   -0.7281   -0.2137    5.0125 H   0  0  0  0  0  0  0  0  0  0  0  0
  5  6  2  0  0  0  0
  5  7  1  0  0  0  0
  2  3  1  0  0  0  0
  2  4  1  0  0  0  0
  2  5  1  0  0  0  0
  1  2  1  0  0  0  0
 27 28  2  0  0  0  0
 27 29  1  0  0  0  0
 23 24  1  0  0  0  0
 23 25  1  0  0  0  0
 23 26  1  0  0  0  0
 20 21  1  0  0  0  0
 20 22  1  0  0  0  0
 20 23  1  0  0  0  0
 17 18  1  0  0  0  0
 17 19  1  0  0  0  0
 17 20  1  0  0  0  0
 14 15  1  0  0  0  0
 14 16  1  0  0  0  0
 14 17  1  0  0  0  0
 11 12  1  0  0  0  0
 11 13  1  0  0  0  0
 11 14  1  0  0  0  0
  9 10  1  0  0  0  0
  9 11  1  0  0  0  0
  9 27  1  0  0  0  0
  7  8  1  0  0  0  0
  7  9  1  0  0  0  0
 31 32  1  0  0  0  0
 31 33  1  0  0  0  0
 31 34  1  0  0  0  0
 29 30  1  0  0  0  0
 29 31  1  0  0  0  0
M  CHG  1  23   1
M  END
$$$$
default_name
  -OEChem-02102213163D

 34 33  0     1  0  0  0  0  0999 V2000
   -3.8899   -3.6747    1.6490 H   0  0  0  0  0  0  0  0  0  0  0  0
   -3.9109   -2.6717    1.2250 C   0  0  0  0  0  0  0  0  0  0  0  0
   -4.6009   -2.0517    1.7950 H   0  0  0  0  0  0  0  0  0  0  0  0
   -4.2309   -2.7237    0.1860 H   0  0  0  0  0  0  0  0  0  0  0  0
   -2.5229   -2.0787    1.2980 C   0  0  0  0  0  0  0  0  0  0  0  0
   -1.5999   -2.7227    1.7810 O   0  0  0  0  0  0  0  0  0  0  0  0
   -2.3659   -0.8447    0.8120 N   0  0  0  0  0  0  0  0  0  0  0  0
   -3.1749   -0.3807    0.4220 H   0  0  0  0  0  0  0  0  0  0  0  0
   -1.0919   -0.1077    0.8170 C   0  0  1  0  0  0  0  0  0  0  0  0
   -0.3571   -0.6901    0.2581 H   0  0  0  0  0  0  0  0  0  0  0  0
   -1.3037    1.2411    0.1040 C   0  0  0  0  0  0  0  0  0  0  0  0
   -1.6318    1.0461   -0.9182 H   0  0  0  0  0  0  0  0  0  0  0  0
   -2.0930    1.7966    0.6144 H   0  0  0  0  0  0  0  0  0  0  0  0
   -0.0334    2.1033    0.0473 C   0  0  0  0  0  0  0  0  0  0  0  0
   -0.2075    3.0484    0.5635 H   0  0  0  0  0  0  0  0  0  0  0  0
    0.7833    1.5729    0.5407 H   0  0  0  0  0  0  0  0  0  0  0  0
    0.3538    2.3895   -1.4101 C   0  0  0  0  0  0  0  0  0  0  0  0
    0.5129    1.4408   -1.9282 H   0  0  0  0  0  0  0  0  0  0  0  0
   -0.4622    2.9280   -1.8962 H   0  0  0  0  0  0  0  0  0  0  0  0
    1.6359    3.2294   -1.4687 C   0  0  0  0  0  0  0  0  0  0  0  0
    1.4586    4.1708   -0.9384 H   0  0  0  0  0  0  0  0  0  0  0  0
    2.4285    2.6912   -0.9401 H   0  0  0  0  0  0  0  0  0  0  0  0
    2.0470    3.5012   -2.8692 N   0  3  0  0  0  0  0  0  0  0  0  0
    1.3216    4.0084   -3.3606 H   0  0  0  0  0  0  0  0  0  0  0  0
    2.8939    4.0555   -2.8905 H   0  0  0  0  0  0  0  0  0  0  0  0
    2.2209    2.6329   -3.3620 H   0  0  0  0  0  0  0  0  0  0  0  0
   -0.5865    0.0771    2.2496 C   0  0  0  0  0  0  0  0  0  0  0  0
    0.5860   -0.1608    2.5143 O   0  0  0  0  0  0  0  0  0  0  0  0
   -1.4786    0.4656    3.1667 N   0  0  0  0  0  0  0  0  0  0  0  0
   -2.4139    0.6698    2.8558 H   0  0  0  0  0  0  0  0  0  0  0  0
   -1.1587    0.6908    4.5775 C   0  0  0  0  0  0  0  0  0  0  0  0
   -0.4270    1.4968    4.6656 H   0  0  0  0  0  0  0  0  0  0  0  0
   -2.0565    0.9649    5.1327 H   0  0  0  0  0  0  0  0  0  0  0  0
   -0.7281   -0.2137    5.0125 H   0  0  0  0  0  0  0  0  0  0  0  0
  5  6  2  0  0  0  0
  5  7  1  0  0  0  0
  2  3  1  0  0  0  0
  2  4  1  0  0  0  0
  2  5  1  0  0  0  0
  1  2  1  0  0  0  0
 27 28  2  0  0  0  0
 27 29  1  0  0  0  0
 23 24  1  0  0  0  0
 23 25  1  0  0  0  0
 23 26  1  0  0  0  0
 20 21  1  0  0  0  0
 20 22  1  0  0  0  0
 20 23  1  0  0  0  0
 17 18  1  0  0  0  0
 17 19  1  0  0  0  0
 17 20  1  0  0  0  0
 14 15  1  0  0  0  0
 14 16  1  0  0  0  0
 14 17  1  0  0  0  0
 11 12  1  0  0  0  0
 11 13  1  0  0  0  0
 11 14  1  0  0  0  0
  9 10  1  0  0  0  0
  9 11  1  0  0  0  0
  9 27  1  0  0  0  0
  7  8  1  0  0  0  0
  7  9  1  0  0  0  0
 31 32  1  0  0  0  0
 31 33  1  0  0  0  0
 31 34  1  0  0  0  0
 29 30  1  0  0  0  0
 29 31  1  0  0  0  0
M  CHG  1  23   1
M  END
$$$$
default_name
  -OEChem-02102213163D

 34 33  0     1  0  0  0  0  0999 V2000
   -3.8899   -3.6747    1.6490 H   0  0  0  0  0  0  0  0  0  0  0  0
   -3.9109   -2.6717    1.2250 C   0  0  0  0  0  0  0  0  0  0  0  0
   -4.6009   -2.0517    1.7950 H   0  0  0  0  0  0  0  0  0  0  0  0
   -4.2309   -2.7237    0.1860 H   0  0  0  0  0  0  0  0  0  0  0  0
   -2.5229   -2.0787    1.2980 C   0  0  0  0  0  0  0  0  0  0  0  0
   -1.5999   -2.7227    1.7810 O   0  0  0  0  0  0  0  0  0  0  0  0
   -2.3659   -0.8447    0.8120 N   0  0  0  0  0  0  0  0  0  0  0  0
   -3.1749   -0.3807    0.4220 H   0  0  0  0  0  0  0  0  0  0  0  0
   -1.0919   -0.1077    0.8170 C   0  0  1  0  0  0  0  0  0  0  0  0
   -0.3571   -0.6901    0.2581 H   0  0  0  0  0  0  0  0  0  0  0  0
   -1.3037    1.2411    0.1040 C   0  0  0  0  0  0  0  0  0  0  0  0
   -1.6318    1.0461   -0.9182 H   0  0  0  0  0  0  0  0  0  0  0  0
   -2.0930    1.7966    0.6144 H   0  0  0  0  0  0  0  0  0  0  0  0
   -0.0334    2.1033    0.0473 C   0  0  0  0  0  0  0  0  0  0  0  0
   -0.1072    2.9144    0.7730 H   0  0  0  0  0  0  0  0  0  0  0  0
    0.8322    1.4844    0.2913 H   0  0  0  0  0  0  0  0  0  0  0  0
    0.1467    2.6982   -1.3561 C   0  0  0  0  0  0  0  0  0  0  0  0
    0.2053    1.8838   -2.0822 H   0  0  0  0  0  0  0  0  0  0  0  0
   -0.7169    3.3234   -1.5914 H   0  0  0  0  0  0  0  0  0  0  0  0
    1.4278    3.5391   -1.4211 C   0  0  0  0  0  0  0  0  0  0  0  0
    1.3528    4.3435   -0.6821 H   0  0  0  0  0  0  0  0  0  0  0  0
    2.2745    2.9049   -1.1413 H   0  0  0  0  0  0  0  0  0  0  0  0
    1.6394    4.1078   -2.7762 N   0  3  0  0  0  0  0  0  0  0  0  0
    0.8639    4.7041   -3.0365 H   0  0  0  0  0  0  0  0  0  0  0  0
    2.4881    4.6591   -2.8023 H   0  0  0  0  0  0  0  0  0  0  0  0
    1.7184    3.3667   -3.4628 H   0  0  0  0  0  0  0  0  0  0  0  0
   -0.5865    0.0771    2.2496 C   0  0  0  0  0  0  0  0  0  0  0  0
    0.5860   -0.1608    2.5143 O   0  0  0  0  0  0  0  0  0  0  0  0
   -1.4786    0.4656    3.1667 N   0  0  0  0  0  0  0  0  0  0  0  0
   -2.4139    0.6698    2.8558 H   0  0  0  0  0  0  0  0  0  0  0  0
   -1.1587    0.6908    4.5775 C   0  0  0  0  0  0  0  0  0  0  0  0
   -0.4270    1.4968    4.6656 H   0  0  0  0  0  0  0  0  0  0  0  0
   -2.0565    0.9649    5.1327 H   0  0  0  0  0  0  0  0  0  0  0  0
   -0.7281   -0.2137    5.0125 H   0  0  0  0  0  0  0  0  0  0  0  0
  5  6  2  0  0  0  0
  5  7  1  0  0  0  0
  2  3  1  0  0  0  0
  2  4  1  0  0  0  0
  2  5  1  0  0  0  0
  1  2  1  0  0  0  0
 27 28  2  0  0  0  0
 27 29  1  0  0  0  0
 23 24  1  0  0  0  0
 23 25  1  0  0  0  0
 23 26  1  0  0  0  0
 20 21  1  0  0  0  0
 20 22  1  0  0  0  0
 20 23  1  0  0  0  0
 17 18  1  0  0  0  0
 17 19  1  0  0  0  0
 17 20  1  0  0  0  0
 14 15  1  0  0  0  0
 14 16  1  0  0  0  0
 14 17  1  0  0  0  0
 11 12  1  0  0  0  0
 11 13  1  0  0  0  0
 11 14  1  0  0  0  0
  9 10  1  0  0  0  0
  9 11  1  0  0  0  0
  9 27  1  0  0  0  0
  7  8  1  0  0  0  0
  7  9  1  0  0  0  0
 31 32  1  0  0  0  0
 31 33  1  0  0  0  0
 31 34  1  0  0  0  0
 29 30  1  0  0  0  0
 29 31  1  0  0  0  0
M  CHG  1  23   1
M  END
$$$$
default_name
  -OEChem-02102213163D

 34 33  0     1  0  0  0  0  0999 V2000
   -3.8899   -3.6747    1.6490 H   0  0  0  0  0  0  0  0  0  0  0  0
   -3.9109   -2.6717    1.2250 C   0  0  0  0  0  0  0  0  0  0  0  0
   -4.6009   -2.0517    1.7950 H   0  0  0  0  0  0  0  0  0  0  0  0
   -4.2309   -2.7237    0.1860 H   0  0  0  0  0  0  0  0  0  0  0  0
   -2.5229   -2.0787    1.2980 C   0  0  0  0  0  0  0  0  0  0  0  0
   -1.5999   -2.7227    1.7810 O   0  0  0  0  0  0  0  0  0  0  0  0
   -2.3659   -0.8447    0.8120 N   0  0  0  0  0  0  0  0  0  0  0  0
   -3.1749   -0.3807    0.4220 H   0  0  0  0  0  0  0  0  0  0  0  0
   -1.0919   -0.1077    0.8170 C   0  0  1  0  0  0  0  0  0  0  0  0
   -0.3571   -0.6901    0.2581 H   0  0  0  0  0  0  0  0  0  0  0  0
   -1.3037    1.2411    0.1040 C   0  0  0  0  0  0  0  0  0  0  0  0
   -1.6318    1.0461   -0.9182 H   0  0  0  0  0  0  0  0  0  0  0  0
   -2.0930    1.7966    0.6144 H   0  0  0  0  0  0  0  0  0  0  0  0
   -0.0334    2.1033    0.0473 C   0  0  0  0  0  0  0  0  0  0  0  0
    0.0188    2.7392    0.9321 H   0  0  0  0  0  0  0  0  0  0  0  0
    0.8424    1.4519    0.0244 H   0  0  0  0  0  0  0  0  0  0  0  0
   -0.0425    2.9868   -1.2078 C   0  0  0  0  0  0  0  0  0  0  0  0
   -0.1099    2.3477   -2.0915 H   0  0  0  0  0  0  0  0  0  0  0  0
   -0.9149    3.6425   -1.1754 H   0  0  0  0  0  0  0  0  0  0  0  0
    1.2367    3.8300   -1.2786 C   0  0  0  0  0  0  0  0  0  0  0  0
    1.2894    4.4565   -0.3823 H   0  0  0  0  0  0  0  0  0  0  0  0
    2.0985    3.1559   -1.2675 H   0  0  0  0  0  0  0  0  0  0  0  0
    1.2650    4.6777   -2.4973 N   0  3  0  0  0  0  0  0  0  0  0  0
    0.4754    5.3112   -2.5081 H   0  0  0  0  0  0  0  0  0  0  0  0
    2.1148    5.2271   -2.5291 H   0  0  0  0  0  0  0  0  0  0  0  0
    1.2253    4.1019   -3.3302 H   0  0  0  0  0  0  0  0  0  0  0  0
   -0.5865    0.0771    2.2496 C   0  0  0  0  0  0  0  0  0  0  0  0
    0.5860   -0.1608    2.5143 O   0  0  0  0  0  0  0  0  0  0  0  0
   -1.4786    0.4656    3.1667 N   0  0  0  0  0  0  0  0  0  0  0  0
   -2.4139    0.6698    2.8558 H   0  0  0  0  0  0  0  0  0  0  0  0
   -1.1587    0.6908    4.5775 C   0  0  0  0  0  0  0  0  0  0  0  0
   -0.4270    1.4968    4.6656 H   0  0  0  0  0  0  0  0  0  0  0  0
   -2.0565    0.9649    5.1327 H   0  0  0  0  0  0  0  0  0  0  0  0
   -0.7281   -0.2137    5.0125 H   0  0  0  0  0  0  0  0  0  0  0  0
  5  6  2  0  0  0  0
  5  7  1  0  0  0  0
  2  3  1  0  0  0  0
  2  4  1  0  0  0  0
  2  5  1  0  0  0  0
  1  2  1  0  0  0  0
 27 28  2  0  0  0  0
 27 29  1  0  0  0  0
 23 24  1  0  0  0  0
 23 25  1  0  0  0  0
 23 26  1  0  0  0  0
 20 21  1  0  0  0  0
 20 22  1  0  0  0  0
 20 23  1  0  0  0  0
 17 18  1  0  0  0  0
 17 19  1  0  0  0  0
 17 20  1  0  0  0  0
 14 15  1  0  0  0  0
 14 16  1  0  0  0  0
 14 17  1  0  0  0  0
 11 12  1  0  0  0  0
 11 13  1  0  0  0  0
 11 14  1  0  0  0  0
  9 10  1  0  0  0  0
  9 11  1  0  0  0  0
  9 27  1  0  0  0  0
  7  8  1  0  0  0  0
  7  9  1  0  0  0  0
 31 32  1  0  0  0  0
 31 33  1  0  0  0  0
 31 34  1  0  0  0  0
 29 30  1  0  0  0  0
 29 31  1  0  0  0  0
M  CHG  1  23   1
M  END
$$$$
default_name
  -OEChem-02102213163D

 34 33  0     1  0  0  0  0  0999 V2000
   -3.8899   -3.6747    1.6490 H   0  0  0  0  0  0  0  0  0  0  0  0
   -3.9109   -2.6717    1.2250 C   0  0  0  0  0  0  0  0  0  0  0  0
   -4.6009   -2.0517    1.7950 H   0  0  0  0  0  0  0  0  0  0  0  0
   -4.2309   -2.7237    0.1860 H   0  0  0  0  0  0  0  0  0  0  0  0
   -2.5229   -2.0787    1.2980 C   0  0  0  0  0  0  0  0  0  0  0  0
   -1.5999   -2.7227    1.7810 O   0  0  0  0  0  0  0  0  0  0  0  0
   -2.3659   -0.8447    0.8120 N   0  0  0  0  0  0  0  0  0  0  0  0
   -3.1749   -0.3807    0.4220 H   0  0  0  0  0  0  0  0  0  0  0  0
   -1.0919   -0.1077    0.8170 C   0  0  1  0  0  0  0  0  0  0  0  0
   -0.3571   -0.6901    0.2581 H   0  0  0  0  0  0  0  0  0  0  0  0
   -1.3037    1.2411    0.1040 C   0  0  0  0  0  0  0  0  0  0  0  0
   -1.6318    1.0461   -0.9182 H   0  0  0  0  0  0  0  0  0  0  0  0
   -2.0930    1.7966    0.6144 H   0  0  0  0  0  0  0  0  0  0  0  0
   -0.0334    2.1033    0.0473 C   0  0  0  0  0  0  0  0  0  0  0  0
    0.1619    2.5347    1.0300 H   0  0  0  0  0  0  0  0  0  0  0  0
    0.8131    1.4775   -0.2419 H   0  0  0  0  0  0  0  0  0  0  0  0
   -0.2010    3.2356   -0.9753 C   0  0  0  0  0  0  0  0  0  0  0  0
   -0.4114    2.8007   -1.9554 H   0  0  0  0  0  0  0  0  0  0  0  0
   -1.0428    3.8635   -0.6766 H   0  0  0  0  0  0  0  0  0  0  0  0
    1.0756    4.0824   -1.0510 C   0  0  0  0  0  0  0  0  0  0  0  0
    1.2729    4.5021   -0.0592 H   0  0  0  0  0  0  0  0  0  0  0  0
    1.9126    3.4270   -1.3101 H   0  0  0  0  0  0  0  0  0  0  0  0
    0.9493    5.1721   -2.0515 N   0  3  0  0  0  0  0  0  0  0  0  0
    0.1827    5.7881   -1.8113 H   0  0  0  0  0  0  0  0  0  0  0  0
    1.7993    5.7208   -2.0894 H   0  0  0  0  0  0  0  0  0  0  0  0
    0.7753    4.7883   -2.9731 H   0  0  0  0  0  0  0  0  0  0  0  0
   -0.5865    0.0771    2.2496 C   0  0  0  0  0  0  0  0  0  0  0  0
    0.5860   -0.1608    2.5143 O   0  0  0  0  0  0  0  0  0  0  0  0
   -1.4786    0.4656    3.1667 N   0  0  0  0  0  0  0  0  0  0  0  0
   -2.4139    0.6698    2.8558 H   0  0  0  0  0  0  0  0  0  0  0  0
   -1.1587    0.6908    4.5775 C   0  0  0  0  0  0  0  0  0  0  0  0
   -0.4270    1.4968    4.6656 H   0  0  0  0  0  0  0  0  0  0  0  0
   -2.0565    0.9649    5.1327 H   0  0  0  0  0  0  0  0  0  0  0  0
   -0.7281   -0.2137    5.0125 H   0  0  0  0  0  0  0  0  0  0  0  0
  5  6  2  0  0  0  0
  5  7  1  0  0  0  0
  2  3  1  0  0  0  0
  2  4  1  0  0  0  0
  2  5  1  0  0  0  0
  1  2  1  0  0  0  0
 27 28  2  0  0  0  0
 27 29  1  0  0  0  0
 23 24  1  0  0  0  0
 23 25  1  0  0  0  0
 23 26  1  0  0  0  0
 20 21  1  0  0  0  0
 20 22  1  0  0  0  0
 20 23  1  0  0  0  0
 17 18  1  0  0  0  0
 17 19  1  0  0  0  0
 17 20  1  0  0  0  0
 14 15  1  0  0  0  0
 14 16  1  0  0  0  0
 14 17  1  0  0  0  0
 11 12  1  0  0  0  0
 11 13  1  0  0  0  0
 11 14  1  0  0  0  0
  9 10  1  0  0  0  0
  9 11  1  0  0  0  0
  9 27  1  0  0  0  0
  7  8  1  0  0  0  0
  7  9  1  0  0  0  0
 31 32  1  0  0  0  0
 31 33  1  0  0  0  0
 31 34  1  0  0  0  0
 29 30  1  0  0  0  0
 29 31  1  0  0  0  0
M  CHG  1  23   1
M  END
$$$$
default_name
  -OEChem-02102213163D

 34 33  0     1  0  0  0  0  0999 V2000
   -3.8899   -3.6747    1.6490 H   0  0  0  0  0  0  0  0  0  0  0  0
   -3.9109   -2.6717    1.2250 C   0  0  0  0  0  0  0  0  0  0  0  0
   -4.6009   -2.0517    1.7950 H   0  0  0  0  0  0  0  0  0  0  0  0
   -4.2309   -2.7237    0.1860 H   0  0  0  0  0  0  0  0  0  0  0  0
   -2.5229   -2.0787    1.2980 C   0  0  0  0  0  0  0  0  0  0  0  0
   -1.5999   -2.7227    1.7810 O   0  0  0  0  0  0  0  0  0  0  0  0
   -2.3659   -0.8447    0.8120 N   0  0  0  0  0  0  0  0  0  0  0  0
   -3.1749   -0.3807    0.4220 H   0  0  0  0  0  0  0  0  0  0  0  0
   -1.0919   -0.1077    0.8170 C   0  0  1  0  0  0  0  0  0  0  0  0
   -0.3571   -0.6901    0.2581 H   0  0  0  0  0  0  0  0  0  0  0  0
   -1.3037    1.2411    0.1040 C   0  0  0  0  0  0  0  0  0  0  0  0
   -1.8773    1.0661   -0.8076 H   0  0  0  0  0  0  0  0  0  0  0  0
   -1.8855    1.9011    0.7504 H   0  0  0  0  0  0  0  0  0  0  0  0
    0.0109    1.9378   -0.2789 C   0  0  0  0  0  0  0  0  0  0  0  0
    0.6014    2.1269    0.6186 H   0  0  0  0  0  0  0  0  0  0  0  0
    0.5790    1.2901   -0.9494 H   0  0  0  0  0  0  0  0  0  0  0  0
   -0.2761    3.2712   -0.9830 C   0  0  0  0  0  0  0  0  0  0  0  0
   -0.8802    3.0800   -1.8731 H   0  0  0  0  0  0  0  0  0  0  0  0
   -0.8361    3.9185   -0.3051 H   0  0  0  0  0  0  0  0  0  0  0  0
    1.0351    3.9562   -1.3880 C   0  0  0  0  0  0  0  0  0  0  0  0
    1.6283    4.1318   -0.4846 H   0  0  0  0  0  0  0  0  0  0  0  0
    1.5990    3.2745   -2.0319 H   0  0  0  0  0  0  0  0  0  0  0  0
    0.7858    5.2387   -2.0933 N   0  3  0  0  0  0  0  0  0  0  0  0
    0.2733    5.8778   -1.4985 H   0  0  0  0  0  0  0  0  0  0  0  0
    1.6602    5.6775   -2.3538 H   0  0  0  0  0  0  0  0  0  0  0  0
    0.2444    5.0804   -2.9351 H   0  0  0  0  0  0  0  0  0  0  0  0
   -0.5865    0.0771    2.2496 C   0  0  0  0  0  0  0  0  0  0  0  0
    0.5860   -0.1608    2.5143 O   0  0  0  0  0  0  0  0  0  0  0  0
   -1.4786    0.4656    3.1667 N   0  0  0  0  0  0  0  0  0  0  0  0
   -2.4139    0.6698    2.8558 H   0  0  0  0  0  0  0  0  0  0  0  0
   -1.1587    0.6908    4.5775 C   0  0  0  0  0  0  0  0  0  0  0  0
   -0.4270    1.4968    4.6656 H   0  0  0  0  0  0  0  0  0  0  0  0
   -2.0565    0.9649    5.1327 H   0  0  0  0  0  0  0  0  0  0  0  0
   -0.7281   -0.2137    5.0125 H   0  0  0  0  0  0  0  0  0  0  0  0
  5  6  2  0  0  0  0
  5  7  1  0  0  0  0
  2  3  1  0  0  0  0
  2  4  1  0  0  0  0
  2  5  1  0  0  0  0
  1  2  1  0  0  0  0
 27 28  2  0  0  0  0
 27 29  1  0  0  0  0
 23 24  1  0  0  0  0
 23 25  1  0  0  0  0
 23 26  1  0  0  0  0
 20 21  1  0  0  0  0
 20 22  1  0  0  0  0
 20 23  1  0  0  0  0
 17 18  1  0  0  0  0
 17 19  1  0  0  0  0
 17 20  1  0  0  0  0
 14 15  1  0  0  0  0
 14 16  1  0  0  0  0
 14 17  1  0  0  0  0
 11 12  1  0  0  0  0
 11 13  1  0  0  0  0
 11 14  1  0  0  0  0
  9 10  1  0  0  0  0
  9 11  1  0  0  0  0
  9 27  1  0  0  0  0
  7  8  1  0  0  0  0
  7  9  1  0  0  0  0
 31 32  1  0  0  0  0
 31 33  1  0  0  0  0
 31 34  1  0  0  0  0
 29 30  1  0  0  0  0
 29 31  1  0  0  0  0
M  CHG  1  23   1
M  END
$$$$
default_name
  -OEChem-02102213163D

 34 33  0     1  0  0  0  0  0999 V2000
   -3.8899   -3.6747    1.6490 H   0  0  0  0  0  0  0  0  0  0  0  0
   -3.9109   -2.6717    1.2250 C   0  0  0  0  0  0  0  0  0  0  0  0
   -4.6009   -2.0517    1.7950 H   0  0  0  0  0  0  0  0  0  0  0  0
   -4.2309   -2.7237    0.1860 H   0  0  0  0  0  0  0  0  0  0  0  0
   -2.5229   -2.0787    1.2980 C   0  0  0  0  0  0  0  0  0  0  0  0
   -1.5999   -2.7227    1.7810 O   0  0  0  0  0  0  0  0  0  0  0  0
   -2.3659   -0.8447    0.8120 N   0  0  0  0  0  0  0  0  0  0  0  0
   -3.1749   -0.3807    0.4220 H   0  0  0  0  0  0  0  0  0  0  0  0
   -1.0919   -0.1077    0.8170 C   0  0  1  0  0  0  0  0  0  0  0  0
   -0.3571   -0.6901    0.2581 H   0  0  0  0  0  0  0  0  0  0  0  0
   -1.3037    1.2411    0.1040 C   0  0  0  0  0  0  0  0  0  0  0  0
   -1.8773    1.0661   -0.8076 H   0  0  0  0  0  0  0  0  0  0  0  0
   -1.8855    1.9011    0.7504 H   0  0  0  0  0  0  0  0  0  0  0  0
    0.0109    1.9378   -0.2789 C   0  0  0  0  0  0  0  0  0  0  0  0
    0.7096    1.8893    0.5574 H   0  0  0  0  0  0  0  0  0  0  0  0
    0.4496    1.4295   -1.1398 H   0  0  0  0  0  0  0  0  0  0  0  0
   -0.2474    3.4085   -0.6345 C   0  0  0  0  0  0  0  0  0  0  0  0
   -0.9588    3.4540   -1.4625 H   0  0  0  0  0  0  0  0  0  0  0  0
   -0.6773    3.9142    0.2324 H   0  0  0  0  0  0  0  0  0  0  0  0
    1.0605    4.0989   -1.0409 C   0  0  0  0  0  0  0  0  0  0  0  0
    1.7615    4.0359   -0.2022 H   0  0  0  0  0  0  0  0  0  0  0  0
    1.4954    3.5519   -1.8829 H   0  0  0  0  0  0  0  0  0  0  0  0
    0.8355    5.5185   -1.4135 N   0  3  0  0  0  0  0  0  0  0  0  0
    0.4429    6.0325   -0.6348 H   0  0  0  0  0  0  0  0  0  0  0  0
    1.7074    5.9592   -1.6792 H   0  0  0  0  0  0  0  0  0  0  0  0
    0.1941    5.5819   -2.1954 H   0  0  0  0  0  0  0  0  0  0  0  0
   -0.5865    0.0771    2.2496 C   0  0  0  0  0  0  0  0  0  0  0  0
    0.5860   -0.1608    2.5143 O   0  0  0  0  0  0  0  0  0  0  0  0
   -1.4786    0.4656    3.1667 N   0  0  0  0  0  0  0  0  0  0  0  0
   -2.4139    0.6698    2.8558 H   0  0  0  0  0  0  0  0  0  0  0  0
   -1.1587    0.6908    4.5775 C   0  0  0  0  0  0  0  0  0  0  0  0
   -0.4270    1.4968    4.6656 H   0  0  0  0  0  0  0  0  0  0  0  0
   -2.0565    0.9649    5.1327 H   0  0  0  0  0  0  0  0  0  0  0  0
   -0.7281   -0.2137    5.0125 H   0  0  0  0  0  0  0  0  0  0  0  0
  5  6  2  0  0  0  0
  5  7  1  0  0  0  0
  2  3  1  0  0  0  0
  2  4  1  0  0  0  0
  2  5  1  0  0  0  0
  1  2  1  0  0  0  0
 27 28  2  0  0  0  0
 27 29  1  0  0  0  0
 23 24  1  0  0  0  0
 23 25  1  0  0  0  0
 23 26  1  0  0  0  0
 20 21  1  0  0  0  0
 20 22  1  0  0  0  0
 20 23  1  0  0  0  0
 17 18  1  0  0  0  0
 17 19  1  0  0  0  0
 17 20  1  0  0  0  0
 14 15  1  0  0  0  0
 14 16  1  0  0  0  0
 14 17  1  0  0  0  0
 11 12  1  0  0  0  0
 11 13  1  0  0  0  0
 11 14  1  0  0  0  0
  9 10  1  0  0  0  0
  9 11  1  0  0  0  0
  9 27  1  0  0  0  0
  7  8  1  0  0  0  0
  7  9  1  0  0  0  0
 31 32  1  0  0  0  0
 31 33  1  0  0  0  0
 31 34  1  0  0  0  0
 29 30  1  0  0  0  0
 29 31  1  0  0  0  0
M  CHG  1  23   1
M  END
$$$$
default_name
  -OEChem-02102213163D

 34 33  0     1  0  0  0  0  0999 V2000
   -3.8899   -3.6747    1.6490 H   0  0  0  0  0  0  0  0  0  0  0  0
   -3.9109   -2.6717    1.2250 C   0  0  0  0  0  0  0  0  0  0  0  0
   -4.6009   -2.0517    1.7950 H   0  0  0  0  0  0  0  0  0  0  0  0
   -4.2309   -2.7237    0.1860 H   0  0  0  0  0  0  0  0  0  0  0  0
   -2.5229   -2.0787    1.2980 C   0  0  0  0  0  0  0  0  0  0  0  0
   -1.5999   -2.7227    1.7810 O   0  0  0  0  0  0  0  0  0  0  0  0
   -2.3659   -0.8447    0.8120 N   0  0  0  0  0  0  0  0  0  0  0  0
   -3.1749   -0.3807    0.4220 H   0  0  0  0  0  0  0  0  0  0  0  0
   -1.0919   -0.1077    0.8170 C   0  0  1  0  0  0  0  0  0  0  0  0
   -0.3571   -0.6901    0.2581 H   0  0  0  0  0  0  0  0  0  0  0  0
   -1.3037    1.2411    0.1040 C   0  0  0  0  0  0  0  0  0  0  0  0
   -1.8773    1.0661   -0.8076 H   0  0  0  0  0  0  0  0  0  0  0  0
   -1.8855    1.9011    0.7504 H   0  0  0  0  0  0  0  0  0  0  0  0
    0.0109    1.9378   -0.2789 C   0  0  0  0  0  0  0  0  0  0  0  0
    0.7915    1.6663    0.4331 H   0  0  0  0  0  0  0  0  0  0  0  0
    0.3113    1.6148   -1.2776 H   0  0  0  0  0  0  0  0  0  0  0  0
   -0.1698    3.4621   -0.2709 C   0  0  0  0  0  0  0  0  0  0  0  0
   -0.9625    3.7294   -0.9739 H   0  0  0  0  0  0  0  0  0  0  0  0
   -0.4611    3.7808    0.7319 H   0  0  0  0  0  0  0  0  0  0  0  0
    1.1350    4.1583   -0.6771 C   0  0  0  0  0  0  0  0  0  0  0  0
    1.9170    3.8720    0.0337 H   0  0  0  0  0  0  0  0  0  0  0  0
    1.4307    3.7935   -1.6654 H   0  0  0  0  0  0  0  0  0  0  0  0
    0.9814    5.6349   -0.7008 N   0  3  0  0  0  0  0  0  0  0  0  0
    0.7180    5.9797    0.2138 H   0  0  0  0  0  0  0  0  0  0  0  0
    1.8503    6.0789   -0.9708 H   0  0  0  0  0  0  0  0  0  0  0  0
    0.2646    5.9057   -1.3640 H   0  0  0  0  0  0  0  0  0  0  0  0
   -0.5865    0.0771    2.2496 C   0  0  0  0  0  0  0  0  0  0  0  0
    0.5860   -0.1608    2.5143 O   0  0  0  0  0  0  0  0  0  0  0  0
   -1.4786    0.4656    3.1667 N   0  0  0  0  0  0  0  0  0  0  0  0
   -2.4139    0.6698    2.8558 H   0  0  0  0  0  0  0  0  0  0  0  0
   -1.1587    0.6908    4.5775 C   0  0  0  0  0  0  0  0  0  0  0  0
   -0.4270    1.4968    4.6656 H   0  0  0  0  0  0  0  0  0  0  0  0
   -2.0565    0.9649    5.1327 H   0  0  0  0  0  0  0  0  0  0  0  0
   -0.7281   -0.2137    5.0125 H   0  0  0  0  0  0  0  0  0  0  0  0
  5  6  2  0  0  0  0
  5  7  1  0  0  0  0
  2  3  1  0  0  0  0
  2  4  1  0  0  0  0
  2  5  1  0  0  0  0
  1  2  1  0  0  0  0
 27 28  2  0  0  0  0
 27 29  1  0  0  0  0
 23 24  1  0  0  0  0
 23 25  1  0  0  0  0
 23 26  1  0  0  0  0
 20 21  1  0  0  0  0
 20 22  1  0  0  0  0
 20 23  1  0  0  0  0
 17 18  1  0  0  0  0
 17 19  1  0  0  0  0
 17 20  1  0  0  0  0
 14 15  1  0  0  0  0
 14 16  1  0  0  0  0
 14 17  1  0  0  0  0
 11 12  1  0  0  0  0
 11 13  1  0  0  0  0
 11 14  1  0  0  0  0
  9 10  1  0  0  0  0
  9 11  1  0  0  0  0
  9 27  1  0  0  0  0
  7  8  1  0  0  0  0
  7  9  1  0  0  0  0
 31 32  1  0  0  0  0
 31 33  1  0  0  0  0
 31 34  1  0  0  0  0
 29 30  1  0  0  0  0
 29 31  1  0  0  0  0
M  CHG  1  23   1
M  END
$$$$
default_name
  -OEChem-02102213163D

 34 33  0     1  0  0  0  0  0999 V2000
   -3.8899   -3.6747    1.6490 H   0  0  0  0  0  0  0  0  0  0  0  0
   -3.9109   -2.6717    1.2250 C   0  0  0  0  0  0  0  0  0  0  0  0
   -4.6009   -2.0517    1.7950 H   0  0  0  0  0  0  0  0  0  0  0  0
   -4.2309   -2.7237    0.1860 H   0  0  0  0  0  0  0  0  0  0  0  0
   -2.5229   -2.0787    1.2980 C   0  0  0  0  0  0  0  0  0  0  0  0
   -1.5999   -2.7227    1.7810 O   0  0  0  0  0  0  0  0  0  0  0  0
   -2.3659   -0.8447    0.8120 N   0  0  0  0  0  0  0  0  0  0  0  0
   -3.1749   -0.3807    0.4220 H   0  0  0  0  0  0  0  0  0  0  0  0
   -1.0919   -0.1077    0.8170 C   0  0  1  0  0  0  0  0  0  0  0  0
   -0.3571   -0.6901    0.2581 H   0  0  0  0  0  0  0  0  0  0  0  0
   -1.3037    1.2411    0.1040 C   0  0  0  0  0  0  0  0  0  0  0  0
   -1.8773    1.0661   -0.8076 H   0  0  0  0  0  0  0  0  0  0  0  0
   -1.8855    1.9011    0.7504 H   0  0  0  0  0  0  0  0  0  0  0  0
    0.0109    1.9378   -0.2789 C   0  0  0  0  0  0  0  0  0  0  0  0
    0.8417    1.4732    0.2540 H   0  0  0  0  0  0  0  0  0  0  0  0
    0.1735    1.8331   -1.3534 H   0  0  0  0  0  0  0  0  0  0  0  0
   -0.0488    3.4283    0.0831 C   0  0  0  0  0  0  0  0  0  0  0  0
   -0.8909    3.8874   -0.4404 H   0  0  0  0  0  0  0  0  0  0  0  0
   -0.2022    3.5274    1.1595 H   0  0  0  0  0  0  0  0  0  0  0  0
    1.2535    4.1303   -0.3213 C   0  0  0  0  0  0  0  0  0  0  0  0
    2.0844    3.6515    0.2071 H   0  0  0  0  0  0  0  0  0  0  0  0
    1.4093    3.9829   -1.3942 H   0  0  0  0  0  0  0  0  0  0  0  0
    1.2134    5.5802   -0.0037 N   0  3  0  0  0  0  0  0  0  0  0  0
    1.0800    5.7230    0.9895 H   0  0  0  0  0  0  0  0  0  0  0  0
    2.0792    6.0284   -0.2767 H   0  0  0  0  0  0  0  0  0  0  0  0
    0.4512    6.0298   -0.4974 H   0  0  0  0  0  0  0  0  0  0  0  0
   -0.5865    0.0771    2.2496 C   0  0  0  0  0  0  0  0  0  0  0  0
    0.5860   -0.1608    2.5143 O   0  0  0  0  0  0  0  0  0  0  0  0
   -1.4786    0.4656    3.1667 N   0  0  0  0  0  0  0  0  0  0  0  0
   -2.4139    0.6698    2.8558 H   0  0  0  0  0  0  0  0  0  0  0  0
   -1.1587    0.6908    4.5775 C   0  0  0  0  0  0  0  0  0  0  0  0
   -0.4270    1.4968    4.6656 H   0  0  0  0  0  0  0  0  0  0  0  0
   -2.0565    0.9649    5.1327 H   0  0  0  0  0  0  0  0  0  0  0  0
   -0.7281   -0.2137    5.0125 H   0  0  0  0  0  0  0  0  0  0  0  0
  5  6  2  0  0  0  0
  5  7  1  0  0  0  0
  2  3  1  0  0  0  0
  2  4  1  0  0  0  0
  2  5  1  0  0  0  0
  1  2  1  0  0  0  0
 27 28  2  0  0  0  0
 27 29  1  0  0  0  0
 23 24  1  0  0  0  0
 23 25  1  0  0  0  0
 23 26  1  0  0  0  0
 20 21  1  0  0  0  0
 20 22  1  0  0  0  0
 20 23  1  0  0  0  0
 17 18  1  0  0  0  0
 17 19  1  0  0  0  0
 17 20  1  0  0  0  0
 14 15  1  0  0  0  0
 14 16  1  0  0  0  0
 14 17  1  0  0  0  0
 11 12  1  0  0  0  0
 11 13  1  0  0  0  0
 11 14  1  0  0  0  0
  9 10  1  0  0  0  0
  9 11  1  0  0  0  0
  9 27  1  0  0  0  0
  7  8  1  0  0  0  0
  7  9  1  0  0  0  0
 31 32  1  0  0  0  0
 31 33  1  0  0  0  0
 31 34  1  0  0  0  0
 29 30  1  0  0  0  0
 29 31  1  0  0  0  0
M  CHG  1  23   1
M  END
$$$$
default_name
  -OEChem-02102213163D

 34 33  0     1  0  0  0  0  0999 V2000
   -3.8899   -3.6747    1.6490 H   0  0  0  0  0  0  0  0  0  0  0  0
   -3.9109   -2.6717    1.2250 C   0  0  0  0  0  0  0  0  0  0  0  0
   -4.6009   -2.0517    1.7950 H   0  0  0  0  0  0  0  0  0  0  0  0
   -4.2309   -2.7237    0.1860 H   0  0  0  0  0  0  0  0  0  0  0  0
   -2.5229   -2.0787    1.2980 C   0  0  0  0  0  0  0  0  0  0  0  0
   -1.5999   -2.7227    1.7810 O   0  0  0  0  0  0  0  0  0  0  0  0
   -2.3659   -0.8447    0.8120 N   0  0  0  0  0  0  0  0  0  0  0  0
   -3.1749   -0.3807    0.4220 H   0  0  0  0  0  0  0  0  0  0  0  0
   -1.0919   -0.1077    0.8170 C   0  0  1  0  0  0  0  0  0  0  0  0
   -0.3571   -0.6901    0.2581 H   0  0  0  0  0  0  0  0  0  0  0  0
   -1.3037    1.2411    0.1040 C   0  0  0  0  0  0  0  0  0  0  0  0
   -1.8773    1.0661   -0.8076 H   0  0  0  0  0  0  0  0  0  0  0  0
   -1.8855    1.9011    0.7504 H   0  0  0  0  0  0  0  0  0  0  0  0
    0.0109    1.9378   -0.2789 C   0  0  0  0  0  0  0  0  0  0  0  0
    0.8567    1.3232    0.0323 H   0  0  0  0  0  0  0  0  0  0  0  0
    0.0456    2.0697   -1.3621 H   0  0  0  0  0  0  0  0  0  0  0  0
    0.1074    3.3094    0.4033 C   0  0  0  0  0  0  0  0  0  0  0  0
   -0.7489    3.9173    0.1014 H   0  0  0  0  0  0  0  0  0  0  0  0
    0.0816    3.1712    1.4861 H   0  0  0  0  0  0  0  0  0  0  0  0
    1.4079    4.0168    0.0024 C   0  0  0  0  0  0  0  0  0  0  0  0
    2.2522    3.3893    0.3061 H   0  0  0  0  0  0  0  0  0  0  0  0
    1.4327    4.1072   -1.0878 H   0  0  0  0  0  0  0  0  0  0  0  0
    1.5159    5.3579    0.6302 N   0  3  0  0  0  0  0  0  0  0  0  0
    1.5041    5.2799    1.6395 H   0  0  0  0  0  0  0  0  0  0  0  0
    2.3785    5.8112    0.3556 H   0  0  0  0  0  0  0  0  0  0  0  0
    0.7412    5.9457    0.3452 H   0  0  0  0  0  0  0  0  0  0  0  0
   -0.5865    0.0771    2.2496 C   0  0  0  0  0  0  0  0  0  0  0  0
    0.5860   -0.1608    2.5143 O   0  0  0  0  0  0  0  0  0  0  0  0
   -1.4786    0.4656    3.1667 N   0  0  0  0  0  0  0  0  0  0  0  0
   -2.4139    0.6698    2.8558 H   0  0  0  0  0  0  0  0  0  0  0  0
   -1.1587    0.6908    4.5775 C   0  0  0  0  0  0  0  0  0  0  0  0
   -0.4270    1.4968    4.6656 H   0  0  0  0  0  0  0  0  0  0  0  0
   -2.0565    0.9649    5.1327 H   0  0  0  0  0  0  0  0  0  0  0  0
   -0.7281   -0.2137    5.0125 H   0  0  0  0  0  0  0  0  0  0  0  0
  5  6  2  0  0  0  0
  5  7  1  0  0  0  0
  2  3  1  0  0  0  0
  2  4  1  0  0  0  0
  2  5  1  0  0  0  0
  1  2  1  0  0  0  0
 27 28  2  0  0  0  0
 27 29  1  0  0  0  0
 23 24  1  0  0  0  0
 23 25  1  0  0  0  0
 23 26  1  0  0  0  0
 20 21  1  0  0  0  0
 20 22  1  0  0  0  0
 20 23  1  0  0  0  0
 17 18  1  0  0  0  0
 17 19  1  0  0  0  0
 17 20  1  0  0  0  0
 14 15  1  0  0  0  0
 14 16  1  0  0  0  0
 14 17  1  0  0  0  0
 11 12  1  0  0  0  0
 11 13  1  0  0  0  0
 11 14  1  0  0  0  0
  9 10  1  0  0  0  0
  9 11  1  0  0  0  0
  9 27  1  0  0  0  0
  7  8  1  0  0  0  0
  7  9  1  0  0  0  0
 31 32  1  0  0  0  0
 31 33  1  0  0  0  0
 31 34  1  0  0  0  0
 29 30  1  0  0  0  0
 29 31  1  0  0  0  0
M  CHG  1  23   1
M  END
$$$$
default_name
  -OEChem-02102213163D

 34 33  0     1  0  0  0  0  0999 V2000
   -3.8899   -3.6747    1.6490 H   0  0  0  0  0  0  0  0  0  0  0  0
   -3.9109   -2.6717    1.2250 C   0  0  0  0  0  0  0  0  0  0  0  0
   -4.6009   -2.0517    1.7950 H   0  0  0  0  0  0  0  0  0  0  0  0
   -4.2309   -2.7237    0.1860 H   0  0  0  0  0  0  0  0  0  0  0  0
   -2.5229   -2.0787    1.2980 C   0  0  0  0  0  0  0  0  0  0  0  0
   -1.5999   -2.7227    1.7810 O   0  0  0  0  0  0  0  0  0  0  0  0
   -2.3659   -0.8447    0.8120 N   0  0  0  0  0  0  0  0  0  0  0  0
   -3.1749   -0.3807    0.4220 H   0  0  0  0  0  0  0  0  0  0  0  0
   -1.0919   -0.1077    0.8170 C   0  0  1  0  0  0  0  0  0  0  0  0
   -0.3571   -0.6901    0.2581 H   0  0  0  0  0  0  0  0  0  0  0  0
   -1.3037    1.2411    0.1040 C   0  0  0  0  0  0  0  0  0  0  0  0
   -1.8773    1.0661   -0.8076 H   0  0  0  0  0  0  0  0  0  0  0  0
   -1.8855    1.9011    0.7504 H   0  0  0  0  0  0  0  0  0  0  0  0
    0.0109    1.9378   -0.2789 C   0  0  0  0  0  0  0  0  0  0  0  0
    0.8354    1.2263   -0.2168 H   0  0  0  0  0  0  0  0  0  0  0  0
   -0.0638    2.3085   -1.3031 H   0  0  0  0  0  0  0  0  0  0  0  0
    0.2883    3.1136    0.6680 C   0  0  0  0  0  0  0  0  0  0  0  0
   -0.5462    3.8170    0.6147 H   0  0  0  0  0  0  0  0  0  0  0  0
    0.3712    2.7365    1.6892 H   0  0  0  0  0  0  0  0  0  0  0  0
    1.5877    3.8255    0.2717 C   0  0  0  0  0  0  0  0  0  0  0  0
    2.4089    3.1032    0.3239 H   0  0  0  0  0  0  0  0  0  0  0  0
    1.4993    4.1578   -0.7671 H   0  0  0  0  0  0  0  0  0  0  0  0
    1.8681    4.9833    1.1579 N   0  3  0  0  0  0  0  0  0  0  0  0
    1.9615    4.6806    2.1194 H   0  0  0  0  0  0  0  0  0  0  0  0
    2.7278    5.4419    0.8832 H   0  0  0  0  0  0  0  0  0  0  0  0
    1.1148    5.6592    1.1064 H   0  0  0  0  0  0  0  0  0  0  0  0
   -0.5865    0.0771    2.2496 C   0  0  0  0  0  0  0  0  0  0  0  0
    0.5860   -0.1608    2.5143 O   0  0  0  0  0  0  0  0  0  0  0  0
   -1.4786    0.4656    3.1667 N   0  0  0  0  0  0  0  0  0  0  0  0
   -2.4139    0.6698    2.8558 H   0  0  0  0  0  0  0  0  0  0  0  0
   -1.1587    0.6908    4.5775 C   0  0  0  0  0  0  0  0  0  0  0  0
   -0.4270    1.4968    4.6656 H   0  0  0  0  0  0  0  0  0  0  0  0
   -2.0565    0.9649    5.1327 H   0  0  0  0  0  0  0  0  0  0  0  0
   -0.7281   -0.2137    5.0125 H   0  0  0  0  0  0  0  0  0  0  0  0
  5  6  2  0  0  0  0
  5  7  1  0  0  0  0
  2  3  1  0  0  0  0
  2  4  1  0  0  0  0
  2  5  1  0  0  0  0
  1  2  1  0  0  0  0
 27 28  2  0  0  0  0
 27 29  1  0  0  0  0
 23 24  1  0  0  0  0
 23 25  1  0  0  0  0
 23 26  1  0  0  0  0
 20 21  1  0  0  0  0
 20 22  1  0  0  0  0
 20 23  1  0  0  0  0
 17 18  1  0  0  0  0
 17 19  1  0  0  0  0
 17 20  1  0  0  0  0
 14 15  1  0  0  0  0
 14 16  1  0  0  0  0
 14 17  1  0  0  0  0
 11 12  1  0  0  0  0
 11 13  1  0  0  0  0
 11 14  1  0  0  0  0
  9 10  1  0  0  0  0
  9 11  1  0  0  0  0
  9 27  1  0  0  0  0
  7  8  1  0  0  0  0
  7  9  1  0  0  0  0
 31 32  1  0  0  0  0
 31 33  1  0  0  0  0
 31 34  1  0  0  0  0
 29 30  1  0  0  0  0
 29 31  1  0  0  0  0
M  CHG  1  23   1
M  END
$$$$
default_name
  -OEChem-02102213163D

 34 33  0     1  0  0  0  0  0999 V2000
   -3.8899   -3.6747    1.6490 H   0  0  0  0  0  0  0  0  0  0  0  0
   -3.9109   -2.6717    1.2250 C   0  0  0  0  0  0  0  0  0  0  0  0
   -4.6009   -2.0517    1.7950 H   0  0  0  0  0  0  0  0  0  0  0  0
   -4.2309   -2.7237    0.1860 H   0  0  0  0  0  0  0  0  0  0  0  0
   -2.5229   -2.0787    1.2980 C   0  0  0  0  0  0  0  0  0  0  0  0
   -1.5999   -2.7227    1.7810 O   0  0  0  0  0  0  0  0  0  0  0  0
   -2.3659   -0.8447    0.8120 N   0  0  0  0  0  0  0  0  0  0  0  0
   -3.1749   -0.3807    0.4220 H   0  0  0  0  0  0  0  0  0  0  0  0
   -1.0919   -0.1077    0.8170 C   0  0  1  0  0  0  0  0  0  0  0  0
   -0.3571   -0.6901    0.2581 H   0  0  0  0  0  0  0  0  0  0  0  0
   -1.3037    1.2411    0.1040 C   0  0  0  0  0  0  0  0  0  0  0  0
   -1.8773    1.0661   -0.8076 H   0  0  0  0  0  0  0  0  0  0  0  0
   -1.8855    1.9011    0.7504 H   0  0  0  0  0  0  0  0  0  0  0  0
    0.0109    1.9378   -0.2789 C   0  0  0  0  0  0  0  0  0  0  0  0
    0.7794    1.1893   -0.4764 H   0  0  0  0  0  0  0  0  0  0  0  0
   -0.1470    2.5330   -1.1804 H   0  0  0  0  0  0  0  0  0  0  0  0
    0.4814    2.8542    0.8590 C   0  0  0  0  0  0  0  0  0  0  0  0
   -0.2967    3.5933    1.0645 H   0  0  0  0  0  0  0  0  0  0  0  0
    0.6467    2.2529    1.7553 H   0  0  0  0  0  0  0  0  0  0  0  0
    1.7807    3.5695    0.4683 C   0  0  0  0  0  0  0  0  0  0  0  0
    2.5440    2.8129    0.2594 H   0  0  0  0  0  0  0  0  0  0  0  0
    1.6045    4.1314   -0.4539 H   0  0  0  0  0  0  0  0  0  0  0  0
    2.2460    4.4819    1.5433 N   0  3  0  0  0  0  0  0  0  0  0  0
    2.4209    3.9660    2.3965 H   0  0  0  0  0  0  0  0  0  0  0  0
    3.1033    4.9459    1.2700 H   0  0  0  0  0  0  0  0  0  0  0  0
    1.5465    5.1897    1.7344 H   0  0  0  0  0  0  0  0  0  0  0  0
   -0.5865    0.0771    2.2496 C   0  0  0  0  0  0  0  0  0  0  0  0
    0.5860   -0.1608    2.5143 O   0  0  0  0  0  0  0  0  0  0  0  0
   -1.4786    0.4656    3.1667 N   0  0  0  0  0  0  0  0  0  0  0  0
   -2.4139    0.6698    2.8558 H   0  0  0  0  0  0  0  0  0  0  0  0
   -1.1587    0.6908    4.5775 C   0  0  0  0  0  0  0  0  0  0  0  0
   -0.4270    1.4968    4.6656 H   0  0  0  0  0  0  0  0  0  0  0  0
   -2.0565    0.9649    5.1327 H   0  0  0  0  0  0  0  0  0  0  0  0
   -0.7281   -0.2137    5.0125 H   0  0  0  0  0  0  0  0  0  0  0  0
  5  6  2  0  0  0  0
  5  7  1  0  0  0  0
  2  3  1  0  0  0  0
  2  4  1  0  0  0  0
  2  5  1  0  0  0  0
  1  2  1  0  0  0  0
 27 28  2  0  0  0  0
 27 29  1  0  0  0  0
 23 24  1  0  0  0  0
 23 25  1  0  0  0  0
 23 26  1  0  0  0  0
 20 21  1  0  0  0  0
 20 22  1  0  0  0  0
 20 23  1  0  0  0  0
 17 18  1  0  0  0  0
 17 19  1  0  0  0  0
 17 20  1  0  0  0  0
 14 15  1  0  0  0  0
 14 16  1  0  0  0  0
 14 17  1  0  0  0  0
 11 12  1  0  0  0  0
 11 13  1  0  0  0  0
 11 14  1  0  0  0  0
  9 10  1  0  0  0  0
  9 11  1  0  0  0  0
  9 27  1  0  0  0  0
  7  8  1  0  0  0  0
  7  9  1  0  0  0  0
 31 32  1  0  0  0  0
 31 33  1  0  0  0  0
 31 34  1  0  0  0  0
 29 30  1  0  0  0  0
 29 31  1  0  0  0  0
M  CHG  1  23   1
M  END
$$$$
default_name
  -OEChem-02102213163D

 34 33  0     1  0  0  0  0  0999 V2000
   -3.8899   -3.6747    1.6490 H   0  0  0  0  0  0  0  0  0  0  0  0
   -3.9109   -2.6717    1.2250 C   0  0  0  0  0  0  0  0  0  0  0  0
   -4.6009   -2.0517    1.7950 H   0  0  0  0  0  0  0  0  0  0  0  0
   -4.2309   -2.7237    0.1860 H   0  0  0  0  0  0  0  0  0  0  0  0
   -2.5229   -2.0787    1.2980 C   0  0  0  0  0  0  0  0  0  0  0  0
   -1.5999   -2.7227    1.7810 O   0  0  0  0  0  0  0  0  0  0  0  0
   -2.3659   -0.8447    0.8120 N   0  0  0  0  0  0  0  0  0  0  0  0
   -3.1749   -0.3807    0.4220 H   0  0  0  0  0  0  0  0  0  0  0  0
   -1.0919   -0.1077    0.8170 C   0  0  1  0  0  0  0  0  0  0  0  0
   -0.3571   -0.6901    0.2581 H   0  0  0  0  0  0  0  0  0  0  0  0
   -1.3037    1.2411    0.1040 C   0  0  0  0  0  0  0  0  0  0  0  0
   -1.8773    1.0661   -0.8076 H   0  0  0  0  0  0  0  0  0  0  0  0
   -1.8855    1.9011    0.7504 H   0  0  0  0  0  0  0  0  0  0  0  0
    0.0109    1.9378   -0.2789 C   0  0  0  0  0  0  0  0  0  0  0  0
    0.6925    1.2147   -0.7288 H   0  0  0  0  0  0  0  0  0  0  0  0
   -0.1986    2.7281   -1.0023 H   0  0  0  0  0  0  0  0  0  0  0  0
    0.6736    2.5489    0.9635 C   0  0  0  0  0  0  0  0  0  0  0  0
   -0.0173    3.2616    1.4202 H   0  0  0  0  0  0  0  0  0  0  0  0
    0.8894    1.7535    1.6796 H   0  0  0  0  0  0  0  0  0  0  0  0
    1.9737    3.2662    0.5790 C   0  0  0  0  0  0  0  0  0  0  0  0
    2.6482    2.5380    0.1169 H   0  0  0  0  0  0  0  0  0  0  0  0
    1.7412    4.0297   -0.1695 H   0  0  0  0  0  0  0  0  0  0  0  0
    2.6240    3.8879    1.7601 N   0  3  0  0  0  0  0  0  0  0  0  0
    2.8512    3.1847    2.4520 H   0  0  0  0  0  0  0  0  0  0  0  0
    3.4795    4.3569    1.4897 H   0  0  0  0  0  0  0  0  0  0  0  0
    2.0069    4.5693    2.1864 H   0  0  0  0  0  0  0  0  0  0  0  0
   -0.5865    0.0771    2.2496 C   0  0  0  0  0  0  0  0  0  0  0  0
    0.5860   -0.1608    2.5143 O   0  0  0  0  0  0  0  0  0  0  0  0
   -1.4786    0.4656    3.1667 N   0  0  0  0  0  0  0  0  0  0  0  0
   -2.4139    0.6698    2.8558 H   0  0  0  0  0  0  0  0  0  0  0  0
   -1.1587    0.6908    4.5775 C   0  0  0  0  0  0  0  0  0  0  0  0
   -0.4270    1.4968    4.6656 H   0  0  0  0  0  0  0  0  0  0  0  0
   -2.0565    0.9649    5.1327 H   0  0  0  0  0  0  0  0  0  0  0  0
   -0.7281   -0.2137    5.0125 H   0  0  0  0  0  0  0  0  0  0  0  0
  5  6  2  0  0  0  0
  5  7  1  0  0  0  0
  2  3  1  0  0  0  0
  2  4  1  0  0  0  0
  2  5  1  0  0  0  0
  1  2  1  0  0  0  0
 27 28  2  0  0  0  0
 27 29  1  0  0  0  0
 23 24  1  0  0  0  0
 23 25  1  0  0  0  0
 23 26  1  0  0  0  0
 20 21  1  0  0  0  0
 20 22  1  0  0  0  0
 20 23  1  0  0  0  0
 17 18  1  0  0  0  0
 17 19  1  0  0  0  0
 17 20  1  0  0  0  0
 14 15  1  0  0  0  0
 14 16  1  0  0  0  0
 14 17  1  0  0  0  0
 11 12  1  0  0  0  0
 11 13  1  0  0  0  0
 11 14  1  0  0  0  0
  9 10  1  0  0  0  0
  9 11  1  0  0  0  0
  9 27  1  0  0  0  0
  7  8  1  0  0  0  0
  7  9  1  0  0  0  0
 31 32  1  0  0  0  0
 31 33  1  0  0  0  0
 31 34  1  0  0  0  0
 29 30  1  0  0  0  0
 29 31  1  0  0  0  0
M  CHG  1  23   1
M  END
$$$$
default_name
  -OEChem-02102213163D

 34 33  0     1  0  0  0  0  0999 V2000
   -3.8899   -3.6747    1.6490 H   0  0  0  0  0  0  0  0  0  0  0  0
   -3.9109   -2.6717    1.2250 C   0  0  0  0  0  0  0  0  0  0  0  0
   -4.6009   -2.0517    1.7950 H   0  0  0  0  0  0  0  0  0  0  0  0
   -4.2309   -2.7237    0.1860 H   0  0  0  0  0  0  0  0  0  0  0  0
   -2.5229   -2.0787    1.2980 C   0  0  0  0  0  0  0  0  0  0  0  0
   -1.5999   -2.7227    1.7810 O   0  0  0  0  0  0  0  0  0  0  0  0
   -2.3659   -0.8447    0.8120 N   0  0  0  0  0  0  0  0  0  0  0  0
   -3.1749   -0.3807    0.4220 H   0  0  0  0  0  0  0  0  0  0  0  0
   -1.0919   -0.1077    0.8170 C   0  0  1  0  0  0  0  0  0  0  0  0
   -0.3571   -0.6901    0.2581 H   0  0  0  0  0  0  0  0  0  0  0  0
   -1.3037    1.2411    0.1040 C   0  0  0  0  0  0  0  0  0  0  0  0
   -1.8773    1.0661   -0.8076 H   0  0  0  0  0  0  0  0  0  0  0  0
   -1.8855    1.9011    0.7504 H   0  0  0  0  0  0  0  0  0  0  0  0
    0.0109    1.9378   -0.2789 C   0  0  0  0  0  0  0  0  0  0  0  0
    0.5805    1.3007   -0.9567 H   0  0  0  0  0  0  0  0  0  0  0  0
   -0.2149    2.8805   -0.7811 H   0  0  0  0  0  0  0  0  0  0  0  0
    0.8518    2.2184    0.9742 C   0  0  0  0  0  0  0  0  0  0  0  0
    0.2730    2.8443    1.6575 H   0  0  0  0  0  0  0  0  0  0  0  0
    1.0827    1.2721    1.4674 H   0  0  0  0  0  0  0  0  0  0  0  0
    2.1535    2.9363    0.5960 C   0  0  0  0  0  0  0  0  0  0  0  0
    2.7144    2.2974   -0.0939 H   0  0  0  0  0  0  0  0  0  0  0  0
    1.9000    3.8597    0.0666 H   0  0  0  0  0  0  0  0  0  0  0  0
    2.9763    3.2416    1.7936 N   0  3  0  0  0  0  0  0  0  0  0  0
    3.2229    2.3899    2.2821 H   0  0  0  0  0  0  0  0  0  0  0  0
    3.8306    3.7151    1.5273 H   0  0  0  0  0  0  0  0  0  0  0  0
    2.4647    3.8402    2.4315 H   0  0  0  0  0  0  0  0  0  0  0  0
   -0.5865    0.0771    2.2496 C   0  0  0  0  0  0  0  0  0  0  0  0
    0.5860   -0.1608    2.5143 O   0  0  0  0  0  0  0  0  0  0  0  0
   -1.4786    0.4656    3.1667 N   0  0  0  0  0  0  0  0  0  0  0  0
   -2.4139    0.6698    2.8558 H   0  0  0  0  0  0  0  0  0  0  0  0
   -1.1587    0.6908    4.5775 C   0  0  0  0  0  0  0  0  0  0  0  0
   -0.4270    1.4968    4.6656 H   0  0  0  0  0  0  0  0  0  0  0  0
   -2.0565    0.9649    5.1327 H   0  0  0  0  0  0  0  0  0  0  0  0
   -0.7281   -0.2137    5.0125 H   0  0  0  0  0  0  0  0  0  0  0  0
  5  6  2  0  0  0  0
  5  7  1  0  0  0  0
  2  3  1  0  0  0  0
  2  4  1  0  0  0  0
  2  5  1  0  0  0  0
  1  2  1  0  0  0  0
 27 28  2  0  0  0  0
 27 29  1  0  0  0  0
 23 24  1  0  0  0  0
 23 25  1  0  0  0  0
 23 26  1  0  0  0  0
 20 21  1  0  0  0  0
 20 22  1  0  0  0  0
 20 23  1  0  0  0  0
 17 18  1  0  0  0  0
 17 19  1  0  0  0  0
 17 20  1  0  0  0  0
 14 15  1  0  0  0  0
 14 16  1  0  0  0  0
 14 17  1  0  0  0  0
 11 12  1  0  0  0  0
 11 13  1  0  0  0  0
 11 14  1  0  0  0  0
  9 10  1  0  0  0  0
  9 11  1  0  0  0  0
  9 27  1  0  0  0  0
  7  8  1  0  0  0  0
  7  9  1  0  0  0  0
 31 32  1  0  0  0  0
 31 33  1  0  0  0  0
 31 34  1  0  0  0  0
 29 30  1  0  0  0  0
 29 31  1  0  0  0  0
M  CHG  1  23   1
M  END
$$$$
default_name
  -OEChem-02102213163D

 34 33  0     1  0  0  0  0  0999 V2000
   -3.8899   -3.6747    1.6490 H   0  0  0  0  0  0  0  0  0  0  0  0
   -3.9109   -2.6717    1.2250 C   0  0  0  0  0  0  0  0  0  0  0  0
   -4.6009   -2.0517    1.7950 H   0  0  0  0  0  0  0  0  0  0  0  0
   -4.2309   -2.7237    0.1860 H   0  0  0  0  0  0  0  0  0  0  0  0
   -2.5229   -2.0787    1.2980 C   0  0  0  0  0  0  0  0  0  0  0  0
   -1.5999   -2.7227    1.7810 O   0  0  0  0  0  0  0  0  0  0  0  0
   -2.3659   -0.8447    0.8120 N   0  0  0  0  0  0  0  0  0  0  0  0
   -3.1749   -0.3807    0.4220 H   0  0  0  0  0  0  0  0  0  0  0  0
   -1.0919   -0.1077    0.8170 C   0  0  1  0  0  0  0  0  0  0  0  0
   -0.3571   -0.6901    0.2581 H   0  0  0  0  0  0  0  0  0  0  0  0
   -1.3037    1.2411    0.1040 C   0  0  0  0  0  0  0  0  0  0  0  0
   -1.8773    1.0661   -0.8076 H   0  0  0  0  0  0  0  0  0  0  0  0
   -1.8855    1.9011    0.7504 H   0  0  0  0  0  0  0  0  0  0  0  0
    0.0109    1.9378   -0.2789 C   0  0  0  0  0  0  0  0  0  0  0  0
    0.4512    1.4414   -1.1447 H   0  0  0  0  0  0  0  0  0  0  0  0
   -0.1949    2.9797   -0.5318 H   0  0  0  0  0  0  0  0  0  0  0  0
    1.0040    1.8854    0.8904 C   0  0  0  0  0  0  0  0  0  0  0  0
    0.5542    2.3700    1.7603 H   0  0  0  0  0  0  0  0  0  0  0  0
    1.2134    0.8417    1.1331 H   0  0  0  0  0  0  0  0  0  0  0  0
    2.3079    2.6023    0.5183 C   0  0  0  0  0  0  0  0  0  0  0  0
    2.7380    2.1073   -0.3585 H   0  0  0  0  0  0  0  0  0  0  0  0
    2.0702    3.6330    0.2383 H   0  0  0  0  0  0  0  0  0  0  0  0
    3.2787    2.5873    1.6415 N   0  3  0  0  0  0  0  0  0  0  0  0
    3.5107    1.6359    1.8983 H   0  0  0  0  0  0  0  0  0  0  0  0
    4.1327    3.0641    1.3802 H   0  0  0  0  0  0  0  0  0  0  0  0
    2.8886    3.0522    2.4530 H   0  0  0  0  0  0  0  0  0  0  0  0
   -0.5865    0.0771    2.2496 C   0  0  0  0  0  0  0  0  0  0  0  0
    0.5860   -0.1608    2.5143 O   0  0  0  0  0  0  0  0  0  0  0  0
   -1.4786    0.4656    3.1667 N   0  0  0  0  0  0  0  0  0  0  0  0
   -2.4139    0.6698    2.8558 H   0  0  0  0  0  0  0  0  0  0  0  0
   -1.1587    0.6908    4.5775 C   0  0  0  0  0  0  0  0  0  0  0  0
   -0.4270    1.4968    4.6656 H   0  0  0  0  0  0  0  0  0  0  0  0
   -2.0565    0.9649    5.1327 H   0  0  0  0  0  0  0  0  0  0  0  0
   -0.7281   -0.2137    5.0125 H   0  0  0  0  0  0  0  0  0  0  0  0
  5  6  2  0  0  0  0
  5  7  1  0  0  0  0
  2  3  1  0  0  0  0
  2  4  1  0  0  0  0
  2  5  1  0  0  0  0
  1  2  1  0  0  0  0
 27 28  2  0  0  0  0
 27 29  1  0  0  0  0
 23 24  1  0  0  0  0
 23 25  1  0  0  0  0
 23 26  1  0  0  0  0
 20 21  1  0  0  0  0
 20 22  1  0  0  0  0
 20 23  1  0  0  0  0
 17 18  1  0  0  0  0
 17 19  1  0  0  0  0
 17 20  1  0  0  0  0
 14 15  1  0  0  0  0
 14 16  1  0  0  0  0
 14 17  1  0  0  0  0
 11 12  1  0  0  0  0
 11 13  1  0  0  0  0
 11 14  1  0  0  0  0
  9 10  1  0  0  0  0
  9 11  1  0  0  0  0
  9 27  1  0  0  0  0
  7  8  1  0  0  0  0
  7  9  1  0  0  0  0
 31 32  1  0  0  0  0
 31 33  1  0  0  0  0
 31 34  1  0  0  0  0
 29 30  1  0  0  0  0
 29 31  1  0  0  0  0
M  CHG  1  23   1
M  END
$$$$
default_name
  -OEChem-02102213163D

 34 33  0     1  0  0  0  0  0999 V2000
   -3.8899   -3.6747    1.6490 H   0  0  0  0  0  0  0  0  0  0  0  0
   -3.9109   -2.6717    1.2250 C   0  0  0  0  0  0  0  0  0  0  0  0
   -4.6009   -2.0517    1.7950 H   0  0  0  0  0  0  0  0  0  0  0  0
   -4.2309   -2.7237    0.1860 H   0  0  0  0  0  0  0  0  0  0  0  0
   -2.5229   -2.0787    1.2980 C   0  0  0  0  0  0  0  0  0  0  0  0
   -1.5999   -2.7227    1.7810 O   0  0  0  0  0  0  0  0  0  0  0  0
   -2.3659   -0.8447    0.8120 N   0  0  0  0  0  0  0  0  0  0  0  0
   -3.1749   -0.3807    0.4220 H   0  0  0  0  0  0  0  0  0  0  0  0
   -1.0919   -0.1077    0.8170 C   0  0  1  0  0  0  0  0  0  0  0  0
   -0.3571   -0.6901    0.2581 H   0  0  0  0  0  0  0  0  0  0  0  0
   -1.3037    1.2411    0.1040 C   0  0  0  0  0  0  0  0  0  0  0  0
   -1.8773    1.0661   -0.8076 H   0  0  0  0  0  0  0  0  0  0  0  0
   -1.8855    1.9011    0.7504 H   0  0  0  0  0  0  0  0  0  0  0  0
    0.0109    1.9378   -0.2789 C   0  0  0  0  0  0  0  0  0  0  0  0
    0.3132    1.6274   -1.2800 H   0  0  0  0  0  0  0  0  0  0  0  0
   -0.1398    3.0191   -0.2713 H   0  0  0  0  0  0  0  0  0  0  0  0
    1.1196    1.5724    0.7178 C   0  0  0  0  0  0  0  0  0  0  0  0
    0.8074    1.8710    1.7214 H   0  0  0  0  0  0  0  0  0  0  0  0
    1.2727    0.4915    0.6996 H   0  0  0  0  0  0  0  0  0  0  0  0
    2.4263    2.2869    0.3511 C   0  0  0  0  0  0  0  0  0  0  0  0
    2.7175    1.9808   -0.6590 H   0  0  0  0  0  0  0  0  0  0  0  0
    2.2401    3.3650    0.3340 H   0  0  0  0  0  0  0  0  0  0  0  0
    3.5109    1.9694    1.3142 N   0  3  0  0  0  0  0  0  0  0  0  0
    3.6950    0.9741    1.3268 H   0  0  0  0  0  0  0  0  0  0  0  0
    4.3654    2.4484    1.0586 H   0  0  0  0  0  0  0  0  0  0  0  0
    3.2498    2.2589    2.2496 H   0  0  0  0  0  0  0  0  0  0  0  0
   -0.5865    0.0771    2.2496 C   0  0  0  0  0  0  0  0  0  0  0  0
    0.5860   -0.1608    2.5143 O   0  0  0  0  0  0  0  0  0  0  0  0
   -1.4786    0.4656    3.1667 N   0  0  0  0  0  0  0  0  0  0  0  0
   -2.4139    0.6698    2.8558 H   0  0  0  0  0  0  0  0  0  0  0  0
   -1.1587    0.6908    4.5775 C   0  0  0  0  0  0  0  0  0  0  0  0
   -0.4270    1.4968    4.6656 H   0  0  0  0  0  0  0  0  0  0  0  0
   -2.0565    0.9649    5.1327 H   0  0  0  0  0  0  0  0  0  0  0  0
   -0.7281   -0.2137    5.0125 H   0  0  0  0  0  0  0  0  0  0  0  0
  5  6  2  0  0  0  0
  5  7  1  0  0  0  0
  2  3  1  0  0  0  0
  2  4  1  0  0  0  0
  2  5  1  0  0  0  0
  1  2  1  0  0  0  0
 27 28  2  0  0  0  0
 27 29  1  0  0  0  0
 23 24  1  0  0  0  0
 23 25  1  0  0  0  0
 23 26  1  0  0  0  0
 20 21  1  0  0  0  0
 20 22  1  0  0  0  0
 20 23  1  0  0  0  0
 17 18  1  0  0  0  0
 17 19  1  0  0  0  0
 17 20  1  0  0  0  0
 14 15  1  0  0  0  0
 14 16  1  0  0  0  0
 14 17  1  0  0  0  0
 11 12  1  0  0  0  0
 11 13  1  0  0  0  0
 11 14  1  0  0  0  0
  9 10  1  0  0  0  0
  9 11  1  0  0  0  0
  9 27  1  0  0  0  0
  7  8  1  0  0  0  0
  7  9  1  0  0  0  0
 31 32  1  0  0  0  0
 31 33  1  0  0  0  0
 31 34  1  0  0  0  0
 29 30  1  0  0  0  0
 29 31  1  0  0  0  0
M  CHG  1  23   1
M  END
$$$$
default_name
  -OEChem-02102213163D

 34 33  0     1  0  0  0  0  0999 V2000
   -3.8899   -3.6747    1.6490 H   0  0  0  0  0  0  0  0  0  0  0  0
   -3.9109   -2.6717    1.2250 C   0  0  0  0  0  0  0  0  0  0  0  0
   -4.6009   -2.0517    1.7950 H   0  0  0  0  0  0  0  0  0  0  0  0
   -4.2309   -2.7237    0.1860 H   0  0  0  0  0  0  0  0  0  0  0  0
   -2.5229   -2.0787    1.2980 C   0  0  0  0  0  0  0  0  0  0  0  0
   -1.5999   -2.7227    1.7810 O   0  0  0  0  0  0  0  0  0  0  0  0
   -2.3659   -0.8447    0.8120 N   0  0  0  0  0  0  0  0  0  0  0  0
   -3.1749   -0.3807    0.4220 H   0  0  0  0  0  0  0  0  0  0  0  0
   -1.0919   -0.1077    0.8170 C   0  0  1  0  0  0  0  0  0  0  0  0
   -0.3571   -0.6901    0.2581 H   0  0  0  0  0  0  0  0  0  0  0  0
   -1.3037    1.2411    0.1040 C   0  0  0  0  0  0  0  0  0  0  0  0
   -1.8773    1.0661   -0.8076 H   0  0  0  0  0  0  0  0  0  0  0  0
   -1.8855    1.9011    0.7504 H   0  0  0  0  0  0  0  0  0  0  0  0
    0.0109    1.9378   -0.2789 C   0  0  0  0  0  0  0  0  0  0  0  0
    0.1761    1.8458   -1.3532 H   0  0  0  0  0  0  0  0  0  0  0  0
   -0.0536    2.9958   -0.0174 H   0  0  0  0  0  0  0  0  0  0  0  0
    1.1908    1.3009    0.4683 C   0  0  0  0  0  0  0  0  0  0  0  0
    1.0152    1.3813    1.5437 H   0  0  0  0  0  0  0  0  0  0  0  0
    1.2565    0.2455    0.1963 H   0  0  0  0  0  0  0  0  0  0  0  0
    2.5008    2.0116    0.1059 C   0  0  0  0  0  0  0  0  0  0  0  0
    2.6543    1.9265   -0.9748 H   0  0  0  0  0  0  0  0  0  0  0  0
    2.3982    3.0739    0.3472 H   0  0  0  0  0  0  0  0  0  0  0  0
    3.6568    1.4301    0.8339 N   0  3  0  0  0  0  0  0  0  0  0  0
    3.7633    0.4494    0.6066 H   0  0  0  0  0  0  0  0  0  0  0  0
    4.5126    1.9100    0.5842 H   0  0  0  0  0  0  0  0  0  0  0  0
    3.5236    1.5144    1.8349 H   0  0  0  0  0  0  0  0  0  0  0  0
   -0.5865    0.0771    2.2496 C   0  0  0  0  0  0  0  0  0  0  0  0
    0.5860   -0.1608    2.5143 O   0  0  0  0  0  0  0  0  0  0  0  0
   -1.4786    0.4656    3.1667 N   0  0  0  0  0  0  0  0  0  0  0  0
   -2.4139    0.6698    2.8558 H   0  0  0  0  0  0  0  0  0  0  0  0
   -1.1587    0.6908    4.5775 C   0  0  0  0  0  0  0  0  0  0  0  0
   -0.4270    1.4968    4.6656 H   0  0  0  0  0  0  0  0  0  0  0  0
   -2.0565    0.9649    5.1327 H   0  0  0  0  0  0  0  0  0  0  0  0
   -0.7281   -0.2137    5.0125 H   0  0  0  0  0  0  0  0  0  0  0  0
  5  6  2  0  0  0  0
  5  7  1  0  0  0  0
  2  3  1  0  0  0  0
  2  4  1  0  0  0  0
  2  5  1  0  0  0  0
  1  2  1  0  0  0  0
 27 28  2  0  0  0  0
 27 29  1  0  0  0  0
 23 24  1  0  0  0  0
 23 25  1  0  0  0  0
 23 26  1  0  0  0  0
 20 21  1  0  0  0  0
 20 22  1  0  0  0  0
 20 23  1  0  0  0  0
 17 18  1  0  0  0  0
 17 19  1  0  0  0  0
 17 20  1  0  0  0  0
 14 15  1  0  0  0  0
 14 16  1  0  0  0  0
 14 17  1  0  0  0  0
 11 12  1  0  0  0  0
 11 13  1  0  0  0  0
 11 14  1  0  0  0  0
  9 10  1  0  0  0  0
  9 11  1  0  0  0  0
  9 27  1  0  0  0  0
  7  8  1  0  0  0  0
  7  9  1  0  0  0  0
 31 32  1  0  0  0  0
 31 33  1  0  0  0  0
 31 34  1  0  0  0  0
 29 30  1  0  0  0  0
 29 31  1  0  0  0  0
M  CHG  1  23   1
M  END
$$$$
default_name
  -OEChem-02102213163D

 34 33  0     1  0  0  0  0  0999 V2000
   -3.8899   -3.6747    1.6490 H   0  0  0  0  0  0  0  0  0  0  0  0
   -3.9109   -2.6717    1.2250 C   0  0  0  0  0  0  0  0  0  0  0  0
   -4.6009   -2.0517    1.7950 H   0  0  0  0  0  0  0  0  0  0  0  0
   -4.2309   -2.7237    0.1860 H   0  0  0  0  0  0  0  0  0  0  0  0
   -2.5229   -2.0787    1.2980 C   0  0  0  0  0  0  0  0  0  0  0  0
   -1.5999   -2.7227    1.7810 O   0  0  0  0  0  0  0  0  0  0  0  0
   -2.3659   -0.8447    0.8120 N   0  0  0  0  0  0  0  0  0  0  0  0
   -3.1749   -0.3807    0.4220 H   0  0  0  0  0  0  0  0  0  0  0  0
   -1.0919   -0.1077    0.8170 C   0  0  1  0  0  0  0  0  0  0  0  0
   -0.3571   -0.6901    0.2581 H   0  0  0  0  0  0  0  0  0  0  0  0
   -1.3037    1.2411    0.1040 C   0  0  0  0  0  0  0  0  0  0  0  0
   -1.8773    1.0661   -0.8076 H   0  0  0  0  0  0  0  0  0  0  0  0
   -1.8855    1.9011    0.7504 H   0  0  0  0  0  0  0  0  0  0  0  0
    0.0109    1.9378   -0.2789 C   0  0  0  0  0  0  0  0  0  0  0  0
    0.0492    2.0819   -1.3595 H   0  0  0  0  0  0  0  0  0  0  0  0
    0.0580    2.9116    0.2125 H   0  0  0  0  0  0  0  0  0  0  0  0
    1.2128    1.0892    0.1587 C   0  0  0  0  0  0  0  0  0  0  0  0
    1.1635    0.9342    1.2392 H   0  0  0  0  0  0  0  0  0  0  0  0
    1.1660    0.1204   -0.3424 H   0  0  0  0  0  0  0  0  0  0  0  0
    2.5262    1.7952   -0.2007 C   0  0  0  0  0  0  0  0  0  0  0  0
    2.5527    1.9481   -1.2845 H   0  0  0  0  0  0  0  0  0  0  0  0
    2.5337    2.7797    0.2769 H   0  0  0  0  0  0  0  0  0  0  0  0
    3.7066    1.0062    0.2335 N   0  3  0  0  0  0  0  0  0  0  0  0
    3.7108    0.0978   -0.2133 H   0  0  0  0  0  0  0  0  0  0  0  0
    4.5644    1.4854   -0.0105 H   0  0  0  0  0  0  0  0  0  0  0  0
    3.6914    0.8694    1.2374 H   0  0  0  0  0  0  0  0  0  0  0  0
   -0.5865    0.0771    2.2496 C   0  0  0  0  0  0  0  0  0  0  0  0
    0.5860   -0.1608    2.5143 O   0  0  0  0  0  0  0  0  0  0  0  0
   -1.4786    0.4656    3.1667 N   0  0  0  0  0  0  0  0  0  0  0  0
   -2.4139    0.6698    2.8558 H   0  0  0  0  0  0  0  0  0  0  0  0
   -1.1587    0.6908    4.5775 C   0  0  0  0  0  0  0  0  0  0  0  0
   -0.4270    1.4968    4.6656 H   0  0  0  0  0  0  0  0  0  0  0  0
   -2.0565    0.9649    5.1327 H   0  0  0  0  0  0  0  0  0  0  0  0
   -0.7281   -0.2137    5.0125 H   0  0  0  0  0  0  0  0  0  0  0  0
  5  6  2  0  0  0  0
  5  7  1  0  0  0  0
  2  3  1  0  0  0  0
  2  4  1  0  0  0  0
  2  5  1  0  0  0  0
  1  2  1  0  0  0  0
 27 28  2  0  0  0  0
 27 29  1  0  0  0  0
 23 24  1  0  0  0  0
 23 25  1  0  0  0  0
 23 26  1  0  0  0  0
 20 21  1  0  0  0  0
 20 22  1  0  0  0  0
 20 23  1  0  0  0  0
 17 18  1  0  0  0  0
 17 19  1  0  0  0  0
 17 20  1  0  0  0  0
 14 15  1  0  0  0  0
 14 16  1  0  0  0  0
 14 17  1  0  0  0  0
 11 12  1  0  0  0  0
 11 13  1  0  0  0  0
 11 14  1  0  0  0  0
  9 10  1  0  0  0  0
  9 11  1  0  0  0  0
  9 27  1  0  0  0  0
  7  8  1  0  0  0  0
  7  9  1  0  0  0  0
 31 32  1  0  0  0  0
 31 33  1  0  0  0  0
 31 34  1  0  0  0  0
 29 30  1  0  0  0  0
 29 31  1  0  0  0  0
M  CHG  1  23   1
M  END
$$$$
default_name
  -OEChem-02102213163D

 34 33  0     1  0  0  0  0  0999 V2000
   -3.8899   -3.6747    1.6490 H   0  0  0  0  0  0  0  0  0  0  0  0
   -3.9109   -2.6717    1.2250 C   0  0  0  0  0  0  0  0  0  0  0  0
   -4.6009   -2.0517    1.7950 H   0  0  0  0  0  0  0  0  0  0  0  0
   -4.2309   -2.7237    0.1860 H   0  0  0  0  0  0  0  0  0  0  0  0
   -2.5229   -2.0787    1.2980 C   0  0  0  0  0  0  0  0  0  0  0  0
   -1.5999   -2.7227    1.7810 O   0  0  0  0  0  0  0  0  0  0  0  0
   -2.3659   -0.8447    0.8120 N   0  0  0  0  0  0  0  0  0  0  0  0
   -3.1749   -0.3807    0.4220 H   0  0  0  0  0  0  0  0  0  0  0  0
   -1.0919   -0.1077    0.8170 C   0  0  1  0  0  0  0  0  0  0  0  0
   -0.3571   -0.6901    0.2581 H   0  0  0  0  0  0  0  0  0  0  0  0
   -1.3037    1.2411    0.1040 C   0  0  0  0  0  0  0  0  0  0  0  0
   -1.8773    1.0661   -0.8076 H   0  0  0  0  0  0  0  0  0  0  0  0
   -1.8855    1.9011    0.7504 H   0  0  0  0  0  0  0  0  0  0  0  0
    0.0109    1.9378   -0.2789 C   0  0  0  0  0  0  0  0  0  0  0  0
   -0.0589    2.3195   -1.2984 H   0  0  0  0  0  0  0  0  0  0  0  0
    0.1874    2.7721    0.4028 H   0  0  0  0  0  0  0  0  0  0  0  0
    1.1841    0.9520   -0.1897 C   0  0  0  0  0  0  0  0  0  0  0  0
    1.2421    0.5602    0.8286 H   0  0  0  0  0  0  0  0  0  0  0  0
    1.0072    0.1246   -0.8799 H   0  0  0  0  0  0  0  0  0  0  0  0
    2.5008    1.6525   -0.5477 C   0  0  0  0  0  0  0  0  0  0  0  0
    2.4196    2.0440   -1.5669 H   0  0  0  0  0  0  0  0  0  0  0  0
    2.6373    2.5023    0.1279 H   0  0  0  0  0  0  0  0  0  0  0  0
    3.6569    0.7264   -0.4463 N   0  3  0  0  0  0  0  0  0  0  0  0
    3.5413   -0.0569   -1.0770 H   0  0  0  0  0  0  0  0  0  0  0  0
    4.5172    1.2037   -0.6851 H   0  0  0  0  0  0  0  0  0  0  0  0
    3.7417    0.3680    0.4977 H   0  0  0  0  0  0  0  0  0  0  0  0
   -0.5865    0.0771    2.2496 C   0  0  0  0  0  0  0  0  0  0  0  0
    0.5860   -0.1608    2.5143 O   0  0  0  0  0  0  0  0  0  0  0  0
   -1.4786    0.4656    3.1667 N   0  0  0  0  0  0  0  0  0  0  0  0
   -2.4139    0.6698    2.8558 H   0  0  0  0  0  0  0  0  0  0  0  0
   -1.1587    0.6908    4.5775 C   0  0  0  0  0  0  0  0  0  0  0  0
   -0.4270    1.4968    4.6656 H   0  0  0  0  0  0  0  0  0  0  0  0
   -2.0565    0.9649    5.1327 H   0  0  0  0  0  0  0  0  0  0  0  0
   -0.7281   -0.2137    5.0125 H   0  0  0  0  0  0  0  0  0  0  0  0
  5  6  2  0  0  0  0
  5  7  1  0  0  0  0
  2  3  1  0  0  0  0
  2  4  1  0  0  0  0
  2  5  1  0  0  0  0
  1  2  1  0  0  0  0
 27 28  2  0  0  0  0
 27 29  1  0  0  0  0
 23 24  1  0  0  0  0
 23 25  1  0  0  0  0
 23 26  1  0  0  0  0
 20 21  1  0  0  0  0
 20 22  1  0  0  0  0
 20 23  1  0  0  0  0
 17 18  1  0  0  0  0
 17 19  1  0  0  0  0
 17 20  1  0  0  0  0
 14 15  1  0  0  0  0
 14 16  1  0  0  0  0
 14 17  1  0  0  0  0
 11 12  1  0  0  0  0
 11 13  1  0  0  0  0
 11 14  1  0  0  0  0
  9 10  1  0  0  0  0
  9 11  1  0  0  0  0
  9 27  1  0  0  0  0
  7  8  1  0  0  0  0
  7  9  1  0  0  0  0
 31 32  1  0  0  0  0
 31 33  1  0  0  0  0
 31 34  1  0  0  0  0
 29 30  1  0  0  0  0
 29 31  1  0  0  0  0
M  CHG  1  23   1
M  END
$$$$
default_name
  -OEChem-02102213163D

 34 33  0     1  0  0  0  0  0999 V2000
   -3.8899   -3.6747    1.6490 H   0  0  0  0  0  0  0  0  0  0  0  0
   -3.9109   -2.6717    1.2250 C   0  0  0  0  0  0  0  0  0  0  0  0
   -4.6009   -2.0517    1.7950 H   0  0  0  0  0  0  0  0  0  0  0  0
   -4.2309   -2.7237    0.1860 H   0  0  0  0  0  0  0  0  0  0  0  0
   -2.5229   -2.0787    1.2980 C   0  0  0  0  0  0  0  0  0  0  0  0
   -1.5999   -2.7227    1.7810 O   0  0  0  0  0  0  0  0  0  0  0  0
   -2.3659   -0.8447    0.8120 N   0  0  0  0  0  0  0  0  0  0  0  0
   -3.1749   -0.3807    0.4220 H   0  0  0  0  0  0  0  0  0  0  0  0
   -1.0919   -0.1077    0.8170 C   0  0  1  0  0  0  0  0  0  0  0  0
   -0.3571   -0.6901    0.2581 H   0  0  0  0  0  0  0  0  0  0  0  0
   -1.3037    1.2411    0.1040 C   0  0  0  0  0  0  0  0  0  0  0  0
   -1.8773    1.0661   -0.8076 H   0  0  0  0  0  0  0  0  0  0  0  0
   -1.8855    1.9011    0.7504 H   0  0  0  0  0  0  0  0  0  0  0  0
    0.0109    1.9378   -0.2789 C   0  0  0  0  0  0  0  0  0  0  0  0
   -0.1409    2.5425   -1.1740 H   0  0  0  0  0  0  0  0  0  0  0  0
    0.3257    2.5868    0.5406 H   0  0  0  0  0  0  0  0  0  0  0  0
    1.1066    0.8984   -0.5533 C   0  0  0  0  0  0  0  0  0  0  0  0
    1.2457    0.2848    0.3399 H   0  0  0  0  0  0  0  0  0  0  0  0
    0.7910    0.2580   -1.3794 H   0  0  0  0  0  0  0  0  0  0  0  0
    2.4263    1.5931   -0.9115 C   0  0  0  0  0  0  0  0  0  0  0  0
    2.2641    2.2079   -1.8029 H   0  0  0  0  0  0  0  0  0  0  0  0
    2.7020    2.2607   -0.0896 H   0  0  0  0  0  0  0  0  0  0  0  0
    3.5110    0.6100   -1.1590 N   0  3  0  0  0  0  0  0  0  0  0  0
    3.2662   -0.0041   -1.9256 H   0  0  0  0  0  0  0  0  0  0  0  0
    4.3743    1.0840   -1.3935 H   0  0  0  0  0  0  0  0  0  0  0  0
    3.6711    0.0441   -0.3337 H   0  0  0  0  0  0  0  0  0  0  0  0
   -0.5865    0.0771    2.2496 C   0  0  0  0  0  0  0  0  0  0  0  0
    0.5860   -0.1608    2.5143 O   0  0  0  0  0  0  0  0  0  0  0  0
   -1.4786    0.4656    3.1667 N   0  0  0  0  0  0  0  0  0  0  0  0
   -2.4139    0.6698    2.8558 H   0  0  0  0  0  0  0  0  0  0  0  0
   -1.1587    0.6908    4.5775 C   0  0  0  0  0  0  0  0  0  0  0  0
   -0.4270    1.4968    4.6656 H   0  0  0  0  0  0  0  0  0  0  0  0
   -2.0565    0.9649    5.1327 H   0  0  0  0  0  0  0  0  0  0  0  0
   -0.7281   -0.2137    5.0125 H   0  0  0  0  0  0  0  0  0  0  0  0
  5  6  2  0  0  0  0
  5  7  1  0  0  0  0
  2  3  1  0  0  0  0
  2  4  1  0  0  0  0
  2  5  1  0  0  0  0
  1  2  1  0  0  0  0
 27 28  2  0  0  0  0
 27 29  1  0  0  0  0
 23 24  1  0  0  0  0
 23 25  1  0  0  0  0
 23 26  1  0  0  0  0
 20 21  1  0  0  0  0
 20 22  1  0  0  0  0
 20 23  1  0  0  0  0
 17 18  1  0  0  0  0
 17 19  1  0  0  0  0
 17 20  1  0  0  0  0
 14 15  1  0  0  0  0
 14 16  1  0  0  0  0
 14 17  1  0  0  0  0
 11 12  1  0  0  0  0
 11 13  1  0  0  0  0
 11 14  1  0  0  0  0
  9 10  1  0  0  0  0
  9 11  1  0  0  0  0
  9 27  1  0  0  0  0
  7  8  1  0  0  0  0
  7  9  1  0  0  0  0
 31 32  1  0  0  0  0
 31 33  1  0  0  0  0
 31 34  1  0  0  0  0
 29 30  1  0  0  0  0
 29 31  1  0  0  0  0
M  CHG  1  23   1
M  END
$$$$
default_name
  -OEChem-02102213163D

 34 33  0     1  0  0  0  0  0999 V2000
   -3.8899   -3.6747    1.6490 H   0  0  0  0  0  0  0  0  0  0  0  0
   -3.9109   -2.6717    1.2250 C   0  0  0  0  0  0  0  0  0  0  0  0
   -4.6009   -2.0517    1.7950 H   0  0  0  0  0  0  0  0  0  0  0  0
   -4.2309   -2.7237    0.1860 H   0  0  0  0  0  0  0  0  0  0  0  0
   -2.5229   -2.0787    1.2980 C   0  0  0  0  0  0  0  0  0  0  0  0
   -1.5999   -2.7227    1.7810 O   0  0  0  0  0  0  0  0  0  0  0  0
   -2.3659   -0.8447    0.8120 N   0  0  0  0  0  0  0  0  0  0  0  0
   -3.1749   -0.3807    0.4220 H   0  0  0  0  0  0  0  0  0  0  0  0
   -1.0919   -0.1077    0.8170 C   0  0  1  0  0  0  0  0  0  0  0  0
   -0.3571   -0.6901    0.2581 H   0  0  0  0  0  0  0  0  0  0  0  0
   -1.3037    1.2411    0.1040 C   0  0  0  0  0  0  0  0  0  0  0  0
   -1.8773    1.0661   -0.8076 H   0  0  0  0  0  0  0  0  0  0  0  0
   -1.8855    1.9011    0.7504 H   0  0  0  0  0  0  0  0  0  0  0  0
    0.0109    1.9378   -0.2789 C   0  0  0  0  0  0  0  0  0  0  0  0
   -0.1911    2.7356   -0.9949 H   0  0  0  0  0  0  0  0  0  0  0  0
    0.4635    2.3685    0.6164 H   0  0  0  0  0  0  0  0  0  0  0  0
    0.9855    0.9322   -0.9073 C   0  0  0  0  0  0  0  0  0  0  0  0
    1.1741    0.1268   -0.1935 H   0  0  0  0  0  0  0  0  0  0  0  0
    0.5321    0.5115   -1.8070 H   0  0  0  0  0  0  0  0  0  0  0  0
    2.3078    1.6211   -1.2674 C   0  0  0  0  0  0  0  0  0  0  0  0
    2.0967    2.4284   -1.9762 H   0  0  0  0  0  0  0  0  0  0  0  0
    2.7234    2.0713   -0.3608 H   0  0  0  0  0  0  0  0  0  0  0  0
    3.2790    0.6647   -1.8561 N   0  3  0  0  0  0  0  0  0  0  0  0
    2.9042    0.2526   -2.7014 H   0  0  0  0  0  0  0  0  0  0  0  0
    4.1454    1.1345   -2.0876 H   0  0  0  0  0  0  0  0  0  0  0  0
    3.4845   -0.0799   -1.2003 H   0  0  0  0  0  0  0  0  0  0  0  0
   -0.5865    0.0771    2.2496 C   0  0  0  0  0  0  0  0  0  0  0  0
    0.5860   -0.1608    2.5143 O   0  0  0  0  0  0  0  0  0  0  0  0
   -1.4786    0.4656    3.1667 N   0  0  0  0  0  0  0  0  0  0  0  0
   -2.4139    0.6698    2.8558 H   0  0  0  0  0  0  0  0  0  0  0  0
   -1.1587    0.6908    4.5775 C   0  0  0  0  0  0  0  0  0  0  0  0
   -0.4270    1.4968    4.6656 H   0  0  0  0  0  0  0  0  0  0  0  0
   -2.0565    0.9649    5.1327 H   0  0  0  0  0  0  0  0  0  0  0  0
   -0.7281   -0.2137    5.0125 H   0  0  0  0  0  0  0  0  0  0  0  0
  5  6  2  0  0  0  0
  5  7  1  0  0  0  0
  2  3  1  0  0  0  0
  2  4  1  0  0  0  0
  2  5  1  0  0  0  0
  1  2  1  0  0  0  0
 27 28  2  0  0  0  0
 27 29  1  0  0  0  0
 23 24  1  0  0  0  0
 23 25  1  0  0  0  0
 23 26  1  0  0  0  0
 20 21  1  0  0  0  0
 20 22  1  0  0  0  0
 20 23  1  0  0  0  0
 17 18  1  0  0  0  0
 17 19  1  0  0  0  0
 17 20  1  0  0  0  0
 14 15  1  0  0  0  0
 14 16  1  0  0  0  0
 14 17  1  0  0  0  0
 11 12  1  0  0  0  0
 11 13  1  0  0  0  0
 11 14  1  0  0  0  0
  9 10  1  0  0  0  0
  9 11  1  0  0  0  0
  9 27  1  0  0  0  0
  7  8  1  0  0  0  0
  7  9  1  0  0  0  0
 31 32  1  0  0  0  0
 31 33  1  0  0  0  0
 31 34  1  0  0  0  0
 29 30  1  0  0  0  0
 29 31  1  0  0  0  0
M  CHG  1  23   1
M  END
$$$$
default_name
  -OEChem-02102213163D

 34 33  0     1  0  0  0  0  0999 V2000
   -3.8899   -3.6747    1.6490 H   0  0  0  0  0  0  0  0  0  0  0  0
   -3.9109   -2.6717    1.2250 C   0  0  0  0  0  0  0  0  0  0  0  0
   -4.6009   -2.0517    1.7950 H   0  0  0  0  0  0  0  0  0  0  0  0
   -4.2309   -2.7237    0.1860 H   0  0  0  0  0  0  0  0  0  0  0  0
   -2.5229   -2.0787    1.2980 C   0  0  0  0  0  0  0  0  0  0  0  0
   -1.5999   -2.7227    1.7810 O   0  0  0  0  0  0  0  0  0  0  0  0
   -2.3659   -0.8447    0.8120 N   0  0  0  0  0  0  0  0  0  0  0  0
   -3.1749   -0.3807    0.4220 H   0  0  0  0  0  0  0  0  0  0  0  0
   -1.0919   -0.1077    0.8170 C   0  0  1  0  0  0  0  0  0  0  0  0
   -0.3571   -0.6901    0.2581 H   0  0  0  0  0  0  0  0  0  0  0  0
   -1.3037    1.2411    0.1040 C   0  0  0  0  0  0  0  0  0  0  0  0
   -1.8773    1.0661   -0.8076 H   0  0  0  0  0  0  0  0  0  0  0  0
   -1.8855    1.9011    0.7504 H   0  0  0  0  0  0  0  0  0  0  0  0
    0.0109    1.9378   -0.2789 C   0  0  0  0  0  0  0  0  0  0  0  0
   -0.2060    2.8857   -0.7732 H   0  0  0  0  0  0  0  0  0  0  0  0
    0.5914    2.1319    0.6251 H   0  0  0  0  0  0  0  0  0  0  0  0
    0.8293    1.0510   -1.2276 C   0  0  0  0  0  0  0  0  0  0  0  0
    1.0321    0.0969   -0.7353 H   0  0  0  0  0  0  0  0  0  0  0  0
    0.2482    0.8677   -2.1336 H   0  0  0  0  0  0  0  0  0  0  0  0
    2.1534    1.7346   -1.5910 C   0  0  0  0  0  0  0  0  0  0  0  0
    1.9289    2.6906   -2.0752 H   0  0  0  0  0  0  0  0  0  0  0  0
    2.7000    1.9471   -0.6672 H   0  0  0  0  0  0  0  0  0  0  0  0
    2.9766    0.8870   -2.4901 N   0  3  0  0  0  0  0  0  0  0  0  0
    2.4801    0.6956   -3.3513 H   0  0  0  0  0  0  0  0  0  0  0  0
    3.8461    1.3517   -2.7199 H   0  0  0  0  0  0  0  0  0  0  0  0
    3.1945    0.0042   -2.0429 H   0  0  0  0  0  0  0  0  0  0  0  0
   -0.5865    0.0771    2.2496 C   0  0  0  0  0  0  0  0  0  0  0  0
    0.5860   -0.1608    2.5143 O   0  0  0  0  0  0  0  0  0  0  0  0
   -1.4786    0.4656    3.1667 N   0  0  0  0  0  0  0  0  0  0  0  0
   -2.4139    0.6698    2.8558 H   0  0  0  0  0  0  0  0  0  0  0  0
   -1.1587    0.6908    4.5775 C   0  0  0  0  0  0  0  0  0  0  0  0
   -0.4270    1.4968    4.6656 H   0  0  0  0  0  0  0  0  0  0  0  0
   -2.0565    0.9649    5.1327 H   0  0  0  0  0  0  0  0  0  0  0  0
   -0.7281   -0.2137    5.0125 H   0  0  0  0  0  0  0  0  0  0  0  0
  5  6  2  0  0  0  0
  5  7  1  0  0  0  0
  2  3  1  0  0  0  0
  2  4  1  0  0  0  0
  2  5  1  0  0  0  0
  1  2  1  0  0  0  0
 27 28  2  0  0  0  0
 27 29  1  0  0  0  0
 23 24  1  0  0  0  0
 23 25  1  0  0  0  0
 23 26  1  0  0  0  0
 20 21  1  0  0  0  0
 20 22  1  0  0  0  0
 20 23  1  0  0  0  0
 17 18  1  0  0  0  0
 17 19  1  0  0  0  0
 17 20  1  0  0  0  0
 14 15  1  0  0  0  0
 14 16  1  0  0  0  0
 14 17  1  0  0  0  0
 11 12  1  0  0  0  0
 11 13  1  0  0  0  0
 11 14  1  0  0  0  0
  9 10  1  0  0  0  0
  9 11  1  0  0  0  0
  9 27  1  0  0  0  0
  7  8  1  0  0  0  0
  7  9  1  0  0  0  0
 31 32  1  0  0  0  0
 31 33  1  0  0  0  0
 31 34  1  0  0  0  0
 29 30  1  0  0  0  0
 29 31  1  0  0  0  0
M  CHG  1  23   1
M  END
$$$$
default_name
  -OEChem-02102213163D

 34 33  0     1  0  0  0  0  0999 V2000
   -3.8899   -3.6747    1.6490 H   0  0  0  0  0  0  0  0  0  0  0  0
   -3.9109   -2.6717    1.2250 C   0  0  0  0  0  0  0  0  0  0  0  0
   -4.6009   -2.0517    1.7950 H   0  0  0  0  0  0  0  0  0  0  0  0
   -4.2309   -2.7237    0.1860 H   0  0  0  0  0  0  0  0  0  0  0  0
   -2.5229   -2.0787    1.2980 C   0  0  0  0  0  0  0  0  0  0  0  0
   -1.5999   -2.7227    1.7810 O   0  0  0  0  0  0  0  0  0  0  0  0
   -2.3659   -0.8447    0.8120 N   0  0  0  0  0  0  0  0  0  0  0  0
   -3.1749   -0.3807    0.4220 H   0  0  0  0  0  0  0  0  0  0  0  0
   -1.0919   -0.1077    0.8170 C   0  0  1  0  0  0  0  0  0  0  0  0
   -0.3571   -0.6901    0.2581 H   0  0  0  0  0  0  0  0  0  0  0  0
   -1.3037    1.2411    0.1040 C   0  0  0  0  0  0  0  0  0  0  0  0
   -1.8773    1.0661   -0.8076 H   0  0  0  0  0  0  0  0  0  0  0  0
   -1.8855    1.9011    0.7504 H   0  0  0  0  0  0  0  0  0  0  0  0
    0.0109    1.9378   -0.2789 C   0  0  0  0  0  0  0  0  0  0  0  0
   -0.1848    2.9825   -0.5241 H   0  0  0  0  0  0  0  0  0  0  0  0
    0.7007    1.8932    0.5661 H   0  0  0  0  0  0  0  0  0  0  0  0
    0.6485    1.2468   -1.4922 C   0  0  0  0  0  0  0  0  0  0  0  0
    0.8295    0.1972   -1.2486 H   0  0  0  0  0  0  0  0  0  0  0  0
   -0.0413    1.3024   -2.3368 H   0  0  0  0  0  0  0  0  0  0  0  0
    1.9736    1.9259   -1.8603 C   0  0  0  0  0  0  0  0  0  0  0  0
    1.7721    2.9766   -2.0930 H   0  0  0  0  0  0  0  0  0  0  0  0
    2.6334    1.8964   -0.9880 H   0  0  0  0  0  0  0  0  0  0  0  0
    2.6244    1.2616   -3.0177 N   0  3  0  0  0  0  0  0  0  0  0  0
    2.0227    1.2949   -3.8312 H   0  0  0  0  0  0  0  0  0  0  0  0
    3.4968    1.7210   -3.2475 H   0  0  0  0  0  0  0  0  0  0  0  0
    2.8210    0.2907   -2.8041 H   0  0  0  0  0  0  0  0  0  0  0  0
   -0.5865    0.0771    2.2496 C   0  0  0  0  0  0  0  0  0  0  0  0
    0.5860   -0.1608    2.5143 O   0  0  0  0  0  0  0  0  0  0  0  0
   -1.4786    0.4656    3.1667 N   0  0  0  0  0  0  0  0  0  0  0  0
   -2.4139    0.6698    2.8558 H   0  0  0  0  0  0  0  0  0  0  0  0
   -1.1587    0.6908    4.5775 C   0  0  0  0  0  0  0  0  0  0  0  0
   -0.4270    1.4968    4.6656 H   0  0  0  0  0  0  0  0  0  0  0  0
   -2.0565    0.9649    5.1327 H   0  0  0  0  0  0  0  0  0  0  0  0
   -0.7281   -0.2137    5.0125 H   0  0  0  0  0  0  0  0  0  0  0  0
  5  6  2  0  0  0  0
  5  7  1  0  0  0  0
  2  3  1  0  0  0  0
  2  4  1  0  0  0  0
  2  5  1  0  0  0  0
  1  2  1  0  0  0  0
 27 28  2  0  0  0  0
 27 29  1  0  0  0  0
 23 24  1  0  0  0  0
 23 25  1  0  0  0  0
 23 26  1  0  0  0  0
 20 21  1  0  0  0  0
 20 22  1  0  0  0  0
 20 23  1  0  0  0  0
 17 18  1  0  0  0  0
 17 19  1  0  0  0  0
 17 20  1  0  0  0  0
 14 15  1  0  0  0  0
 14 16  1  0  0  0  0
 14 17  1  0  0  0  0
 11 12  1  0  0  0  0
 11 13  1  0  0  0  0
 11 14  1  0  0  0  0
  9 10  1  0  0  0  0
  9 11  1  0  0  0  0
  9 27  1  0  0  0  0
  7  8  1  0  0  0  0
  7  9  1  0  0  0  0
 31 32  1  0  0  0  0
 31 33  1  0  0  0  0
 31 34  1  0  0  0  0
 29 30  1  0  0  0  0
 29 31  1  0  0  0  0
M  CHG  1  23   1
M  END
$$$$
default_name
  -OEChem-02102213163D

 34 33  0     1  0  0  0  0  0999 V2000
   -3.8899   -3.6747    1.6490 H   0  0  0  0  0  0  0  0  0  0  0  0
   -3.9109   -2.6717    1.2250 C   0  0  0  0  0  0  0  0  0  0  0  0
   -4.6009   -2.0517    1.7950 H   0  0  0  0  0  0  0  0  0  0  0  0
   -4.2309   -2.7237    0.1860 H   0  0  0  0  0  0  0  0  0  0  0  0
   -2.5229   -2.0787    1.2980 C   0  0  0  0  0  0  0  0  0  0  0  0
   -1.5999   -2.7227    1.7810 O   0  0  0  0  0  0  0  0  0  0  0  0
   -2.3659   -0.8447    0.8120 N   0  0  0  0  0  0  0  0  0  0  0  0
   -3.1749   -0.3807    0.4220 H   0  0  0  0  0  0  0  0  0  0  0  0
   -1.0919   -0.1077    0.8170 C   0  0  1  0  0  0  0  0  0  0  0  0
   -0.3571   -0.6901    0.2581 H   0  0  0  0  0  0  0  0  0  0  0  0
   -1.3037    1.2411    0.1040 C   0  0  0  0  0  0  0  0  0  0  0  0
   -1.8773    1.0661   -0.8076 H   0  0  0  0  0  0  0  0  0  0  0  0
   -1.8855    1.9011    0.7504 H   0  0  0  0  0  0  0  0  0  0  0  0
    0.0109    1.9378   -0.2789 C   0  0  0  0  0  0  0  0  0  0  0  0
   -0.1288    3.0195   -0.2645 H   0  0  0  0  0  0  0  0  0  0  0  0
    0.7840    1.6686    0.4434 H   0  0  0  0  0  0  0  0  0  0  0  0
    0.4553    1.5062   -1.6833 C   0  0  0  0  0  0  0  0  0  0  0  0
    0.5799    0.4208   -1.6985 H   0  0  0  0  0  0  0  0  0  0  0  0
   -0.3168    1.7859   -2.4028 H   0  0  0  0  0  0  0  0  0  0  0  0
    1.7806    2.1819   -2.0570 C   0  0  0  0  0  0  0  0  0  0  0  0
    1.6370    3.2670   -2.0285 H   0  0  0  0  0  0  0  0  0  0  0  0
    2.5282    1.9228   -1.3012 H   0  0  0  0  0  0  0  0  0  0  0  0
    2.2464    1.7630   -3.4031 N   0  3  0  0  0  0  0  0  0  0  0  0
    1.5633    2.0096   -4.1083 H   0  0  0  0  0  0  0  0  0  0  0  0
    3.1213    2.2170   -3.6343 H   0  0  0  0  0  0  0  0  0  0  0  0
    2.3893    0.7602   -3.4321 H   0  0  0  0  0  0  0  0  0  0  0  0
   -0.5865    0.0771    2.2496 C   0  0  0  0  0  0  0  0  0  0  0  0
    0.5860   -0.1608    2.5143 O   0  0  0  0  0  0  0  0  0  0  0  0
   -1.4786    0.4656    3.1667 N   0  0  0  0  0  0  0  0  0  0  0  0
   -2.4139    0.6698    2.8558 H   0  0  0  0  0  0  0  0  0  0  0  0
   -1.1587    0.6908    4.5775 C   0  0  0  0  0  0  0  0  0  0  0  0
   -0.4270    1.4968    4.6656 H   0  0  0  0  0  0  0  0  0  0  0  0
   -2.0565    0.9649    5.1327 H   0  0  0  0  0  0  0  0  0  0  0  0
   -0.7281   -0.2137    5.0125 H   0  0  0  0  0  0  0  0  0  0  0  0
  5  6  2  0  0  0  0
  5  7  1  0  0  0  0
  2  3  1  0  0  0  0
  2  4  1  0  0  0  0
  2  5  1  0  0  0  0
  1  2  1  0  0  0  0
 27 28  2  0  0  0  0
 27 29  1  0  0  0  0
 23 24  1  0  0  0  0
 23 25  1  0  0  0  0
 23 26  1  0  0  0  0
 20 21  1  0  0  0  0
 20 22  1  0  0  0  0
 20 23  1  0  0  0  0
 17 18  1  0  0  0  0
 17 19  1  0  0  0  0
 17 20  1  0  0  0  0
 14 15  1  0  0  0  0
 14 16  1  0  0  0  0
 14 17  1  0  0  0  0
 11 12  1  0  0  0  0
 11 13  1  0  0  0  0
 11 14  1  0  0  0  0
  9 10  1  0  0  0  0
  9 11  1  0  0  0  0
  9 27  1  0  0  0  0
  7  8  1  0  0  0  0
  7  9  1  0  0  0  0
 31 32  1  0  0  0  0
 31 33  1  0  0  0  0
 31 34  1  0  0  0  0
 29 30  1  0  0  0  0
 29 31  1  0  0  0  0
M  CHG  1  23   1
M  END
$$$$
default_name
  -OEChem-02102213163D

 34 33  0     1  0  0  0  0  0999 V2000
   -3.8899   -3.6747    1.6490 H   0  0  0  0  0  0  0  0  0  0  0  0
   -3.9109   -2.6717    1.2250 C   0  0  0  0  0  0  0  0  0  0  0  0
   -4.6009   -2.0517    1.7950 H   0  0  0  0  0  0  0  0  0  0  0  0
   -4.2309   -2.7237    0.1860 H   0  0  0  0  0  0  0  0  0  0  0  0
   -2.5229   -2.0787    1.2980 C   0  0  0  0  0  0  0  0  0  0  0  0
   -1.5999   -2.7227    1.7810 O   0  0  0  0  0  0  0  0  0  0  0  0
   -2.3659   -0.8447    0.8120 N   0  0  0  0  0  0  0  0  0  0  0  0
   -3.1749   -0.3807    0.4220 H   0  0  0  0  0  0  0  0  0  0  0  0
   -1.0919   -0.1077    0.8170 C   0  0  1  0  0  0  0  0  0  0  0  0
   -0.3571   -0.6901    0.2581 H   0  0  0  0  0  0  0  0  0  0  0  0
   -1.3037    1.2411    0.1040 C   0  0  0  0  0  0  0  0  0  0  0  0
   -1.8773    1.0661   -0.8076 H   0  0  0  0  0  0  0  0  0  0  0  0
   -1.8855    1.9011    0.7504 H   0  0  0  0  0  0  0  0  0  0  0  0
    0.0109    1.9378   -0.2789 C   0  0  0  0  0  0  0  0  0  0  0  0
   -0.0419    2.9942   -0.0121 H   0  0  0  0  0  0  0  0  0  0  0  0
    0.8356    1.4735    0.2654 H   0  0  0  0  0  0  0  0  0  0  0  0
    0.2631    1.8116   -1.7877 C   0  0  0  0  0  0  0  0  0  0  0  0
    0.3005    0.7526   -2.0542 H   0  0  0  0  0  0  0  0  0  0  0  0
   -0.5595    2.2854   -2.3271 H   0  0  0  0  0  0  0  0  0  0  0  0
    1.5876    2.4852   -2.1676 C   0  0  0  0  0  0  0  0  0  0  0  0
    1.5329    3.5418   -1.8860 H   0  0  0  0  0  0  0  0  0  0  0  0
    2.3915    2.0245   -1.5855 H   0  0  0  0  0  0  0  0  0  0  0  0
    1.8684    2.3570   -3.6199 N   0  3  0  0  0  0  0  0  0  0  0  0
    1.1330    2.7909   -4.1638 H   0  0  0  0  0  0  0  0  0  0  0  0
    2.7451    2.8060   -3.8540 H   0  0  0  0  0  0  0  0  0  0  0  0
    1.9288    1.3806   -3.8841 H   0  0  0  0  0  0  0  0  0  0  0  0
   -0.5865    0.0771    2.2496 C   0  0  0  0  0  0  0  0  0  0  0  0
    0.5860   -0.1608    2.5143 O   0  0  0  0  0  0  0  0  0  0  0  0
   -1.4786    0.4656    3.1667 N   0  0  0  0  0  0  0  0  0  0  0  0
   -2.4139    0.6698    2.8558 H   0  0  0  0  0  0  0  0  0  0  0  0
   -1.1587    0.6908    4.5775 C   0  0  0  0  0  0  0  0  0  0  0  0
   -0.4270    1.4968    4.6656 H   0  0  0  0  0  0  0  0  0  0  0  0
   -2.0565    0.9649    5.1327 H   0  0  0  0  0  0  0  0  0  0  0  0
   -0.7281   -0.2137    5.0125 H   0  0  0  0  0  0  0  0  0  0  0  0
  5  6  2  0  0  0  0
  5  7  1  0  0  0  0
  2  3  1  0  0  0  0
  2  4  1  0  0  0  0
  2  5  1  0  0  0  0
  1  2  1  0  0  0  0
 27 28  2  0  0  0  0
 27 29  1  0  0  0  0
 23 24  1  0  0  0  0
 23 25  1  0  0  0  0
 23 26  1  0  0  0  0
 20 21  1  0  0  0  0
 20 22  1  0  0  0  0
 20 23  1  0  0  0  0
 17 18  1  0  0  0  0
 17 19  1  0  0  0  0
 17 20  1  0  0  0  0
 14 15  1  0  0  0  0
 14 16  1  0  0  0  0
 14 17  1  0  0  0  0
 11 12  1  0  0  0  0
 11 13  1  0  0  0  0
 11 14  1  0  0  0  0
  9 10  1  0  0  0  0
  9 11  1  0  0  0  0
  9 27  1  0  0  0  0
  7  8  1  0  0  0  0
  7  9  1  0  0  0  0
 31 32  1  0  0  0  0
 31 33  1  0  0  0  0
 31 34  1  0  0  0  0
 29 30  1  0  0  0  0
 29 31  1  0  0  0  0
M  CHG  1  23   1
M  END
$$$$
default_name
  -OEChem-02102213163D

 34 33  0     1  0  0  0  0  0999 V2000
   -3.8899   -3.6747    1.6490 H   0  0  0  0  0  0  0  0  0  0  0  0
   -3.9109   -2.6717    1.2250 C   0  0  0  0  0  0  0  0  0  0  0  0
   -4.6009   -2.0517    1.7950 H   0  0  0  0  0  0  0  0  0  0  0  0
   -4.2309   -2.7237    0.1860 H   0  0  0  0  0  0  0  0  0  0  0  0
   -2.5229   -2.0787    1.2980 C   0  0  0  0  0  0  0  0  0  0  0  0
   -1.5999   -2.7227    1.7810 O   0  0  0  0  0  0  0  0  0  0  0  0
   -2.3659   -0.8447    0.8120 N   0  0  0  0  0  0  0  0  0  0  0  0
   -3.1749   -0.3807    0.4220 H   0  0  0  0  0  0  0  0  0  0  0  0
   -1.0919   -0.1077    0.8170 C   0  0  1  0  0  0  0  0  0  0  0  0
   -0.3571   -0.6901    0.2581 H   0  0  0  0  0  0  0  0  0  0  0  0
   -1.3037    1.2411    0.1040 C   0  0  0  0  0  0  0  0  0  0  0  0
   -1.8773    1.0661   -0.8076 H   0  0  0  0  0  0  0  0  0  0  0  0
   -1.8855    1.9011    0.7504 H   0  0  0  0  0  0  0  0  0  0  0  0
    0.0109    1.9378   -0.2789 C   0  0  0  0  0  0  0  0  0  0  0  0
    0.0701    2.9082    0.2158 H   0  0  0  0  0  0  0  0  0  0  0  0
    0.8519    1.3211    0.0442 H   0  0  0  0  0  0  0  0  0  0  0  0
    0.0849    2.1420   -1.7984 C   0  0  0  0  0  0  0  0  0  0  0  0
    0.0103    1.1698   -2.2914 H   0  0  0  0  0  0  0  0  0  0  0  0
   -0.7528    2.7668   -2.1149 H   0  0  0  0  0  0  0  0  0  0  0  0
    1.4078    2.8151   -2.1847 C   0  0  0  0  0  0  0  0  0  0  0  0
    1.4667    3.7825   -1.6753 H   0  0  0  0  0  0  0  0  0  0  0  0
    2.2326    2.1945   -1.8216 H   0  0  0  0  0  0  0  0  0  0  0  0
    1.5162    3.0033   -3.6534 N   0  3  0  0  0  0  0  0  0  0  0  0
    0.7613    3.5856   -3.9939 H   0  0  0  0  0  0  0  0  0  0  0  0
    2.3940    3.4478   -3.8916 H   0  0  0  0  0  0  0  0  0  0  0  0
    1.4711    2.1097   -4.1292 H   0  0  0  0  0  0  0  0  0  0  0  0
   -0.5865    0.0771    2.2496 C   0  0  0  0  0  0  0  0  0  0  0  0
    0.5860   -0.1608    2.5143 O   0  0  0  0  0  0  0  0  0  0  0  0
   -1.4786    0.4656    3.1667 N   0  0  0  0  0  0  0  0  0  0  0  0
   -2.4139    0.6698    2.8558 H   0  0  0  0  0  0  0  0  0  0  0  0
   -1.1587    0.6908    4.5775 C   0  0  0  0  0  0  0  0  0  0  0  0
   -0.4270    1.4968    4.6656 H   0  0  0  0  0  0  0  0  0  0  0  0
   -2.0565    0.9649    5.1327 H   0  0  0  0  0  0  0  0  0  0  0  0
   -0.7281   -0.2137    5.0125 H   0  0  0  0  0  0  0  0  0  0  0  0
  5  6  2  0  0  0  0
  5  7  1  0  0  0  0
  2  3  1  0  0  0  0
  2  4  1  0  0  0  0
  2  5  1  0  0  0  0
  1  2  1  0  0  0  0
 27 28  2  0  0  0  0
 27 29  1  0  0  0  0
 23 24  1  0  0  0  0
 23 25  1  0  0  0  0
 23 26  1  0  0  0  0
 20 21  1  0  0  0  0
 20 22  1  0  0  0  0
 20 23  1  0  0  0  0
 17 18  1  0  0  0  0
 17 19  1  0  0  0  0
 17 20  1  0  0  0  0
 14 15  1  0  0  0  0
 14 16  1  0  0  0  0
 14 17  1  0  0  0  0
 11 12  1  0  0  0  0
 11 13  1  0  0  0  0
 11 14  1  0  0  0  0
  9 10  1  0  0  0  0
  9 11  1  0  0  0  0
  9 27  1  0  0  0  0
  7  8  1  0  0  0  0
  7  9  1  0  0  0  0
 31 32  1  0  0  0  0
 31 33  1  0  0  0  0
 31 34  1  0  0  0  0
 29 30  1  0  0  0  0
 29 31  1  0  0  0  0
M  CHG  1  23   1
M  END
$$$$
default_name
  -OEChem-02102213163D

 34 33  0     1  0  0  0  0  0999 V2000
   -3.8899   -3.6747    1.6490 H   0  0  0  0  0  0  0  0  0  0  0  0
   -3.9109   -2.6717    1.2250 C   0  0  0  0  0  0  0  0  0  0  0  0
   -4.6009   -2.0517    1.7950 H   0  0  0  0  0  0  0  0  0  0  0  0
   -4.2309   -2.7237    0.1860 H   0  0  0  0  0  0  0  0  0  0  0  0
   -2.5229   -2.0787    1.2980 C   0  0  0  0  0  0  0  0  0  0  0  0
   -1.5999   -2.7227    1.7810 O   0  0  0  0  0  0  0  0  0  0  0  0
   -2.3659   -0.8447    0.8120 N   0  0  0  0  0  0  0  0  0  0  0  0
   -3.1749   -0.3807    0.4220 H   0  0  0  0  0  0  0  0  0  0  0  0
   -1.0919   -0.1077    0.8170 C   0  0  1  0  0  0  0  0  0  0  0  0
   -0.3571   -0.6901    0.2581 H   0  0  0  0  0  0  0  0  0  0  0  0
   -1.3037    1.2411    0.1040 C   0  0  0  0  0  0  0  0  0  0  0  0
   -1.8773    1.0661   -0.8076 H   0  0  0  0  0  0  0  0  0  0  0  0
   -1.8855    1.9011    0.7504 H   0  0  0  0  0  0  0  0  0  0  0  0
    0.0109    1.9378   -0.2789 C   0  0  0  0  0  0  0  0  0  0  0  0
    0.1994    2.7674    0.4038 H   0  0  0  0  0  0  0  0  0  0  0  0
    0.8319    1.2219   -0.2052 H   0  0  0  0  0  0  0  0  0  0  0  0
   -0.0673    2.4751   -1.7146 C   0  0  0  0  0  0  0  0  0  0  0  0
   -0.2710    1.6441   -2.3942 H   0  0  0  0  0  0  0  0  0  0  0  0
   -0.8835    3.1972   -1.7806 H   0  0  0  0  0  0  0  0  0  0  0  0
    1.2534    3.1492   -2.1069 C   0  0  0  0  0  0  0  0  0  0  0  0
    1.4431    3.9726   -1.4107 H   0  0  0  0  0  0  0  0  0  0  0  0
    2.0624    2.4212   -1.9934 H   0  0  0  0  0  0  0  0  0  0  0  0
    1.2137    3.6576   -3.5014 N   0  3  0  0  0  0  0  0  0  0  0  0
    0.4735    4.3396   -3.6101 H   0  0  0  0  0  0  0  0  0  0  0  0
    2.0918    4.0988   -3.7446 H   0  0  0  0  0  0  0  0  0  0  0  0
    1.0472    2.8977   -4.1507 H   0  0  0  0  0  0  0  0  0  0  0  0
   -0.5865    0.0771    2.2496 C   0  0  0  0  0  0  0  0  0  0  0  0
    0.5860   -0.1608    2.5143 O   0  0  0  0  0  0  0  0  0  0  0  0
   -1.4786    0.4656    3.1667 N   0  0  0  0  0  0  0  0  0  0  0  0
   -2.4139    0.6698    2.8558 H   0  0  0  0  0  0  0  0  0  0  0  0
   -1.1587    0.6908    4.5775 C   0  0  0  0  0  0  0  0  0  0  0  0
   -0.4270    1.4968    4.6656 H   0  0  0  0  0  0  0  0  0  0  0  0
   -2.0565    0.9649    5.1327 H   0  0  0  0  0  0  0  0  0  0  0  0
   -0.7281   -0.2137    5.0125 H   0  0  0  0  0  0  0  0  0  0  0  0
  5  6  2  0  0  0  0
  5  7  1  0  0  0  0
  2  3  1  0  0  0  0
  2  4  1  0  0  0  0
  2  5  1  0  0  0  0
  1  2  1  0  0  0  0
 27 28  2  0  0  0  0
 27 29  1  0  0  0  0
 23 24  1  0  0  0  0
 23 25  1  0  0  0  0
 23 26  1  0  0  0  0
 20 21  1  0  0  0  0
 20 22  1  0  0  0  0
 20 23  1  0  0  0  0
 17 18  1  0  0  0  0
 17 19  1  0  0  0  0
 17 20  1  0  0  0  0
 14 15  1  0  0  0  0
 14 16  1  0  0  0  0
 14 17  1  0  0  0  0
 11 12  1  0  0  0  0
 11 13  1  0  0  0  0
 11 14  1  0  0  0  0
  9 10  1  0  0  0  0
  9 11  1  0  0  0  0
  9 27  1  0  0  0  0
  7  8  1  0  0  0  0
  7  9  1  0  0  0  0
 31 32  1  0  0  0  0
 31 33  1  0  0  0  0
 31 34  1  0  0  0  0
 29 30  1  0  0  0  0
 29 31  1  0  0  0  0
M  CHG  1  23   1
M  END
$$$$
default_name
  -OEChem-02102213163D

 34 33  0     1  0  0  0  0  0999 V2000
   -3.8899   -3.6747    1.6490 H   0  0  0  0  0  0  0  0  0  0  0  0
   -3.9109   -2.6717    1.2250 C   0  0  0  0  0  0  0  0  0  0  0  0
   -4.6009   -2.0517    1.7950 H   0  0  0  0  0  0  0  0  0  0  0  0
   -4.2309   -2.7237    0.1860 H   0  0  0  0  0  0  0  0  0  0  0  0
   -2.5229   -2.0787    1.2980 C   0  0  0  0  0  0  0  0  0  0  0  0
   -1.5999   -2.7227    1.7810 O   0  0  0  0  0  0  0  0  0  0  0  0
   -2.3659   -0.8447    0.8120 N   0  0  0  0  0  0  0  0  0  0  0  0
   -3.1749   -0.3807    0.4220 H   0  0  0  0  0  0  0  0  0  0  0  0
   -1.0919   -0.1077    0.8170 C   0  0  1  0  0  0  0  0  0  0  0  0
   -0.3571   -0.6901    0.2581 H   0  0  0  0  0  0  0  0  0  0  0  0
   -1.3037    1.2411    0.1040 C   0  0  0  0  0  0  0  0  0  0  0  0
   -1.8773    1.0661   -0.8076 H   0  0  0  0  0  0  0  0  0  0  0  0
   -1.8855    1.9011    0.7504 H   0  0  0  0  0  0  0  0  0  0  0  0
    0.0109    1.9378   -0.2789 C   0  0  0  0  0  0  0  0  0  0  0  0
    0.3374    2.5815    0.5390 H   0  0  0  0  0  0  0  0  0  0  0  0
    0.7768    1.1826   -0.4657 H   0  0  0  0  0  0  0  0  0  0  0  0
   -0.1829    2.7881   -1.5421 C   0  0  0  0  0  0  0  0  0  0  0  0
   -0.5242    2.1431   -2.3554 H   0  0  0  0  0  0  0  0  0  0  0  0
   -0.9428    3.5473   -1.3471 H   0  0  0  0  0  0  0  0  0  0  0  0
    1.1350    3.4645   -1.9398 C   0  0  0  0  0  0  0  0  0  0  0  0
    1.4635    4.0991   -1.1102 H   0  0  0  0  0  0  0  0  0  0  0  0
    1.8925    2.6892   -2.0891 H   0  0  0  0  0  0  0  0  0  0  0  0
    0.9816    4.2755   -3.1740 N   0  3  0  0  0  0  0  0  0  0  0  0
    0.2892    5.0015   -3.0386 H   0  0  0  0  0  0  0  0  0  0  0  0
    1.8592    4.7145   -3.4229 H   0  0  0  0  0  0  0  0  0  0  0  0
    0.6860    3.6910   -3.9473 H   0  0  0  0  0  0  0  0  0  0  0  0
   -0.5865    0.0771    2.2496 C   0  0  0  0  0  0  0  0  0  0  0  0
    0.5860   -0.1608    2.5143 O   0  0  0  0  0  0  0  0  0  0  0  0
   -1.4786    0.4656    3.1667 N   0  0  0  0  0  0  0  0  0  0  0  0
   -2.4139    0.6698    2.8558 H   0  0  0  0  0  0  0  0  0  0  0  0
   -1.1587    0.6908    4.5775 C   0  0  0  0  0  0  0  0  0  0  0  0
   -0.4270    1.4968    4.6656 H   0  0  0  0  0  0  0  0  0  0  0  0
   -2.0565    0.9649    5.1327 H   0  0  0  0  0  0  0  0  0  0  0  0
   -0.7281   -0.2137    5.0125 H   0  0  0  0  0  0  0  0  0  0  0  0
  5  6  2  0  0  0  0
  5  7  1  0  0  0  0
  2  3  1  0  0  0  0
  2  4  1  0  0  0  0
  2  5  1  0  0  0  0
  1  2  1  0  0  0  0
 27 28  2  0  0  0  0
 27 29  1  0  0  0  0
 23 24  1  0  0  0  0
 23 25  1  0  0  0  0
 23 26  1  0  0  0  0
 20 21  1  0  0  0  0
 20 22  1  0  0  0  0
 20 23  1  0  0  0  0
 17 18  1  0  0  0  0
 17 19  1  0  0  0  0
 17 20  1  0  0  0  0
 14 15  1  0  0  0  0
 14 16  1  0  0  0  0
 14 17  1  0  0  0  0
 11 12  1  0  0  0  0
 11 13  1  0  0  0  0
 11 14  1  0  0  0  0
  9 10  1  0  0  0  0
  9 11  1  0  0  0  0
  9 27  1  0  0  0  0
  7  8  1  0  0  0  0
  7  9  1  0  0  0  0
 31 32  1  0  0  0  0
 31 33  1  0  0  0  0
 31 34  1  0  0  0  0
 29 30  1  0  0  0  0
 29 31  1  0  0  0  0
M  CHG  1  23   1
M  END
$$$$
default_name
  -OEChem-02102213163D

 34 33  0     1  0  0  0  0  0999 V2000
   -3.8899   -3.6747    1.6490 H   0  0  0  0  0  0  0  0  0  0  0  0
   -3.9109   -2.6717    1.2250 C   0  0  0  0  0  0  0  0  0  0  0  0
   -4.6009   -2.0517    1.7950 H   0  0  0  0  0  0  0  0  0  0  0  0
   -4.2309   -2.7237    0.1860 H   0  0  0  0  0  0  0  0  0  0  0  0
   -2.5229   -2.0787    1.2980 C   0  0  0  0  0  0  0  0  0  0  0  0
   -1.5999   -2.7227    1.7810 O   0  0  0  0  0  0  0  0  0  0  0  0
   -2.3659   -0.8447    0.8120 N   0  0  0  0  0  0  0  0  0  0  0  0
   -3.1749   -0.3807    0.4220 H   0  0  0  0  0  0  0  0  0  0  0  0
   -1.0919   -0.1077    0.8170 C   0  0  1  0  0  0  0  0  0  0  0  0
   -0.3571   -0.6901    0.2581 H   0  0  0  0  0  0  0  0  0  0  0  0
   -1.3037    1.2411    0.1040 C   0  0  0  0  0  0  0  0  0  0  0  0
   -1.8773    1.0661   -0.8076 H   0  0  0  0  0  0  0  0  0  0  0  0
   -1.8855    1.9011    0.7504 H   0  0  0  0  0  0  0  0  0  0  0  0
    0.0109    1.9378   -0.2789 C   0  0  0  0  0  0  0  0  0  0  0  0
    0.4745    2.3630    0.6123 H   0  0  0  0  0  0  0  0  0  0  0  0
    0.6906    1.2058   -0.7195 H   0  0  0  0  0  0  0  0  0  0  0  0
   -0.2541    3.0596   -1.2925 C   0  0  0  0  0  0  0  0  0  0  0  0
   -0.7320    2.6329   -2.1776 H   0  0  0  0  0  0  0  0  0  0  0  0
   -0.9267    3.7934   -0.8438 H   0  0  0  0  0  0  0  0  0  0  0  0
    1.0605    3.7398   -1.6946 C   0  0  0  0  0  0  0  0  0  0  0  0
    1.5267    4.1534   -0.7943 H   0  0  0  0  0  0  0  0  0  0  0  0
    1.7344    2.9803   -2.1022 H   0  0  0  0  0  0  0  0  0  0  0  0
    0.8356    4.8148   -2.6938 N   0  3  0  0  0  0  0  0  0  0  0  0
    0.2209    5.5261   -2.3184 H   0  0  0  0  0  0  0  0  0  0  0  0
    1.7120    5.2529   -2.9485 H   0  0  0  0  0  0  0  0  0  0  0  0
    0.4122    4.4355   -3.5326 H   0  0  0  0  0  0  0  0  0  0  0  0
   -0.5865    0.0771    2.2496 C   0  0  0  0  0  0  0  0  0  0  0  0
    0.5860   -0.1608    2.5143 O   0  0  0  0  0  0  0  0  0  0  0  0
   -1.4786    0.4656    3.1667 N   0  0  0  0  0  0  0  0  0  0  0  0
   -2.4139    0.6698    2.8558 H   0  0  0  0  0  0  0  0  0  0  0  0
   -1.1587    0.6908    4.5775 C   0  0  0  0  0  0  0  0  0  0  0  0
   -0.4270    1.4968    4.6656 H   0  0  0  0  0  0  0  0  0  0  0  0
   -2.0565    0.9649    5.1327 H   0  0  0  0  0  0  0  0  0  0  0  0
   -0.7281   -0.2137    5.0125 H   0  0  0  0  0  0  0  0  0  0  0  0
  5  6  2  0  0  0  0
  5  7  1  0  0  0  0
  2  3  1  0  0  0  0
  2  4  1  0  0  0  0
  2  5  1  0  0  0  0
  1  2  1  0  0  0  0
 27 28  2  0  0  0  0
 27 29  1  0  0  0  0
 23 24  1  0  0  0  0
 23 25  1  0  0  0  0
 23 26  1  0  0  0  0
 20 21  1  0  0  0  0
 20 22  1  0  0  0  0
 20 23  1  0  0  0  0
 17 18  1  0  0  0  0
 17 19  1  0  0  0  0
 17 20  1  0  0  0  0
 14 15  1  0  0  0  0
 14 16  1  0  0  0  0
 14 17  1  0  0  0  0
 11 12  1  0  0  0  0
 11 13  1  0  0  0  0
 11 14  1  0  0  0  0
  9 10  1  0  0  0  0
  9 11  1  0  0  0  0
  9 27  1  0  0  0  0
  7  8  1  0  0  0  0
  7  9  1  0  0  0  0
 31 32  1  0  0  0  0
 31 33  1  0  0  0  0
 31 34  1  0  0  0  0
 29 30  1  0  0  0  0
 29 31  1  0  0  0  0
M  CHG  1  23   1
M  END
$$$$
default_name
  -OEChem-02102213163D

 34 33  0     1  0  0  0  0  0999 V2000
   -3.8899   -3.6747    1.6490 H   0  0  0  0  0  0  0  0  0  0  0  0
   -3.9109   -2.6717    1.2250 C   0  0  0  0  0  0  0  0  0  0  0  0
   -4.6009   -2.0517    1.7950 H   0  0  0  0  0  0  0  0  0  0  0  0
   -4.2309   -2.7237    0.1860 H   0  0  0  0  0  0  0  0  0  0  0  0
   -2.5229   -2.0787    1.2980 C   0  0  0  0  0  0  0  0  0  0  0  0
   -1.5999   -2.7227    1.7810 O   0  0  0  0  0  0  0  0  0  0  0  0
   -2.3659   -0.8447    0.8120 N   0  0  0  0  0  0  0  0  0  0  0  0
   -3.1749   -0.3807    0.4220 H   0  0  0  0  0  0  0  0  0  0  0  0
   -1.0919   -0.1077    0.8170 C   0  0  1  0  0  0  0  0  0  0  0  0
   -0.3571   -0.6901    0.2581 H   0  0  0  0  0  0  0  0  0  0  0  0
   -1.3037    1.2411    0.1040 C   0  0  0  0  0  0  0  0  0  0  0  0
   -2.0869    1.1187   -0.6458 H   0  0  0  0  0  0  0  0  0  0  0  0
   -1.6418    1.9820    0.8311 H   0  0  0  0  0  0  0  0  0  0  0  0
   -0.0400    1.7610   -0.5982 C   0  0  0  0  0  0  0  0  0  0  0  0
    0.7580    1.8950    0.1334 H   0  0  0  0  0  0  0  0  0  0  0  0
    0.2807    1.0334   -1.3463 H   0  0  0  0  0  0  0  0  0  0  0  0
   -0.3243    3.1041   -1.2848 C   0  0  0  0  0  0  0  0  0  0  0  0
   -1.1340    2.9699   -2.0061 H   0  0  0  0  0  0  0  0  0  0  0  0
   -0.6355    3.8304   -0.5314 H   0  0  0  0  0  0  0  0  0  0  0  0
    0.9297    3.6123   -2.0072 C   0  0  0  0  0  0  0  0  0  0  0  0
    1.7301    3.7327   -1.2699 H   0  0  0  0  0  0  0  0  0  0  0  0
    1.2485    2.8522   -2.7268 H   0  0  0  0  0  0  0  0  0  0  0  0
    0.6757    4.9002   -2.7010 N   0  3  0  0  0  0  0  0  0  0  0  0
    0.3904    5.6106   -2.0386 H   0  0  0  0  0  0  0  0  0  0  0  0
    1.5121    5.2215   -3.1725 H   0  0  0  0  0  0  0  0  0  0  0  0
   -0.0585    4.7919   -3.3909 H   0  0  0  0  0  0  0  0  0  0  0  0
   -0.5865    0.0771    2.2496 C   0  0  0  0  0  0  0  0  0  0  0  0
    0.5860   -0.1608    2.5143 O   0  0  0  0  0  0  0  0  0  0  0  0
   -1.4786    0.4656    3.1667 N   0  0  0  0  0  0  0  0  0  0  0  0
   -2.4139    0.6698    2.8558 H   0  0  0  0  0  0  0  0  0  0  0  0
   -1.1587    0.6908    4.5775 C   0  0  0  0  0  0  0  0  0  0  0  0
   -0.4270    1.4968    4.6656 H   0  0  0  0  0  0  0  0  0  0  0  0
   -2.0565    0.9649    5.1327 H   0  0  0  0  0  0  0  0  0  0  0  0
   -0.7281   -0.2137    5.0125 H   0  0  0  0  0  0  0  0  0  0  0  0
  5  6  2  0  0  0  0
  5  7  1  0  0  0  0
  2  3  1  0  0  0  0
  2  4  1  0  0  0  0
  2  5  1  0  0  0  0
  1  2  1  0  0  0  0
 27 28  2  0  0  0  0
 27 29  1  0  0  0  0
 23 24  1  0  0  0  0
 23 25  1  0  0  0  0
 23 26  1  0  0  0  0
 20 21  1  0  0  0  0
 20 22  1  0  0  0  0
 20 23  1  0  0  0  0
 17 18  1  0  0  0  0
 17 19  1  0  0  0  0
 17 20  1  0  0  0  0
 14 15  1  0  0  0  0
 14 16  1  0  0  0  0
 14 17  1  0  0  0  0
 11 12  1  0  0  0  0
 11 13  1  0  0  0  0
 11 14  1  0  0  0  0
  9 10  1  0  0  0  0
  9 11  1  0  0  0  0
  9 27  1  0  0  0  0
  7  8  1  0  0  0  0
  7  9  1  0  0  0  0
 31 32  1  0  0  0  0
 31 33  1  0  0  0  0
 31 34  1  0  0  0  0
 29 30  1  0  0  0  0
 29 31  1  0  0  0  0
M  CHG  1  23   1
M  END
$$$$
default_name
  -OEChem-02102213163D

 34 33  0     1  0  0  0  0  0999 V2000
   -3.8899   -3.6747    1.6490 H   0  0  0  0  0  0  0  0  0  0  0  0
   -3.9109   -2.6717    1.2250 C   0  0  0  0  0  0  0  0  0  0  0  0
   -4.6009   -2.0517    1.7950 H   0  0  0  0  0  0  0  0  0  0  0  0
   -4.2309   -2.7237    0.1860 H   0  0  0  0  0  0  0  0  0  0  0  0
   -2.5229   -2.0787    1.2980 C   0  0  0  0  0  0  0  0  0  0  0  0
   -1.5999   -2.7227    1.7810 O   0  0  0  0  0  0  0  0  0  0  0  0
   -2.3659   -0.8447    0.8120 N   0  0  0  0  0  0  0  0  0  0  0  0
   -3.1749   -0.3807    0.4220 H   0  0  0  0  0  0  0  0  0  0  0  0
   -1.0919   -0.1077    0.8170 C   0  0  1  0  0  0  0  0  0  0  0  0
   -0.3571   -0.6901    0.2581 H   0  0  0  0  0  0  0  0  0  0  0  0
   -1.3037    1.2411    0.1040 C   0  0  0  0  0  0  0  0  0  0  0  0
   -2.0869    1.1187   -0.6458 H   0  0  0  0  0  0  0  0  0  0  0  0
   -1.6418    1.9820    0.8311 H   0  0  0  0  0  0  0  0  0  0  0  0
   -0.0400    1.7610   -0.5982 C   0  0  0  0  0  0  0  0  0  0  0  0
    0.8210    1.6446    0.0613 H   0  0  0  0  0  0  0  0  0  0  0  0
    0.1282    1.1837   -1.5094 H   0  0  0  0  0  0  0  0  0  0  0  0
   -0.2009    3.2443   -0.9589 C   0  0  0  0  0  0  0  0  0  0  0  0
   -1.0728    3.3596   -1.6073 H   0  0  0  0  0  0  0  0  0  0  0  0
   -0.3596    3.8182   -0.0438 H   0  0  0  0  0  0  0  0  0  0  0  0
    1.0502    3.7583   -1.6822 C   0  0  0  0  0  0  0  0  0  0  0  0
    1.9123    3.6272   -1.0201 H   0  0  0  0  0  0  0  0  0  0  0  0
    1.2145    3.1434   -2.5722 H   0  0  0  0  0  0  0  0  0  0  0  0
    0.9117    5.1864   -2.0644 N   0  3  0  0  0  0  0  0  0  0  0  0
    0.7698    5.7619   -1.2438 H   0  0  0  0  0  0  0  0  0  0  0  0
    1.7446    5.5098   -2.5405 H   0  0  0  0  0  0  0  0  0  0  0  0
    0.1201    5.3118   -2.6845 H   0  0  0  0  0  0  0  0  0  0  0  0
   -0.5865    0.0771    2.2496 C   0  0  0  0  0  0  0  0  0  0  0  0
    0.5860   -0.1608    2.5143 O   0  0  0  0  0  0  0  0  0  0  0  0
   -1.4786    0.4656    3.1667 N   0  0  0  0  0  0  0  0  0  0  0  0
   -2.4139    0.6698    2.8558 H   0  0  0  0  0  0  0  0  0  0  0  0
   -1.1587    0.6908    4.5775 C   0  0  0  0  0  0  0  0  0  0  0  0
   -0.4270    1.4968    4.6656 H   0  0  0  0  0  0  0  0  0  0  0  0
   -2.0565    0.9649    5.1327 H   0  0  0  0  0  0  0  0  0  0  0  0
   -0.7281   -0.2137    5.0125 H   0  0  0  0  0  0  0  0  0  0  0  0
  5  6  2  0  0  0  0
  5  7  1  0  0  0  0
  2  3  1  0  0  0  0
  2  4  1  0  0  0  0
  2  5  1  0  0  0  0
  1  2  1  0  0  0  0
 27 28  2  0  0  0  0
 27 29  1  0  0  0  0
 23 24  1  0  0  0  0
 23 25  1  0  0  0  0
 23 26  1  0  0  0  0
 20 21  1  0  0  0  0
 20 22  1  0  0  0  0
 20 23  1  0  0  0  0
 17 18  1  0  0  0  0
 17 19  1  0  0  0  0
 17 20  1  0  0  0  0
 14 15  1  0  0  0  0
 14 16  1  0  0  0  0
 14 17  1  0  0  0  0
 11 12  1  0  0  0  0
 11 13  1  0  0  0  0
 11 14  1  0  0  0  0
  9 10  1  0  0  0  0
  9 11  1  0  0  0  0
  9 27  1  0  0  0  0
  7  8  1  0  0  0  0
  7  9  1  0  0  0  0
 31 32  1  0  0  0  0
 31 33  1  0  0  0  0
 31 34  1  0  0  0  0
 29 30  1  0  0  0  0
 29 31  1  0  0  0  0
M  CHG  1  23   1
M  END
$$$$
default_name
  -OEChem-02102213163D

 34 33  0     1  0  0  0  0  0999 V2000
   -3.8899   -3.6747    1.6490 H   0  0  0  0  0  0  0  0  0  0  0  0
   -3.9109   -2.6717    1.2250 C   0  0  0  0  0  0  0  0  0  0  0  0
   -4.6009   -2.0517    1.7950 H   0  0  0  0  0  0  0  0  0  0  0  0
   -4.2309   -2.7237    0.1860 H   0  0  0  0  0  0  0  0  0  0  0  0
   -2.5229   -2.0787    1.2980 C   0  0  0  0  0  0  0  0  0  0  0  0
   -1.5999   -2.7227    1.7810 O   0  0  0  0  0  0  0  0  0  0  0  0
   -2.3659   -0.8447    0.8120 N   0  0  0  0  0  0  0  0  0  0  0  0
   -3.1749   -0.3807    0.4220 H   0  0  0  0  0  0  0  0  0  0  0  0
   -1.0919   -0.1077    0.8170 C   0  0  1  0  0  0  0  0  0  0  0  0
   -0.3571   -0.6901    0.2581 H   0  0  0  0  0  0  0  0  0  0  0  0
   -1.3037    1.2411    0.1040 C   0  0  0  0  0  0  0  0  0  0  0  0
   -2.0869    1.1187   -0.6458 H   0  0  0  0  0  0  0  0  0  0  0  0
   -1.6418    1.9820    0.8311 H   0  0  0  0  0  0  0  0  0  0  0  0
   -0.0400    1.7610   -0.5982 C   0  0  0  0  0  0  0  0  0  0  0  0
    0.8460    1.4105   -0.0671 H   0  0  0  0  0  0  0  0  0  0  0  0
   -0.0156    1.3816   -1.6216 H   0  0  0  0  0  0  0  0  0  0  0  0
   -0.0366    3.2957   -0.6251 C   0  0  0  0  0  0  0  0  0  0  0  0
   -0.9326    3.6438   -1.1445 H   0  0  0  0  0  0  0  0  0  0  0  0
   -0.0517    3.6699    0.4005 H   0  0  0  0  0  0  0  0  0  0  0  0
    1.2123    3.8160   -1.3478 C   0  0  0  0  0  0  0  0  0  0  0  0
    2.0977    3.4505   -0.8173 H   0  0  0  0  0  0  0  0  0  0  0  0
    1.2297    3.3959   -2.3579 H   0  0  0  0  0  0  0  0  0  0  0  0
    1.2292    5.2993   -1.4093 N   0  3  0  0  0  0  0  0  0  0  0  0
    1.2238    5.6939   -0.4770 H   0  0  0  0  0  0  0  0  0  0  0  0
    2.0587    5.6263   -1.8890 H   0  0  0  0  0  0  0  0  0  0  0  0
    0.4160    5.6424   -1.9072 H   0  0  0  0  0  0  0  0  0  0  0  0
   -0.5865    0.0771    2.2496 C   0  0  0  0  0  0  0  0  0  0  0  0
    0.5860   -0.1608    2.5143 O   0  0  0  0  0  0  0  0  0  0  0  0
   -1.4786    0.4656    3.1667 N   0  0  0  0  0  0  0  0  0  0  0  0
   -2.4139    0.6698    2.8558 H   0  0  0  0  0  0  0  0  0  0  0  0
   -1.1587    0.6908    4.5775 C   0  0  0  0  0  0  0  0  0  0  0  0
   -0.4270    1.4968    4.6656 H   0  0  0  0  0  0  0  0  0  0  0  0
   -2.0565    0.9649    5.1327 H   0  0  0  0  0  0  0  0  0  0  0  0
   -0.7281   -0.2137    5.0125 H   0  0  0  0  0  0  0  0  0  0  0  0
  5  6  2  0  0  0  0
  5  7  1  0  0  0  0
  2  3  1  0  0  0  0
  2  4  1  0  0  0  0
  2  5  1  0  0  0  0
  1  2  1  0  0  0  0
 27 28  2  0  0  0  0
 27 29  1  0  0  0  0
 23 24  1  0  0  0  0
 23 25  1  0  0  0  0
 23 26  1  0  0  0  0
 20 21  1  0  0  0  0
 20 22  1  0  0  0  0
 20 23  1  0  0  0  0
 17 18  1  0  0  0  0
 17 19  1  0  0  0  0
 17 20  1  0  0  0  0
 14 15  1  0  0  0  0
 14 16  1  0  0  0  0
 14 17  1  0  0  0  0
 11 12  1  0  0  0  0
 11 13  1  0  0  0  0
 11 14  1  0  0  0  0
  9 10  1  0  0  0  0
  9 11  1  0  0  0  0
  9 27  1  0  0  0  0
  7  8  1  0  0  0  0
  7  9  1  0  0  0  0
 31 32  1  0  0  0  0
 31 33  1  0  0  0  0
 31 34  1  0  0  0  0
 29 30  1  0  0  0  0
 29 31  1  0  0  0  0
M  CHG  1  23   1
M  END
$$$$
default_name
  -OEChem-02102213163D

 34 33  0     1  0  0  0  0  0999 V2000
   -3.8899   -3.6747    1.6490 H   0  0  0  0  0  0  0  0  0  0  0  0
   -3.9109   -2.6717    1.2250 C   0  0  0  0  0  0  0  0  0  0  0  0
   -4.6009   -2.0517    1.7950 H   0  0  0  0  0  0  0  0  0  0  0  0
   -4.2309   -2.7237    0.1860 H   0  0  0  0  0  0  0  0  0  0  0  0
   -2.5229   -2.0787    1.2980 C   0  0  0  0  0  0  0  0  0  0  0  0
   -1.5999   -2.7227    1.7810 O   0  0  0  0  0  0  0  0  0  0  0  0
   -2.3659   -0.8447    0.8120 N   0  0  0  0  0  0  0  0  0  0  0  0
   -3.1749   -0.3807    0.4220 H   0  0  0  0  0  0  0  0  0  0  0  0
   -1.0919   -0.1077    0.8170 C   0  0  1  0  0  0  0  0  0  0  0  0
   -0.3571   -0.6901    0.2581 H   0  0  0  0  0  0  0  0  0  0  0  0
   -1.3037    1.2411    0.1040 C   0  0  0  0  0  0  0  0  0  0  0  0
   -2.0869    1.1187   -0.6458 H   0  0  0  0  0  0  0  0  0  0  0  0
   -1.6418    1.9820    0.8311 H   0  0  0  0  0  0  0  0  0  0  0  0
   -0.0400    1.7610   -0.5982 C   0  0  0  0  0  0  0  0  0  0  0  0
    0.8311    1.2088   -0.2431 H   0  0  0  0  0  0  0  0  0  0  0  0
   -0.1408    1.6137   -1.6752 H   0  0  0  0  0  0  0  0  0  0  0  0
    0.1575    3.2549   -0.3061 C   0  0  0  0  0  0  0  0  0  0  0  0
   -0.7230    3.8033   -0.6493 H   0  0  0  0  0  0  0  0  0  0  0  0
    0.2670    3.3957    0.7711 H   0  0  0  0  0  0  0  0  0  0  0  0
    1.4050    3.7812   -1.0266 C   0  0  0  0  0  0  0  0  0  0  0  0
    2.2736    3.2148   -0.6753 H   0  0  0  0  0  0  0  0  0  0  0  0
    1.2930    3.5923   -2.0986 H   0  0  0  0  0  0  0  0  0  0  0  0
    1.6067    5.2314   -0.7803 N   0  3  0  0  0  0  0  0  0  0  0  0
    1.7215    5.4113    0.2093 H   0  0  0  0  0  0  0  0  0  0  0  0
    2.4329    5.5629   -1.2624 H   0  0  0  0  0  0  0  0  0  0  0  0
    0.8090    5.7612   -1.1118 H   0  0  0  0  0  0  0  0  0  0  0  0
   -0.5865    0.0771    2.2496 C   0  0  0  0  0  0  0  0  0  0  0  0
    0.5860   -0.1608    2.5143 O   0  0  0  0  0  0  0  0  0  0  0  0
   -1.4786    0.4656    3.1667 N   0  0  0  0  0  0  0  0  0  0  0  0
   -2.4139    0.6698    2.8558 H   0  0  0  0  0  0  0  0  0  0  0  0
   -1.1587    0.6908    4.5775 C   0  0  0  0  0  0  0  0  0  0  0  0
   -0.4270    1.4968    4.6656 H   0  0  0  0  0  0  0  0  0  0  0  0
   -2.0565    0.9649    5.1327 H   0  0  0  0  0  0  0  0  0  0  0  0
   -0.7281   -0.2137    5.0125 H   0  0  0  0  0  0  0  0  0  0  0  0
  5  6  2  0  0  0  0
  5  7  1  0  0  0  0
  2  3  1  0  0  0  0
  2  4  1  0  0  0  0
  2  5  1  0  0  0  0
  1  2  1  0  0  0  0
 27 28  2  0  0  0  0
 27 29  1  0  0  0  0
 23 24  1  0  0  0  0
 23 25  1  0  0  0  0
 23 26  1  0  0  0  0
 20 21  1  0  0  0  0
 20 22  1  0  0  0  0
 20 23  1  0  0  0  0
 17 18  1  0  0  0  0
 17 19  1  0  0  0  0
 17 20  1  0  0  0  0
 14 15  1  0  0  0  0
 14 16  1  0  0  0  0
 14 17  1  0  0  0  0
 11 12  1  0  0  0  0
 11 13  1  0  0  0  0
 11 14  1  0  0  0  0
  9 10  1  0  0  0  0
  9 11  1  0  0  0  0
  9 27  1  0  0  0  0
  7  8  1  0  0  0  0
  7  9  1  0  0  0  0
 31 32  1  0  0  0  0
 31 33  1  0  0  0  0
 31 34  1  0  0  0  0
 29 30  1  0  0  0  0
 29 31  1  0  0  0  0
M  CHG  1  23   1
M  END
$$$$
default_name
  -OEChem-02102213163D

 34 33  0     1  0  0  0  0  0999 V2000
   -3.8899   -3.6747    1.6490 H   0  0  0  0  0  0  0  0  0  0  0  0
   -3.9109   -2.6717    1.2250 C   0  0  0  0  0  0  0  0  0  0  0  0
   -4.6009   -2.0517    1.7950 H   0  0  0  0  0  0  0  0  0  0  0  0
   -4.2309   -2.7237    0.1860 H   0  0  0  0  0  0  0  0  0  0  0  0
   -2.5229   -2.0787    1.2980 C   0  0  0  0  0  0  0  0  0  0  0  0
   -1.5999   -2.7227    1.7810 O   0  0  0  0  0  0  0  0  0  0  0  0
   -2.3659   -0.8447    0.8120 N   0  0  0  0  0  0  0  0  0  0  0  0
   -3.1749   -0.3807    0.4220 H   0  0  0  0  0  0  0  0  0  0  0  0
   -1.0919   -0.1077    0.8170 C   0  0  1  0  0  0  0  0  0  0  0  0
   -0.3571   -0.6901    0.2581 H   0  0  0  0  0  0  0  0  0  0  0  0
   -1.3037    1.2411    0.1040 C   0  0  0  0  0  0  0  0  0  0  0  0
   -2.0869    1.1187   -0.6458 H   0  0  0  0  0  0  0  0  0  0  0  0
   -1.6418    1.9820    0.8311 H   0  0  0  0  0  0  0  0  0  0  0  0
   -0.0400    1.7610   -0.5982 C   0  0  0  0  0  0  0  0  0  0  0  0
    0.7775    1.0532   -0.4548 H   0  0  0  0  0  0  0  0  0  0  0  0
   -0.2391    1.8640   -1.6667 H   0  0  0  0  0  0  0  0  0  0  0  0
    0.3680    3.1247   -0.0236 C   0  0  0  0  0  0  0  0  0  0  0  0
   -0.4584    3.8272   -0.1553 H   0  0  0  0  0  0  0  0  0  0  0  0
    0.5749    3.0143    1.0427 H   0  0  0  0  0  0  0  0  0  0  0  0
    1.6152    3.6565   -0.7408 C   0  0  0  0  0  0  0  0  0  0  0  0
    2.4281    2.9360   -0.6037 H   0  0  0  0  0  0  0  0  0  0  0  0
    1.4001    3.7194   -1.8118 H   0  0  0  0  0  0  0  0  0  0  0  0
    2.0183    4.9873   -0.2202 N   0  3  0  0  0  0  0  0  0  0  0  0
    2.2289    4.9333    0.7686 H   0  0  0  0  0  0  0  0  0  0  0  0
    2.8417    5.3241   -0.7034 H   0  0  0  0  0  0  0  0  0  0  0  0
    1.2724    5.6602   -0.3527 H   0  0  0  0  0  0  0  0  0  0  0  0
   -0.5865    0.0771    2.2496 C   0  0  0  0  0  0  0  0  0  0  0  0
    0.5860   -0.1608    2.5143 O   0  0  0  0  0  0  0  0  0  0  0  0
   -1.4786    0.4656    3.1667 N   0  0  0  0  0  0  0  0  0  0  0  0
   -2.4139    0.6698    2.8558 H   0  0  0  0  0  0  0  0  0  0  0  0
   -1.1587    0.6908    4.5775 C   0  0  0  0  0  0  0  0  0  0  0  0
   -0.4270    1.4968    4.6656 H   0  0  0  0  0  0  0  0  0  0  0  0
   -2.0565    0.9649    5.1327 H   0  0  0  0  0  0  0  0  0  0  0  0
   -0.7281   -0.2137    5.0125 H   0  0  0  0  0  0  0  0  0  0  0  0
  5  6  2  0  0  0  0
  5  7  1  0  0  0  0
  2  3  1  0  0  0  0
  2  4  1  0  0  0  0
  2  5  1  0  0  0  0
  1  2  1  0  0  0  0
 27 28  2  0  0  0  0
 27 29  1  0  0  0  0
 23 24  1  0  0  0  0
 23 25  1  0  0  0  0
 23 26  1  0  0  0  0
 20 21  1  0  0  0  0
 20 22  1  0  0  0  0
 20 23  1  0  0  0  0
 17 18  1  0  0  0  0
 17 19  1  0  0  0  0
 17 20  1  0  0  0  0
 14 15  1  0  0  0  0
 14 16  1  0  0  0  0
 14 17  1  0  0  0  0
 11 12  1  0  0  0  0
 11 13  1  0  0  0  0
 11 14  1  0  0  0  0
  9 10  1  0  0  0  0
  9 11  1  0  0  0  0
  9 27  1  0  0  0  0
  7  8  1  0  0  0  0
  7  9  1  0  0  0  0
 31 32  1  0  0  0  0
 31 33  1  0  0  0  0
 31 34  1  0  0  0  0
 29 30  1  0  0  0  0
 29 31  1  0  0  0  0
M  CHG  1  23   1
M  END
$$$$
default_name
  -OEChem-02102213163D

 34 33  0     1  0  0  0  0  0999 V2000
   -3.8899   -3.6747    1.6490 H   0  0  0  0  0  0  0  0  0  0  0  0
   -3.9109   -2.6717    1.2250 C   0  0  0  0  0  0  0  0  0  0  0  0
   -4.6009   -2.0517    1.7950 H   0  0  0  0  0  0  0  0  0  0  0  0
   -4.2309   -2.7237    0.1860 H   0  0  0  0  0  0  0  0  0  0  0  0
   -2.5229   -2.0787    1.2980 C   0  0  0  0  0  0  0  0  0  0  0  0
   -1.5999   -2.7227    1.7810 O   0  0  0  0  0  0  0  0  0  0  0  0
   -2.3659   -0.8447    0.8120 N   0  0  0  0  0  0  0  0  0  0  0  0
   -3.1749   -0.3807    0.4220 H   0  0  0  0  0  0  0  0  0  0  0  0
   -1.0919   -0.1077    0.8170 C   0  0  1  0  0  0  0  0  0  0  0  0
   -0.3571   -0.6901    0.2581 H   0  0  0  0  0  0  0  0  0  0  0  0
   -1.3037    1.2411    0.1040 C   0  0  0  0  0  0  0  0  0  0  0  0
   -2.0869    1.1187   -0.6458 H   0  0  0  0  0  0  0  0  0  0  0  0
   -1.6418    1.9820    0.8311 H   0  0  0  0  0  0  0  0  0  0  0  0
   -0.0400    1.7610   -0.5982 C   0  0  0  0  0  0  0  0  0  0  0  0
    0.6888    0.9544   -0.6877 H   0  0  0  0  0  0  0  0  0  0  0  0
   -0.3037    2.1157   -1.5965 H   0  0  0  0  0  0  0  0  0  0  0  0
    0.5807    2.9138    0.2030 C   0  0  0  0  0  0  0  0  0  0  0  0
   -0.1566    3.7138    0.3037 H   0  0  0  0  0  0  0  0  0  0  0  0
    0.8510    2.5516    1.1969 H   0  0  0  0  0  0  0  0  0  0  0  0
    1.8285    3.4503   -0.5096 C   0  0  0  0  0  0  0  0  0  0  0  0
    2.5506    2.6332   -0.6074 H   0  0  0  0  0  0  0  0  0  0  0  0
    1.5437    3.7683   -1.5170 H   0  0  0  0  0  0  0  0  0  0  0  0
    2.4362    4.5835    0.2328 N   0  3  0  0  0  0  0  0  0  0  0  0
    2.7114    4.2926    1.1626 H   0  0  0  0  0  0  0  0  0  0  0  0
    3.2574    4.9260   -0.2502 H   0  0  0  0  0  0  0  0  0  0  0  0
    1.7745    5.3462    0.3184 H   0  0  0  0  0  0  0  0  0  0  0  0
   -0.5865    0.0771    2.2496 C   0  0  0  0  0  0  0  0  0  0  0  0
    0.5860   -0.1608    2.5143 O   0  0  0  0  0  0  0  0  0  0  0  0
   -1.4786    0.4656    3.1667 N   0  0  0  0  0  0  0  0  0  0  0  0
   -2.4139    0.6698    2.8558 H   0  0  0  0  0  0  0  0  0  0  0  0
   -1.1587    0.6908    4.5775 C   0  0  0  0  0  0  0  0  0  0  0  0
   -0.4270    1.4968    4.6656 H   0  0  0  0  0  0  0  0  0  0  0  0
   -2.0565    0.9649    5.1327 H   0  0  0  0  0  0  0  0  0  0  0  0
   -0.7281   -0.2137    5.0125 H   0  0  0  0  0  0  0  0  0  0  0  0
  5  6  2  0  0  0  0
  5  7  1  0  0  0  0
  2  3  1  0  0  0  0
  2  4  1  0  0  0  0
  2  5  1  0  0  0  0
  1  2  1  0  0  0  0
 27 28  2  0  0  0  0
 27 29  1  0  0  0  0
 23 24  1  0  0  0  0
 23 25  1  0  0  0  0
 23 26  1  0  0  0  0
 20 21  1  0  0  0  0
 20 22  1  0  0  0  0
 20 23  1  0  0  0  0
 17 18  1  0  0  0  0
 17 19  1  0  0  0  0
 17 20  1  0  0  0  0
 14 15  1  0  0  0  0
 14 16  1  0  0  0  0
 14 17  1  0  0  0  0
 11 12  1  0  0  0  0
 11 13  1  0  0  0  0
 11 14  1  0  0  0  0
  9 10  1  0  0  0  0
  9 11  1  0  0  0  0
  9 27  1  0  0  0  0
  7  8  1  0  0  0  0
  7  9  1  0  0  0  0
 31 32  1  0  0  0  0
 31 33  1  0  0  0  0
 31 34  1  0  0  0  0
 29 30  1  0  0  0  0
 29 31  1  0  0  0  0
M  CHG  1  23   1
M  END
$$$$
default_name
  -OEChem-02102213163D

 34 33  0     1  0  0  0  0  0999 V2000
   -3.8899   -3.6747    1.6490 H   0  0  0  0  0  0  0  0  0  0  0  0
   -3.9109   -2.6717    1.2250 C   0  0  0  0  0  0  0  0  0  0  0  0
   -4.6009   -2.0517    1.7950 H   0  0  0  0  0  0  0  0  0  0  0  0
   -4.2309   -2.7237    0.1860 H   0  0  0  0  0  0  0  0  0  0  0  0
   -2.5229   -2.0787    1.2980 C   0  0  0  0  0  0  0  0  0  0  0  0
   -1.5999   -2.7227    1.7810 O   0  0  0  0  0  0  0  0  0  0  0  0
   -2.3659   -0.8447    0.8120 N   0  0  0  0  0  0  0  0  0  0  0  0
   -3.1749   -0.3807    0.4220 H   0  0  0  0  0  0  0  0  0  0  0  0
   -1.0919   -0.1077    0.8170 C   0  0  1  0  0  0  0  0  0  0  0  0
   -0.3571   -0.6901    0.2581 H   0  0  0  0  0  0  0  0  0  0  0  0
   -1.3037    1.2411    0.1040 C   0  0  0  0  0  0  0  0  0  0  0  0
   -2.0869    1.1187   -0.6458 H   0  0  0  0  0  0  0  0  0  0  0  0
   -1.6418    1.9820    0.8311 H   0  0  0  0  0  0  0  0  0  0  0  0
   -0.0400    1.7610   -0.5982 C   0  0  0  0  0  0  0  0  0  0  0  0
    0.5710    0.9189   -0.9260 H   0  0  0  0  0  0  0  0  0  0  0  0
   -0.3301    2.3515   -1.4695 H   0  0  0  0  0  0  0  0  0  0  0  0
    0.7811    2.6367    0.3584 C   0  0  0  0  0  0  0  0  0  0  0  0
    0.1616    3.4708    0.6966 H   0  0  0  0  0  0  0  0  0  0  0  0
    1.0764    2.0392    1.2232 H   0  0  0  0  0  0  0  0  0  0  0  0
    2.0304    3.1767   -0.3488 C   0  0  0  0  0  0  0  0  0  0  0  0
    2.6328    2.3270   -0.6862 H   0  0  0  0  0  0  0  0  0  0  0  0
    1.7140    3.7359   -1.2345 H   0  0  0  0  0  0  0  0  0  0  0  0
    2.8317    4.0477    0.5478 N   0  3  0  0  0  0  0  0  0  0  0  0
    3.1363    3.5327    1.3644 H   0  0  0  0  0  0  0  0  0  0  0  0
    3.6515    4.3958    0.0665 H   0  0  0  0  0  0  0  0  0  0  0  0
    2.2811    4.8407    0.8559 H   0  0  0  0  0  0  0  0  0  0  0  0
   -0.5865    0.0771    2.2496 C   0  0  0  0  0  0  0  0  0  0  0  0
    0.5860   -0.1608    2.5143 O   0  0  0  0  0  0  0  0  0  0  0  0
   -1.4786    0.4656    3.1667 N   0  0  0  0  0  0  0  0  0  0  0  0
   -2.4139    0.6698    2.8558 H   0  0  0  0  0  0  0  0  0  0  0  0
   -1.1587    0.6908    4.5775 C   0  0  0  0  0  0  0  0  0  0  0  0
   -0.4270    1.4968    4.6656 H   0  0  0  0  0  0  0  0  0  0  0  0
   -2.0565    0.9649    5.1327 H   0  0  0  0  0  0  0  0  0  0  0  0
   -0.7281   -0.2137    5.0125 H   0  0  0  0  0  0  0  0  0  0  0  0
  5  6  2  0  0  0  0
  5  7  1  0  0  0  0
  2  3  1  0  0  0  0
  2  4  1  0  0  0  0
  2  5  1  0  0  0  0
  1  2  1  0  0  0  0
 27 28  2  0  0  0  0
 27 29  1  0  0  0  0
 23 24  1  0  0  0  0
 23 25  1  0  0  0  0
 23 26  1  0  0  0  0
 20 21  1  0  0  0  0
 20 22  1  0  0  0  0
 20 23  1  0  0  0  0
 17 18  1  0  0  0  0
 17 19  1  0  0  0  0
 17 20  1  0  0  0  0
 14 15  1  0  0  0  0
 14 16  1  0  0  0  0
 14 17  1  0  0  0  0
 11 12  1  0  0  0  0
 11 13  1  0  0  0  0
 11 14  1  0  0  0  0
  9 10  1  0  0  0  0
  9 11  1  0  0  0  0
  9 27  1  0  0  0  0
  7  8  1  0  0  0  0
  7  9  1  0  0  0  0
 31 32  1  0  0  0  0
 31 33  1  0  0  0  0
 31 34  1  0  0  0  0
 29 30  1  0  0  0  0
 29 31  1  0  0  0  0
M  CHG  1  23   1
M  END
$$$$
default_name
  -OEChem-02102213163D

 34 33  0     1  0  0  0  0  0999 V2000
   -3.8899   -3.6747    1.6490 H   0  0  0  0  0  0  0  0  0  0  0  0
   -3.9109   -2.6717    1.2250 C   0  0  0  0  0  0  0  0  0  0  0  0
   -4.6009   -2.0517    1.7950 H   0  0  0  0  0  0  0  0  0  0  0  0
   -4.2309   -2.7237    0.1860 H   0  0  0  0  0  0  0  0  0  0  0  0
   -2.5229   -2.0787    1.2980 C   0  0  0  0  0  0  0  0  0  0  0  0
   -1.5999   -2.7227    1.7810 O   0  0  0  0  0  0  0  0  0  0  0  0
   -2.3659   -0.8447    0.8120 N   0  0  0  0  0  0  0  0  0  0  0  0
   -3.1749   -0.3807    0.4220 H   0  0  0  0  0  0  0  0  0  0  0  0
   -1.0919   -0.1077    0.8170 C   0  0  1  0  0  0  0  0  0  0  0  0
   -0.3571   -0.6901    0.2581 H   0  0  0  0  0  0  0  0  0  0  0  0
   -1.3037    1.2411    0.1040 C   0  0  0  0  0  0  0  0  0  0  0  0
   -2.0869    1.1187   -0.6458 H   0  0  0  0  0  0  0  0  0  0  0  0
   -1.6418    1.9820    0.8311 H   0  0  0  0  0  0  0  0  0  0  0  0
   -0.0400    1.7610   -0.5982 C   0  0  0  0  0  0  0  0  0  0  0  0
    0.4322    0.9494   -1.1533 H   0  0  0  0  0  0  0  0  0  0  0  0
   -0.3166    2.5553   -1.2943 H   0  0  0  0  0  0  0  0  0  0  0  0
    0.9555    2.3122    0.4320 C   0  0  0  0  0  0  0  0  0  0  0  0
    0.4747    3.1148    0.9964 H   0  0  0  0  0  0  0  0  0  0  0  0
    1.2358    1.5120    1.1198 H   0  0  0  0  0  0  0  0  0  0  0  0
    2.2071    2.8544   -0.2695 C   0  0  0  0  0  0  0  0  0  0  0  0
    2.6691    2.0383   -0.8347 H   0  0  0  0  0  0  0  0  0  0  0  0
    1.8994    3.6243   -0.9835 H   0  0  0  0  0  0  0  0  0  0  0  0
    3.1779    3.4162    0.7033 N   0  3  0  0  0  0  0  0  0  0  0  0
    3.4744    2.7055    1.3605 H   0  0  0  0  0  0  0  0  0  0  0  0
    3.9971    3.7697    0.2249 H   0  0  0  0  0  0  0  0  0  0  0  0
    2.7578    4.1780    1.2230 H   0  0  0  0  0  0  0  0  0  0  0  0
   -0.5865    0.0771    2.2496 C   0  0  0  0  0  0  0  0  0  0  0  0
    0.5860   -0.1608    2.5143 O   0  0  0  0  0  0  0  0  0  0  0  0
   -1.4786    0.4656    3.1667 N   0  0  0  0  0  0  0  0  0  0  0  0
   -2.4139    0.6698    2.8558 H   0  0  0  0  0  0  0  0  0  0  0  0
   -1.1587    0.6908    4.5775 C   0  0  0  0  0  0  0  0  0  0  0  0
   -0.4270    1.4968    4.6656 H   0  0  0  0  0  0  0  0  0  0  0  0
   -2.0565    0.9649    5.1327 H   0  0  0  0  0  0  0  0  0  0  0  0
   -0.7281   -0.2137    5.0125 H   0  0  0  0  0  0  0  0  0  0  0  0
  5  6  2  0  0  0  0
  5  7  1  0  0  0  0
  2  3  1  0  0  0  0
  2  4  1  0  0  0  0
  2  5  1  0  0  0  0
  1  2  1  0  0  0  0
 27 28  2  0  0  0  0
 27 29  1  0  0  0  0
 23 24  1  0  0  0  0
 23 25  1  0  0  0  0
 23 26  1  0  0  0  0
 20 21  1  0  0  0  0
 20 22  1  0  0  0  0
 20 23  1  0  0  0  0
 17 18  1  0  0  0  0
 17 19  1  0  0  0  0
 17 20  1  0  0  0  0
 14 15  1  0  0  0  0
 14 16  1  0  0  0  0
 14 17  1  0  0  0  0
 11 12  1  0  0  0  0
 11 13  1  0  0  0  0
 11 14  1  0  0  0  0
  9 10  1  0  0  0  0
  9 11  1  0  0  0  0
  9 27  1  0  0  0  0
  7  8  1  0  0  0  0
  7  9  1  0  0  0  0
 31 32  1  0  0  0  0
 31 33  1  0  0  0  0
 31 34  1  0  0  0  0
 29 30  1  0  0  0  0
 29 31  1  0  0  0  0
M  CHG  1  23   1
M  END
$$$$
default_name
  -OEChem-02102213163D

 34 33  0     1  0  0  0  0  0999 V2000
   -3.8899   -3.6747    1.6490 H   0  0  0  0  0  0  0  0  0  0  0  0
   -3.9109   -2.6717    1.2250 C   0  0  0  0  0  0  0  0  0  0  0  0
   -4.6009   -2.0517    1.7950 H   0  0  0  0  0  0  0  0  0  0  0  0
   -4.2309   -2.7237    0.1860 H   0  0  0  0  0  0  0  0  0  0  0  0
   -2.5229   -2.0787    1.2980 C   0  0  0  0  0  0  0  0  0  0  0  0
   -1.5999   -2.7227    1.7810 O   0  0  0  0  0  0  0  0  0  0  0  0
   -2.3659   -0.8447    0.8120 N   0  0  0  0  0  0  0  0  0  0  0  0
   -3.1749   -0.3807    0.4220 H   0  0  0  0  0  0  0  0  0  0  0  0
   -1.0919   -0.1077    0.8170 C   0  0  1  0  0  0  0  0  0  0  0  0
   -0.3571   -0.6901    0.2581 H   0  0  0  0  0  0  0  0  0  0  0  0
   -1.3037    1.2411    0.1040 C   0  0  0  0  0  0  0  0  0  0  0  0
   -2.0869    1.1187   -0.6458 H   0  0  0  0  0  0  0  0  0  0  0  0
   -1.6418    1.9820    0.8311 H   0  0  0  0  0  0  0  0  0  0  0  0
   -0.0400    1.7610   -0.5982 C   0  0  0  0  0  0  0  0  0  0  0  0
    0.2817    1.0436   -1.3543 H   0  0  0  0  0  0  0  0  0  0  0  0
   -0.2641    2.7133   -1.0828 H   0  0  0  0  0  0  0  0  0  0  0  0
    1.0920    1.9625    0.4187 C   0  0  0  0  0  0  0  0  0  0  0  0
    0.7612    2.6701    1.1828 H   0  0  0  0  0  0  0  0  0  0  0  0
    1.3184    1.0059    0.8937 H   0  0  0  0  0  0  0  0  0  0  0  0
    2.3466    2.5052   -0.2770 C   0  0  0  0  0  0  0  0  0  0  0  0
    2.6570    1.7868   -1.0427 H   0  0  0  0  0  0  0  0  0  0  0  0
    2.0873    3.4411   -0.7810 H   0  0  0  0  0  0  0  0  0  0  0  0
    3.4513    2.7322    0.6888 N   0  3  0  0  0  0  0  0  0  0  0  0
    3.7028    1.8673    1.1509 H   0  0  0  0  0  0  0  0  0  0  0  0
    4.2709    3.0902    0.2144 H   0  0  0  0  0  0  0  0  0  0  0  0
    3.1720    3.4033    1.3948 H   0  0  0  0  0  0  0  0  0  0  0  0
   -0.5865    0.0771    2.2496 C   0  0  0  0  0  0  0  0  0  0  0  0
    0.5860   -0.1608    2.5143 O   0  0  0  0  0  0  0  0  0  0  0  0
   -1.4786    0.4656    3.1667 N   0  0  0  0  0  0  0  0  0  0  0  0
   -2.4139    0.6698    2.8558 H   0  0  0  0  0  0  0  0  0  0  0  0
   -1.1587    0.6908    4.5775 C   0  0  0  0  0  0  0  0  0  0  0  0
   -0.4270    1.4968    4.6656 H   0  0  0  0  0  0  0  0  0  0  0  0
   -2.0565    0.9649    5.1327 H   0  0  0  0  0  0  0  0  0  0  0  0
   -0.7281   -0.2137    5.0125 H   0  0  0  0  0  0  0  0  0  0  0  0
  5  6  2  0  0  0  0
  5  7  1  0  0  0  0
  2  3  1  0  0  0  0
  2  4  1  0  0  0  0
  2  5  1  0  0  0  0
  1  2  1  0  0  0  0
 27 28  2  0  0  0  0
 27 29  1  0  0  0  0
 23 24  1  0  0  0  0
 23 25  1  0  0  0  0
 23 26  1  0  0  0  0
 20 21  1  0  0  0  0
 20 22  1  0  0  0  0
 20 23  1  0  0  0  0
 17 18  1  0  0  0  0
 17 19  1  0  0  0  0
 17 20  1  0  0  0  0
 14 15  1  0  0  0  0
 14 16  1  0  0  0  0
 14 17  1  0  0  0  0
 11 12  1  0  0  0  0
 11 13  1  0  0  0  0
 11 14  1  0  0  0  0
  9 10  1  0  0  0  0
  9 11  1  0  0  0  0
  9 27  1  0  0  0  0
  7  8  1  0  0  0  0
  7  9  1  0  0  0  0
 31 32  1  0  0  0  0
 31 33  1  0  0  0  0
 31 34  1  0  0  0  0
 29 30  1  0  0  0  0
 29 31  1  0  0  0  0
M  CHG  1  23   1
M  END
$$$$
default_name
  -OEChem-02102213163D

 34 33  0     1  0  0  0  0  0999 V2000
   -3.8899   -3.6747    1.6490 H   0  0  0  0  0  0  0  0  0  0  0  0
   -3.9109   -2.6717    1.2250 C   0  0  0  0  0  0  0  0  0  0  0  0
   -4.6009   -2.0517    1.7950 H   0  0  0  0  0  0  0  0  0  0  0  0
   -4.2309   -2.7237    0.1860 H   0  0  0  0  0  0  0  0  0  0  0  0
   -2.5229   -2.0787    1.2980 C   0  0  0  0  0  0  0  0  0  0  0  0
   -1.5999   -2.7227    1.7810 O   0  0  0  0  0  0  0  0  0  0  0  0
   -2.3659   -0.8447    0.8120 N   0  0  0  0  0  0  0  0  0  0  0  0
   -3.1749   -0.3807    0.4220 H   0  0  0  0  0  0  0  0  0  0  0  0
   -1.0919   -0.1077    0.8170 C   0  0  1  0  0  0  0  0  0  0  0  0
   -0.3571   -0.6901    0.2581 H   0  0  0  0  0  0  0  0  0  0  0  0
   -1.3037    1.2411    0.1040 C   0  0  0  0  0  0  0  0  0  0  0  0
   -2.0869    1.1187   -0.6458 H   0  0  0  0  0  0  0  0  0  0  0  0
   -1.6418    1.9820    0.8311 H   0  0  0  0  0  0  0  0  0  0  0  0
   -0.0400    1.7610   -0.5982 C   0  0  0  0  0  0  0  0  0  0  0  0
    0.1300    1.1952   -1.5151 H   0  0  0  0  0  0  0  0  0  0  0  0
   -0.1762    2.8147   -0.8496 H   0  0  0  0  0  0  0  0  0  0  0  0
    1.1813    1.6114    0.3195 C   0  0  0  0  0  0  0  0  0  0  0  0
    1.0017    2.1669    1.2431 H   0  0  0  0  0  0  0  0  0  0  0  0
    1.3185    0.5554    0.5603 H   0  0  0  0  0  0  0  0  0  0  0  0
    2.4394    2.1530   -0.3708 C   0  0  0  0  0  0  0  0  0  0  0  0
    2.5973    1.5896   -1.2962 H   0  0  0  0  0  0  0  0  0  0  0  0
    2.2649    3.1989   -0.6408 H   0  0  0  0  0  0  0  0  0  0  0  0
    3.6331    2.0423    0.5052 N   0  3  0  0  0  0  0  0  0  0  0  0
    3.8060    1.0753    0.7500 H   0  0  0  0  0  0  0  0  0  0  0  0
    4.4540    2.4038    0.0357 H   0  0  0  0  0  0  0  0  0  0  0  0
    3.4955    2.5695    1.3596 H   0  0  0  0  0  0  0  0  0  0  0  0
   -0.5865    0.0771    2.2496 C   0  0  0  0  0  0  0  0  0  0  0  0
    0.5860   -0.1608    2.5143 O   0  0  0  0  0  0  0  0  0  0  0  0
   -1.4786    0.4656    3.1667 N   0  0  0  0  0  0  0  0  0  0  0  0
   -2.4139    0.6698    2.8558 H   0  0  0  0  0  0  0  0  0  0  0  0
   -1.1587    0.6908    4.5775 C   0  0  0  0  0  0  0  0  0  0  0  0
   -0.4270    1.4968    4.6656 H   0  0  0  0  0  0  0  0  0  0  0  0
   -2.0565    0.9649    5.1327 H   0  0  0  0  0  0  0  0  0  0  0  0
   -0.7281   -0.2137    5.0125 H   0  0  0  0  0  0  0  0  0  0  0  0
  5  6  2  0  0  0  0
  5  7  1  0  0  0  0
  2  3  1  0  0  0  0
  2  4  1  0  0  0  0
  2  5  1  0  0  0  0
  1  2  1  0  0  0  0
 27 28  2  0  0  0  0
 27 29  1  0  0  0  0
 23 24  1  0  0  0  0
 23 25  1  0  0  0  0
 23 26  1  0  0  0  0
 20 21  1  0  0  0  0
 20 22  1  0  0  0  0
 20 23  1  0  0  0  0
 17 18  1  0  0  0  0
 17 19  1  0  0  0  0
 17 20  1  0  0  0  0
 14 15  1  0  0  0  0
 14 16  1  0  0  0  0
 14 17  1  0  0  0  0
 11 12  1  0  0  0  0
 11 13  1  0  0  0  0
 11 14  1  0  0  0  0
  9 10  1  0  0  0  0
  9 11  1  0  0  0  0
  9 27  1  0  0  0  0
  7  8  1  0  0  0  0
  7  9  1  0  0  0  0
 31 32  1  0  0  0  0
 31 33  1  0  0  0  0
 31 34  1  0  0  0  0
 29 30  1  0  0  0  0
 29 31  1  0  0  0  0
M  CHG  1  23   1
M  END
$$$$
default_name
  -OEChem-02102213163D

 34 33  0     1  0  0  0  0  0999 V2000
   -3.8899   -3.6747    1.6490 H   0  0  0  0  0  0  0  0  0  0  0  0
   -3.9109   -2.6717    1.2250 C   0  0  0  0  0  0  0  0  0  0  0  0
   -4.6009   -2.0517    1.7950 H   0  0  0  0  0  0  0  0  0  0  0  0
   -4.2309   -2.7237    0.1860 H   0  0  0  0  0  0  0  0  0  0  0  0
   -2.5229   -2.0787    1.2980 C   0  0  0  0  0  0  0  0  0  0  0  0
   -1.5999   -2.7227    1.7810 O   0  0  0  0  0  0  0  0  0  0  0  0
   -2.3659   -0.8447    0.8120 N   0  0  0  0  0  0  0  0  0  0  0  0
   -3.1749   -0.3807    0.4220 H   0  0  0  0  0  0  0  0  0  0  0  0
   -1.0919   -0.1077    0.8170 C   0  0  1  0  0  0  0  0  0  0  0  0
   -0.3571   -0.6901    0.2581 H   0  0  0  0  0  0  0  0  0  0  0  0
   -1.3037    1.2411    0.1040 C   0  0  0  0  0  0  0  0  0  0  0  0
   -2.0869    1.1187   -0.6458 H   0  0  0  0  0  0  0  0  0  0  0  0
   -1.6418    1.9820    0.8311 H   0  0  0  0  0  0  0  0  0  0  0  0
   -0.0400    1.7610   -0.5982 C   0  0  0  0  0  0  0  0  0  0  0  0
   -0.0128    1.3938   -1.6250 H   0  0  0  0  0  0  0  0  0  0  0  0
   -0.0589    2.8525   -0.6103 H   0  0  0  0  0  0  0  0  0  0  0  0
    1.2173    1.2829    0.1410 C   0  0  0  0  0  0  0  0  0  0  0  0
    1.1798    1.6396    1.1731 H   0  0  0  0  0  0  0  0  0  0  0  0
    1.2362    0.1912    0.1423 H   0  0  0  0  0  0  0  0  0  0  0  0
    2.4792    1.8218   -0.5445 C   0  0  0  0  0  0  0  0  0  0  0  0
    2.4941    1.4601   -1.5777 H   0  0  0  0  0  0  0  0  0  0  0  0
    2.4200    2.9140   -0.5726 H   0  0  0  0  0  0  0  0  0  0  0  0
    3.7111    1.3934    0.1651 N   0  3  0  0  0  0  0  0  0  0  0  0
    3.7768    0.3834    0.1851 H   0  0  0  0  0  0  0  0  0  0  0  0
    4.5340    1.7572   -0.2992 H   0  0  0  0  0  0  0  0  0  0  0  0
    3.7062    1.7333    1.1197 H   0  0  0  0  0  0  0  0  0  0  0  0
   -0.5865    0.0771    2.2496 C   0  0  0  0  0  0  0  0  0  0  0  0
    0.5860   -0.1608    2.5143 O   0  0  0  0  0  0  0  0  0  0  0  0
   -1.4786    0.4656    3.1667 N   0  0  0  0  0  0  0  0  0  0  0  0
   -2.4139    0.6698    2.8558 H   0  0  0  0  0  0  0  0  0  0  0  0
   -1.1587    0.6908    4.5775 C   0  0  0  0  0  0  0  0  0  0  0  0
   -0.4270    1.4968    4.6656 H   0  0  0  0  0  0  0  0  0  0  0  0
   -2.0565    0.9649    5.1327 H   0  0  0  0  0  0  0  0  0  0  0  0
   -0.7281   -0.2137    5.0125 H   0  0  0  0  0  0  0  0  0  0  0  0
  5  6  2  0  0  0  0
  5  7  1  0  0  0  0
  2  3  1  0  0  0  0
  2  4  1  0  0  0  0
  2  5  1  0  0  0  0
  1  2  1  0  0  0  0
 27 28  2  0  0  0  0
 27 29  1  0  0  0  0
 23 24  1  0  0  0  0
 23 25  1  0  0  0  0
 23 26  1  0  0  0  0
 20 21  1  0  0  0  0
 20 22  1  0  0  0  0
 20 23  1  0  0  0  0
 17 18  1  0  0  0  0
 17 19  1  0  0  0  0
 17 20  1  0  0  0  0
 14 15  1  0  0  0  0
 14 16  1  0  0  0  0
 14 17  1  0  0  0  0
 11 12  1  0  0  0  0
 11 13  1  0  0  0  0
 11 14  1  0  0  0  0
  9 10  1  0  0  0  0
  9 11  1  0  0  0  0
  9 27  1  0  0  0  0
  7  8  1  0  0  0  0
  7  9  1  0  0  0  0
 31 32  1  0  0  0  0
 31 33  1  0  0  0  0
 31 34  1  0  0  0  0
 29 30  1  0  0  0  0
 29 31  1  0  0  0  0
M  CHG  1  23   1
M  END
$$$$
default_name
  -OEChem-02102213163D

 34 33  0     1  0  0  0  0  0999 V2000
   -3.8899   -3.6747    1.6490 H   0  0  0  0  0  0  0  0  0  0  0  0
   -3.9109   -2.6717    1.2250 C   0  0  0  0  0  0  0  0  0  0  0  0
   -4.6009   -2.0517    1.7950 H   0  0  0  0  0  0  0  0  0  0  0  0
   -4.2309   -2.7237    0.1860 H   0  0  0  0  0  0  0  0  0  0  0  0
   -2.5229   -2.0787    1.2980 C   0  0  0  0  0  0  0  0  0  0  0  0
   -1.5999   -2.7227    1.7810 O   0  0  0  0  0  0  0  0  0  0  0  0
   -2.3659   -0.8447    0.8120 N   0  0  0  0  0  0  0  0  0  0  0  0
   -3.1749   -0.3807    0.4220 H   0  0  0  0  0  0  0  0  0  0  0  0
   -1.0919   -0.1077    0.8170 C   0  0  1  0  0  0  0  0  0  0  0  0
   -0.3571   -0.6901    0.2581 H   0  0  0  0  0  0  0  0  0  0  0  0
   -1.3037    1.2411    0.1040 C   0  0  0  0  0  0  0  0  0  0  0  0
   -2.0869    1.1187   -0.6458 H   0  0  0  0  0  0  0  0  0  0  0  0
   -1.6418    1.9820    0.8311 H   0  0  0  0  0  0  0  0  0  0  0  0
   -0.0400    1.7610   -0.5982 C   0  0  0  0  0  0  0  0  0  0  0  0
   -0.1368    1.6259   -1.6763 H   0  0  0  0  0  0  0  0  0  0  0  0
    0.0799    2.8243   -0.3815 H   0  0  0  0  0  0  0  0  0  0  0  0
    1.1977    0.9992   -0.1044 C   0  0  0  0  0  0  0  0  0  0  0  0
    1.2833    1.1242    0.9777 H   0  0  0  0  0  0  0  0  0  0  0  0
    1.0769   -0.0618   -0.3317 H   0  0  0  0  0  0  0  0  0  0  0  0
    2.4632    1.5341   -0.7862 C   0  0  0  0  0  0  0  0  0  0  0  0
    2.3545    1.4071   -1.8683 H   0  0  0  0  0  0  0  0  0  0  0  0
    2.5422    2.6060   -0.5809 H   0  0  0  0  0  0  0  0  0  0  0  0
    3.6799    0.8299   -0.3085 N   0  3  0  0  0  0  0  0  0  0  0  0
    3.6173   -0.1612   -0.5052 H   0  0  0  0  0  0  0  0  0  0  0  0
    4.5054    1.1944   -0.7673 H   0  0  0  0  0  0  0  0  0  0  0  0
    3.7899    0.9518    0.6915 H   0  0  0  0  0  0  0  0  0  0  0  0
   -0.5865    0.0771    2.2496 C   0  0  0  0  0  0  0  0  0  0  0  0
    0.5860   -0.1608    2.5143 O   0  0  0  0  0  0  0  0  0  0  0  0
   -1.4786    0.4656    3.1667 N   0  0  0  0  0  0  0  0  0  0  0  0
   -2.4139    0.6698    2.8558 H   0  0  0  0  0  0  0  0  0  0  0  0
   -1.1587    0.6908    4.5775 C   0  0  0  0  0  0  0  0  0  0  0  0
   -0.4270    1.4968    4.6656 H   0  0  0  0  0  0  0  0  0  0  0  0
   -2.0565    0.9649    5.1327 H   0  0  0  0  0  0  0  0  0  0  0  0
   -0.7281   -0.2137    5.0125 H   0  0  0  0  0  0  0  0  0  0  0  0
  5  6  2  0  0  0  0
  5  7  1  0  0  0  0
  2  3  1  0  0  0  0
  2  4  1  0  0  0  0
  2  5  1  0  0  0  0
  1  2  1  0  0  0  0
 27 28  2  0  0  0  0
 27 29  1  0  0  0  0
 23 24  1  0  0  0  0
 23 25  1  0  0  0  0
 23 26  1  0  0  0  0
 20 21  1  0  0  0  0
 20 22  1  0  0  0  0
 20 23  1  0  0  0  0
 17 18  1  0  0  0  0
 17 19  1  0  0  0  0
 17 20  1  0  0  0  0
 14 15  1  0  0  0  0
 14 16  1  0  0  0  0
 14 17  1  0  0  0  0
 11 12  1  0  0  0  0
 11 13  1  0  0  0  0
 11 14  1  0  0  0  0
  9 10  1  0  0  0  0
  9 11  1  0  0  0  0
  9 27  1  0  0  0  0
  7  8  1  0  0  0  0
  7  9  1  0  0  0  0
 31 32  1  0  0  0  0
 31 33  1  0  0  0  0
 31 34  1  0  0  0  0
 29 30  1  0  0  0  0
 29 31  1  0  0  0  0
M  CHG  1  23   1
M  END
$$$$
default_name
  -OEChem-02102213163D

 34 33  0     1  0  0  0  0  0999 V2000
   -3.8899   -3.6747    1.6490 H   0  0  0  0  0  0  0  0  0  0  0  0
   -3.9109   -2.6717    1.2250 C   0  0  0  0  0  0  0  0  0  0  0  0
   -4.6009   -2.0517    1.7950 H   0  0  0  0  0  0  0  0  0  0  0  0
   -4.2309   -2.7237    0.1860 H   0  0  0  0  0  0  0  0  0  0  0  0
   -2.5229   -2.0787    1.2980 C   0  0  0  0  0  0  0  0  0  0  0  0
   -1.5999   -2.7227    1.7810 O   0  0  0  0  0  0  0  0  0  0  0  0
   -2.3659   -0.8447    0.8120 N   0  0  0  0  0  0  0  0  0  0  0  0
   -3.1749   -0.3807    0.4220 H   0  0  0  0  0  0  0  0  0  0  0  0
   -1.0919   -0.1077    0.8170 C   0  0  1  0  0  0  0  0  0  0  0  0
   -0.3571   -0.6901    0.2581 H   0  0  0  0  0  0  0  0  0  0  0  0
   -1.3037    1.2411    0.1040 C   0  0  0  0  0  0  0  0  0  0  0  0
   -2.0869    1.1187   -0.6458 H   0  0  0  0  0  0  0  0  0  0  0  0
   -1.6418    1.9820    0.8311 H   0  0  0  0  0  0  0  0  0  0  0  0
   -0.0400    1.7610   -0.5982 C   0  0  0  0  0  0  0  0  0  0  0  0
   -0.2336    1.8757   -1.6655 H   0  0  0  0  0  0  0  0  0  0  0  0
    0.2306    2.7319   -0.1786 H   0  0  0  0  0  0  0  0  0  0  0  0
    1.1236    0.7798   -0.4001 C   0  0  0  0  0  0  0  0  0  0  0  0
    1.3052    0.6556    0.6701 H   0  0  0  0  0  0  0  0  0  0  0  0
    0.8516   -0.1865   -0.8295 H   0  0  0  0  0  0  0  0  0  0  0  0
    2.3926    1.3096   -1.0796 C   0  0  0  0  0  0  0  0  0  0  0  0
    2.1879    1.4344   -2.1479 H   0  0  0  0  0  0  0  0  0  0  0  0
    2.6230    2.2957   -0.6652 H   0  0  0  0  0  0  0  0  0  0  0  0
    3.5416    0.3900   -0.8831 N   0  3  0  0  0  0  0  0  0  0  0  0
    3.3383   -0.5214   -1.2740 H   0  0  0  0  0  0  0  0  0  0  0  0
    4.3703    0.7538   -1.3368 H   0  0  0  0  0  0  0  0  0  0  0  0
    3.7407    0.2781    0.1042 H   0  0  0  0  0  0  0  0  0  0  0  0
   -0.5865    0.0771    2.2496 C   0  0  0  0  0  0  0  0  0  0  0  0
    0.5860   -0.1608    2.5143 O   0  0  0  0  0  0  0  0  0  0  0  0
   -1.4786    0.4656    3.1667 N   0  0  0  0  0  0  0  0  0  0  0  0
   -2.4139    0.6698    2.8558 H   0  0  0  0  0  0  0  0  0  0  0  0
   -1.1587    0.6908    4.5775 C   0  0  0  0  0  0  0  0  0  0  0  0
   -0.4270    1.4968    4.6656 H   0  0  0  0  0  0  0  0  0  0  0  0
   -2.0565    0.9649    5.1327 H   0  0  0  0  0  0  0  0  0  0  0  0
   -0.7281   -0.2137    5.0125 H   0  0  0  0  0  0  0  0  0  0  0  0
  5  6  2  0  0  0  0
  5  7  1  0  0  0  0
  2  3  1  0  0  0  0
  2  4  1  0  0  0  0
  2  5  1  0  0  0  0
  1  2  1  0  0  0  0
 27 28  2  0  0  0  0
 27 29  1  0  0  0  0
 23 24  1  0  0  0  0
 23 25  1  0  0  0  0
 23 26  1  0  0  0  0
 20 21  1  0  0  0  0
 20 22  1  0  0  0  0
 20 23  1  0  0  0  0
 17 18  1  0  0  0  0
 17 19  1  0  0  0  0
 17 20  1  0  0  0  0
 14 15  1  0  0  0  0
 14 16  1  0  0  0  0
 14 17  1  0  0  0  0
 11 12  1  0  0  0  0
 11 13  1  0  0  0  0
 11 14  1  0  0  0  0
  9 10  1  0  0  0  0
  9 11  1  0  0  0  0
  9 27  1  0  0  0  0
  7  8  1  0  0  0  0
  7  9  1  0  0  0  0
 31 32  1  0  0  0  0
 31 33  1  0  0  0  0
 31 34  1  0  0  0  0
 29 30  1  0  0  0  0
 29 31  1  0  0  0  0
M  CHG  1  23   1
M  END
$$$$
default_name
  -OEChem-02102213163D

 34 33  0     1  0  0  0  0  0999 V2000
   -3.8899   -3.6747    1.6490 H   0  0  0  0  0  0  0  0  0  0  0  0
   -3.9109   -2.6717    1.2250 C   0  0  0  0  0  0  0  0  0  0  0  0
   -4.6009   -2.0517    1.7950 H   0  0  0  0  0  0  0  0  0  0  0  0
   -4.2309   -2.7237    0.1860 H   0  0  0  0  0  0  0  0  0  0  0  0
   -2.5229   -2.0787    1.2980 C   0  0  0  0  0  0  0  0  0  0  0  0
   -1.5999   -2.7227    1.7810 O   0  0  0  0  0  0  0  0  0  0  0  0
   -2.3659   -0.8447    0.8120 N   0  0  0  0  0  0  0  0  0  0  0  0
   -3.1749   -0.3807    0.4220 H   0  0  0  0  0  0  0  0  0  0  0  0
   -1.0919   -0.1077    0.8170 C   0  0  1  0  0  0  0  0  0  0  0  0
   -0.3571   -0.6901    0.2581 H   0  0  0  0  0  0  0  0  0  0  0  0
   -1.3037    1.2411    0.1040 C   0  0  0  0  0  0  0  0  0  0  0  0
   -2.0869    1.1187   -0.6458 H   0  0  0  0  0  0  0  0  0  0  0  0
   -1.6418    1.9820    0.8311 H   0  0  0  0  0  0  0  0  0  0  0  0
   -0.0400    1.7610   -0.5982 C   0  0  0  0  0  0  0  0  0  0  0  0
   -0.2966    2.1262   -1.5935 H   0  0  0  0  0  0  0  0  0  0  0  0
    0.3831    2.5817   -0.0155 H   0  0  0  0  0  0  0  0  0  0  0  0
    1.0002    0.6396   -0.7260 C   0  0  0  0  0  0  0  0  0  0  0  0
    1.2440    0.2659    0.2713 H   0  0  0  0  0  0  0  0  0  0  0  0
    0.5756   -0.1743   -1.3171 H   0  0  0  0  0  0  0  0  0  0  0  0
    2.2721    1.1636   -1.4046 C   0  0  0  0  0  0  0  0  0  0  0  0
    2.0057    1.5399   -2.3977 H   0  0  0  0  0  0  0  0  0  0  0  0
    2.6569    2.0045   -0.8197 H   0  0  0  0  0  0  0  0  0  0  0  0
    3.3056    0.1039   -1.5197 N   0  3  0  0  0  0  0  0  0  0  0  0
    2.9589   -0.6727   -2.0689 H   0  0  0  0  0  0  0  0  0  0  0  0
    4.1378    0.4655   -1.9688 H   0  0  0  0  0  0  0  0  0  0  0  0
    3.5621   -0.2417   -0.6022 H   0  0  0  0  0  0  0  0  0  0  0  0
   -0.5865    0.0771    2.2496 C   0  0  0  0  0  0  0  0  0  0  0  0
    0.5860   -0.1608    2.5143 O   0  0  0  0  0  0  0  0  0  0  0  0
   -1.4786    0.4656    3.1667 N   0  0  0  0  0  0  0  0  0  0  0  0
   -2.4139    0.6698    2.8558 H   0  0  0  0  0  0  0  0  0  0  0  0
   -1.1587    0.6908    4.5775 C   0  0  0  0  0  0  0  0  0  0  0  0
   -0.4270    1.4968    4.6656 H   0  0  0  0  0  0  0  0  0  0  0  0
   -2.0565    0.9649    5.1327 H   0  0  0  0  0  0  0  0  0  0  0  0
   -0.7281   -0.2137    5.0125 H   0  0  0  0  0  0  0  0  0  0  0  0
  5  6  2  0  0  0  0
  5  7  1  0  0  0  0
  2  3  1  0  0  0  0
  2  4  1  0  0  0  0
  2  5  1  0  0  0  0
  1  2  1  0  0  0  0
 27 28  2  0  0  0  0
 27 29  1  0  0  0  0
 23 24  1  0  0  0  0
 23 25  1  0  0  0  0
 23 26  1  0  0  0  0
 20 21  1  0  0  0  0
 20 22  1  0  0  0  0
 20 23  1  0  0  0  0
 17 18  1  0  0  0  0
 17 19  1  0  0  0  0
 17 20  1  0  0  0  0
 14 15  1  0  0  0  0
 14 16  1  0  0  0  0
 14 17  1  0  0  0  0
 11 12  1  0  0  0  0
 11 13  1  0  0  0  0
 11 14  1  0  0  0  0
  9 10  1  0  0  0  0
  9 11  1  0  0  0  0
  9 27  1  0  0  0  0
  7  8  1  0  0  0  0
  7  9  1  0  0  0  0
 31 32  1  0  0  0  0
 31 33  1  0  0  0  0
 31 34  1  0  0  0  0
 29 30  1  0  0  0  0
 29 31  1  0  0  0  0
M  CHG  1  23   1
M  END
$$$$
default_name
  -OEChem-02102213163D

 34 33  0     1  0  0  0  0  0999 V2000
   -3.8899   -3.6747    1.6490 H   0  0  0  0  0  0  0  0  0  0  0  0
   -3.9109   -2.6717    1.2250 C   0  0  0  0  0  0  0  0  0  0  0  0
   -4.6009   -2.0517    1.7950 H   0  0  0  0  0  0  0  0  0  0  0  0
   -4.2309   -2.7237    0.1860 H   0  0  0  0  0  0  0  0  0  0  0  0
   -2.5229   -2.0787    1.2980 C   0  0  0  0  0  0  0  0  0  0  0  0
   -1.5999   -2.7227    1.7810 O   0  0  0  0  0  0  0  0  0  0  0  0
   -2.3659   -0.8447    0.8120 N   0  0  0  0  0  0  0  0  0  0  0  0
   -3.1749   -0.3807    0.4220 H   0  0  0  0  0  0  0  0  0  0  0  0
   -1.0919   -0.1077    0.8170 C   0  0  1  0  0  0  0  0  0  0  0  0
   -0.3571   -0.6901    0.2581 H   0  0  0  0  0  0  0  0  0  0  0  0
   -1.3037    1.2411    0.1040 C   0  0  0  0  0  0  0  0  0  0  0  0
   -2.0869    1.1187   -0.6458 H   0  0  0  0  0  0  0  0  0  0  0  0
   -1.6418    1.9820    0.8311 H   0  0  0  0  0  0  0  0  0  0  0  0
   -0.0400    1.7610   -0.5982 C   0  0  0  0  0  0  0  0  0  0  0  0
   -0.3216    2.3602   -1.4651 H   0  0  0  0  0  0  0  0  0  0  0  0
    0.5268    2.3838    0.0967 H   0  0  0  0  0  0  0  0  0  0  0  0
    0.8359    0.5882   -1.0599 C   0  0  0  0  0  0  0  0  0  0  0  0
    1.1038   -0.0184   -0.1914 H   0  0  0  0  0  0  0  0  0  0  0  0
    0.2678   -0.0260   -1.7614 H   0  0  0  0  0  0  0  0  0  0  0  0
    2.1099    1.1060   -1.7390 C   0  0  0  0  0  0  0  0  0  0  0  0
    1.8203    1.7166   -2.6005 H   0  0  0  0  0  0  0  0  0  0  0  0
    2.6417    1.7520   -1.0340 H   0  0  0  0  0  0  0  0  0  0  0  0
    2.9881   -0.0091   -2.1748 N   0  3  0  0  0  0  0  0  0  0  0  0
    2.5049   -0.6047   -2.8356 H   0  0  0  0  0  0  0  0  0  0  0  0
    3.8237    0.3490   -2.6203 H   0  0  0  0  0  0  0  0  0  0  0  0
    3.2662   -0.5723   -1.3796 H   0  0  0  0  0  0  0  0  0  0  0  0
   -0.5865    0.0771    2.2496 C   0  0  0  0  0  0  0  0  0  0  0  0
    0.5860   -0.1608    2.5143 O   0  0  0  0  0  0  0  0  0  0  0  0
   -1.4786    0.4656    3.1667 N   0  0  0  0  0  0  0  0  0  0  0  0
   -2.4139    0.6698    2.8558 H   0  0  0  0  0  0  0  0  0  0  0  0
   -1.1587    0.6908    4.5775 C   0  0  0  0  0  0  0  0  0  0  0  0
   -0.4270    1.4968    4.6656 H   0  0  0  0  0  0  0  0  0  0  0  0
   -2.0565    0.9649    5.1327 H   0  0  0  0  0  0  0  0  0  0  0  0
   -0.7281   -0.2137    5.0125 H   0  0  0  0  0  0  0  0  0  0  0  0
  5  6  2  0  0  0  0
  5  7  1  0  0  0  0
  2  3  1  0  0  0  0
  2  4  1  0  0  0  0
  2  5  1  0  0  0  0
  1  2  1  0  0  0  0
 27 28  2  0  0  0  0
 27 29  1  0  0  0  0
 23 24  1  0  0  0  0
 23 25  1  0  0  0  0
 23 26  1  0  0  0  0
 20 21  1  0  0  0  0
 20 22  1  0  0  0  0
 20 23  1  0  0  0  0
 17 18  1  0  0  0  0
 17 19  1  0  0  0  0
 17 20  1  0  0  0  0
 14 15  1  0  0  0  0
 14 16  1  0  0  0  0
 14 17  1  0  0  0  0
 11 12  1  0  0  0  0
 11 13  1  0  0  0  0
 11 14  1  0  0  0  0
  9 10  1  0  0  0  0
  9 11  1  0  0  0  0
  9 27  1  0  0  0  0
  7  8  1  0  0  0  0
  7  9  1  0  0  0  0
 31 32  1  0  0  0  0
 31 33  1  0  0  0  0
 31 34  1  0  0  0  0
 29 30  1  0  0  0  0
 29 31  1  0  0  0  0
M  CHG  1  23   1
M  END
$$$$
default_name
  -OEChem-02102213163D

 34 33  0     1  0  0  0  0  0999 V2000
   -3.8899   -3.6747    1.6490 H   0  0  0  0  0  0  0  0  0  0  0  0
   -3.9109   -2.6717    1.2250 C   0  0  0  0  0  0  0  0  0  0  0  0
   -4.6009   -2.0517    1.7950 H   0  0  0  0  0  0  0  0  0  0  0  0
   -4.2309   -2.7237    0.1860 H   0  0  0  0  0  0  0  0  0  0  0  0
   -2.5229   -2.0787    1.2980 C   0  0  0  0  0  0  0  0  0  0  0  0
   -1.5999   -2.7227    1.7810 O   0  0  0  0  0  0  0  0  0  0  0  0
   -2.3659   -0.8447    0.8120 N   0  0  0  0  0  0  0  0  0  0  0  0
   -3.1749   -0.3807    0.4220 H   0  0  0  0  0  0  0  0  0  0  0  0
   -1.0919   -0.1077    0.8170 C   0  0  1  0  0  0  0  0  0  0  0  0
   -0.3571   -0.6901    0.2581 H   0  0  0  0  0  0  0  0  0  0  0  0
   -1.3037    1.2411    0.1040 C   0  0  0  0  0  0  0  0  0  0  0  0
   -2.0869    1.1187   -0.6458 H   0  0  0  0  0  0  0  0  0  0  0  0
   -1.6418    1.9820    0.8311 H   0  0  0  0  0  0  0  0  0  0  0  0
   -0.0400    1.7610   -0.5982 C   0  0  0  0  0  0  0  0  0  0  0  0
   -0.3068    2.5619   -1.2891 H   0  0  0  0  0  0  0  0  0  0  0  0
    0.6521    2.1517    0.1503 H   0  0  0  0  0  0  0  0  0  0  0  0
    0.6419    0.6290   -1.3789 C   0  0  0  0  0  0  0  0  0  0  0  0
    0.8943   -0.1779   -0.6867 H   0  0  0  0  0  0  0  0  0  0  0  0
   -0.0509    0.2482   -2.1319 H   0  0  0  0  0  0  0  0  0  0  0  0
    1.9172    1.1407   -2.0601 C   0  0  0  0  0  0  0  0  0  0  0  0
    1.6444    1.9523   -2.7425 H   0  0  0  0  0  0  0  0  0  0  0  0
    2.5784    1.5556   -1.2934 H   0  0  0  0  0  0  0  0  0  0  0  0
    2.6106    0.0588   -2.8038 N   0  3  0  0  0  0  0  0  0  0  0  0
    2.0073   -0.3221   -3.5220 H   0  0  0  0  0  0  0  0  0  0  0  0
    3.4495    0.4124   -3.2469 H   0  0  0  0  0  0  0  0  0  0  0  0
    2.8732   -0.6912   -2.1750 H   0  0  0  0  0  0  0  0  0  0  0  0
   -0.5865    0.0771    2.2496 C   0  0  0  0  0  0  0  0  0  0  0  0
    0.5860   -0.1608    2.5143 O   0  0  0  0  0  0  0  0  0  0  0  0
   -1.4786    0.4656    3.1667 N   0  0  0  0  0  0  0  0  0  0  0  0
   -2.4139    0.6698    2.8558 H   0  0  0  0  0  0  0  0  0  0  0  0
   -1.1587    0.6908    4.5775 C   0  0  0  0  0  0  0  0  0  0  0  0
   -0.4270    1.4968    4.6656 H   0  0  0  0  0  0  0  0  0  0  0  0
   -2.0565    0.9649    5.1327 H   0  0  0  0  0  0  0  0  0  0  0  0
   -0.7281   -0.2137    5.0125 H   0  0  0  0  0  0  0  0  0  0  0  0
  5  6  2  0  0  0  0
  5  7  1  0  0  0  0
  2  3  1  0  0  0  0
  2  4  1  0  0  0  0
  2  5  1  0  0  0  0
  1  2  1  0  0  0  0
 27 28  2  0  0  0  0
 27 29  1  0  0  0  0
 23 24  1  0  0  0  0
 23 25  1  0  0  0  0
 23 26  1  0  0  0  0
 20 21  1  0  0  0  0
 20 22  1  0  0  0  0
 20 23  1  0  0  0  0
 17 18  1  0  0  0  0
 17 19  1  0  0  0  0
 17 20  1  0  0  0  0
 14 15  1  0  0  0  0
 14 16  1  0  0  0  0
 14 17  1  0  0  0  0
 11 12  1  0  0  0  0
 11 13  1  0  0  0  0
 11 14  1  0  0  0  0
  9 10  1  0  0  0  0
  9 11  1  0  0  0  0
  9 27  1  0  0  0  0
  7  8  1  0  0  0  0
  7  9  1  0  0  0  0
 31 32  1  0  0  0  0
 31 33  1  0  0  0  0
 31 34  1  0  0  0  0
 29 30  1  0  0  0  0
 29 31  1  0  0  0  0
M  CHG  1  23   1
M  END
$$$$
default_name
  -OEChem-02102213163D

 34 33  0     1  0  0  0  0  0999 V2000
   -3.8899   -3.6747    1.6490 H   0  0  0  0  0  0  0  0  0  0  0  0
   -3.9109   -2.6717    1.2250 C   0  0  0  0  0  0  0  0  0  0  0  0
   -4.6009   -2.0517    1.7950 H   0  0  0  0  0  0  0  0  0  0  0  0
   -4.2309   -2.7237    0.1860 H   0  0  0  0  0  0  0  0  0  0  0  0
   -2.5229   -2.0787    1.2980 C   0  0  0  0  0  0  0  0  0  0  0  0
   -1.5999   -2.7227    1.7810 O   0  0  0  0  0  0  0  0  0  0  0  0
   -2.3659   -0.8447    0.8120 N   0  0  0  0  0  0  0  0  0  0  0  0
   -3.1749   -0.3807    0.4220 H   0  0  0  0  0  0  0  0  0  0  0  0
   -1.0919   -0.1077    0.8170 C   0  0  1  0  0  0  0  0  0  0  0  0
   -0.3571   -0.6901    0.2581 H   0  0  0  0  0  0  0  0  0  0  0  0
   -1.3037    1.2411    0.1040 C   0  0  0  0  0  0  0  0  0  0  0  0
   -2.0869    1.1187   -0.6458 H   0  0  0  0  0  0  0  0  0  0  0  0
   -1.6418    1.9820    0.8311 H   0  0  0  0  0  0  0  0  0  0  0  0
   -0.0400    1.7610   -0.5982 C   0  0  0  0  0  0  0  0  0  0  0  0
   -0.2532    2.7175   -1.0774 H   0  0  0  0  0  0  0  0  0  0  0  0
    0.7504    1.9013    0.1418 H   0  0  0  0  0  0  0  0  0  0  0  0
    0.4313    0.7592   -1.6613 C   0  0  0  0  0  0  0  0  0  0  0  0
    0.6296   -0.2017   -1.1807 H   0  0  0  0  0  0  0  0  0  0  0  0
   -0.3588    0.6296   -2.4036 H   0  0  0  0  0  0  0  0  0  0  0  0
    1.7071    1.2654   -2.3460 C   0  0  0  0  0  0  0  0  0  0  0  0
    1.4899    2.2311   -2.8141 H   0  0  0  0  0  0  0  0  0  0  0  0
    2.4713    1.4286   -1.5802 H   0  0  0  0  0  0  0  0  0  0  0  0
    2.1990    0.3029   -3.3639 N   0  3  0  0  0  0  0  0  0  0  0  0
    1.4999    0.1559   -4.0812 H   0  0  0  0  0  0  0  0  0  0  0  0
    3.0406    0.6513   -3.8058 H   0  0  0  0  0  0  0  0  0  0  0  0
    2.4098   -0.5902   -2.9341 H   0  0  0  0  0  0  0  0  0  0  0  0
   -0.5865    0.0771    2.2496 C   0  0  0  0  0  0  0  0  0  0  0  0
    0.5860   -0.1608    2.5143 O   0  0  0  0  0  0  0  0  0  0  0  0
   -1.4786    0.4656    3.1667 N   0  0  0  0  0  0  0  0  0  0  0  0
   -2.4139    0.6698    2.8558 H   0  0  0  0  0  0  0  0  0  0  0  0
   -1.1587    0.6908    4.5775 C   0  0  0  0  0  0  0  0  0  0  0  0
   -0.4270    1.4968    4.6656 H   0  0  0  0  0  0  0  0  0  0  0  0
   -2.0565    0.9649    5.1327 H   0  0  0  0  0  0  0  0  0  0  0  0
   -0.7281   -0.2137    5.0125 H   0  0  0  0  0  0  0  0  0  0  0  0
  5  6  2  0  0  0  0
  5  7  1  0  0  0  0
  2  3  1  0  0  0  0
  2  4  1  0  0  0  0
  2  5  1  0  0  0  0
  1  2  1  0  0  0  0
 27 28  2  0  0  0  0
 27 29  1  0  0  0  0
 23 24  1  0  0  0  0
 23 25  1  0  0  0  0
 23 26  1  0  0  0  0
 20 21  1  0  0  0  0
 20 22  1  0  0  0  0
 20 23  1  0  0  0  0
 17 18  1  0  0  0  0
 17 19  1  0  0  0  0
 17 20  1  0  0  0  0
 14 15  1  0  0  0  0
 14 16  1  0  0  0  0
 14 17  1  0  0  0  0
 11 12  1  0  0  0  0
 11 13  1  0  0  0  0
 11 14  1  0  0  0  0
  9 10  1  0  0  0  0
  9 11  1  0  0  0  0
  9 27  1  0  0  0  0
  7  8  1  0  0  0  0
  7  9  1  0  0  0  0
 31 32  1  0  0  0  0
 31 33  1  0  0  0  0
 31 34  1  0  0  0  0
 29 30  1  0  0  0  0
 29 31  1  0  0  0  0
M  CHG  1  23   1
M  END
$$$$
default_name
  -OEChem-02102213163D

 34 33  0     1  0  0  0  0  0999 V2000
   -3.8899   -3.6747    1.6490 H   0  0  0  0  0  0  0  0  0  0  0  0
   -3.9109   -2.6717    1.2250 C   0  0  0  0  0  0  0  0  0  0  0  0
   -4.6009   -2.0517    1.7950 H   0  0  0  0  0  0  0  0  0  0  0  0
   -4.2309   -2.7237    0.1860 H   0  0  0  0  0  0  0  0  0  0  0  0
   -2.5229   -2.0787    1.2980 C   0  0  0  0  0  0  0  0  0  0  0  0
   -1.5999   -2.7227    1.7810 O   0  0  0  0  0  0  0  0  0  0  0  0
   -2.3659   -0.8447    0.8120 N   0  0  0  0  0  0  0  0  0  0  0  0
   -3.1749   -0.3807    0.4220 H   0  0  0  0  0  0  0  0  0  0  0  0
   -1.0919   -0.1077    0.8170 C   0  0  1  0  0  0  0  0  0  0  0  0
   -0.3571   -0.6901    0.2581 H   0  0  0  0  0  0  0  0  0  0  0  0
   -1.3037    1.2411    0.1040 C   0  0  0  0  0  0  0  0  0  0  0  0
   -2.0869    1.1187   -0.6458 H   0  0  0  0  0  0  0  0  0  0  0  0
   -1.6418    1.9820    0.8311 H   0  0  0  0  0  0  0  0  0  0  0  0
   -0.0400    1.7610   -0.5982 C   0  0  0  0  0  0  0  0  0  0  0  0
   -0.1644    2.8164   -0.8445 H   0  0  0  0  0  0  0  0  0  0  0  0
    0.8149    1.6497    0.0716 H   0  0  0  0  0  0  0  0  0  0  0  0
    0.2186    0.9701   -1.8880 C   0  0  0  0  0  0  0  0  0  0  0  0
    0.3279   -0.0883   -1.6397 H   0  0  0  0  0  0  0  0  0  0  0  0
   -0.6349    1.0923   -2.5578 H   0  0  0  0  0  0  0  0  0  0  0  0
    1.4938    1.4716   -2.5772 C   0  0  0  0  0  0  0  0  0  0  0  0
    1.3674    2.5339   -2.8104 H   0  0  0  0  0  0  0  0  0  0  0  0
    2.3277    1.3796   -1.8749 H   0  0  0  0  0  0  0  0  0  0  0  0
    1.7811    0.7067   -3.8169 N   0  3  0  0  0  0  0  0  0  0  0  0
    1.0173    0.7966   -4.4752 H   0  0  0  0  0  0  0  0  0  0  0  0
    2.6250    1.0493   -4.2591 H   0  0  0  0  0  0  0  0  0  0  0  0
    1.9077   -0.2762   -3.6052 H   0  0  0  0  0  0  0  0  0  0  0  0
   -0.5865    0.0771    2.2496 C   0  0  0  0  0  0  0  0  0  0  0  0
    0.5860   -0.1608    2.5143 O   0  0  0  0  0  0  0  0  0  0  0  0
   -1.4786    0.4656    3.1667 N   0  0  0  0  0  0  0  0  0  0  0  0
   -2.4139    0.6698    2.8558 H   0  0  0  0  0  0  0  0  0  0  0  0
   -1.1587    0.6908    4.5775 C   0  0  0  0  0  0  0  0  0  0  0  0
   -0.4270    1.4968    4.6656 H   0  0  0  0  0  0  0  0  0  0  0  0
   -2.0565    0.9649    5.1327 H   0  0  0  0  0  0  0  0  0  0  0  0
   -0.7281   -0.2137    5.0125 H   0  0  0  0  0  0  0  0  0  0  0  0
  5  6  2  0  0  0  0
  5  7  1  0  0  0  0
  2  3  1  0  0  0  0
  2  4  1  0  0  0  0
  2  5  1  0  0  0  0
  1  2  1  0  0  0  0
 27 28  2  0  0  0  0
 27 29  1  0  0  0  0
 23 24  1  0  0  0  0
 23 25  1  0  0  0  0
 23 26  1  0  0  0  0
 20 21  1  0  0  0  0
 20 22  1  0  0  0  0
 20 23  1  0  0  0  0
 17 18  1  0  0  0  0
 17 19  1  0  0  0  0
 17 20  1  0  0  0  0
 14 15  1  0  0  0  0
 14 16  1  0  0  0  0
 14 17  1  0  0  0  0
 11 12  1  0  0  0  0
 11 13  1  0  0  0  0
 11 14  1  0  0  0  0
  9 10  1  0  0  0  0
  9 11  1  0  0  0  0
  9 27  1  0  0  0  0
  7  8  1  0  0  0  0
  7  9  1  0  0  0  0
 31 32  1  0  0  0  0
 31 33  1  0  0  0  0
 31 34  1  0  0  0  0
 29 30  1  0  0  0  0
 29 31  1  0  0  0  0
M  CHG  1  23   1
M  END
$$$$
default_name
  -OEChem-02102213163D

 34 33  0     1  0  0  0  0  0999 V2000
   -3.8899   -3.6747    1.6490 H   0  0  0  0  0  0  0  0  0  0  0  0
   -3.9109   -2.6717    1.2250 C   0  0  0  0  0  0  0  0  0  0  0  0
   -4.6009   -2.0517    1.7950 H   0  0  0  0  0  0  0  0  0  0  0  0
   -4.2309   -2.7237    0.1860 H   0  0  0  0  0  0  0  0  0  0  0  0
   -2.5229   -2.0787    1.2980 C   0  0  0  0  0  0  0  0  0  0  0  0
   -1.5999   -2.7227    1.7810 O   0  0  0  0  0  0  0  0  0  0  0  0
   -2.3659   -0.8447    0.8120 N   0  0  0  0  0  0  0  0  0  0  0  0
   -3.1749   -0.3807    0.4220 H   0  0  0  0  0  0  0  0  0  0  0  0
   -1.0919   -0.1077    0.8170 C   0  0  1  0  0  0  0  0  0  0  0  0
   -0.3571   -0.6901    0.2581 H   0  0  0  0  0  0  0  0  0  0  0  0
   -1.3037    1.2411    0.1040 C   0  0  0  0  0  0  0  0  0  0  0  0
   -2.0869    1.1187   -0.6458 H   0  0  0  0  0  0  0  0  0  0  0  0
   -1.6418    1.9820    0.8311 H   0  0  0  0  0  0  0  0  0  0  0  0
   -0.0400    1.7610   -0.5982 C   0  0  0  0  0  0  0  0  0  0  0  0
   -0.0466    2.8518   -0.6062 H   0  0  0  0  0  0  0  0  0  0  0  0
    0.8414    1.4139   -0.0554 H   0  0  0  0  0  0  0  0  0  0  0  0
    0.0183    1.2472   -2.0434 C   0  0  0  0  0  0  0  0  0  0  0  0
    0.0096    0.1547   -2.0325 H   0  0  0  0  0  0  0  0  0  0  0  0
   -0.8603    1.6047   -2.5841 H   0  0  0  0  0  0  0  0  0  0  0  0
    1.2919    1.7452   -2.7380 C   0  0  0  0  0  0  0  0  0  0  0  0
    1.2852    2.8400   -2.7316 H   0  0  0  0  0  0  0  0  0  0  0  0
    2.1574    1.4120   -2.1574 H   0  0  0  0  0  0  0  0  0  0  0  0
    1.3856    1.2426   -4.1319 N   0  3  0  0  0  0  0  0  0  0  0  0
    0.5925    1.5565   -4.6771 H   0  0  0  0  0  0  0  0  0  0  0  0
    2.2309    1.5795   -4.5757 H   0  0  0  0  0  0  0  0  0  0  0  0
    1.4011    0.2294   -4.1427 H   0  0  0  0  0  0  0  0  0  0  0  0
   -0.5865    0.0771    2.2496 C   0  0  0  0  0  0  0  0  0  0  0  0
    0.5860   -0.1608    2.5143 O   0  0  0  0  0  0  0  0  0  0  0  0
   -1.4786    0.4656    3.1667 N   0  0  0  0  0  0  0  0  0  0  0  0
   -2.4139    0.6698    2.8558 H   0  0  0  0  0  0  0  0  0  0  0  0
   -1.1587    0.6908    4.5775 C   0  0  0  0  0  0  0  0  0  0  0  0
   -0.4270    1.4968    4.6656 H   0  0  0  0  0  0  0  0  0  0  0  0
   -2.0565    0.9649    5.1327 H   0  0  0  0  0  0  0  0  0  0  0  0
   -0.7281   -0.2137    5.0125 H   0  0  0  0  0  0  0  0  0  0  0  0
  5  6  2  0  0  0  0
  5  7  1  0  0  0  0
  2  3  1  0  0  0  0
  2  4  1  0  0  0  0
  2  5  1  0  0  0  0
  1  2  1  0  0  0  0
 27 28  2  0  0  0  0
 27 29  1  0  0  0  0
 23 24  1  0  0  0  0
 23 25  1  0  0  0  0
 23 26  1  0  0  0  0
 20 21  1  0  0  0  0
 20 22  1  0  0  0  0
 20 23  1  0  0  0  0
 17 18  1  0  0  0  0
 17 19  1  0  0  0  0
 17 20  1  0  0  0  0
 14 15  1  0  0  0  0
 14 16  1  0  0  0  0
 14 17  1  0  0  0  0
 11 12  1  0  0  0  0
 11 13  1  0  0  0  0
 11 14  1  0  0  0  0
  9 10  1  0  0  0  0
  9 11  1  0  0  0  0
  9 27  1  0  0  0  0
  7  8  1  0  0  0  0
  7  9  1  0  0  0  0
 31 32  1  0  0  0  0
 31 33  1  0  0  0  0
 31 34  1  0  0  0  0
 29 30  1  0  0  0  0
 29 31  1  0  0  0  0
M  CHG  1  23   1
M  END
$$$$
default_name
  -OEChem-02102213163D

 34 33  0     1  0  0  0  0  0999 V2000
   -3.8899   -3.6747    1.6490 H   0  0  0  0  0  0  0  0  0  0  0  0
   -3.9109   -2.6717    1.2250 C   0  0  0  0  0  0  0  0  0  0  0  0
   -4.6009   -2.0517    1.7950 H   0  0  0  0  0  0  0  0  0  0  0  0
   -4.2309   -2.7237    0.1860 H   0  0  0  0  0  0  0  0  0  0  0  0
   -2.5229   -2.0787    1.2980 C   0  0  0  0  0  0  0  0  0  0  0  0
   -1.5999   -2.7227    1.7810 O   0  0  0  0  0  0  0  0  0  0  0  0
   -2.3659   -0.8447    0.8120 N   0  0  0  0  0  0  0  0  0  0  0  0
   -3.1749   -0.3807    0.4220 H   0  0  0  0  0  0  0  0  0  0  0  0
   -1.0919   -0.1077    0.8170 C   0  0  1  0  0  0  0  0  0  0  0  0
   -0.3571   -0.6901    0.2581 H   0  0  0  0  0  0  0  0  0  0  0  0
   -1.3037    1.2411    0.1040 C   0  0  0  0  0  0  0  0  0  0  0  0
   -2.0869    1.1187   -0.6458 H   0  0  0  0  0  0  0  0  0  0  0  0
   -1.6418    1.9820    0.8311 H   0  0  0  0  0  0  0  0  0  0  0  0
   -0.0400    1.7610   -0.5982 C   0  0  0  0  0  0  0  0  0  0  0  0
    0.0922    2.8214   -0.3789 H   0  0  0  0  0  0  0  0  0  0  0  0
    0.8279    1.2101   -0.2306 H   0  0  0  0  0  0  0  0  0  0  0  0
   -0.1561    1.5717   -2.1170 C   0  0  0  0  0  0  0  0  0  0  0  0
   -0.3034    0.5107   -2.3324 H   0  0  0  0  0  0  0  0  0  0  0  0
   -1.0198    2.1319   -2.4807 H   0  0  0  0  0  0  0  0  0  0  0  0
    1.1152    2.0676   -2.8173 C   0  0  0  0  0  0  0  0  0  0  0  0
    1.2489    3.1287   -2.5832 H   0  0  0  0  0  0  0  0  0  0  0  0
    1.9720    1.5236   -2.4085 H   0  0  0  0  0  0  0  0  0  0  0  0
    1.0394    1.8740   -4.2874 N   0  3  0  0  0  0  0  0  0  0  0  0
    0.2544    2.3837   -4.6731 H   0  0  0  0  0  0  0  0  0  0  0  0
    1.8852    2.2056   -4.7342 H   0  0  0  0  0  0  0  0  0  0  0  0
    0.9244    0.8921   -4.5098 H   0  0  0  0  0  0  0  0  0  0  0  0
   -0.5865    0.0771    2.2496 C   0  0  0  0  0  0  0  0  0  0  0  0
    0.5860   -0.1608    2.5143 O   0  0  0  0  0  0  0  0  0  0  0  0
   -1.4786    0.4656    3.1667 N   0  0  0  0  0  0  0  0  0  0  0  0
   -2.4139    0.6698    2.8558 H   0  0  0  0  0  0  0  0  0  0  0  0
   -1.1587    0.6908    4.5775 C   0  0  0  0  0  0  0  0  0  0  0  0
   -0.4270    1.4968    4.6656 H   0  0  0  0  0  0  0  0  0  0  0  0
   -2.0565    0.9649    5.1327 H   0  0  0  0  0  0  0  0  0  0  0  0
   -0.7281   -0.2137    5.0125 H   0  0  0  0  0  0  0  0  0  0  0  0
  5  6  2  0  0  0  0
  5  7  1  0  0  0  0
  2  3  1  0  0  0  0
  2  4  1  0  0  0  0
  2  5  1  0  0  0  0
  1  2  1  0  0  0  0
 27 28  2  0  0  0  0
 27 29  1  0  0  0  0
 23 24  1  0  0  0  0
 23 25  1  0  0  0  0
 23 26  1  0  0  0  0
 20 21  1  0  0  0  0
 20 22  1  0  0  0  0
 20 23  1  0  0  0  0
 17 18  1  0  0  0  0
 17 19  1  0  0  0  0
 17 20  1  0  0  0  0
 14 15  1  0  0  0  0
 14 16  1  0  0  0  0
 14 17  1  0  0  0  0
 11 12  1  0  0  0  0
 11 13  1  0  0  0  0
 11 14  1  0  0  0  0
  9 10  1  0  0  0  0
  9 11  1  0  0  0  0
  9 27  1  0  0  0  0
  7  8  1  0  0  0  0
  7  9  1  0  0  0  0
 31 32  1  0  0  0  0
 31 33  1  0  0  0  0
 31 34  1  0  0  0  0
 29 30  1  0  0  0  0
 29 31  1  0  0  0  0
M  CHG  1  23   1
M  END
$$$$
default_name
  -OEChem-02102213163D

 34 33  0     1  0  0  0  0  0999 V2000
   -3.8899   -3.6747    1.6490 H   0  0  0  0  0  0  0  0  0  0  0  0
   -3.9109   -2.6717    1.2250 C   0  0  0  0  0  0  0  0  0  0  0  0
   -4.6009   -2.0517    1.7950 H   0  0  0  0  0  0  0  0  0  0  0  0
   -4.2309   -2.7237    0.1860 H   0  0  0  0  0  0  0  0  0  0  0  0
   -2.5229   -2.0787    1.2980 C   0  0  0  0  0  0  0  0  0  0  0  0
   -1.5999   -2.7227    1.7810 O   0  0  0  0  0  0  0  0  0  0  0  0
   -2.3659   -0.8447    0.8120 N   0  0  0  0  0  0  0  0  0  0  0  0
   -3.1749   -0.3807    0.4220 H   0  0  0  0  0  0  0  0  0  0  0  0
   -1.0919   -0.1077    0.8170 C   0  0  1  0  0  0  0  0  0  0  0  0
   -0.3571   -0.6901    0.2581 H   0  0  0  0  0  0  0  0  0  0  0  0
   -1.3037    1.2411    0.1040 C   0  0  0  0  0  0  0  0  0  0  0  0
   -2.0869    1.1187   -0.6458 H   0  0  0  0  0  0  0  0  0  0  0  0
   -1.6418    1.9820    0.8311 H   0  0  0  0  0  0  0  0  0  0  0  0
   -0.0400    1.7610   -0.5982 C   0  0  0  0  0  0  0  0  0  0  0  0
    0.2426    2.7272   -0.1779 H   0  0  0  0  0  0  0  0  0  0  0  0
    0.7754    1.0521   -0.4421 H   0  0  0  0  0  0  0  0  0  0  0  0
   -0.2926    1.9214   -2.1037 C   0  0  0  0  0  0  0  0  0  0  0  0
   -0.5900    0.9554   -2.5188 H   0  0  0  0  0  0  0  0  0  0  0  0
   -1.1024    2.6380   -2.2545 H   0  0  0  0  0  0  0  0  0  0  0  0
    0.9756    2.4168   -2.8098 C   0  0  0  0  0  0  0  0  0  0  0  0
    1.2610    3.3803   -2.3751 H   0  0  0  0  0  0  0  0  0  0  0  0
    1.7841    1.7068   -2.6110 H   0  0  0  0  0  0  0  0  0  0  0  0
    0.7660    2.5580   -4.2729 N   0  3  0  0  0  0  0  0  0  0  0  0
    0.0259    3.2219   -4.4635 H   0  0  0  0  0  0  0  0  0  0  0  0
    1.6115    2.8851   -4.7237 H   0  0  0  0  0  0  0  0  0  0  0  0
    0.5102    1.6667   -4.6816 H   0  0  0  0  0  0  0  0  0  0  0  0
   -0.5865    0.0771    2.2496 C   0  0  0  0  0  0  0  0  0  0  0  0
    0.5860   -0.1608    2.5143 O   0  0  0  0  0  0  0  0  0  0  0  0
   -1.4786    0.4656    3.1667 N   0  0  0  0  0  0  0  0  0  0  0  0
   -2.4139    0.6698    2.8558 H   0  0  0  0  0  0  0  0  0  0  0  0
   -1.1587    0.6908    4.5775 C   0  0  0  0  0  0  0  0  0  0  0  0
   -0.4270    1.4968    4.6656 H   0  0  0  0  0  0  0  0  0  0  0  0
   -2.0565    0.9649    5.1327 H   0  0  0  0  0  0  0  0  0  0  0  0
   -0.7281   -0.2137    5.0125 H   0  0  0  0  0  0  0  0  0  0  0  0
  5  6  2  0  0  0  0
  5  7  1  0  0  0  0
  2  3  1  0  0  0  0
  2  4  1  0  0  0  0
  2  5  1  0  0  0  0
  1  2  1  0  0  0  0
 27 28  2  0  0  0  0
 27 29  1  0  0  0  0
 23 24  1  0  0  0  0
 23 25  1  0  0  0  0
 23 26  1  0  0  0  0
 20 21  1  0  0  0  0
 20 22  1  0  0  0  0
 20 23  1  0  0  0  0
 17 18  1  0  0  0  0
 17 19  1  0  0  0  0
 17 20  1  0  0  0  0
 14 15  1  0  0  0  0
 14 16  1  0  0  0  0
 14 17  1  0  0  0  0
 11 12  1  0  0  0  0
 11 13  1  0  0  0  0
 11 14  1  0  0  0  0
  9 10  1  0  0  0  0
  9 11  1  0  0  0  0
  9 27  1  0  0  0  0
  7  8  1  0  0  0  0
  7  9  1  0  0  0  0
 31 32  1  0  0  0  0
 31 33  1  0  0  0  0
 31 34  1  0  0  0  0
 29 30  1  0  0  0  0
 29 31  1  0  0  0  0
M  CHG  1  23   1
M  END
$$$$
default_name
  -OEChem-02102213163D

 34 33  0     1  0  0  0  0  0999 V2000
   -3.8899   -3.6747    1.6490 H   0  0  0  0  0  0  0  0  0  0  0  0
   -3.9109   -2.6717    1.2250 C   0  0  0  0  0  0  0  0  0  0  0  0
   -4.6009   -2.0517    1.7950 H   0  0  0  0  0  0  0  0  0  0  0  0
   -4.2309   -2.7237    0.1860 H   0  0  0  0  0  0  0  0  0  0  0  0
   -2.5229   -2.0787    1.2980 C   0  0  0  0  0  0  0  0  0  0  0  0
   -1.5999   -2.7227    1.7810 O   0  0  0  0  0  0  0  0  0  0  0  0
   -2.3659   -0.8447    0.8120 N   0  0  0  0  0  0  0  0  0  0  0  0
   -3.1749   -0.3807    0.4220 H   0  0  0  0  0  0  0  0  0  0  0  0
   -1.0919   -0.1077    0.8170 C   0  0  1  0  0  0  0  0  0  0  0  0
   -0.3571   -0.6901    0.2581 H   0  0  0  0  0  0  0  0  0  0  0  0
   -1.3037    1.2411    0.1040 C   0  0  0  0  0  0  0  0  0  0  0  0
   -2.0869    1.1187   -0.6458 H   0  0  0  0  0  0  0  0  0  0  0  0
   -1.6418    1.9820    0.8311 H   0  0  0  0  0  0  0  0  0  0  0  0
   -0.0400    1.7610   -0.5982 C   0  0  0  0  0  0  0  0  0  0  0  0
    0.3944    2.5756   -0.0170 H   0  0  0  0  0  0  0  0  0  0  0  0
    0.6875    0.9507   -0.6754 H   0  0  0  0  0  0  0  0  0  0  0  0
   -0.3819    2.2725   -2.0045 C   0  0  0  0  0  0  0  0  0  0  0  0
   -0.8305    1.4585   -2.5790 H   0  0  0  0  0  0  0  0  0  0  0  0
   -1.1025    3.0885   -1.9211 H   0  0  0  0  0  0  0  0  0  0  0  0
    0.8828    2.7690   -2.7160 C   0  0  0  0  0  0  0  0  0  0  0  0
    1.3207    3.5775   -2.1216 H   0  0  0  0  0  0  0  0  0  0  0  0
    1.6066    1.9491   -2.7511 H   0  0  0  0  0  0  0  0  0  0  0  0
    0.5842    3.2479   -4.0893 N   0  3  0  0  0  0  0  0  0  0  0  0
   -0.0772    4.0139   -4.0627 H   0  0  0  0  0  0  0  0  0  0  0  0
    1.4284    3.5715   -4.5449 H   0  0  0  0  0  0  0  0  0  0  0  0
    0.1867    2.5006   -4.6464 H   0  0  0  0  0  0  0  0  0  0  0  0
   -0.5865    0.0771    2.2496 C   0  0  0  0  0  0  0  0  0  0  0  0
    0.5860   -0.1608    2.5143 O   0  0  0  0  0  0  0  0  0  0  0  0
   -1.4786    0.4656    3.1667 N   0  0  0  0  0  0  0  0  0  0  0  0
   -2.4139    0.6698    2.8558 H   0  0  0  0  0  0  0  0  0  0  0  0
   -1.1587    0.6908    4.5775 C   0  0  0  0  0  0  0  0  0  0  0  0
   -0.4270    1.4968    4.6656 H   0  0  0  0  0  0  0  0  0  0  0  0
   -2.0565    0.9649    5.1327 H   0  0  0  0  0  0  0  0  0  0  0  0
   -0.7281   -0.2137    5.0125 H   0  0  0  0  0  0  0  0  0  0  0  0
  5  6  2  0  0  0  0
  5  7  1  0  0  0  0
  2  3  1  0  0  0  0
  2  4  1  0  0  0  0
  2  5  1  0  0  0  0
  1  2  1  0  0  0  0
 27 28  2  0  0  0  0
 27 29  1  0  0  0  0
 23 24  1  0  0  0  0
 23 25  1  0  0  0  0
 23 26  1  0  0  0  0
 20 21  1  0  0  0  0
 20 22  1  0  0  0  0
 20 23  1  0  0  0  0
 17 18  1  0  0  0  0
 17 19  1  0  0  0  0
 17 20  1  0  0  0  0
 14 15  1  0  0  0  0
 14 16  1  0  0  0  0
 14 17  1  0  0  0  0
 11 12  1  0  0  0  0
 11 13  1  0  0  0  0
 11 14  1  0  0  0  0
  9 10  1  0  0  0  0
  9 11  1  0  0  0  0
  9 27  1  0  0  0  0
  7  8  1  0  0  0  0
  7  9  1  0  0  0  0
 31 32  1  0  0  0  0
 31 33  1  0  0  0  0
 31 34  1  0  0  0  0
 29 30  1  0  0  0  0
 29 31  1  0  0  0  0
M  CHG  1  23   1
M  END
$$$$
default_name
  -OEChem-02102213163D

 34 33  0     1  0  0  0  0  0999 V2000
   -3.8899   -3.6747    1.6490 H   0  0  0  0  0  0  0  0  0  0  0  0
   -3.9109   -2.6717    1.2250 C   0  0  0  0  0  0  0  0  0  0  0  0
   -4.6009   -2.0517    1.7950 H   0  0  0  0  0  0  0  0  0  0  0  0
   -4.2309   -2.7237    0.1860 H   0  0  0  0  0  0  0  0  0  0  0  0
   -2.5229   -2.0787    1.2980 C   0  0  0  0  0  0  0  0  0  0  0  0
   -1.5999   -2.7227    1.7810 O   0  0  0  0  0  0  0  0  0  0  0  0
   -2.3659   -0.8447    0.8120 N   0  0  0  0  0  0  0  0  0  0  0  0
   -3.1749   -0.3807    0.4220 H   0  0  0  0  0  0  0  0  0  0  0  0
   -1.0919   -0.1077    0.8170 C   0  0  1  0  0  0  0  0  0  0  0  0
   -0.3571   -0.6901    0.2581 H   0  0  0  0  0  0  0  0  0  0  0  0
   -1.3037    1.2411    0.1040 C   0  0  0  0  0  0  0  0  0  0  0  0
   -2.0869    1.1187   -0.6458 H   0  0  0  0  0  0  0  0  0  0  0  0
   -1.6418    1.9820    0.8311 H   0  0  0  0  0  0  0  0  0  0  0  0
   -0.0400    1.7610   -0.5982 C   0  0  0  0  0  0  0  0  0  0  0  0
    0.5371    2.3769    0.0928 H   0  0  0  0  0  0  0  0  0  0  0  0
    0.5702    0.9128   -0.9146 H   0  0  0  0  0  0  0  0  0  0  0  0
   -0.4180    2.6010   -1.8260 C   0  0  0  0  0  0  0  0  0  0  0  0
   -1.0086    1.9858   -2.5091 H   0  0  0  0  0  0  0  0  0  0  0  0
   -1.0201    3.4527   -1.5032 H   0  0  0  0  0  0  0  0  0  0  0  0
    0.8431    3.1002   -2.5423 C   0  0  0  0  0  0  0  0  0  0  0  0
    1.4239    3.7070   -1.8401 H   0  0  0  0  0  0  0  0  0  0  0  0
    1.4514    2.2339   -2.8194 H   0  0  0  0  0  0  0  0  0  0  0  0
    0.5062    3.8968   -3.7492 N   0  3  0  0  0  0  0  0  0  0  0  0
   -0.0480    4.7058   -3.4978 H   0  0  0  0  0  0  0  0  0  0  0  0
    1.3484    4.2181   -4.2101 H   0  0  0  0  0  0  0  0  0  0  0  0
   -0.0240    3.3367   -4.4065 H   0  0  0  0  0  0  0  0  0  0  0  0
   -0.5865    0.0771    2.2496 C   0  0  0  0  0  0  0  0  0  0  0  0
    0.5860   -0.1608    2.5143 O   0  0  0  0  0  0  0  0  0  0  0  0
   -1.4786    0.4656    3.1667 N   0  0  0  0  0  0  0  0  0  0  0  0
   -2.4139    0.6698    2.8558 H   0  0  0  0  0  0  0  0  0  0  0  0
   -1.1587    0.6908    4.5775 C   0  0  0  0  0  0  0  0  0  0  0  0
   -0.4270    1.4968    4.6656 H   0  0  0  0  0  0  0  0  0  0  0  0
   -2.0565    0.9649    5.1327 H   0  0  0  0  0  0  0  0  0  0  0  0
   -0.7281   -0.2137    5.0125 H   0  0  0  0  0  0  0  0  0  0  0  0
  5  6  2  0  0  0  0
  5  7  1  0  0  0  0
  2  3  1  0  0  0  0
  2  4  1  0  0  0  0
  2  5  1  0  0  0  0
  1  2  1  0  0  0  0
 27 28  2  0  0  0  0
 27 29  1  0  0  0  0
 23 24  1  0  0  0  0
 23 25  1  0  0  0  0
 23 26  1  0  0  0  0
 20 21  1  0  0  0  0
 20 22  1  0  0  0  0
 20 23  1  0  0  0  0
 17 18  1  0  0  0  0
 17 19  1  0  0  0  0
 17 20  1  0  0  0  0
 14 15  1  0  0  0  0
 14 16  1  0  0  0  0
 14 17  1  0  0  0  0
 11 12  1  0  0  0  0
 11 13  1  0  0  0  0
 11 14  1  0  0  0  0
  9 10  1  0  0  0  0
  9 11  1  0  0  0  0
  9 27  1  0  0  0  0
  7  8  1  0  0  0  0
  7  9  1  0  0  0  0
 31 32  1  0  0  0  0
 31 33  1  0  0  0  0
 31 34  1  0  0  0  0
 29 30  1  0  0  0  0
 29 31  1  0  0  0  0
M  CHG  1  23   1
M  END
$$$$
default_name
  -OEChem-02102213163D

 34 33  0     1  0  0  0  0  0999 V2000
   -3.8899   -3.6747    1.6490 H   0  0  0  0  0  0  0  0  0  0  0  0
   -3.9109   -2.6717    1.2250 C   0  0  0  0  0  0  0  0  0  0  0  0
   -4.6009   -2.0517    1.7950 H   0  0  0  0  0  0  0  0  0  0  0  0
   -4.2309   -2.7237    0.1860 H   0  0  0  0  0  0  0  0  0  0  0  0
   -2.5229   -2.0787    1.2980 C   0  0  0  0  0  0  0  0  0  0  0  0
   -1.5999   -2.7227    1.7810 O   0  0  0  0  0  0  0  0  0  0  0  0
   -2.3659   -0.8447    0.8120 N   0  0  0  0  0  0  0  0  0  0  0  0
   -3.1749   -0.3807    0.4220 H   0  0  0  0  0  0  0  0  0  0  0  0
   -1.0919   -0.1077    0.8170 C   0  0  1  0  0  0  0  0  0  0  0  0
   -0.3571   -0.6901    0.2581 H   0  0  0  0  0  0  0  0  0  0  0  0
   -1.3037    1.2411    0.1040 C   0  0  0  0  0  0  0  0  0  0  0  0
   -2.0869    1.1187   -0.6458 H   0  0  0  0  0  0  0  0  0  0  0  0
   -1.6418    1.9820    0.8311 H   0  0  0  0  0  0  0  0  0  0  0  0
   -0.0400    1.7610   -0.5982 C   0  0  0  0  0  0  0  0  0  0  0  0
    0.6612    2.1448    0.1441 H   0  0  0  0  0  0  0  0  0  0  0  0
    0.4314    0.9410   -1.1434 H   0  0  0  0  0  0  0  0  0  0  0  0
   -0.3983    2.8847   -1.5806 C   0  0  0  0  0  0  0  0  0  0  0  0
   -1.1121    2.5013   -2.3137 H   0  0  0  0  0  0  0  0  0  0  0  0
   -0.8608    3.7057   -1.0292 H   0  0  0  0  0  0  0  0  0  0  0  0
    0.8591    3.3878   -2.3006 C   0  0  0  0  0  0  0  0  0  0  0  0
    1.5635    3.7600   -1.5495 H   0  0  0  0  0  0  0  0  0  0  0  0
    1.3293    2.5420   -2.8111 H   0  0  0  0  0  0  0  0  0  0  0  0
    0.5374    4.4603   -3.2756 N   0  3  0  0  0  0  0  0  0  0  0  0
    0.1115    5.2504   -2.8074 H   0  0  0  0  0  0  0  0  0  0  0  0
    1.3769    4.7809   -3.7420 H   0  0  0  0  0  0  0  0  0  0  0  0
   -0.1077    4.1183   -3.9783 H   0  0  0  0  0  0  0  0  0  0  0  0
   -0.5865    0.0771    2.2496 C   0  0  0  0  0  0  0  0  0  0  0  0
    0.5860   -0.1608    2.5143 O   0  0  0  0  0  0  0  0  0  0  0  0
   -1.4786    0.4656    3.1667 N   0  0  0  0  0  0  0  0  0  0  0  0
   -2.4139    0.6698    2.8558 H   0  0  0  0  0  0  0  0  0  0  0  0
   -1.1587    0.6908    4.5775 C   0  0  0  0  0  0  0  0  0  0  0  0
   -0.4270    1.4968    4.6656 H   0  0  0  0  0  0  0  0  0  0  0  0
   -2.0565    0.9649    5.1327 H   0  0  0  0  0  0  0  0  0  0  0  0
   -0.7281   -0.2137    5.0125 H   0  0  0  0  0  0  0  0  0  0  0  0
  5  6  2  0  0  0  0
  5  7  1  0  0  0  0
  2  3  1  0  0  0  0
  2  4  1  0  0  0  0
  2  5  1  0  0  0  0
  1  2  1  0  0  0  0
 27 28  2  0  0  0  0
 27 29  1  0  0  0  0
 23 24  1  0  0  0  0
 23 25  1  0  0  0  0
 23 26  1  0  0  0  0
 20 21  1  0  0  0  0
 20 22  1  0  0  0  0
 20 23  1  0  0  0  0
 17 18  1  0  0  0  0
 17 19  1  0  0  0  0
 17 20  1  0  0  0  0
 14 15  1  0  0  0  0
 14 16  1  0  0  0  0
 14 17  1  0  0  0  0
 11 12  1  0  0  0  0
 11 13  1  0  0  0  0
 11 14  1  0  0  0  0
  9 10  1  0  0  0  0
  9 11  1  0  0  0  0
  9 27  1  0  0  0  0
  7  8  1  0  0  0  0
  7  9  1  0  0  0  0
 31 32  1  0  0  0  0
 31 33  1  0  0  0  0
 31 34  1  0  0  0  0
 29 30  1  0  0  0  0
 29 31  1  0  0  0  0
M  CHG  1  23   1
M  END
$$$$
default_name
  -OEChem-02102213163D

 34 33  0     1  0  0  0  0  0999 V2000
   -3.8899   -3.6747    1.6490 H   0  0  0  0  0  0  0  0  0  0  0  0
   -3.9109   -2.6717    1.2250 C   0  0  0  0  0  0  0  0  0  0  0  0
   -4.6009   -2.0517    1.7950 H   0  0  0  0  0  0  0  0  0  0  0  0
   -4.2309   -2.7237    0.1860 H   0  0  0  0  0  0  0  0  0  0  0  0
   -2.5229   -2.0787    1.2980 C   0  0  0  0  0  0  0  0  0  0  0  0
   -1.5999   -2.7227    1.7810 O   0  0  0  0  0  0  0  0  0  0  0  0
   -2.3659   -0.8447    0.8120 N   0  0  0  0  0  0  0  0  0  0  0  0
   -3.1749   -0.3807    0.4220 H   0  0  0  0  0  0  0  0  0  0  0  0
   -1.0919   -0.1077    0.8170 C   0  0  1  0  0  0  0  0  0  0  0  0
   -0.3571   -0.6901    0.2581 H   0  0  0  0  0  0  0  0  0  0  0  0
   -1.3037    1.2411    0.1040 C   0  0  0  0  0  0  0  0  0  0  0  0
   -2.2465    1.2003   -0.4439 H   0  0  0  0  0  0  0  0  0  0  0  0
   -1.3784    2.0339    0.8509 H   0  0  0  0  0  0  0  0  0  0  0  0
   -0.1828    1.5850   -0.8887 C   0  0  0  0  0  0  0  0  0  0  0  0
    0.7714    1.6350   -0.3625 H   0  0  0  0  0  0  0  0  0  0  0  0
   -0.1282    0.8072   -1.6529 H   0  0  0  0  0  0  0  0  0  0  0  0
   -0.4592    2.9377   -1.5596 C   0  0  0  0  0  0  0  0  0  0  0  0
   -1.4224    2.8891   -2.0731 H   0  0  0  0  0  0  0  0  0  0  0  0
   -0.5037    3.7132   -0.7923 H   0  0  0  0  0  0  0  0  0  0  0  0
    0.6463    3.2708   -2.5692 C   0  0  0  0  0  0  0  0  0  0  0  0
    1.6026    3.3071   -2.0372 H   0  0  0  0  0  0  0  0  0  0  0  0
    0.7019    2.4615   -3.3035 H   0  0  0  0  0  0  0  0  0  0  0  0
    0.3911    4.5647   -3.2510 N   0  3  0  0  0  0  0  0  0  0  0  0
    0.3491    5.3193   -2.5774 H   0  0  0  0  0  0  0  0  0  0  0  0
    1.1288    4.7696   -3.9135 H   0  0  0  0  0  0  0  0  0  0  0  0
   -0.4890    4.5333   -3.7523 H   0  0  0  0  0  0  0  0  0  0  0  0
   -0.5865    0.0771    2.2496 C   0  0  0  0  0  0  0  0  0  0  0  0
    0.5860   -0.1608    2.5143 O   0  0  0  0  0  0  0  0  0  0  0  0
   -1.4786    0.4656    3.1667 N   0  0  0  0  0  0  0  0  0  0  0  0
   -2.4139    0.6698    2.8558 H   0  0  0  0  0  0  0  0  0  0  0  0
   -1.1587    0.6908    4.5775 C   0  0  0  0  0  0  0  0  0  0  0  0
   -0.4270    1.4968    4.6656 H   0  0  0  0  0  0  0  0  0  0  0  0
   -2.0565    0.9649    5.1327 H   0  0  0  0  0  0  0  0  0  0  0  0
   -0.7281   -0.2137    5.0125 H   0  0  0  0  0  0  0  0  0  0  0  0
  5  6  2  0  0  0  0
  5  7  1  0  0  0  0
  2  3  1  0  0  0  0
  2  4  1  0  0  0  0
  2  5  1  0  0  0  0
  1  2  1  0  0  0  0
 27 28  2  0  0  0  0
 27 29  1  0  0  0  0
 23 24  1  0  0  0  0
 23 25  1  0  0  0  0
 23 26  1  0  0  0  0
 20 21  1  0  0  0  0
 20 22  1  0  0  0  0
 20 23  1  0  0  0  0
 17 18  1  0  0  0  0
 17 19  1  0  0  0  0
 17 20  1  0  0  0  0
 14 15  1  0  0  0  0
 14 16  1  0  0  0  0
 14 17  1  0  0  0  0
 11 12  1  0  0  0  0
 11 13  1  0  0  0  0
 11 14  1  0  0  0  0
  9 10  1  0  0  0  0
  9 11  1  0  0  0  0
  9 27  1  0  0  0  0
  7  8  1  0  0  0  0
  7  9  1  0  0  0  0
 31 32  1  0  0  0  0
 31 33  1  0  0  0  0
 31 34  1  0  0  0  0
 29 30  1  0  0  0  0
 29 31  1  0  0  0  0
M  CHG  1  23   1
M  END
$$$$
default_name
  -OEChem-02102213163D

 34 33  0     1  0  0  0  0  0999 V2000
   -3.8899   -3.6747    1.6490 H   0  0  0  0  0  0  0  0  0  0  0  0
   -3.9109   -2.6717    1.2250 C   0  0  0  0  0  0  0  0  0  0  0  0
   -4.6009   -2.0517    1.7950 H   0  0  0  0  0  0  0  0  0  0  0  0
   -4.2309   -2.7237    0.1860 H   0  0  0  0  0  0  0  0  0  0  0  0
   -2.5229   -2.0787    1.2980 C   0  0  0  0  0  0  0  0  0  0  0  0
   -1.5999   -2.7227    1.7810 O   0  0  0  0  0  0  0  0  0  0  0  0
   -2.3659   -0.8447    0.8120 N   0  0  0  0  0  0  0  0  0  0  0  0
   -3.1749   -0.3807    0.4220 H   0  0  0  0  0  0  0  0  0  0  0  0
   -1.0919   -0.1077    0.8170 C   0  0  1  0  0  0  0  0  0  0  0  0
   -0.3571   -0.6901    0.2581 H   0  0  0  0  0  0  0  0  0  0  0  0
   -1.3037    1.2411    0.1040 C   0  0  0  0  0  0  0  0  0  0  0  0
   -2.2465    1.2003   -0.4439 H   0  0  0  0  0  0  0  0  0  0  0  0
   -1.3784    2.0339    0.8509 H   0  0  0  0  0  0  0  0  0  0  0  0
   -0.1828    1.5850   -0.8887 C   0  0  0  0  0  0  0  0  0  0  0  0
    0.7869    1.3772   -0.4344 H   0  0  0  0  0  0  0  0  0  0  0  0
   -0.2955    0.9716   -1.7848 H   0  0  0  0  0  0  0  0  0  0  0  0
   -0.2492    3.0686   -1.2770 C   0  0  0  0  0  0  0  0  0  0  0  0
   -1.2269    3.2768   -1.7180 H   0  0  0  0  0  0  0  0  0  0  0  0
   -0.1267    3.6775   -0.3791 H   0  0  0  0  0  0  0  0  0  0  0  0
    0.8541    3.4078   -2.2871 C   0  0  0  0  0  0  0  0  0  0  0  0
    1.8237    3.1852   -1.8298 H   0  0  0  0  0  0  0  0  0  0  0  0
    0.7381    2.7580   -3.1598 H   0  0  0  0  0  0  0  0  0  0  0  0
    0.7980    4.8333   -2.6986 N   0  3  0  0  0  0  0  0  0  0  0  0
    0.9152    5.4397   -1.8965 H   0  0  0  0  0  0  0  0  0  0  0  0
    1.5315    5.0406   -3.3648 H   0  0  0  0  0  0  0  0  0  0  0  0
   -0.0945    5.0423   -3.1306 H   0  0  0  0  0  0  0  0  0  0  0  0
   -0.5865    0.0771    2.2496 C   0  0  0  0  0  0  0  0  0  0  0  0
    0.5860   -0.1608    2.5143 O   0  0  0  0  0  0  0  0  0  0  0  0
   -1.4786    0.4656    3.1667 N   0  0  0  0  0  0  0  0  0  0  0  0
   -2.4139    0.6698    2.8558 H   0  0  0  0  0  0  0  0  0  0  0  0
   -1.1587    0.6908    4.5775 C   0  0  0  0  0  0  0  0  0  0  0  0
   -0.4270    1.4968    4.6656 H   0  0  0  0  0  0  0  0  0  0  0  0
   -2.0565    0.9649    5.1327 H   0  0  0  0  0  0  0  0  0  0  0  0
   -0.7281   -0.2137    5.0125 H   0  0  0  0  0  0  0  0  0  0  0  0
  5  6  2  0  0  0  0
  5  7  1  0  0  0  0
  2  3  1  0  0  0  0
  2  4  1  0  0  0  0
  2  5  1  0  0  0  0
  1  2  1  0  0  0  0
 27 28  2  0  0  0  0
 27 29  1  0  0  0  0
 23 24  1  0  0  0  0
 23 25  1  0  0  0  0
 23 26  1  0  0  0  0
 20 21  1  0  0  0  0
 20 22  1  0  0  0  0
 20 23  1  0  0  0  0
 17 18  1  0  0  0  0
 17 19  1  0  0  0  0
 17 20  1  0  0  0  0
 14 15  1  0  0  0  0
 14 16  1  0  0  0  0
 14 17  1  0  0  0  0
 11 12  1  0  0  0  0
 11 13  1  0  0  0  0
 11 14  1  0  0  0  0
  9 10  1  0  0  0  0
  9 11  1  0  0  0  0
  9 27  1  0  0  0  0
  7  8  1  0  0  0  0
  7  9  1  0  0  0  0
 31 32  1  0  0  0  0
 31 33  1  0  0  0  0
 31 34  1  0  0  0  0
 29 30  1  0  0  0  0
 29 31  1  0  0  0  0
M  CHG  1  23   1
M  END
$$$$
default_name
  -OEChem-02102213163D

 34 33  0     1  0  0  0  0  0999 V2000
   -3.8899   -3.6747    1.6490 H   0  0  0  0  0  0  0  0  0  0  0  0
   -3.9109   -2.6717    1.2250 C   0  0  0  0  0  0  0  0  0  0  0  0
   -4.6009   -2.0517    1.7950 H   0  0  0  0  0  0  0  0  0  0  0  0
   -4.2309   -2.7237    0.1860 H   0  0  0  0  0  0  0  0  0  0  0  0
   -2.5229   -2.0787    1.2980 C   0  0  0  0  0  0  0  0  0  0  0  0
   -1.5999   -2.7227    1.7810 O   0  0  0  0  0  0  0  0  0  0  0  0
   -2.3659   -0.8447    0.8120 N   0  0  0  0  0  0  0  0  0  0  0  0
   -3.1749   -0.3807    0.4220 H   0  0  0  0  0  0  0  0  0  0  0  0
   -1.0919   -0.1077    0.8170 C   0  0  1  0  0  0  0  0  0  0  0  0
   -0.3571   -0.6901    0.2581 H   0  0  0  0  0  0  0  0  0  0  0  0
   -1.3037    1.2411    0.1040 C   0  0  0  0  0  0  0  0  0  0  0  0
   -2.2465    1.2003   -0.4439 H   0  0  0  0  0  0  0  0  0  0  0  0
   -1.3784    2.0339    0.8509 H   0  0  0  0  0  0  0  0  0  0  0  0
   -0.1828    1.5850   -0.8887 C   0  0  0  0  0  0  0  0  0  0  0  0
    0.7546    1.1391   -0.5534 H   0  0  0  0  0  0  0  0  0  0  0  0
   -0.4372    1.1833   -1.8715 H   0  0  0  0  0  0  0  0  0  0  0  0
   -0.0080    3.1065   -0.9916 C   0  0  0  0  0  0  0  0  0  0  0  0
   -0.9527    3.5516   -1.3131 H   0  0  0  0  0  0  0  0  0  0  0  0
    0.2553    3.5019   -0.0085 H   0  0  0  0  0  0  0  0  0  0  0  0
    1.0940    3.4521   -2.0009 C   0  0  0  0  0  0  0  0  0  0  0  0
    2.0288    2.9914   -1.6653 H   0  0  0  0  0  0  0  0  0  0  0  0
    0.8310    3.0112   -2.9672 H   0  0  0  0  0  0  0  0  0  0  0  0
    1.2678    4.9203   -2.1379 N   0  3  0  0  0  0  0  0  0  0  0  0
    1.5216    5.3327   -1.2488 H   0  0  0  0  0  0  0  0  0  0  0  0
    1.9976    5.1314   -2.8070 H   0  0  0  0  0  0  0  0  0  0  0  0
    0.4076    5.3505   -2.4568 H   0  0  0  0  0  0  0  0  0  0  0  0
   -0.5865    0.0771    2.2496 C   0  0  0  0  0  0  0  0  0  0  0  0
    0.5860   -0.1608    2.5143 O   0  0  0  0  0  0  0  0  0  0  0  0
   -1.4786    0.4656    3.1667 N   0  0  0  0  0  0  0  0  0  0  0  0
   -2.4139    0.6698    2.8558 H   0  0  0  0  0  0  0  0  0  0  0  0
   -1.1587    0.6908    4.5775 C   0  0  0  0  0  0  0  0  0  0  0  0
   -0.4270    1.4968    4.6656 H   0  0  0  0  0  0  0  0  0  0  0  0
   -2.0565    0.9649    5.1327 H   0  0  0  0  0  0  0  0  0  0  0  0
   -0.7281   -0.2137    5.0125 H   0  0  0  0  0  0  0  0  0  0  0  0
  5  6  2  0  0  0  0
  5  7  1  0  0  0  0
  2  3  1  0  0  0  0
  2  4  1  0  0  0  0
  2  5  1  0  0  0  0
  1  2  1  0  0  0  0
 27 28  2  0  0  0  0
 27 29  1  0  0  0  0
 23 24  1  0  0  0  0
 23 25  1  0  0  0  0
 23 26  1  0  0  0  0
 20 21  1  0  0  0  0
 20 22  1  0  0  0  0
 20 23  1  0  0  0  0
 17 18  1  0  0  0  0
 17 19  1  0  0  0  0
 17 20  1  0  0  0  0
 14 15  1  0  0  0  0
 14 16  1  0  0  0  0
 14 17  1  0  0  0  0
 11 12  1  0  0  0  0
 11 13  1  0  0  0  0
 11 14  1  0  0  0  0
  9 10  1  0  0  0  0
  9 11  1  0  0  0  0
  9 27  1  0  0  0  0
  7  8  1  0  0  0  0
  7  9  1  0  0  0  0
 31 32  1  0  0  0  0
 31 33  1  0  0  0  0
 31 34  1  0  0  0  0
 29 30  1  0  0  0  0
 29 31  1  0  0  0  0
M  CHG  1  23   1
M  END
$$$$
default_name
  -OEChem-02102213163D

 34 33  0     1  0  0  0  0  0999 V2000
   -3.8899   -3.6747    1.6490 H   0  0  0  0  0  0  0  0  0  0  0  0
   -3.9109   -2.6717    1.2250 C   0  0  0  0  0  0  0  0  0  0  0  0
   -4.6009   -2.0517    1.7950 H   0  0  0  0  0  0  0  0  0  0  0  0
   -4.2309   -2.7237    0.1860 H   0  0  0  0  0  0  0  0  0  0  0  0
   -2.5229   -2.0787    1.2980 C   0  0  0  0  0  0  0  0  0  0  0  0
   -1.5999   -2.7227    1.7810 O   0  0  0  0  0  0  0  0  0  0  0  0
   -2.3659   -0.8447    0.8120 N   0  0  0  0  0  0  0  0  0  0  0  0
   -3.1749   -0.3807    0.4220 H   0  0  0  0  0  0  0  0  0  0  0  0
   -1.0919   -0.1077    0.8170 C   0  0  1  0  0  0  0  0  0  0  0  0
   -0.3571   -0.6901    0.2581 H   0  0  0  0  0  0  0  0  0  0  0  0
   -1.3037    1.2411    0.1040 C   0  0  0  0  0  0  0  0  0  0  0  0
   -2.2465    1.2003   -0.4439 H   0  0  0  0  0  0  0  0  0  0  0  0
   -1.3784    2.0339    0.8509 H   0  0  0  0  0  0  0  0  0  0  0  0
   -0.1828    1.5850   -0.8887 C   0  0  0  0  0  0  0  0  0  0  0  0
    0.6766    0.9370   -0.7115 H   0  0  0  0  0  0  0  0  0  0  0  0
   -0.5437    1.4279   -1.9070 H   0  0  0  0  0  0  0  0  0  0  0  0
    0.2478    3.0489   -0.7226 C   0  0  0  0  0  0  0  0  0  0  0  0
   -0.6183    3.6946   -0.8860 H   0  0  0  0  0  0  0  0  0  0  0  0
    0.6164    3.1985    0.2942 H   0  0  0  0  0  0  0  0  0  0  0  0
    1.3497    3.4008   -1.7299 C   0  0  0  0  0  0  0  0  0  0  0  0
    2.2041    2.7388   -1.5549 H   0  0  0  0  0  0  0  0  0  0  0  0
    0.9743    3.2039   -2.7387 H   0  0  0  0  0  0  0  0  0  0  0  0
    1.7688    4.8198   -1.6070 N   0  3  0  0  0  0  0  0  0  0  0  0
    2.1270    5.0056   -0.6786 H   0  0  0  0  0  0  0  0  0  0  0  0
    2.4954    5.0358   -2.2781 H   0  0  0  0  0  0  0  0  0  0  0  0
    0.9832    5.4370   -1.7768 H   0  0  0  0  0  0  0  0  0  0  0  0
   -0.5865    0.0771    2.2496 C   0  0  0  0  0  0  0  0  0  0  0  0
    0.5860   -0.1608    2.5143 O   0  0  0  0  0  0  0  0  0  0  0  0
   -1.4786    0.4656    3.1667 N   0  0  0  0  0  0  0  0  0  0  0  0
   -2.4139    0.6698    2.8558 H   0  0  0  0  0  0  0  0  0  0  0  0
   -1.1587    0.6908    4.5775 C   0  0  0  0  0  0  0  0  0  0  0  0
   -0.4270    1.4968    4.6656 H   0  0  0  0  0  0  0  0  0  0  0  0
   -2.0565    0.9649    5.1327 H   0  0  0  0  0  0  0  0  0  0  0  0
   -0.7281   -0.2137    5.0125 H   0  0  0  0  0  0  0  0  0  0  0  0
  5  6  2  0  0  0  0
  5  7  1  0  0  0  0
  2  3  1  0  0  0  0
  2  4  1  0  0  0  0
  2  5  1  0  0  0  0
  1  2  1  0  0  0  0
 27 28  2  0  0  0  0
 27 29  1  0  0  0  0
 23 24  1  0  0  0  0
 23 25  1  0  0  0  0
 23 26  1  0  0  0  0
 20 21  1  0  0  0  0
 20 22  1  0  0  0  0
 20 23  1  0  0  0  0
 17 18  1  0  0  0  0
 17 19  1  0  0  0  0
 17 20  1  0  0  0  0
 14 15  1  0  0  0  0
 14 16  1  0  0  0  0
 14 17  1  0  0  0  0
 11 12  1  0  0  0  0
 11 13  1  0  0  0  0
 11 14  1  0  0  0  0
  9 10  1  0  0  0  0
  9 11  1  0  0  0  0
  9 27  1  0  0  0  0
  7  8  1  0  0  0  0
  7  9  1  0  0  0  0
 31 32  1  0  0  0  0
 31 33  1  0  0  0  0
 31 34  1  0  0  0  0
 29 30  1  0  0  0  0
 29 31  1  0  0  0  0
M  CHG  1  23   1
M  END
$$$$
default_name
  -OEChem-02102213163D

 34 33  0     1  0  0  0  0  0999 V2000
   -3.8899   -3.6747    1.6490 H   0  0  0  0  0  0  0  0  0  0  0  0
   -3.9109   -2.6717    1.2250 C   0  0  0  0  0  0  0  0  0  0  0  0
   -4.6009   -2.0517    1.7950 H   0  0  0  0  0  0  0  0  0  0  0  0
   -4.2309   -2.7237    0.1860 H   0  0  0  0  0  0  0  0  0  0  0  0
   -2.5229   -2.0787    1.2980 C   0  0  0  0  0  0  0  0  0  0  0  0
   -1.5999   -2.7227    1.7810 O   0  0  0  0  0  0  0  0  0  0  0  0
   -2.3659   -0.8447    0.8120 N   0  0  0  0  0  0  0  0  0  0  0  0
   -3.1749   -0.3807    0.4220 H   0  0  0  0  0  0  0  0  0  0  0  0
   -1.0919   -0.1077    0.8170 C   0  0  1  0  0  0  0  0  0  0  0  0
   -0.3571   -0.6901    0.2581 H   0  0  0  0  0  0  0  0  0  0  0  0
   -1.3037    1.2411    0.1040 C   0  0  0  0  0  0  0  0  0  0  0  0
   -2.2465    1.2003   -0.4439 H   0  0  0  0  0  0  0  0  0  0  0  0
   -1.3784    2.0339    0.8509 H   0  0  0  0  0  0  0  0  0  0  0  0
   -0.1828    1.5850   -0.8887 C   0  0  0  0  0  0  0  0  0  0  0  0
    0.5584    0.7847   -0.8978 H   0  0  0  0  0  0  0  0  0  0  0  0
   -0.6078    1.6886   -1.8890 H   0  0  0  0  0  0  0  0  0  0  0  0
    0.5009    2.8998   -0.4886 C   0  0  0  0  0  0  0  0  0  0  0  0
   -0.2467    3.6962   -0.4659 H   0  0  0  0  0  0  0  0  0  0  0  0
    0.9320    2.7879    0.5083 H   0  0  0  0  0  0  0  0  0  0  0  0
    1.6038    3.2573   -1.4927 C   0  0  0  0  0  0  0  0  0  0  0  0
    2.3375    2.4447   -1.5062 H   0  0  0  0  0  0  0  0  0  0  0  0
    1.1581    3.3229   -2.4898 H   0  0  0  0  0  0  0  0  0  0  0  0
    2.2666    4.5388   -1.1423 N   0  3  0  0  0  0  0  0  0  0  0  0
    2.6901    4.4807   -0.2246 H   0  0  0  0  0  0  0  0  0  0  0  0
    2.9908    4.7604   -1.8141 H   0  0  0  0  0  0  0  0  0  0  0  0
    1.5931    5.2959   -1.1371 H   0  0  0  0  0  0  0  0  0  0  0  0
   -0.5865    0.0771    2.2496 C   0  0  0  0  0  0  0  0  0  0  0  0
    0.5860   -0.1608    2.5143 O   0  0  0  0  0  0  0  0  0  0  0  0
   -1.4786    0.4656    3.1667 N   0  0  0  0  0  0  0  0  0  0  0  0
   -2.4139    0.6698    2.8558 H   0  0  0  0  0  0  0  0  0  0  0  0
   -1.1587    0.6908    4.5775 C   0  0  0  0  0  0  0  0  0  0  0  0
   -0.4270    1.4968    4.6656 H   0  0  0  0  0  0  0  0  0  0  0  0
   -2.0565    0.9649    5.1327 H   0  0  0  0  0  0  0  0  0  0  0  0
   -0.7281   -0.2137    5.0125 H   0  0  0  0  0  0  0  0  0  0  0  0
  5  6  2  0  0  0  0
  5  7  1  0  0  0  0
  2  3  1  0  0  0  0
  2  4  1  0  0  0  0
  2  5  1  0  0  0  0
  1  2  1  0  0  0  0
 27 28  2  0  0  0  0
 27 29  1  0  0  0  0
 23 24  1  0  0  0  0
 23 25  1  0  0  0  0
 23 26  1  0  0  0  0
 20 21  1  0  0  0  0
 20 22  1  0  0  0  0
 20 23  1  0  0  0  0
 17 18  1  0  0  0  0
 17 19  1  0  0  0  0
 17 20  1  0  0  0  0
 14 15  1  0  0  0  0
 14 16  1  0  0  0  0
 14 17  1  0  0  0  0
 11 12  1  0  0  0  0
 11 13  1  0  0  0  0
 11 14  1  0  0  0  0
  9 10  1  0  0  0  0
  9 11  1  0  0  0  0
  9 27  1  0  0  0  0
  7  8  1  0  0  0  0
  7  9  1  0  0  0  0
 31 32  1  0  0  0  0
 31 33  1  0  0  0  0
 31 34  1  0  0  0  0
 29 30  1  0  0  0  0
 29 31  1  0  0  0  0
M  CHG  1  23   1
M  END
$$$$
default_name
  -OEChem-02102213163D

 34 33  0     1  0  0  0  0  0999 V2000
   -3.8899   -3.6747    1.6490 H   0  0  0  0  0  0  0  0  0  0  0  0
   -3.9109   -2.6717    1.2250 C   0  0  0  0  0  0  0  0  0  0  0  0
   -4.6009   -2.0517    1.7950 H   0  0  0  0  0  0  0  0  0  0  0  0
   -4.2309   -2.7237    0.1860 H   0  0  0  0  0  0  0  0  0  0  0  0
   -2.5229   -2.0787    1.2980 C   0  0  0  0  0  0  0  0  0  0  0  0
   -1.5999   -2.7227    1.7810 O   0  0  0  0  0  0  0  0  0  0  0  0
   -2.3659   -0.8447    0.8120 N   0  0  0  0  0  0  0  0  0  0  0  0
   -3.1749   -0.3807    0.4220 H   0  0  0  0  0  0  0  0  0  0  0  0
   -1.0919   -0.1077    0.8170 C   0  0  1  0  0  0  0  0  0  0  0  0
   -0.3571   -0.6901    0.2581 H   0  0  0  0  0  0  0  0  0  0  0  0
   -1.3037    1.2411    0.1040 C   0  0  0  0  0  0  0  0  0  0  0  0
   -2.2465    1.2003   -0.4439 H   0  0  0  0  0  0  0  0  0  0  0  0
   -1.3784    2.0339    0.8509 H   0  0  0  0  0  0  0  0  0  0  0  0
   -0.1828    1.5850   -0.8887 C   0  0  0  0  0  0  0  0  0  0  0  0
    0.4079    0.6925   -1.0996 H   0  0  0  0  0  0  0  0  0  0  0  0
   -0.6250    1.9478   -1.8187 H   0  0  0  0  0  0  0  0  0  0  0  0
    0.7339    2.6691   -0.3053 C   0  0  0  0  0  0  0  0  0  0  0  0
    0.1368    3.5563   -0.0813 H   0  0  0  0  0  0  0  0  0  0  0  0
    1.1806    2.2980    0.6193 H   0  0  0  0  0  0  0  0  0  0  0  0
    1.8390    3.0313   -1.3054 C   0  0  0  0  0  0  0  0  0  0  0  0
    2.4201    2.1291   -1.5223 H   0  0  0  0  0  0  0  0  0  0  0  0
    1.3700    3.3601   -2.2377 H   0  0  0  0  0  0  0  0  0  0  0  0
    2.7274    4.0964   -0.7753 N   0  3  0  0  0  0  0  0  0  0  0  0
    3.1725    3.7939    0.0822 H   0  0  0  0  0  0  0  0  0  0  0  0
    3.4502    4.3238   -1.4466 H   0  0  0  0  0  0  0  0  0  0  0  0
    2.1956    4.9369   -0.5811 H   0  0  0  0  0  0  0  0  0  0  0  0
   -0.5865    0.0771    2.2496 C   0  0  0  0  0  0  0  0  0  0  0  0
    0.5860   -0.1608    2.5143 O   0  0  0  0  0  0  0  0  0  0  0  0
   -1.4786    0.4656    3.1667 N   0  0  0  0  0  0  0  0  0  0  0  0
   -2.4139    0.6698    2.8558 H   0  0  0  0  0  0  0  0  0  0  0  0
   -1.1587    0.6908    4.5775 C   0  0  0  0  0  0  0  0  0  0  0  0
   -0.4270    1.4968    4.6656 H   0  0  0  0  0  0  0  0  0  0  0  0
   -2.0565    0.9649    5.1327 H   0  0  0  0  0  0  0  0  0  0  0  0
   -0.7281   -0.2137    5.0125 H   0  0  0  0  0  0  0  0  0  0  0  0
  5  6  2  0  0  0  0
  5  7  1  0  0  0  0
  2  3  1  0  0  0  0
  2  4  1  0  0  0  0
  2  5  1  0  0  0  0
  1  2  1  0  0  0  0
 27 28  2  0  0  0  0
 27 29  1  0  0  0  0
 23 24  1  0  0  0  0
 23 25  1  0  0  0  0
 23 26  1  0  0  0  0
 20 21  1  0  0  0  0
 20 22  1  0  0  0  0
 20 23  1  0  0  0  0
 17 18  1  0  0  0  0
 17 19  1  0  0  0  0
 17 20  1  0  0  0  0
 14 15  1  0  0  0  0
 14 16  1  0  0  0  0
 14 17  1  0  0  0  0
 11 12  1  0  0  0  0
 11 13  1  0  0  0  0
 11 14  1  0  0  0  0
  9 10  1  0  0  0  0
  9 11  1  0  0  0  0
  9 27  1  0  0  0  0
  7  8  1  0  0  0  0
  7  9  1  0  0  0  0
 31 32  1  0  0  0  0
 31 33  1  0  0  0  0
 31 34  1  0  0  0  0
 29 30  1  0  0  0  0
 29 31  1  0  0  0  0
M  CHG  1  23   1
M  END
$$$$
default_name
  -OEChem-02102213163D

 34 33  0     1  0  0  0  0  0999 V2000
   -3.8899   -3.6747    1.6490 H   0  0  0  0  0  0  0  0  0  0  0  0
   -3.9109   -2.6717    1.2250 C   0  0  0  0  0  0  0  0  0  0  0  0
   -4.6009   -2.0517    1.7950 H   0  0  0  0  0  0  0  0  0  0  0  0
   -4.2309   -2.7237    0.1860 H   0  0  0  0  0  0  0  0  0  0  0  0
   -2.5229   -2.0787    1.2980 C   0  0  0  0  0  0  0  0  0  0  0  0
   -1.5999   -2.7227    1.7810 O   0  0  0  0  0  0  0  0  0  0  0  0
   -2.3659   -0.8447    0.8120 N   0  0  0  0  0  0  0  0  0  0  0  0
   -3.1749   -0.3807    0.4220 H   0  0  0  0  0  0  0  0  0  0  0  0
   -1.0919   -0.1077    0.8170 C   0  0  1  0  0  0  0  0  0  0  0  0
   -0.3571   -0.6901    0.2581 H   0  0  0  0  0  0  0  0  0  0  0  0
   -1.3037    1.2411    0.1040 C   0  0  0  0  0  0  0  0  0  0  0  0
   -2.2465    1.2003   -0.4439 H   0  0  0  0  0  0  0  0  0  0  0  0
   -1.3784    2.0339    0.8509 H   0  0  0  0  0  0  0  0  0  0  0  0
   -0.1828    1.5850   -0.8887 C   0  0  0  0  0  0  0  0  0  0  0  0
    0.2354    0.6668   -1.3033 H   0  0  0  0  0  0  0  0  0  0  0  0
   -0.5942    2.1877   -1.7008 H   0  0  0  0  0  0  0  0  0  0  0  0
    0.9311    2.3728   -0.1853 C   0  0  0  0  0  0  0  0  0  0  0  0
    0.5062    3.2844    0.2416 H   0  0  0  0  0  0  0  0  0  0  0  0
    1.3453    1.7623    0.6196 H   0  0  0  0  0  0  0  0  0  0  0  0
    2.0393    2.7384   -1.1807 C   0  0  0  0  0  0  0  0  0  0  0  0
    2.4461    1.8134   -1.6023 H   0  0  0  0  0  0  0  0  0  0  0  0
    1.5955    3.3130   -1.9994 H   0  0  0  0  0  0  0  0  0  0  0  0
    3.1197    3.5226   -0.5310 N   0  3  0  0  0  0  0  0  0  0  0  0
    3.5414    2.9918    0.2208 H   0  0  0  0  0  0  0  0  0  0  0  0
    3.8422    3.7559   -1.2007 H   0  0  0  0  0  0  0  0  0  0  0  0
    2.7498    4.3842   -0.1468 H   0  0  0  0  0  0  0  0  0  0  0  0
   -0.5865    0.0771    2.2496 C   0  0  0  0  0  0  0  0  0  0  0  0
    0.5860   -0.1608    2.5143 O   0  0  0  0  0  0  0  0  0  0  0  0
   -1.4786    0.4656    3.1667 N   0  0  0  0  0  0  0  0  0  0  0  0
   -2.4139    0.6698    2.8558 H   0  0  0  0  0  0  0  0  0  0  0  0
   -1.1587    0.6908    4.5775 C   0  0  0  0  0  0  0  0  0  0  0  0
   -0.4270    1.4968    4.6656 H   0  0  0  0  0  0  0  0  0  0  0  0
   -2.0565    0.9649    5.1327 H   0  0  0  0  0  0  0  0  0  0  0  0
   -0.7281   -0.2137    5.0125 H   0  0  0  0  0  0  0  0  0  0  0  0
  5  6  2  0  0  0  0
  5  7  1  0  0  0  0
  2  3  1  0  0  0  0
  2  4  1  0  0  0  0
  2  5  1  0  0  0  0
  1  2  1  0  0  0  0
 27 28  2  0  0  0  0
 27 29  1  0  0  0  0
 23 24  1  0  0  0  0
 23 25  1  0  0  0  0
 23 26  1  0  0  0  0
 20 21  1  0  0  0  0
 20 22  1  0  0  0  0
 20 23  1  0  0  0  0
 17 18  1  0  0  0  0
 17 19  1  0  0  0  0
 17 20  1  0  0  0  0
 14 15  1  0  0  0  0
 14 16  1  0  0  0  0
 14 17  1  0  0  0  0
 11 12  1  0  0  0  0
 11 13  1  0  0  0  0
 11 14  1  0  0  0  0
  9 10  1  0  0  0  0
  9 11  1  0  0  0  0
  9 27  1  0  0  0  0
  7  8  1  0  0  0  0
  7  9  1  0  0  0  0
 31 32  1  0  0  0  0
 31 33  1  0  0  0  0
 31 34  1  0  0  0  0
 29 30  1  0  0  0  0
 29 31  1  0  0  0  0
M  CHG  1  23   1
M  END
$$$$
default_name
  -OEChem-02102213163D

 34 33  0     1  0  0  0  0  0999 V2000
   -3.8899   -3.6747    1.6490 H   0  0  0  0  0  0  0  0  0  0  0  0
   -3.9109   -2.6717    1.2250 C   0  0  0  0  0  0  0  0  0  0  0  0
   -4.6009   -2.0517    1.7950 H   0  0  0  0  0  0  0  0  0  0  0  0
   -4.2309   -2.7237    0.1860 H   0  0  0  0  0  0  0  0  0  0  0  0
   -2.5229   -2.0787    1.2980 C   0  0  0  0  0  0  0  0  0  0  0  0
   -1.5999   -2.7227    1.7810 O   0  0  0  0  0  0  0  0  0  0  0  0
   -2.3659   -0.8447    0.8120 N   0  0  0  0  0  0  0  0  0  0  0  0
   -3.1749   -0.3807    0.4220 H   0  0  0  0  0  0  0  0  0  0  0  0
   -1.0919   -0.1077    0.8170 C   0  0  1  0  0  0  0  0  0  0  0  0
   -0.3571   -0.6901    0.2581 H   0  0  0  0  0  0  0  0  0  0  0  0
   -1.3037    1.2411    0.1040 C   0  0  0  0  0  0  0  0  0  0  0  0
   -2.2465    1.2003   -0.4439 H   0  0  0  0  0  0  0  0  0  0  0  0
   -1.3784    2.0339    0.8509 H   0  0  0  0  0  0  0  0  0  0  0  0
   -0.1828    1.5850   -0.8887 C   0  0  0  0  0  0  0  0  0  0  0  0
    0.0527    0.7092   -1.4949 H   0  0  0  0  0  0  0  0  0  0  0  0
   -0.5175    2.3921   -1.5433 H   0  0  0  0  0  0  0  0  0  0  0  0
    1.0789    2.0309   -0.1368 C   0  0  0  0  0  0  0  0  0  0  0  0
    0.8362    2.8990    0.4807 H   0  0  0  0  0  0  0  0  0  0  0  0
    1.4147    1.2172    0.5091 H   0  0  0  0  0  0  0  0  0  0  0  0
    2.1909    2.3984   -1.1273 C   0  0  0  0  0  0  0  0  0  0  0  0
    2.4137    1.5193   -1.7407 H   0  0  0  0  0  0  0  0  0  0  0  0
    1.8193    3.1848   -1.7911 H   0  0  0  0  0  0  0  0  0  0  0  0
    3.4169    2.8567   -0.4262 N   0  3  0  0  0  0  0  0  0  0  0  0
    3.7716    2.1292    0.1819 H   0  0  0  0  0  0  0  0  0  0  0  0
    4.1402    3.0954   -1.0931 H   0  0  0  0  0  0  0  0  0  0  0  0
    3.2179    3.6757    0.1363 H   0  0  0  0  0  0  0  0  0  0  0  0
   -0.5865    0.0771    2.2496 C   0  0  0  0  0  0  0  0  0  0  0  0
    0.5860   -0.1608    2.5143 O   0  0  0  0  0  0  0  0  0  0  0  0
   -1.4786    0.4656    3.1667 N   0  0  0  0  0  0  0  0  0  0  0  0
   -2.4139    0.6698    2.8558 H   0  0  0  0  0  0  0  0  0  0  0  0
   -1.1587    0.6908    4.5775 C   0  0  0  0  0  0  0  0  0  0  0  0
   -0.4270    1.4968    4.6656 H   0  0  0  0  0  0  0  0  0  0  0  0
   -2.0565    0.9649    5.1327 H   0  0  0  0  0  0  0  0  0  0  0  0
   -0.7281   -0.2137    5.0125 H   0  0  0  0  0  0  0  0  0  0  0  0
  5  6  2  0  0  0  0
  5  7  1  0  0  0  0
  2  3  1  0  0  0  0
  2  4  1  0  0  0  0
  2  5  1  0  0  0  0
  1  2  1  0  0  0  0
 27 28  2  0  0  0  0
 27 29  1  0  0  0  0
 23 24  1  0  0  0  0
 23 25  1  0  0  0  0
 23 26  1  0  0  0  0
 20 21  1  0  0  0  0
 20 22  1  0  0  0  0
 20 23  1  0  0  0  0
 17 18  1  0  0  0  0
 17 19  1  0  0  0  0
 17 20  1  0  0  0  0
 14 15  1  0  0  0  0
 14 16  1  0  0  0  0
 14 17  1  0  0  0  0
 11 12  1  0  0  0  0
 11 13  1  0  0  0  0
 11 14  1  0  0  0  0
  9 10  1  0  0  0  0
  9 11  1  0  0  0  0
  9 27  1  0  0  0  0
  7  8  1  0  0  0  0
  7  9  1  0  0  0  0
 31 32  1  0  0  0  0
 31 33  1  0  0  0  0
 31 34  1  0  0  0  0
 29 30  1  0  0  0  0
 29 31  1  0  0  0  0
M  CHG  1  23   1
M  END
$$$$
default_name
  -OEChem-02102213163D

 34 33  0     1  0  0  0  0  0999 V2000
   -3.8899   -3.6747    1.6490 H   0  0  0  0  0  0  0  0  0  0  0  0
   -3.9109   -2.6717    1.2250 C   0  0  0  0  0  0  0  0  0  0  0  0
   -4.6009   -2.0517    1.7950 H   0  0  0  0  0  0  0  0  0  0  0  0
   -4.2309   -2.7237    0.1860 H   0  0  0  0  0  0  0  0  0  0  0  0
   -2.5229   -2.0787    1.2980 C   0  0  0  0  0  0  0  0  0  0  0  0
   -1.5999   -2.7227    1.7810 O   0  0  0  0  0  0  0  0  0  0  0  0
   -2.3659   -0.8447    0.8120 N   0  0  0  0  0  0  0  0  0  0  0  0
   -3.1749   -0.3807    0.4220 H   0  0  0  0  0  0  0  0  0  0  0  0
   -1.0919   -0.1077    0.8170 C   0  0  1  0  0  0  0  0  0  0  0  0
   -0.3571   -0.6901    0.2581 H   0  0  0  0  0  0  0  0  0  0  0  0
   -1.3037    1.2411    0.1040 C   0  0  0  0  0  0  0  0  0  0  0  0
   -2.2465    1.2003   -0.4439 H   0  0  0  0  0  0  0  0  0  0  0  0
   -1.3784    2.0339    0.8509 H   0  0  0  0  0  0  0  0  0  0  0  0
   -0.1828    1.5850   -0.8887 C   0  0  0  0  0  0  0  0  0  0  0  0
   -0.1278    0.8170   -1.6614 H   0  0  0  0  0  0  0  0  0  0  0  0
   -0.4001    2.5469   -1.3571 H   0  0  0  0  0  0  0  0  0  0  0  0
    1.1674    1.6668   -0.1631 C   0  0  0  0  0  0  0  0  0  0  0  0
    1.1044    2.4263    0.6198 H   0  0  0  0  0  0  0  0  0  0  0  0
    1.3843    0.7000    0.2955 H   0  0  0  0  0  0  0  0  0  0  0  0
    2.2837    2.0345   -1.1486 C   0  0  0  0  0  0  0  0  0  0  0  0
    2.3253    1.2667   -1.9280 H   0  0  0  0  0  0  0  0  0  0  0  0
    2.0260    2.9842   -1.6272 H   0  0  0  0  0  0  0  0  0  0  0  0
    3.5986    2.1439   -0.4679 N   0  3  0  0  0  0  0  0  0  0  0  0
    3.8475    1.2648   -0.0319 H   0  0  0  0  0  0  0  0  0  0  0  0
    4.3237    2.3872   -1.1312 H   0  0  0  0  0  0  0  0  0  0  0  0
    3.5679    2.8597    0.2488 H   0  0  0  0  0  0  0  0  0  0  0  0
   -0.5865    0.0771    2.2496 C   0  0  0  0  0  0  0  0  0  0  0  0
    0.5860   -0.1608    2.5143 O   0  0  0  0  0  0  0  0  0  0  0  0
   -1.4786    0.4656    3.1667 N   0  0  0  0  0  0  0  0  0  0  0  0
   -2.4139    0.6698    2.8558 H   0  0  0  0  0  0  0  0  0  0  0  0
   -1.1587    0.6908    4.5775 C   0  0  0  0  0  0  0  0  0  0  0  0
   -0.4270    1.4968    4.6656 H   0  0  0  0  0  0  0  0  0  0  0  0
   -2.0565    0.9649    5.1327 H   0  0  0  0  0  0  0  0  0  0  0  0
   -0.7281   -0.2137    5.0125 H   0  0  0  0  0  0  0  0  0  0  0  0
  5  6  2  0  0  0  0
  5  7  1  0  0  0  0
  2  3  1  0  0  0  0
  2  4  1  0  0  0  0
  2  5  1  0  0  0  0
  1  2  1  0  0  0  0
 27 28  2  0  0  0  0
 27 29  1  0  0  0  0
 23 24  1  0  0  0  0
 23 25  1  0  0  0  0
 23 26  1  0  0  0  0
 20 21  1  0  0  0  0
 20 22  1  0  0  0  0
 20 23  1  0  0  0  0
 17 18  1  0  0  0  0
 17 19  1  0  0  0  0
 17 20  1  0  0  0  0
 14 15  1  0  0  0  0
 14 16  1  0  0  0  0
 14 17  1  0  0  0  0
 11 12  1  0  0  0  0
 11 13  1  0  0  0  0
 11 14  1  0  0  0  0
  9 10  1  0  0  0  0
  9 11  1  0  0  0  0
  9 27  1  0  0  0  0
  7  8  1  0  0  0  0
  7  9  1  0  0  0  0
 31 32  1  0  0  0  0
 31 33  1  0  0  0  0
 31 34  1  0  0  0  0
 29 30  1  0  0  0  0
 29 31  1  0  0  0  0
M  CHG  1  23   1
M  END
$$$$
default_name
  -OEChem-02102213163D

 34 33  0     1  0  0  0  0  0999 V2000
   -3.8899   -3.6747    1.6490 H   0  0  0  0  0  0  0  0  0  0  0  0
   -3.9109   -2.6717    1.2250 C   0  0  0  0  0  0  0  0  0  0  0  0
   -4.6009   -2.0517    1.7950 H   0  0  0  0  0  0  0  0  0  0  0  0
   -4.2309   -2.7237    0.1860 H   0  0  0  0  0  0  0  0  0  0  0  0
   -2.5229   -2.0787    1.2980 C   0  0  0  0  0  0  0  0  0  0  0  0
   -1.5999   -2.7227    1.7810 O   0  0  0  0  0  0  0  0  0  0  0  0
   -2.3659   -0.8447    0.8120 N   0  0  0  0  0  0  0  0  0  0  0  0
   -3.1749   -0.3807    0.4220 H   0  0  0  0  0  0  0  0  0  0  0  0
   -1.0919   -0.1077    0.8170 C   0  0  1  0  0  0  0  0  0  0  0  0
   -0.3571   -0.6901    0.2581 H   0  0  0  0  0  0  0  0  0  0  0  0
   -1.3037    1.2411    0.1040 C   0  0  0  0  0  0  0  0  0  0  0  0
   -2.2465    1.2003   -0.4439 H   0  0  0  0  0  0  0  0  0  0  0  0
   -1.3784    2.0339    0.8509 H   0  0  0  0  0  0  0  0  0  0  0  0
   -0.1828    1.5850   -0.8887 C   0  0  0  0  0  0  0  0  0  0  0  0
   -0.2937    0.9826   -1.7914 H   0  0  0  0  0  0  0  0  0  0  0  0
   -0.2500    2.6417   -1.1549 H   0  0  0  0  0  0  0  0  0  0  0  0
    1.1904    1.3053   -0.2624 C   0  0  0  0  0  0  0  0  0  0  0  0
    1.2924    1.8987    0.6493 H   0  0  0  0  0  0  0  0  0  0  0  0
    1.2559    0.2458   -0.0067 H   0  0  0  0  0  0  0  0  0  0  0  0
    2.3112    1.6716   -1.2433 C   0  0  0  0  0  0  0  0  0  0  0  0
    2.1868    1.0729   -2.1516 H   0  0  0  0  0  0  0  0  0  0  0  0
    2.2017    2.7249   -1.5187 H   0  0  0  0  0  0  0  0  0  0  0  0
    3.6526    1.4329   -0.6533 N   0  3  0  0  0  0  0  0  0  0  0  0
    3.7638    0.4576   -0.4061 H   0  0  0  0  0  0  0  0  0  0  0  0
    4.3804    1.6797   -1.3124 H   0  0  0  0  0  0  0  0  0  0  0  0
    3.7760    1.9916    0.1830 H   0  0  0  0  0  0  0  0  0  0  0  0
   -0.5865    0.0771    2.2496 C   0  0  0  0  0  0  0  0  0  0  0  0
    0.5860   -0.1608    2.5143 O   0  0  0  0  0  0  0  0  0  0  0  0
   -1.4786    0.4656    3.1667 N   0  0  0  0  0  0  0  0  0  0  0  0
   -2.4139    0.6698    2.8558 H   0  0  0  0  0  0  0  0  0  0  0  0
   -1.1587    0.6908    4.5775 C   0  0  0  0  0  0  0  0  0  0  0  0
   -0.4270    1.4968    4.6656 H   0  0  0  0  0  0  0  0  0  0  0  0
   -2.0565    0.9649    5.1327 H   0  0  0  0  0  0  0  0  0  0  0  0
   -0.7281   -0.2137    5.0125 H   0  0  0  0  0  0  0  0  0  0  0  0
  5  6  2  0  0  0  0
  5  7  1  0  0  0  0
  2  3  1  0  0  0  0
  2  4  1  0  0  0  0
  2  5  1  0  0  0  0
  1  2  1  0  0  0  0
 27 28  2  0  0  0  0
 27 29  1  0  0  0  0
 23 24  1  0  0  0  0
 23 25  1  0  0  0  0
 23 26  1  0  0  0  0
 20 21  1  0  0  0  0
 20 22  1  0  0  0  0
 20 23  1  0  0  0  0
 17 18  1  0  0  0  0
 17 19  1  0  0  0  0
 17 20  1  0  0  0  0
 14 15  1  0  0  0  0
 14 16  1  0  0  0  0
 14 17  1  0  0  0  0
 11 12  1  0  0  0  0
 11 13  1  0  0  0  0
 11 14  1  0  0  0  0
  9 10  1  0  0  0  0
  9 11  1  0  0  0  0
  9 27  1  0  0  0  0
  7  8  1  0  0  0  0
  7  9  1  0  0  0  0
 31 32  1  0  0  0  0
 31 33  1  0  0  0  0
 31 34  1  0  0  0  0
 29 30  1  0  0  0  0
 29 31  1  0  0  0  0
M  CHG  1  23   1
M  END
$$$$
default_name
  -OEChem-02102213163D

 34 33  0     1  0  0  0  0  0999 V2000
   -3.8899   -3.6747    1.6490 H   0  0  0  0  0  0  0  0  0  0  0  0
   -3.9109   -2.6717    1.2250 C   0  0  0  0  0  0  0  0  0  0  0  0
   -4.6009   -2.0517    1.7950 H   0  0  0  0  0  0  0  0  0  0  0  0
   -4.2309   -2.7237    0.1860 H   0  0  0  0  0  0  0  0  0  0  0  0
   -2.5229   -2.0787    1.2980 C   0  0  0  0  0  0  0  0  0  0  0  0
   -1.5999   -2.7227    1.7810 O   0  0  0  0  0  0  0  0  0  0  0  0
   -2.3659   -0.8447    0.8120 N   0  0  0  0  0  0  0  0  0  0  0  0
   -3.1749   -0.3807    0.4220 H   0  0  0  0  0  0  0  0  0  0  0  0
   -1.0919   -0.1077    0.8170 C   0  0  1  0  0  0  0  0  0  0  0  0
   -0.3571   -0.6901    0.2581 H   0  0  0  0  0  0  0  0  0  0  0  0
   -1.3037    1.2411    0.1040 C   0  0  0  0  0  0  0  0  0  0  0  0
   -2.2465    1.2003   -0.4439 H   0  0  0  0  0  0  0  0  0  0  0  0
   -1.3784    2.0339    0.8509 H   0  0  0  0  0  0  0  0  0  0  0  0
   -0.1828    1.5850   -0.8887 C   0  0  0  0  0  0  0  0  0  0  0  0
   -0.4339    1.1950   -1.8760 H   0  0  0  0  0  0  0  0  0  0  0  0
   -0.0775    2.6699   -0.9503 H   0  0  0  0  0  0  0  0  0  0  0  0
    1.1464    0.9710   -0.4279 C   0  0  0  0  0  0  0  0  0  0  0  0
    1.3875    1.3520    0.5673 H   0  0  0  0  0  0  0  0  0  0  0  0
    1.0385   -0.1143   -0.3770 H   0  0  0  0  0  0  0  0  0  0  0  0
    2.2715    1.3343   -1.4050 C   0  0  0  0  0  0  0  0  0  0  0  0
    2.0077    0.9511   -2.3961 H   0  0  0  0  0  0  0  0  0  0  0  0
    2.3343    2.4246   -1.4730 H   0  0  0  0  0  0  0  0  0  0  0  0
    3.5750    0.7722   -0.9698 N   0  3  0  0  0  0  0  0  0  0  0  0
    3.5263   -0.2375   -0.9151 H   0  0  0  0  0  0  0  0  0  0  0  0
    4.3063    1.0209   -1.6243 H   0  0  0  0  0  0  0  0  0  0  0  0
    3.8281    1.1307   -0.0564 H   0  0  0  0  0  0  0  0  0  0  0  0
   -0.5865    0.0771    2.2496 C   0  0  0  0  0  0  0  0  0  0  0  0
    0.5860   -0.1608    2.5143 O   0  0  0  0  0  0  0  0  0  0  0  0
   -1.4786    0.4656    3.1667 N   0  0  0  0  0  0  0  0  0  0  0  0
   -2.4139    0.6698    2.8558 H   0  0  0  0  0  0  0  0  0  0  0  0
   -1.1587    0.6908    4.5775 C   0  0  0  0  0  0  0  0  0  0  0  0
   -0.4270    1.4968    4.6656 H   0  0  0  0  0  0  0  0  0  0  0  0
   -2.0565    0.9649    5.1327 H   0  0  0  0  0  0  0  0  0  0  0  0
   -0.7281   -0.2137    5.0125 H   0  0  0  0  0  0  0  0  0  0  0  0
  5  6  2  0  0  0  0
  5  7  1  0  0  0  0
  2  3  1  0  0  0  0
  2  4  1  0  0  0  0
  2  5  1  0  0  0  0
  1  2  1  0  0  0  0
 27 28  2  0  0  0  0
 27 29  1  0  0  0  0
 23 24  1  0  0  0  0
 23 25  1  0  0  0  0
 23 26  1  0  0  0  0
 20 21  1  0  0  0  0
 20 22  1  0  0  0  0
 20 23  1  0  0  0  0
 17 18  1  0  0  0  0
 17 19  1  0  0  0  0
 17 20  1  0  0  0  0
 14 15  1  0  0  0  0
 14 16  1  0  0  0  0
 14 17  1  0  0  0  0
 11 12  1  0  0  0  0
 11 13  1  0  0  0  0
 11 14  1  0  0  0  0
  9 10  1  0  0  0  0
  9 11  1  0  0  0  0
  9 27  1  0  0  0  0
  7  8  1  0  0  0  0
  7  9  1  0  0  0  0
 31 32  1  0  0  0  0
 31 33  1  0  0  0  0
 31 34  1  0  0  0  0
 29 30  1  0  0  0  0
 29 31  1  0  0  0  0
M  CHG  1  23   1
M  END
$$$$
default_name
  -OEChem-02102213163D

 34 33  0     1  0  0  0  0  0999 V2000
   -3.8899   -3.6747    1.6490 H   0  0  0  0  0  0  0  0  0  0  0  0
   -3.9109   -2.6717    1.2250 C   0  0  0  0  0  0  0  0  0  0  0  0
   -4.6009   -2.0517    1.7950 H   0  0  0  0  0  0  0  0  0  0  0  0
   -4.2309   -2.7237    0.1860 H   0  0  0  0  0  0  0  0  0  0  0  0
   -2.5229   -2.0787    1.2980 C   0  0  0  0  0  0  0  0  0  0  0  0
   -1.5999   -2.7227    1.7810 O   0  0  0  0  0  0  0  0  0  0  0  0
   -2.3659   -0.8447    0.8120 N   0  0  0  0  0  0  0  0  0  0  0  0
   -3.1749   -0.3807    0.4220 H   0  0  0  0  0  0  0  0  0  0  0  0
   -1.0919   -0.1077    0.8170 C   0  0  1  0  0  0  0  0  0  0  0  0
   -0.3571   -0.6901    0.2581 H   0  0  0  0  0  0  0  0  0  0  0  0
   -1.3037    1.2411    0.1040 C   0  0  0  0  0  0  0  0  0  0  0  0
   -2.2465    1.2003   -0.4439 H   0  0  0  0  0  0  0  0  0  0  0  0
   -1.3784    2.0339    0.8509 H   0  0  0  0  0  0  0  0  0  0  0  0
   -0.1828    1.5850   -0.8887 C   0  0  0  0  0  0  0  0  0  0  0  0
   -0.5386    1.4395   -1.9096 H   0  0  0  0  0  0  0  0  0  0  0  0
    0.1057    2.6297   -0.7573 H   0  0  0  0  0  0  0  0  0  0  0  0
    1.0384    0.6867   -0.6484 C   0  0  0  0  0  0  0  0  0  0  0  0
    1.3832    0.8236    0.3793 H   0  0  0  0  0  0  0  0  0  0  0  0
    0.7469   -0.3559   -0.7901 H   0  0  0  0  0  0  0  0  0  0  0  0
    2.1675    1.0456   -1.6225 C   0  0  0  0  0  0  0  0  0  0  0  0
    1.8001    0.9096   -2.6448 H   0  0  0  0  0  0  0  0  0  0  0  0
    2.4148    2.1036   -1.4933 H   0  0  0  0  0  0  0  0  0  0  0  0
    3.3713    0.2067   -1.3958 N   0  3  0  0  0  0  0  0  0  0  0  0
    3.1511   -0.7731   -1.5243 H   0  0  0  0  0  0  0  0  0  0  0  0
    4.1065    0.4560   -2.0457 H   0  0  0  0  0  0  0  0  0  0  0  0
    3.7205    0.3357   -0.4533 H   0  0  0  0  0  0  0  0  0  0  0  0
   -0.5865    0.0771    2.2496 C   0  0  0  0  0  0  0  0  0  0  0  0
    0.5860   -0.1608    2.5143 O   0  0  0  0  0  0  0  0  0  0  0  0
   -1.4786    0.4656    3.1667 N   0  0  0  0  0  0  0  0  0  0  0  0
   -2.4139    0.6698    2.8558 H   0  0  0  0  0  0  0  0  0  0  0  0
   -1.1587    0.6908    4.5775 C   0  0  0  0  0  0  0  0  0  0  0  0
   -0.4270    1.4968    4.6656 H   0  0  0  0  0  0  0  0  0  0  0  0
   -2.0565    0.9649    5.1327 H   0  0  0  0  0  0  0  0  0  0  0  0
   -0.7281   -0.2137    5.0125 H   0  0  0  0  0  0  0  0  0  0  0  0
  5  6  2  0  0  0  0
  5  7  1  0  0  0  0
  2  3  1  0  0  0  0
  2  4  1  0  0  0  0
  2  5  1  0  0  0  0
  1  2  1  0  0  0  0
 27 28  2  0  0  0  0
 27 29  1  0  0  0  0
 23 24  1  0  0  0  0
 23 25  1  0  0  0  0
 23 26  1  0  0  0  0
 20 21  1  0  0  0  0
 20 22  1  0  0  0  0
 20 23  1  0  0  0  0
 17 18  1  0  0  0  0
 17 19  1  0  0  0  0
 17 20  1  0  0  0  0
 14 15  1  0  0  0  0
 14 16  1  0  0  0  0
 14 17  1  0  0  0  0
 11 12  1  0  0  0  0
 11 13  1  0  0  0  0
 11 14  1  0  0  0  0
  9 10  1  0  0  0  0
  9 11  1  0  0  0  0
  9 27  1  0  0  0  0
  7  8  1  0  0  0  0
  7  9  1  0  0  0  0
 31 32  1  0  0  0  0
 31 33  1  0  0  0  0
 31 34  1  0  0  0  0
 29 30  1  0  0  0  0
 29 31  1  0  0  0  0
M  CHG  1  23   1
M  END
$$$$
default_name
  -OEChem-02102213163D

 34 33  0     1  0  0  0  0  0999 V2000
   -3.8899   -3.6747    1.6490 H   0  0  0  0  0  0  0  0  0  0  0  0
   -3.9109   -2.6717    1.2250 C   0  0  0  0  0  0  0  0  0  0  0  0
   -4.6009   -2.0517    1.7950 H   0  0  0  0  0  0  0  0  0  0  0  0
   -4.2309   -2.7237    0.1860 H   0  0  0  0  0  0  0  0  0  0  0  0
   -2.5229   -2.0787    1.2980 C   0  0  0  0  0  0  0  0  0  0  0  0
   -1.5999   -2.7227    1.7810 O   0  0  0  0  0  0  0  0  0  0  0  0
   -2.3659   -0.8447    0.8120 N   0  0  0  0  0  0  0  0  0  0  0  0
   -3.1749   -0.3807    0.4220 H   0  0  0  0  0  0  0  0  0  0  0  0
   -1.0919   -0.1077    0.8170 C   0  0  1  0  0  0  0  0  0  0  0  0
   -0.3571   -0.6901    0.2581 H   0  0  0  0  0  0  0  0  0  0  0  0
   -1.3037    1.2411    0.1040 C   0  0  0  0  0  0  0  0  0  0  0  0
   -2.2465    1.2003   -0.4439 H   0  0  0  0  0  0  0  0  0  0  0  0
   -1.3784    2.0339    0.8509 H   0  0  0  0  0  0  0  0  0  0  0  0
   -0.1828    1.5850   -0.8887 C   0  0  0  0  0  0  0  0  0  0  0  0
   -0.6008    1.6995   -1.8897 H   0  0  0  0  0  0  0  0  0  0  0  0
    0.2871    2.5238   -0.5891 H   0  0  0  0  0  0  0  0  0  0  0  0
    0.8738    0.4717   -0.9087 C   0  0  0  0  0  0  0  0  0  0  0  0
    1.2798    0.3493    0.0982 H   0  0  0  0  0  0  0  0  0  0  0  0
    0.4008   -0.4625   -1.2178 H   0  0  0  0  0  0  0  0  0  0  0  0
    2.0061    0.8253   -1.8810 C   0  0  0  0  0  0  0  0  0  0  0  0
    1.5783    0.9511   -2.8810 H   0  0  0  0  0  0  0  0  0  0  0  0
    2.4377    1.7840   -1.5781 H   0  0  0  0  0  0  0  0  0  0  0  0
    3.0553   -0.2251   -1.9023 N   0  3  0  0  0  0  0  0  0  0  0  0
    2.6639   -1.1126   -2.1921 H   0  0  0  0  0  0  0  0  0  0  0  0
    3.7946    0.0233   -2.5478 H   0  0  0  0  0  0  0  0  0  0  0  0
    3.4607   -0.3393   -0.9806 H   0  0  0  0  0  0  0  0  0  0  0  0
   -0.5865    0.0771    2.2496 C   0  0  0  0  0  0  0  0  0  0  0  0
    0.5860   -0.1608    2.5143 O   0  0  0  0  0  0  0  0  0  0  0  0
   -1.4786    0.4656    3.1667 N   0  0  0  0  0  0  0  0  0  0  0  0
   -2.4139    0.6698    2.8558 H   0  0  0  0  0  0  0  0  0  0  0  0
   -1.1587    0.6908    4.5775 C   0  0  0  0  0  0  0  0  0  0  0  0
   -0.4270    1.4968    4.6656 H   0  0  0  0  0  0  0  0  0  0  0  0
   -2.0565    0.9649    5.1327 H   0  0  0  0  0  0  0  0  0  0  0  0
   -0.7281   -0.2137    5.0125 H   0  0  0  0  0  0  0  0  0  0  0  0
  5  6  2  0  0  0  0
  5  7  1  0  0  0  0
  2  3  1  0  0  0  0
  2  4  1  0  0  0  0
  2  5  1  0  0  0  0
  1  2  1  0  0  0  0
 27 28  2  0  0  0  0
 27 29  1  0  0  0  0
 23 24  1  0  0  0  0
 23 25  1  0  0  0  0
 23 26  1  0  0  0  0
 20 21  1  0  0  0  0
 20 22  1  0  0  0  0
 20 23  1  0  0  0  0
 17 18  1  0  0  0  0
 17 19  1  0  0  0  0
 17 20  1  0  0  0  0
 14 15  1  0  0  0  0
 14 16  1  0  0  0  0
 14 17  1  0  0  0  0
 11 12  1  0  0  0  0
 11 13  1  0  0  0  0
 11 14  1  0  0  0  0
  9 10  1  0  0  0  0
  9 11  1  0  0  0  0
  9 27  1  0  0  0  0
  7  8  1  0  0  0  0
  7  9  1  0  0  0  0
 31 32  1  0  0  0  0
 31 33  1  0  0  0  0
 31 34  1  0  0  0  0
 29 30  1  0  0  0  0
 29 31  1  0  0  0  0
M  CHG  1  23   1
M  END
$$$$
default_name
  -OEChem-02102213163D

 34 33  0     1  0  0  0  0  0999 V2000
   -3.8899   -3.6747    1.6490 H   0  0  0  0  0  0  0  0  0  0  0  0
   -3.9109   -2.6717    1.2250 C   0  0  0  0  0  0  0  0  0  0  0  0
   -4.6009   -2.0517    1.7950 H   0  0  0  0  0  0  0  0  0  0  0  0
   -4.2309   -2.7237    0.1860 H   0  0  0  0  0  0  0  0  0  0  0  0
   -2.5229   -2.0787    1.2980 C   0  0  0  0  0  0  0  0  0  0  0  0
   -1.5999   -2.7227    1.7810 O   0  0  0  0  0  0  0  0  0  0  0  0
   -2.3659   -0.8447    0.8120 N   0  0  0  0  0  0  0  0  0  0  0  0
   -3.1749   -0.3807    0.4220 H   0  0  0  0  0  0  0  0  0  0  0  0
   -1.0919   -0.1077    0.8170 C   0  0  1  0  0  0  0  0  0  0  0  0
   -0.3571   -0.6901    0.2581 H   0  0  0  0  0  0  0  0  0  0  0  0
   -1.3037    1.2411    0.1040 C   0  0  0  0  0  0  0  0  0  0  0  0
   -2.2465    1.2003   -0.4439 H   0  0  0  0  0  0  0  0  0  0  0  0
   -1.3784    2.0339    0.8509 H   0  0  0  0  0  0  0  0  0  0  0  0
   -0.1828    1.5850   -0.8887 C   0  0  0  0  0  0  0  0  0  0  0  0
   -0.6163    1.9574   -1.8179 H   0  0  0  0  0  0  0  0  0  0  0  0
    0.4544    2.3594   -0.4572 H   0  0  0  0  0  0  0  0  0  0  0  0
    0.6637    0.3408   -1.1913 C   0  0  0  0  0  0  0  0  0  0  0  0
    1.0843   -0.0384   -0.2569 H   0  0  0  0  0  0  0  0  0  0  0  0
    0.0239   -0.4268   -1.6310 H   0  0  0  0  0  0  0  0  0  0  0  0
    1.7984    0.6883   -2.1631 C   0  0  0  0  0  0  0  0  0  0  0  0
    1.3572    1.0730   -3.0883 H   0  0  0  0  0  0  0  0  0  0  0  0
    2.4015    1.4875   -1.7218 H   0  0  0  0  0  0  0  0  0  0  0  0
    2.6484   -0.4936   -2.4547 N   0  3  0  0  0  0  0  0  0  0  0  0
    2.0978   -1.2330   -2.8730 H   0  0  0  0  0  0  0  0  0  0  0  0
    3.3918   -0.2477   -3.0964 H   0  0  0  0  0  0  0  0  0  0  0  0
    3.0663   -0.8482   -1.6023 H   0  0  0  0  0  0  0  0  0  0  0  0
   -0.5865    0.0771    2.2496 C   0  0  0  0  0  0  0  0  0  0  0  0
    0.5860   -0.1608    2.5143 O   0  0  0  0  0  0  0  0  0  0  0  0
   -1.4786    0.4656    3.1667 N   0  0  0  0  0  0  0  0  0  0  0  0
   -2.4139    0.6698    2.8558 H   0  0  0  0  0  0  0  0  0  0  0  0
   -1.1587    0.6908    4.5775 C   0  0  0  0  0  0  0  0  0  0  0  0
   -0.4270    1.4968    4.6656 H   0  0  0  0  0  0  0  0  0  0  0  0
   -2.0565    0.9649    5.1327 H   0  0  0  0  0  0  0  0  0  0  0  0
   -0.7281   -0.2137    5.0125 H   0  0  0  0  0  0  0  0  0  0  0  0
  5  6  2  0  0  0  0
  5  7  1  0  0  0  0
  2  3  1  0  0  0  0
  2  4  1  0  0  0  0
  2  5  1  0  0  0  0
  1  2  1  0  0  0  0
 27 28  2  0  0  0  0
 27 29  1  0  0  0  0
 23 24  1  0  0  0  0
 23 25  1  0  0  0  0
 23 26  1  0  0  0  0
 20 21  1  0  0  0  0
 20 22  1  0  0  0  0
 20 23  1  0  0  0  0
 17 18  1  0  0  0  0
 17 19  1  0  0  0  0
 17 20  1  0  0  0  0
 14 15  1  0  0  0  0
 14 16  1  0  0  0  0
 14 17  1  0  0  0  0
 11 12  1  0  0  0  0
 11 13  1  0  0  0  0
 11 14  1  0  0  0  0
  9 10  1  0  0  0  0
  9 11  1  0  0  0  0
  9 27  1  0  0  0  0
  7  8  1  0  0  0  0
  7  9  1  0  0  0  0
 31 32  1  0  0  0  0
 31 33  1  0  0  0  0
 31 34  1  0  0  0  0
 29 30  1  0  0  0  0
 29 31  1  0  0  0  0
M  CHG  1  23   1
M  END
$$$$
default_name
  -OEChem-02102213163D

 34 33  0     1  0  0  0  0  0999 V2000
   -3.8899   -3.6747    1.6490 H   0  0  0  0  0  0  0  0  0  0  0  0
   -3.9109   -2.6717    1.2250 C   0  0  0  0  0  0  0  0  0  0  0  0
   -4.6009   -2.0517    1.7950 H   0  0  0  0  0  0  0  0  0  0  0  0
   -4.2309   -2.7237    0.1860 H   0  0  0  0  0  0  0  0  0  0  0  0
   -2.5229   -2.0787    1.2980 C   0  0  0  0  0  0  0  0  0  0  0  0
   -1.5999   -2.7227    1.7810 O   0  0  0  0  0  0  0  0  0  0  0  0
   -2.3659   -0.8447    0.8120 N   0  0  0  0  0  0  0  0  0  0  0  0
   -3.1749   -0.3807    0.4220 H   0  0  0  0  0  0  0  0  0  0  0  0
   -1.0919   -0.1077    0.8170 C   0  0  1  0  0  0  0  0  0  0  0  0
   -0.3571   -0.6901    0.2581 H   0  0  0  0  0  0  0  0  0  0  0  0
   -1.3037    1.2411    0.1040 C   0  0  0  0  0  0  0  0  0  0  0  0
   -2.2465    1.2003   -0.4439 H   0  0  0  0  0  0  0  0  0  0  0  0
   -1.3784    2.0339    0.8509 H   0  0  0  0  0  0  0  0  0  0  0  0
   -0.1828    1.5850   -0.8887 C   0  0  0  0  0  0  0  0  0  0  0  0
   -0.5840    2.1955   -1.6989 H   0  0  0  0  0  0  0  0  0  0  0  0
    0.5962    2.1477   -0.3705 H   0  0  0  0  0  0  0  0  0  0  0  0
    0.4225    0.3029   -1.4768 C   0  0  0  0  0  0  0  0  0  0  0  0
    0.8100   -0.3131   -0.6617 H   0  0  0  0  0  0  0  0  0  0  0  0
   -0.3582   -0.2513   -2.0016 H   0  0  0  0  0  0  0  0  0  0  0  0
    1.5585    0.6439   -2.4493 C   0  0  0  0  0  0  0  0  0  0  0  0
    1.1521    1.2668   -3.2528 H   0  0  0  0  0  0  0  0  0  0  0  0
    2.3086    1.2343   -1.9144 H   0  0  0  0  0  0  0  0  0  0  0  0
    2.1785   -0.5806   -3.0154 N   0  3  0  0  0  0  0  0  0  0  0  0
    1.4914   -1.1260   -3.5207 H   0  0  0  0  0  0  0  0  0  0  0  0
    2.9257   -0.3385   -3.6542 H   0  0  0  0  0  0  0  0  0  0  0  0
    2.5641   -1.1565   -2.2761 H   0  0  0  0  0  0  0  0  0  0  0  0
   -0.5865    0.0771    2.2496 C   0  0  0  0  0  0  0  0  0  0  0  0
    0.5860   -0.1608    2.5143 O   0  0  0  0  0  0  0  0  0  0  0  0
   -1.4786    0.4656    3.1667 N   0  0  0  0  0  0  0  0  0  0  0  0
   -2.4139    0.6698    2.8558 H   0  0  0  0  0  0  0  0  0  0  0  0
   -1.1587    0.6908    4.5775 C   0  0  0  0  0  0  0  0  0  0  0  0
   -0.4270    1.4968    4.6656 H   0  0  0  0  0  0  0  0  0  0  0  0
   -2.0565    0.9649    5.1327 H   0  0  0  0  0  0  0  0  0  0  0  0
   -0.7281   -0.2137    5.0125 H   0  0  0  0  0  0  0  0  0  0  0  0
  5  6  2  0  0  0  0
  5  7  1  0  0  0  0
  2  3  1  0  0  0  0
  2  4  1  0  0  0  0
  2  5  1  0  0  0  0
  1  2  1  0  0  0  0
 27 28  2  0  0  0  0
 27 29  1  0  0  0  0
 23 24  1  0  0  0  0
 23 25  1  0  0  0  0
 23 26  1  0  0  0  0
 20 21  1  0  0  0  0
 20 22  1  0  0  0  0
 20 23  1  0  0  0  0
 17 18  1  0  0  0  0
 17 19  1  0  0  0  0
 17 20  1  0  0  0  0
 14 15  1  0  0  0  0
 14 16  1  0  0  0  0
 14 17  1  0  0  0  0
 11 12  1  0  0  0  0
 11 13  1  0  0  0  0
 11 14  1  0  0  0  0
  9 10  1  0  0  0  0
  9 11  1  0  0  0  0
  9 27  1  0  0  0  0
  7  8  1  0  0  0  0
  7  9  1  0  0  0  0
 31 32  1  0  0  0  0
 31 33  1  0  0  0  0
 31 34  1  0  0  0  0
 29 30  1  0  0  0  0
 29 31  1  0  0  0  0
M  CHG  1  23   1
M  END
$$$$
default_name
  -OEChem-02102213163D

 34 33  0     1  0  0  0  0  0999 V2000
   -3.8899   -3.6747    1.6490 H   0  0  0  0  0  0  0  0  0  0  0  0
   -3.9109   -2.6717    1.2250 C   0  0  0  0  0  0  0  0  0  0  0  0
   -4.6009   -2.0517    1.7950 H   0  0  0  0  0  0  0  0  0  0  0  0
   -4.2309   -2.7237    0.1860 H   0  0  0  0  0  0  0  0  0  0  0  0
   -2.5229   -2.0787    1.2980 C   0  0  0  0  0  0  0  0  0  0  0  0
   -1.5999   -2.7227    1.7810 O   0  0  0  0  0  0  0  0  0  0  0  0
   -2.3659   -0.8447    0.8120 N   0  0  0  0  0  0  0  0  0  0  0  0
   -3.1749   -0.3807    0.4220 H   0  0  0  0  0  0  0  0  0  0  0  0
   -1.0919   -0.1077    0.8170 C   0  0  1  0  0  0  0  0  0  0  0  0
   -0.3571   -0.6901    0.2581 H   0  0  0  0  0  0  0  0  0  0  0  0
   -1.3037    1.2411    0.1040 C   0  0  0  0  0  0  0  0  0  0  0  0
   -2.2465    1.2003   -0.4439 H   0  0  0  0  0  0  0  0  0  0  0  0
   -1.3784    2.0339    0.8509 H   0  0  0  0  0  0  0  0  0  0  0  0
   -0.1828    1.5850   -0.8887 C   0  0  0  0  0  0  0  0  0  0  0  0
   -0.5060    2.3976   -1.5408 H   0  0  0  0  0  0  0  0  0  0  0  0
    0.7027    1.9031   -0.3350 H   0  0  0  0  0  0  0  0  0  0  0  0
    0.1667    0.3605   -1.7457 C   0  0  0  0  0  0  0  0  0  0  0  0
    0.4757   -0.4562   -1.0888 H   0  0  0  0  0  0  0  0  0  0  0  0
   -0.7193    0.0521   -2.3042 H   0  0  0  0  0  0  0  0  0  0  0  0
    1.3028    0.6953   -2.7203 C   0  0  0  0  0  0  0  0  0  0  0  0
    0.9768    1.5194   -3.3632 H   0  0  0  0  0  0  0  0  0  0  0  0
    2.1653    1.0416   -2.1429 H   0  0  0  0  0  0  0  0  0  0  0  0
    1.6776   -0.4802   -3.5463 N   0  3  0  0  0  0  0  0  0  0  0  0
    0.8860   -0.7989   -4.0909 H   0  0  0  0  0  0  0  0  0  0  0  0
    2.4280   -0.2430   -4.1832 H   0  0  0  0  0  0  0  0  0  0  0  0
    1.9885   -1.2430   -2.9561 H   0  0  0  0  0  0  0  0  0  0  0  0
   -0.5865    0.0771    2.2496 C   0  0  0  0  0  0  0  0  0  0  0  0
    0.5860   -0.1608    2.5143 O   0  0  0  0  0  0  0  0  0  0  0  0
   -1.4786    0.4656    3.1667 N   0  0  0  0  0  0  0  0  0  0  0  0
   -2.4139    0.6698    2.8558 H   0  0  0  0  0  0  0  0  0  0  0  0
   -1.1587    0.6908    4.5775 C   0  0  0  0  0  0  0  0  0  0  0  0
   -0.4270    1.4968    4.6656 H   0  0  0  0  0  0  0  0  0  0  0  0
   -2.0565    0.9649    5.1327 H   0  0  0  0  0  0  0  0  0  0  0  0
   -0.7281   -0.2137    5.0125 H   0  0  0  0  0  0  0  0  0  0  0  0
  5  6  2  0  0  0  0
  5  7  1  0  0  0  0
  2  3  1  0  0  0  0
  2  4  1  0  0  0  0
  2  5  1  0  0  0  0
  1  2  1  0  0  0  0
 27 28  2  0  0  0  0
 27 29  1  0  0  0  0
 23 24  1  0  0  0  0
 23 25  1  0  0  0  0
 23 26  1  0  0  0  0
 20 21  1  0  0  0  0
 20 22  1  0  0  0  0
 20 23  1  0  0  0  0
 17 18  1  0  0  0  0
 17 19  1  0  0  0  0
 17 20  1  0  0  0  0
 14 15  1  0  0  0  0
 14 16  1  0  0  0  0
 14 17  1  0  0  0  0
 11 12  1  0  0  0  0
 11 13  1  0  0  0  0
 11 14  1  0  0  0  0
  9 10  1  0  0  0  0
  9 11  1  0  0  0  0
  9 27  1  0  0  0  0
  7  8  1  0  0  0  0
  7  9  1  0  0  0  0
 31 32  1  0  0  0  0
 31 33  1  0  0  0  0
 31 34  1  0  0  0  0
 29 30  1  0  0  0  0
 29 31  1  0  0  0  0
M  CHG  1  23   1
M  END
$$$$
default_name
  -OEChem-02102213163D

 34 33  0     1  0  0  0  0  0999 V2000
   -3.8899   -3.6747    1.6490 H   0  0  0  0  0  0  0  0  0  0  0  0
   -3.9109   -2.6717    1.2250 C   0  0  0  0  0  0  0  0  0  0  0  0
   -4.6009   -2.0517    1.7950 H   0  0  0  0  0  0  0  0  0  0  0  0
   -4.2309   -2.7237    0.1860 H   0  0  0  0  0  0  0  0  0  0  0  0
   -2.5229   -2.0787    1.2980 C   0  0  0  0  0  0  0  0  0  0  0  0
   -1.5999   -2.7227    1.7810 O   0  0  0  0  0  0  0  0  0  0  0  0
   -2.3659   -0.8447    0.8120 N   0  0  0  0  0  0  0  0  0  0  0  0
   -3.1749   -0.3807    0.4220 H   0  0  0  0  0  0  0  0  0  0  0  0
   -1.0919   -0.1077    0.8170 C   0  0  1  0  0  0  0  0  0  0  0  0
   -0.3571   -0.6901    0.2581 H   0  0  0  0  0  0  0  0  0  0  0  0
   -1.3037    1.2411    0.1040 C   0  0  0  0  0  0  0  0  0  0  0  0
   -2.2465    1.2003   -0.4439 H   0  0  0  0  0  0  0  0  0  0  0  0
   -1.3784    2.0339    0.8509 H   0  0  0  0  0  0  0  0  0  0  0  0
   -0.1828    1.5850   -0.8887 C   0  0  0  0  0  0  0  0  0  0  0  0
   -0.3878    2.5499   -1.3545 H   0  0  0  0  0  0  0  0  0  0  0  0
    0.7667    1.6424   -0.3530 H   0  0  0  0  0  0  0  0  0  0  0  0
   -0.0864    0.5096   -1.9798 C   0  0  0  0  0  0  0  0  0  0  0  0
    0.1041   -0.4578   -1.5090 H   0  0  0  0  0  0  0  0  0  0  0  0
   -1.0349    0.4628   -2.5184 H   0  0  0  0  0  0  0  0  0  0  0  0
    1.0486    0.8388   -2.9575 C   0  0  0  0  0  0  0  0  0  0  0  0
    0.8434    1.8135   -3.4120 H   0  0  0  0  0  0  0  0  0  0  0  0
    1.9815    0.9226   -2.3918 H   0  0  0  0  0  0  0  0  0  0  0  0
    1.1798   -0.1992   -4.0110 N   0  3  0  0  0  0  0  0  0  0  0  0
    0.3230   -0.2740   -4.5449 H   0  0  0  0  0  0  0  0  0  0  0  0
    1.9325    0.0325   -4.6472 H   0  0  0  0  0  0  0  0  0  0  0  0
    1.3786   -1.1019   -3.5959 H   0  0  0  0  0  0  0  0  0  0  0  0
   -0.5865    0.0771    2.2496 C   0  0  0  0  0  0  0  0  0  0  0  0
    0.5860   -0.1608    2.5143 O   0  0  0  0  0  0  0  0  0  0  0  0
   -1.4786    0.4656    3.1667 N   0  0  0  0  0  0  0  0  0  0  0  0
   -2.4139    0.6698    2.8558 H   0  0  0  0  0  0  0  0  0  0  0  0
   -1.1587    0.6908    4.5775 C   0  0  0  0  0  0  0  0  0  0  0  0
   -0.4270    1.4968    4.6656 H   0  0  0  0  0  0  0  0  0  0  0  0
   -2.0565    0.9649    5.1327 H   0  0  0  0  0  0  0  0  0  0  0  0
   -0.7281   -0.2137    5.0125 H   0  0  0  0  0  0  0  0  0  0  0  0
  5  6  2  0  0  0  0
  5  7  1  0  0  0  0
  2  3  1  0  0  0  0
  2  4  1  0  0  0  0
  2  5  1  0  0  0  0
  1  2  1  0  0  0  0
 27 28  2  0  0  0  0
 27 29  1  0  0  0  0
 23 24  1  0  0  0  0
 23 25  1  0  0  0  0
 23 26  1  0  0  0  0
 20 21  1  0  0  0  0
 20 22  1  0  0  0  0
 20 23  1  0  0  0  0
 17 18  1  0  0  0  0
 17 19  1  0  0  0  0
 17 20  1  0  0  0  0
 14 15  1  0  0  0  0
 14 16  1  0  0  0  0
 14 17  1  0  0  0  0
 11 12  1  0  0  0  0
 11 13  1  0  0  0  0
 11 14  1  0  0  0  0
  9 10  1  0  0  0  0
  9 11  1  0  0  0  0
  9 27  1  0  0  0  0
  7  8  1  0  0  0  0
  7  9  1  0  0  0  0
 31 32  1  0  0  0  0
 31 33  1  0  0  0  0
 31 34  1  0  0  0  0
 29 30  1  0  0  0  0
 29 31  1  0  0  0  0
M  CHG  1  23   1
M  END
$$$$
default_name
  -OEChem-02102213163D

 34 33  0     1  0  0  0  0  0999 V2000
   -3.8899   -3.6747    1.6490 H   0  0  0  0  0  0  0  0  0  0  0  0
   -3.9109   -2.6717    1.2250 C   0  0  0  0  0  0  0  0  0  0  0  0
   -4.6009   -2.0517    1.7950 H   0  0  0  0  0  0  0  0  0  0  0  0
   -4.2309   -2.7237    0.1860 H   0  0  0  0  0  0  0  0  0  0  0  0
   -2.5229   -2.0787    1.2980 C   0  0  0  0  0  0  0  0  0  0  0  0
   -1.5999   -2.7227    1.7810 O   0  0  0  0  0  0  0  0  0  0  0  0
   -2.3659   -0.8447    0.8120 N   0  0  0  0  0  0  0  0  0  0  0  0
   -3.1749   -0.3807    0.4220 H   0  0  0  0  0  0  0  0  0  0  0  0
   -1.0919   -0.1077    0.8170 C   0  0  1  0  0  0  0  0  0  0  0  0
   -0.3571   -0.6901    0.2581 H   0  0  0  0  0  0  0  0  0  0  0  0
   -1.3037    1.2411    0.1040 C   0  0  0  0  0  0  0  0  0  0  0  0
   -2.2465    1.2003   -0.4439 H   0  0  0  0  0  0  0  0  0  0  0  0
   -1.3784    2.0339    0.8509 H   0  0  0  0  0  0  0  0  0  0  0  0
   -0.1828    1.5850   -0.8887 C   0  0  0  0  0  0  0  0  0  0  0  0
   -0.2373    2.6420   -1.1526 H   0  0  0  0  0  0  0  0  0  0  0  0
    0.7840    1.3832   -0.4233 H   0  0  0  0  0  0  0  0  0  0  0  0
   -0.3194    0.7403   -2.1630 C   0  0  0  0  0  0  0  0  0  0  0  0
   -0.2795   -0.3179   -1.8936 H   0  0  0  0  0  0  0  0  0  0  0  0
   -1.2835    0.9526   -2.6294 H   0  0  0  0  0  0  0  0  0  0  0  0
    0.8134    1.0647   -3.1448 C   0  0  0  0  0  0  0  0  0  0  0  0
    0.7608    2.1291   -3.3959 H   0  0  0  0  0  0  0  0  0  0  0  0
    1.7696    0.8854   -2.6439 H   0  0  0  0  0  0  0  0  0  0  0  0
    0.7190    0.2433   -4.3780 N   0  3  0  0  0  0  0  0  0  0  0  0
   -0.1595    0.4128   -4.8517 H   0  0  0  0  0  0  0  0  0  0  0  0
    1.4731    0.4690   -5.0147 H   0  0  0  0  0  0  0  0  0  0  0  0
    0.7761   -0.7428   -4.1519 H   0  0  0  0  0  0  0  0  0  0  0  0
   -0.5865    0.0771    2.2496 C   0  0  0  0  0  0  0  0  0  0  0  0
    0.5860   -0.1608    2.5143 O   0  0  0  0  0  0  0  0  0  0  0  0
   -1.4786    0.4656    3.1667 N   0  0  0  0  0  0  0  0  0  0  0  0
   -2.4139    0.6698    2.8558 H   0  0  0  0  0  0  0  0  0  0  0  0
   -1.1587    0.6908    4.5775 C   0  0  0  0  0  0  0  0  0  0  0  0
   -0.4270    1.4968    4.6656 H   0  0  0  0  0  0  0  0  0  0  0  0
   -2.0565    0.9649    5.1327 H   0  0  0  0  0  0  0  0  0  0  0  0
   -0.7281   -0.2137    5.0125 H   0  0  0  0  0  0  0  0  0  0  0  0
  5  6  2  0  0  0  0
  5  7  1  0  0  0  0
  2  3  1  0  0  0  0
  2  4  1  0  0  0  0
  2  5  1  0  0  0  0
  1  2  1  0  0  0  0
 27 28  2  0  0  0  0
 27 29  1  0  0  0  0
 23 24  1  0  0  0  0
 23 25  1  0  0  0  0
 23 26  1  0  0  0  0
 20 21  1  0  0  0  0
 20 22  1  0  0  0  0
 20 23  1  0  0  0  0
 17 18  1  0  0  0  0
 17 19  1  0  0  0  0
 17 20  1  0  0  0  0
 14 15  1  0  0  0  0
 14 16  1  0  0  0  0
 14 17  1  0  0  0  0
 11 12  1  0  0  0  0
 11 13  1  0  0  0  0
 11 14  1  0  0  0  0
  9 10  1  0  0  0  0
  9 11  1  0  0  0  0
  9 27  1  0  0  0  0
  7  8  1  0  0  0  0
  7  9  1  0  0  0  0
 31 32  1  0  0  0  0
 31 33  1  0  0  0  0
 31 34  1  0  0  0  0
 29 30  1  0  0  0  0
 29 31  1  0  0  0  0
M  CHG  1  23   1
M  END
$$$$
default_name
  -OEChem-02102213163D

 34 33  0     1  0  0  0  0  0999 V2000
   -3.8899   -3.6747    1.6490 H   0  0  0  0  0  0  0  0  0  0  0  0
   -3.9109   -2.6717    1.2250 C   0  0  0  0  0  0  0  0  0  0  0  0
   -4.6009   -2.0517    1.7950 H   0  0  0  0  0  0  0  0  0  0  0  0
   -4.2309   -2.7237    0.1860 H   0  0  0  0  0  0  0  0  0  0  0  0
   -2.5229   -2.0787    1.2980 C   0  0  0  0  0  0  0  0  0  0  0  0
   -1.5999   -2.7227    1.7810 O   0  0  0  0  0  0  0  0  0  0  0  0
   -2.3659   -0.8447    0.8120 N   0  0  0  0  0  0  0  0  0  0  0  0
   -3.1749   -0.3807    0.4220 H   0  0  0  0  0  0  0  0  0  0  0  0
   -1.0919   -0.1077    0.8170 C   0  0  1  0  0  0  0  0  0  0  0  0
   -0.3571   -0.6901    0.2581 H   0  0  0  0  0  0  0  0  0  0  0  0
   -1.3037    1.2411    0.1040 C   0  0  0  0  0  0  0  0  0  0  0  0
   -2.2465    1.2003   -0.4439 H   0  0  0  0  0  0  0  0  0  0  0  0
   -1.3784    2.0339    0.8509 H   0  0  0  0  0  0  0  0  0  0  0  0
   -0.1828    1.5850   -0.8887 C   0  0  0  0  0  0  0  0  0  0  0  0
   -0.0648    2.6678   -0.9490 H   0  0  0  0  0  0  0  0  0  0  0  0
    0.7532    1.1432   -0.5412 H   0  0  0  0  0  0  0  0  0  0  0  0
   -0.5166    1.0366   -2.2830 C   0  0  0  0  0  0  0  0  0  0  0  0
   -0.6488   -0.0459   -2.2165 H   0  0  0  0  0  0  0  0  0  0  0  0
   -1.4482    1.4883   -2.6296 H   0  0  0  0  0  0  0  0  0  0  0  0
    0.6132    1.3577   -3.2694 C   0  0  0  0  0  0  0  0  0  0  0  0
    0.7348    2.4448   -3.3159 H   0  0  0  0  0  0  0  0  0  0  0  0
    1.5441    0.9325   -2.8823 H   0  0  0  0  0  0  0  0  0  0  0  0
    0.3267    0.8171   -4.6223 N   0  3  0  0  0  0  0  0  0  0  0  0
   -0.5284    1.2149   -4.9903 H   0  0  0  0  0  0  0  0  0  0  0  0
    1.0811    1.0369   -5.2606 H   0  0  0  0  0  0  0  0  0  0  0  0
    0.2219   -0.1902   -4.5862 H   0  0  0  0  0  0  0  0  0  0  0  0
   -0.5865    0.0771    2.2496 C   0  0  0  0  0  0  0  0  0  0  0  0
    0.5860   -0.1608    2.5143 O   0  0  0  0  0  0  0  0  0  0  0  0
   -1.4786    0.4656    3.1667 N   0  0  0  0  0  0  0  0  0  0  0  0
   -2.4139    0.6698    2.8558 H   0  0  0  0  0  0  0  0  0  0  0  0
   -1.1587    0.6908    4.5775 C   0  0  0  0  0  0  0  0  0  0  0  0
   -0.4270    1.4968    4.6656 H   0  0  0  0  0  0  0  0  0  0  0  0
   -2.0565    0.9649    5.1327 H   0  0  0  0  0  0  0  0  0  0  0  0
   -0.7281   -0.2137    5.0125 H   0  0  0  0  0  0  0  0  0  0  0  0
  5  6  2  0  0  0  0
  5  7  1  0  0  0  0
  2  3  1  0  0  0  0
  2  4  1  0  0  0  0
  2  5  1  0  0  0  0
  1  2  1  0  0  0  0
 27 28  2  0  0  0  0
 27 29  1  0  0  0  0
 23 24  1  0  0  0  0
 23 25  1  0  0  0  0
 23 26  1  0  0  0  0
 20 21  1  0  0  0  0
 20 22  1  0  0  0  0
 20 23  1  0  0  0  0
 17 18  1  0  0  0  0
 17 19  1  0  0  0  0
 17 20  1  0  0  0  0
 14 15  1  0  0  0  0
 14 16  1  0  0  0  0
 14 17  1  0  0  0  0
 11 12  1  0  0  0  0
 11 13  1  0  0  0  0
 11 14  1  0  0  0  0
  9 10  1  0  0  0  0
  9 11  1  0  0  0  0
  9 27  1  0  0  0  0
  7  8  1  0  0  0  0
  7  9  1  0  0  0  0
 31 32  1  0  0  0  0
 31 33  1  0  0  0  0
 31 34  1  0  0  0  0
 29 30  1  0  0  0  0
 29 31  1  0  0  0  0
M  CHG  1  23   1
M  END
$$$$
default_name
  -OEChem-02102213163D

 34 33  0     1  0  0  0  0  0999 V2000
   -3.8899   -3.6747    1.6490 H   0  0  0  0  0  0  0  0  0  0  0  0
   -3.9109   -2.6717    1.2250 C   0  0  0  0  0  0  0  0  0  0  0  0
   -4.6009   -2.0517    1.7950 H   0  0  0  0  0  0  0  0  0  0  0  0
   -4.2309   -2.7237    0.1860 H   0  0  0  0  0  0  0  0  0  0  0  0
   -2.5229   -2.0787    1.2980 C   0  0  0  0  0  0  0  0  0  0  0  0
   -1.5999   -2.7227    1.7810 O   0  0  0  0  0  0  0  0  0  0  0  0
   -2.3659   -0.8447    0.8120 N   0  0  0  0  0  0  0  0  0  0  0  0
   -3.1749   -0.3807    0.4220 H   0  0  0  0  0  0  0  0  0  0  0  0
   -1.0919   -0.1077    0.8170 C   0  0  1  0  0  0  0  0  0  0  0  0
   -0.3571   -0.6901    0.2581 H   0  0  0  0  0  0  0  0  0  0  0  0
   -1.3037    1.2411    0.1040 C   0  0  0  0  0  0  0  0  0  0  0  0
   -2.2465    1.2003   -0.4439 H   0  0  0  0  0  0  0  0  0  0  0  0
   -1.3784    2.0339    0.8509 H   0  0  0  0  0  0  0  0  0  0  0  0
   -0.1828    1.5850   -0.8887 C   0  0  0  0  0  0  0  0  0  0  0  0
    0.1179    2.6253   -0.7574 H   0  0  0  0  0  0  0  0  0  0  0  0
    0.6765    0.9389   -0.6986 H   0  0  0  0  0  0  0  0  0  0  0  0
   -0.6644    1.3785   -2.3315 C   0  0  0  0  0  0  0  0  0  0  0  0
   -0.9789    0.3395   -2.4556 H   0  0  0  0  0  0  0  0  0  0  0  0
   -1.5176    2.0334   -2.5192 H   0  0  0  0  0  0  0  0  0  0  0  0
    0.4615    1.6977   -3.3229 C   0  0  0  0  0  0  0  0  0  0  0  0
    0.7671    2.7389   -3.1775 H   0  0  0  0  0  0  0  0  0  0  0  0
    1.3203    1.0607   -3.0905 H   0  0  0  0  0  0  0  0  0  0  0  0
    0.0295    1.4830   -4.7271 N   0  3  0  0  0  0  0  0  0  0  0  0
   -0.7586    2.0775   -4.9514 H   0  0  0  0  0  0  0  0  0  0  0  0
    0.7832    1.6975   -5.3681 H   0  0  0  0  0  0  0  0  0  0  0  0
   -0.2462    0.5183   -4.8692 H   0  0  0  0  0  0  0  0  0  0  0  0
   -0.5865    0.0771    2.2496 C   0  0  0  0  0  0  0  0  0  0  0  0
    0.5860   -0.1608    2.5143 O   0  0  0  0  0  0  0  0  0  0  0  0
   -1.4786    0.4656    3.1667 N   0  0  0  0  0  0  0  0  0  0  0  0
   -2.4139    0.6698    2.8558 H   0  0  0  0  0  0  0  0  0  0  0  0
   -1.1587    0.6908    4.5775 C   0  0  0  0  0  0  0  0  0  0  0  0
   -0.4270    1.4968    4.6656 H   0  0  0  0  0  0  0  0  0  0  0  0
   -2.0565    0.9649    5.1327 H   0  0  0  0  0  0  0  0  0  0  0  0
   -0.7281   -0.2137    5.0125 H   0  0  0  0  0  0  0  0  0  0  0  0
  5  6  2  0  0  0  0
  5  7  1  0  0  0  0
  2  3  1  0  0  0  0
  2  4  1  0  0  0  0
  2  5  1  0  0  0  0
  1  2  1  0  0  0  0
 27 28  2  0  0  0  0
 27 29  1  0  0  0  0
 23 24  1  0  0  0  0
 23 25  1  0  0  0  0
 23 26  1  0  0  0  0
 20 21  1  0  0  0  0
 20 22  1  0  0  0  0
 20 23  1  0  0  0  0
 17 18  1  0  0  0  0
 17 19  1  0  0  0  0
 17 20  1  0  0  0  0
 14 15  1  0  0  0  0
 14 16  1  0  0  0  0
 14 17  1  0  0  0  0
 11 12  1  0  0  0  0
 11 13  1  0  0  0  0
 11 14  1  0  0  0  0
  9 10  1  0  0  0  0
  9 11  1  0  0  0  0
  9 27  1  0  0  0  0
  7  8  1  0  0  0  0
  7  9  1  0  0  0  0
 31 32  1  0  0  0  0
 31 33  1  0  0  0  0
 31 34  1  0  0  0  0
 29 30  1  0  0  0  0
 29 31  1  0  0  0  0
M  CHG  1  23   1
M  END
$$$$
default_name
  -OEChem-02102213163D

 34 33  0     1  0  0  0  0  0999 V2000
   -3.8899   -3.6747    1.6490 H   0  0  0  0  0  0  0  0  0  0  0  0
   -3.9109   -2.6717    1.2250 C   0  0  0  0  0  0  0  0  0  0  0  0
   -4.6009   -2.0517    1.7950 H   0  0  0  0  0  0  0  0  0  0  0  0
   -4.2309   -2.7237    0.1860 H   0  0  0  0  0  0  0  0  0  0  0  0
   -2.5229   -2.0787    1.2980 C   0  0  0  0  0  0  0  0  0  0  0  0
   -1.5999   -2.7227    1.7810 O   0  0  0  0  0  0  0  0  0  0  0  0
   -2.3659   -0.8447    0.8120 N   0  0  0  0  0  0  0  0  0  0  0  0
   -3.1749   -0.3807    0.4220 H   0  0  0  0  0  0  0  0  0  0  0  0
   -1.0919   -0.1077    0.8170 C   0  0  1  0  0  0  0  0  0  0  0  0
   -0.3571   -0.6901    0.2581 H   0  0  0  0  0  0  0  0  0  0  0  0
   -1.3037    1.2411    0.1040 C   0  0  0  0  0  0  0  0  0  0  0  0
   -2.2465    1.2003   -0.4439 H   0  0  0  0  0  0  0  0  0  0  0  0
   -1.3784    2.0339    0.8509 H   0  0  0  0  0  0  0  0  0  0  0  0
   -0.1828    1.5850   -0.8887 C   0  0  0  0  0  0  0  0  0  0  0  0
    0.2984    2.5176   -0.5909 H   0  0  0  0  0  0  0  0  0  0  0  0
    0.5591    0.7841   -0.8848 H   0  0  0  0  0  0  0  0  0  0  0  0
   -0.7528    1.7426   -2.3052 C   0  0  0  0  0  0  0  0  0  0  0  0
   -1.2470    0.8121   -2.5946 H   0  0  0  0  0  0  0  0  0  0  0  0
   -1.4871    2.5506   -2.3056 H   0  0  0  0  0  0  0  0  0  0  0  0
    0.3688    2.0615   -3.3016 C   0  0  0  0  0  0  0  0  0  0  0  0
    0.8556    2.9915   -2.9901 H   0  0  0  0  0  0  0  0  0  0  0  0
    1.1136    1.2613   -3.2544 H   0  0  0  0  0  0  0  0  0  0  0  0
   -0.1523    2.1958   -4.6854 N   0  3  0  0  0  0  0  0  0  0  0  0
   -0.8344    2.9419   -4.7376 H   0  0  0  0  0  0  0  0  0  0  0  0
    0.5996    2.4057   -5.3300 H   0  0  0  0  0  0  0  0  0  0  0  0
   -0.5962    1.3344   -4.9817 H   0  0  0  0  0  0  0  0  0  0  0  0
   -0.5865    0.0771    2.2496 C   0  0  0  0  0  0  0  0  0  0  0  0
    0.5860   -0.1608    2.5143 O   0  0  0  0  0  0  0  0  0  0  0  0
   -1.4786    0.4656    3.1667 N   0  0  0  0  0  0  0  0  0  0  0  0
   -2.4139    0.6698    2.8558 H   0  0  0  0  0  0  0  0  0  0  0  0
   -1.1587    0.6908    4.5775 C   0  0  0  0  0  0  0  0  0  0  0  0
   -0.4270    1.4968    4.6656 H   0  0  0  0  0  0  0  0  0  0  0  0
   -2.0565    0.9649    5.1327 H   0  0  0  0  0  0  0  0  0  0  0  0
   -0.7281   -0.2137    5.0125 H   0  0  0  0  0  0  0  0  0  0  0  0
  5  6  2  0  0  0  0
  5  7  1  0  0  0  0
  2  3  1  0  0  0  0
  2  4  1  0  0  0  0
  2  5  1  0  0  0  0
  1  2  1  0  0  0  0
 27 28  2  0  0  0  0
 27 29  1  0  0  0  0
 23 24  1  0  0  0  0
 23 25  1  0  0  0  0
 23 26  1  0  0  0  0
 20 21  1  0  0  0  0
 20 22  1  0  0  0  0
 20 23  1  0  0  0  0
 17 18  1  0  0  0  0
 17 19  1  0  0  0  0
 17 20  1  0  0  0  0
 14 15  1  0  0  0  0
 14 16  1  0  0  0  0
 14 17  1  0  0  0  0
 11 12  1  0  0  0  0
 11 13  1  0  0  0  0
 11 14  1  0  0  0  0
  9 10  1  0  0  0  0
  9 11  1  0  0  0  0
  9 27  1  0  0  0  0
  7  8  1  0  0  0  0
  7  9  1  0  0  0  0
 31 32  1  0  0  0  0
 31 33  1  0  0  0  0
 31 34  1  0  0  0  0
 29 30  1  0  0  0  0
 29 31  1  0  0  0  0
M  CHG  1  23   1
M  END
$$$$
default_name
  -OEChem-02102213163D

 34 33  0     1  0  0  0  0  0999 V2000
   -3.8899   -3.6747    1.6490 H   0  0  0  0  0  0  0  0  0  0  0  0
   -3.9109   -2.6717    1.2250 C   0  0  0  0  0  0  0  0  0  0  0  0
   -4.6009   -2.0517    1.7950 H   0  0  0  0  0  0  0  0  0  0  0  0
   -4.2309   -2.7237    0.1860 H   0  0  0  0  0  0  0  0  0  0  0  0
   -2.5229   -2.0787    1.2980 C   0  0  0  0  0  0  0  0  0  0  0  0
   -1.5999   -2.7227    1.7810 O   0  0  0  0  0  0  0  0  0  0  0  0
   -2.3659   -0.8447    0.8120 N   0  0  0  0  0  0  0  0  0  0  0  0
   -3.1749   -0.3807    0.4220 H   0  0  0  0  0  0  0  0  0  0  0  0
   -1.0919   -0.1077    0.8170 C   0  0  1  0  0  0  0  0  0  0  0  0
   -0.3571   -0.6901    0.2581 H   0  0  0  0  0  0  0  0  0  0  0  0
   -1.3037    1.2411    0.1040 C   0  0  0  0  0  0  0  0  0  0  0  0
   -2.2465    1.2003   -0.4439 H   0  0  0  0  0  0  0  0  0  0  0  0
   -1.3784    2.0339    0.8509 H   0  0  0  0  0  0  0  0  0  0  0  0
   -0.1828    1.5850   -0.8887 C   0  0  0  0  0  0  0  0  0  0  0  0
    0.4643    2.3519   -0.4609 H   0  0  0  0  0  0  0  0  0  0  0  0
    0.4090    0.6893   -1.0871 H   0  0  0  0  0  0  0  0  0  0  0  0
   -0.7758    2.1041   -2.2059 C   0  0  0  0  0  0  0  0  0  0  0  0
   -1.4351    1.3397   -2.6242 H   0  0  0  0  0  0  0  0  0  0  0  0
   -1.3588    3.0048   -2.0034 H   0  0  0  0  0  0  0  0  0  0  0  0
    0.3413    2.4245   -3.2068 C   0  0  0  0  0  0  0  0  0  0  0  0
    0.9940    3.1853   -2.7666 H   0  0  0  0  0  0  0  0  0  0  0  0
    0.9379    1.5206   -3.3630 H   0  0  0  0  0  0  0  0  0  0  0  0
   -0.2062    2.9067   -4.5000 N   0  3  0  0  0  0  0  0  0  0  0  0
   -0.7508    3.7491   -4.3634 H   0  0  0  0  0  0  0  0  0  0  0  0
    0.5430    3.1132   -5.1489 H   0  0  0  0  0  0  0  0  0  0  0  0
   -0.8043    2.2024   -4.9160 H   0  0  0  0  0  0  0  0  0  0  0  0
   -0.5865    0.0771    2.2496 C   0  0  0  0  0  0  0  0  0  0  0  0
    0.5860   -0.1608    2.5143 O   0  0  0  0  0  0  0  0  0  0  0  0
   -1.4786    0.4656    3.1667 N   0  0  0  0  0  0  0  0  0  0  0  0
   -2.4139    0.6698    2.8558 H   0  0  0  0  0  0  0  0  0  0  0  0
   -1.1587    0.6908    4.5775 C   0  0  0  0  0  0  0  0  0  0  0  0
   -0.4270    1.4968    4.6656 H   0  0  0  0  0  0  0  0  0  0  0  0
   -2.0565    0.9649    5.1327 H   0  0  0  0  0  0  0  0  0  0  0  0
   -0.7281   -0.2137    5.0125 H   0  0  0  0  0  0  0  0  0  0  0  0
  5  6  2  0  0  0  0
  5  7  1  0  0  0  0
  2  3  1  0  0  0  0
  2  4  1  0  0  0  0
  2  5  1  0  0  0  0
  1  2  1  0  0  0  0
 27 28  2  0  0  0  0
 27 29  1  0  0  0  0
 23 24  1  0  0  0  0
 23 25  1  0  0  0  0
 23 26  1  0  0  0  0
 20 21  1  0  0  0  0
 20 22  1  0  0  0  0
 20 23  1  0  0  0  0
 17 18  1  0  0  0  0
 17 19  1  0  0  0  0
 17 20  1  0  0  0  0
 14 15  1  0  0  0  0
 14 16  1  0  0  0  0
 14 17  1  0  0  0  0
 11 12  1  0  0  0  0
 11 13  1  0  0  0  0
 11 14  1  0  0  0  0
  9 10  1  0  0  0  0
  9 11  1  0  0  0  0
  9 27  1  0  0  0  0
  7  8  1  0  0  0  0
  7  9  1  0  0  0  0
 31 32  1  0  0  0  0
 31 33  1  0  0  0  0
 31 34  1  0  0  0  0
 29 30  1  0  0  0  0
 29 31  1  0  0  0  0
M  CHG  1  23   1
M  END
$$$$
default_name
  -OEChem-02102213163D

 34 33  0     1  0  0  0  0  0999 V2000
   -3.8899   -3.6747    1.6490 H   0  0  0  0  0  0  0  0  0  0  0  0
   -3.9109   -2.6717    1.2250 C   0  0  0  0  0  0  0  0  0  0  0  0
   -4.6009   -2.0517    1.7950 H   0  0  0  0  0  0  0  0  0  0  0  0
   -4.2309   -2.7237    0.1860 H   0  0  0  0  0  0  0  0  0  0  0  0
   -2.5229   -2.0787    1.2980 C   0  0  0  0  0  0  0  0  0  0  0  0
   -1.5999   -2.7227    1.7810 O   0  0  0  0  0  0  0  0  0  0  0  0
   -2.3659   -0.8447    0.8120 N   0  0  0  0  0  0  0  0  0  0  0  0
   -3.1749   -0.3807    0.4220 H   0  0  0  0  0  0  0  0  0  0  0  0
   -1.0919   -0.1077    0.8170 C   0  0  1  0  0  0  0  0  0  0  0  0
   -0.3571   -0.6901    0.2581 H   0  0  0  0  0  0  0  0  0  0  0  0
   -1.3037    1.2411    0.1040 C   0  0  0  0  0  0  0  0  0  0  0  0
   -2.2465    1.2003   -0.4439 H   0  0  0  0  0  0  0  0  0  0  0  0
   -1.3784    2.0339    0.8509 H   0  0  0  0  0  0  0  0  0  0  0  0
   -0.1828    1.5850   -0.8887 C   0  0  0  0  0  0  0  0  0  0  0  0
    0.6045    2.1396   -0.3763 H   0  0  0  0  0  0  0  0  0  0  0  0
    0.2365    0.6610   -1.2917 H   0  0  0  0  0  0  0  0  0  0  0  0
   -0.7319    2.4384   -2.0404 C   0  0  0  0  0  0  0  0  0  0  0  0
   -1.5302    1.8864   -2.5422 H   0  0  0  0  0  0  0  0  0  0  0  0
   -1.1414    3.3650   -1.6331 H   0  0  0  0  0  0  0  0  0  0  0  0
    0.3809    2.7618   -3.0452 C   0  0  0  0  0  0  0  0  0  0  0  0
    1.1732    3.3071   -2.5221 H   0  0  0  0  0  0  0  0  0  0  0  0
    0.8053    1.8210   -3.4086 H   0  0  0  0  0  0  0  0  0  0  0  0
   -0.1287    3.5675   -4.1835 N   0  3  0  0  0  0  0  0  0  0  0  0
   -0.5133    4.4442   -3.8544 H   0  0  0  0  0  0  0  0  0  0  0  0
    0.6171    3.7719   -4.8370 H   0  0  0  0  0  0  0  0  0  0  0  0
   -0.8564    3.0633   -4.6765 H   0  0  0  0  0  0  0  0  0  0  0  0
   -0.5865    0.0771    2.2496 C   0  0  0  0  0  0  0  0  0  0  0  0
    0.5860   -0.1608    2.5143 O   0  0  0  0  0  0  0  0  0  0  0  0
   -1.4786    0.4656    3.1667 N   0  0  0  0  0  0  0  0  0  0  0  0
   -2.4139    0.6698    2.8558 H   0  0  0  0  0  0  0  0  0  0  0  0
   -1.1587    0.6908    4.5775 C   0  0  0  0  0  0  0  0  0  0  0  0
   -0.4270    1.4968    4.6656 H   0  0  0  0  0  0  0  0  0  0  0  0
   -2.0565    0.9649    5.1327 H   0  0  0  0  0  0  0  0  0  0  0  0
   -0.7281   -0.2137    5.0125 H   0  0  0  0  0  0  0  0  0  0  0  0
  5  6  2  0  0  0  0
  5  7  1  0  0  0  0
  2  3  1  0  0  0  0
  2  4  1  0  0  0  0
  2  5  1  0  0  0  0
  1  2  1  0  0  0  0
 27 28  2  0  0  0  0
 27 29  1  0  0  0  0
 23 24  1  0  0  0  0
 23 25  1  0  0  0  0
 23 26  1  0  0  0  0
 20 21  1  0  0  0  0
 20 22  1  0  0  0  0
 20 23  1  0  0  0  0
 17 18  1  0  0  0  0
 17 19  1  0  0  0  0
 17 20  1  0  0  0  0
 14 15  1  0  0  0  0
 14 16  1  0  0  0  0
 14 17  1  0  0  0  0
 11 12  1  0  0  0  0
 11 13  1  0  0  0  0
 11 14  1  0  0  0  0
  9 10  1  0  0  0  0
  9 11  1  0  0  0  0
  9 27  1  0  0  0  0
  7  8  1  0  0  0  0
  7  9  1  0  0  0  0
 31 32  1  0  0  0  0
 31 33  1  0  0  0  0
 31 34  1  0  0  0  0
 29 30  1  0  0  0  0
 29 31  1  0  0  0  0
M  CHG  1  23   1
M  END
$$$$
default_name
  -OEChem-02102213163D

 34 33  0     1  0  0  0  0  0999 V2000
   -3.8899   -3.6747    1.6490 H   0  0  0  0  0  0  0  0  0  0  0  0
   -3.9109   -2.6717    1.2250 C   0  0  0  0  0  0  0  0  0  0  0  0
   -4.6009   -2.0517    1.7950 H   0  0  0  0  0  0  0  0  0  0  0  0
   -4.2309   -2.7237    0.1860 H   0  0  0  0  0  0  0  0  0  0  0  0
   -2.5229   -2.0787    1.2980 C   0  0  0  0  0  0  0  0  0  0  0  0
   -1.5999   -2.7227    1.7810 O   0  0  0  0  0  0  0  0  0  0  0  0
   -2.3659   -0.8447    0.8120 N   0  0  0  0  0  0  0  0  0  0  0  0
   -3.1749   -0.3807    0.4220 H   0  0  0  0  0  0  0  0  0  0  0  0
   -1.0919   -0.1077    0.8170 C   0  0  1  0  0  0  0  0  0  0  0  0
   -0.3571   -0.6901    0.2581 H   0  0  0  0  0  0  0  0  0  0  0  0
   -1.3037    1.2411    0.1040 C   0  0  0  0  0  0  0  0  0  0  0  0
   -2.2465    1.2003   -0.4439 H   0  0  0  0  0  0  0  0  0  0  0  0
   -1.3784    2.0339    0.8509 H   0  0  0  0  0  0  0  0  0  0  0  0
   -0.1828    1.5850   -0.8887 C   0  0  0  0  0  0  0  0  0  0  0  0
    0.7092    1.8950   -0.3427 H   0  0  0  0  0  0  0  0  0  0  0  0
    0.0533    0.7013   -1.4847 H   0  0  0  0  0  0  0  0  0  0  0  0
   -0.6239    2.7227   -1.8199 C   0  0  0  0  0  0  0  0  0  0  0  0
   -1.5259    2.4149   -2.3542 H   0  0  0  0  0  0  0  0  0  0  0  0
   -0.8497    3.6066   -1.2200 H   0  0  0  0  0  0  0  0  0  0  0  0
    0.4850    3.0504   -2.8277 C   0  0  0  0  0  0  0  0  0  0  0  0
    1.3808    3.3487   -2.2733 H   0  0  0  0  0  0  0  0  0  0  0  0
    0.7248    2.1419   -3.3883 H   0  0  0  0  0  0  0  0  0  0  0  0
    0.0751    4.1330   -3.7575 N   0  3  0  0  0  0  0  0  0  0  0  0
   -0.1381    4.9798   -3.2452 H   0  0  0  0  0  0  0  0  0  0  0  0
    0.8169    4.3369   -4.4156 H   0  0  0  0  0  0  0  0  0  0  0  0
   -0.7488    3.8583   -4.2796 H   0  0  0  0  0  0  0  0  0  0  0  0
   -0.5865    0.0771    2.2496 C   0  0  0  0  0  0  0  0  0  0  0  0
    0.5860   -0.1608    2.5143 O   0  0  0  0  0  0  0  0  0  0  0  0
   -1.4786    0.4656    3.1667 N   0  0  0  0  0  0  0  0  0  0  0  0
   -2.4139    0.6698    2.8558 H   0  0  0  0  0  0  0  0  0  0  0  0
   -1.1587    0.6908    4.5775 C   0  0  0  0  0  0  0  0  0  0  0  0
   -0.4270    1.4968    4.6656 H   0  0  0  0  0  0  0  0  0  0  0  0
   -2.0565    0.9649    5.1327 H   0  0  0  0  0  0  0  0  0  0  0  0
   -0.7281   -0.2137    5.0125 H   0  0  0  0  0  0  0  0  0  0  0  0
  5  6  2  0  0  0  0
  5  7  1  0  0  0  0
  2  3  1  0  0  0  0
  2  4  1  0  0  0  0
  2  5  1  0  0  0  0
  1  2  1  0  0  0  0
 27 28  2  0  0  0  0
 27 29  1  0  0  0  0
 23 24  1  0  0  0  0
 23 25  1  0  0  0  0
 23 26  1  0  0  0  0
 20 21  1  0  0  0  0
 20 22  1  0  0  0  0
 20 23  1  0  0  0  0
 17 18  1  0  0  0  0
 17 19  1  0  0  0  0
 17 20  1  0  0  0  0
 14 15  1  0  0  0  0
 14 16  1  0  0  0  0
 14 17  1  0  0  0  0
 11 12  1  0  0  0  0
 11 13  1  0  0  0  0
 11 14  1  0  0  0  0
  9 10  1  0  0  0  0
  9 11  1  0  0  0  0
  9 27  1  0  0  0  0
  7  8  1  0  0  0  0
  7  9  1  0  0  0  0
 31 32  1  0  0  0  0
 31 33  1  0  0  0  0
 31 34  1  0  0  0  0
 29 30  1  0  0  0  0
 29 31  1  0  0  0  0
M  CHG  1  23   1
M  END
$$$$
default_name
  -OEChem-02102213163D

 34 33  0     1  0  0  0  0  0999 V2000
   -3.8899   -3.6747    1.6490 H   0  0  0  0  0  0  0  0  0  0  0  0
   -3.9109   -2.6717    1.2250 C   0  0  0  0  0  0  0  0  0  0  0  0
   -4.6009   -2.0517    1.7950 H   0  0  0  0  0  0  0  0  0  0  0  0
   -4.2309   -2.7237    0.1860 H   0  0  0  0  0  0  0  0  0  0  0  0
   -2.5229   -2.0787    1.2980 C   0  0  0  0  0  0  0  0  0  0  0  0
   -1.5999   -2.7227    1.7810 O   0  0  0  0  0  0  0  0  0  0  0  0
   -2.3659   -0.8447    0.8120 N   0  0  0  0  0  0  0  0  0  0  0  0
   -3.1749   -0.3807    0.4220 H   0  0  0  0  0  0  0  0  0  0  0  0
   -1.0919   -0.1077    0.8170 C   0  0  1  0  0  0  0  0  0  0  0  0
   -0.3571   -0.6901    0.2581 H   0  0  0  0  0  0  0  0  0  0  0  0
   -1.3037    1.2411    0.1040 C   0  0  0  0  0  0  0  0  0  0  0  0
   -2.3450    1.3056   -0.2156 H   0  0  0  0  0  0  0  0  0  0  0  0
   -1.1133    2.0531    0.8085 H   0  0  0  0  0  0  0  0  0  0  0  0
   -0.4076    1.4218   -1.1308 C   0  0  0  0  0  0  0  0  0  0  0  0
    0.6409    1.3646   -0.8353 H   0  0  0  0  0  0  0  0  0  0  0  0
   -0.6197    0.6267   -1.8483 H   0  0  0  0  0  0  0  0  0  0  0  0
   -0.6718    2.7833   -1.7884 C   0  0  0  0  0  0  0  0  0  0  0  0
   -1.7259    2.8433   -2.0696 H   0  0  0  0  0  0  0  0  0  0  0  0
   -0.4494    3.5749   -1.0700 H   0  0  0  0  0  0  0  0  0  0  0  0
    0.2043    2.9548   -3.0356 C   0  0  0  0  0  0  0  0  0  0  0  0
    1.2546    2.8839   -2.7343 H   0  0  0  0  0  0  0  0  0  0  0  0
   -0.0036    2.1291   -3.7228 H   0  0  0  0  0  0  0  0  0  0  0  0
   -0.0486    4.2553   -3.7059 N   0  3  0  0  0  0  0  0  0  0  0  0
    0.1522    5.0237   -3.0781 H   0  0  0  0  0  0  0  0  0  0  0  0
    0.5365    4.3527   -4.5263 H   0  0  0  0  0  0  0  0  0  0  0  0
   -1.0177    4.3222   -3.9946 H   0  0  0  0  0  0  0  0  0  0  0  0
   -0.5865    0.0771    2.2496 C   0  0  0  0  0  0  0  0  0  0  0  0
    0.5860   -0.1608    2.5143 O   0  0  0  0  0  0  0  0  0  0  0  0
   -1.4786    0.4656    3.1667 N   0  0  0  0  0  0  0  0  0  0  0  0
   -2.4139    0.6698    2.8558 H   0  0  0  0  0  0  0  0  0  0  0  0
   -1.1587    0.6908    4.5775 C   0  0  0  0  0  0  0  0  0  0  0  0
   -0.4270    1.4968    4.6656 H   0  0  0  0  0  0  0  0  0  0  0  0
   -2.0565    0.9649    5.1327 H   0  0  0  0  0  0  0  0  0  0  0  0
   -0.7281   -0.2137    5.0125 H   0  0  0  0  0  0  0  0  0  0  0  0
  5  6  2  0  0  0  0
  5  7  1  0  0  0  0
  2  3  1  0  0  0  0
  2  4  1  0  0  0  0
  2  5  1  0  0  0  0
  1  2  1  0  0  0  0
 27 28  2  0  0  0  0
 27 29  1  0  0  0  0
 23 24  1  0  0  0  0
 23 25  1  0  0  0  0
 23 26  1  0  0  0  0
 20 21  1  0  0  0  0
 20 22  1  0  0  0  0
 20 23  1  0  0  0  0
 17 18  1  0  0  0  0
 17 19  1  0  0  0  0
 17 20  1  0  0  0  0
 14 15  1  0  0  0  0
 14 16  1  0  0  0  0
 14 17  1  0  0  0  0
 11 12  1  0  0  0  0
 11 13  1  0  0  0  0
 11 14  1  0  0  0  0
  9 10  1  0  0  0  0
  9 11  1  0  0  0  0
  9 27  1  0  0  0  0
  7  8  1  0  0  0  0
  7  9  1  0  0  0  0
 31 32  1  0  0  0  0
 31 33  1  0  0  0  0
 31 34  1  0  0  0  0
 29 30  1  0  0  0  0
 29 31  1  0  0  0  0
M  CHG  1  23   1
M  END
$$$$
default_name
  -OEChem-02102213163D

 34 33  0     1  0  0  0  0  0999 V2000
   -3.8899   -3.6747    1.6490 H   0  0  0  0  0  0  0  0  0  0  0  0
   -3.9109   -2.6717    1.2250 C   0  0  0  0  0  0  0  0  0  0  0  0
   -4.6009   -2.0517    1.7950 H   0  0  0  0  0  0  0  0  0  0  0  0
   -4.2309   -2.7237    0.1860 H   0  0  0  0  0  0  0  0  0  0  0  0
   -2.5229   -2.0787    1.2980 C   0  0  0  0  0  0  0  0  0  0  0  0
   -1.5999   -2.7227    1.7810 O   0  0  0  0  0  0  0  0  0  0  0  0
   -2.3659   -0.8447    0.8120 N   0  0  0  0  0  0  0  0  0  0  0  0
   -3.1749   -0.3807    0.4220 H   0  0  0  0  0  0  0  0  0  0  0  0
   -1.0919   -0.1077    0.8170 C   0  0  1  0  0  0  0  0  0  0  0  0
   -0.3571   -0.6901    0.2581 H   0  0  0  0  0  0  0  0  0  0  0  0
   -1.3037    1.2411    0.1040 C   0  0  0  0  0  0  0  0  0  0  0  0
   -2.3450    1.3056   -0.2156 H   0  0  0  0  0  0  0  0  0  0  0  0
   -1.1133    2.0531    0.8085 H   0  0  0  0  0  0  0  0  0  0  0  0
   -0.4076    1.4218   -1.1308 C   0  0  0  0  0  0  0  0  0  0  0  0
    0.6096    1.1053   -0.8960 H   0  0  0  0  0  0  0  0  0  0  0  0
   -0.7925    0.8077   -1.9472 H   0  0  0  0  0  0  0  0  0  0  0  0
   -0.3890    2.8933   -1.5670 C   0  0  0  0  0  0  0  0  0  0  0  0
   -1.4108    3.2115   -1.7870 H   0  0  0  0  0  0  0  0  0  0  0  0
    0.0053    3.5018   -0.7507 H   0  0  0  0  0  0  0  0  0  0  0  0
    0.4855    3.0711   -2.8145 C   0  0  0  0  0  0  0  0  0  0  0  0
    1.5016    2.7402   -2.5761 H   0  0  0  0  0  0  0  0  0  0  0  0
    0.0986    2.4219   -3.6057 H   0  0  0  0  0  0  0  0  0  0  0  0
    0.5021    4.4833   -3.2728 N   0  3  0  0  0  0  0  0  0  0  0  0
    0.8691    5.0878   -2.5485 H   0  0  0  0  0  0  0  0  0  0  0  0
    1.0826    4.5835   -4.0961 H   0  0  0  0  0  0  0  0  0  0  0  0
   -0.4353    4.7918   -3.5032 H   0  0  0  0  0  0  0  0  0  0  0  0
   -0.5865    0.0771    2.2496 C   0  0  0  0  0  0  0  0  0  0  0  0
    0.5860   -0.1608    2.5143 O   0  0  0  0  0  0  0  0  0  0  0  0
   -1.4786    0.4656    3.1667 N   0  0  0  0  0  0  0  0  0  0  0  0
   -2.4139    0.6698    2.8558 H   0  0  0  0  0  0  0  0  0  0  0  0
   -1.1587    0.6908    4.5775 C   0  0  0  0  0  0  0  0  0  0  0  0
   -0.4270    1.4968    4.6656 H   0  0  0  0  0  0  0  0  0  0  0  0
   -2.0565    0.9649    5.1327 H   0  0  0  0  0  0  0  0  0  0  0  0
   -0.7281   -0.2137    5.0125 H   0  0  0  0  0  0  0  0  0  0  0  0
  5  6  2  0  0  0  0
  5  7  1  0  0  0  0
  2  3  1  0  0  0  0
  2  4  1  0  0  0  0
  2  5  1  0  0  0  0
  1  2  1  0  0  0  0
 27 28  2  0  0  0  0
 27 29  1  0  0  0  0
 23 24  1  0  0  0  0
 23 25  1  0  0  0  0
 23 26  1  0  0  0  0
 20 21  1  0  0  0  0
 20 22  1  0  0  0  0
 20 23  1  0  0  0  0
 17 18  1  0  0  0  0
 17 19  1  0  0  0  0
 17 20  1  0  0  0  0
 14 15  1  0  0  0  0
 14 16  1  0  0  0  0
 14 17  1  0  0  0  0
 11 12  1  0  0  0  0
 11 13  1  0  0  0  0
 11 14  1  0  0  0  0
  9 10  1  0  0  0  0
  9 11  1  0  0  0  0
  9 27  1  0  0  0  0
  7  8  1  0  0  0  0
  7  9  1  0  0  0  0
 31 32  1  0  0  0  0
 31 33  1  0  0  0  0
 31 34  1  0  0  0  0
 29 30  1  0  0  0  0
 29 31  1  0  0  0  0
M  CHG  1  23   1
M  END
$$$$
default_name
  -OEChem-02102213163D

 34 33  0     1  0  0  0  0  0999 V2000
   -3.8899   -3.6747    1.6490 H   0  0  0  0  0  0  0  0  0  0  0  0
   -3.9109   -2.6717    1.2250 C   0  0  0  0  0  0  0  0  0  0  0  0
   -4.6009   -2.0517    1.7950 H   0  0  0  0  0  0  0  0  0  0  0  0
   -4.2309   -2.7237    0.1860 H   0  0  0  0  0  0  0  0  0  0  0  0
   -2.5229   -2.0787    1.2980 C   0  0  0  0  0  0  0  0  0  0  0  0
   -1.5999   -2.7227    1.7810 O   0  0  0  0  0  0  0  0  0  0  0  0
   -2.3659   -0.8447    0.8120 N   0  0  0  0  0  0  0  0  0  0  0  0
   -3.1749   -0.3807    0.4220 H   0  0  0  0  0  0  0  0  0  0  0  0
   -1.0919   -0.1077    0.8170 C   0  0  1  0  0  0  0  0  0  0  0  0
   -0.3571   -0.6901    0.2581 H   0  0  0  0  0  0  0  0  0  0  0  0
   -1.3037    1.2411    0.1040 C   0  0  0  0  0  0  0  0  0  0  0  0
   -2.3450    1.3056   -0.2156 H   0  0  0  0  0  0  0  0  0  0  0  0
   -1.1133    2.0531    0.8085 H   0  0  0  0  0  0  0  0  0  0  0  0
   -0.4076    1.4218   -1.1308 C   0  0  0  0  0  0  0  0  0  0  0  0
    0.5235    0.8705   -0.9928 H   0  0  0  0  0  0  0  0  0  0  0  0
   -0.9249    1.0334   -2.0103 H   0  0  0  0  0  0  0  0  0  0  0  0
   -0.0862    2.9073   -1.3452 C   0  0  0  0  0  0  0  0  0  0  0  0
   -1.0213    3.4589   -1.4681 H   0  0  0  0  0  0  0  0  0  0  0  0
    0.4390    3.2883   -0.4671 H   0  0  0  0  0  0  0  0  0  0  0  0
    0.7880    3.0916   -2.5920 C   0  0  0  0  0  0  0  0  0  0  0  0
    1.7151    2.5261   -2.4525 H   0  0  0  0  0  0  0  0  0  0  0  0
    0.2618    2.6658   -3.4516 H   0  0  0  0  0  0  0  0  0  0  0  0
    1.0946    4.5236   -2.8369 N   0  3  0  0  0  0  0  0  0  0  0  0
    1.5910    4.9206   -2.0490 H   0  0  0  0  0  0  0  0  0  0  0  0
    1.6713    4.6280   -3.6624 H   0  0  0  0  0  0  0  0  0  0  0  0
    0.2399    5.0500   -2.9754 H   0  0  0  0  0  0  0  0  0  0  0  0
   -0.5865    0.0771    2.2496 C   0  0  0  0  0  0  0  0  0  0  0  0
    0.5860   -0.1608    2.5143 O   0  0  0  0  0  0  0  0  0  0  0  0
   -1.4786    0.4656    3.1667 N   0  0  0  0  0  0  0  0  0  0  0  0
   -2.4139    0.6698    2.8558 H   0  0  0  0  0  0  0  0  0  0  0  0
   -1.1587    0.6908    4.5775 C   0  0  0  0  0  0  0  0  0  0  0  0
   -0.4270    1.4968    4.6656 H   0  0  0  0  0  0  0  0  0  0  0  0
   -2.0565    0.9649    5.1327 H   0  0  0  0  0  0  0  0  0  0  0  0
   -0.7281   -0.2137    5.0125 H   0  0  0  0  0  0  0  0  0  0  0  0
  5  6  2  0  0  0  0
  5  7  1  0  0  0  0
  2  3  1  0  0  0  0
  2  4  1  0  0  0  0
  2  5  1  0  0  0  0
  1  2  1  0  0  0  0
 27 28  2  0  0  0  0
 27 29  1  0  0  0  0
 23 24  1  0  0  0  0
 23 25  1  0  0  0  0
 23 26  1  0  0  0  0
 20 21  1  0  0  0  0
 20 22  1  0  0  0  0
 20 23  1  0  0  0  0
 17 18  1  0  0  0  0
 17 19  1  0  0  0  0
 17 20  1  0  0  0  0
 14 15  1  0  0  0  0
 14 16  1  0  0  0  0
 14 17  1  0  0  0  0
 11 12  1  0  0  0  0
 11 13  1  0  0  0  0
 11 14  1  0  0  0  0
  9 10  1  0  0  0  0
  9 11  1  0  0  0  0
  9 27  1  0  0  0  0
  7  8  1  0  0  0  0
  7  9  1  0  0  0  0
 31 32  1  0  0  0  0
 31 33  1  0  0  0  0
 31 34  1  0  0  0  0
 29 30  1  0  0  0  0
 29 31  1  0  0  0  0
M  CHG  1  23   1
M  END
$$$$
default_name
  -OEChem-02102213163D

 34 33  0     1  0  0  0  0  0999 V2000
   -3.8899   -3.6747    1.6490 H   0  0  0  0  0  0  0  0  0  0  0  0
   -3.9109   -2.6717    1.2250 C   0  0  0  0  0  0  0  0  0  0  0  0
   -4.6009   -2.0517    1.7950 H   0  0  0  0  0  0  0  0  0  0  0  0
   -4.2309   -2.7237    0.1860 H   0  0  0  0  0  0  0  0  0  0  0  0
   -2.5229   -2.0787    1.2980 C   0  0  0  0  0  0  0  0  0  0  0  0
   -1.5999   -2.7227    1.7810 O   0  0  0  0  0  0  0  0  0  0  0  0
   -2.3659   -0.8447    0.8120 N   0  0  0  0  0  0  0  0  0  0  0  0
   -3.1749   -0.3807    0.4220 H   0  0  0  0  0  0  0  0  0  0  0  0
   -1.0919   -0.1077    0.8170 C   0  0  1  0  0  0  0  0  0  0  0  0
   -0.3571   -0.6901    0.2581 H   0  0  0  0  0  0  0  0  0  0  0  0
   -1.3037    1.2411    0.1040 C   0  0  0  0  0  0  0  0  0  0  0  0
   -2.3450    1.3056   -0.2156 H   0  0  0  0  0  0  0  0  0  0  0  0
   -1.1133    2.0531    0.8085 H   0  0  0  0  0  0  0  0  0  0  0  0
   -0.4076    1.4218   -1.1308 C   0  0  0  0  0  0  0  0  0  0  0  0
    0.3886    0.6763   -1.1191 H   0  0  0  0  0  0  0  0  0  0  0  0
   -1.0077    1.2884   -2.0330 H   0  0  0  0  0  0  0  0  0  0  0  0
    0.2160    2.8243   -1.1381 C   0  0  0  0  0  0  0  0  0  0  0  0
   -0.5839    3.5686   -1.1346 H   0  0  0  0  0  0  0  0  0  0  0  0
    0.8222    2.9492   -0.2387 H   0  0  0  0  0  0  0  0  0  0  0  0
    1.0912    3.0149   -2.3831 C   0  0  0  0  0  0  0  0  0  0  0  0
    1.8805    2.2562   -2.3719 H   0  0  0  0  0  0  0  0  0  0  0  0
    0.4748    2.8441   -3.2709 H   0  0  0  0  0  0  0  0  0  0  0  0
    1.6886    4.3734   -2.4277 N   0  3  0  0  0  0  0  0  0  0  0  0
    2.2688    4.5335   -1.6137 H   0  0  0  0  0  0  0  0  0  0  0  0
    2.2624    4.4830   -3.2546 H   0  0  0  0  0  0  0  0  0  0  0  0
    0.9619    5.0794   -2.4471 H   0  0  0  0  0  0  0  0  0  0  0  0
   -0.5865    0.0771    2.2496 C   0  0  0  0  0  0  0  0  0  0  0  0
    0.5860   -0.1608    2.5143 O   0  0  0  0  0  0  0  0  0  0  0  0
   -1.4786    0.4656    3.1667 N   0  0  0  0  0  0  0  0  0  0  0  0
   -2.4139    0.6698    2.8558 H   0  0  0  0  0  0  0  0  0  0  0  0
   -1.1587    0.6908    4.5775 C   0  0  0  0  0  0  0  0  0  0  0  0
   -0.4270    1.4968    4.6656 H   0  0  0  0  0  0  0  0  0  0  0  0
   -2.0565    0.9649    5.1327 H   0  0  0  0  0  0  0  0  0  0  0  0
   -0.7281   -0.2137    5.0125 H   0  0  0  0  0  0  0  0  0  0  0  0
  5  6  2  0  0  0  0
  5  7  1  0  0  0  0
  2  3  1  0  0  0  0
  2  4  1  0  0  0  0
  2  5  1  0  0  0  0
  1  2  1  0  0  0  0
 27 28  2  0  0  0  0
 27 29  1  0  0  0  0
 23 24  1  0  0  0  0
 23 25  1  0  0  0  0
 23 26  1  0  0  0  0
 20 21  1  0  0  0  0
 20 22  1  0  0  0  0
 20 23  1  0  0  0  0
 17 18  1  0  0  0  0
 17 19  1  0  0  0  0
 17 20  1  0  0  0  0
 14 15  1  0  0  0  0
 14 16  1  0  0  0  0
 14 17  1  0  0  0  0
 11 12  1  0  0  0  0
 11 13  1  0  0  0  0
 11 14  1  0  0  0  0
  9 10  1  0  0  0  0
  9 11  1  0  0  0  0
  9 27  1  0  0  0  0
  7  8  1  0  0  0  0
  7  9  1  0  0  0  0
 31 32  1  0  0  0  0
 31 33  1  0  0  0  0
 31 34  1  0  0  0  0
 29 30  1  0  0  0  0
 29 31  1  0  0  0  0
M  CHG  1  23   1
M  END
$$$$
default_name
  -OEChem-02102213163D

 34 33  0     1  0  0  0  0  0999 V2000
   -3.8899   -3.6747    1.6490 H   0  0  0  0  0  0  0  0  0  0  0  0
   -3.9109   -2.6717    1.2250 C   0  0  0  0  0  0  0  0  0  0  0  0
   -4.6009   -2.0517    1.7950 H   0  0  0  0  0  0  0  0  0  0  0  0
   -4.2309   -2.7237    0.1860 H   0  0  0  0  0  0  0  0  0  0  0  0
   -2.5229   -2.0787    1.2980 C   0  0  0  0  0  0  0  0  0  0  0  0
   -1.5999   -2.7227    1.7810 O   0  0  0  0  0  0  0  0  0  0  0  0
   -2.3659   -0.8447    0.8120 N   0  0  0  0  0  0  0  0  0  0  0  0
   -3.1749   -0.3807    0.4220 H   0  0  0  0  0  0  0  0  0  0  0  0
   -1.0919   -0.1077    0.8170 C   0  0  1  0  0  0  0  0  0  0  0  0
   -0.3571   -0.6901    0.2581 H   0  0  0  0  0  0  0  0  0  0  0  0
   -1.3037    1.2411    0.1040 C   0  0  0  0  0  0  0  0  0  0  0  0
   -2.3450    1.3056   -0.2156 H   0  0  0  0  0  0  0  0  0  0  0  0
   -1.1133    2.0531    0.8085 H   0  0  0  0  0  0  0  0  0  0  0  0
   -0.4076    1.4218   -1.1308 C   0  0  0  0  0  0  0  0  0  0  0  0
    0.2141    0.5358   -1.2664 H   0  0  0  0  0  0  0  0  0  0  0  0
   -1.0353    1.5554   -2.0140 H   0  0  0  0  0  0  0  0  0  0  0  0
    0.4969    2.6501   -0.9597 C   0  0  0  0  0  0  0  0  0  0  0  0
   -0.1284    3.5334   -0.8092 H   0  0  0  0  0  0  0  0  0  0  0  0
    1.1288    2.5073   -0.0808 H   0  0  0  0  0  0  0  0  0  0  0  0
    1.3745    2.8462   -2.2022 C   0  0  0  0  0  0  0  0  0  0  0  0
    1.9866    1.9489   -2.3399 H   0  0  0  0  0  0  0  0  0  0  0  0
    0.7232    2.9448   -3.0759 H   0  0  0  0  0  0  0  0  0  0  0  0
    2.2436    4.0431   -2.0733 N   0  3  0  0  0  0  0  0  0  0  0  0
    2.8562    3.9530   -1.2724 H   0  0  0  0  0  0  0  0  0  0  0  0
    2.8156    4.1585   -2.9006 H   0  0  0  0  0  0  0  0  0  0  0  0
    1.6814    4.8778   -1.9544 H   0  0  0  0  0  0  0  0  0  0  0  0
   -0.5865    0.0771    2.2496 C   0  0  0  0  0  0  0  0  0  0  0  0
    0.5860   -0.1608    2.5143 O   0  0  0  0  0  0  0  0  0  0  0  0
   -1.4786    0.4656    3.1667 N   0  0  0  0  0  0  0  0  0  0  0  0
   -2.4139    0.6698    2.8558 H   0  0  0  0  0  0  0  0  0  0  0  0
   -1.1587    0.6908    4.5775 C   0  0  0  0  0  0  0  0  0  0  0  0
   -0.4270    1.4968    4.6656 H   0  0  0  0  0  0  0  0  0  0  0  0
   -2.0565    0.9649    5.1327 H   0  0  0  0  0  0  0  0  0  0  0  0
   -0.7281   -0.2137    5.0125 H   0  0  0  0  0  0  0  0  0  0  0  0
  5  6  2  0  0  0  0
  5  7  1  0  0  0  0
  2  3  1  0  0  0  0
  2  4  1  0  0  0  0
  2  5  1  0  0  0  0
  1  2  1  0  0  0  0
 27 28  2  0  0  0  0
 27 29  1  0  0  0  0
 23 24  1  0  0  0  0
 23 25  1  0  0  0  0
 23 26  1  0  0  0  0
 20 21  1  0  0  0  0
 20 22  1  0  0  0  0
 20 23  1  0  0  0  0
 17 18  1  0  0  0  0
 17 19  1  0  0  0  0
 17 20  1  0  0  0  0
 14 15  1  0  0  0  0
 14 16  1  0  0  0  0
 14 17  1  0  0  0  0
 11 12  1  0  0  0  0
 11 13  1  0  0  0  0
 11 14  1  0  0  0  0
  9 10  1  0  0  0  0
  9 11  1  0  0  0  0
  9 27  1  0  0  0  0
  7  8  1  0  0  0  0
  7  9  1  0  0  0  0
 31 32  1  0  0  0  0
 31 33  1  0  0  0  0
 31 34  1  0  0  0  0
 29 30  1  0  0  0  0
 29 31  1  0  0  0  0
M  CHG  1  23   1
M  END
$$$$
default_name
  -OEChem-02102213163D

 34 33  0     1  0  0  0  0  0999 V2000
   -3.8899   -3.6747    1.6490 H   0  0  0  0  0  0  0  0  0  0  0  0
   -3.9109   -2.6717    1.2250 C   0  0  0  0  0  0  0  0  0  0  0  0
   -4.6009   -2.0517    1.7950 H   0  0  0  0  0  0  0  0  0  0  0  0
   -4.2309   -2.7237    0.1860 H   0  0  0  0  0  0  0  0  0  0  0  0
   -2.5229   -2.0787    1.2980 C   0  0  0  0  0  0  0  0  0  0  0  0
   -1.5999   -2.7227    1.7810 O   0  0  0  0  0  0  0  0  0  0  0  0
   -2.3659   -0.8447    0.8120 N   0  0  0  0  0  0  0  0  0  0  0  0
   -3.1749   -0.3807    0.4220 H   0  0  0  0  0  0  0  0  0  0  0  0
   -1.0919   -0.1077    0.8170 C   0  0  1  0  0  0  0  0  0  0  0  0
   -0.3571   -0.6901    0.2581 H   0  0  0  0  0  0  0  0  0  0  0  0
   -1.3037    1.2411    0.1040 C   0  0  0  0  0  0  0  0  0  0  0  0
   -2.3450    1.3056   -0.2156 H   0  0  0  0  0  0  0  0  0  0  0  0
   -1.1133    2.0531    0.8085 H   0  0  0  0  0  0  0  0  0  0  0  0
   -0.4076    1.4218   -1.1308 C   0  0  0  0  0  0  0  0  0  0  0  0
    0.0118    0.4586   -1.4245 H   0  0  0  0  0  0  0  0  0  0  0  0
   -1.0058    1.8162   -1.9545 H   0  0  0  0  0  0  0  0  0  0  0  0
    0.7374    2.3964   -0.8223 C   0  0  0  0  0  0  0  0  0  0  0  0
    0.3141    3.3554   -0.5140 H   0  0  0  0  0  0  0  0  0  0  0  0
    1.3378    1.9930   -0.0044 H   0  0  0  0  0  0  0  0  0  0  0  0
    1.6186    2.5970   -2.0616 C   0  0  0  0  0  0  0  0  0  0  0  0
    2.0262    1.6252   -2.3585 H   0  0  0  0  0  0  0  0  0  0  0  0
    0.9900    2.9610   -2.8799 H   0  0  0  0  0  0  0  0  0  0  0  0
    2.7218    3.5550   -1.7977 N   0  3  0  0  0  0  0  0  0  0  0  0
    3.3132    3.2185   -1.0482 H   0  0  0  0  0  0  0  0  0  0  0  0
    3.2932    3.6765   -2.6245 H   0  0  0  0  0  0  0  0  0  0  0  0
    2.3495    4.4590   -1.5308 H   0  0  0  0  0  0  0  0  0  0  0  0
   -0.5865    0.0771    2.2496 C   0  0  0  0  0  0  0  0  0  0  0  0
    0.5860   -0.1608    2.5143 O   0  0  0  0  0  0  0  0  0  0  0  0
   -1.4786    0.4656    3.1667 N   0  0  0  0  0  0  0  0  0  0  0  0
   -2.4139    0.6698    2.8558 H   0  0  0  0  0  0  0  0  0  0  0  0
   -1.1587    0.6908    4.5775 C   0  0  0  0  0  0  0  0  0  0  0  0
   -0.4270    1.4968    4.6656 H   0  0  0  0  0  0  0  0  0  0  0  0
   -2.0565    0.9649    5.1327 H   0  0  0  0  0  0  0  0  0  0  0  0
   -0.7281   -0.2137    5.0125 H   0  0  0  0  0  0  0  0  0  0  0  0
  5  6  2  0  0  0  0
  5  7  1  0  0  0  0
  2  3  1  0  0  0  0
  2  4  1  0  0  0  0
  2  5  1  0  0  0  0
  1  2  1  0  0  0  0
 27 28  2  0  0  0  0
 27 29  1  0  0  0  0
 23 24  1  0  0  0  0
 23 25  1  0  0  0  0
 23 26  1  0  0  0  0
 20 21  1  0  0  0  0
 20 22  1  0  0  0  0
 20 23  1  0  0  0  0
 17 18  1  0  0  0  0
 17 19  1  0  0  0  0
 17 20  1  0  0  0  0
 14 15  1  0  0  0  0
 14 16  1  0  0  0  0
 14 17  1  0  0  0  0
 11 12  1  0  0  0  0
 11 13  1  0  0  0  0
 11 14  1  0  0  0  0
  9 10  1  0  0  0  0
  9 11  1  0  0  0  0
  9 27  1  0  0  0  0
  7  8  1  0  0  0  0
  7  9  1  0  0  0  0
 31 32  1  0  0  0  0
 31 33  1  0  0  0  0
 31 34  1  0  0  0  0
 29 30  1  0  0  0  0
 29 31  1  0  0  0  0
M  CHG  1  23   1
M  END
$$$$
default_name
  -OEChem-02102213163D

 34 33  0     1  0  0  0  0  0999 V2000
   -3.8899   -3.6747    1.6490 H   0  0  0  0  0  0  0  0  0  0  0  0
   -3.9109   -2.6717    1.2250 C   0  0  0  0  0  0  0  0  0  0  0  0
   -4.6009   -2.0517    1.7950 H   0  0  0  0  0  0  0  0  0  0  0  0
   -4.2309   -2.7237    0.1860 H   0  0  0  0  0  0  0  0  0  0  0  0
   -2.5229   -2.0787    1.2980 C   0  0  0  0  0  0  0  0  0  0  0  0
   -1.5999   -2.7227    1.7810 O   0  0  0  0  0  0  0  0  0  0  0  0
   -2.3659   -0.8447    0.8120 N   0  0  0  0  0  0  0  0  0  0  0  0
   -3.1749   -0.3807    0.4220 H   0  0  0  0  0  0  0  0  0  0  0  0
   -1.0919   -0.1077    0.8170 C   0  0  1  0  0  0  0  0  0  0  0  0
   -0.3571   -0.6901    0.2581 H   0  0  0  0  0  0  0  0  0  0  0  0
   -1.3037    1.2411    0.1040 C   0  0  0  0  0  0  0  0  0  0  0  0
   -2.3450    1.3056   -0.2156 H   0  0  0  0  0  0  0  0  0  0  0  0
   -1.1133    2.0531    0.8085 H   0  0  0  0  0  0  0  0  0  0  0  0
   -0.4076    1.4218   -1.1308 C   0  0  0  0  0  0  0  0  0  0  0  0
   -0.2045    0.4500   -1.5827 H   0  0  0  0  0  0  0  0  0  0  0  0
   -0.9213    2.0530   -1.8585 H   0  0  0  0  0  0  0  0  0  0  0  0
    0.9211    2.0806   -0.7352 C   0  0  0  0  0  0  0  0  0  0  0  0
    0.7136    3.0469   -0.2693 H   0  0  0  0  0  0  0  0  0  0  0  0
    1.4350    1.4411   -0.0146 H   0  0  0  0  0  0  0  0  0  0  0  0
    1.8068    2.2843   -1.9707 C   0  0  0  0  0  0  0  0  0  0  0  0
    1.9965    1.3071   -2.4266 H   0  0  0  0  0  0  0  0  0  0  0  0
    1.2571    2.8915   -2.6962 H   0  0  0  0  0  0  0  0  0  0  0  0
    3.0905    2.9425   -1.6197 N   0  3  0  0  0  0  0  0  0  0  0  0
    3.6087    2.3801   -0.9564 H   0  0  0  0  0  0  0  0  0  0  0  0
    3.6627    3.0699   -2.4452 H   0  0  0  0  0  0  0  0  0  0  0  0
    2.9206    3.8515   -1.2052 H   0  0  0  0  0  0  0  0  0  0  0  0
   -0.5865    0.0771    2.2496 C   0  0  0  0  0  0  0  0  0  0  0  0
    0.5860   -0.1608    2.5143 O   0  0  0  0  0  0  0  0  0  0  0  0
   -1.4786    0.4656    3.1667 N   0  0  0  0  0  0  0  0  0  0  0  0
   -2.4139    0.6698    2.8558 H   0  0  0  0  0  0  0  0  0  0  0  0
   -1.1587    0.6908    4.5775 C   0  0  0  0  0  0  0  0  0  0  0  0
   -0.4270    1.4968    4.6656 H   0  0  0  0  0  0  0  0  0  0  0  0
   -2.0565    0.9649    5.1327 H   0  0  0  0  0  0  0  0  0  0  0  0
   -0.7281   -0.2137    5.0125 H   0  0  0  0  0  0  0  0  0  0  0  0
  5  6  2  0  0  0  0
  5  7  1  0  0  0  0
  2  3  1  0  0  0  0
  2  4  1  0  0  0  0
  2  5  1  0  0  0  0
  1  2  1  0  0  0  0
 27 28  2  0  0  0  0
 27 29  1  0  0  0  0
 23 24  1  0  0  0  0
 23 25  1  0  0  0  0
 23 26  1  0  0  0  0
 20 21  1  0  0  0  0
 20 22  1  0  0  0  0
 20 23  1  0  0  0  0
 17 18  1  0  0  0  0
 17 19  1  0  0  0  0
 17 20  1  0  0  0  0
 14 15  1  0  0  0  0
 14 16  1  0  0  0  0
 14 17  1  0  0  0  0
 11 12  1  0  0  0  0
 11 13  1  0  0  0  0
 11 14  1  0  0  0  0
  9 10  1  0  0  0  0
  9 11  1  0  0  0  0
  9 27  1  0  0  0  0
  7  8  1  0  0  0  0
  7  9  1  0  0  0  0
 31 32  1  0  0  0  0
 31 33  1  0  0  0  0
 31 34  1  0  0  0  0
 29 30  1  0  0  0  0
 29 31  1  0  0  0  0
M  CHG  1  23   1
M  END
$$$$
default_name
  -OEChem-02102213163D

 34 33  0     1  0  0  0  0  0999 V2000
   -3.8899   -3.6747    1.6490 H   0  0  0  0  0  0  0  0  0  0  0  0
   -3.9109   -2.6717    1.2250 C   0  0  0  0  0  0  0  0  0  0  0  0
   -4.6009   -2.0517    1.7950 H   0  0  0  0  0  0  0  0  0  0  0  0
   -4.2309   -2.7237    0.1860 H   0  0  0  0  0  0  0  0  0  0  0  0
   -2.5229   -2.0787    1.2980 C   0  0  0  0  0  0  0  0  0  0  0  0
   -1.5999   -2.7227    1.7810 O   0  0  0  0  0  0  0  0  0  0  0  0
   -2.3659   -0.8447    0.8120 N   0  0  0  0  0  0  0  0  0  0  0  0
   -3.1749   -0.3807    0.4220 H   0  0  0  0  0  0  0  0  0  0  0  0
   -1.0919   -0.1077    0.8170 C   0  0  1  0  0  0  0  0  0  0  0  0
   -0.3571   -0.6901    0.2581 H   0  0  0  0  0  0  0  0  0  0  0  0
   -1.3037    1.2411    0.1040 C   0  0  0  0  0  0  0  0  0  0  0  0
   -2.3450    1.3056   -0.2156 H   0  0  0  0  0  0  0  0  0  0  0  0
   -1.1133    2.0531    0.8085 H   0  0  0  0  0  0  0  0  0  0  0  0
   -0.4076    1.4218   -1.1308 C   0  0  0  0  0  0  0  0  0  0  0  0
   -0.4200    0.5106   -1.7303 H   0  0  0  0  0  0  0  0  0  0  0  0
   -0.7875    2.2496   -1.7326 H   0  0  0  0  0  0  0  0  0  0  0  0
    1.0356    1.7241   -0.7043 C   0  0  0  0  0  0  0  0  0  0  0  0
    1.0427    2.6288   -0.0916 H   0  0  0  0  0  0  0  0  0  0  0  0
    1.4138    0.8894   -0.1108 H   0  0  0  0  0  0  0  0  0  0  0  0
    1.9263    1.9294   -1.9360 C   0  0  0  0  0  0  0  0  0  0  0  0
    1.8996    1.0163   -2.5395 H   0  0  0  0  0  0  0  0  0  0  0  0
    1.5062    2.7411   -2.5375 H   0  0  0  0  0  0  0  0  0  0  0  0
    3.3247    2.2474   -1.5515 N   0  3  0  0  0  0  0  0  0  0  0  0
    3.7225    1.4949   -1.0033 H   0  0  0  0  0  0  0  0  0  0  0  0
    3.8988    2.3800   -2.3747 H   0  0  0  0  0  0  0  0  0  0  0  0
    3.3558    3.0968   -0.9998 H   0  0  0  0  0  0  0  0  0  0  0  0
   -0.5865    0.0771    2.2496 C   0  0  0  0  0  0  0  0  0  0  0  0
    0.5860   -0.1608    2.5143 O   0  0  0  0  0  0  0  0  0  0  0  0
   -1.4786    0.4656    3.1667 N   0  0  0  0  0  0  0  0  0  0  0  0
   -2.4139    0.6698    2.8558 H   0  0  0  0  0  0  0  0  0  0  0  0
   -1.1587    0.6908    4.5775 C   0  0  0  0  0  0  0  0  0  0  0  0
   -0.4270    1.4968    4.6656 H   0  0  0  0  0  0  0  0  0  0  0  0
   -2.0565    0.9649    5.1327 H   0  0  0  0  0  0  0  0  0  0  0  0
   -0.7281   -0.2137    5.0125 H   0  0  0  0  0  0  0  0  0  0  0  0
  5  6  2  0  0  0  0
  5  7  1  0  0  0  0
  2  3  1  0  0  0  0
  2  4  1  0  0  0  0
  2  5  1  0  0  0  0
  1  2  1  0  0  0  0
 27 28  2  0  0  0  0
 27 29  1  0  0  0  0
 23 24  1  0  0  0  0
 23 25  1  0  0  0  0
 23 26  1  0  0  0  0
 20 21  1  0  0  0  0
 20 22  1  0  0  0  0
 20 23  1  0  0  0  0
 17 18  1  0  0  0  0
 17 19  1  0  0  0  0
 17 20  1  0  0  0  0
 14 15  1  0  0  0  0
 14 16  1  0  0  0  0
 14 17  1  0  0  0  0
 11 12  1  0  0  0  0
 11 13  1  0  0  0  0
 11 14  1  0  0  0  0
  9 10  1  0  0  0  0
  9 11  1  0  0  0  0
  9 27  1  0  0  0  0
  7  8  1  0  0  0  0
  7  9  1  0  0  0  0
 31 32  1  0  0  0  0
 31 33  1  0  0  0  0
 31 34  1  0  0  0  0
 29 30  1  0  0  0  0
 29 31  1  0  0  0  0
M  CHG  1  23   1
M  END
$$$$
default_name
  -OEChem-02102213163D

 34 33  0     1  0  0  0  0  0999 V2000
   -3.8899   -3.6747    1.6490 H   0  0  0  0  0  0  0  0  0  0  0  0
   -3.9109   -2.6717    1.2250 C   0  0  0  0  0  0  0  0  0  0  0  0
   -4.6009   -2.0517    1.7950 H   0  0  0  0  0  0  0  0  0  0  0  0
   -4.2309   -2.7237    0.1860 H   0  0  0  0  0  0  0  0  0  0  0  0
   -2.5229   -2.0787    1.2980 C   0  0  0  0  0  0  0  0  0  0  0  0
   -1.5999   -2.7227    1.7810 O   0  0  0  0  0  0  0  0  0  0  0  0
   -2.3659   -0.8447    0.8120 N   0  0  0  0  0  0  0  0  0  0  0  0
   -3.1749   -0.3807    0.4220 H   0  0  0  0  0  0  0  0  0  0  0  0
   -1.0919   -0.1077    0.8170 C   0  0  1  0  0  0  0  0  0  0  0  0
   -0.3571   -0.6901    0.2581 H   0  0  0  0  0  0  0  0  0  0  0  0
   -1.3037    1.2411    0.1040 C   0  0  0  0  0  0  0  0  0  0  0  0
   -2.3450    1.3056   -0.2156 H   0  0  0  0  0  0  0  0  0  0  0  0
   -1.1133    2.0531    0.8085 H   0  0  0  0  0  0  0  0  0  0  0  0
   -0.4076    1.4218   -1.1308 C   0  0  0  0  0  0  0  0  0  0  0  0
   -0.6201    0.6362   -1.8571 H   0  0  0  0  0  0  0  0  0  0  0  0
   -0.6135    2.3928   -1.5854 H   0  0  0  0  0  0  0  0  0  0  0  0
    1.0729    1.3514   -0.7317 C   0  0  0  0  0  0  0  0  0  0  0  0
    1.2790    2.1298    0.0069 H   0  0  0  0  0  0  0  0  0  0  0  0
    1.2756    0.3754   -0.2863 H   0  0  0  0  0  0  0  0  0  0  0  0
    1.9689    1.5564   -1.9596 C   0  0  0  0  0  0  0  0  0  0  0  0
    1.7420    0.7726   -2.6895 H   0  0  0  0  0  0  0  0  0  0  0  0
    1.7203    2.5201   -2.4144 H   0  0  0  0  0  0  0  0  0  0  0  0
    3.4084    1.5168   -1.5976 N   0  3  0  0  0  0  0  0  0  0  0  0
    3.6469    0.6234   -1.1858 H   0  0  0  0  0  0  0  0  0  0  0  0
    3.9856    1.6539   -2.4180 H   0  0  0  0  0  0  0  0  0  0  0  0
    3.6255    2.2463   -0.9286 H   0  0  0  0  0  0  0  0  0  0  0  0
   -0.5865    0.0771    2.2496 C   0  0  0  0  0  0  0  0  0  0  0  0
    0.5860   -0.1608    2.5143 O   0  0  0  0  0  0  0  0  0  0  0  0
   -1.4786    0.4656    3.1667 N   0  0  0  0  0  0  0  0  0  0  0  0
   -2.4139    0.6698    2.8558 H   0  0  0  0  0  0  0  0  0  0  0  0
   -1.1587    0.6908    4.5775 C   0  0  0  0  0  0  0  0  0  0  0  0
   -0.4270    1.4968    4.6656 H   0  0  0  0  0  0  0  0  0  0  0  0
   -2.0565    0.9649    5.1327 H   0  0  0  0  0  0  0  0  0  0  0  0
   -0.7281   -0.2137    5.0125 H   0  0  0  0  0  0  0  0  0  0  0  0
  5  6  2  0  0  0  0
  5  7  1  0  0  0  0
  2  3  1  0  0  0  0
  2  4  1  0  0  0  0
  2  5  1  0  0  0  0
  1  2  1  0  0  0  0
 27 28  2  0  0  0  0
 27 29  1  0  0  0  0
 23 24  1  0  0  0  0
 23 25  1  0  0  0  0
 23 26  1  0  0  0  0
 20 21  1  0  0  0  0
 20 22  1  0  0  0  0
 20 23  1  0  0  0  0
 17 18  1  0  0  0  0
 17 19  1  0  0  0  0
 17 20  1  0  0  0  0
 14 15  1  0  0  0  0
 14 16  1  0  0  0  0
 14 17  1  0  0  0  0
 11 12  1  0  0  0  0
 11 13  1  0  0  0  0
 11 14  1  0  0  0  0
  9 10  1  0  0  0  0
  9 11  1  0  0  0  0
  9 27  1  0  0  0  0
  7  8  1  0  0  0  0
  7  9  1  0  0  0  0
 31 32  1  0  0  0  0
 31 33  1  0  0  0  0
 31 34  1  0  0  0  0
 29 30  1  0  0  0  0
 29 31  1  0  0  0  0
M  CHG  1  23   1
M  END
$$$$
default_name
  -OEChem-02102213163D

 34 33  0     1  0  0  0  0  0999 V2000
   -3.8899   -3.6747    1.6490 H   0  0  0  0  0  0  0  0  0  0  0  0
   -3.9109   -2.6717    1.2250 C   0  0  0  0  0  0  0  0  0  0  0  0
   -4.6009   -2.0517    1.7950 H   0  0  0  0  0  0  0  0  0  0  0  0
   -4.2309   -2.7237    0.1860 H   0  0  0  0  0  0  0  0  0  0  0  0
   -2.5229   -2.0787    1.2980 C   0  0  0  0  0  0  0  0  0  0  0  0
   -1.5999   -2.7227    1.7810 O   0  0  0  0  0  0  0  0  0  0  0  0
   -2.3659   -0.8447    0.8120 N   0  0  0  0  0  0  0  0  0  0  0  0
   -3.1749   -0.3807    0.4220 H   0  0  0  0  0  0  0  0  0  0  0  0
   -1.0919   -0.1077    0.8170 C   0  0  1  0  0  0  0  0  0  0  0  0
   -0.3571   -0.6901    0.2581 H   0  0  0  0  0  0  0  0  0  0  0  0
   -1.3037    1.2411    0.1040 C   0  0  0  0  0  0  0  0  0  0  0  0
   -2.3450    1.3056   -0.2156 H   0  0  0  0  0  0  0  0  0  0  0  0
   -1.1133    2.0531    0.8085 H   0  0  0  0  0  0  0  0  0  0  0  0
   -0.4076    1.4218   -1.1308 C   0  0  0  0  0  0  0  0  0  0  0  0
   -0.7911    0.8183   -1.9546 H   0  0  0  0  0  0  0  0  0  0  0  0
   -0.4112    2.4726   -1.4269 H   0  0  0  0  0  0  0  0  0  0  0  0
    1.0306    0.9877   -0.8157 C   0  0  0  0  0  0  0  0  0  0  0  0
    1.4065    1.5837    0.0195 H   0  0  0  0  0  0  0  0  0  0  0  0
    1.0299   -0.0658   -0.5292 H   0  0  0  0  0  0  0  0  0  0  0  0
    1.9318    1.1909   -2.0400 C   0  0  0  0  0  0  0  0  0  0  0  0
    1.5346    0.5926   -2.8664 H   0  0  0  0  0  0  0  0  0  0  0  0
    1.8849    2.2434   -2.3354 H   0  0  0  0  0  0  0  0  0  0  0  0
    3.3358    0.8008   -1.7551 N   0  3  0  0  0  0  0  0  0  0  0  0
    3.3870   -0.1752   -1.4913 H   0  0  0  0  0  0  0  0  0  0  0  0
    3.9170    0.9410   -2.5721 H   0  0  0  0  0  0  0  0  0  0  0  0
    3.7112    1.3579   -0.9964 H   0  0  0  0  0  0  0  0  0  0  0  0
   -0.5865    0.0771    2.2496 C   0  0  0  0  0  0  0  0  0  0  0  0
    0.5860   -0.1608    2.5143 O   0  0  0  0  0  0  0  0  0  0  0  0
   -1.4786    0.4656    3.1667 N   0  0  0  0  0  0  0  0  0  0  0  0
   -2.4139    0.6698    2.8558 H   0  0  0  0  0  0  0  0  0  0  0  0
   -1.1587    0.6908    4.5775 C   0  0  0  0  0  0  0  0  0  0  0  0
   -0.4270    1.4968    4.6656 H   0  0  0  0  0  0  0  0  0  0  0  0
   -2.0565    0.9649    5.1327 H   0  0  0  0  0  0  0  0  0  0  0  0
   -0.7281   -0.2137    5.0125 H   0  0  0  0  0  0  0  0  0  0  0  0
  5  6  2  0  0  0  0
  5  7  1  0  0  0  0
  2  3  1  0  0  0  0
  2  4  1  0  0  0  0
  2  5  1  0  0  0  0
  1  2  1  0  0  0  0
 27 28  2  0  0  0  0
 27 29  1  0  0  0  0
 23 24  1  0  0  0  0
 23 25  1  0  0  0  0
 23 26  1  0  0  0  0
 20 21  1  0  0  0  0
 20 22  1  0  0  0  0
 20 23  1  0  0  0  0
 17 18  1  0  0  0  0
 17 19  1  0  0  0  0
 17 20  1  0  0  0  0
 14 15  1  0  0  0  0
 14 16  1  0  0  0  0
 14 17  1  0  0  0  0
 11 12  1  0  0  0  0
 11 13  1  0  0  0  0
 11 14  1  0  0  0  0
  9 10  1  0  0  0  0
  9 11  1  0  0  0  0
  9 27  1  0  0  0  0
  7  8  1  0  0  0  0
  7  9  1  0  0  0  0
 31 32  1  0  0  0  0
 31 33  1  0  0  0  0
 31 34  1  0  0  0  0
 29 30  1  0  0  0  0
 29 31  1  0  0  0  0
M  CHG  1  23   1
M  END
$$$$
default_name
  -OEChem-02102213163D

 34 33  0     1  0  0  0  0  0999 V2000
   -3.8899   -3.6747    1.6490 H   0  0  0  0  0  0  0  0  0  0  0  0
   -3.9109   -2.6717    1.2250 C   0  0  0  0  0  0  0  0  0  0  0  0
   -4.6009   -2.0517    1.7950 H   0  0  0  0  0  0  0  0  0  0  0  0
   -4.2309   -2.7237    0.1860 H   0  0  0  0  0  0  0  0  0  0  0  0
   -2.5229   -2.0787    1.2980 C   0  0  0  0  0  0  0  0  0  0  0  0
   -1.5999   -2.7227    1.7810 O   0  0  0  0  0  0  0  0  0  0  0  0
   -2.3659   -0.8447    0.8120 N   0  0  0  0  0  0  0  0  0  0  0  0
   -3.1749   -0.3807    0.4220 H   0  0  0  0  0  0  0  0  0  0  0  0
   -1.0919   -0.1077    0.8170 C   0  0  1  0  0  0  0  0  0  0  0  0
   -0.3571   -0.6901    0.2581 H   0  0  0  0  0  0  0  0  0  0  0  0
   -1.3037    1.2411    0.1040 C   0  0  0  0  0  0  0  0  0  0  0  0
   -2.3450    1.3056   -0.2156 H   0  0  0  0  0  0  0  0  0  0  0  0
   -1.1133    2.0531    0.8085 H   0  0  0  0  0  0  0  0  0  0  0  0
   -0.4076    1.4218   -1.1308 C   0  0  0  0  0  0  0  0  0  0  0  0
   -0.9213    1.0444   -2.0160 H   0  0  0  0  0  0  0  0  0  0  0  0
   -0.1944    2.4837   -1.2679 H   0  0  0  0  0  0  0  0  0  0  0  0
    0.9115    0.6579   -0.9503 C   0  0  0  0  0  0  0  0  0  0  0  0
    1.4164    1.0278   -0.0547 H   0  0  0  0  0  0  0  0  0  0  0  0
    0.6934   -0.4043   -0.8229 H   0  0  0  0  0  0  0  0  0  0  0  0
    1.8175    0.8577   -2.1717 C   0  0  0  0  0  0  0  0  0  0  0  0
    1.2914    0.4886   -3.0581 H   0  0  0  0  0  0  0  0  0  0  0  0
    1.9888    1.9300   -2.3059 H   0  0  0  0  0  0  0  0  0  0  0  0
    3.1120    0.1480   -2.0131 N   0  3  0  0  0  0  0  0  0  0  0  0
    2.9606   -0.8464   -1.8990 H   0  0  0  0  0  0  0  0  0  0  0  0
    3.6978    0.2899   -2.8265 H   0  0  0  0  0  0  0  0  0  0  0  0
    3.6071    0.4922   -1.1987 H   0  0  0  0  0  0  0  0  0  0  0  0
   -0.5865    0.0771    2.2496 C   0  0  0  0  0  0  0  0  0  0  0  0
    0.5860   -0.1608    2.5143 O   0  0  0  0  0  0  0  0  0  0  0  0
   -1.4786    0.4656    3.1667 N   0  0  0  0  0  0  0  0  0  0  0  0
   -2.4139    0.6698    2.8558 H   0  0  0  0  0  0  0  0  0  0  0  0
   -1.1587    0.6908    4.5775 C   0  0  0  0  0  0  0  0  0  0  0  0
   -0.4270    1.4968    4.6656 H   0  0  0  0  0  0  0  0  0  0  0  0
   -2.0565    0.9649    5.1327 H   0  0  0  0  0  0  0  0  0  0  0  0
   -0.7281   -0.2137    5.0125 H   0  0  0  0  0  0  0  0  0  0  0  0
  5  6  2  0  0  0  0
  5  7  1  0  0  0  0
  2  3  1  0  0  0  0
  2  4  1  0  0  0  0
  2  5  1  0  0  0  0
  1  2  1  0  0  0  0
 27 28  2  0  0  0  0
 27 29  1  0  0  0  0
 23 24  1  0  0  0  0
 23 25  1  0  0  0  0
 23 26  1  0  0  0  0
 20 21  1  0  0  0  0
 20 22  1  0  0  0  0
 20 23  1  0  0  0  0
 17 18  1  0  0  0  0
 17 19  1  0  0  0  0
 17 20  1  0  0  0  0
 14 15  1  0  0  0  0
 14 16  1  0  0  0  0
 14 17  1  0  0  0  0
 11 12  1  0  0  0  0
 11 13  1  0  0  0  0
 11 14  1  0  0  0  0
  9 10  1  0  0  0  0
  9 11  1  0  0  0  0
  9 27  1  0  0  0  0
  7  8  1  0  0  0  0
  7  9  1  0  0  0  0
 31 32  1  0  0  0  0
 31 33  1  0  0  0  0
 31 34  1  0  0  0  0
 29 30  1  0  0  0  0
 29 31  1  0  0  0  0
M  CHG  1  23   1
M  END
$$$$
default_name
  -OEChem-02102213163D

 34 33  0     1  0  0  0  0  0999 V2000
   -3.8899   -3.6747    1.6490 H   0  0  0  0  0  0  0  0  0  0  0  0
   -3.9109   -2.6717    1.2250 C   0  0  0  0  0  0  0  0  0  0  0  0
   -4.6009   -2.0517    1.7950 H   0  0  0  0  0  0  0  0  0  0  0  0
   -4.2309   -2.7237    0.1860 H   0  0  0  0  0  0  0  0  0  0  0  0
   -2.5229   -2.0787    1.2980 C   0  0  0  0  0  0  0  0  0  0  0  0
   -1.5999   -2.7227    1.7810 O   0  0  0  0  0  0  0  0  0  0  0  0
   -2.3659   -0.8447    0.8120 N   0  0  0  0  0  0  0  0  0  0  0  0
   -3.1749   -0.3807    0.4220 H   0  0  0  0  0  0  0  0  0  0  0  0
   -1.0919   -0.1077    0.8170 C   0  0  1  0  0  0  0  0  0  0  0  0
   -0.3571   -0.6901    0.2581 H   0  0  0  0  0  0  0  0  0  0  0  0
   -1.3037    1.2411    0.1040 C   0  0  0  0  0  0  0  0  0  0  0  0
   -2.3450    1.3056   -0.2156 H   0  0  0  0  0  0  0  0  0  0  0  0
   -1.1133    2.0531    0.8085 H   0  0  0  0  0  0  0  0  0  0  0  0
   -0.4076    1.4218   -1.1308 C   0  0  0  0  0  0  0  0  0  0  0  0
   -1.0020    1.2993   -2.0372 H   0  0  0  0  0  0  0  0  0  0  0  0
    0.0222    2.4253   -1.1192 H   0  0  0  0  0  0  0  0  0  0  0  0
    0.7238    0.3845   -1.1266 C   0  0  0  0  0  0  0  0  0  0  0  0
    1.3081    0.4999   -0.2106 H   0  0  0  0  0  0  0  0  0  0  0  0
    0.2890   -0.6168   -1.1475 H   0  0  0  0  0  0  0  0  0  0  0  0
    1.6338    0.5795   -2.3458 C   0  0  0  0  0  0  0  0  0  0  0  0
    1.0290    0.4677   -3.2516 H   0  0  0  0  0  0  0  0  0  0  0  0
    2.0248    1.6012   -2.3278 H   0  0  0  0  0  0  0  0  0  0  0  0
    2.7522   -0.3971   -2.3540 N   0  3  0  0  0  0  0  0  0  0  0  0
    2.3966   -1.3445   -2.3812 H   0  0  0  0  0  0  0  0  0  0  0  0
    3.3429   -0.2550   -3.1638 H   0  0  0  0  0  0  0  0  0  0  0  0
    3.3203   -0.2918   -1.5215 H   0  0  0  0  0  0  0  0  0  0  0  0
   -0.5865    0.0771    2.2496 C   0  0  0  0  0  0  0  0  0  0  0  0
    0.5860   -0.1608    2.5143 O   0  0  0  0  0  0  0  0  0  0  0  0
   -1.4786    0.4656    3.1667 N   0  0  0  0  0  0  0  0  0  0  0  0
   -2.4139    0.6698    2.8558 H   0  0  0  0  0  0  0  0  0  0  0  0
   -1.1587    0.6908    4.5775 C   0  0  0  0  0  0  0  0  0  0  0  0
   -0.4270    1.4968    4.6656 H   0  0  0  0  0  0  0  0  0  0  0  0
   -2.0565    0.9649    5.1327 H   0  0  0  0  0  0  0  0  0  0  0  0
   -0.7281   -0.2137    5.0125 H   0  0  0  0  0  0  0  0  0  0  0  0
  5  6  2  0  0  0  0
  5  7  1  0  0  0  0
  2  3  1  0  0  0  0
  2  4  1  0  0  0  0
  2  5  1  0  0  0  0
  1  2  1  0  0  0  0
 27 28  2  0  0  0  0
 27 29  1  0  0  0  0
 23 24  1  0  0  0  0
 23 25  1  0  0  0  0
 23 26  1  0  0  0  0
 20 21  1  0  0  0  0
 20 22  1  0  0  0  0
 20 23  1  0  0  0  0
 17 18  1  0  0  0  0
 17 19  1  0  0  0  0
 17 20  1  0  0  0  0
 14 15  1  0  0  0  0
 14 16  1  0  0  0  0
 14 17  1  0  0  0  0
 11 12  1  0  0  0  0
 11 13  1  0  0  0  0
 11 14  1  0  0  0  0
  9 10  1  0  0  0  0
  9 11  1  0  0  0  0
  9 27  1  0  0  0  0
  7  8  1  0  0  0  0
  7  9  1  0  0  0  0
 31 32  1  0  0  0  0
 31 33  1  0  0  0  0
 31 34  1  0  0  0  0
 29 30  1  0  0  0  0
 29 31  1  0  0  0  0
M  CHG  1  23   1
M  END
$$$$
default_name
  -OEChem-02102213163D

 34 33  0     1  0  0  0  0  0999 V2000
   -3.8899   -3.6747    1.6490 H   0  0  0  0  0  0  0  0  0  0  0  0
   -3.9109   -2.6717    1.2250 C   0  0  0  0  0  0  0  0  0  0  0  0
   -4.6009   -2.0517    1.7950 H   0  0  0  0  0  0  0  0  0  0  0  0
   -4.2309   -2.7237    0.1860 H   0  0  0  0  0  0  0  0  0  0  0  0
   -2.5229   -2.0787    1.2980 C   0  0  0  0  0  0  0  0  0  0  0  0
   -1.5999   -2.7227    1.7810 O   0  0  0  0  0  0  0  0  0  0  0  0
   -2.3659   -0.8447    0.8120 N   0  0  0  0  0  0  0  0  0  0  0  0
   -3.1749   -0.3807    0.4220 H   0  0  0  0  0  0  0  0  0  0  0  0
   -1.0919   -0.1077    0.8170 C   0  0  1  0  0  0  0  0  0  0  0  0
   -0.3571   -0.6901    0.2581 H   0  0  0  0  0  0  0  0  0  0  0  0
   -1.3037    1.2411    0.1040 C   0  0  0  0  0  0  0  0  0  0  0  0
   -2.3450    1.3056   -0.2156 H   0  0  0  0  0  0  0  0  0  0  0  0
   -1.1133    2.0531    0.8085 H   0  0  0  0  0  0  0  0  0  0  0  0
   -0.4076    1.4218   -1.1308 C   0  0  0  0  0  0  0  0  0  0  0  0
   -1.0275    1.5654   -2.0168 H   0  0  0  0  0  0  0  0  0  0  0  0
    0.2238    2.3014   -0.9911 H   0  0  0  0  0  0  0  0  0  0  0  0
    0.4802    0.1860   -1.3324 C   0  0  0  0  0  0  0  0  0  0  0  0
    1.0889    0.0361   -0.4375 H   0  0  0  0  0  0  0  0  0  0  0  0
   -0.1558   -0.6890   -1.4809 H   0  0  0  0  0  0  0  0  0  0  0  0
    1.3931    0.3753   -2.5503 C   0  0  0  0  0  0  0  0  0  0  0  0
    0.7654    0.5313   -3.4337 H   0  0  0  0  0  0  0  0  0  0  0  0
    1.9906    1.2795   -2.3998 H   0  0  0  0  0  0  0  0  0  0  0  0
    2.2808   -0.7972   -2.7546 N   0  3  0  0  0  0  0  0  0  0  0  0
    1.7336   -1.6355   -2.9050 H   0  0  0  0  0  0  0  0  0  0  0  0
    2.8765   -0.6565   -3.5611 H   0  0  0  0  0  0  0  0  0  0  0  0
    2.8704   -0.9407   -1.9430 H   0  0  0  0  0  0  0  0  0  0  0  0
   -0.5865    0.0771    2.2496 C   0  0  0  0  0  0  0  0  0  0  0  0
    0.5860   -0.1608    2.5143 O   0  0  0  0  0  0  0  0  0  0  0  0
   -1.4786    0.4656    3.1667 N   0  0  0  0  0  0  0  0  0  0  0  0
   -2.4139    0.6698    2.8558 H   0  0  0  0  0  0  0  0  0  0  0  0
   -1.1587    0.6908    4.5775 C   0  0  0  0  0  0  0  0  0  0  0  0
   -0.4270    1.4968    4.6656 H   0  0  0  0  0  0  0  0  0  0  0  0
   -2.0565    0.9649    5.1327 H   0  0  0  0  0  0  0  0  0  0  0  0
   -0.7281   -0.2137    5.0125 H   0  0  0  0  0  0  0  0  0  0  0  0
  5  6  2  0  0  0  0
  5  7  1  0  0  0  0
  2  3  1  0  0  0  0
  2  4  1  0  0  0  0
  2  5  1  0  0  0  0
  1  2  1  0  0  0  0
 27 28  2  0  0  0  0
 27 29  1  0  0  0  0
 23 24  1  0  0  0  0
 23 25  1  0  0  0  0
 23 26  1  0  0  0  0
 20 21  1  0  0  0  0
 20 22  1  0  0  0  0
 20 23  1  0  0  0  0
 17 18  1  0  0  0  0
 17 19  1  0  0  0  0
 17 20  1  0  0  0  0
 14 15  1  0  0  0  0
 14 16  1  0  0  0  0
 14 17  1  0  0  0  0
 11 12  1  0  0  0  0
 11 13  1  0  0  0  0
 11 14  1  0  0  0  0
  9 10  1  0  0  0  0
  9 11  1  0  0  0  0
  9 27  1  0  0  0  0
  7  8  1  0  0  0  0
  7  9  1  0  0  0  0
 31 32  1  0  0  0  0
 31 33  1  0  0  0  0
 31 34  1  0  0  0  0
 29 30  1  0  0  0  0
 29 31  1  0  0  0  0
M  CHG  1  23   1
M  END
$$$$
default_name
  -OEChem-02102213163D

 34 33  0     1  0  0  0  0  0999 V2000
   -3.8899   -3.6747    1.6490 H   0  0  0  0  0  0  0  0  0  0  0  0
   -3.9109   -2.6717    1.2250 C   0  0  0  0  0  0  0  0  0  0  0  0
   -4.6009   -2.0517    1.7950 H   0  0  0  0  0  0  0  0  0  0  0  0
   -4.2309   -2.7237    0.1860 H   0  0  0  0  0  0  0  0  0  0  0  0
   -2.5229   -2.0787    1.2980 C   0  0  0  0  0  0  0  0  0  0  0  0
   -1.5999   -2.7227    1.7810 O   0  0  0  0  0  0  0  0  0  0  0  0
   -2.3659   -0.8447    0.8120 N   0  0  0  0  0  0  0  0  0  0  0  0
   -3.1749   -0.3807    0.4220 H   0  0  0  0  0  0  0  0  0  0  0  0
   -1.0919   -0.1077    0.8170 C   0  0  1  0  0  0  0  0  0  0  0  0
   -0.3571   -0.6901    0.2581 H   0  0  0  0  0  0  0  0  0  0  0  0
   -1.3037    1.2411    0.1040 C   0  0  0  0  0  0  0  0  0  0  0  0
   -2.3450    1.3056   -0.2156 H   0  0  0  0  0  0  0  0  0  0  0  0
   -1.1133    2.0531    0.8085 H   0  0  0  0  0  0  0  0  0  0  0  0
   -0.4076    1.4218   -1.1308 C   0  0  0  0  0  0  0  0  0  0  0  0
   -0.9962    1.8247   -1.9561 H   0  0  0  0  0  0  0  0  0  0  0  0
    0.3966    2.1204   -0.8921 H   0  0  0  0  0  0  0  0  0  0  0  0
    0.1974    0.0760   -1.5538 C   0  0  0  0  0  0  0  0  0  0  0  0
    0.7738   -0.3320   -0.7200 H   0  0  0  0  0  0  0  0  0  0  0  0
   -0.6105   -0.6159   -1.8002 H   0  0  0  0  0  0  0  0  0  0  0  0
    1.1120    0.2589   -2.7714 C   0  0  0  0  0  0  0  0  0  0  0  0
    0.5184    0.6751   -3.5919 H   0  0  0  0  0  0  0  0  0  0  0  0
    1.8884    0.9867   -2.5168 H   0  0  0  0  0  0  0  0  0  0  0  0
    1.7301   -1.0252   -3.1876 N   0  3  0  0  0  0  0  0  0  0  0  0
    1.0167   -1.6996   -3.4346 H   0  0  0  0  0  0  0  0  0  0  0  0
    2.3303   -0.8874   -3.9912 H   0  0  0  0  0  0  0  0  0  0  0  0
    2.2880   -1.4103   -2.4344 H   0  0  0  0  0  0  0  0  0  0  0  0
   -0.5865    0.0771    2.2496 C   0  0  0  0  0  0  0  0  0  0  0  0
    0.5860   -0.1608    2.5143 O   0  0  0  0  0  0  0  0  0  0  0  0
   -1.4786    0.4656    3.1667 N   0  0  0  0  0  0  0  0  0  0  0  0
   -2.4139    0.6698    2.8558 H   0  0  0  0  0  0  0  0  0  0  0  0
   -1.1587    0.6908    4.5775 C   0  0  0  0  0  0  0  0  0  0  0  0
   -0.4270    1.4968    4.6656 H   0  0  0  0  0  0  0  0  0  0  0  0
   -2.0565    0.9649    5.1327 H   0  0  0  0  0  0  0  0  0  0  0  0
   -0.7281   -0.2137    5.0125 H   0  0  0  0  0  0  0  0  0  0  0  0
  5  6  2  0  0  0  0
  5  7  1  0  0  0  0
  2  3  1  0  0  0  0
  2  4  1  0  0  0  0
  2  5  1  0  0  0  0
  1  2  1  0  0  0  0
 27 28  2  0  0  0  0
 27 29  1  0  0  0  0
 23 24  1  0  0  0  0
 23 25  1  0  0  0  0
 23 26  1  0  0  0  0
 20 21  1  0  0  0  0
 20 22  1  0  0  0  0
 20 23  1  0  0  0  0
 17 18  1  0  0  0  0
 17 19  1  0  0  0  0
 17 20  1  0  0  0  0
 14 15  1  0  0  0  0
 14 16  1  0  0  0  0
 14 17  1  0  0  0  0
 11 12  1  0  0  0  0
 11 13  1  0  0  0  0
 11 14  1  0  0  0  0
  9 10  1  0  0  0  0
  9 11  1  0  0  0  0
  9 27  1  0  0  0  0
  7  8  1  0  0  0  0
  7  9  1  0  0  0  0
 31 32  1  0  0  0  0
 31 33  1  0  0  0  0
 31 34  1  0  0  0  0
 29 30  1  0  0  0  0
 29 31  1  0  0  0  0
M  CHG  1  23   1
M  END
$$$$
default_name
  -OEChem-02102213163D

 34 33  0     1  0  0  0  0  0999 V2000
   -3.8899   -3.6747    1.6490 H   0  0  0  0  0  0  0  0  0  0  0  0
   -3.9109   -2.6717    1.2250 C   0  0  0  0  0  0  0  0  0  0  0  0
   -4.6009   -2.0517    1.7950 H   0  0  0  0  0  0  0  0  0  0  0  0
   -4.2309   -2.7237    0.1860 H   0  0  0  0  0  0  0  0  0  0  0  0
   -2.5229   -2.0787    1.2980 C   0  0  0  0  0  0  0  0  0  0  0  0
   -1.5999   -2.7227    1.7810 O   0  0  0  0  0  0  0  0  0  0  0  0
   -2.3659   -0.8447    0.8120 N   0  0  0  0  0  0  0  0  0  0  0  0
   -3.1749   -0.3807    0.4220 H   0  0  0  0  0  0  0  0  0  0  0  0
   -1.0919   -0.1077    0.8170 C   0  0  1  0  0  0  0  0  0  0  0  0
   -0.3571   -0.6901    0.2581 H   0  0  0  0  0  0  0  0  0  0  0  0
   -1.3037    1.2411    0.1040 C   0  0  0  0  0  0  0  0  0  0  0  0
   -2.3450    1.3056   -0.2156 H   0  0  0  0  0  0  0  0  0  0  0  0
   -1.1133    2.0531    0.8085 H   0  0  0  0  0  0  0  0  0  0  0  0
   -0.4076    1.4218   -1.1308 C   0  0  0  0  0  0  0  0  0  0  0  0
   -0.9101    2.0594   -1.8593 H   0  0  0  0  0  0  0  0  0  0  0  0
    0.5290    1.8947   -0.8291 H   0  0  0  0  0  0  0  0  0  0  0  0
   -0.1054    0.0620   -1.7756 C   0  0  0  0  0  0  0  0  0  0  0  0
    0.3843   -0.5794   -1.0389 H   0  0  0  0  0  0  0  0  0  0  0  0
   -1.0442   -0.4025   -2.0837 H   0  0  0  0  0  0  0  0  0  0  0  0
    0.8095    0.2384   -2.9939 C   0  0  0  0  0  0  0  0  0  0  0  0
    0.3049    0.8892   -3.7155 H   0  0  0  0  0  0  0  0  0  0  0  0
    1.7252    0.7428   -2.6709 H   0  0  0  0  0  0  0  0  0  0  0  0
    1.1376   -1.0656   -3.6236 N   0  3  0  0  0  0  0  0  0  0  0  0
    0.2947   -1.5324   -3.9341 H   0  0  0  0  0  0  0  0  0  0  0  0
    1.7416   -0.9319   -4.4250 H   0  0  0  0  0  0  0  0  0  0  0  0
    1.6128   -1.6685   -2.9622 H   0  0  0  0  0  0  0  0  0  0  0  0
   -0.5865    0.0771    2.2496 C   0  0  0  0  0  0  0  0  0  0  0  0
    0.5860   -0.1608    2.5143 O   0  0  0  0  0  0  0  0  0  0  0  0
   -1.4786    0.4656    3.1667 N   0  0  0  0  0  0  0  0  0  0  0  0
   -2.4139    0.6698    2.8558 H   0  0  0  0  0  0  0  0  0  0  0  0
   -1.1587    0.6908    4.5775 C   0  0  0  0  0  0  0  0  0  0  0  0
   -0.4270    1.4968    4.6656 H   0  0  0  0  0  0  0  0  0  0  0  0
   -2.0565    0.9649    5.1327 H   0  0  0  0  0  0  0  0  0  0  0  0
   -0.7281   -0.2137    5.0125 H   0  0  0  0  0  0  0  0  0  0  0  0
  5  6  2  0  0  0  0
  5  7  1  0  0  0  0
  2  3  1  0  0  0  0
  2  4  1  0  0  0  0
  2  5  1  0  0  0  0
  1  2  1  0  0  0  0
 27 28  2  0  0  0  0
 27 29  1  0  0  0  0
 23 24  1  0  0  0  0
 23 25  1  0  0  0  0
 23 26  1  0  0  0  0
 20 21  1  0  0  0  0
 20 22  1  0  0  0  0
 20 23  1  0  0  0  0
 17 18  1  0  0  0  0
 17 19  1  0  0  0  0
 17 20  1  0  0  0  0
 14 15  1  0  0  0  0
 14 16  1  0  0  0  0
 14 17  1  0  0  0  0
 11 12  1  0  0  0  0
 11 13  1  0  0  0  0
 11 14  1  0  0  0  0
  9 10  1  0  0  0  0
  9 11  1  0  0  0  0
  9 27  1  0  0  0  0
  7  8  1  0  0  0  0
  7  9  1  0  0  0  0
 31 32  1  0  0  0  0
 31 33  1  0  0  0  0
 31 34  1  0  0  0  0
 29 30  1  0  0  0  0
 29 31  1  0  0  0  0
M  CHG  1  23   1
M  END
$$$$
default_name
  -OEChem-02102213163D

 34 33  0     1  0  0  0  0  0999 V2000
   -3.8899   -3.6747    1.6490 H   0  0  0  0  0  0  0  0  0  0  0  0
   -3.9109   -2.6717    1.2250 C   0  0  0  0  0  0  0  0  0  0  0  0
   -4.6009   -2.0517    1.7950 H   0  0  0  0  0  0  0  0  0  0  0  0
   -4.2309   -2.7237    0.1860 H   0  0  0  0  0  0  0  0  0  0  0  0
   -2.5229   -2.0787    1.2980 C   0  0  0  0  0  0  0  0  0  0  0  0
   -1.5999   -2.7227    1.7810 O   0  0  0  0  0  0  0  0  0  0  0  0
   -2.3659   -0.8447    0.8120 N   0  0  0  0  0  0  0  0  0  0  0  0
   -3.1749   -0.3807    0.4220 H   0  0  0  0  0  0  0  0  0  0  0  0
   -1.0919   -0.1077    0.8170 C   0  0  1  0  0  0  0  0  0  0  0  0
   -0.3571   -0.6901    0.2581 H   0  0  0  0  0  0  0  0  0  0  0  0
   -1.3037    1.2411    0.1040 C   0  0  0  0  0  0  0  0  0  0  0  0
   -2.3450    1.3056   -0.2156 H   0  0  0  0  0  0  0  0  0  0  0  0
   -1.1133    2.0531    0.8085 H   0  0  0  0  0  0  0  0  0  0  0  0
   -0.4076    1.4218   -1.1308 C   0  0  0  0  0  0  0  0  0  0  0  0
   -0.7752    2.2537   -1.7330 H   0  0  0  0  0  0  0  0  0  0  0  0
    0.6118    1.6397   -0.8063 H   0  0  0  0  0  0  0  0  0  0  0  0
   -0.4076    0.1450   -1.9827 C   0  0  0  0  0  0  0  0  0  0  0  0
   -0.0531   -0.6892   -1.3725 H   0  0  0  0  0  0  0  0  0  0  0  0
   -1.4274   -0.0633   -2.3122 H   0  0  0  0  0  0  0  0  0  0  0  0
    0.5063    0.3151   -3.2028 C   0  0  0  0  0  0  0  0  0  0  0  0
    0.1394    1.1591   -3.7961 H   0  0  0  0  0  0  0  0  0  0  0  0
    1.5121    0.5644   -2.8517 H   0  0  0  0  0  0  0  0  0  0  0  0
    0.5436   -0.9154   -4.0327 N   0  3  0  0  0  0  0  0  0  0  0  0
   -0.3830   -1.1454   -4.3694 H   0  0  0  0  0  0  0  0  0  0  0  0
    1.1506   -0.7869   -4.8328 H   0  0  0  0  0  0  0  0  0  0  0  0
    0.8909   -1.6979   -3.4905 H   0  0  0  0  0  0  0  0  0  0  0  0
   -0.5865    0.0771    2.2496 C   0  0  0  0  0  0  0  0  0  0  0  0
    0.5860   -0.1608    2.5143 O   0  0  0  0  0  0  0  0  0  0  0  0
   -1.4786    0.4656    3.1667 N   0  0  0  0  0  0  0  0  0  0  0  0
   -2.4139    0.6698    2.8558 H   0  0  0  0  0  0  0  0  0  0  0  0
   -1.1587    0.6908    4.5775 C   0  0  0  0  0  0  0  0  0  0  0  0
   -0.4270    1.4968    4.6656 H   0  0  0  0  0  0  0  0  0  0  0  0
   -2.0565    0.9649    5.1327 H   0  0  0  0  0  0  0  0  0  0  0  0
   -0.7281   -0.2137    5.0125 H   0  0  0  0  0  0  0  0  0  0  0  0
  5  6  2  0  0  0  0
  5  7  1  0  0  0  0
  2  3  1  0  0  0  0
  2  4  1  0  0  0  0
  2  5  1  0  0  0  0
  1  2  1  0  0  0  0
 27 28  2  0  0  0  0
 27 29  1  0  0  0  0
 23 24  1  0  0  0  0
 23 25  1  0  0  0  0
 23 26  1  0  0  0  0
 20 21  1  0  0  0  0
 20 22  1  0  0  0  0
 20 23  1  0  0  0  0
 17 18  1  0  0  0  0
 17 19  1  0  0  0  0
 17 20  1  0  0  0  0
 14 15  1  0  0  0  0
 14 16  1  0  0  0  0
 14 17  1  0  0  0  0
 11 12  1  0  0  0  0
 11 13  1  0  0  0  0
 11 14  1  0  0  0  0
  9 10  1  0  0  0  0
  9 11  1  0  0  0  0
  9 27  1  0  0  0  0
  7  8  1  0  0  0  0
  7  9  1  0  0  0  0
 31 32  1  0  0  0  0
 31 33  1  0  0  0  0
 31 34  1  0  0  0  0
 29 30  1  0  0  0  0
 29 31  1  0  0  0  0
M  CHG  1  23   1
M  END
$$$$
default_name
  -OEChem-02102213163D

 34 33  0     1  0  0  0  0  0999 V2000
   -3.8899   -3.6747    1.6490 H   0  0  0  0  0  0  0  0  0  0  0  0
   -3.9109   -2.6717    1.2250 C   0  0  0  0  0  0  0  0  0  0  0  0
   -4.6009   -2.0517    1.7950 H   0  0  0  0  0  0  0  0  0  0  0  0
   -4.2309   -2.7237    0.1860 H   0  0  0  0  0  0  0  0  0  0  0  0
   -2.5229   -2.0787    1.2980 C   0  0  0  0  0  0  0  0  0  0  0  0
   -1.5999   -2.7227    1.7810 O   0  0  0  0  0  0  0  0  0  0  0  0
   -2.3659   -0.8447    0.8120 N   0  0  0  0  0  0  0  0  0  0  0  0
   -3.1749   -0.3807    0.4220 H   0  0  0  0  0  0  0  0  0  0  0  0
   -1.0919   -0.1077    0.8170 C   0  0  1  0  0  0  0  0  0  0  0  0
   -0.3571   -0.6901    0.2581 H   0  0  0  0  0  0  0  0  0  0  0  0
   -1.3037    1.2411    0.1040 C   0  0  0  0  0  0  0  0  0  0  0  0
   -2.3450    1.3056   -0.2156 H   0  0  0  0  0  0  0  0  0  0  0  0
   -1.1133    2.0531    0.8085 H   0  0  0  0  0  0  0  0  0  0  0  0
   -0.4076    1.4218   -1.1308 C   0  0  0  0  0  0  0  0  0  0  0  0
   -0.6007    2.3942   -1.5857 H   0  0  0  0  0  0  0  0  0  0  0  0
    0.6394    1.3727   -0.8253 H   0  0  0  0  0  0  0  0  0  0  0  0
   -0.6885    0.3192   -2.1611 C   0  0  0  0  0  0  0  0  0  0  0  0
   -0.5086   -0.6539   -1.6979 H   0  0  0  0  0  0  0  0  0  0  0  0
   -1.7340    0.3785   -2.4701 H   0  0  0  0  0  0  0  0  0  0  0  0
    0.2230    0.4839   -3.3837 C   0  0  0  0  0  0  0  0  0  0  0  0
    0.0333    1.4663   -3.8281 H   0  0  0  0  0  0  0  0  0  0  0  0
    1.2637    0.4637   -3.0467 H   0  0  0  0  0  0  0  0  0  0  0  0
   -0.0114   -0.5851   -4.3872 N   0  3  0  0  0  0  0  0  0  0  0  0
   -0.9704   -0.5648   -4.7107 H   0  0  0  0  0  0  0  0  0  0  0  0
    0.5974   -0.4624   -5.1867 H   0  0  0  0  0  0  0  0  0  0  0  0
    0.1713   -1.4963   -3.9832 H   0  0  0  0  0  0  0  0  0  0  0  0
   -0.5865    0.0771    2.2496 C   0  0  0  0  0  0  0  0  0  0  0  0
    0.5860   -0.1608    2.5143 O   0  0  0  0  0  0  0  0  0  0  0  0
   -1.4786    0.4656    3.1667 N   0  0  0  0  0  0  0  0  0  0  0  0
   -2.4139    0.6698    2.8558 H   0  0  0  0  0  0  0  0  0  0  0  0
   -1.1587    0.6908    4.5775 C   0  0  0  0  0  0  0  0  0  0  0  0
   -0.4270    1.4968    4.6656 H   0  0  0  0  0  0  0  0  0  0  0  0
   -2.0565    0.9649    5.1327 H   0  0  0  0  0  0  0  0  0  0  0  0
   -0.7281   -0.2137    5.0125 H   0  0  0  0  0  0  0  0  0  0  0  0
  5  6  2  0  0  0  0
  5  7  1  0  0  0  0
  2  3  1  0  0  0  0
  2  4  1  0  0  0  0
  2  5  1  0  0  0  0
  1  2  1  0  0  0  0
 27 28  2  0  0  0  0
 27 29  1  0  0  0  0
 23 24  1  0  0  0  0
 23 25  1  0  0  0  0
 23 26  1  0  0  0  0
 20 21  1  0  0  0  0
 20 22  1  0  0  0  0
 20 23  1  0  0  0  0
 17 18  1  0  0  0  0
 17 19  1  0  0  0  0
 17 20  1  0  0  0  0
 14 15  1  0  0  0  0
 14 16  1  0  0  0  0
 14 17  1  0  0  0  0
 11 12  1  0  0  0  0
 11 13  1  0  0  0  0
 11 14  1  0  0  0  0
  9 10  1  0  0  0  0
  9 11  1  0  0  0  0
  9 27  1  0  0  0  0
  7  8  1  0  0  0  0
  7  9  1  0  0  0  0
 31 32  1  0  0  0  0
 31 33  1  0  0  0  0
 31 34  1  0  0  0  0
 29 30  1  0  0  0  0
 29 31  1  0  0  0  0
M  CHG  1  23   1
M  END
$$$$
default_name
  -OEChem-02102213163D

 34 33  0     1  0  0  0  0  0999 V2000
   -3.8899   -3.6747    1.6490 H   0  0  0  0  0  0  0  0  0  0  0  0
   -3.9109   -2.6717    1.2250 C   0  0  0  0  0  0  0  0  0  0  0  0
   -4.6009   -2.0517    1.7950 H   0  0  0  0  0  0  0  0  0  0  0  0
   -4.2309   -2.7237    0.1860 H   0  0  0  0  0  0  0  0  0  0  0  0
   -2.5229   -2.0787    1.2980 C   0  0  0  0  0  0  0  0  0  0  0  0
   -1.5999   -2.7227    1.7810 O   0  0  0  0  0  0  0  0  0  0  0  0
   -2.3659   -0.8447    0.8120 N   0  0  0  0  0  0  0  0  0  0  0  0
   -3.1749   -0.3807    0.4220 H   0  0  0  0  0  0  0  0  0  0  0  0
   -1.0919   -0.1077    0.8170 C   0  0  1  0  0  0  0  0  0  0  0  0
   -0.3571   -0.6901    0.2581 H   0  0  0  0  0  0  0  0  0  0  0  0
   -1.3037    1.2411    0.1040 C   0  0  0  0  0  0  0  0  0  0  0  0
   -2.3450    1.3056   -0.2156 H   0  0  0  0  0  0  0  0  0  0  0  0
   -1.1133    2.0531    0.8085 H   0  0  0  0  0  0  0  0  0  0  0  0
   -0.4076    1.4218   -1.1308 C   0  0  0  0  0  0  0  0  0  0  0  0
   -0.3984    2.4714   -1.4276 H   0  0  0  0  0  0  0  0  0  0  0  0
    0.6100    1.1119   -0.8849 H   0  0  0  0  0  0  0  0  0  0  0  0
   -0.9290    0.5729   -2.2985 C   0  0  0  0  0  0  0  0  0  0  0  0
   -0.9512   -0.4759   -1.9930 H   0  0  0  0  0  0  0  0  0  0  0  0
   -1.9430    0.8929   -2.5465 H   0  0  0  0  0  0  0  0  0  0  0  0
   -0.0211    0.7331   -3.5244 C   0  0  0  0  0  0  0  0  0  0  0  0
   -0.0062    1.7901   -3.8095 H   0  0  0  0  0  0  0  0  0  0  0  0
    0.9969    0.4476   -3.2427 H   0  0  0  0  0  0  0  0  0  0  0  0
   -0.4896   -0.0970   -4.6628 N   0  3  0  0  0  0  0  0  0  0  0  0
   -1.4275    0.1697   -4.9349 H   0  0  0  0  0  0  0  0  0  0  0  0
    0.1198    0.0196   -5.4628 H   0  0  0  0  0  0  0  0  0  0  0  0
   -0.4968   -1.0775   -4.4068 H   0  0  0  0  0  0  0  0  0  0  0  0
   -0.5865    0.0771    2.2496 C   0  0  0  0  0  0  0  0  0  0  0  0
    0.5860   -0.1608    2.5143 O   0  0  0  0  0  0  0  0  0  0  0  0
   -1.4786    0.4656    3.1667 N   0  0  0  0  0  0  0  0  0  0  0  0
   -2.4139    0.6698    2.8558 H   0  0  0  0  0  0  0  0  0  0  0  0
   -1.1587    0.6908    4.5775 C   0  0  0  0  0  0  0  0  0  0  0  0
   -0.4270    1.4968    4.6656 H   0  0  0  0  0  0  0  0  0  0  0  0
   -2.0565    0.9649    5.1327 H   0  0  0  0  0  0  0  0  0  0  0  0
   -0.7281   -0.2137    5.0125 H   0  0  0  0  0  0  0  0  0  0  0  0
  5  6  2  0  0  0  0
  5  7  1  0  0  0  0
  2  3  1  0  0  0  0
  2  4  1  0  0  0  0
  2  5  1  0  0  0  0
  1  2  1  0  0  0  0
 27 28  2  0  0  0  0
 27 29  1  0  0  0  0
 23 24  1  0  0  0  0
 23 25  1  0  0  0  0
 23 26  1  0  0  0  0
 20 21  1  0  0  0  0
 20 22  1  0  0  0  0
 20 23  1  0  0  0  0
 17 18  1  0  0  0  0
 17 19  1  0  0  0  0
 17 20  1  0  0  0  0
 14 15  1  0  0  0  0
 14 16  1  0  0  0  0
 14 17  1  0  0  0  0
 11 12  1  0  0  0  0
 11 13  1  0  0  0  0
 11 14  1  0  0  0  0
  9 10  1  0  0  0  0
  9 11  1  0  0  0  0
  9 27  1  0  0  0  0
  7  8  1  0  0  0  0
  7  9  1  0  0  0  0
 31 32  1  0  0  0  0
 31 33  1  0  0  0  0
 31 34  1  0  0  0  0
 29 30  1  0  0  0  0
 29 31  1  0  0  0  0
M  CHG  1  23   1
M  END
$$$$
default_name
  -OEChem-02102213163D

 34 33  0     1  0  0  0  0  0999 V2000
   -3.8899   -3.6747    1.6490 H   0  0  0  0  0  0  0  0  0  0  0  0
   -3.9109   -2.6717    1.2250 C   0  0  0  0  0  0  0  0  0  0  0  0
   -4.6009   -2.0517    1.7950 H   0  0  0  0  0  0  0  0  0  0  0  0
   -4.2309   -2.7237    0.1860 H   0  0  0  0  0  0  0  0  0  0  0  0
   -2.5229   -2.0787    1.2980 C   0  0  0  0  0  0  0  0  0  0  0  0
   -1.5999   -2.7227    1.7810 O   0  0  0  0  0  0  0  0  0  0  0  0
   -2.3659   -0.8447    0.8120 N   0  0  0  0  0  0  0  0  0  0  0  0
   -3.1749   -0.3807    0.4220 H   0  0  0  0  0  0  0  0  0  0  0  0
   -1.0919   -0.1077    0.8170 C   0  0  1  0  0  0  0  0  0  0  0  0
   -0.3571   -0.6901    0.2581 H   0  0  0  0  0  0  0  0  0  0  0  0
   -1.3037    1.2411    0.1040 C   0  0  0  0  0  0  0  0  0  0  0  0
   -2.3450    1.3056   -0.2156 H   0  0  0  0  0  0  0  0  0  0  0  0
   -1.1133    2.0531    0.8085 H   0  0  0  0  0  0  0  0  0  0  0  0
   -0.4076    1.4218   -1.1308 C   0  0  0  0  0  0  0  0  0  0  0  0
   -0.1821    2.4800   -1.2694 H   0  0  0  0  0  0  0  0  0  0  0  0
    0.5255    0.8751   -0.9808 H   0  0  0  0  0  0  0  0  0  0  0  0
   -1.1127    0.8887   -2.3857 C   0  0  0  0  0  0  0  0  0  0  0  0
   -1.3506   -0.1674   -2.2378 H   0  0  0  0  0  0  0  0  0  0  0  0
   -2.0402    1.4447   -2.5363 H   0  0  0  0  0  0  0  0  0  0  0  0
   -0.2093    1.0458   -3.6152 C   0  0  0  0  0  0  0  0  0  0  0  0
    0.0235    2.1081   -3.7414 H   0  0  0  0  0  0  0  0  0  0  0  0
    0.7299    0.5171   -3.4263 H   0  0  0  0  0  0  0  0  0  0  0  0
   -0.8583    0.5155   -4.8408 N   0  3  0  0  0  0  0  0  0  0  0  0
   -1.7229    1.0081   -5.0267 H   0  0  0  0  0  0  0  0  0  0  0  0
   -0.2497    0.6262   -5.6422 H   0  0  0  0  0  0  0  0  0  0  0  0
   -1.0679   -0.4700   -4.7324 H   0  0  0  0  0  0  0  0  0  0  0  0
   -0.5865    0.0771    2.2496 C   0  0  0  0  0  0  0  0  0  0  0  0
    0.5860   -0.1608    2.5143 O   0  0  0  0  0  0  0  0  0  0  0  0
   -1.4786    0.4656    3.1667 N   0  0  0  0  0  0  0  0  0  0  0  0
   -2.4139    0.6698    2.8558 H   0  0  0  0  0  0  0  0  0  0  0  0
   -1.1587    0.6908    4.5775 C   0  0  0  0  0  0  0  0  0  0  0  0
   -0.4270    1.4968    4.6656 H   0  0  0  0  0  0  0  0  0  0  0  0
   -2.0565    0.9649    5.1327 H   0  0  0  0  0  0  0  0  0  0  0  0
   -0.7281   -0.2137    5.0125 H   0  0  0  0  0  0  0  0  0  0  0  0
  5  6  2  0  0  0  0
  5  7  1  0  0  0  0
  2  3  1  0  0  0  0
  2  4  1  0  0  0  0
  2  5  1  0  0  0  0
  1  2  1  0  0  0  0
 27 28  2  0  0  0  0
 27 29  1  0  0  0  0
 23 24  1  0  0  0  0
 23 25  1  0  0  0  0
 23 26  1  0  0  0  0
 20 21  1  0  0  0  0
 20 22  1  0  0  0  0
 20 23  1  0  0  0  0
 17 18  1  0  0  0  0
 17 19  1  0  0  0  0
 17 20  1  0  0  0  0
 14 15  1  0  0  0  0
 14 16  1  0  0  0  0
 14 17  1  0  0  0  0
 11 12  1  0  0  0  0
 11 13  1  0  0  0  0
 11 14  1  0  0  0  0
  9 10  1  0  0  0  0
  9 11  1  0  0  0  0
  9 27  1  0  0  0  0
  7  8  1  0  0  0  0
  7  9  1  0  0  0  0
 31 32  1  0  0  0  0
 31 33  1  0  0  0  0
 31 34  1  0  0  0  0
 29 30  1  0  0  0  0
 29 31  1  0  0  0  0
M  CHG  1  23   1
M  END
$$$$
default_name
  -OEChem-02102213163D

 34 33  0     1  0  0  0  0  0999 V2000
   -3.8899   -3.6747    1.6490 H   0  0  0  0  0  0  0  0  0  0  0  0
   -3.9109   -2.6717    1.2250 C   0  0  0  0  0  0  0  0  0  0  0  0
   -4.6009   -2.0517    1.7950 H   0  0  0  0  0  0  0  0  0  0  0  0
   -4.2309   -2.7237    0.1860 H   0  0  0  0  0  0  0  0  0  0  0  0
   -2.5229   -2.0787    1.2980 C   0  0  0  0  0  0  0  0  0  0  0  0
   -1.5999   -2.7227    1.7810 O   0  0  0  0  0  0  0  0  0  0  0  0
   -2.3659   -0.8447    0.8120 N   0  0  0  0  0  0  0  0  0  0  0  0
   -3.1749   -0.3807    0.4220 H   0  0  0  0  0  0  0  0  0  0  0  0
   -1.0919   -0.1077    0.8170 C   0  0  1  0  0  0  0  0  0  0  0  0
   -0.3571   -0.6901    0.2581 H   0  0  0  0  0  0  0  0  0  0  0  0
   -1.3037    1.2411    0.1040 C   0  0  0  0  0  0  0  0  0  0  0  0
   -2.3450    1.3056   -0.2156 H   0  0  0  0  0  0  0  0  0  0  0  0
   -1.1133    2.0531    0.8085 H   0  0  0  0  0  0  0  0  0  0  0  0
   -0.4076    1.4218   -1.1308 C   0  0  0  0  0  0  0  0  0  0  0  0
    0.0334    2.4194   -1.1218 H   0  0  0  0  0  0  0  0  0  0  0  0
    0.3917    0.6784   -1.1067 H   0  0  0  0  0  0  0  0  0  0  0  0
   -1.2271    1.2451   -2.4166 C   0  0  0  0  0  0  0  0  0  0  0  0
   -1.6797    0.2506   -2.4154 H   0  0  0  0  0  0  0  0  0  0  0  0
   -2.0190    1.9965   -2.4401 H   0  0  0  0  0  0  0  0  0  0  0  0
   -0.3288    1.4007   -3.6500 C   0  0  0  0  0  0  0  0  0  0  0  0
    0.1204    2.3989   -3.6285 H   0  0  0  0  0  0  0  0  0  0  0  0
    0.4808    0.6675   -3.5851 H   0  0  0  0  0  0  0  0  0  0  0  0
   -1.0925    1.2107   -4.9090 N   0  3  0  0  0  0  0  0  0  0  0  0
   -1.8368    1.8932   -4.9798 H   0  0  0  0  0  0  0  0  0  0  0  0
   -0.4859    1.3161   -5.7126 H   0  0  0  0  0  0  0  0  0  0  0  0
   -1.5031    0.2847   -4.9378 H   0  0  0  0  0  0  0  0  0  0  0  0
   -0.5865    0.0771    2.2496 C   0  0  0  0  0  0  0  0  0  0  0  0
    0.5860   -0.1608    2.5143 O   0  0  0  0  0  0  0  0  0  0  0  0
   -1.4786    0.4656    3.1667 N   0  0  0  0  0  0  0  0  0  0  0  0
   -2.4139    0.6698    2.8558 H   0  0  0  0  0  0  0  0  0  0  0  0
   -1.1587    0.6908    4.5775 C   0  0  0  0  0  0  0  0  0  0  0  0
   -0.4270    1.4968    4.6656 H   0  0  0  0  0  0  0  0  0  0  0  0
   -2.0565    0.9649    5.1327 H   0  0  0  0  0  0  0  0  0  0  0  0
   -0.7281   -0.2137    5.0125 H   0  0  0  0  0  0  0  0  0  0  0  0
  5  6  2  0  0  0  0
  5  7  1  0  0  0  0
  2  3  1  0  0  0  0
  2  4  1  0  0  0  0
  2  5  1  0  0  0  0
  1  2  1  0  0  0  0
 27 28  2  0  0  0  0
 27 29  1  0  0  0  0
 23 24  1  0  0  0  0
 23 25  1  0  0  0  0
 23 26  1  0  0  0  0
 20 21  1  0  0  0  0
 20 22  1  0  0  0  0
 20 23  1  0  0  0  0
 17 18  1  0  0  0  0
 17 19  1  0  0  0  0
 17 20  1  0  0  0  0
 14 15  1  0  0  0  0
 14 16  1  0  0  0  0
 14 17  1  0  0  0  0
 11 12  1  0  0  0  0
 11 13  1  0  0  0  0
 11 14  1  0  0  0  0
  9 10  1  0  0  0  0
  9 11  1  0  0  0  0
  9 27  1  0  0  0  0
  7  8  1  0  0  0  0
  7  9  1  0  0  0  0
 31 32  1  0  0  0  0
 31 33  1  0  0  0  0
 31 34  1  0  0  0  0
 29 30  1  0  0  0  0
 29 31  1  0  0  0  0
M  CHG  1  23   1
M  END
$$$$
default_name
  -OEChem-02102213163D

 34 33  0     1  0  0  0  0  0999 V2000
   -3.8899   -3.6747    1.6490 H   0  0  0  0  0  0  0  0  0  0  0  0
   -3.9109   -2.6717    1.2250 C   0  0  0  0  0  0  0  0  0  0  0  0
   -4.6009   -2.0517    1.7950 H   0  0  0  0  0  0  0  0  0  0  0  0
   -4.2309   -2.7237    0.1860 H   0  0  0  0  0  0  0  0  0  0  0  0
   -2.5229   -2.0787    1.2980 C   0  0  0  0  0  0  0  0  0  0  0  0
   -1.5999   -2.7227    1.7810 O   0  0  0  0  0  0  0  0  0  0  0  0
   -2.3659   -0.8447    0.8120 N   0  0  0  0  0  0  0  0  0  0  0  0
   -3.1749   -0.3807    0.4220 H   0  0  0  0  0  0  0  0  0  0  0  0
   -1.0919   -0.1077    0.8170 C   0  0  1  0  0  0  0  0  0  0  0  0
   -0.3571   -0.6901    0.2581 H   0  0  0  0  0  0  0  0  0  0  0  0
   -1.3037    1.2411    0.1040 C   0  0  0  0  0  0  0  0  0  0  0  0
   -2.3450    1.3056   -0.2156 H   0  0  0  0  0  0  0  0  0  0  0  0
   -1.1133    2.0531    0.8085 H   0  0  0  0  0  0  0  0  0  0  0  0
   -0.4076    1.4218   -1.1308 C   0  0  0  0  0  0  0  0  0  0  0  0
    0.2335    2.2938   -0.9950 H   0  0  0  0  0  0  0  0  0  0  0  0
    0.2177    0.5353   -1.2539 H   0  0  0  0  0  0  0  0  0  0  0  0
   -1.2645    1.6179   -2.3891 C   0  0  0  0  0  0  0  0  0  0  0  0
   -1.9160    0.7497   -2.5139 H   0  0  0  0  0  0  0  0  0  0  0  0
   -1.8808    2.5105   -2.2646 H   0  0  0  0  0  0  0  0  0  0  0  0
   -0.3714    1.7736   -3.6263 C   0  0  0  0  0  0  0  0  0  0  0  0
    0.2779    2.6426   -3.4785 H   0  0  0  0  0  0  0  0  0  0  0  0
    0.2666    0.8885   -3.7082 H   0  0  0  0  0  0  0  0  0  0  0  0
   -1.1762    1.9412   -4.8628 N   0  3  0  0  0  0  0  0  0  0  0  0
   -1.7611    2.7648   -4.7973 H   0  0  0  0  0  0  0  0  0  0  0  0
   -0.5726    2.0422   -5.6693 H   0  0  0  0  0  0  0  0  0  0  0  0
   -1.7727    1.1352   -5.0090 H   0  0  0  0  0  0  0  0  0  0  0  0
   -0.5865    0.0771    2.2496 C   0  0  0  0  0  0  0  0  0  0  0  0
    0.5860   -0.1608    2.5143 O   0  0  0  0  0  0  0  0  0  0  0  0
   -1.4786    0.4656    3.1667 N   0  0  0  0  0  0  0  0  0  0  0  0
   -2.4139    0.6698    2.8558 H   0  0  0  0  0  0  0  0  0  0  0  0
   -1.1587    0.6908    4.5775 C   0  0  0  0  0  0  0  0  0  0  0  0
   -0.4270    1.4968    4.6656 H   0  0  0  0  0  0  0  0  0  0  0  0
   -2.0565    0.9649    5.1327 H   0  0  0  0  0  0  0  0  0  0  0  0
   -0.7281   -0.2137    5.0125 H   0  0  0  0  0  0  0  0  0  0  0  0
  5  6  2  0  0  0  0
  5  7  1  0  0  0  0
  2  3  1  0  0  0  0
  2  4  1  0  0  0  0
  2  5  1  0  0  0  0
  1  2  1  0  0  0  0
 27 28  2  0  0  0  0
 27 29  1  0  0  0  0
 23 24  1  0  0  0  0
 23 25  1  0  0  0  0
 23 26  1  0  0  0  0
 20 21  1  0  0  0  0
 20 22  1  0  0  0  0
 20 23  1  0  0  0  0
 17 18  1  0  0  0  0
 17 19  1  0  0  0  0
 17 20  1  0  0  0  0
 14 15  1  0  0  0  0
 14 16  1  0  0  0  0
 14 17  1  0  0  0  0
 11 12  1  0  0  0  0
 11 13  1  0  0  0  0
 11 14  1  0  0  0  0
  9 10  1  0  0  0  0
  9 11  1  0  0  0  0
  9 27  1  0  0  0  0
  7  8  1  0  0  0  0
  7  9  1  0  0  0  0
 31 32  1  0  0  0  0
 31 33  1  0  0  0  0
 31 34  1  0  0  0  0
 29 30  1  0  0  0  0
 29 31  1  0  0  0  0
M  CHG  1  23   1
M  END
$$$$
default_name
  -OEChem-02102213163D

 34 33  0     1  0  0  0  0  0999 V2000
   -3.8899   -3.6747    1.6490 H   0  0  0  0  0  0  0  0  0  0  0  0
   -3.9109   -2.6717    1.2250 C   0  0  0  0  0  0  0  0  0  0  0  0
   -4.6009   -2.0517    1.7950 H   0  0  0  0  0  0  0  0  0  0  0  0
   -4.2309   -2.7237    0.1860 H   0  0  0  0  0  0  0  0  0  0  0  0
   -2.5229   -2.0787    1.2980 C   0  0  0  0  0  0  0  0  0  0  0  0
   -1.5999   -2.7227    1.7810 O   0  0  0  0  0  0  0  0  0  0  0  0
   -2.3659   -0.8447    0.8120 N   0  0  0  0  0  0  0  0  0  0  0  0
   -3.1749   -0.3807    0.4220 H   0  0  0  0  0  0  0  0  0  0  0  0
   -1.0919   -0.1077    0.8170 C   0  0  1  0  0  0  0  0  0  0  0  0
   -0.3571   -0.6901    0.2581 H   0  0  0  0  0  0  0  0  0  0  0  0
   -1.3037    1.2411    0.1040 C   0  0  0  0  0  0  0  0  0  0  0  0
   -2.3450    1.3056   -0.2156 H   0  0  0  0  0  0  0  0  0  0  0  0
   -1.1133    2.0531    0.8085 H   0  0  0  0  0  0  0  0  0  0  0  0
   -0.4076    1.4218   -1.1308 C   0  0  0  0  0  0  0  0  0  0  0  0
    0.4045    2.1117   -0.8976 H   0  0  0  0  0  0  0  0  0  0  0  0
    0.0154    0.4555   -1.4124 H   0  0  0  0  0  0  0  0  0  0  0  0
   -1.2222    1.9816   -2.3052 C   0  0  0  0  0  0  0  0  0  0  0  0
   -2.0435    1.2958   -2.5265 H   0  0  0  0  0  0  0  0  0  0  0  0
   -1.6351    2.9517   -2.0217 H   0  0  0  0  0  0  0  0  0  0  0  0
   -0.3344    2.1391   -3.5459 C   0  0  0  0  0  0  0  0  0  0  0  0
    0.4854    2.8226   -3.3016 H   0  0  0  0  0  0  0  0  0  0  0  0
    0.1020    1.1652   -3.7871 H   0  0  0  0  0  0  0  0  0  0  0  0
   -1.1036    2.6572   -4.7054 N   0  3  0  0  0  0  0  0  0  0  0  0
   -1.5013    3.5634   -4.4918 H   0  0  0  0  0  0  0  0  0  0  0  0
   -0.5041    2.7551   -5.5153 H   0  0  0  0  0  0  0  0  0  0  0  0
   -1.8584    2.0236   -4.9412 H   0  0  0  0  0  0  0  0  0  0  0  0
   -0.5865    0.0771    2.2496 C   0  0  0  0  0  0  0  0  0  0  0  0
    0.5860   -0.1608    2.5143 O   0  0  0  0  0  0  0  0  0  0  0  0
   -1.4786    0.4656    3.1667 N   0  0  0  0  0  0  0  0  0  0  0  0
   -2.4139    0.6698    2.8558 H   0  0  0  0  0  0  0  0  0  0  0  0
   -1.1587    0.6908    4.5775 C   0  0  0  0  0  0  0  0  0  0  0  0
   -0.4270    1.4968    4.6656 H   0  0  0  0  0  0  0  0  0  0  0  0
   -2.0565    0.9649    5.1327 H   0  0  0  0  0  0  0  0  0  0  0  0
   -0.7281   -0.2137    5.0125 H   0  0  0  0  0  0  0  0  0  0  0  0
  5  6  2  0  0  0  0
  5  7  1  0  0  0  0
  2  3  1  0  0  0  0
  2  4  1  0  0  0  0
  2  5  1  0  0  0  0
  1  2  1  0  0  0  0
 27 28  2  0  0  0  0
 27 29  1  0  0  0  0
 23 24  1  0  0  0  0
 23 25  1  0  0  0  0
 23 26  1  0  0  0  0
 20 21  1  0  0  0  0
 20 22  1  0  0  0  0
 20 23  1  0  0  0  0
 17 18  1  0  0  0  0
 17 19  1  0  0  0  0
 17 20  1  0  0  0  0
 14 15  1  0  0  0  0
 14 16  1  0  0  0  0
 14 17  1  0  0  0  0
 11 12  1  0  0  0  0
 11 13  1  0  0  0  0
 11 14  1  0  0  0  0
  9 10  1  0  0  0  0
  9 11  1  0  0  0  0
  9 27  1  0  0  0  0
  7  8  1  0  0  0  0
  7  9  1  0  0  0  0
 31 32  1  0  0  0  0
 31 33  1  0  0  0  0
 31 34  1  0  0  0  0
 29 30  1  0  0  0  0
 29 31  1  0  0  0  0
M  CHG  1  23   1
M  END
$$$$
default_name
  -OEChem-02102213163D

 34 33  0     1  0  0  0  0  0999 V2000
   -3.8899   -3.6747    1.6490 H   0  0  0  0  0  0  0  0  0  0  0  0
   -3.9109   -2.6717    1.2250 C   0  0  0  0  0  0  0  0  0  0  0  0
   -4.6009   -2.0517    1.7950 H   0  0  0  0  0  0  0  0  0  0  0  0
   -4.2309   -2.7237    0.1860 H   0  0  0  0  0  0  0  0  0  0  0  0
   -2.5229   -2.0787    1.2980 C   0  0  0  0  0  0  0  0  0  0  0  0
   -1.5999   -2.7227    1.7810 O   0  0  0  0  0  0  0  0  0  0  0  0
   -2.3659   -0.8447    0.8120 N   0  0  0  0  0  0  0  0  0  0  0  0
   -3.1749   -0.3807    0.4220 H   0  0  0  0  0  0  0  0  0  0  0  0
   -1.0919   -0.1077    0.8170 C   0  0  1  0  0  0  0  0  0  0  0  0
   -0.3571   -0.6901    0.2581 H   0  0  0  0  0  0  0  0  0  0  0  0
   -1.3037    1.2411    0.1040 C   0  0  0  0  0  0  0  0  0  0  0  0
   -2.3450    1.3056   -0.2156 H   0  0  0  0  0  0  0  0  0  0  0  0
   -1.1133    2.0531    0.8085 H   0  0  0  0  0  0  0  0  0  0  0  0
   -0.4076    1.4218   -1.1308 C   0  0  0  0  0  0  0  0  0  0  0  0
    0.5347    1.8855   -0.8361 H   0  0  0  0  0  0  0  0  0  0  0  0
   -0.2015    0.4444   -1.5714 H   0  0  0  0  0  0  0  0  0  0  0  0
   -1.1031    2.3114   -2.1705 C   0  0  0  0  0  0  0  0  0  0  0  0
   -2.0534    1.8517   -2.4524 H   0  0  0  0  0  0  0  0  0  0  0  0
   -1.2986    3.2901   -1.7280 H   0  0  0  0  0  0  0  0  0  0  0  0
   -0.2200    2.4724   -3.4142 C   0  0  0  0  0  0  0  0  0  0  0  0
    0.7285    2.9266   -3.1099 H   0  0  0  0  0  0  0  0  0  0  0  0
   -0.0018    1.4785   -3.8167 H   0  0  0  0  0  0  0  0  0  0  0  0
   -0.8798    3.3100   -4.4474 N   0  3  0  0  0  0  0  0  0  0  0  0
   -1.0748    4.2346   -4.0841 H   0  0  0  0  0  0  0  0  0  0  0  0
   -0.2849    3.4062   -5.2609 H   0  0  0  0  0  0  0  0  0  0  0  0
   -1.7543    2.8893   -4.7390 H   0  0  0  0  0  0  0  0  0  0  0  0
   -0.5865    0.0771    2.2496 C   0  0  0  0  0  0  0  0  0  0  0  0
    0.5860   -0.1608    2.5143 O   0  0  0  0  0  0  0  0  0  0  0  0
   -1.4786    0.4656    3.1667 N   0  0  0  0  0  0  0  0  0  0  0  0
   -2.4139    0.6698    2.8558 H   0  0  0  0  0  0  0  0  0  0  0  0
   -1.1587    0.6908    4.5775 C   0  0  0  0  0  0  0  0  0  0  0  0
   -0.4270    1.4968    4.6656 H   0  0  0  0  0  0  0  0  0  0  0  0
   -2.0565    0.9649    5.1327 H   0  0  0  0  0  0  0  0  0  0  0  0
   -0.7281   -0.2137    5.0125 H   0  0  0  0  0  0  0  0  0  0  0  0
  5  6  2  0  0  0  0
  5  7  1  0  0  0  0
  2  3  1  0  0  0  0
  2  4  1  0  0  0  0
  2  5  1  0  0  0  0
  1  2  1  0  0  0  0
 27 28  2  0  0  0  0
 27 29  1  0  0  0  0
 23 24  1  0  0  0  0
 23 25  1  0  0  0  0
 23 26  1  0  0  0  0
 20 21  1  0  0  0  0
 20 22  1  0  0  0  0
 20 23  1  0  0  0  0
 17 18  1  0  0  0  0
 17 19  1  0  0  0  0
 17 20  1  0  0  0  0
 14 15  1  0  0  0  0
 14 16  1  0  0  0  0
 14 17  1  0  0  0  0
 11 12  1  0  0  0  0
 11 13  1  0  0  0  0
 11 14  1  0  0  0  0
  9 10  1  0  0  0  0
  9 11  1  0  0  0  0
  9 27  1  0  0  0  0
  7  8  1  0  0  0  0
  7  9  1  0  0  0  0
 31 32  1  0  0  0  0
 31 33  1  0  0  0  0
 31 34  1  0  0  0  0
 29 30  1  0  0  0  0
 29 31  1  0  0  0  0
M  CHG  1  23   1
M  END
$$$$
default_name
  -OEChem-02102213163D

 34 33  0     1  0  0  0  0  0999 V2000
   -3.8899   -3.6747    1.6490 H   0  0  0  0  0  0  0  0  0  0  0  0
   -3.9109   -2.6717    1.2250 C   0  0  0  0  0  0  0  0  0  0  0  0
   -4.6009   -2.0517    1.7950 H   0  0  0  0  0  0  0  0  0  0  0  0
   -4.2309   -2.7237    0.1860 H   0  0  0  0  0  0  0  0  0  0  0  0
   -2.5229   -2.0787    1.2980 C   0  0  0  0  0  0  0  0  0  0  0  0
   -1.5999   -2.7227    1.7810 O   0  0  0  0  0  0  0  0  0  0  0  0
   -2.3659   -0.8447    0.8120 N   0  0  0  0  0  0  0  0  0  0  0  0
   -3.1749   -0.3807    0.4220 H   0  0  0  0  0  0  0  0  0  0  0  0
   -1.0919   -0.1077    0.8170 C   0  0  1  0  0  0  0  0  0  0  0  0
   -0.3571   -0.6901    0.2581 H   0  0  0  0  0  0  0  0  0  0  0  0
   -1.3037    1.2411    0.1040 C   0  0  0  0  0  0  0  0  0  0  0  0
   -2.3450    1.3056   -0.2156 H   0  0  0  0  0  0  0  0  0  0  0  0
   -1.1133    2.0531    0.8085 H   0  0  0  0  0  0  0  0  0  0  0  0
   -0.4076    1.4218   -1.1308 C   0  0  0  0  0  0  0  0  0  0  0  0
    0.6154    1.6307   -0.8149 H   0  0  0  0  0  0  0  0  0  0  0  0
   -0.4181    0.5028   -1.7201 H   0  0  0  0  0  0  0  0  0  0  0  0
   -0.9154    2.5848   -1.9942 C   0  0  0  0  0  0  0  0  0  0  0  0
   -1.9451    2.3795   -2.2965 H   0  0  0  0  0  0  0  0  0  0  0  0
   -0.8942    3.5027   -1.4033 H   0  0  0  0  0  0  0  0  0  0  0  0
   -0.0363    2.7506   -3.2401 C   0  0  0  0  0  0  0  0  0  0  0  0
    0.9909    2.9475   -2.9164 H   0  0  0  0  0  0  0  0  0  0  0  0
   -0.0379    1.8073   -3.7947 H   0  0  0  0  0  0  0  0  0  0  0  0
   -0.5200    3.8551   -4.1065 N   0  3  0  0  0  0  0  0  0  0  0  0
   -0.5108    4.7327   -3.6019 H   0  0  0  0  0  0  0  0  0  0  0  0
    0.0700    3.9511   -4.9236 H   0  0  0  0  0  0  0  0  0  0  0  0
   -1.4676    3.6733   -4.4161 H   0  0  0  0  0  0  0  0  0  0  0  0
   -0.5865    0.0771    2.2496 C   0  0  0  0  0  0  0  0  0  0  0  0
    0.5860   -0.1608    2.5143 O   0  0  0  0  0  0  0  0  0  0  0  0
   -1.4786    0.4656    3.1667 N   0  0  0  0  0  0  0  0  0  0  0  0
   -2.4139    0.6698    2.8558 H   0  0  0  0  0  0  0  0  0  0  0  0
   -1.1587    0.6908    4.5775 C   0  0  0  0  0  0  0  0  0  0  0  0
   -0.4270    1.4968    4.6656 H   0  0  0  0  0  0  0  0  0  0  0  0
   -2.0565    0.9649    5.1327 H   0  0  0  0  0  0  0  0  0  0  0  0
   -0.7281   -0.2137    5.0125 H   0  0  0  0  0  0  0  0  0  0  0  0
  5  6  2  0  0  0  0
  5  7  1  0  0  0  0
  2  3  1  0  0  0  0
  2  4  1  0  0  0  0
  2  5  1  0  0  0  0
  1  2  1  0  0  0  0
 27 28  2  0  0  0  0
 27 29  1  0  0  0  0
 23 24  1  0  0  0  0
 23 25  1  0  0  0  0
 23 26  1  0  0  0  0
 20 21  1  0  0  0  0
 20 22  1  0  0  0  0
 20 23  1  0  0  0  0
 17 18  1  0  0  0  0
 17 19  1  0  0  0  0
 17 20  1  0  0  0  0
 14 15  1  0  0  0  0
 14 16  1  0  0  0  0
 14 17  1  0  0  0  0
 11 12  1  0  0  0  0
 11 13  1  0  0  0  0
 11 14  1  0  0  0  0
  9 10  1  0  0  0  0
  9 11  1  0  0  0  0
  9 27  1  0  0  0  0
  7  8  1  0  0  0  0
  7  9  1  0  0  0  0
 31 32  1  0  0  0  0
 31 33  1  0  0  0  0
 31 34  1  0  0  0  0
 29 30  1  0  0  0  0
 29 31  1  0  0  0  0
M  CHG  1  23   1
M  END
$$$$
default_name
  -OEChem-02102213163D

 34 33  0     1  0  0  0  0  0999 V2000
   -3.8899   -3.6747    1.6490 H   0  0  0  0  0  0  0  0  0  0  0  0
   -3.9109   -2.6717    1.2250 C   0  0  0  0  0  0  0  0  0  0  0  0
   -4.6009   -2.0517    1.7950 H   0  0  0  0  0  0  0  0  0  0  0  0
   -4.2309   -2.7237    0.1860 H   0  0  0  0  0  0  0  0  0  0  0  0
   -2.5229   -2.0787    1.2980 C   0  0  0  0  0  0  0  0  0  0  0  0
   -1.5999   -2.7227    1.7810 O   0  0  0  0  0  0  0  0  0  0  0  0
   -2.3659   -0.8447    0.8120 N   0  0  0  0  0  0  0  0  0  0  0  0
   -3.1749   -0.3807    0.4220 H   0  0  0  0  0  0  0  0  0  0  0  0
   -1.0919   -0.1077    0.8170 C   0  0  1  0  0  0  0  0  0  0  0  0
   -0.3571   -0.6901    0.2581 H   0  0  0  0  0  0  0  0  0  0  0  0
   -1.3037    1.2411    0.1040 C   0  0  0  0  0  0  0  0  0  0  0  0
   -2.3759    1.4271    0.0235 H   0  0  0  0  0  0  0  0  0  0  0  0
   -0.8645    2.0384    0.7068 H   0  0  0  0  0  0  0  0  0  0  0  0
   -0.6992    1.2824   -1.3078 C   0  0  0  0  0  0  0  0  0  0  0  0
    0.3752    1.1022   -1.2528 H   0  0  0  0  0  0  0  0  0  0  0  0
   -1.1603    0.5043   -1.9192 H   0  0  0  0  0  0  0  0  0  0  0  0
   -0.9475    2.6515   -1.9558 C   0  0  0  0  0  0  0  0  0  0  0  0
   -2.0238    2.8356   -1.9958 H   0  0  0  0  0  0  0  0  0  0  0  0
   -0.4766    3.4249   -1.3457 H   0  0  0  0  0  0  0  0  0  0  0  0
   -0.3662    2.6859   -3.3747 C   0  0  0  0  0  0  0  0  0  0  0  0
    0.7097    2.4920   -3.3138 H   0  0  0  0  0  0  0  0  0  0  0  0
   -0.8200    1.8776   -3.9560 H   0  0  0  0  0  0  0  0  0  0  0  0
   -0.6136    3.9928   -4.0345 N   0  3  0  0  0  0  0  0  0  0  0  0
   -0.1869    4.7439   -3.5066 H   0  0  0  0  0  0  0  0  0  0  0  0
   -0.2245    3.9991   -4.9691 H   0  0  0  0  0  0  0  0  0  0  0  0
   -1.6085    4.1730   -4.1013 H   0  0  0  0  0  0  0  0  0  0  0  0
   -0.5865    0.0771    2.2496 C   0  0  0  0  0  0  0  0  0  0  0  0
    0.5860   -0.1608    2.5143 O   0  0  0  0  0  0  0  0  0  0  0  0
   -1.4786    0.4656    3.1667 N   0  0  0  0  0  0  0  0  0  0  0  0
   -2.4139    0.6698    2.8558 H   0  0  0  0  0  0  0  0  0  0  0  0
   -1.1587    0.6908    4.5775 C   0  0  0  0  0  0  0  0  0  0  0  0
   -0.4270    1.4968    4.6656 H   0  0  0  0  0  0  0  0  0  0  0  0
   -2.0565    0.9649    5.1327 H   0  0  0  0  0  0  0  0  0  0  0  0
   -0.7281   -0.2137    5.0125 H   0  0  0  0  0  0  0  0  0  0  0  0
  5  6  2  0  0  0  0
  5  7  1  0  0  0  0
  2  3  1  0  0  0  0
  2  4  1  0  0  0  0
  2  5  1  0  0  0  0
  1  2  1  0  0  0  0
 27 28  2  0  0  0  0
 27 29  1  0  0  0  0
 23 24  1  0  0  0  0
 23 25  1  0  0  0  0
 23 26  1  0  0  0  0
 20 21  1  0  0  0  0
 20 22  1  0  0  0  0
 20 23  1  0  0  0  0
 17 18  1  0  0  0  0
 17 19  1  0  0  0  0
 17 20  1  0  0  0  0
 14 15  1  0  0  0  0
 14 16  1  0  0  0  0
 14 17  1  0  0  0  0
 11 12  1  0  0  0  0
 11 13  1  0  0  0  0
 11 14  1  0  0  0  0
  9 10  1  0  0  0  0
  9 11  1  0  0  0  0
  9 27  1  0  0  0  0
  7  8  1  0  0  0  0
  7  9  1  0  0  0  0
 31 32  1  0  0  0  0
 31 33  1  0  0  0  0
 31 34  1  0  0  0  0
 29 30  1  0  0  0  0
 29 31  1  0  0  0  0
M  CHG  1  23   1
M  END
$$$$
default_name
  -OEChem-02102213163D

 34 33  0     1  0  0  0  0  0999 V2000
   -3.8899   -3.6747    1.6490 H   0  0  0  0  0  0  0  0  0  0  0  0
   -3.9109   -2.6717    1.2250 C   0  0  0  0  0  0  0  0  0  0  0  0
   -4.6009   -2.0517    1.7950 H   0  0  0  0  0  0  0  0  0  0  0  0
   -4.2309   -2.7237    0.1860 H   0  0  0  0  0  0  0  0  0  0  0  0
   -2.5229   -2.0787    1.2980 C   0  0  0  0  0  0  0  0  0  0  0  0
   -1.5999   -2.7227    1.7810 O   0  0  0  0  0  0  0  0  0  0  0  0
   -2.3659   -0.8447    0.8120 N   0  0  0  0  0  0  0  0  0  0  0  0
   -3.1749   -0.3807    0.4220 H   0  0  0  0  0  0  0  0  0  0  0  0
   -1.0919   -0.1077    0.8170 C   0  0  1  0  0  0  0  0  0  0  0  0
   -0.3571   -0.6901    0.2581 H   0  0  0  0  0  0  0  0  0  0  0  0
   -1.3037    1.2411    0.1040 C   0  0  0  0  0  0  0  0  0  0  0  0
   -2.3759    1.4271    0.0235 H   0  0  0  0  0  0  0  0  0  0  0  0
   -0.8645    2.0384    0.7068 H   0  0  0  0  0  0  0  0  0  0  0  0
   -0.6992    1.2824   -1.3078 C   0  0  0  0  0  0  0  0  0  0  0  0
    0.3011    0.8475   -1.2920 H   0  0  0  0  0  0  0  0  0  0  0  0
   -1.3291    0.7031   -1.9857 H   0  0  0  0  0  0  0  0  0  0  0  0
   -0.6107    2.7304   -1.8093 C   0  0  0  0  0  0  0  0  0  0  0  0
   -1.6120    3.1679   -1.8097 H   0  0  0  0  0  0  0  0  0  0  0  0
    0.0275    3.3030   -1.1333 H   0  0  0  0  0  0  0  0  0  0  0  0
   -0.0304    2.7713   -3.2284 C   0  0  0  0  0  0  0  0  0  0  0  0
    0.9680    2.3223   -3.2081 H   0  0  0  0  0  0  0  0  0  0  0  0
   -0.6605    2.1579   -3.8795 H   0  0  0  0  0  0  0  0  0  0  0  0
    0.0442    4.1602   -3.7479 N   0  3  0  0  0  0  0  0  0  0  0  0
    0.6346    4.7302   -3.1552 H   0  0  0  0  0  0  0  0  0  0  0  0
    0.4286    4.1698   -4.6845 H   0  0  0  0  0  0  0  0  0  0  0  0
   -0.8788    4.5774   -3.7770 H   0  0  0  0  0  0  0  0  0  0  0  0
   -0.5865    0.0771    2.2496 C   0  0  0  0  0  0  0  0  0  0  0  0
    0.5860   -0.1608    2.5143 O   0  0  0  0  0  0  0  0  0  0  0  0
   -1.4786    0.4656    3.1667 N   0  0  0  0  0  0  0  0  0  0  0  0
   -2.4139    0.6698    2.8558 H   0  0  0  0  0  0  0  0  0  0  0  0
   -1.1587    0.6908    4.5775 C   0  0  0  0  0  0  0  0  0  0  0  0
   -0.4270    1.4968    4.6656 H   0  0  0  0  0  0  0  0  0  0  0  0
   -2.0565    0.9649    5.1327 H   0  0  0  0  0  0  0  0  0  0  0  0
   -0.7281   -0.2137    5.0125 H   0  0  0  0  0  0  0  0  0  0  0  0
  5  6  2  0  0  0  0
  5  7  1  0  0  0  0
  2  3  1  0  0  0  0
  2  4  1  0  0  0  0
  2  5  1  0  0  0  0
  1  2  1  0  0  0  0
 27 28  2  0  0  0  0
 27 29  1  0  0  0  0
 23 24  1  0  0  0  0
 23 25  1  0  0  0  0
 23 26  1  0  0  0  0
 20 21  1  0  0  0  0
 20 22  1  0  0  0  0
 20 23  1  0  0  0  0
 17 18  1  0  0  0  0
 17 19  1  0  0  0  0
 17 20  1  0  0  0  0
 14 15  1  0  0  0  0
 14 16  1  0  0  0  0
 14 17  1  0  0  0  0
 11 12  1  0  0  0  0
 11 13  1  0  0  0  0
 11 14  1  0  0  0  0
  9 10  1  0  0  0  0
  9 11  1  0  0  0  0
  9 27  1  0  0  0  0
  7  8  1  0  0  0  0
  7  9  1  0  0  0  0
 31 32  1  0  0  0  0
 31 33  1  0  0  0  0
 31 34  1  0  0  0  0
 29 30  1  0  0  0  0
 29 31  1  0  0  0  0
M  CHG  1  23   1
M  END
$$$$
default_name
  -OEChem-02102213163D

 34 33  0     1  0  0  0  0  0999 V2000
   -3.8899   -3.6747    1.6490 H   0  0  0  0  0  0  0  0  0  0  0  0
   -3.9109   -2.6717    1.2250 C   0  0  0  0  0  0  0  0  0  0  0  0
   -4.6009   -2.0517    1.7950 H   0  0  0  0  0  0  0  0  0  0  0  0
   -4.2309   -2.7237    0.1860 H   0  0  0  0  0  0  0  0  0  0  0  0
   -2.5229   -2.0787    1.2980 C   0  0  0  0  0  0  0  0  0  0  0  0
   -1.5999   -2.7227    1.7810 O   0  0  0  0  0  0  0  0  0  0  0  0
   -2.3659   -0.8447    0.8120 N   0  0  0  0  0  0  0  0  0  0  0  0
   -3.1749   -0.3807    0.4220 H   0  0  0  0  0  0  0  0  0  0  0  0
   -1.0919   -0.1077    0.8170 C   0  0  1  0  0  0  0  0  0  0  0  0
   -0.3571   -0.6901    0.2581 H   0  0  0  0  0  0  0  0  0  0  0  0
   -1.3037    1.2411    0.1040 C   0  0  0  0  0  0  0  0  0  0  0  0
   -2.3759    1.4271    0.0235 H   0  0  0  0  0  0  0  0  0  0  0  0
   -0.8645    2.0384    0.7068 H   0  0  0  0  0  0  0  0  0  0  0  0
   -0.6992    1.2824   -1.3078 C   0  0  0  0  0  0  0  0  0  0  0  0
    0.1686    0.6232   -1.3553 H   0  0  0  0  0  0  0  0  0  0  0  0
   -1.4453    0.9420   -2.0284 H   0  0  0  0  0  0  0  0  0  0  0  0
   -0.2657    2.7116   -1.6621 C   0  0  0  0  0  0  0  0  0  0  0  0
   -1.1339    3.3720   -1.5990 H   0  0  0  0  0  0  0  0  0  0  0  0
    0.4870    3.0437   -0.9442 H   0  0  0  0  0  0  0  0  0  0  0  0
    0.3153    2.7590   -3.0808 C   0  0  0  0  0  0  0  0  0  0  0  0
    1.1779    2.0861   -3.1252 H   0  0  0  0  0  0  0  0  0  0  0  0
   -0.4393    2.3830   -3.7782 H   0  0  0  0  0  0  0  0  0  0  0  0
    0.7213    4.1363   -3.4587 N   0  3  0  0  0  0  0  0  0  0  0  0
    1.4274    4.4858   -2.8229 H   0  0  0  0  0  0  0  0  0  0  0  0
    1.1019    4.1504   -4.3967 H   0  0  0  0  0  0  0  0  0  0  0  0
   -0.0756    4.7614   -3.4276 H   0  0  0  0  0  0  0  0  0  0  0  0
   -0.5865    0.0771    2.2496 C   0  0  0  0  0  0  0  0  0  0  0  0
    0.5860   -0.1608    2.5143 O   0  0  0  0  0  0  0  0  0  0  0  0
   -1.4786    0.4656    3.1667 N   0  0  0  0  0  0  0  0  0  0  0  0
   -2.4139    0.6698    2.8558 H   0  0  0  0  0  0  0  0  0  0  0  0
   -1.1587    0.6908    4.5775 C   0  0  0  0  0  0  0  0  0  0  0  0
   -0.4270    1.4968    4.6656 H   0  0  0  0  0  0  0  0  0  0  0  0
   -2.0565    0.9649    5.1327 H   0  0  0  0  0  0  0  0  0  0  0  0
   -0.7281   -0.2137    5.0125 H   0  0  0  0  0  0  0  0  0  0  0  0
  5  6  2  0  0  0  0
  5  7  1  0  0  0  0
  2  3  1  0  0  0  0
  2  4  1  0  0  0  0
  2  5  1  0  0  0  0
  1  2  1  0  0  0  0
 27 28  2  0  0  0  0
 27 29  1  0  0  0  0
 23 24  1  0  0  0  0
 23 25  1  0  0  0  0
 23 26  1  0  0  0  0
 20 21  1  0  0  0  0
 20 22  1  0  0  0  0
 20 23  1  0  0  0  0
 17 18  1  0  0  0  0
 17 19  1  0  0  0  0
 17 20  1  0  0  0  0
 14 15  1  0  0  0  0
 14 16  1  0  0  0  0
 14 17  1  0  0  0  0
 11 12  1  0  0  0  0
 11 13  1  0  0  0  0
 11 14  1  0  0  0  0
  9 10  1  0  0  0  0
  9 11  1  0  0  0  0
  9 27  1  0  0  0  0
  7  8  1  0  0  0  0
  7  9  1  0  0  0  0
 31 32  1  0  0  0  0
 31 33  1  0  0  0  0
 31 34  1  0  0  0  0
 29 30  1  0  0  0  0
 29 31  1  0  0  0  0
M  CHG  1  23   1
M  END
$$$$
default_name
  -OEChem-02102213163D

 34 33  0     1  0  0  0  0  0999 V2000
   -3.8899   -3.6747    1.6490 H   0  0  0  0  0  0  0  0  0  0  0  0
   -3.9109   -2.6717    1.2250 C   0  0  0  0  0  0  0  0  0  0  0  0
   -4.6009   -2.0517    1.7950 H   0  0  0  0  0  0  0  0  0  0  0  0
   -4.2309   -2.7237    0.1860 H   0  0  0  0  0  0  0  0  0  0  0  0
   -2.5229   -2.0787    1.2980 C   0  0  0  0  0  0  0  0  0  0  0  0
   -1.5999   -2.7227    1.7810 O   0  0  0  0  0  0  0  0  0  0  0  0
   -2.3659   -0.8447    0.8120 N   0  0  0  0  0  0  0  0  0  0  0  0
   -3.1749   -0.3807    0.4220 H   0  0  0  0  0  0  0  0  0  0  0  0
   -1.0919   -0.1077    0.8170 C   0  0  1  0  0  0  0  0  0  0  0  0
   -0.3571   -0.6901    0.2581 H   0  0  0  0  0  0  0  0  0  0  0  0
   -1.3037    1.2411    0.1040 C   0  0  0  0  0  0  0  0  0  0  0  0
   -2.3759    1.4271    0.0235 H   0  0  0  0  0  0  0  0  0  0  0  0
   -0.8645    2.0384    0.7068 H   0  0  0  0  0  0  0  0  0  0  0  0
   -0.6992    1.2824   -1.3078 C   0  0  0  0  0  0  0  0  0  0  0  0
   -0.0132    0.4444   -1.4384 H   0  0  0  0  0  0  0  0  0  0  0  0
   -1.5011    1.2048   -2.0446 H   0  0  0  0  0  0  0  0  0  0  0  0
    0.0642    2.5964   -1.5242 C   0  0  0  0  0  0  0  0  0  0  0  0
   -0.6221    3.4340   -1.3780 H   0  0  0  0  0  0  0  0  0  0  0  0
    0.8704    2.6647   -0.7911 H   0  0  0  0  0  0  0  0  0  0  0  0
    0.6473    2.6499   -2.9418 C   0  0  0  0  0  0  0  0  0  0  0  0
    1.3250    1.7996   -3.0706 H   0  0  0  0  0  0  0  0  0  0  0  0
   -0.1714    2.5375   -3.6590 H   0  0  0  0  0  0  0  0  0  0  0  0
    1.3717    3.9226   -3.1864 N   0  3  0  0  0  0  0  0  0  0  0  0
    2.1373    4.0273   -2.5323 H   0  0  0  0  0  0  0  0  0  0  0  0
    1.7498    3.9423   -4.1254 H   0  0  0  0  0  0  0  0  0  0  0  0
    0.7465    4.7126   -3.0770 H   0  0  0  0  0  0  0  0  0  0  0  0
   -0.5865    0.0771    2.2496 C   0  0  0  0  0  0  0  0  0  0  0  0
    0.5860   -0.1608    2.5143 O   0  0  0  0  0  0  0  0  0  0  0  0
   -1.4786    0.4656    3.1667 N   0  0  0  0  0  0  0  0  0  0  0  0
   -2.4139    0.6698    2.8558 H   0  0  0  0  0  0  0  0  0  0  0  0
   -1.1587    0.6908    4.5775 C   0  0  0  0  0  0  0  0  0  0  0  0
   -0.4270    1.4968    4.6656 H   0  0  0  0  0  0  0  0  0  0  0  0
   -2.0565    0.9649    5.1327 H   0  0  0  0  0  0  0  0  0  0  0  0
   -0.7281   -0.2137    5.0125 H   0  0  0  0  0  0  0  0  0  0  0  0
  5  6  2  0  0  0  0
  5  7  1  0  0  0  0
  2  3  1  0  0  0  0
  2  4  1  0  0  0  0
  2  5  1  0  0  0  0
  1  2  1  0  0  0  0
 27 28  2  0  0  0  0
 27 29  1  0  0  0  0
 23 24  1  0  0  0  0
 23 25  1  0  0  0  0
 23 26  1  0  0  0  0
 20 21  1  0  0  0  0
 20 22  1  0  0  0  0
 20 23  1  0  0  0  0
 17 18  1  0  0  0  0
 17 19  1  0  0  0  0
 17 20  1  0  0  0  0
 14 15  1  0  0  0  0
 14 16  1  0  0  0  0
 14 17  1  0  0  0  0
 11 12  1  0  0  0  0
 11 13  1  0  0  0  0
 11 14  1  0  0  0  0
  9 10  1  0  0  0  0
  9 11  1  0  0  0  0
  9 27  1  0  0  0  0
  7  8  1  0  0  0  0
  7  9  1  0  0  0  0
 31 32  1  0  0  0  0
 31 33  1  0  0  0  0
 31 34  1  0  0  0  0
 29 30  1  0  0  0  0
 29 31  1  0  0  0  0
M  CHG  1  23   1
M  END
$$$$
default_name
  -OEChem-02102213163D

 34 33  0     1  0  0  0  0  0999 V2000
   -3.8899   -3.6747    1.6490 H   0  0  0  0  0  0  0  0  0  0  0  0
   -3.9109   -2.6717    1.2250 C   0  0  0  0  0  0  0  0  0  0  0  0
   -4.6009   -2.0517    1.7950 H   0  0  0  0  0  0  0  0  0  0  0  0
   -4.2309   -2.7237    0.1860 H   0  0  0  0  0  0  0  0  0  0  0  0
   -2.5229   -2.0787    1.2980 C   0  0  0  0  0  0  0  0  0  0  0  0
   -1.5999   -2.7227    1.7810 O   0  0  0  0  0  0  0  0  0  0  0  0
   -2.3659   -0.8447    0.8120 N   0  0  0  0  0  0  0  0  0  0  0  0
   -3.1749   -0.3807    0.4220 H   0  0  0  0  0  0  0  0  0  0  0  0
   -1.0919   -0.1077    0.8170 C   0  0  1  0  0  0  0  0  0  0  0  0
   -0.3571   -0.6901    0.2581 H   0  0  0  0  0  0  0  0  0  0  0  0
   -1.3037    1.2411    0.1040 C   0  0  0  0  0  0  0  0  0  0  0  0
   -2.3759    1.4271    0.0235 H   0  0  0  0  0  0  0  0  0  0  0  0
   -0.8645    2.0384    0.7068 H   0  0  0  0  0  0  0  0  0  0  0  0
   -0.6992    1.2824   -1.3078 C   0  0  0  0  0  0  0  0  0  0  0  0
   -0.2318    0.3234   -1.5356 H   0  0  0  0  0  0  0  0  0  0  0  0
   -1.4925    1.4735   -2.0331 H   0  0  0  0  0  0  0  0  0  0  0  0
    0.3563    2.3926   -1.4050 C   0  0  0  0  0  0  0  0  0  0  0  0
   -0.1114    3.3496   -1.1618 H   0  0  0  0  0  0  0  0  0  0  0  0
    1.1517    2.1918   -0.6845 H   0  0  0  0  0  0  0  0  0  0  0  0
    0.9430    2.4513   -2.8210 C   0  0  0  0  0  0  0  0  0  0  0  0
    1.3993    1.4823   -3.0480 H   0  0  0  0  0  0  0  0  0  0  0  0
    0.1250    2.6109   -3.5299 H   0  0  0  0  0  0  0  0  0  0  0  0
    1.9510    3.5339   -2.9497 N   0  3  0  0  0  0  0  0  0  0  0  0
    2.7160    3.3860   -2.3033 H   0  0  0  0  0  0  0  0  0  0  0  0
    2.3279    3.5595   -3.8890 H   0  0  0  0  0  0  0  0  0  0  0  0
    1.5314    4.4341   -2.7491 H   0  0  0  0  0  0  0  0  0  0  0  0
   -0.5865    0.0771    2.2496 C   0  0  0  0  0  0  0  0  0  0  0  0
    0.5860   -0.1608    2.5143 O   0  0  0  0  0  0  0  0  0  0  0  0
   -1.4786    0.4656    3.1667 N   0  0  0  0  0  0  0  0  0  0  0  0
   -2.4139    0.6698    2.8558 H   0  0  0  0  0  0  0  0  0  0  0  0
   -1.1587    0.6908    4.5775 C   0  0  0  0  0  0  0  0  0  0  0  0
   -0.4270    1.4968    4.6656 H   0  0  0  0  0  0  0  0  0  0  0  0
   -2.0565    0.9649    5.1327 H   0  0  0  0  0  0  0  0  0  0  0  0
   -0.7281   -0.2137    5.0125 H   0  0  0  0  0  0  0  0  0  0  0  0
  5  6  2  0  0  0  0
  5  7  1  0  0  0  0
  2  3  1  0  0  0  0
  2  4  1  0  0  0  0
  2  5  1  0  0  0  0
  1  2  1  0  0  0  0
 27 28  2  0  0  0  0
 27 29  1  0  0  0  0
 23 24  1  0  0  0  0
 23 25  1  0  0  0  0
 23 26  1  0  0  0  0
 20 21  1  0  0  0  0
 20 22  1  0  0  0  0
 20 23  1  0  0  0  0
 17 18  1  0  0  0  0
 17 19  1  0  0  0  0
 17 20  1  0  0  0  0
 14 15  1  0  0  0  0
 14 16  1  0  0  0  0
 14 17  1  0  0  0  0
 11 12  1  0  0  0  0
 11 13  1  0  0  0  0
 11 14  1  0  0  0  0
  9 10  1  0  0  0  0
  9 11  1  0  0  0  0
  9 27  1  0  0  0  0
  7  8  1  0  0  0  0
  7  9  1  0  0  0  0
 31 32  1  0  0  0  0
 31 33  1  0  0  0  0
 31 34  1  0  0  0  0
 29 30  1  0  0  0  0
 29 31  1  0  0  0  0
M  CHG  1  23   1
M  END
$$$$
default_name
  -OEChem-02102213163D

 34 33  0     1  0  0  0  0  0999 V2000
   -3.8899   -3.6747    1.6490 H   0  0  0  0  0  0  0  0  0  0  0  0
   -3.9109   -2.6717    1.2250 C   0  0  0  0  0  0  0  0  0  0  0  0
   -4.6009   -2.0517    1.7950 H   0  0  0  0  0  0  0  0  0  0  0  0
   -4.2309   -2.7237    0.1860 H   0  0  0  0  0  0  0  0  0  0  0  0
   -2.5229   -2.0787    1.2980 C   0  0  0  0  0  0  0  0  0  0  0  0
   -1.5999   -2.7227    1.7810 O   0  0  0  0  0  0  0  0  0  0  0  0
   -2.3659   -0.8447    0.8120 N   0  0  0  0  0  0  0  0  0  0  0  0
   -3.1749   -0.3807    0.4220 H   0  0  0  0  0  0  0  0  0  0  0  0
   -1.0919   -0.1077    0.8170 C   0  0  1  0  0  0  0  0  0  0  0  0
   -0.3571   -0.6901    0.2581 H   0  0  0  0  0  0  0  0  0  0  0  0
   -1.3037    1.2411    0.1040 C   0  0  0  0  0  0  0  0  0  0  0  0
   -2.3759    1.4271    0.0235 H   0  0  0  0  0  0  0  0  0  0  0  0
   -0.8645    2.0384    0.7068 H   0  0  0  0  0  0  0  0  0  0  0  0
   -0.6992    1.2824   -1.3078 C   0  0  0  0  0  0  0  0  0  0  0  0
   -0.4725    0.2685   -1.6402 H   0  0  0  0  0  0  0  0  0  0  0  0
   -1.4202    1.7299   -1.9946 H   0  0  0  0  0  0  0  0  0  0  0  0
    0.5909    2.1141   -1.3127 C   0  0  0  0  0  0  0  0  0  0  0  0
    0.3633    3.1247   -0.9651 H   0  0  0  0  0  0  0  0  0  0  0  0
    1.3117    1.6573   -0.6316 H   0  0  0  0  0  0  0  0  0  0  0  0
    1.1823    2.1769   -2.7266 C   0  0  0  0  0  0  0  0  0  0  0  0
    1.3959    1.1559   -3.0591 H   0  0  0  0  0  0  0  0  0  0  0  0
    0.4296    2.5981   -3.3998 H   0  0  0  0  0  0  0  0  0  0  0  0
    2.4198    2.9964   -2.7647 N   0  3  0  0  0  0  0  0  0  0  0  0
    3.1240    2.6056   -2.1514 H   0  0  0  0  0  0  0  0  0  0  0  0
    2.7970    3.0281   -3.7037 H   0  0  0  0  0  0  0  0  0  0  0  0
    2.2256    3.9451   -2.4661 H   0  0  0  0  0  0  0  0  0  0  0  0
   -0.5865    0.0771    2.2496 C   0  0  0  0  0  0  0  0  0  0  0  0
    0.5860   -0.1608    2.5143 O   0  0  0  0  0  0  0  0  0  0  0  0
   -1.4786    0.4656    3.1667 N   0  0  0  0  0  0  0  0  0  0  0  0
   -2.4139    0.6698    2.8558 H   0  0  0  0  0  0  0  0  0  0  0  0
   -1.1587    0.6908    4.5775 C   0  0  0  0  0  0  0  0  0  0  0  0
   -0.4270    1.4968    4.6656 H   0  0  0  0  0  0  0  0  0  0  0  0
   -2.0565    0.9649    5.1327 H   0  0  0  0  0  0  0  0  0  0  0  0
   -0.7281   -0.2137    5.0125 H   0  0  0  0  0  0  0  0  0  0  0  0
  5  6  2  0  0  0  0
  5  7  1  0  0  0  0
  2  3  1  0  0  0  0
  2  4  1  0  0  0  0
  2  5  1  0  0  0  0
  1  2  1  0  0  0  0
 27 28  2  0  0  0  0
 27 29  1  0  0  0  0
 23 24  1  0  0  0  0
 23 25  1  0  0  0  0
 23 26  1  0  0  0  0
 20 21  1  0  0  0  0
 20 22  1  0  0  0  0
 20 23  1  0  0  0  0
 17 18  1  0  0  0  0
 17 19  1  0  0  0  0
 17 20  1  0  0  0  0
 14 15  1  0  0  0  0
 14 16  1  0  0  0  0
 14 17  1  0  0  0  0
 11 12  1  0  0  0  0
 11 13  1  0  0  0  0
 11 14  1  0  0  0  0
  9 10  1  0  0  0  0
  9 11  1  0  0  0  0
  9 27  1  0  0  0  0
  7  8  1  0  0  0  0
  7  9  1  0  0  0  0
 31 32  1  0  0  0  0
 31 33  1  0  0  0  0
 31 34  1  0  0  0  0
 29 30  1  0  0  0  0
 29 31  1  0  0  0  0
M  CHG  1  23   1
M  END
$$$$
default_name
  -OEChem-02102213163D

 34 33  0     1  0  0  0  0  0999 V2000
   -3.8899   -3.6747    1.6490 H   0  0  0  0  0  0  0  0  0  0  0  0
   -3.9109   -2.6717    1.2250 C   0  0  0  0  0  0  0  0  0  0  0  0
   -4.6009   -2.0517    1.7950 H   0  0  0  0  0  0  0  0  0  0  0  0
   -4.2309   -2.7237    0.1860 H   0  0  0  0  0  0  0  0  0  0  0  0
   -2.5229   -2.0787    1.2980 C   0  0  0  0  0  0  0  0  0  0  0  0
   -1.5999   -2.7227    1.7810 O   0  0  0  0  0  0  0  0  0  0  0  0
   -2.3659   -0.8447    0.8120 N   0  0  0  0  0  0  0  0  0  0  0  0
   -3.1749   -0.3807    0.4220 H   0  0  0  0  0  0  0  0  0  0  0  0
   -1.0919   -0.1077    0.8170 C   0  0  1  0  0  0  0  0  0  0  0  0
   -0.3571   -0.6901    0.2581 H   0  0  0  0  0  0  0  0  0  0  0  0
   -1.3037    1.2411    0.1040 C   0  0  0  0  0  0  0  0  0  0  0  0
   -2.3759    1.4271    0.0235 H   0  0  0  0  0  0  0  0  0  0  0  0
   -0.8645    2.0384    0.7068 H   0  0  0  0  0  0  0  0  0  0  0  0
   -0.6992    1.2824   -1.3078 C   0  0  0  0  0  0  0  0  0  0  0  0
   -0.7187    0.2833   -1.7452 H   0  0  0  0  0  0  0  0  0  0  0  0
   -1.2892    1.9564   -1.9319 H   0  0  0  0  0  0  0  0  0  0  0  0
    0.7519    1.7799   -1.2536 C   0  0  0  0  0  0  0  0  0  0  0  0
    0.7697    2.7744   -0.8014 H   0  0  0  0  0  0  0  0  0  0  0  0
    1.3394    1.0976   -0.6361 H   0  0  0  0  0  0  0  0  0  0  0  0
    1.3488    1.8454   -2.6650 C   0  0  0  0  0  0  0  0  0  0  0  0
    1.3148    0.8425   -3.1030 H   0  0  0  0  0  0  0  0  0  0  0  0
    0.7217    2.5001   -3.2776 H   0  0  0  0  0  0  0  0  0  0  0  0
    2.7461    2.3470   -2.6440 N   0  3  0  0  0  0  0  0  0  0  0  0
    3.3336    1.7392   -2.0870 H   0  0  0  0  0  0  0  0  0  0  0  0
    3.1250    2.3845   -3.5821 H   0  0  0  0  0  0  0  0  0  0  0  0
    2.7819    3.2788   -2.2474 H   0  0  0  0  0  0  0  0  0  0  0  0
   -0.5865    0.0771    2.2496 C   0  0  0  0  0  0  0  0  0  0  0  0
    0.5860   -0.1608    2.5143 O   0  0  0  0  0  0  0  0  0  0  0  0
   -1.4786    0.4656    3.1667 N   0  0  0  0  0  0  0  0  0  0  0  0
   -2.4139    0.6698    2.8558 H   0  0  0  0  0  0  0  0  0  0  0  0
   -1.1587    0.6908    4.5775 C   0  0  0  0  0  0  0  0  0  0  0  0
   -0.4270    1.4968    4.6656 H   0  0  0  0  0  0  0  0  0  0  0  0
   -2.0565    0.9649    5.1327 H   0  0  0  0  0  0  0  0  0  0  0  0
   -0.7281   -0.2137    5.0125 H   0  0  0  0  0  0  0  0  0  0  0  0
  5  6  2  0  0  0  0
  5  7  1  0  0  0  0
  2  3  1  0  0  0  0
  2  4  1  0  0  0  0
  2  5  1  0  0  0  0
  1  2  1  0  0  0  0
 27 28  2  0  0  0  0
 27 29  1  0  0  0  0
 23 24  1  0  0  0  0
 23 25  1  0  0  0  0
 23 26  1  0  0  0  0
 20 21  1  0  0  0  0
 20 22  1  0  0  0  0
 20 23  1  0  0  0  0
 17 18  1  0  0  0  0
 17 19  1  0  0  0  0
 17 20  1  0  0  0  0
 14 15  1  0  0  0  0
 14 16  1  0  0  0  0
 14 17  1  0  0  0  0
 11 12  1  0  0  0  0
 11 13  1  0  0  0  0
 11 14  1  0  0  0  0
  9 10  1  0  0  0  0
  9 11  1  0  0  0  0
  9 27  1  0  0  0  0
  7  8  1  0  0  0  0
  7  9  1  0  0  0  0
 31 32  1  0  0  0  0
 31 33  1  0  0  0  0
 31 34  1  0  0  0  0
 29 30  1  0  0  0  0
 29 31  1  0  0  0  0
M  CHG  1  23   1
M  END
$$$$
default_name
  -OEChem-02102213163D

 34 33  0     1  0  0  0  0  0999 V2000
   -3.8899   -3.6747    1.6490 H   0  0  0  0  0  0  0  0  0  0  0  0
   -3.9109   -2.6717    1.2250 C   0  0  0  0  0  0  0  0  0  0  0  0
   -4.6009   -2.0517    1.7950 H   0  0  0  0  0  0  0  0  0  0  0  0
   -4.2309   -2.7237    0.1860 H   0  0  0  0  0  0  0  0  0  0  0  0
   -2.5229   -2.0787    1.2980 C   0  0  0  0  0  0  0  0  0  0  0  0
   -1.5999   -2.7227    1.7810 O   0  0  0  0  0  0  0  0  0  0  0  0
   -2.3659   -0.8447    0.8120 N   0  0  0  0  0  0  0  0  0  0  0  0
   -3.1749   -0.3807    0.4220 H   0  0  0  0  0  0  0  0  0  0  0  0
   -1.0919   -0.1077    0.8170 C   0  0  1  0  0  0  0  0  0  0  0  0
   -0.3571   -0.6901    0.2581 H   0  0  0  0  0  0  0  0  0  0  0  0
   -1.3037    1.2411    0.1040 C   0  0  0  0  0  0  0  0  0  0  0  0
   -2.3759    1.4271    0.0235 H   0  0  0  0  0  0  0  0  0  0  0  0
   -0.8645    2.0384    0.7068 H   0  0  0  0  0  0  0  0  0  0  0  0
   -0.6992    1.2824   -1.3078 C   0  0  0  0  0  0  0  0  0  0  0  0
   -0.9538    0.3669   -1.8435 H   0  0  0  0  0  0  0  0  0  0  0  0
   -1.1083    2.1377   -1.8491 H   0  0  0  0  0  0  0  0  0  0  0  0
    0.8283    1.4128   -1.2316 C   0  0  0  0  0  0  0  0  0  0  0  0
    1.0801    2.3228   -0.6817 H   0  0  0  0  0  0  0  0  0  0  0  0
    1.2331    0.5508   -0.6977 H   0  0  0  0  0  0  0  0  0  0  0  0
    1.4312    1.4792   -2.6404 C   0  0  0  0  0  0  0  0  0  0  0  0
    1.1616    0.5636   -3.1767 H   0  0  0  0  0  0  0  0  0  0  0  0
    0.9814    2.3235   -3.1716 H   0  0  0  0  0  0  0  0  0  0  0  0
    2.9076    1.6298   -2.5958 N   0  3  0  0  0  0  0  0  0  0  0  0
    3.3305    0.8460   -2.1145 H   0  0  0  0  0  0  0  0  0  0  0  0
    3.2895    1.6723   -3.5325 H   0  0  0  0  0  0  0  0  0  0  0  0
    3.1622    2.4807   -2.1079 H   0  0  0  0  0  0  0  0  0  0  0  0
   -0.5865    0.0771    2.2496 C   0  0  0  0  0  0  0  0  0  0  0  0
    0.5860   -0.1608    2.5143 O   0  0  0  0  0  0  0  0  0  0  0  0
   -1.4786    0.4656    3.1667 N   0  0  0  0  0  0  0  0  0  0  0  0
   -2.4139    0.6698    2.8558 H   0  0  0  0  0  0  0  0  0  0  0  0
   -1.1587    0.6908    4.5775 C   0  0  0  0  0  0  0  0  0  0  0  0
   -0.4270    1.4968    4.6656 H   0  0  0  0  0  0  0  0  0  0  0  0
   -2.0565    0.9649    5.1327 H   0  0  0  0  0  0  0  0  0  0  0  0
   -0.7281   -0.2137    5.0125 H   0  0  0  0  0  0  0  0  0  0  0  0
  5  6  2  0  0  0  0
  5  7  1  0  0  0  0
  2  3  1  0  0  0  0
  2  4  1  0  0  0  0
  2  5  1  0  0  0  0
  1  2  1  0  0  0  0
 27 28  2  0  0  0  0
 27 29  1  0  0  0  0
 23 24  1  0  0  0  0
 23 25  1  0  0  0  0
 23 26  1  0  0  0  0
 20 21  1  0  0  0  0
 20 22  1  0  0  0  0
 20 23  1  0  0  0  0
 17 18  1  0  0  0  0
 17 19  1  0  0  0  0
 17 20  1  0  0  0  0
 14 15  1  0  0  0  0
 14 16  1  0  0  0  0
 14 17  1  0  0  0  0
 11 12  1  0  0  0  0
 11 13  1  0  0  0  0
 11 14  1  0  0  0  0
  9 10  1  0  0  0  0
  9 11  1  0  0  0  0
  9 27  1  0  0  0  0
  7  8  1  0  0  0  0
  7  9  1  0  0  0  0
 31 32  1  0  0  0  0
 31 33  1  0  0  0  0
 31 34  1  0  0  0  0
 29 30  1  0  0  0  0
 29 31  1  0  0  0  0
M  CHG  1  23   1
M  END
$$$$
default_name
  -OEChem-02102213163D

 34 33  0     1  0  0  0  0  0999 V2000
   -3.8899   -3.6747    1.6490 H   0  0  0  0  0  0  0  0  0  0  0  0
   -3.9109   -2.6717    1.2250 C   0  0  0  0  0  0  0  0  0  0  0  0
   -4.6009   -2.0517    1.7950 H   0  0  0  0  0  0  0  0  0  0  0  0
   -4.2309   -2.7237    0.1860 H   0  0  0  0  0  0  0  0  0  0  0  0
   -2.5229   -2.0787    1.2980 C   0  0  0  0  0  0  0  0  0  0  0  0
   -1.5999   -2.7227    1.7810 O   0  0  0  0  0  0  0  0  0  0  0  0
   -2.3659   -0.8447    0.8120 N   0  0  0  0  0  0  0  0  0  0  0  0
   -3.1749   -0.3807    0.4220 H   0  0  0  0  0  0  0  0  0  0  0  0
   -1.0919   -0.1077    0.8170 C   0  0  1  0  0  0  0  0  0  0  0  0
   -0.3571   -0.6901    0.2581 H   0  0  0  0  0  0  0  0  0  0  0  0
   -1.3037    1.2411    0.1040 C   0  0  0  0  0  0  0  0  0  0  0  0
   -2.3759    1.4271    0.0235 H   0  0  0  0  0  0  0  0  0  0  0  0
   -0.8645    2.0384    0.7068 H   0  0  0  0  0  0  0  0  0  0  0  0
   -0.6992    1.2824   -1.3078 C   0  0  0  0  0  0  0  0  0  0  0  0
   -1.1617    0.5136   -1.9282 H   0  0  0  0  0  0  0  0  0  0  0  0
   -0.8899    2.2613   -1.7520 H   0  0  0  0  0  0  0  0  0  0  0  0
    0.8150    1.0378   -1.2483 C   0  0  0  0  0  0  0  0  0  0  0  0
    1.2733    1.8006   -0.6142 H   0  0  0  0  0  0  0  0  0  0  0  0
    0.9999    0.0542   -0.8120 H   0  0  0  0  0  0  0  0  0  0  0  0
    1.4239    1.1035   -2.6545 C   0  0  0  0  0  0  0  0  0  0  0  0
    0.9468    0.3381   -3.2753 H   0  0  0  0  0  0  0  0  0  0  0  0
    1.1910    2.0803   -3.0890 H   0  0  0  0  0  0  0  0  0  0  0  0
    2.8934    0.8937   -2.6235 N   0  3  0  0  0  0  0  0  0  0  0  0
    3.1148   -0.0132   -2.2320 H   0  0  0  0  0  0  0  0  0  0  0  0
    3.2795    0.9403   -3.5582 H   0  0  0  0  0  0  0  0  0  0  0  0
    3.3407    1.6051   -2.0571 H   0  0  0  0  0  0  0  0  0  0  0  0
   -0.5865    0.0771    2.2496 C   0  0  0  0  0  0  0  0  0  0  0  0
    0.5860   -0.1608    2.5143 O   0  0  0  0  0  0  0  0  0  0  0  0
   -1.4786    0.4656    3.1667 N   0  0  0  0  0  0  0  0  0  0  0  0
   -2.4139    0.6698    2.8558 H   0  0  0  0  0  0  0  0  0  0  0  0
   -1.1587    0.6908    4.5775 C   0  0  0  0  0  0  0  0  0  0  0  0
   -0.4270    1.4968    4.6656 H   0  0  0  0  0  0  0  0  0  0  0  0
   -2.0565    0.9649    5.1327 H   0  0  0  0  0  0  0  0  0  0  0  0
   -0.7281   -0.2137    5.0125 H   0  0  0  0  0  0  0  0  0  0  0  0
  5  6  2  0  0  0  0
  5  7  1  0  0  0  0
  2  3  1  0  0  0  0
  2  4  1  0  0  0  0
  2  5  1  0  0  0  0
  1  2  1  0  0  0  0
 27 28  2  0  0  0  0
 27 29  1  0  0  0  0
 23 24  1  0  0  0  0
 23 25  1  0  0  0  0
 23 26  1  0  0  0  0
 20 21  1  0  0  0  0
 20 22  1  0  0  0  0
 20 23  1  0  0  0  0
 17 18  1  0  0  0  0
 17 19  1  0  0  0  0
 17 20  1  0  0  0  0
 14 15  1  0  0  0  0
 14 16  1  0  0  0  0
 14 17  1  0  0  0  0
 11 12  1  0  0  0  0
 11 13  1  0  0  0  0
 11 14  1  0  0  0  0
  9 10  1  0  0  0  0
  9 11  1  0  0  0  0
  9 27  1  0  0  0  0
  7  8  1  0  0  0  0
  7  9  1  0  0  0  0
 31 32  1  0  0  0  0
 31 33  1  0  0  0  0
 31 34  1  0  0  0  0
 29 30  1  0  0  0  0
 29 31  1  0  0  0  0
M  CHG  1  23   1
M  END
$$$$
default_name
  -OEChem-02102213163D

 34 33  0     1  0  0  0  0  0999 V2000
   -3.8899   -3.6747    1.6490 H   0  0  0  0  0  0  0  0  0  0  0  0
   -3.9109   -2.6717    1.2250 C   0  0  0  0  0  0  0  0  0  0  0  0
   -4.6009   -2.0517    1.7950 H   0  0  0  0  0  0  0  0  0  0  0  0
   -4.2309   -2.7237    0.1860 H   0  0  0  0  0  0  0  0  0  0  0  0
   -2.5229   -2.0787    1.2980 C   0  0  0  0  0  0  0  0  0  0  0  0
   -1.5999   -2.7227    1.7810 O   0  0  0  0  0  0  0  0  0  0  0  0
   -2.3659   -0.8447    0.8120 N   0  0  0  0  0  0  0  0  0  0  0  0
   -3.1749   -0.3807    0.4220 H   0  0  0  0  0  0  0  0  0  0  0  0
   -1.0919   -0.1077    0.8170 C   0  0  1  0  0  0  0  0  0  0  0  0
   -0.3571   -0.6901    0.2581 H   0  0  0  0  0  0  0  0  0  0  0  0
   -1.3037    1.2411    0.1040 C   0  0  0  0  0  0  0  0  0  0  0  0
   -2.3759    1.4271    0.0235 H   0  0  0  0  0  0  0  0  0  0  0  0
   -0.8645    2.0384    0.7068 H   0  0  0  0  0  0  0  0  0  0  0  0
   -0.6992    1.2824   -1.3078 C   0  0  0  0  0  0  0  0  0  0  0  0
   -1.3282    0.7133   -1.9936 H   0  0  0  0  0  0  0  0  0  0  0  0
   -0.6489    2.3189   -1.6471 H   0  0  0  0  0  0  0  0  0  0  0  0
    0.7128    0.6805   -1.3025 C   0  0  0  0  0  0  0  0  0  0  0  0
    1.3362    1.2433   -0.6036 H   0  0  0  0  0  0  0  0  0  0  0  0
    0.6558   -0.3584   -0.9715 H   0  0  0  0  0  0  0  0  0  0  0  0
    1.3273    0.7437   -2.7064 C   0  0  0  0  0  0  0  0  0  0  0  0
    0.6850    0.1814   -3.3920 H   0  0  0  0  0  0  0  0  0  0  0  0
    1.3361    1.7872   -3.0354 H   0  0  0  0  0  0  0  0  0  0  0  0
    2.7044    0.1889   -2.7250 N   0  3  0  0  0  0  0  0  0  0  0  0
    2.7013   -0.7800   -2.4315 H   0  0  0  0  0  0  0  0  0  0  0  0
    3.0954    0.2382   -3.6575 H   0  0  0  0  0  0  0  0  0  0  0  0
    3.3052    0.7116   -2.0985 H   0  0  0  0  0  0  0  0  0  0  0  0
   -0.5865    0.0771    2.2496 C   0  0  0  0  0  0  0  0  0  0  0  0
    0.5860   -0.1608    2.5143 O   0  0  0  0  0  0  0  0  0  0  0  0
   -1.4786    0.4656    3.1667 N   0  0  0  0  0  0  0  0  0  0  0  0
   -2.4139    0.6698    2.8558 H   0  0  0  0  0  0  0  0  0  0  0  0
   -1.1587    0.6908    4.5775 C   0  0  0  0  0  0  0  0  0  0  0  0
   -0.4270    1.4968    4.6656 H   0  0  0  0  0  0  0  0  0  0  0  0
   -2.0565    0.9649    5.1327 H   0  0  0  0  0  0  0  0  0  0  0  0
   -0.7281   -0.2137    5.0125 H   0  0  0  0  0  0  0  0  0  0  0  0
  5  6  2  0  0  0  0
  5  7  1  0  0  0  0
  2  3  1  0  0  0  0
  2  4  1  0  0  0  0
  2  5  1  0  0  0  0
  1  2  1  0  0  0  0
 27 28  2  0  0  0  0
 27 29  1  0  0  0  0
 23 24  1  0  0  0  0
 23 25  1  0  0  0  0
 23 26  1  0  0  0  0
 20 21  1  0  0  0  0
 20 22  1  0  0  0  0
 20 23  1  0  0  0  0
 17 18  1  0  0  0  0
 17 19  1  0  0  0  0
 17 20  1  0  0  0  0
 14 15  1  0  0  0  0
 14 16  1  0  0  0  0
 14 17  1  0  0  0  0
 11 12  1  0  0  0  0
 11 13  1  0  0  0  0
 11 14  1  0  0  0  0
  9 10  1  0  0  0  0
  9 11  1  0  0  0  0
  9 27  1  0  0  0  0
  7  8  1  0  0  0  0
  7  9  1  0  0  0  0
 31 32  1  0  0  0  0
 31 33  1  0  0  0  0
 31 34  1  0  0  0  0
 29 30  1  0  0  0  0
 29 31  1  0  0  0  0
M  CHG  1  23   1
M  END
$$$$
default_name
  -OEChem-02102213163D

 34 33  0     1  0  0  0  0  0999 V2000
   -3.8899   -3.6747    1.6490 H   0  0  0  0  0  0  0  0  0  0  0  0
   -3.9109   -2.6717    1.2250 C   0  0  0  0  0  0  0  0  0  0  0  0
   -4.6009   -2.0517    1.7950 H   0  0  0  0  0  0  0  0  0  0  0  0
   -4.2309   -2.7237    0.1860 H   0  0  0  0  0  0  0  0  0  0  0  0
   -2.5229   -2.0787    1.2980 C   0  0  0  0  0  0  0  0  0  0  0  0
   -1.5999   -2.7227    1.7810 O   0  0  0  0  0  0  0  0  0  0  0  0
   -2.3659   -0.8447    0.8120 N   0  0  0  0  0  0  0  0  0  0  0  0
   -3.1749   -0.3807    0.4220 H   0  0  0  0  0  0  0  0  0  0  0  0
   -1.0919   -0.1077    0.8170 C   0  0  1  0  0  0  0  0  0  0  0  0
   -0.3571   -0.6901    0.2581 H   0  0  0  0  0  0  0  0  0  0  0  0
   -1.3037    1.2411    0.1040 C   0  0  0  0  0  0  0  0  0  0  0  0
   -2.3759    1.4271    0.0235 H   0  0  0  0  0  0  0  0  0  0  0  0
   -0.8645    2.0384    0.7068 H   0  0  0  0  0  0  0  0  0  0  0  0
   -0.6992    1.2824   -1.3078 C   0  0  0  0  0  0  0  0  0  0  0  0
   -1.4419    0.9524   -2.0354 H   0  0  0  0  0  0  0  0  0  0  0  0
   -0.4016    2.3065   -1.5416 H   0  0  0  0  0  0  0  0  0  0  0  0
    0.5287    0.3651   -1.3906 C   0  0  0  0  0  0  0  0  0  0  0  0
    1.2645    0.6889   -0.6505 H   0  0  0  0  0  0  0  0  0  0  0  0
    0.2241   -0.6588   -1.1651 H   0  0  0  0  0  0  0  0  0  0  0  0
    1.1481    0.4244   -2.7925 C   0  0  0  0  0  0  0  0  0  0  0  0
    0.3941    0.1042   -3.5189 H   0  0  0  0  0  0  0  0  0  0  0  0
    1.4070    1.4641   -3.0145 H   0  0  0  0  0  0  0  0  0  0  0  0
    2.3535   -0.4366   -2.8936 N   0  3  0  0  0  0  0  0  0  0  0  0
    2.1182   -1.4019   -2.6995 H   0  0  0  0  0  0  0  0  0  0  0  0
    2.7500   -0.3861   -3.8237 H   0  0  0  0  0  0  0  0  0  0  0  0
    3.0582   -0.1387   -2.2291 H   0  0  0  0  0  0  0  0  0  0  0  0
   -0.5865    0.0771    2.2496 C   0  0  0  0  0  0  0  0  0  0  0  0
    0.5860   -0.1608    2.5143 O   0  0  0  0  0  0  0  0  0  0  0  0
   -1.4786    0.4656    3.1667 N   0  0  0  0  0  0  0  0  0  0  0  0
   -2.4139    0.6698    2.8558 H   0  0  0  0  0  0  0  0  0  0  0  0
   -1.1587    0.6908    4.5775 C   0  0  0  0  0  0  0  0  0  0  0  0
   -0.4270    1.4968    4.6656 H   0  0  0  0  0  0  0  0  0  0  0  0
   -2.0565    0.9649    5.1327 H   0  0  0  0  0  0  0  0  0  0  0  0
   -0.7281   -0.2137    5.0125 H   0  0  0  0  0  0  0  0  0  0  0  0
  5  6  2  0  0  0  0
  5  7  1  0  0  0  0
  2  3  1  0  0  0  0
  2  4  1  0  0  0  0
  2  5  1  0  0  0  0
  1  2  1  0  0  0  0
 27 28  2  0  0  0  0
 27 29  1  0  0  0  0
 23 24  1  0  0  0  0
 23 25  1  0  0  0  0
 23 26  1  0  0  0  0
 20 21  1  0  0  0  0
 20 22  1  0  0  0  0
 20 23  1  0  0  0  0
 17 18  1  0  0  0  0
 17 19  1  0  0  0  0
 17 20  1  0  0  0  0
 14 15  1  0  0  0  0
 14 16  1  0  0  0  0
 14 17  1  0  0  0  0
 11 12  1  0  0  0  0
 11 13  1  0  0  0  0
 11 14  1  0  0  0  0
  9 10  1  0  0  0  0
  9 11  1  0  0  0  0
  9 27  1  0  0  0  0
  7  8  1  0  0  0  0
  7  9  1  0  0  0  0
 31 32  1  0  0  0  0
 31 33  1  0  0  0  0
 31 34  1  0  0  0  0
 29 30  1  0  0  0  0
 29 31  1  0  0  0  0
M  CHG  1  23   1
M  END
$$$$
default_name
  -OEChem-02102213163D

 34 33  0     1  0  0  0  0  0999 V2000
   -3.8899   -3.6747    1.6490 H   0  0  0  0  0  0  0  0  0  0  0  0
   -3.9109   -2.6717    1.2250 C   0  0  0  0  0  0  0  0  0  0  0  0
   -4.6009   -2.0517    1.7950 H   0  0  0  0  0  0  0  0  0  0  0  0
   -4.2309   -2.7237    0.1860 H   0  0  0  0  0  0  0  0  0  0  0  0
   -2.5229   -2.0787    1.2980 C   0  0  0  0  0  0  0  0  0  0  0  0
   -1.5999   -2.7227    1.7810 O   0  0  0  0  0  0  0  0  0  0  0  0
   -2.3659   -0.8447    0.8120 N   0  0  0  0  0  0  0  0  0  0  0  0
   -3.1749   -0.3807    0.4220 H   0  0  0  0  0  0  0  0  0  0  0  0
   -1.0919   -0.1077    0.8170 C   0  0  1  0  0  0  0  0  0  0  0  0
   -0.3571   -0.6901    0.2581 H   0  0  0  0  0  0  0  0  0  0  0  0
   -1.3037    1.2411    0.1040 C   0  0  0  0  0  0  0  0  0  0  0  0
   -2.3759    1.4271    0.0235 H   0  0  0  0  0  0  0  0  0  0  0  0
   -0.8645    2.0384    0.7068 H   0  0  0  0  0  0  0  0  0  0  0  0
   -0.6992    1.2824   -1.3078 C   0  0  0  0  0  0  0  0  0  0  0  0
   -1.4952    1.2148   -2.0505 H   0  0  0  0  0  0  0  0  0  0  0  0
   -0.1650    2.2249   -1.4426 H   0  0  0  0  0  0  0  0  0  0  0  0
    0.2753    0.1132   -1.5065 C   0  0  0  0  0  0  0  0  0  0  0  0
    1.0630    0.1753   -0.7518 H   0  0  0  0  0  0  0  0  0  0  0  0
   -0.2656   -0.8267   -1.3798 H   0  0  0  0  0  0  0  0  0  0  0  0
    0.8985    0.1674   -2.9069 C   0  0  0  0  0  0  0  0  0  0  0  0
    0.0938    0.1117   -3.6472 H   0  0  0  0  0  0  0  0  0  0  0  0
    1.3988    1.1330   -3.0277 H   0  0  0  0  0  0  0  0  0  0  0  0
    1.8646   -0.9402   -3.1177 N   0  3  0  0  0  0  0  0  0  0  0  0
    1.4051   -1.8366   -3.0175 H   0  0  0  0  0  0  0  0  0  0  0  0
    2.2668   -0.8900   -4.0454 H   0  0  0  0  0  0  0  0  0  0  0  0
    2.6164   -0.8880   -2.4402 H   0  0  0  0  0  0  0  0  0  0  0  0
   -0.5865    0.0771    2.2496 C   0  0  0  0  0  0  0  0  0  0  0  0
    0.5860   -0.1608    2.5143 O   0  0  0  0  0  0  0  0  0  0  0  0
   -1.4786    0.4656    3.1667 N   0  0  0  0  0  0  0  0  0  0  0  0
   -2.4139    0.6698    2.8558 H   0  0  0  0  0  0  0  0  0  0  0  0
   -1.1587    0.6908    4.5775 C   0  0  0  0  0  0  0  0  0  0  0  0
   -0.4270    1.4968    4.6656 H   0  0  0  0  0  0  0  0  0  0  0  0
   -2.0565    0.9649    5.1327 H   0  0  0  0  0  0  0  0  0  0  0  0
   -0.7281   -0.2137    5.0125 H   0  0  0  0  0  0  0  0  0  0  0  0
  5  6  2  0  0  0  0
  5  7  1  0  0  0  0
  2  3  1  0  0  0  0
  2  4  1  0  0  0  0
  2  5  1  0  0  0  0
  1  2  1  0  0  0  0
 27 28  2  0  0  0  0
 27 29  1  0  0  0  0
 23 24  1  0  0  0  0
 23 25  1  0  0  0  0
 23 26  1  0  0  0  0
 20 21  1  0  0  0  0
 20 22  1  0  0  0  0
 20 23  1  0  0  0  0
 17 18  1  0  0  0  0
 17 19  1  0  0  0  0
 17 20  1  0  0  0  0
 14 15  1  0  0  0  0
 14 16  1  0  0  0  0
 14 17  1  0  0  0  0
 11 12  1  0  0  0  0
 11 13  1  0  0  0  0
 11 14  1  0  0  0  0
  9 10  1  0  0  0  0
  9 11  1  0  0  0  0
  9 27  1  0  0  0  0
  7  8  1  0  0  0  0
  7  9  1  0  0  0  0
 31 32  1  0  0  0  0
 31 33  1  0  0  0  0
 31 34  1  0  0  0  0
 29 30  1  0  0  0  0
 29 31  1  0  0  0  0
M  CHG  1  23   1
M  END
$$$$
default_name
  -OEChem-02102213163D

 34 33  0     1  0  0  0  0  0999 V2000
   -3.8899   -3.6747    1.6490 H   0  0  0  0  0  0  0  0  0  0  0  0
   -3.9109   -2.6717    1.2250 C   0  0  0  0  0  0  0  0  0  0  0  0
   -4.6009   -2.0517    1.7950 H   0  0  0  0  0  0  0  0  0  0  0  0
   -4.2309   -2.7237    0.1860 H   0  0  0  0  0  0  0  0  0  0  0  0
   -2.5229   -2.0787    1.2980 C   0  0  0  0  0  0  0  0  0  0  0  0
   -1.5999   -2.7227    1.7810 O   0  0  0  0  0  0  0  0  0  0  0  0
   -2.3659   -0.8447    0.8120 N   0  0  0  0  0  0  0  0  0  0  0  0
   -3.1749   -0.3807    0.4220 H   0  0  0  0  0  0  0  0  0  0  0  0
   -1.0919   -0.1077    0.8170 C   0  0  1  0  0  0  0  0  0  0  0  0
   -0.3571   -0.6901    0.2581 H   0  0  0  0  0  0  0  0  0  0  0  0
   -1.3037    1.2411    0.1040 C   0  0  0  0  0  0  0  0  0  0  0  0
   -2.3759    1.4271    0.0235 H   0  0  0  0  0  0  0  0  0  0  0  0
   -0.8645    2.0384    0.7068 H   0  0  0  0  0  0  0  0  0  0  0  0
   -0.6992    1.2824   -1.3078 C   0  0  0  0  0  0  0  0  0  0  0  0
   -1.4845    1.4824   -2.0380 H   0  0  0  0  0  0  0  0  0  0  0  0
    0.0448    2.0798   -1.3570 H   0  0  0  0  0  0  0  0  0  0  0  0
   -0.0302   -0.0580   -1.6423 C   0  0  0  0  0  0  0  0  0  0  0  0
    0.7456   -0.2625   -0.9006 H   0  0  0  0  0  0  0  0  0  0  0  0
   -0.7801   -0.8504   -1.6008 H   0  0  0  0  0  0  0  0  0  0  0  0
    0.5955   -0.0098   -3.0419 C   0  0  0  0  0  0  0  0  0  0  0  0
   -0.1954    0.2035   -3.7684 H   0  0  0  0  0  0  0  0  0  0  0  0
    1.3120    0.8165   -3.0741 H   0  0  0  0  0  0  0  0  0  0  0  0
    1.2711   -1.2875   -3.3820 N   0  3  0  0  0  0  0  0  0  0  0  0
    0.6107   -2.0546   -3.3641 H   0  0  0  0  0  0  0  0  0  0  0  0
    1.6786   -1.2393   -4.3075 H   0  0  0  0  0  0  0  0  0  0  0  0
    2.0100   -1.4852   -2.7174 H   0  0  0  0  0  0  0  0  0  0  0  0
   -0.5865    0.0771    2.2496 C   0  0  0  0  0  0  0  0  0  0  0  0
    0.5860   -0.1608    2.5143 O   0  0  0  0  0  0  0  0  0  0  0  0
   -1.4786    0.4656    3.1667 N   0  0  0  0  0  0  0  0  0  0  0  0
   -2.4139    0.6698    2.8558 H   0  0  0  0  0  0  0  0  0  0  0  0
   -1.1587    0.6908    4.5775 C   0  0  0  0  0  0  0  0  0  0  0  0
   -0.4270    1.4968    4.6656 H   0  0  0  0  0  0  0  0  0  0  0  0
   -2.0565    0.9649    5.1327 H   0  0  0  0  0  0  0  0  0  0  0  0
   -0.7281   -0.2137    5.0125 H   0  0  0  0  0  0  0  0  0  0  0  0
  5  6  2  0  0  0  0
  5  7  1  0  0  0  0
  2  3  1  0  0  0  0
  2  4  1  0  0  0  0
  2  5  1  0  0  0  0
  1  2  1  0  0  0  0
 27 28  2  0  0  0  0
 27 29  1  0  0  0  0
 23 24  1  0  0  0  0
 23 25  1  0  0  0  0
 23 26  1  0  0  0  0
 20 21  1  0  0  0  0
 20 22  1  0  0  0  0
 20 23  1  0  0  0  0
 17 18  1  0  0  0  0
 17 19  1  0  0  0  0
 17 20  1  0  0  0  0
 14 15  1  0  0  0  0
 14 16  1  0  0  0  0
 14 17  1  0  0  0  0
 11 12  1  0  0  0  0
 11 13  1  0  0  0  0
 11 14  1  0  0  0  0
  9 10  1  0  0  0  0
  9 11  1  0  0  0  0
  9 27  1  0  0  0  0
  7  8  1  0  0  0  0
  7  9  1  0  0  0  0
 31 32  1  0  0  0  0
 31 33  1  0  0  0  0
 31 34  1  0  0  0  0
 29 30  1  0  0  0  0
 29 31  1  0  0  0  0
M  CHG  1  23   1
M  END
$$$$
default_name
  -OEChem-02102213163D

 34 33  0     1  0  0  0  0  0999 V2000
   -3.8899   -3.6747    1.6490 H   0  0  0  0  0  0  0  0  0  0  0  0
   -3.9109   -2.6717    1.2250 C   0  0  0  0  0  0  0  0  0  0  0  0
   -4.6009   -2.0517    1.7950 H   0  0  0  0  0  0  0  0  0  0  0  0
   -4.2309   -2.7237    0.1860 H   0  0  0  0  0  0  0  0  0  0  0  0
   -2.5229   -2.0787    1.2980 C   0  0  0  0  0  0  0  0  0  0  0  0
   -1.5999   -2.7227    1.7810 O   0  0  0  0  0  0  0  0  0  0  0  0
   -2.3659   -0.8447    0.8120 N   0  0  0  0  0  0  0  0  0  0  0  0
   -3.1749   -0.3807    0.4220 H   0  0  0  0  0  0  0  0  0  0  0  0
   -1.0919   -0.1077    0.8170 C   0  0  1  0  0  0  0  0  0  0  0  0
   -0.3571   -0.6901    0.2581 H   0  0  0  0  0  0  0  0  0  0  0  0
   -1.3037    1.2411    0.1040 C   0  0  0  0  0  0  0  0  0  0  0  0
   -2.3759    1.4271    0.0235 H   0  0  0  0  0  0  0  0  0  0  0  0
   -0.8645    2.0384    0.7068 H   0  0  0  0  0  0  0  0  0  0  0  0
   -0.6992    1.2824   -1.3078 C   0  0  0  0  0  0  0  0  0  0  0  0
   -1.4103    1.7371   -1.9988 H   0  0  0  0  0  0  0  0  0  0  0  0
    0.2136    1.8811   -1.2905 H   0  0  0  0  0  0  0  0  0  0  0  0
   -0.3669   -0.1369   -1.7888 C   0  0  0  0  0  0  0  0  0  0  0  0
    0.3338   -0.5949   -1.0866 H   0  0  0  0  0  0  0  0  0  0  0  0
   -1.2842   -0.7285   -1.8131 H   0  0  0  0  0  0  0  0  0  0  0  0
    0.2597   -0.0952   -3.1882 C   0  0  0  0  0  0  0  0  0  0  0  0
   -0.4537    0.3733   -3.8740 H   0  0  0  0  0  0  0  0  0  0  0  0
    1.1526    0.5361   -3.1506 H   0  0  0  0  0  0  0  0  0  0  0  0
    0.6133   -1.4549   -3.6686 N   0  3  0  0  0  0  0  0  0  0  0  0
   -0.2108   -2.0408   -3.7155 H   0  0  0  0  0  0  0  0  0  0  0  0
    1.0255   -1.4100   -4.5922 H   0  0  0  0  0  0  0  0  0  0  0  0
    1.2804   -1.8895   -3.0417 H   0  0  0  0  0  0  0  0  0  0  0  0
   -0.5865    0.0771    2.2496 C   0  0  0  0  0  0  0  0  0  0  0  0
    0.5860   -0.1608    2.5143 O   0  0  0  0  0  0  0  0  0  0  0  0
   -1.4786    0.4656    3.1667 N   0  0  0  0  0  0  0  0  0  0  0  0
   -2.4139    0.6698    2.8558 H   0  0  0  0  0  0  0  0  0  0  0  0
   -1.1587    0.6908    4.5775 C   0  0  0  0  0  0  0  0  0  0  0  0
   -0.4270    1.4968    4.6656 H   0  0  0  0  0  0  0  0  0  0  0  0
   -2.0565    0.9649    5.1327 H   0  0  0  0  0  0  0  0  0  0  0  0
   -0.7281   -0.2137    5.0125 H   0  0  0  0  0  0  0  0  0  0  0  0
  5  6  2  0  0  0  0
  5  7  1  0  0  0  0
  2  3  1  0  0  0  0
  2  4  1  0  0  0  0
  2  5  1  0  0  0  0
  1  2  1  0  0  0  0
 27 28  2  0  0  0  0
 27 29  1  0  0  0  0
 23 24  1  0  0  0  0
 23 25  1  0  0  0  0
 23 26  1  0  0  0  0
 20 21  1  0  0  0  0
 20 22  1  0  0  0  0
 20 23  1  0  0  0  0
 17 18  1  0  0  0  0
 17 19  1  0  0  0  0
 17 20  1  0  0  0  0
 14 15  1  0  0  0  0
 14 16  1  0  0  0  0
 14 17  1  0  0  0  0
 11 12  1  0  0  0  0
 11 13  1  0  0  0  0
 11 14  1  0  0  0  0
  9 10  1  0  0  0  0
  9 11  1  0  0  0  0
  9 27  1  0  0  0  0
  7  8  1  0  0  0  0
  7  9  1  0  0  0  0
 31 32  1  0  0  0  0
 31 33  1  0  0  0  0
 31 34  1  0  0  0  0
 29 30  1  0  0  0  0
 29 31  1  0  0  0  0
M  CHG  1  23   1
M  END
$$$$
default_name
  -OEChem-02102213163D

 34 33  0     1  0  0  0  0  0999 V2000
   -3.8899   -3.6747    1.6490 H   0  0  0  0  0  0  0  0  0  0  0  0
   -3.9109   -2.6717    1.2250 C   0  0  0  0  0  0  0  0  0  0  0  0
   -4.6009   -2.0517    1.7950 H   0  0  0  0  0  0  0  0  0  0  0  0
   -4.2309   -2.7237    0.1860 H   0  0  0  0  0  0  0  0  0  0  0  0
   -2.5229   -2.0787    1.2980 C   0  0  0  0  0  0  0  0  0  0  0  0
   -1.5999   -2.7227    1.7810 O   0  0  0  0  0  0  0  0  0  0  0  0
   -2.3659   -0.8447    0.8120 N   0  0  0  0  0  0  0  0  0  0  0  0
   -3.1749   -0.3807    0.4220 H   0  0  0  0  0  0  0  0  0  0  0  0
   -1.0919   -0.1077    0.8170 C   0  0  1  0  0  0  0  0  0  0  0  0
   -0.3571   -0.6901    0.2581 H   0  0  0  0  0  0  0  0  0  0  0  0
   -1.3037    1.2411    0.1040 C   0  0  0  0  0  0  0  0  0  0  0  0
   -2.3759    1.4271    0.0235 H   0  0  0  0  0  0  0  0  0  0  0  0
   -0.8645    2.0384    0.7068 H   0  0  0  0  0  0  0  0  0  0  0  0
   -0.6992    1.2824   -1.3078 C   0  0  0  0  0  0  0  0  0  0  0  0
   -1.2778    1.9614   -1.9355 H   0  0  0  0  0  0  0  0  0  0  0  0
    0.3298    1.6421   -1.2478 H   0  0  0  0  0  0  0  0  0  0  0  0
   -0.7120   -0.1180   -1.9360 C   0  0  0  0  0  0  0  0  0  0  0  0
   -0.1443   -0.7990   -1.2973 H   0  0  0  0  0  0  0  0  0  0  0  0
   -1.7437   -0.4692   -2.0022 H   0  0  0  0  0  0  0  0  0  0  0  0
   -0.0860   -0.0829   -3.3358 C   0  0  0  0  0  0  0  0  0  0  0  0
   -0.6635    0.6095   -3.9570 H   0  0  0  0  0  0  0  0  0  0  0  0
    0.9313    0.3110   -3.2519 H   0  0  0  0  0  0  0  0  0  0  0  0
   -0.0638   -1.4309   -3.9579 N   0  3  0  0  0  0  0  0  0  0  0  0
   -1.0036   -1.7964   -4.0478 H   0  0  0  0  0  0  0  0  0  0  0  0
    0.3521   -1.3906   -4.8800 H   0  0  0  0  0  0  0  0  0  0  0  0
    0.4771   -2.0736   -3.3911 H   0  0  0  0  0  0  0  0  0  0  0  0
   -0.5865    0.0771    2.2496 C   0  0  0  0  0  0  0  0  0  0  0  0
    0.5860   -0.1608    2.5143 O   0  0  0  0  0  0  0  0  0  0  0  0
   -1.4786    0.4656    3.1667 N   0  0  0  0  0  0  0  0  0  0  0  0
   -2.4139    0.6698    2.8558 H   0  0  0  0  0  0  0  0  0  0  0  0
   -1.1587    0.6908    4.5775 C   0  0  0  0  0  0  0  0  0  0  0  0
   -0.4270    1.4968    4.6656 H   0  0  0  0  0  0  0  0  0  0  0  0
   -2.0565    0.9649    5.1327 H   0  0  0  0  0  0  0  0  0  0  0  0
   -0.7281   -0.2137    5.0125 H   0  0  0  0  0  0  0  0  0  0  0  0
  5  6  2  0  0  0  0
  5  7  1  0  0  0  0
  2  3  1  0  0  0  0
  2  4  1  0  0  0  0
  2  5  1  0  0  0  0
  1  2  1  0  0  0  0
 27 28  2  0  0  0  0
 27 29  1  0  0  0  0
 23 24  1  0  0  0  0
 23 25  1  0  0  0  0
 23 26  1  0  0  0  0
 20 21  1  0  0  0  0
 20 22  1  0  0  0  0
 20 23  1  0  0  0  0
 17 18  1  0  0  0  0
 17 19  1  0  0  0  0
 17 20  1  0  0  0  0
 14 15  1  0  0  0  0
 14 16  1  0  0  0  0
 14 17  1  0  0  0  0
 11 12  1  0  0  0  0
 11 13  1  0  0  0  0
 11 14  1  0  0  0  0
  9 10  1  0  0  0  0
  9 11  1  0  0  0  0
  9 27  1  0  0  0  0
  7  8  1  0  0  0  0
  7  9  1  0  0  0  0
 31 32  1  0  0  0  0
 31 33  1  0  0  0  0
 31 34  1  0  0  0  0
 29 30  1  0  0  0  0
 29 31  1  0  0  0  0
M  CHG  1  23   1
M  END
$$$$
default_name
  -OEChem-02102213163D

 34 33  0     1  0  0  0  0  0999 V2000
   -3.8899   -3.6747    1.6490 H   0  0  0  0  0  0  0  0  0  0  0  0
   -3.9109   -2.6717    1.2250 C   0  0  0  0  0  0  0  0  0  0  0  0
   -4.6009   -2.0517    1.7950 H   0  0  0  0  0  0  0  0  0  0  0  0
   -4.2309   -2.7237    0.1860 H   0  0  0  0  0  0  0  0  0  0  0  0
   -2.5229   -2.0787    1.2980 C   0  0  0  0  0  0  0  0  0  0  0  0
   -1.5999   -2.7227    1.7810 O   0  0  0  0  0  0  0  0  0  0  0  0
   -2.3659   -0.8447    0.8120 N   0  0  0  0  0  0  0  0  0  0  0  0
   -3.1749   -0.3807    0.4220 H   0  0  0  0  0  0  0  0  0  0  0  0
   -1.0919   -0.1077    0.8170 C   0  0  1  0  0  0  0  0  0  0  0  0
   -0.3571   -0.6901    0.2581 H   0  0  0  0  0  0  0  0  0  0  0  0
   -1.3037    1.2411    0.1040 C   0  0  0  0  0  0  0  0  0  0  0  0
   -2.3759    1.4271    0.0235 H   0  0  0  0  0  0  0  0  0  0  0  0
   -0.8645    2.0384    0.7068 H   0  0  0  0  0  0  0  0  0  0  0  0
   -0.6992    1.2824   -1.3078 C   0  0  0  0  0  0  0  0  0  0  0  0
   -1.0960    2.1402   -1.8525 H   0  0  0  0  0  0  0  0  0  0  0  0
    0.3856    1.3794   -1.2316 H   0  0  0  0  0  0  0  0  0  0  0  0
   -1.0418   -0.0028   -2.0739 C   0  0  0  0  0  0  0  0  0  0  0  0
   -0.6561   -0.8610   -1.5183 H   0  0  0  0  0  0  0  0  0  0  0  0
   -2.1271   -0.0902   -2.1553 H   0  0  0  0  0  0  0  0  0  0  0  0
   -0.4180    0.0262   -3.4748 C   0  0  0  0  0  0  0  0  0  0  0  0
   -0.8107    0.8960   -4.0116 H   0  0  0  0  0  0  0  0  0  0  0  0
    0.6634    0.1565   -3.3712 H   0  0  0  0  0  0  0  0  0  0  0  0
   -0.7142   -1.2173   -4.2301 N   0  3  0  0  0  0  0  0  0  0  0  0
   -1.7135   -1.3379   -4.3384 H   0  0  0  0  0  0  0  0  0  0  0  0
   -0.2957   -1.1824   -5.1513 H   0  0  0  0  0  0  0  0  0  0  0  0
   -0.3450   -2.0247   -3.7417 H   0  0  0  0  0  0  0  0  0  0  0  0
   -0.5865    0.0771    2.2496 C   0  0  0  0  0  0  0  0  0  0  0  0
    0.5860   -0.1608    2.5143 O   0  0  0  0  0  0  0  0  0  0  0  0
   -1.4786    0.4656    3.1667 N   0  0  0  0  0  0  0  0  0  0  0  0
   -2.4139    0.6698    2.8558 H   0  0  0  0  0  0  0  0  0  0  0  0
   -1.1587    0.6908    4.5775 C   0  0  0  0  0  0  0  0  0  0  0  0
   -0.4270    1.4968    4.6656 H   0  0  0  0  0  0  0  0  0  0  0  0
   -2.0565    0.9649    5.1327 H   0  0  0  0  0  0  0  0  0  0  0  0
   -0.7281   -0.2137    5.0125 H   0  0  0  0  0  0  0  0  0  0  0  0
  5  6  2  0  0  0  0
  5  7  1  0  0  0  0
  2  3  1  0  0  0  0
  2  4  1  0  0  0  0
  2  5  1  0  0  0  0
  1  2  1  0  0  0  0
 27 28  2  0  0  0  0
 27 29  1  0  0  0  0
 23 24  1  0  0  0  0
 23 25  1  0  0  0  0
 23 26  1  0  0  0  0
 20 21  1  0  0  0  0
 20 22  1  0  0  0  0
 20 23  1  0  0  0  0
 17 18  1  0  0  0  0
 17 19  1  0  0  0  0
 17 20  1  0  0  0  0
 14 15  1  0  0  0  0
 14 16  1  0  0  0  0
 14 17  1  0  0  0  0
 11 12  1  0  0  0  0
 11 13  1  0  0  0  0
 11 14  1  0  0  0  0
  9 10  1  0  0  0  0
  9 11  1  0  0  0  0
  9 27  1  0  0  0  0
  7  8  1  0  0  0  0
  7  9  1  0  0  0  0
 31 32  1  0  0  0  0
 31 33  1  0  0  0  0
 31 34  1  0  0  0  0
 29 30  1  0  0  0  0
 29 31  1  0  0  0  0
M  CHG  1  23   1
M  END
$$$$
default_name
  -OEChem-02102213163D

 34 33  0     1  0  0  0  0  0999 V2000
   -3.8899   -3.6747    1.6490 H   0  0  0  0  0  0  0  0  0  0  0  0
   -3.9109   -2.6717    1.2250 C   0  0  0  0  0  0  0  0  0  0  0  0
   -4.6009   -2.0517    1.7950 H   0  0  0  0  0  0  0  0  0  0  0  0
   -4.2309   -2.7237    0.1860 H   0  0  0  0  0  0  0  0  0  0  0  0
   -2.5229   -2.0787    1.2980 C   0  0  0  0  0  0  0  0  0  0  0  0
   -1.5999   -2.7227    1.7810 O   0  0  0  0  0  0  0  0  0  0  0  0
   -2.3659   -0.8447    0.8120 N   0  0  0  0  0  0  0  0  0  0  0  0
   -3.1749   -0.3807    0.4220 H   0  0  0  0  0  0  0  0  0  0  0  0
   -1.0919   -0.1077    0.8170 C   0  0  1  0  0  0  0  0  0  0  0  0
   -0.3571   -0.6901    0.2581 H   0  0  0  0  0  0  0  0  0  0  0  0
   -1.3037    1.2411    0.1040 C   0  0  0  0  0  0  0  0  0  0  0  0
   -2.3759    1.4271    0.0235 H   0  0  0  0  0  0  0  0  0  0  0  0
   -0.8645    2.0384    0.7068 H   0  0  0  0  0  0  0  0  0  0  0  0
   -0.6992    1.2824   -1.3078 C   0  0  0  0  0  0  0  0  0  0  0  0
   -0.8774    2.2611   -1.7553 H   0  0  0  0  0  0  0  0  0  0  0  0
    0.3770    1.1106   -1.2431 H   0  0  0  0  0  0  0  0  0  0  0  0
   -1.3340    0.2010   -2.1930 C   0  0  0  0  0  0  0  0  0  0  0  0
   -1.1667   -0.7766   -1.7345 H   0  0  0  0  0  0  0  0  0  0  0  0
   -2.4084    0.3826   -2.2619 H   0  0  0  0  0  0  0  0  0  0  0  0
   -0.7137    0.2247   -3.5956 C   0  0  0  0  0  0  0  0  0  0  0  0
   -0.8850    1.2132   -4.0341 H   0  0  0  0  0  0  0  0  0  0  0  0
    0.3671    0.0832   -3.5002 H   0  0  0  0  0  0  0  0  0  0  0  0
   -1.2935   -0.8285   -4.4668 N   0  3  0  0  0  0  0  0  0  0  0  0
   -2.2922   -0.6966   -4.5674 H   0  0  0  0  0  0  0  0  0  0  0  0
   -0.8739   -0.7996   -5.3877 H   0  0  0  0  0  0  0  0  0  0  0  0
   -1.1299   -1.7463   -4.0696 H   0  0  0  0  0  0  0  0  0  0  0  0
   -0.5865    0.0771    2.2496 C   0  0  0  0  0  0  0  0  0  0  0  0
    0.5860   -0.1608    2.5143 O   0  0  0  0  0  0  0  0  0  0  0  0
   -1.4786    0.4656    3.1667 N   0  0  0  0  0  0  0  0  0  0  0  0
   -2.4139    0.6698    2.8558 H   0  0  0  0  0  0  0  0  0  0  0  0
   -1.1587    0.6908    4.5775 C   0  0  0  0  0  0  0  0  0  0  0  0
   -0.4270    1.4968    4.6656 H   0  0  0  0  0  0  0  0  0  0  0  0
   -2.0565    0.9649    5.1327 H   0  0  0  0  0  0  0  0  0  0  0  0
   -0.7281   -0.2137    5.0125 H   0  0  0  0  0  0  0  0  0  0  0  0
  5  6  2  0  0  0  0
  5  7  1  0  0  0  0
  2  3  1  0  0  0  0
  2  4  1  0  0  0  0
  2  5  1  0  0  0  0
  1  2  1  0  0  0  0
 27 28  2  0  0  0  0
 27 29  1  0  0  0  0
 23 24  1  0  0  0  0
 23 25  1  0  0  0  0
 23 26  1  0  0  0  0
 20 21  1  0  0  0  0
 20 22  1  0  0  0  0
 20 23  1  0  0  0  0
 17 18  1  0  0  0  0
 17 19  1  0  0  0  0
 17 20  1  0  0  0  0
 14 15  1  0  0  0  0
 14 16  1  0  0  0  0
 14 17  1  0  0  0  0
 11 12  1  0  0  0  0
 11 13  1  0  0  0  0
 11 14  1  0  0  0  0
  9 10  1  0  0  0  0
  9 11  1  0  0  0  0
  9 27  1  0  0  0  0
  7  8  1  0  0  0  0
  7  9  1  0  0  0  0
 31 32  1  0  0  0  0
 31 33  1  0  0  0  0
 31 34  1  0  0  0  0
 29 30  1  0  0  0  0
 29 31  1  0  0  0  0
M  CHG  1  23   1
M  END
$$$$
default_name
  -OEChem-02102213163D

 34 33  0     1  0  0  0  0  0999 V2000
   -3.8899   -3.6747    1.6490 H   0  0  0  0  0  0  0  0  0  0  0  0
   -3.9109   -2.6717    1.2250 C   0  0  0  0  0  0  0  0  0  0  0  0
   -4.6009   -2.0517    1.7950 H   0  0  0  0  0  0  0  0  0  0  0  0
   -4.2309   -2.7237    0.1860 H   0  0  0  0  0  0  0  0  0  0  0  0
   -2.5229   -2.0787    1.2980 C   0  0  0  0  0  0  0  0  0  0  0  0
   -1.5999   -2.7227    1.7810 O   0  0  0  0  0  0  0  0  0  0  0  0
   -2.3659   -0.8447    0.8120 N   0  0  0  0  0  0  0  0  0  0  0  0
   -3.1749   -0.3807    0.4220 H   0  0  0  0  0  0  0  0  0  0  0  0
   -1.0919   -0.1077    0.8170 C   0  0  1  0  0  0  0  0  0  0  0  0
   -0.3571   -0.6901    0.2581 H   0  0  0  0  0  0  0  0  0  0  0  0
   -1.3037    1.2411    0.1040 C   0  0  0  0  0  0  0  0  0  0  0  0
   -2.3759    1.4271    0.0235 H   0  0  0  0  0  0  0  0  0  0  0  0
   -0.8645    2.0384    0.7068 H   0  0  0  0  0  0  0  0  0  0  0  0
   -0.6992    1.2824   -1.3078 C   0  0  0  0  0  0  0  0  0  0  0  0
   -0.6367    2.3161   -1.6506 H   0  0  0  0  0  0  0  0  0  0  0  0
    0.3048    0.8543   -1.2816 H   0  0  0  0  0  0  0  0  0  0  0  0
   -1.5685    0.4795   -2.2853 C   0  0  0  0  0  0  0  0  0  0  0  0
   -1.6414   -0.5516   -1.9312 H   0  0  0  0  0  0  0  0  0  0  0  0
   -2.5684    0.9172   -2.3148 H   0  0  0  0  0  0  0  0  0  0  0  0
   -0.9530    0.4991   -3.6900 C   0  0  0  0  0  0  0  0  0  0  0  0
   -0.8815    1.5397   -4.0231 H   0  0  0  0  0  0  0  0  0  0  0  0
    0.0625    0.0959   -3.6303 H   0  0  0  0  0  0  0  0  0  0  0  0
   -1.7623   -0.2911   -4.6518 N   0  3  0  0  0  0  0  0  0  0  0  0
   -2.7003    0.0838   -4.7193 H   0  0  0  0  0  0  0  0  0  0  0  0
   -1.3429   -0.2683   -5.5730 H   0  0  0  0  0  0  0  0  0  0  0  0
   -1.8241   -1.2573   -4.3526 H   0  0  0  0  0  0  0  0  0  0  0  0
   -0.5865    0.0771    2.2496 C   0  0  0  0  0  0  0  0  0  0  0  0
    0.5860   -0.1608    2.5143 O   0  0  0  0  0  0  0  0  0  0  0  0
   -1.4786    0.4656    3.1667 N   0  0  0  0  0  0  0  0  0  0  0  0
   -2.4139    0.6698    2.8558 H   0  0  0  0  0  0  0  0  0  0  0  0
   -1.1587    0.6908    4.5775 C   0  0  0  0  0  0  0  0  0  0  0  0
   -0.4270    1.4968    4.6656 H   0  0  0  0  0  0  0  0  0  0  0  0
   -2.0565    0.9649    5.1327 H   0  0  0  0  0  0  0  0  0  0  0  0
   -0.7281   -0.2137    5.0125 H   0  0  0  0  0  0  0  0  0  0  0  0
  5  6  2  0  0  0  0
  5  7  1  0  0  0  0
  2  3  1  0  0  0  0
  2  4  1  0  0  0  0
  2  5  1  0  0  0  0
  1  2  1  0  0  0  0
 27 28  2  0  0  0  0
 27 29  1  0  0  0  0
 23 24  1  0  0  0  0
 23 25  1  0  0  0  0
 23 26  1  0  0  0  0
 20 21  1  0  0  0  0
 20 22  1  0  0  0  0
 20 23  1  0  0  0  0
 17 18  1  0  0  0  0
 17 19  1  0  0  0  0
 17 20  1  0  0  0  0
 14 15  1  0  0  0  0
 14 16  1  0  0  0  0
 14 17  1  0  0  0  0
 11 12  1  0  0  0  0
 11 13  1  0  0  0  0
 11 14  1  0  0  0  0
  9 10  1  0  0  0  0
  9 11  1  0  0  0  0
  9 27  1  0  0  0  0
  7  8  1  0  0  0  0
  7  9  1  0  0  0  0
 31 32  1  0  0  0  0
 31 33  1  0  0  0  0
 31 34  1  0  0  0  0
 29 30  1  0  0  0  0
 29 31  1  0  0  0  0
M  CHG  1  23   1
M  END
$$$$
default_name
  -OEChem-02102213163D

 34 33  0     1  0  0  0  0  0999 V2000
   -3.8899   -3.6747    1.6490 H   0  0  0  0  0  0  0  0  0  0  0  0
   -3.9109   -2.6717    1.2250 C   0  0  0  0  0  0  0  0  0  0  0  0
   -4.6009   -2.0517    1.7950 H   0  0  0  0  0  0  0  0  0  0  0  0
   -4.2309   -2.7237    0.1860 H   0  0  0  0  0  0  0  0  0  0  0  0
   -2.5229   -2.0787    1.2980 C   0  0  0  0  0  0  0  0  0  0  0  0
   -1.5999   -2.7227    1.7810 O   0  0  0  0  0  0  0  0  0  0  0  0
   -2.3659   -0.8447    0.8120 N   0  0  0  0  0  0  0  0  0  0  0  0
   -3.1749   -0.3807    0.4220 H   0  0  0  0  0  0  0  0  0  0  0  0
   -1.0919   -0.1077    0.8170 C   0  0  1  0  0  0  0  0  0  0  0  0
   -0.3571   -0.6901    0.2581 H   0  0  0  0  0  0  0  0  0  0  0  0
   -1.3037    1.2411    0.1040 C   0  0  0  0  0  0  0  0  0  0  0  0
   -2.3759    1.4271    0.0235 H   0  0  0  0  0  0  0  0  0  0  0  0
   -0.8645    2.0384    0.7068 H   0  0  0  0  0  0  0  0  0  0  0  0
   -0.6992    1.2824   -1.3078 C   0  0  0  0  0  0  0  0  0  0  0  0
   -0.3905    2.3013   -1.5456 H   0  0  0  0  0  0  0  0  0  0  0  0
    0.1737    0.6277   -1.3443 H   0  0  0  0  0  0  0  0  0  0  0  0
   -1.7295    0.8136   -2.3445 C   0  0  0  0  0  0  0  0  0  0  0  0
   -2.0478   -0.2014   -2.0950 H   0  0  0  0  0  0  0  0  0  0  0  0
   -2.5961    1.4769   -2.3103 H   0  0  0  0  0  0  0  0  0  0  0  0
   -1.1195    0.8307   -3.7516 C   0  0  0  0  0  0  0  0  0  0  0  0
   -0.8004    1.8531   -3.9792 H   0  0  0  0  0  0  0  0  0  0  0  0
   -0.2297    0.1940   -3.7525 H   0  0  0  0  0  0  0  0  0  0  0  0
   -2.0886    0.3584   -4.7725 N   0  3  0  0  0  0  0  0  0  0  0  0
   -2.9099    0.9501   -4.7837 H   0  0  0  0  0  0  0  0  0  0  0  0
   -1.6709    0.3754   -5.6946 H   0  0  0  0  0  0  0  0  0  0  0  0
   -2.3804   -0.5910   -4.5713 H   0  0  0  0  0  0  0  0  0  0  0  0
   -0.5865    0.0771    2.2496 C   0  0  0  0  0  0  0  0  0  0  0  0
    0.5860   -0.1608    2.5143 O   0  0  0  0  0  0  0  0  0  0  0  0
   -1.4786    0.4656    3.1667 N   0  0  0  0  0  0  0  0  0  0  0  0
   -2.4139    0.6698    2.8558 H   0  0  0  0  0  0  0  0  0  0  0  0
   -1.1587    0.6908    4.5775 C   0  0  0  0  0  0  0  0  0  0  0  0
   -0.4270    1.4968    4.6656 H   0  0  0  0  0  0  0  0  0  0  0  0
   -2.0565    0.9649    5.1327 H   0  0  0  0  0  0  0  0  0  0  0  0
   -0.7281   -0.2137    5.0125 H   0  0  0  0  0  0  0  0  0  0  0  0
  5  6  2  0  0  0  0
  5  7  1  0  0  0  0
  2  3  1  0  0  0  0
  2  4  1  0  0  0  0
  2  5  1  0  0  0  0
  1  2  1  0  0  0  0
 27 28  2  0  0  0  0
 27 29  1  0  0  0  0
 23 24  1  0  0  0  0
 23 25  1  0  0  0  0
 23 26  1  0  0  0  0
 20 21  1  0  0  0  0
 20 22  1  0  0  0  0
 20 23  1  0  0  0  0
 17 18  1  0  0  0  0
 17 19  1  0  0  0  0
 17 20  1  0  0  0  0
 14 15  1  0  0  0  0
 14 16  1  0  0  0  0
 14 17  1  0  0  0  0
 11 12  1  0  0  0  0
 11 13  1  0  0  0  0
 11 14  1  0  0  0  0
  9 10  1  0  0  0  0
  9 11  1  0  0  0  0
  9 27  1  0  0  0  0
  7  8  1  0  0  0  0
  7  9  1  0  0  0  0
 31 32  1  0  0  0  0
 31 33  1  0  0  0  0
 31 34  1  0  0  0  0
 29 30  1  0  0  0  0
 29 31  1  0  0  0  0
M  CHG  1  23   1
M  END
$$$$
default_name
  -OEChem-02102213163D

 34 33  0     1  0  0  0  0  0999 V2000
   -3.8899   -3.6747    1.6490 H   0  0  0  0  0  0  0  0  0  0  0  0
   -3.9109   -2.6717    1.2250 C   0  0  0  0  0  0  0  0  0  0  0  0
   -4.6009   -2.0517    1.7950 H   0  0  0  0  0  0  0  0  0  0  0  0
   -4.2309   -2.7237    0.1860 H   0  0  0  0  0  0  0  0  0  0  0  0
   -2.5229   -2.0787    1.2980 C   0  0  0  0  0  0  0  0  0  0  0  0
   -1.5999   -2.7227    1.7810 O   0  0  0  0  0  0  0  0  0  0  0  0
   -2.3659   -0.8447    0.8120 N   0  0  0  0  0  0  0  0  0  0  0  0
   -3.1749   -0.3807    0.4220 H   0  0  0  0  0  0  0  0  0  0  0  0
   -1.0919   -0.1077    0.8170 C   0  0  1  0  0  0  0  0  0  0  0  0
   -0.3571   -0.6901    0.2581 H   0  0  0  0  0  0  0  0  0  0  0  0
   -1.3037    1.2411    0.1040 C   0  0  0  0  0  0  0  0  0  0  0  0
   -2.3759    1.4271    0.0235 H   0  0  0  0  0  0  0  0  0  0  0  0
   -0.8645    2.0384    0.7068 H   0  0  0  0  0  0  0  0  0  0  0  0
   -0.6992    1.2824   -1.3078 C   0  0  0  0  0  0  0  0  0  0  0  0
   -0.1554    2.2177   -1.4474 H   0  0  0  0  0  0  0  0  0  0  0  0
   -0.0071    0.4465   -1.4271 H   0  0  0  0  0  0  0  0  0  0  0  0
   -1.8060    1.1807   -2.3665 C   0  0  0  0  0  0  0  0  0  0  0  0
   -2.3582    0.2502   -2.2147 H   0  0  0  0  0  0  0  0  0  0  0  0
   -2.4898    2.0237   -2.2488 H   0  0  0  0  0  0  0  0  0  0  0  0
   -1.2019    1.1969   -3.7762 C   0  0  0  0  0  0  0  0  0  0  0  0
   -0.6473    2.1320   -3.9054 H   0  0  0  0  0  0  0  0  0  0  0  0
   -0.4893    0.3706   -3.8586 H   0  0  0  0  0  0  0  0  0  0  0  0
   -2.2501    1.0756   -4.8207 N   0  3  0  0  0  0  0  0  0  0  0  0
   -2.9067    1.8434   -4.7562 H   0  0  0  0  0  0  0  0  0  0  0  0
   -1.8355    1.0875   -5.7442 H   0  0  0  0  0  0  0  0  0  0  0  0
   -2.7607    0.2072   -4.7108 H   0  0  0  0  0  0  0  0  0  0  0  0
   -0.5865    0.0771    2.2496 C   0  0  0  0  0  0  0  0  0  0  0  0
    0.5860   -0.1608    2.5143 O   0  0  0  0  0  0  0  0  0  0  0  0
   -1.4786    0.4656    3.1667 N   0  0  0  0  0  0  0  0  0  0  0  0
   -2.4139    0.6698    2.8558 H   0  0  0  0  0  0  0  0  0  0  0  0
   -1.1587    0.6908    4.5775 C   0  0  0  0  0  0  0  0  0  0  0  0
   -0.4270    1.4968    4.6656 H   0  0  0  0  0  0  0  0  0  0  0  0
   -2.0565    0.9649    5.1327 H   0  0  0  0  0  0  0  0  0  0  0  0
   -0.7281   -0.2137    5.0125 H   0  0  0  0  0  0  0  0  0  0  0  0
  5  6  2  0  0  0  0
  5  7  1  0  0  0  0
  2  3  1  0  0  0  0
  2  4  1  0  0  0  0
  2  5  1  0  0  0  0
  1  2  1  0  0  0  0
 27 28  2  0  0  0  0
 27 29  1  0  0  0  0
 23 24  1  0  0  0  0
 23 25  1  0  0  0  0
 23 26  1  0  0  0  0
 20 21  1  0  0  0  0
 20 22  1  0  0  0  0
 20 23  1  0  0  0  0
 17 18  1  0  0  0  0
 17 19  1  0  0  0  0
 17 20  1  0  0  0  0
 14 15  1  0  0  0  0
 14 16  1  0  0  0  0
 14 17  1  0  0  0  0
 11 12  1  0  0  0  0
 11 13  1  0  0  0  0
 11 14  1  0  0  0  0
  9 10  1  0  0  0  0
  9 11  1  0  0  0  0
  9 27  1  0  0  0  0
  7  8  1  0  0  0  0
  7  9  1  0  0  0  0
 31 32  1  0  0  0  0
 31 33  1  0  0  0  0
 31 34  1  0  0  0  0
 29 30  1  0  0  0  0
 29 31  1  0  0  0  0
M  CHG  1  23   1
M  END
$$$$
default_name
  -OEChem-02102213163D

 34 33  0     1  0  0  0  0  0999 V2000
   -3.8899   -3.6747    1.6490 H   0  0  0  0  0  0  0  0  0  0  0  0
   -3.9109   -2.6717    1.2250 C   0  0  0  0  0  0  0  0  0  0  0  0
   -4.6009   -2.0517    1.7950 H   0  0  0  0  0  0  0  0  0  0  0  0
   -4.2309   -2.7237    0.1860 H   0  0  0  0  0  0  0  0  0  0  0  0
   -2.5229   -2.0787    1.2980 C   0  0  0  0  0  0  0  0  0  0  0  0
   -1.5999   -2.7227    1.7810 O   0  0  0  0  0  0  0  0  0  0  0  0
   -2.3659   -0.8447    0.8120 N   0  0  0  0  0  0  0  0  0  0  0  0
   -3.1749   -0.3807    0.4220 H   0  0  0  0  0  0  0  0  0  0  0  0
   -1.0919   -0.1077    0.8170 C   0  0  1  0  0  0  0  0  0  0  0  0
   -0.3571   -0.6901    0.2581 H   0  0  0  0  0  0  0  0  0  0  0  0
   -1.3037    1.2411    0.1040 C   0  0  0  0  0  0  0  0  0  0  0  0
   -2.3759    1.4271    0.0235 H   0  0  0  0  0  0  0  0  0  0  0  0
   -0.8645    2.0384    0.7068 H   0  0  0  0  0  0  0  0  0  0  0  0
   -0.6992    1.2824   -1.3078 C   0  0  0  0  0  0  0  0  0  0  0  0
    0.0525    2.0710   -1.3627 H   0  0  0  0  0  0  0  0  0  0  0  0
   -0.2256    0.3228   -1.5242 H   0  0  0  0  0  0  0  0  0  0  0  0
   -1.7926    1.5557   -2.3498 C   0  0  0  0  0  0  0  0  0  0  0  0
   -2.5514    0.7725   -2.2821 H   0  0  0  0  0  0  0  0  0  0  0  0
   -2.2566    2.5203   -2.1344 H   0  0  0  0  0  0  0  0  0  0  0  0
   -1.1945    1.5726   -3.7621 C   0  0  0  0  0  0  0  0  0  0  0  0
   -0.4325    2.3575   -3.8068 H   0  0  0  0  0  0  0  0  0  0  0  0
   -0.6989    0.6137   -3.9412 H   0  0  0  0  0  0  0  0  0  0  0  0
   -2.2359    1.8116   -4.7931 N   0  3  0  0  0  0  0  0  0  0  0  0
   -2.6910    2.7026   -4.6387 H   0  0  0  0  0  0  0  0  0  0  0  0
   -1.8254    1.8195   -5.7185 H   0  0  0  0  0  0  0  0  0  0  0  0
   -2.9392    1.0828   -4.7616 H   0  0  0  0  0  0  0  0  0  0  0  0
   -0.5865    0.0771    2.2496 C   0  0  0  0  0  0  0  0  0  0  0  0
    0.5860   -0.1608    2.5143 O   0  0  0  0  0  0  0  0  0  0  0  0
   -1.4786    0.4656    3.1667 N   0  0  0  0  0  0  0  0  0  0  0  0
   -2.4139    0.6698    2.8558 H   0  0  0  0  0  0  0  0  0  0  0  0
   -1.1587    0.6908    4.5775 C   0  0  0  0  0  0  0  0  0  0  0  0
   -0.4270    1.4968    4.6656 H   0  0  0  0  0  0  0  0  0  0  0  0
   -2.0565    0.9649    5.1327 H   0  0  0  0  0  0  0  0  0  0  0  0
   -0.7281   -0.2137    5.0125 H   0  0  0  0  0  0  0  0  0  0  0  0
  5  6  2  0  0  0  0
  5  7  1  0  0  0  0
  2  3  1  0  0  0  0
  2  4  1  0  0  0  0
  2  5  1  0  0  0  0
  1  2  1  0  0  0  0
 27 28  2  0  0  0  0
 27 29  1  0  0  0  0
 23 24  1  0  0  0  0
 23 25  1  0  0  0  0
 23 26  1  0  0  0  0
 20 21  1  0  0  0  0
 20 22  1  0  0  0  0
 20 23  1  0  0  0  0
 17 18  1  0  0  0  0
 17 19  1  0  0  0  0
 17 20  1  0  0  0  0
 14 15  1  0  0  0  0
 14 16  1  0  0  0  0
 14 17  1  0  0  0  0
 11 12  1  0  0  0  0
 11 13  1  0  0  0  0
 11 14  1  0  0  0  0
  9 10  1  0  0  0  0
  9 11  1  0  0  0  0
  9 27  1  0  0  0  0
  7  8  1  0  0  0  0
  7  9  1  0  0  0  0
 31 32  1  0  0  0  0
 31 33  1  0  0  0  0
 31 34  1  0  0  0  0
 29 30  1  0  0  0  0
 29 31  1  0  0  0  0
M  CHG  1  23   1
M  END
$$$$
default_name
  -OEChem-02102213163D

 34 33  0     1  0  0  0  0  0999 V2000
   -3.8899   -3.6747    1.6490 H   0  0  0  0  0  0  0  0  0  0  0  0
   -3.9109   -2.6717    1.2250 C   0  0  0  0  0  0  0  0  0  0  0  0
   -4.6009   -2.0517    1.7950 H   0  0  0  0  0  0  0  0  0  0  0  0
   -4.2309   -2.7237    0.1860 H   0  0  0  0  0  0  0  0  0  0  0  0
   -2.5229   -2.0787    1.2980 C   0  0  0  0  0  0  0  0  0  0  0  0
   -1.5999   -2.7227    1.7810 O   0  0  0  0  0  0  0  0  0  0  0  0
   -2.3659   -0.8447    0.8120 N   0  0  0  0  0  0  0  0  0  0  0  0
   -3.1749   -0.3807    0.4220 H   0  0  0  0  0  0  0  0  0  0  0  0
   -1.0919   -0.1077    0.8170 C   0  0  1  0  0  0  0  0  0  0  0  0
   -0.3571   -0.6901    0.2581 H   0  0  0  0  0  0  0  0  0  0  0  0
   -1.3037    1.2411    0.1040 C   0  0  0  0  0  0  0  0  0  0  0  0
   -2.3759    1.4271    0.0235 H   0  0  0  0  0  0  0  0  0  0  0  0
   -0.8645    2.0384    0.7068 H   0  0  0  0  0  0  0  0  0  0  0  0
   -0.6992    1.2824   -1.3078 C   0  0  0  0  0  0  0  0  0  0  0  0
    0.2190    1.8713   -1.2972 H   0  0  0  0  0  0  0  0  0  0  0  0
   -0.4666    0.2653   -1.6291 H   0  0  0  0  0  0  0  0  0  0  0  0
   -1.6905    1.9131   -2.2956 C   0  0  0  0  0  0  0  0  0  0  0  0
   -2.6143    1.3297   -2.2928 H   0  0  0  0  0  0  0  0  0  0  0  0
   -1.9125    2.9329   -1.9749 H   0  0  0  0  0  0  0  0  0  0  0  0
   -1.0980    1.9324   -3.7102 C   0  0  0  0  0  0  0  0  0  0  0  0
   -0.1707    2.5142   -3.6901 H   0  0  0  0  0  0  0  0  0  0  0  0
   -0.8441    0.9068   -3.9948 H   0  0  0  0  0  0  0  0  0  0  0  0
   -2.0469    2.5165   -4.6915 N   0  3  0  0  0  0  0  0  0  0  0  0
   -2.2775    3.4693   -4.4392 H   0  0  0  0  0  0  0  0  0  0  0  0
   -1.6414    2.5216   -5.6191 H   0  0  0  0  0  0  0  0  0  0  0  0
   -2.9037    1.9762   -4.7203 H   0  0  0  0  0  0  0  0  0  0  0  0
   -0.5865    0.0771    2.2496 C   0  0  0  0  0  0  0  0  0  0  0  0
    0.5860   -0.1608    2.5143 O   0  0  0  0  0  0  0  0  0  0  0  0
   -1.4786    0.4656    3.1667 N   0  0  0  0  0  0  0  0  0  0  0  0
   -2.4139    0.6698    2.8558 H   0  0  0  0  0  0  0  0  0  0  0  0
   -1.1587    0.6908    4.5775 C   0  0  0  0  0  0  0  0  0  0  0  0
   -0.4270    1.4968    4.6656 H   0  0  0  0  0  0  0  0  0  0  0  0
   -2.0565    0.9649    5.1327 H   0  0  0  0  0  0  0  0  0  0  0  0
   -0.7281   -0.2137    5.0125 H   0  0  0  0  0  0  0  0  0  0  0  0
  5  6  2  0  0  0  0
  5  7  1  0  0  0  0
  2  3  1  0  0  0  0
  2  4  1  0  0  0  0
  2  5  1  0  0  0  0
  1  2  1  0  0  0  0
 27 28  2  0  0  0  0
 27 29  1  0  0  0  0
 23 24  1  0  0  0  0
 23 25  1  0  0  0  0
 23 26  1  0  0  0  0
 20 21  1  0  0  0  0
 20 22  1  0  0  0  0
 20 23  1  0  0  0  0
 17 18  1  0  0  0  0
 17 19  1  0  0  0  0
 17 20  1  0  0  0  0
 14 15  1  0  0  0  0
 14 16  1  0  0  0  0
 14 17  1  0  0  0  0
 11 12  1  0  0  0  0
 11 13  1  0  0  0  0
 11 14  1  0  0  0  0
  9 10  1  0  0  0  0
  9 11  1  0  0  0  0
  9 27  1  0  0  0  0
  7  8  1  0  0  0  0
  7  9  1  0  0  0  0
 31 32  1  0  0  0  0
 31 33  1  0  0  0  0
 31 34  1  0  0  0  0
 29 30  1  0  0  0  0
 29 31  1  0  0  0  0
M  CHG  1  23   1
M  END
$$$$
default_name
  -OEChem-02102213163D

 34 33  0     1  0  0  0  0  0999 V2000
   -3.8899   -3.6747    1.6490 H   0  0  0  0  0  0  0  0  0  0  0  0
   -3.9109   -2.6717    1.2250 C   0  0  0  0  0  0  0  0  0  0  0  0
   -4.6009   -2.0517    1.7950 H   0  0  0  0  0  0  0  0  0  0  0  0
   -4.2309   -2.7237    0.1860 H   0  0  0  0  0  0  0  0  0  0  0  0
   -2.5229   -2.0787    1.2980 C   0  0  0  0  0  0  0  0  0  0  0  0
   -1.5999   -2.7227    1.7810 O   0  0  0  0  0  0  0  0  0  0  0  0
   -2.3659   -0.8447    0.8120 N   0  0  0  0  0  0  0  0  0  0  0  0
   -3.1749   -0.3807    0.4220 H   0  0  0  0  0  0  0  0  0  0  0  0
   -1.0919   -0.1077    0.8170 C   0  0  1  0  0  0  0  0  0  0  0  0
   -0.3571   -0.6901    0.2581 H   0  0  0  0  0  0  0  0  0  0  0  0
   -1.3037    1.2411    0.1040 C   0  0  0  0  0  0  0  0  0  0  0  0
   -2.3759    1.4271    0.0235 H   0  0  0  0  0  0  0  0  0  0  0  0
   -0.8645    2.0384    0.7068 H   0  0  0  0  0  0  0  0  0  0  0  0
   -0.6992    1.2824   -1.3078 C   0  0  0  0  0  0  0  0  0  0  0  0
    0.3327    1.6321   -1.2555 H   0  0  0  0  0  0  0  0  0  0  0  0
   -0.7139    0.2777   -1.7347 H   0  0  0  0  0  0  0  0  0  0  0  0
   -1.5064    2.2285   -2.2075 C   0  0  0  0  0  0  0  0  0  0  0  0
   -2.5426    1.8841   -2.2458 H   0  0  0  0  0  0  0  0  0  0  0  0
   -1.4808    3.2333   -1.7813 H   0  0  0  0  0  0  0  0  0  0  0  0
   -0.9188    2.2517   -3.6241 C   0  0  0  0  0  0  0  0  0  0  0  0
    0.1203    2.5914   -3.5633 H   0  0  0  0  0  0  0  0  0  0  0  0
   -0.9150    1.2300   -4.0157 H   0  0  0  0  0  0  0  0  0  0  0  0
   -1.6960    3.1420   -4.5229 N   0  3  0  0  0  0  0  0  0  0  0  0
   -1.6944    4.0912   -4.1713 H   0  0  0  0  0  0  0  0  0  0  0  0
   -1.2960    3.1459   -5.4529 H   0  0  0  0  0  0  0  0  0  0  0  0
   -2.6567    2.8265   -4.5896 H   0  0  0  0  0  0  0  0  0  0  0  0
   -0.5865    0.0771    2.2496 C   0  0  0  0  0  0  0  0  0  0  0  0
    0.5860   -0.1608    2.5143 O   0  0  0  0  0  0  0  0  0  0  0  0
   -1.4786    0.4656    3.1667 N   0  0  0  0  0  0  0  0  0  0  0  0
   -2.4139    0.6698    2.8558 H   0  0  0  0  0  0  0  0  0  0  0  0
   -1.1587    0.6908    4.5775 C   0  0  0  0  0  0  0  0  0  0  0  0
   -0.4270    1.4968    4.6656 H   0  0  0  0  0  0  0  0  0  0  0  0
   -2.0565    0.9649    5.1327 H   0  0  0  0  0  0  0  0  0  0  0  0
   -0.7281   -0.2137    5.0125 H   0  0  0  0  0  0  0  0  0  0  0  0
  5  6  2  0  0  0  0
  5  7  1  0  0  0  0
  2  3  1  0  0  0  0
  2  4  1  0  0  0  0
  2  5  1  0  0  0  0
  1  2  1  0  0  0  0
 27 28  2  0  0  0  0
 27 29  1  0  0  0  0
 23 24  1  0  0  0  0
 23 25  1  0  0  0  0
 23 26  1  0  0  0  0
 20 21  1  0  0  0  0
 20 22  1  0  0  0  0
 20 23  1  0  0  0  0
 17 18  1  0  0  0  0
 17 19  1  0  0  0  0
 17 20  1  0  0  0  0
 14 15  1  0  0  0  0
 14 16  1  0  0  0  0
 14 17  1  0  0  0  0
 11 12  1  0  0  0  0
 11 13  1  0  0  0  0
 11 14  1  0  0  0  0
  9 10  1  0  0  0  0
  9 11  1  0  0  0  0
  9 27  1  0  0  0  0
  7  8  1  0  0  0  0
  7  9  1  0  0  0  0
 31 32  1  0  0  0  0
 31 33  1  0  0  0  0
 31 34  1  0  0  0  0
 29 30  1  0  0  0  0
 29 31  1  0  0  0  0
M  CHG  1  23   1
M  END
$$$$
default_name
  -OEChem-02102213163D

 34 33  0     1  0  0  0  0  0999 V2000
   -3.8899   -3.6747    1.6490 H   0  0  0  0  0  0  0  0  0  0  0  0
   -3.9109   -2.6717    1.2250 C   0  0  0  0  0  0  0  0  0  0  0  0
   -4.6009   -2.0517    1.7950 H   0  0  0  0  0  0  0  0  0  0  0  0
   -4.2309   -2.7237    0.1860 H   0  0  0  0  0  0  0  0  0  0  0  0
   -2.5229   -2.0787    1.2980 C   0  0  0  0  0  0  0  0  0  0  0  0
   -1.5999   -2.7227    1.7810 O   0  0  0  0  0  0  0  0  0  0  0  0
   -2.3659   -0.8447    0.8120 N   0  0  0  0  0  0  0  0  0  0  0  0
   -3.1749   -0.3807    0.4220 H   0  0  0  0  0  0  0  0  0  0  0  0
   -1.0919   -0.1077    0.8170 C   0  0  1  0  0  0  0  0  0  0  0  0
   -0.3571   -0.6901    0.2581 H   0  0  0  0  0  0  0  0  0  0  0  0
   -1.3037    1.2411    0.1040 C   0  0  0  0  0  0  0  0  0  0  0  0
   -2.3759    1.4271    0.0235 H   0  0  0  0  0  0  0  0  0  0  0  0
   -0.8645    2.0384    0.7068 H   0  0  0  0  0  0  0  0  0  0  0  0
   -0.6992    1.2824   -1.3078 C   0  0  0  0  0  0  0  0  0  0  0  0
    0.3860    1.3698   -1.2403 H   0  0  0  0  0  0  0  0  0  0  0  0
   -0.9505    0.3592   -1.8336 H   0  0  0  0  0  0  0  0  0  0  0  0
   -1.2530    2.4803   -2.0916 C   0  0  0  0  0  0  0  0  0  0  0  0
   -2.3412    2.3977   -2.1445 H   0  0  0  0  0  0  0  0  0  0  0  0
   -0.9911    3.4011   -1.5667 H   0  0  0  0  0  0  0  0  0  0  0  0
   -0.6692    2.5087   -3.5097 C   0  0  0  0  0  0  0  0  0  0  0  0
    0.4205    2.5838   -3.4349 H   0  0  0  0  0  0  0  0  0  0  0  0
   -0.9067    1.5611   -4.0025 H   0  0  0  0  0  0  0  0  0  0  0  0
   -1.2071    3.6455   -4.2988 N   0  3  0  0  0  0  0  0  0  0  0  0
   -0.9813    4.5260   -3.8532 H   0  0  0  0  0  0  0  0  0  0  0  0
   -0.8127    3.6498   -5.2312 H   0  0  0  0  0  0  0  0  0  0  0  0
   -2.2149    3.5758   -4.3785 H   0  0  0  0  0  0  0  0  0  0  0  0
   -0.5865    0.0771    2.2496 C   0  0  0  0  0  0  0  0  0  0  0  0
    0.5860   -0.1608    2.5143 O   0  0  0  0  0  0  0  0  0  0  0  0
   -1.4786    0.4656    3.1667 N   0  0  0  0  0  0  0  0  0  0  0  0
   -2.4139    0.6698    2.8558 H   0  0  0  0  0  0  0  0  0  0  0  0
   -1.1587    0.6908    4.5775 C   0  0  0  0  0  0  0  0  0  0  0  0
   -0.4270    1.4968    4.6656 H   0  0  0  0  0  0  0  0  0  0  0  0
   -2.0565    0.9649    5.1327 H   0  0  0  0  0  0  0  0  0  0  0  0
   -0.7281   -0.2137    5.0125 H   0  0  0  0  0  0  0  0  0  0  0  0
  5  6  2  0  0  0  0
  5  7  1  0  0  0  0
  2  3  1  0  0  0  0
  2  4  1  0  0  0  0
  2  5  1  0  0  0  0
  1  2  1  0  0  0  0
 27 28  2  0  0  0  0
 27 29  1  0  0  0  0
 23 24  1  0  0  0  0
 23 25  1  0  0  0  0
 23 26  1  0  0  0  0
 20 21  1  0  0  0  0
 20 22  1  0  0  0  0
 20 23  1  0  0  0  0
 17 18  1  0  0  0  0
 17 19  1  0  0  0  0
 17 20  1  0  0  0  0
 14 15  1  0  0  0  0
 14 16  1  0  0  0  0
 14 17  1  0  0  0  0
 11 12  1  0  0  0  0
 11 13  1  0  0  0  0
 11 14  1  0  0  0  0
  9 10  1  0  0  0  0
  9 11  1  0  0  0  0
  9 27  1  0  0  0  0
  7  8  1  0  0  0  0
  7  9  1  0  0  0  0
 31 32  1  0  0  0  0
 31 33  1  0  0  0  0
 31 34  1  0  0  0  0
 29 30  1  0  0  0  0
 29 31  1  0  0  0  0
M  CHG  1  23   1
M  END
$$$$
default_name
  -OEChem-02102213163D

 34 33  0     1  0  0  0  0  0999 V2000
   -3.8899   -3.6747    1.6490 H   0  0  0  0  0  0  0  0  0  0  0  0
   -3.9109   -2.6717    1.2250 C   0  0  0  0  0  0  0  0  0  0  0  0
   -4.6009   -2.0517    1.7950 H   0  0  0  0  0  0  0  0  0  0  0  0
   -4.2309   -2.7237    0.1860 H   0  0  0  0  0  0  0  0  0  0  0  0
   -2.5229   -2.0787    1.2980 C   0  0  0  0  0  0  0  0  0  0  0  0
   -1.5999   -2.7227    1.7810 O   0  0  0  0  0  0  0  0  0  0  0  0
   -2.3659   -0.8447    0.8120 N   0  0  0  0  0  0  0  0  0  0  0  0
   -3.1749   -0.3807    0.4220 H   0  0  0  0  0  0  0  0  0  0  0  0
   -1.0919   -0.1077    0.8170 C   0  0  1  0  0  0  0  0  0  0  0  0
   -0.3571   -0.6901    0.2581 H   0  0  0  0  0  0  0  0  0  0  0  0
   -1.3037    1.2411    0.1040 C   0  0  0  0  0  0  0  0  0  0  0  0
   -2.3369    1.5567    0.2572 H   0  0  0  0  0  0  0  0  0  0  0  0
   -0.6490    1.9907    0.5526 H   0  0  0  0  0  0  0  0  0  0  0  0
   -1.0376    1.1764   -1.4078 C   0  0  0  0  0  0  0  0  0  0  0  0
   -0.0074    0.8657   -1.5865 H   0  0  0  0  0  0  0  0  0  0  0  0
   -1.7133    0.4483   -1.8608 H   0  0  0  0  0  0  0  0  0  0  0  0
   -1.2675    2.5513   -2.0503 C   0  0  0  0  0  0  0  0  0  0  0  0
   -2.2957    2.8664   -1.8567 H   0  0  0  0  0  0  0  0  0  0  0  0
   -0.5833    3.2735   -1.6004 H   0  0  0  0  0  0  0  0  0  0  0  0
   -1.0263    2.4825   -3.5634 C   0  0  0  0  0  0  0  0  0  0  0  0
    0.0051    2.1582   -3.7361 H   0  0  0  0  0  0  0  0  0  0  0  0
   -1.6915    1.7242   -3.9874 H   0  0  0  0  0  0  0  0  0  0  0  0
   -1.2652    3.7953   -4.2146 N   0  3  0  0  0  0  0  0  0  0  0  0
   -0.6451    4.4991   -3.8337 H   0  0  0  0  0  0  0  0  0  0  0  0
   -1.1023    3.7329   -5.2118 H   0  0  0  0  0  0  0  0  0  0  0  0
   -2.2213    4.0959   -4.0651 H   0  0  0  0  0  0  0  0  0  0  0  0
   -0.5865    0.0771    2.2496 C   0  0  0  0  0  0  0  0  0  0  0  0
    0.5860   -0.1608    2.5143 O   0  0  0  0  0  0  0  0  0  0  0  0
   -1.4786    0.4656    3.1667 N   0  0  0  0  0  0  0  0  0  0  0  0
   -2.4139    0.6698    2.8558 H   0  0  0  0  0  0  0  0  0  0  0  0
   -1.1587    0.6908    4.5775 C   0  0  0  0  0  0  0  0  0  0  0  0
   -0.4270    1.4968    4.6656 H   0  0  0  0  0  0  0  0  0  0  0  0
   -2.0565    0.9649    5.1327 H   0  0  0  0  0  0  0  0  0  0  0  0
   -0.7281   -0.2137    5.0125 H   0  0  0  0  0  0  0  0  0  0  0  0
  5  6  2  0  0  0  0
  5  7  1  0  0  0  0
  2  3  1  0  0  0  0
  2  4  1  0  0  0  0
  2  5  1  0  0  0  0
  1  2  1  0  0  0  0
 27 28  2  0  0  0  0
 27 29  1  0  0  0  0
 23 24  1  0  0  0  0
 23 25  1  0  0  0  0
 23 26  1  0  0  0  0
 20 21  1  0  0  0  0
 20 22  1  0  0  0  0
 20 23  1  0  0  0  0
 17 18  1  0  0  0  0
 17 19  1  0  0  0  0
 17 20  1  0  0  0  0
 14 15  1  0  0  0  0
 14 16  1  0  0  0  0
 14 17  1  0  0  0  0
 11 12  1  0  0  0  0
 11 13  1  0  0  0  0
 11 14  1  0  0  0  0
  9 10  1  0  0  0  0
  9 11  1  0  0  0  0
  9 27  1  0  0  0  0
  7  8  1  0  0  0  0
  7  9  1  0  0  0  0
 31 32  1  0  0  0  0
 31 33  1  0  0  0  0
 31 34  1  0  0  0  0
 29 30  1  0  0  0  0
 29 31  1  0  0  0  0
M  CHG  1  23   1
M  END
$$$$
default_name
  -OEChem-02102213163D

 34 33  0     1  0  0  0  0  0999 V2000
   -3.8899   -3.6747    1.6490 H   0  0  0  0  0  0  0  0  0  0  0  0
   -3.9109   -2.6717    1.2250 C   0  0  0  0  0  0  0  0  0  0  0  0
   -4.6009   -2.0517    1.7950 H   0  0  0  0  0  0  0  0  0  0  0  0
   -4.2309   -2.7237    0.1860 H   0  0  0  0  0  0  0  0  0  0  0  0
   -2.5229   -2.0787    1.2980 C   0  0  0  0  0  0  0  0  0  0  0  0
   -1.5999   -2.7227    1.7810 O   0  0  0  0  0  0  0  0  0  0  0  0
   -2.3659   -0.8447    0.8120 N   0  0  0  0  0  0  0  0  0  0  0  0
   -3.1749   -0.3807    0.4220 H   0  0  0  0  0  0  0  0  0  0  0  0
   -1.0919   -0.1077    0.8170 C   0  0  1  0  0  0  0  0  0  0  0  0
   -0.3571   -0.6901    0.2581 H   0  0  0  0  0  0  0  0  0  0  0  0
   -1.3037    1.2411    0.1040 C   0  0  0  0  0  0  0  0  0  0  0  0
   -2.3369    1.5567    0.2572 H   0  0  0  0  0  0  0  0  0  0  0  0
   -0.6490    1.9907    0.5526 H   0  0  0  0  0  0  0  0  0  0  0  0
   -1.0376    1.1764   -1.4078 C   0  0  0  0  0  0  0  0  0  0  0  0
   -0.1175    0.6214   -1.5954 H   0  0  0  0  0  0  0  0  0  0  0  0
   -1.8686    0.6650   -1.8975 H   0  0  0  0  0  0  0  0  0  0  0  0
   -0.8994    2.5911   -1.9872 C   0  0  0  0  0  0  0  0  0  0  0  0
   -1.8166    3.1491   -1.7845 H   0  0  0  0  0  0  0  0  0  0  0  0
   -0.0615    3.0947   -1.5009 H   0  0  0  0  0  0  0  0  0  0  0  0
   -0.6584    2.5288   -3.5007 C   0  0  0  0  0  0  0  0  0  0  0  0
    0.2593    1.9601   -3.6828 H   0  0  0  0  0  0  0  0  0  0  0  0
   -1.4874    1.9842   -3.9626 H   0  0  0  0  0  0  0  0  0  0  0  0
   -0.5445    3.8861   -4.0916 N   0  3  0  0  0  0  0  0  0  0  0  0
    0.2278    4.3913   -3.6755 H   0  0  0  0  0  0  0  0  0  0  0  0
   -0.3861    3.8276   -5.0898 H   0  0  0  0  0  0  0  0  0  0  0  0
   -1.3950    4.4137   -3.9333 H   0  0  0  0  0  0  0  0  0  0  0  0
   -0.5865    0.0771    2.2496 C   0  0  0  0  0  0  0  0  0  0  0  0
    0.5860   -0.1608    2.5143 O   0  0  0  0  0  0  0  0  0  0  0  0
   -1.4786    0.4656    3.1667 N   0  0  0  0  0  0  0  0  0  0  0  0
   -2.4139    0.6698    2.8558 H   0  0  0  0  0  0  0  0  0  0  0  0
   -1.1587    0.6908    4.5775 C   0  0  0  0  0  0  0  0  0  0  0  0
   -0.4270    1.4968    4.6656 H   0  0  0  0  0  0  0  0  0  0  0  0
   -2.0565    0.9649    5.1327 H   0  0  0  0  0  0  0  0  0  0  0  0
   -0.7281   -0.2137    5.0125 H   0  0  0  0  0  0  0  0  0  0  0  0
  5  6  2  0  0  0  0
  5  7  1  0  0  0  0
  2  3  1  0  0  0  0
  2  4  1  0  0  0  0
  2  5  1  0  0  0  0
  1  2  1  0  0  0  0
 27 28  2  0  0  0  0
 27 29  1  0  0  0  0
 23 24  1  0  0  0  0
 23 25  1  0  0  0  0
 23 26  1  0  0  0  0
 20 21  1  0  0  0  0
 20 22  1  0  0  0  0
 20 23  1  0  0  0  0
 17 18  1  0  0  0  0
 17 19  1  0  0  0  0
 17 20  1  0  0  0  0
 14 15  1  0  0  0  0
 14 16  1  0  0  0  0
 14 17  1  0  0  0  0
 11 12  1  0  0  0  0
 11 13  1  0  0  0  0
 11 14  1  0  0  0  0
  9 10  1  0  0  0  0
  9 11  1  0  0  0  0
  9 27  1  0  0  0  0
  7  8  1  0  0  0  0
  7  9  1  0  0  0  0
 31 32  1  0  0  0  0
 31 33  1  0  0  0  0
 31 34  1  0  0  0  0
 29 30  1  0  0  0  0
 29 31  1  0  0  0  0
M  CHG  1  23   1
M  END
$$$$
default_name
  -OEChem-02102213163D

 34 33  0     1  0  0  0  0  0999 V2000
   -3.8899   -3.6747    1.6490 H   0  0  0  0  0  0  0  0  0  0  0  0
   -3.9109   -2.6717    1.2250 C   0  0  0  0  0  0  0  0  0  0  0  0
   -4.6009   -2.0517    1.7950 H   0  0  0  0  0  0  0  0  0  0  0  0
   -4.2309   -2.7237    0.1860 H   0  0  0  0  0  0  0  0  0  0  0  0
   -2.5229   -2.0787    1.2980 C   0  0  0  0  0  0  0  0  0  0  0  0
   -1.5999   -2.7227    1.7810 O   0  0  0  0  0  0  0  0  0  0  0  0
   -2.3659   -0.8447    0.8120 N   0  0  0  0  0  0  0  0  0  0  0  0
   -3.1749   -0.3807    0.4220 H   0  0  0  0  0  0  0  0  0  0  0  0
   -1.0919   -0.1077    0.8170 C   0  0  1  0  0  0  0  0  0  0  0  0
   -0.3571   -0.6901    0.2581 H   0  0  0  0  0  0  0  0  0  0  0  0
   -1.3037    1.2411    0.1040 C   0  0  0  0  0  0  0  0  0  0  0  0
   -2.3369    1.5567    0.2572 H   0  0  0  0  0  0  0  0  0  0  0  0
   -0.6490    1.9907    0.5526 H   0  0  0  0  0  0  0  0  0  0  0  0
   -1.0376    1.1764   -1.4078 C   0  0  0  0  0  0  0  0  0  0  0  0
   -0.2860    0.4139   -1.6162 H   0  0  0  0  0  0  0  0  0  0  0  0
   -1.9631    0.9155   -1.9248 H   0  0  0  0  0  0  0  0  0  0  0  0
   -0.5343    2.5328   -1.9204 C   0  0  0  0  0  0  0  0  0  0  0  0
   -1.2827    3.2969   -1.6968 H   0  0  0  0  0  0  0  0  0  0  0  0
    0.3958    2.7847   -1.4072 H   0  0  0  0  0  0  0  0  0  0  0  0
   -0.2919    2.4770   -3.4339 C   0  0  0  0  0  0  0  0  0  0  0  0
    0.4538    1.7016   -3.6375 H   0  0  0  0  0  0  0  0  0  0  0  0
   -1.2244    2.1823   -3.9247 H   0  0  0  0  0  0  0  0  0  0  0  0
    0.1734    3.7848   -3.9609 N   0  3  0  0  0  0  0  0  0  0  0  0
    1.0418    4.0579   -3.5179 H   0  0  0  0  0  0  0  0  0  0  0  0
    0.3283    3.7312   -4.9599 H   0  0  0  0  0  0  0  0  0  0  0  0
   -0.5174    4.5044   -3.7827 H   0  0  0  0  0  0  0  0  0  0  0  0
   -0.5865    0.0771    2.2496 C   0  0  0  0  0  0  0  0  0  0  0  0
    0.5860   -0.1608    2.5143 O   0  0  0  0  0  0  0  0  0  0  0  0
   -1.4786    0.4656    3.1667 N   0  0  0  0  0  0  0  0  0  0  0  0
   -2.4139    0.6698    2.8558 H   0  0  0  0  0  0  0  0  0  0  0  0
   -1.1587    0.6908    4.5775 C   0  0  0  0  0  0  0  0  0  0  0  0
   -0.4270    1.4968    4.6656 H   0  0  0  0  0  0  0  0  0  0  0  0
   -2.0565    0.9649    5.1327 H   0  0  0  0  0  0  0  0  0  0  0  0
   -0.7281   -0.2137    5.0125 H   0  0  0  0  0  0  0  0  0  0  0  0
  5  6  2  0  0  0  0
  5  7  1  0  0  0  0
  2  3  1  0  0  0  0
  2  4  1  0  0  0  0
  2  5  1  0  0  0  0
  1  2  1  0  0  0  0
 27 28  2  0  0  0  0
 27 29  1  0  0  0  0
 23 24  1  0  0  0  0
 23 25  1  0  0  0  0
 23 26  1  0  0  0  0
 20 21  1  0  0  0  0
 20 22  1  0  0  0  0
 20 23  1  0  0  0  0
 17 18  1  0  0  0  0
 17 19  1  0  0  0  0
 17 20  1  0  0  0  0
 14 15  1  0  0  0  0
 14 16  1  0  0  0  0
 14 17  1  0  0  0  0
 11 12  1  0  0  0  0
 11 13  1  0  0  0  0
 11 14  1  0  0  0  0
  9 10  1  0  0  0  0
  9 11  1  0  0  0  0
  9 27  1  0  0  0  0
  7  8  1  0  0  0  0
  7  9  1  0  0  0  0
 31 32  1  0  0  0  0
 31 33  1  0  0  0  0
 31 34  1  0  0  0  0
 29 30  1  0  0  0  0
 29 31  1  0  0  0  0
M  CHG  1  23   1
M  END
$$$$
default_name
  -OEChem-02102213163D

 34 33  0     1  0  0  0  0  0999 V2000
   -3.8899   -3.6747    1.6490 H   0  0  0  0  0  0  0  0  0  0  0  0
   -3.9109   -2.6717    1.2250 C   0  0  0  0  0  0  0  0  0  0  0  0
   -4.6009   -2.0517    1.7950 H   0  0  0  0  0  0  0  0  0  0  0  0
   -4.2309   -2.7237    0.1860 H   0  0  0  0  0  0  0  0  0  0  0  0
   -2.5229   -2.0787    1.2980 C   0  0  0  0  0  0  0  0  0  0  0  0
   -1.5999   -2.7227    1.7810 O   0  0  0  0  0  0  0  0  0  0  0  0
   -2.3659   -0.8447    0.8120 N   0  0  0  0  0  0  0  0  0  0  0  0
   -3.1749   -0.3807    0.4220 H   0  0  0  0  0  0  0  0  0  0  0  0
   -1.0919   -0.1077    0.8170 C   0  0  1  0  0  0  0  0  0  0  0  0
   -0.3571   -0.6901    0.2581 H   0  0  0  0  0  0  0  0  0  0  0  0
   -1.3037    1.2411    0.1040 C   0  0  0  0  0  0  0  0  0  0  0  0
   -2.3369    1.5567    0.2572 H   0  0  0  0  0  0  0  0  0  0  0  0
   -0.6490    1.9907    0.5526 H   0  0  0  0  0  0  0  0  0  0  0  0
   -1.0376    1.1764   -1.4078 C   0  0  0  0  0  0  0  0  0  0  0  0
   -0.5014    0.2572   -1.6474 H   0  0  0  0  0  0  0  0  0  0  0  0
   -1.9903    1.1827   -1.9410 H   0  0  0  0  0  0  0  0  0  0  0  0
   -0.1973    2.3807   -1.8546 C   0  0  0  0  0  0  0  0  0  0  0  0
   -0.7302    3.2998   -1.5997 H   0  0  0  0  0  0  0  0  0  0  0  0
    0.7576    2.3645   -1.3255 H   0  0  0  0  0  0  0  0  0  0  0  0
    0.0482    2.3306   -3.3678 C   0  0  0  0  0  0  0  0  0  0  0  0
    0.5754    1.4003   -3.6033 H   0  0  0  0  0  0  0  0  0  0  0  0
   -0.9202    2.3050   -3.8765 H   0  0  0  0  0  0  0  0  0  0  0  0
    0.8397    3.4981   -3.8314 N   0  3  0  0  0  0  0  0  0  0  0  0
    1.7414    3.5214   -3.3718 H   0  0  0  0  0  0  0  0  0  0  0  0
    0.9925    3.4503   -4.8310 H   0  0  0  0  0  0  0  0  0  0  0  0
    0.3518    4.3617   -3.6236 H   0  0  0  0  0  0  0  0  0  0  0  0
   -0.5865    0.0771    2.2496 C   0  0  0  0  0  0  0  0  0  0  0  0
    0.5860   -0.1608    2.5143 O   0  0  0  0  0  0  0  0  0  0  0  0
   -1.4786    0.4656    3.1667 N   0  0  0  0  0  0  0  0  0  0  0  0
   -2.4139    0.6698    2.8558 H   0  0  0  0  0  0  0  0  0  0  0  0
   -1.1587    0.6908    4.5775 C   0  0  0  0  0  0  0  0  0  0  0  0
   -0.4270    1.4968    4.6656 H   0  0  0  0  0  0  0  0  0  0  0  0
   -2.0565    0.9649    5.1327 H   0  0  0  0  0  0  0  0  0  0  0  0
   -0.7281   -0.2137    5.0125 H   0  0  0  0  0  0  0  0  0  0  0  0
  5  6  2  0  0  0  0
  5  7  1  0  0  0  0
  2  3  1  0  0  0  0
  2  4  1  0  0  0  0
  2  5  1  0  0  0  0
  1  2  1  0  0  0  0
 27 28  2  0  0  0  0
 27 29  1  0  0  0  0
 23 24  1  0  0  0  0
 23 25  1  0  0  0  0
 23 26  1  0  0  0  0
 20 21  1  0  0  0  0
 20 22  1  0  0  0  0
 20 23  1  0  0  0  0
 17 18  1  0  0  0  0
 17 19  1  0  0  0  0
 17 20  1  0  0  0  0
 14 15  1  0  0  0  0
 14 16  1  0  0  0  0
 14 17  1  0  0  0  0
 11 12  1  0  0  0  0
 11 13  1  0  0  0  0
 11 14  1  0  0  0  0
  9 10  1  0  0  0  0
  9 11  1  0  0  0  0
  9 27  1  0  0  0  0
  7  8  1  0  0  0  0
  7  9  1  0  0  0  0
 31 32  1  0  0  0  0
 31 33  1  0  0  0  0
 31 34  1  0  0  0  0
 29 30  1  0  0  0  0
 29 31  1  0  0  0  0
M  CHG  1  23   1
M  END
$$$$
default_name
  -OEChem-02102213163D

 34 33  0     1  0  0  0  0  0999 V2000
   -3.8899   -3.6747    1.6490 H   0  0  0  0  0  0  0  0  0  0  0  0
   -3.9109   -2.6717    1.2250 C   0  0  0  0  0  0  0  0  0  0  0  0
   -4.6009   -2.0517    1.7950 H   0  0  0  0  0  0  0  0  0  0  0  0
   -4.2309   -2.7237    0.1860 H   0  0  0  0  0  0  0  0  0  0  0  0
   -2.5229   -2.0787    1.2980 C   0  0  0  0  0  0  0  0  0  0  0  0
   -1.5999   -2.7227    1.7810 O   0  0  0  0  0  0  0  0  0  0  0  0
   -2.3659   -0.8447    0.8120 N   0  0  0  0  0  0  0  0  0  0  0  0
   -3.1749   -0.3807    0.4220 H   0  0  0  0  0  0  0  0  0  0  0  0
   -1.0919   -0.1077    0.8170 C   0  0  1  0  0  0  0  0  0  0  0  0
   -0.3571   -0.6901    0.2581 H   0  0  0  0  0  0  0  0  0  0  0  0
   -1.3037    1.2411    0.1040 C   0  0  0  0  0  0  0  0  0  0  0  0
   -2.3369    1.5567    0.2572 H   0  0  0  0  0  0  0  0  0  0  0  0
   -0.6490    1.9907    0.5526 H   0  0  0  0  0  0  0  0  0  0  0  0
   -1.0376    1.1764   -1.4078 C   0  0  0  0  0  0  0  0  0  0  0  0
   -0.7490    0.1622   -1.6870 H   0  0  0  0  0  0  0  0  0  0  0  0
   -1.9483    1.4485   -1.9450 H   0  0  0  0  0  0  0  0  0  0  0  0
    0.0888    2.1449   -1.7942 C   0  0  0  0  0  0  0  0  0  0  0  0
   -0.1969    3.1576   -1.4997 H   0  0  0  0  0  0  0  0  0  0  0  0
    0.9992    1.8629   -1.2615 H   0  0  0  0  0  0  0  0  0  0  0  0
    0.3387    2.0996   -3.3068 C   0  0  0  0  0  0  0  0  0  0  0  0
    0.6157    1.0768   -3.5823 H   0  0  0  0  0  0  0  0  0  0  0  0
   -0.5958    2.3438   -3.8210 H   0  0  0  0  0  0  0  0  0  0  0  0
    1.4088    3.0458   -3.7118 N   0  3  0  0  0  0  0  0  0  0  0  0
    2.2790    2.8184   -3.2471 H   0  0  0  0  0  0  0  0  0  0  0  0
    1.5611    3.0041   -4.7118 H   0  0  0  0  0  0  0  0  0  0  0  0
    1.1533    3.9953   -3.4668 H   0  0  0  0  0  0  0  0  0  0  0  0
   -0.5865    0.0771    2.2496 C   0  0  0  0  0  0  0  0  0  0  0  0
    0.5860   -0.1608    2.5143 O   0  0  0  0  0  0  0  0  0  0  0  0
   -1.4786    0.4656    3.1667 N   0  0  0  0  0  0  0  0  0  0  0  0
   -2.4139    0.6698    2.8558 H   0  0  0  0  0  0  0  0  0  0  0  0
   -1.1587    0.6908    4.5775 C   0  0  0  0  0  0  0  0  0  0  0  0
   -0.4270    1.4968    4.6656 H   0  0  0  0  0  0  0  0  0  0  0  0
   -2.0565    0.9649    5.1327 H   0  0  0  0  0  0  0  0  0  0  0  0
   -0.7281   -0.2137    5.0125 H   0  0  0  0  0  0  0  0  0  0  0  0
  5  6  2  0  0  0  0
  5  7  1  0  0  0  0
  2  3  1  0  0  0  0
  2  4  1  0  0  0  0
  2  5  1  0  0  0  0
  1  2  1  0  0  0  0
 27 28  2  0  0  0  0
 27 29  1  0  0  0  0
 23 24  1  0  0  0  0
 23 25  1  0  0  0  0
 23 26  1  0  0  0  0
 20 21  1  0  0  0  0
 20 22  1  0  0  0  0
 20 23  1  0  0  0  0
 17 18  1  0  0  0  0
 17 19  1  0  0  0  0
 17 20  1  0  0  0  0
 14 15  1  0  0  0  0
 14 16  1  0  0  0  0
 14 17  1  0  0  0  0
 11 12  1  0  0  0  0
 11 13  1  0  0  0  0
 11 14  1  0  0  0  0
  9 10  1  0  0  0  0
  9 11  1  0  0  0  0
  9 27  1  0  0  0  0
  7  8  1  0  0  0  0
  7  9  1  0  0  0  0
 31 32  1  0  0  0  0
 31 33  1  0  0  0  0
 31 34  1  0  0  0  0
 29 30  1  0  0  0  0
 29 31  1  0  0  0  0
M  CHG  1  23   1
M  END
$$$$
default_name
  -OEChem-02102213163D

 34 33  0     1  0  0  0  0  0999 V2000
   -3.8899   -3.6747    1.6490 H   0  0  0  0  0  0  0  0  0  0  0  0
   -3.9109   -2.6717    1.2250 C   0  0  0  0  0  0  0  0  0  0  0  0
   -4.6009   -2.0517    1.7950 H   0  0  0  0  0  0  0  0  0  0  0  0
   -4.2309   -2.7237    0.1860 H   0  0  0  0  0  0  0  0  0  0  0  0
   -2.5229   -2.0787    1.2980 C   0  0  0  0  0  0  0  0  0  0  0  0
   -1.5999   -2.7227    1.7810 O   0  0  0  0  0  0  0  0  0  0  0  0
   -2.3659   -0.8447    0.8120 N   0  0  0  0  0  0  0  0  0  0  0  0
   -3.1749   -0.3807    0.4220 H   0  0  0  0  0  0  0  0  0  0  0  0
   -1.0919   -0.1077    0.8170 C   0  0  1  0  0  0  0  0  0  0  0  0
   -0.3571   -0.6901    0.2581 H   0  0  0  0  0  0  0  0  0  0  0  0
   -1.3037    1.2411    0.1040 C   0  0  0  0  0  0  0  0  0  0  0  0
   -2.3369    1.5567    0.2572 H   0  0  0  0  0  0  0  0  0  0  0  0
   -0.6490    1.9907    0.5526 H   0  0  0  0  0  0  0  0  0  0  0  0
   -1.0376    1.1764   -1.4078 C   0  0  0  0  0  0  0  0  0  0  0  0
   -1.0119    0.1352   -1.7321 H   0  0  0  0  0  0  0  0  0  0  0  0
   -1.8400    1.6947   -1.9364 H   0  0  0  0  0  0  0  0  0  0  0  0
    0.3044    1.8416   -1.7432 C   0  0  0  0  0  0  0  0  0  0  0  0
    0.2809    2.8798   -1.4038 H   0  0  0  0  0  0  0  0  0  0  0  0
    1.1041    1.3139   -1.2196 H   0  0  0  0  0  0  0  0  0  0  0  0
    0.5598    1.7998   -3.2551 C   0  0  0  0  0  0  0  0  0  0  0  0
    0.5720    0.7532   -3.5762 H   0  0  0  0  0  0  0  0  0  0  0  0
   -0.2730    2.2963   -3.7622 H   0  0  0  0  0  0  0  0  0  0  0  0
    1.8420    2.4586   -3.6105 N   0  3  0  0  0  0  0  0  0  0  0  0
    2.6178    1.9970   -3.1523 H   0  0  0  0  0  0  0  0  0  0  0  0
    1.9954    2.4229   -4.6105 H   0  0  0  0  0  0  0  0  0  0  0  0
    1.8324    3.4303   -3.3231 H   0  0  0  0  0  0  0  0  0  0  0  0
   -0.5865    0.0771    2.2496 C   0  0  0  0  0  0  0  0  0  0  0  0
    0.5860   -0.1608    2.5143 O   0  0  0  0  0  0  0  0  0  0  0  0
   -1.4786    0.4656    3.1667 N   0  0  0  0  0  0  0  0  0  0  0  0
   -2.4139    0.6698    2.8558 H   0  0  0  0  0  0  0  0  0  0  0  0
   -1.1587    0.6908    4.5775 C   0  0  0  0  0  0  0  0  0  0  0  0
   -0.4270    1.4968    4.6656 H   0  0  0  0  0  0  0  0  0  0  0  0
   -2.0565    0.9649    5.1327 H   0  0  0  0  0  0  0  0  0  0  0  0
   -0.7281   -0.2137    5.0125 H   0  0  0  0  0  0  0  0  0  0  0  0
  5  6  2  0  0  0  0
  5  7  1  0  0  0  0
  2  3  1  0  0  0  0
  2  4  1  0  0  0  0
  2  5  1  0  0  0  0
  1  2  1  0  0  0  0
 27 28  2  0  0  0  0
 27 29  1  0  0  0  0
 23 24  1  0  0  0  0
 23 25  1  0  0  0  0
 23 26  1  0  0  0  0
 20 21  1  0  0  0  0
 20 22  1  0  0  0  0
 20 23  1  0  0  0  0
 17 18  1  0  0  0  0
 17 19  1  0  0  0  0
 17 20  1  0  0  0  0
 14 15  1  0  0  0  0
 14 16  1  0  0  0  0
 14 17  1  0  0  0  0
 11 12  1  0  0  0  0
 11 13  1  0  0  0  0
 11 14  1  0  0  0  0
  9 10  1  0  0  0  0
  9 11  1  0  0  0  0
  9 27  1  0  0  0  0
  7  8  1  0  0  0  0
  7  9  1  0  0  0  0
 31 32  1  0  0  0  0
 31 33  1  0  0  0  0
 31 34  1  0  0  0  0
 29 30  1  0  0  0  0
 29 31  1  0  0  0  0
M  CHG  1  23   1
M  END
$$$$
default_name
  -OEChem-02102213163D

 34 33  0     1  0  0  0  0  0999 V2000
   -3.8899   -3.6747    1.6490 H   0  0  0  0  0  0  0  0  0  0  0  0
   -3.9109   -2.6717    1.2250 C   0  0  0  0  0  0  0  0  0  0  0  0
   -4.6009   -2.0517    1.7950 H   0  0  0  0  0  0  0  0  0  0  0  0
   -4.2309   -2.7237    0.1860 H   0  0  0  0  0  0  0  0  0  0  0  0
   -2.5229   -2.0787    1.2980 C   0  0  0  0  0  0  0  0  0  0  0  0
   -1.5999   -2.7227    1.7810 O   0  0  0  0  0  0  0  0  0  0  0  0
   -2.3659   -0.8447    0.8120 N   0  0  0  0  0  0  0  0  0  0  0  0
   -3.1749   -0.3807    0.4220 H   0  0  0  0  0  0  0  0  0  0  0  0
   -1.0919   -0.1077    0.8170 C   0  0  1  0  0  0  0  0  0  0  0  0
   -0.3571   -0.6901    0.2581 H   0  0  0  0  0  0  0  0  0  0  0  0
   -1.3037    1.2411    0.1040 C   0  0  0  0  0  0  0  0  0  0  0  0
   -2.3369    1.5567    0.2572 H   0  0  0  0  0  0  0  0  0  0  0  0
   -0.6490    1.9907    0.5526 H   0  0  0  0  0  0  0  0  0  0  0  0
   -1.0376    1.1764   -1.4078 C   0  0  0  0  0  0  0  0  0  0  0  0
   -1.2722    0.1782   -1.7797 H   0  0  0  0  0  0  0  0  0  0  0  0
   -1.6728    1.9046   -1.9160 H   0  0  0  0  0  0  0  0  0  0  0  0
    0.4349    1.4914   -1.7053 C   0  0  0  0  0  0  0  0  0  0  0  0
    0.6706    2.4856   -1.3183 H   0  0  0  0  0  0  0  0  0  0  0  0
    1.0651    0.7551   -1.2025 H   0  0  0  0  0  0  0  0  0  0  0  0
    0.6965    1.4516   -3.2161 C   0  0  0  0  0  0  0  0  0  0  0  0
    0.4473    0.4514   -3.5852 H   0  0  0  0  0  0  0  0  0  0  0  0
    0.0259    2.1655   -3.7039 H   0  0  0  0  0  0  0  0  0  0  0  0
    2.1099    1.7766   -3.5341 N   0  3  0  0  0  0  0  0  0  0  0  0
    2.7349    1.1129   -3.0939 H   0  0  0  0  0  0  0  0  0  0  0  0
    2.2658    1.7463   -4.5340 H   0  0  0  0  0  0  0  0  0  0  0  0
    2.3430    2.7052   -3.2022 H   0  0  0  0  0  0  0  0  0  0  0  0
   -0.5865    0.0771    2.2496 C   0  0  0  0  0  0  0  0  0  0  0  0
    0.5860   -0.1608    2.5143 O   0  0  0  0  0  0  0  0  0  0  0  0
   -1.4786    0.4656    3.1667 N   0  0  0  0  0  0  0  0  0  0  0  0
   -2.4139    0.6698    2.8558 H   0  0  0  0  0  0  0  0  0  0  0  0
   -1.1587    0.6908    4.5775 C   0  0  0  0  0  0  0  0  0  0  0  0
   -0.4270    1.4968    4.6656 H   0  0  0  0  0  0  0  0  0  0  0  0
   -2.0565    0.9649    5.1327 H   0  0  0  0  0  0  0  0  0  0  0  0
   -0.7281   -0.2137    5.0125 H   0  0  0  0  0  0  0  0  0  0  0  0
  5  6  2  0  0  0  0
  5  7  1  0  0  0  0
  2  3  1  0  0  0  0
  2  4  1  0  0  0  0
  2  5  1  0  0  0  0
  1  2  1  0  0  0  0
 27 28  2  0  0  0  0
 27 29  1  0  0  0  0
 23 24  1  0  0  0  0
 23 25  1  0  0  0  0
 23 26  1  0  0  0  0
 20 21  1  0  0  0  0
 20 22  1  0  0  0  0
 20 23  1  0  0  0  0
 17 18  1  0  0  0  0
 17 19  1  0  0  0  0
 17 20  1  0  0  0  0
 14 15  1  0  0  0  0
 14 16  1  0  0  0  0
 14 17  1  0  0  0  0
 11 12  1  0  0  0  0
 11 13  1  0  0  0  0
 11 14  1  0  0  0  0
  9 10  1  0  0  0  0
  9 11  1  0  0  0  0
  9 27  1  0  0  0  0
  7  8  1  0  0  0  0
  7  9  1  0  0  0  0
 31 32  1  0  0  0  0
 31 33  1  0  0  0  0
 31 34  1  0  0  0  0
 29 30  1  0  0  0  0
 29 31  1  0  0  0  0
M  CHG  1  23   1
M  END
$$$$
default_name
  -OEChem-02102213163D

 34 33  0     1  0  0  0  0  0999 V2000
   -3.8899   -3.6747    1.6490 H   0  0  0  0  0  0  0  0  0  0  0  0
   -3.9109   -2.6717    1.2250 C   0  0  0  0  0  0  0  0  0  0  0  0
   -4.6009   -2.0517    1.7950 H   0  0  0  0  0  0  0  0  0  0  0  0
   -4.2309   -2.7237    0.1860 H   0  0  0  0  0  0  0  0  0  0  0  0
   -2.5229   -2.0787    1.2980 C   0  0  0  0  0  0  0  0  0  0  0  0
   -1.5999   -2.7227    1.7810 O   0  0  0  0  0  0  0  0  0  0  0  0
   -2.3659   -0.8447    0.8120 N   0  0  0  0  0  0  0  0  0  0  0  0
   -3.1749   -0.3807    0.4220 H   0  0  0  0  0  0  0  0  0  0  0  0
   -1.0919   -0.1077    0.8170 C   0  0  1  0  0  0  0  0  0  0  0  0
   -0.3571   -0.6901    0.2581 H   0  0  0  0  0  0  0  0  0  0  0  0
   -1.3037    1.2411    0.1040 C   0  0  0  0  0  0  0  0  0  0  0  0
   -2.3369    1.5567    0.2572 H   0  0  0  0  0  0  0  0  0  0  0  0
   -0.6490    1.9907    0.5526 H   0  0  0  0  0  0  0  0  0  0  0  0
   -1.0376    1.1764   -1.4078 C   0  0  0  0  0  0  0  0  0  0  0  0
   -1.5122    0.2881   -1.8267 H   0  0  0  0  0  0  0  0  0  0  0  0
   -1.4580    2.0638   -1.8850 H   0  0  0  0  0  0  0  0  0  0  0  0
    0.4713    1.1182   -1.6829 C   0  0  0  0  0  0  0  0  0  0  0  0
    0.9458    2.0017   -1.2492 H   0  0  0  0  0  0  0  0  0  0  0  0
    0.8850    0.2245   -1.2115 H   0  0  0  0  0  0  0  0  0  0  0  0
    0.7394    1.0787   -3.1926 C   0  0  0  0  0  0  0  0  0  0  0  0
    0.2501    0.1920   -3.6088 H   0  0  0  0  0  0  0  0  0  0  0  0
    0.2807    1.9604   -3.6503 H   0  0  0  0  0  0  0  0  0  0  0  0
    2.1940    1.0461   -3.4881 N   0  3  0  0  0  0  0  0  0  0  0  0
    2.6222    0.2266   -3.0759 H   0  0  0  0  0  0  0  0  0  0  0  0
    2.3538    1.0206   -4.4875 H   0  0  0  0  0  0  0  0  0  0  0  0
    2.6502    1.8693   -3.1124 H   0  0  0  0  0  0  0  0  0  0  0  0
   -0.5865    0.0771    2.2496 C   0  0  0  0  0  0  0  0  0  0  0  0
    0.5860   -0.1608    2.5143 O   0  0  0  0  0  0  0  0  0  0  0  0
   -1.4786    0.4656    3.1667 N   0  0  0  0  0  0  0  0  0  0  0  0
   -2.4139    0.6698    2.8558 H   0  0  0  0  0  0  0  0  0  0  0  0
   -1.1587    0.6908    4.5775 C   0  0  0  0  0  0  0  0  0  0  0  0
   -0.4270    1.4968    4.6656 H   0  0  0  0  0  0  0  0  0  0  0  0
   -2.0565    0.9649    5.1327 H   0  0  0  0  0  0  0  0  0  0  0  0
   -0.7281   -0.2137    5.0125 H   0  0  0  0  0  0  0  0  0  0  0  0
  5  6  2  0  0  0  0
  5  7  1  0  0  0  0
  2  3  1  0  0  0  0
  2  4  1  0  0  0  0
  2  5  1  0  0  0  0
  1  2  1  0  0  0  0
 27 28  2  0  0  0  0
 27 29  1  0  0  0  0
 23 24  1  0  0  0  0
 23 25  1  0  0  0  0
 23 26  1  0  0  0  0
 20 21  1  0  0  0  0
 20 22  1  0  0  0  0
 20 23  1  0  0  0  0
 17 18  1  0  0  0  0
 17 19  1  0  0  0  0
 17 20  1  0  0  0  0
 14 15  1  0  0  0  0
 14 16  1  0  0  0  0
 14 17  1  0  0  0  0
 11 12  1  0  0  0  0
 11 13  1  0  0  0  0
 11 14  1  0  0  0  0
  9 10  1  0  0  0  0
  9 11  1  0  0  0  0
  9 27  1  0  0  0  0
  7  8  1  0  0  0  0
  7  9  1  0  0  0  0
 31 32  1  0  0  0  0
 31 33  1  0  0  0  0
 31 34  1  0  0  0  0
 29 30  1  0  0  0  0
 29 31  1  0  0  0  0
M  CHG  1  23   1
M  END
$$$$
default_name
  -OEChem-02102213163D

 34 33  0     1  0  0  0  0  0999 V2000
   -3.8899   -3.6747    1.6490 H   0  0  0  0  0  0  0  0  0  0  0  0
   -3.9109   -2.6717    1.2250 C   0  0  0  0  0  0  0  0  0  0  0  0
   -4.6009   -2.0517    1.7950 H   0  0  0  0  0  0  0  0  0  0  0  0
   -4.2309   -2.7237    0.1860 H   0  0  0  0  0  0  0  0  0  0  0  0
   -2.5229   -2.0787    1.2980 C   0  0  0  0  0  0  0  0  0  0  0  0
   -1.5999   -2.7227    1.7810 O   0  0  0  0  0  0  0  0  0  0  0  0
   -2.3659   -0.8447    0.8120 N   0  0  0  0  0  0  0  0  0  0  0  0
   -3.1749   -0.3807    0.4220 H   0  0  0  0  0  0  0  0  0  0  0  0
   -1.0919   -0.1077    0.8170 C   0  0  1  0  0  0  0  0  0  0  0  0
   -0.3571   -0.6901    0.2581 H   0  0  0  0  0  0  0  0  0  0  0  0
   -1.3037    1.2411    0.1040 C   0  0  0  0  0  0  0  0  0  0  0  0
   -2.3369    1.5567    0.2572 H   0  0  0  0  0  0  0  0  0  0  0  0
   -0.6490    1.9907    0.5526 H   0  0  0  0  0  0  0  0  0  0  0  0
   -1.0376    1.1764   -1.4078 C   0  0  0  0  0  0  0  0  0  0  0  0
   -1.7156    0.4575   -1.8697 H   0  0  0  0  0  0  0  0  0  0  0  0
   -1.2104    2.1615   -1.8456 H   0  0  0  0  0  0  0  0  0  0  0  0
    0.4112    0.7475   -1.6777 C   0  0  0  0  0  0  0  0  0  0  0  0
    1.0875    1.4612   -1.2011 H   0  0  0  0  0  0  0  0  0  0  0  0
    0.5760   -0.2418   -1.2460 H   0  0  0  0  0  0  0  0  0  0  0  0
    0.6856    0.7065   -3.1862 C   0  0  0  0  0  0  0  0  0  0  0  0
   -0.0061   -0.0072   -3.6454 H   0  0  0  0  0  0  0  0  0  0  0  0
    0.4741    1.6950   -3.6049 H   0  0  0  0  0  0  0  0  0  0  0  0
    2.0888    0.3170   -3.4754 N   0  3  0  0  0  0  0  0  0  0  0  0
    2.2875   -0.6017   -3.0994 H   0  0  0  0  0  0  0  0  0  0  0  0
    2.2535    0.2950   -4.4741 H   0  0  0  0  0  0  0  0  0  0  0  0
    2.7331    0.9796   -3.0598 H   0  0  0  0  0  0  0  0  0  0  0  0
   -0.5865    0.0771    2.2496 C   0  0  0  0  0  0  0  0  0  0  0  0
    0.5860   -0.1608    2.5143 O   0  0  0  0  0  0  0  0  0  0  0  0
   -1.4786    0.4656    3.1667 N   0  0  0  0  0  0  0  0  0  0  0  0
   -2.4139    0.6698    2.8558 H   0  0  0  0  0  0  0  0  0  0  0  0
   -1.1587    0.6908    4.5775 C   0  0  0  0  0  0  0  0  0  0  0  0
   -0.4270    1.4968    4.6656 H   0  0  0  0  0  0  0  0  0  0  0  0
   -2.0565    0.9649    5.1327 H   0  0  0  0  0  0  0  0  0  0  0  0
   -0.7281   -0.2137    5.0125 H   0  0  0  0  0  0  0  0  0  0  0  0
  5  6  2  0  0  0  0
  5  7  1  0  0  0  0
  2  3  1  0  0  0  0
  2  4  1  0  0  0  0
  2  5  1  0  0  0  0
  1  2  1  0  0  0  0
 27 28  2  0  0  0  0
 27 29  1  0  0  0  0
 23 24  1  0  0  0  0
 23 25  1  0  0  0  0
 23 26  1  0  0  0  0
 20 21  1  0  0  0  0
 20 22  1  0  0  0  0
 20 23  1  0  0  0  0
 17 18  1  0  0  0  0
 17 19  1  0  0  0  0
 17 20  1  0  0  0  0
 14 15  1  0  0  0  0
 14 16  1  0  0  0  0
 14 17  1  0  0  0  0
 11 12  1  0  0  0  0
 11 13  1  0  0  0  0
 11 14  1  0  0  0  0
  9 10  1  0  0  0  0
  9 11  1  0  0  0  0
  9 27  1  0  0  0  0
  7  8  1  0  0  0  0
  7  9  1  0  0  0  0
 31 32  1  0  0  0  0
 31 33  1  0  0  0  0
 31 34  1  0  0  0  0
 29 30  1  0  0  0  0
 29 31  1  0  0  0  0
M  CHG  1  23   1
M  END
$$$$
default_name
  -OEChem-02102213163D

 34 33  0     1  0  0  0  0  0999 V2000
   -3.8899   -3.6747    1.6490 H   0  0  0  0  0  0  0  0  0  0  0  0
   -3.9109   -2.6717    1.2250 C   0  0  0  0  0  0  0  0  0  0  0  0
   -4.6009   -2.0517    1.7950 H   0  0  0  0  0  0  0  0  0  0  0  0
   -4.2309   -2.7237    0.1860 H   0  0  0  0  0  0  0  0  0  0  0  0
   -2.5229   -2.0787    1.2980 C   0  0  0  0  0  0  0  0  0  0  0  0
   -1.5999   -2.7227    1.7810 O   0  0  0  0  0  0  0  0  0  0  0  0
   -2.3659   -0.8447    0.8120 N   0  0  0  0  0  0  0  0  0  0  0  0
   -3.1749   -0.3807    0.4220 H   0  0  0  0  0  0  0  0  0  0  0  0
   -1.0919   -0.1077    0.8170 C   0  0  1  0  0  0  0  0  0  0  0  0
   -0.3571   -0.6901    0.2581 H   0  0  0  0  0  0  0  0  0  0  0  0
   -1.3037    1.2411    0.1040 C   0  0  0  0  0  0  0  0  0  0  0  0
   -2.3369    1.5567    0.2572 H   0  0  0  0  0  0  0  0  0  0  0  0
   -0.6490    1.9907    0.5526 H   0  0  0  0  0  0  0  0  0  0  0  0
   -1.0376    1.1764   -1.4078 C   0  0  0  0  0  0  0  0  0  0  0  0
   -1.8684    0.6748   -1.9059 H   0  0  0  0  0  0  0  0  0  0  0  0
   -0.9467    2.1910   -1.8004 H   0  0  0  0  0  0  0  0  0  0  0  0
    0.2587    0.4044   -1.6898 C   0  0  0  0  0  0  0  0  0  0  0  0
    1.0863    0.9007   -1.1773 H   0  0  0  0  0  0  0  0  0  0  0  0
    0.1591   -0.6119   -1.3035 H   0  0  0  0  0  0  0  0  0  0  0  0
    0.5387    0.3604   -3.1972 C   0  0  0  0  0  0  0  0  0  0  0  0
   -0.3040   -0.1328   -3.6925 H   0  0  0  0  0  0  0  0  0  0  0  0
    0.5928    1.3874   -3.5709 H   0  0  0  0  0  0  0  0  0  0  0  0
    1.8013   -0.3610   -3.4970 N   0  3  0  0  0  0  0  0  0  0  0  0
    1.7534   -1.3154   -3.1628 H   0  0  0  0  0  0  0  0  0  0  0  0
    1.9717   -0.3808   -4.4948 H   0  0  0  0  0  0  0  0  0  0  0  0
    2.5860    0.0968   -3.0479 H   0  0  0  0  0  0  0  0  0  0  0  0
   -0.5865    0.0771    2.2496 C   0  0  0  0  0  0  0  0  0  0  0  0
    0.5860   -0.1608    2.5143 O   0  0  0  0  0  0  0  0  0  0  0  0
   -1.4786    0.4656    3.1667 N   0  0  0  0  0  0  0  0  0  0  0  0
   -2.4139    0.6698    2.8558 H   0  0  0  0  0  0  0  0  0  0  0  0
   -1.1587    0.6908    4.5775 C   0  0  0  0  0  0  0  0  0  0  0  0
   -0.4270    1.4968    4.6656 H   0  0  0  0  0  0  0  0  0  0  0  0
   -2.0565    0.9649    5.1327 H   0  0  0  0  0  0  0  0  0  0  0  0
   -0.7281   -0.2137    5.0125 H   0  0  0  0  0  0  0  0  0  0  0  0
  5  6  2  0  0  0  0
  5  7  1  0  0  0  0
  2  3  1  0  0  0  0
  2  4  1  0  0  0  0
  2  5  1  0  0  0  0
  1  2  1  0  0  0  0
 27 28  2  0  0  0  0
 27 29  1  0  0  0  0
 23 24  1  0  0  0  0
 23 25  1  0  0  0  0
 23 26  1  0  0  0  0
 20 21  1  0  0  0  0
 20 22  1  0  0  0  0
 20 23  1  0  0  0  0
 17 18  1  0  0  0  0
 17 19  1  0  0  0  0
 17 20  1  0  0  0  0
 14 15  1  0  0  0  0
 14 16  1  0  0  0  0
 14 17  1  0  0  0  0
 11 12  1  0  0  0  0
 11 13  1  0  0  0  0
 11 14  1  0  0  0  0
  9 10  1  0  0  0  0
  9 11  1  0  0  0  0
  9 27  1  0  0  0  0
  7  8  1  0  0  0  0
  7  9  1  0  0  0  0
 31 32  1  0  0  0  0
 31 33  1  0  0  0  0
 31 34  1  0  0  0  0
 29 30  1  0  0  0  0
 29 31  1  0  0  0  0
M  CHG  1  23   1
M  END
$$$$
default_name
  -OEChem-02102213163D

 34 33  0     1  0  0  0  0  0999 V2000
   -3.8899   -3.6747    1.6490 H   0  0  0  0  0  0  0  0  0  0  0  0
   -3.9109   -2.6717    1.2250 C   0  0  0  0  0  0  0  0  0  0  0  0
   -4.6009   -2.0517    1.7950 H   0  0  0  0  0  0  0  0  0  0  0  0
   -4.2309   -2.7237    0.1860 H   0  0  0  0  0  0  0  0  0  0  0  0
   -2.5229   -2.0787    1.2980 C   0  0  0  0  0  0  0  0  0  0  0  0
   -1.5999   -2.7227    1.7810 O   0  0  0  0  0  0  0  0  0  0  0  0
   -2.3659   -0.8447    0.8120 N   0  0  0  0  0  0  0  0  0  0  0  0
   -3.1749   -0.3807    0.4220 H   0  0  0  0  0  0  0  0  0  0  0  0
   -1.0919   -0.1077    0.8170 C   0  0  1  0  0  0  0  0  0  0  0  0
   -0.3571   -0.6901    0.2581 H   0  0  0  0  0  0  0  0  0  0  0  0
   -1.3037    1.2411    0.1040 C   0  0  0  0  0  0  0  0  0  0  0  0
   -2.3369    1.5567    0.2572 H   0  0  0  0  0  0  0  0  0  0  0  0
   -0.6490    1.9907    0.5526 H   0  0  0  0  0  0  0  0  0  0  0  0
   -1.0376    1.1764   -1.4078 C   0  0  0  0  0  0  0  0  0  0  0  0
   -1.9602    0.9253   -1.9328 H   0  0  0  0  0  0  0  0  0  0  0  0
   -0.6850    2.1504   -1.7526 H   0  0  0  0  0  0  0  0  0  0  0  0
    0.0242    0.1125   -1.7186 C   0  0  0  0  0  0  0  0  0  0  0  0
    0.9421    0.3587   -1.1795 H   0  0  0  0  0  0  0  0  0  0  0  0
   -0.3372   -0.8607   -1.3803 H   0  0  0  0  0  0  0  0  0  0  0  0
    0.3089    0.0640   -3.2250 C   0  0  0  0  0  0  0  0  0  0  0  0
   -0.6232   -0.1761   -3.7468 H   0  0  0  0  0  0  0  0  0  0  0  0
    0.6287    1.0585   -3.5505 H   0  0  0  0  0  0  0  0  0  0  0  0
    1.3512   -0.9417   -3.5514 N   0  3  0  0  0  0  0  0  0  0  0  0
    1.0565   -1.8659   -3.2620 H   0  0  0  0  0  0  0  0  0  0  0  0
    1.5275   -0.9610   -4.5482 H   0  0  0  0  0  0  0  0  0  0  0  0
    2.2189   -0.7190   -3.0776 H   0  0  0  0  0  0  0  0  0  0  0  0
   -0.5865    0.0771    2.2496 C   0  0  0  0  0  0  0  0  0  0  0  0
    0.5860   -0.1608    2.5143 O   0  0  0  0  0  0  0  0  0  0  0  0
   -1.4786    0.4656    3.1667 N   0  0  0  0  0  0  0  0  0  0  0  0
   -2.4139    0.6698    2.8558 H   0  0  0  0  0  0  0  0  0  0  0  0
   -1.1587    0.6908    4.5775 C   0  0  0  0  0  0  0  0  0  0  0  0
   -0.4270    1.4968    4.6656 H   0  0  0  0  0  0  0  0  0  0  0  0
   -2.0565    0.9649    5.1327 H   0  0  0  0  0  0  0  0  0  0  0  0
   -0.7281   -0.2137    5.0125 H   0  0  0  0  0  0  0  0  0  0  0  0
  5  6  2  0  0  0  0
  5  7  1  0  0  0  0
  2  3  1  0  0  0  0
  2  4  1  0  0  0  0
  2  5  1  0  0  0  0
  1  2  1  0  0  0  0
 27 28  2  0  0  0  0
 27 29  1  0  0  0  0
 23 24  1  0  0  0  0
 23 25  1  0  0  0  0
 23 26  1  0  0  0  0
 20 21  1  0  0  0  0
 20 22  1  0  0  0  0
 20 23  1  0  0  0  0
 17 18  1  0  0  0  0
 17 19  1  0  0  0  0
 17 20  1  0  0  0  0
 14 15  1  0  0  0  0
 14 16  1  0  0  0  0
 14 17  1  0  0  0  0
 11 12  1  0  0  0  0
 11 13  1  0  0  0  0
 11 14  1  0  0  0  0
  9 10  1  0  0  0  0
  9 11  1  0  0  0  0
  9 27  1  0  0  0  0
  7  8  1  0  0  0  0
  7  9  1  0  0  0  0
 31 32  1  0  0  0  0
 31 33  1  0  0  0  0
 31 34  1  0  0  0  0
 29 30  1  0  0  0  0
 29 31  1  0  0  0  0
M  CHG  1  23   1
M  END
$$$$
default_name
  -OEChem-02102213163D

 34 33  0     1  0  0  0  0  0999 V2000
   -3.8899   -3.6747    1.6490 H   0  0  0  0  0  0  0  0  0  0  0  0
   -3.9109   -2.6717    1.2250 C   0  0  0  0  0  0  0  0  0  0  0  0
   -4.6009   -2.0517    1.7950 H   0  0  0  0  0  0  0  0  0  0  0  0
   -4.2309   -2.7237    0.1860 H   0  0  0  0  0  0  0  0  0  0  0  0
   -2.5229   -2.0787    1.2980 C   0  0  0  0  0  0  0  0  0  0  0  0
   -1.5999   -2.7227    1.7810 O   0  0  0  0  0  0  0  0  0  0  0  0
   -2.3659   -0.8447    0.8120 N   0  0  0  0  0  0  0  0  0  0  0  0
   -3.1749   -0.3807    0.4220 H   0  0  0  0  0  0  0  0  0  0  0  0
   -1.0919   -0.1077    0.8170 C   0  0  1  0  0  0  0  0  0  0  0  0
   -0.3571   -0.6901    0.2581 H   0  0  0  0  0  0  0  0  0  0  0  0
   -1.3037    1.2411    0.1040 C   0  0  0  0  0  0  0  0  0  0  0  0
   -2.3369    1.5567    0.2572 H   0  0  0  0  0  0  0  0  0  0  0  0
   -0.6490    1.9907    0.5526 H   0  0  0  0  0  0  0  0  0  0  0  0
   -1.0376    1.1764   -1.4078 C   0  0  0  0  0  0  0  0  0  0  0  0
   -1.9849    1.1918   -1.9485 H   0  0  0  0  0  0  0  0  0  0  0  0
   -0.4431    2.0423   -1.7054 H   0  0  0  0  0  0  0  0  0  0  0  0
   -0.2764   -0.1085   -1.7621 C   0  0  0  0  0  0  0  0  0  0  0  0
    0.6648   -0.1281   -1.2075 H   0  0  0  0  0  0  0  0  0  0  0  0
   -0.8791   -0.9712   -1.4709 H   0  0  0  0  0  0  0  0  0  0  0  0
    0.0117   -0.1625   -3.2676 C   0  0  0  0  0  0  0  0  0  0  0  0
   -0.9419   -0.1342   -3.8047 H   0  0  0  0  0  0  0  0  0  0  0  0
    0.5794    0.7308   -3.5452 H   0  0  0  0  0  0  0  0  0  0  0  0
    0.7692   -1.3856   -3.6349 N   0  3  0  0  0  0  0  0  0  0  0  0
    0.2442   -2.2158   -3.3900 H   0  0  0  0  0  0  0  0  0  0  0  0
    0.9514   -1.4059   -4.6306 H   0  0  0  0  0  0  0  0  0  0  0  0
    1.6569   -1.4122   -3.1469 H   0  0  0  0  0  0  0  0  0  0  0  0
   -0.5865    0.0771    2.2496 C   0  0  0  0  0  0  0  0  0  0  0  0
    0.5860   -0.1608    2.5143 O   0  0  0  0  0  0  0  0  0  0  0  0
   -1.4786    0.4656    3.1667 N   0  0  0  0  0  0  0  0  0  0  0  0
   -2.4139    0.6698    2.8558 H   0  0  0  0  0  0  0  0  0  0  0  0
   -1.1587    0.6908    4.5775 C   0  0  0  0  0  0  0  0  0  0  0  0
   -0.4270    1.4968    4.6656 H   0  0  0  0  0  0  0  0  0  0  0  0
   -2.0565    0.9649    5.1327 H   0  0  0  0  0  0  0  0  0  0  0  0
   -0.7281   -0.2137    5.0125 H   0  0  0  0  0  0  0  0  0  0  0  0
  5  6  2  0  0  0  0
  5  7  1  0  0  0  0
  2  3  1  0  0  0  0
  2  4  1  0  0  0  0
  2  5  1  0  0  0  0
  1  2  1  0  0  0  0
 27 28  2  0  0  0  0
 27 29  1  0  0  0  0
 23 24  1  0  0  0  0
 23 25  1  0  0  0  0
 23 26  1  0  0  0  0
 20 21  1  0  0  0  0
 20 22  1  0  0  0  0
 20 23  1  0  0  0  0
 17 18  1  0  0  0  0
 17 19  1  0  0  0  0
 17 20  1  0  0  0  0
 14 15  1  0  0  0  0
 14 16  1  0  0  0  0
 14 17  1  0  0  0  0
 11 12  1  0  0  0  0
 11 13  1  0  0  0  0
 11 14  1  0  0  0  0
  9 10  1  0  0  0  0
  9 11  1  0  0  0  0
  9 27  1  0  0  0  0
  7  8  1  0  0  0  0
  7  9  1  0  0  0  0
 31 32  1  0  0  0  0
 31 33  1  0  0  0  0
 31 34  1  0  0  0  0
 29 30  1  0  0  0  0
 29 31  1  0  0  0  0
M  CHG  1  23   1
M  END
$$$$
default_name
  -OEChem-02102213163D

 34 33  0     1  0  0  0  0  0999 V2000
   -3.8899   -3.6747    1.6490 H   0  0  0  0  0  0  0  0  0  0  0  0
   -3.9109   -2.6717    1.2250 C   0  0  0  0  0  0  0  0  0  0  0  0
   -4.6009   -2.0517    1.7950 H   0  0  0  0  0  0  0  0  0  0  0  0
   -4.2309   -2.7237    0.1860 H   0  0  0  0  0  0  0  0  0  0  0  0
   -2.5229   -2.0787    1.2980 C   0  0  0  0  0  0  0  0  0  0  0  0
   -1.5999   -2.7227    1.7810 O   0  0  0  0  0  0  0  0  0  0  0  0
   -2.3659   -0.8447    0.8120 N   0  0  0  0  0  0  0  0  0  0  0  0
   -3.1749   -0.3807    0.4220 H   0  0  0  0  0  0  0  0  0  0  0  0
   -1.0919   -0.1077    0.8170 C   0  0  1  0  0  0  0  0  0  0  0  0
   -0.3571   -0.6901    0.2581 H   0  0  0  0  0  0  0  0  0  0  0  0
   -1.3037    1.2411    0.1040 C   0  0  0  0  0  0  0  0  0  0  0  0
   -2.3369    1.5567    0.2572 H   0  0  0  0  0  0  0  0  0  0  0  0
   -0.6490    1.9907    0.5526 H   0  0  0  0  0  0  0  0  0  0  0  0
   -1.0376    1.1764   -1.4078 C   0  0  0  0  0  0  0  0  0  0  0  0
   -1.9406    1.4562   -1.9521 H   0  0  0  0  0  0  0  0  0  0  0  0
   -0.2375    1.8743   -1.6621 H   0  0  0  0  0  0  0  0  0  0  0  0
   -0.6226   -0.2435   -1.8172 C   0  0  0  0  0  0  0  0  0  0  0  0
    0.2733   -0.5264   -1.2594 H   0  0  0  0  0  0  0  0  0  0  0  0
   -1.4297   -0.9358   -1.5694 H   0  0  0  0  0  0  0  0  0  0  0  0
   -0.3326   -0.3037   -3.3222 C   0  0  0  0  0  0  0  0  0  0  0  0
   -1.2385   -0.0099   -3.8622 H   0  0  0  0  0  0  0  0  0  0  0  0
    0.4482    0.4265   -3.5552 H   0  0  0  0  0  0  0  0  0  0  0  0
    0.0948   -1.6623   -3.7418 N   0  3  0  0  0  0  0  0  0  0  0  0
   -0.6281   -2.3411   -3.5382 H   0  0  0  0  0  0  0  0  0  0  0  0
    0.2825   -1.6852   -4.7364 H   0  0  0  0  0  0  0  0  0  0  0  0
    0.9383   -1.9356   -3.2510 H   0  0  0  0  0  0  0  0  0  0  0  0
   -0.5865    0.0771    2.2496 C   0  0  0  0  0  0  0  0  0  0  0  0
    0.5860   -0.1608    2.5143 O   0  0  0  0  0  0  0  0  0  0  0  0
   -1.4786    0.4656    3.1667 N   0  0  0  0  0  0  0  0  0  0  0  0
   -2.4139    0.6698    2.8558 H   0  0  0  0  0  0  0  0  0  0  0  0
   -1.1587    0.6908    4.5775 C   0  0  0  0  0  0  0  0  0  0  0  0
   -0.4270    1.4968    4.6656 H   0  0  0  0  0  0  0  0  0  0  0  0
   -2.0565    0.9649    5.1327 H   0  0  0  0  0  0  0  0  0  0  0  0
   -0.7281   -0.2137    5.0125 H   0  0  0  0  0  0  0  0  0  0  0  0
  5  6  2  0  0  0  0
  5  7  1  0  0  0  0
  2  3  1  0  0  0  0
  2  4  1  0  0  0  0
  2  5  1  0  0  0  0
  1  2  1  0  0  0  0
 27 28  2  0  0  0  0
 27 29  1  0  0  0  0
 23 24  1  0  0  0  0
 23 25  1  0  0  0  0
 23 26  1  0  0  0  0
 20 21  1  0  0  0  0
 20 22  1  0  0  0  0
 20 23  1  0  0  0  0
 17 18  1  0  0  0  0
 17 19  1  0  0  0  0
 17 20  1  0  0  0  0
 14 15  1  0  0  0  0
 14 16  1  0  0  0  0
 14 17  1  0  0  0  0
 11 12  1  0  0  0  0
 11 13  1  0  0  0  0
 11 14  1  0  0  0  0
  9 10  1  0  0  0  0
  9 11  1  0  0  0  0
  9 27  1  0  0  0  0
  7  8  1  0  0  0  0
  7  9  1  0  0  0  0
 31 32  1  0  0  0  0
 31 33  1  0  0  0  0
 31 34  1  0  0  0  0
 29 30  1  0  0  0  0
 29 31  1  0  0  0  0
M  CHG  1  23   1
M  END
$$$$
default_name
  -OEChem-02102213163D

 34 33  0     1  0  0  0  0  0999 V2000
   -3.8899   -3.6747    1.6490 H   0  0  0  0  0  0  0  0  0  0  0  0
   -3.9109   -2.6717    1.2250 C   0  0  0  0  0  0  0  0  0  0  0  0
   -4.6009   -2.0517    1.7950 H   0  0  0  0  0  0  0  0  0  0  0  0
   -4.2309   -2.7237    0.1860 H   0  0  0  0  0  0  0  0  0  0  0  0
   -2.5229   -2.0787    1.2980 C   0  0  0  0  0  0  0  0  0  0  0  0
   -1.5999   -2.7227    1.7810 O   0  0  0  0  0  0  0  0  0  0  0  0
   -2.3659   -0.8447    0.8120 N   0  0  0  0  0  0  0  0  0  0  0  0
   -3.1749   -0.3807    0.4220 H   0  0  0  0  0  0  0  0  0  0  0  0
   -1.0919   -0.1077    0.8170 C   0  0  1  0  0  0  0  0  0  0  0  0
   -0.3571   -0.6901    0.2581 H   0  0  0  0  0  0  0  0  0  0  0  0
   -1.3037    1.2411    0.1040 C   0  0  0  0  0  0  0  0  0  0  0  0
   -2.3369    1.5567    0.2572 H   0  0  0  0  0  0  0  0  0  0  0  0
   -0.6490    1.9907    0.5526 H   0  0  0  0  0  0  0  0  0  0  0  0
   -1.0376    1.1764   -1.4078 C   0  0  0  0  0  0  0  0  0  0  0  0
   -1.8305    1.7005   -1.9431 H   0  0  0  0  0  0  0  0  0  0  0  0
   -0.0821    1.6576   -1.6254 H   0  0  0  0  0  0  0  0  0  0  0  0
   -0.9907   -0.2832   -1.8803 C   0  0  0  0  0  0  0  0  0  0  0  0
   -0.2058   -0.8091   -1.3316 H   0  0  0  0  0  0  0  0  0  0  0  0
   -1.9514   -0.7570   -1.6688 H   0  0  0  0  0  0  0  0  0  0  0  0
   -0.7005   -0.3500   -3.3850 C   0  0  0  0  0  0  0  0  0  0  0  0
   -1.4927    0.1882   -3.9154 H   0  0  0  0  0  0  0  0  0  0  0  0
    0.2442    0.1665   -3.5800 H   0  0  0  0  0  0  0  0  0  0  0  0
   -0.6259   -1.7531   -3.8647 N   0  3  0  0  0  0  0  0  0  0  0  0
   -1.5010   -2.2334   -3.6964 H   0  0  0  0  0  0  0  0  0  0  0  0
   -0.4336   -1.7798   -4.8584 H   0  0  0  0  0  0  0  0  0  0  0  0
    0.1120   -2.2534   -3.3829 H   0  0  0  0  0  0  0  0  0  0  0  0
   -0.5865    0.0771    2.2496 C   0  0  0  0  0  0  0  0  0  0  0  0
    0.5860   -0.1608    2.5143 O   0  0  0  0  0  0  0  0  0  0  0  0
   -1.4786    0.4656    3.1667 N   0  0  0  0  0  0  0  0  0  0  0  0
   -2.4139    0.6698    2.8558 H   0  0  0  0  0  0  0  0  0  0  0  0
   -1.1587    0.6908    4.5775 C   0  0  0  0  0  0  0  0  0  0  0  0
   -0.4270    1.4968    4.6656 H   0  0  0  0  0  0  0  0  0  0  0  0
   -2.0565    0.9649    5.1327 H   0  0  0  0  0  0  0  0  0  0  0  0
   -0.7281   -0.2137    5.0125 H   0  0  0  0  0  0  0  0  0  0  0  0
  5  6  2  0  0  0  0
  5  7  1  0  0  0  0
  2  3  1  0  0  0  0
  2  4  1  0  0  0  0
  2  5  1  0  0  0  0
  1  2  1  0  0  0  0
 27 28  2  0  0  0  0
 27 29  1  0  0  0  0
 23 24  1  0  0  0  0
 23 25  1  0  0  0  0
 23 26  1  0  0  0  0
 20 21  1  0  0  0  0
 20 22  1  0  0  0  0
 20 23  1  0  0  0  0
 17 18  1  0  0  0  0
 17 19  1  0  0  0  0
 17 20  1  0  0  0  0
 14 15  1  0  0  0  0
 14 16  1  0  0  0  0
 14 17  1  0  0  0  0
 11 12  1  0  0  0  0
 11 13  1  0  0  0  0
 11 14  1  0  0  0  0
  9 10  1  0  0  0  0
  9 11  1  0  0  0  0
  9 27  1  0  0  0  0
  7  8  1  0  0  0  0
  7  9  1  0  0  0  0
 31 32  1  0  0  0  0
 31 33  1  0  0  0  0
 31 34  1  0  0  0  0
 29 30  1  0  0  0  0
 29 31  1  0  0  0  0
M  CHG  1  23   1
M  END
$$$$
default_name
  -OEChem-02102213163D

 34 33  0     1  0  0  0  0  0999 V2000
   -3.8899   -3.6747    1.6490 H   0  0  0  0  0  0  0  0  0  0  0  0
   -3.9109   -2.6717    1.2250 C   0  0  0  0  0  0  0  0  0  0  0  0
   -4.6009   -2.0517    1.7950 H   0  0  0  0  0  0  0  0  0  0  0  0
   -4.2309   -2.7237    0.1860 H   0  0  0  0  0  0  0  0  0  0  0  0
   -2.5229   -2.0787    1.2980 C   0  0  0  0  0  0  0  0  0  0  0  0
   -1.5999   -2.7227    1.7810 O   0  0  0  0  0  0  0  0  0  0  0  0
   -2.3659   -0.8447    0.8120 N   0  0  0  0  0  0  0  0  0  0  0  0
   -3.1749   -0.3807    0.4220 H   0  0  0  0  0  0  0  0  0  0  0  0
   -1.0919   -0.1077    0.8170 C   0  0  1  0  0  0  0  0  0  0  0  0
   -0.3571   -0.6901    0.2581 H   0  0  0  0  0  0  0  0  0  0  0  0
   -1.3037    1.2411    0.1040 C   0  0  0  0  0  0  0  0  0  0  0  0
   -2.3369    1.5567    0.2572 H   0  0  0  0  0  0  0  0  0  0  0  0
   -0.6490    1.9907    0.5526 H   0  0  0  0  0  0  0  0  0  0  0  0
   -1.0376    1.1764   -1.4078 C   0  0  0  0  0  0  0  0  0  0  0  0
   -1.6620    1.9081   -1.9223 H   0  0  0  0  0  0  0  0  0  0  0  0
    0.0123    1.4071   -1.5981 H   0  0  0  0  0  0  0  0  0  0  0  0
   -1.3558   -0.2250   -1.9471 C   0  0  0  0  0  0  0  0  0  0  0  0
   -0.7397   -0.9570   -1.4193 H   0  0  0  0  0  0  0  0  0  0  0  0
   -2.4088   -0.4470   -1.7626 H   0  0  0  0  0  0  0  0  0  0  0  0
   -1.0670   -0.2982   -3.4517 C   0  0  0  0  0  0  0  0  0  0  0  0
   -1.6872    0.4467   -3.9607 H   0  0  0  0  0  0  0  0  0  0  0  0
   -0.0189   -0.0316   -3.6179 H   0  0  0  0  0  0  0  0  0  0  0  0
   -1.3438   -1.6518   -3.9954 N   0  3  0  0  0  0  0  0  0  0  0  0
   -2.3150   -1.8999   -3.8540 H   0  0  0  0  0  0  0  0  0  0  0  0
   -1.1481   -1.6834   -4.9882 H   0  0  0  0  0  0  0  0  0  0  0  0
   -0.7657   -2.3440   -3.5335 H   0  0  0  0  0  0  0  0  0  0  0  0
   -0.5865    0.0771    2.2496 C   0  0  0  0  0  0  0  0  0  0  0  0
    0.5860   -0.1608    2.5143 O   0  0  0  0  0  0  0  0  0  0  0  0
   -1.4786    0.4656    3.1667 N   0  0  0  0  0  0  0  0  0  0  0  0
   -2.4139    0.6698    2.8558 H   0  0  0  0  0  0  0  0  0  0  0  0
   -1.1587    0.6908    4.5775 C   0  0  0  0  0  0  0  0  0  0  0  0
   -0.4270    1.4968    4.6656 H   0  0  0  0  0  0  0  0  0  0  0  0
   -2.0565    0.9649    5.1327 H   0  0  0  0  0  0  0  0  0  0  0  0
   -0.7281   -0.2137    5.0125 H   0  0  0  0  0  0  0  0  0  0  0  0
  5  6  2  0  0  0  0
  5  7  1  0  0  0  0
  2  3  1  0  0  0  0
  2  4  1  0  0  0  0
  2  5  1  0  0  0  0
  1  2  1  0  0  0  0
 27 28  2  0  0  0  0
 27 29  1  0  0  0  0
 23 24  1  0  0  0  0
 23 25  1  0  0  0  0
 23 26  1  0  0  0  0
 20 21  1  0  0  0  0
 20 22  1  0  0  0  0
 20 23  1  0  0  0  0
 17 18  1  0  0  0  0
 17 19  1  0  0  0  0
 17 20  1  0  0  0  0
 14 15  1  0  0  0  0
 14 16  1  0  0  0  0
 14 17  1  0  0  0  0
 11 12  1  0  0  0  0
 11 13  1  0  0  0  0
 11 14  1  0  0  0  0
  9 10  1  0  0  0  0
  9 11  1  0  0  0  0
  9 27  1  0  0  0  0
  7  8  1  0  0  0  0
  7  9  1  0  0  0  0
 31 32  1  0  0  0  0
 31 33  1  0  0  0  0
 31 34  1  0  0  0  0
 29 30  1  0  0  0  0
 29 31  1  0  0  0  0
M  CHG  1  23   1
M  END
$$$$
default_name
  -OEChem-02102213163D

 34 33  0     1  0  0  0  0  0999 V2000
   -3.8899   -3.6747    1.6490 H   0  0  0  0  0  0  0  0  0  0  0  0
   -3.9109   -2.6717    1.2250 C   0  0  0  0  0  0  0  0  0  0  0  0
   -4.6009   -2.0517    1.7950 H   0  0  0  0  0  0  0  0  0  0  0  0
   -4.2309   -2.7237    0.1860 H   0  0  0  0  0  0  0  0  0  0  0  0
   -2.5229   -2.0787    1.2980 C   0  0  0  0  0  0  0  0  0  0  0  0
   -1.5999   -2.7227    1.7810 O   0  0  0  0  0  0  0  0  0  0  0  0
   -2.3659   -0.8447    0.8120 N   0  0  0  0  0  0  0  0  0  0  0  0
   -3.1749   -0.3807    0.4220 H   0  0  0  0  0  0  0  0  0  0  0  0
   -1.0919   -0.1077    0.8170 C   0  0  1  0  0  0  0  0  0  0  0  0
   -0.3571   -0.6901    0.2581 H   0  0  0  0  0  0  0  0  0  0  0  0
   -1.3037    1.2411    0.1040 C   0  0  0  0  0  0  0  0  0  0  0  0
   -2.3369    1.5567    0.2572 H   0  0  0  0  0  0  0  0  0  0  0  0
   -0.6490    1.9907    0.5526 H   0  0  0  0  0  0  0  0  0  0  0  0
   -1.0376    1.1764   -1.4078 C   0  0  0  0  0  0  0  0  0  0  0  0
   -1.4466    2.0647   -1.8911 H   0  0  0  0  0  0  0  0  0  0  0  0
    0.0395    1.1398   -1.5819 H   0  0  0  0  0  0  0  0  0  0  0  0
   -1.6928   -0.0728   -2.0129 C   0  0  0  0  0  0  0  0  0  0  0  0
   -1.2921   -0.9598   -1.5164 H   0  0  0  0  0  0  0  0  0  0  0  0
   -2.7706   -0.0268   -1.8443 H   0  0  0  0  0  0  0  0  0  0  0  0
   -1.4071   -0.1518   -3.5178 C   0  0  0  0  0  0  0  0  0  0  0  0
   -1.8088    0.7480   -3.9950 H   0  0  0  0  0  0  0  0  0  0  0  0
   -0.3230   -0.1543   -3.6661 H   0  0  0  0  0  0  0  0  0  0  0  0
   -2.0101   -1.3652   -4.1250 N   0  3  0  0  0  0  0  0  0  0  0  0
   -3.0147   -1.3634   -4.0001 H   0  0  0  0  0  0  0  0  0  0  0  0
   -1.8123   -1.4025   -5.1172 H   0  0  0  0  0  0  0  0  0  0  0  0
   -1.6349   -2.2013   -3.6926 H   0  0  0  0  0  0  0  0  0  0  0  0
   -0.5865    0.0771    2.2496 C   0  0  0  0  0  0  0  0  0  0  0  0
    0.5860   -0.1608    2.5143 O   0  0  0  0  0  0  0  0  0  0  0  0
   -1.4786    0.4656    3.1667 N   0  0  0  0  0  0  0  0  0  0  0  0
   -2.4139    0.6698    2.8558 H   0  0  0  0  0  0  0  0  0  0  0  0
   -1.1587    0.6908    4.5775 C   0  0  0  0  0  0  0  0  0  0  0  0
   -0.4270    1.4968    4.6656 H   0  0  0  0  0  0  0  0  0  0  0  0
   -2.0565    0.9649    5.1327 H   0  0  0  0  0  0  0  0  0  0  0  0
   -0.7281   -0.2137    5.0125 H   0  0  0  0  0  0  0  0  0  0  0  0
  5  6  2  0  0  0  0
  5  7  1  0  0  0  0
  2  3  1  0  0  0  0
  2  4  1  0  0  0  0
  2  5  1  0  0  0  0
  1  2  1  0  0  0  0
 27 28  2  0  0  0  0
 27 29  1  0  0  0  0
 23 24  1  0  0  0  0
 23 25  1  0  0  0  0
 23 26  1  0  0  0  0
 20 21  1  0  0  0  0
 20 22  1  0  0  0  0
 20 23  1  0  0  0  0
 17 18  1  0  0  0  0
 17 19  1  0  0  0  0
 17 20  1  0  0  0  0
 14 15  1  0  0  0  0
 14 16  1  0  0  0  0
 14 17  1  0  0  0  0
 11 12  1  0  0  0  0
 11 13  1  0  0  0  0
 11 14  1  0  0  0  0
  9 10  1  0  0  0  0
  9 11  1  0  0  0  0
  9 27  1  0  0  0  0
  7  8  1  0  0  0  0
  7  9  1  0  0  0  0
 31 32  1  0  0  0  0
 31 33  1  0  0  0  0
 31 34  1  0  0  0  0
 29 30  1  0  0  0  0
 29 31  1  0  0  0  0
M  CHG  1  23   1
M  END
$$$$
default_name
  -OEChem-02102213163D

 34 33  0     1  0  0  0  0  0999 V2000
   -3.8899   -3.6747    1.6490 H   0  0  0  0  0  0  0  0  0  0  0  0
   -3.9109   -2.6717    1.2250 C   0  0  0  0  0  0  0  0  0  0  0  0
   -4.6009   -2.0517    1.7950 H   0  0  0  0  0  0  0  0  0  0  0  0
   -4.2309   -2.7237    0.1860 H   0  0  0  0  0  0  0  0  0  0  0  0
   -2.5229   -2.0787    1.2980 C   0  0  0  0  0  0  0  0  0  0  0  0
   -1.5999   -2.7227    1.7810 O   0  0  0  0  0  0  0  0  0  0  0  0
   -2.3659   -0.8447    0.8120 N   0  0  0  0  0  0  0  0  0  0  0  0
   -3.1749   -0.3807    0.4220 H   0  0  0  0  0  0  0  0  0  0  0  0
   -1.0919   -0.1077    0.8170 C   0  0  1  0  0  0  0  0  0  0  0  0
   -0.3571   -0.6901    0.2581 H   0  0  0  0  0  0  0  0  0  0  0  0
   -1.3037    1.2411    0.1040 C   0  0  0  0  0  0  0  0  0  0  0  0
   -2.3369    1.5567    0.2572 H   0  0  0  0  0  0  0  0  0  0  0  0
   -0.6490    1.9907    0.5526 H   0  0  0  0  0  0  0  0  0  0  0  0
   -1.0376    1.1764   -1.4078 C   0  0  0  0  0  0  0  0  0  0  0  0
   -1.1990    2.1597   -1.8516 H   0  0  0  0  0  0  0  0  0  0  0  0
   -0.0025    0.8741   -1.5779 H   0  0  0  0  0  0  0  0  0  0  0  0
   -1.9789    0.1630   -2.0734 C   0  0  0  0  0  0  0  0  0  0  0  0
   -1.8254   -0.8176   -1.6164 H   0  0  0  0  0  0  0  0  0  0  0  0
   -3.0121    0.4748   -1.9082 H   0  0  0  0  0  0  0  0  0  0  0  0
   -1.6976    0.0791   -3.5788 C   0  0  0  0  0  0  0  0  0  0  0  0
   -1.8491    1.0715   -4.0160 H   0  0  0  0  0  0  0  0  0  0  0  0
   -0.6475   -0.1932   -3.7216 H   0  0  0  0  0  0  0  0  0  0  0  0
   -2.5792   -0.9129   -4.2445 N   0  3  0  0  0  0  0  0  0  0  0  0
   -3.5522   -0.6605   -4.1248 H   0  0  0  0  0  0  0  0  0  0  0  0
   -2.3809   -0.9563   -5.2363 H   0  0  0  0  0  0  0  0  0  0  0  0
   -2.4363   -1.8350   -3.8493 H   0  0  0  0  0  0  0  0  0  0  0  0
   -0.5865    0.0771    2.2496 C   0  0  0  0  0  0  0  0  0  0  0  0
    0.5860   -0.1608    2.5143 O   0  0  0  0  0  0  0  0  0  0  0  0
   -1.4786    0.4656    3.1667 N   0  0  0  0  0  0  0  0  0  0  0  0
   -2.4139    0.6698    2.8558 H   0  0  0  0  0  0  0  0  0  0  0  0
   -1.1587    0.6908    4.5775 C   0  0  0  0  0  0  0  0  0  0  0  0
   -0.4270    1.4968    4.6656 H   0  0  0  0  0  0  0  0  0  0  0  0
   -2.0565    0.9649    5.1327 H   0  0  0  0  0  0  0  0  0  0  0  0
   -0.7281   -0.2137    5.0125 H   0  0  0  0  0  0  0  0  0  0  0  0
  5  6  2  0  0  0  0
  5  7  1  0  0  0  0
  2  3  1  0  0  0  0
  2  4  1  0  0  0  0
  2  5  1  0  0  0  0
  1  2  1  0  0  0  0
 27 28  2  0  0  0  0
 27 29  1  0  0  0  0
 23 24  1  0  0  0  0
 23 25  1  0  0  0  0
 23 26  1  0  0  0  0
 20 21  1  0  0  0  0
 20 22  1  0  0  0  0
 20 23  1  0  0  0  0
 17 18  1  0  0  0  0
 17 19  1  0  0  0  0
 17 20  1  0  0  0  0
 14 15  1  0  0  0  0
 14 16  1  0  0  0  0
 14 17  1  0  0  0  0
 11 12  1  0  0  0  0
 11 13  1  0  0  0  0
 11 14  1  0  0  0  0
  9 10  1  0  0  0  0
  9 11  1  0  0  0  0
  9 27  1  0  0  0  0
  7  8  1  0  0  0  0
  7  9  1  0  0  0  0
 31 32  1  0  0  0  0
 31 33  1  0  0  0  0
 31 34  1  0  0  0  0
 29 30  1  0  0  0  0
 29 31  1  0  0  0  0
M  CHG  1  23   1
M  END
$$$$
default_name
  -OEChem-02102213163D

 34 33  0     1  0  0  0  0  0999 V2000
   -3.8899   -3.6747    1.6490 H   0  0  0  0  0  0  0  0  0  0  0  0
   -3.9109   -2.6717    1.2250 C   0  0  0  0  0  0  0  0  0  0  0  0
   -4.6009   -2.0517    1.7950 H   0  0  0  0  0  0  0  0  0  0  0  0
   -4.2309   -2.7237    0.1860 H   0  0  0  0  0  0  0  0  0  0  0  0
   -2.5229   -2.0787    1.2980 C   0  0  0  0  0  0  0  0  0  0  0  0
   -1.5999   -2.7227    1.7810 O   0  0  0  0  0  0  0  0  0  0  0  0
   -2.3659   -0.8447    0.8120 N   0  0  0  0  0  0  0  0  0  0  0  0
   -3.1749   -0.3807    0.4220 H   0  0  0  0  0  0  0  0  0  0  0  0
   -1.0919   -0.1077    0.8170 C   0  0  1  0  0  0  0  0  0  0  0  0
   -0.3571   -0.6901    0.2581 H   0  0  0  0  0  0  0  0  0  0  0  0
   -1.3037    1.2411    0.1040 C   0  0  0  0  0  0  0  0  0  0  0  0
   -2.3369    1.5567    0.2572 H   0  0  0  0  0  0  0  0  0  0  0  0
   -0.6490    1.9907    0.5526 H   0  0  0  0  0  0  0  0  0  0  0  0
   -1.0376    1.1764   -1.4078 C   0  0  0  0  0  0  0  0  0  0  0  0
   -0.9361    2.1867   -1.8065 H   0  0  0  0  0  0  0  0  0  0  0  0
   -0.1108    0.6278   -1.5864 H   0  0  0  0  0  0  0  0  0  0  0  0
   -2.1945    0.4663   -2.1243 C   0  0  0  0  0  0  0  0  0  0  0  0
   -2.3032   -0.5399   -1.7124 H   0  0  0  0  0  0  0  0  0  0  0  0
   -3.1170    1.0237   -1.9502 H   0  0  0  0  0  0  0  0  0  0  0  0
   -1.9187    0.3789   -3.6306 C   0  0  0  0  0  0  0  0  0  0  0  0
   -1.8054    1.3951   -4.0221 H   0  0  0  0  0  0  0  0  0  0  0  0
   -0.9702   -0.1456   -3.7804 H   0  0  0  0  0  0  0  0  0  0  0  0
   -3.0124   -0.3257   -4.3459 N   0  3  0  0  0  0  0  0  0  0  0  0
   -3.8911    0.1610   -4.2195 H   0  0  0  0  0  0  0  0  0  0  0  0
   -2.8152   -0.3751   -5.3376 H   0  0  0  0  0  0  0  0  0  0  0  0
   -3.1155   -1.2700   -3.9931 H   0  0  0  0  0  0  0  0  0  0  0  0
   -0.5865    0.0771    2.2496 C   0  0  0  0  0  0  0  0  0  0  0  0
    0.5860   -0.1608    2.5143 O   0  0  0  0  0  0  0  0  0  0  0  0
   -1.4786    0.4656    3.1667 N   0  0  0  0  0  0  0  0  0  0  0  0
   -2.4139    0.6698    2.8558 H   0  0  0  0  0  0  0  0  0  0  0  0
   -1.1587    0.6908    4.5775 C   0  0  0  0  0  0  0  0  0  0  0  0
   -0.4270    1.4968    4.6656 H   0  0  0  0  0  0  0  0  0  0  0  0
   -2.0565    0.9649    5.1327 H   0  0  0  0  0  0  0  0  0  0  0  0
   -0.7281   -0.2137    5.0125 H   0  0  0  0  0  0  0  0  0  0  0  0
  5  6  2  0  0  0  0
  5  7  1  0  0  0  0
  2  3  1  0  0  0  0
  2  4  1  0  0  0  0
  2  5  1  0  0  0  0
  1  2  1  0  0  0  0
 27 28  2  0  0  0  0
 27 29  1  0  0  0  0
 23 24  1  0  0  0  0
 23 25  1  0  0  0  0
 23 26  1  0  0  0  0
 20 21  1  0  0  0  0
 20 22  1  0  0  0  0
 20 23  1  0  0  0  0
 17 18  1  0  0  0  0
 17 19  1  0  0  0  0
 17 20  1  0  0  0  0
 14 15  1  0  0  0  0
 14 16  1  0  0  0  0
 14 17  1  0  0  0  0
 11 12  1  0  0  0  0
 11 13  1  0  0  0  0
 11 14  1  0  0  0  0
  9 10  1  0  0  0  0
  9 11  1  0  0  0  0
  9 27  1  0  0  0  0
  7  8  1  0  0  0  0
  7  9  1  0  0  0  0
 31 32  1  0  0  0  0
 31 33  1  0  0  0  0
 31 34  1  0  0  0  0
 29 30  1  0  0  0  0
 29 31  1  0  0  0  0
M  CHG  1  23   1
M  END
$$$$
default_name
  -OEChem-02102213163D

 34 33  0     1  0  0  0  0  0999 V2000
   -3.8899   -3.6747    1.6490 H   0  0  0  0  0  0  0  0  0  0  0  0
   -3.9109   -2.6717    1.2250 C   0  0  0  0  0  0  0  0  0  0  0  0
   -4.6009   -2.0517    1.7950 H   0  0  0  0  0  0  0  0  0  0  0  0
   -4.2309   -2.7237    0.1860 H   0  0  0  0  0  0  0  0  0  0  0  0
   -2.5229   -2.0787    1.2980 C   0  0  0  0  0  0  0  0  0  0  0  0
   -1.5999   -2.7227    1.7810 O   0  0  0  0  0  0  0  0  0  0  0  0
   -2.3659   -0.8447    0.8120 N   0  0  0  0  0  0  0  0  0  0  0  0
   -3.1749   -0.3807    0.4220 H   0  0  0  0  0  0  0  0  0  0  0  0
   -1.0919   -0.1077    0.8170 C   0  0  1  0  0  0  0  0  0  0  0  0
   -0.3571   -0.6901    0.2581 H   0  0  0  0  0  0  0  0  0  0  0  0
   -1.3037    1.2411    0.1040 C   0  0  0  0  0  0  0  0  0  0  0  0
   -2.3369    1.5567    0.2572 H   0  0  0  0  0  0  0  0  0  0  0  0
   -0.6490    1.9907    0.5526 H   0  0  0  0  0  0  0  0  0  0  0  0
   -1.0376    1.1764   -1.4078 C   0  0  0  0  0  0  0  0  0  0  0  0
   -0.6758    2.1437   -1.7588 H   0  0  0  0  0  0  0  0  0  0  0  0
   -0.2780    0.4180   -1.6069 H   0  0  0  0  0  0  0  0  0  0  0  0
   -2.3250    0.8165   -2.1622 C   0  0  0  0  0  0  0  0  0  0  0  0
   -2.6930   -0.1456   -1.7978 H   0  0  0  0  0  0  0  0  0  0  0  0
   -3.0781    1.5826   -1.9672 H   0  0  0  0  0  0  0  0  0  0  0  0
   -2.0553    0.7272   -3.6695 C   0  0  0  0  0  0  0  0  0  0  0  0
   -1.6807    1.6969   -4.0131 H   0  0  0  0  0  0  0  0  0  0  0  0
   -1.2691   -0.0148   -3.8387 H   0  0  0  0  0  0  0  0  0  0  0  0
   -3.2803    0.3564   -4.4222 N   0  3  0  0  0  0  0  0  0  0  0  0
   -4.0082    1.0450   -4.2780 H   0  0  0  0  0  0  0  0  0  0  0  0
   -3.0856    0.3014   -5.4142 H   0  0  0  0  0  0  0  0  0  0  0  0
   -3.6261   -0.5448   -4.1139 H   0  0  0  0  0  0  0  0  0  0  0  0
   -0.5865    0.0771    2.2496 C   0  0  0  0  0  0  0  0  0  0  0  0
    0.5860   -0.1608    2.5143 O   0  0  0  0  0  0  0  0  0  0  0  0
   -1.4786    0.4656    3.1667 N   0  0  0  0  0  0  0  0  0  0  0  0
   -2.4139    0.6698    2.8558 H   0  0  0  0  0  0  0  0  0  0  0  0
   -1.1587    0.6908    4.5775 C   0  0  0  0  0  0  0  0  0  0  0  0
   -0.4270    1.4968    4.6656 H   0  0  0  0  0  0  0  0  0  0  0  0
   -2.0565    0.9649    5.1327 H   0  0  0  0  0  0  0  0  0  0  0  0
   -0.7281   -0.2137    5.0125 H   0  0  0  0  0  0  0  0  0  0  0  0
  5  6  2  0  0  0  0
  5  7  1  0  0  0  0
  2  3  1  0  0  0  0
  2  4  1  0  0  0  0
  2  5  1  0  0  0  0
  1  2  1  0  0  0  0
 27 28  2  0  0  0  0
 27 29  1  0  0  0  0
 23 24  1  0  0  0  0
 23 25  1  0  0  0  0
 23 26  1  0  0  0  0
 20 21  1  0  0  0  0
 20 22  1  0  0  0  0
 20 23  1  0  0  0  0
 17 18  1  0  0  0  0
 17 19  1  0  0  0  0
 17 20  1  0  0  0  0
 14 15  1  0  0  0  0
 14 16  1  0  0  0  0
 14 17  1  0  0  0  0
 11 12  1  0  0  0  0
 11 13  1  0  0  0  0
 11 14  1  0  0  0  0
  9 10  1  0  0  0  0
  9 11  1  0  0  0  0
  9 27  1  0  0  0  0
  7  8  1  0  0  0  0
  7  9  1  0  0  0  0
 31 32  1  0  0  0  0
 31 33  1  0  0  0  0
 31 34  1  0  0  0  0
 29 30  1  0  0  0  0
 29 31  1  0  0  0  0
M  CHG  1  23   1
M  END
$$$$
default_name
  -OEChem-02102213163D

 34 33  0     1  0  0  0  0  0999 V2000
   -3.8899   -3.6747    1.6490 H   0  0  0  0  0  0  0  0  0  0  0  0
   -3.9109   -2.6717    1.2250 C   0  0  0  0  0  0  0  0  0  0  0  0
   -4.6009   -2.0517    1.7950 H   0  0  0  0  0  0  0  0  0  0  0  0
   -4.2309   -2.7237    0.1860 H   0  0  0  0  0  0  0  0  0  0  0  0
   -2.5229   -2.0787    1.2980 C   0  0  0  0  0  0  0  0  0  0  0  0
   -1.5999   -2.7227    1.7810 O   0  0  0  0  0  0  0  0  0  0  0  0
   -2.3659   -0.8447    0.8120 N   0  0  0  0  0  0  0  0  0  0  0  0
   -3.1749   -0.3807    0.4220 H   0  0  0  0  0  0  0  0  0  0  0  0
   -1.0919   -0.1077    0.8170 C   0  0  1  0  0  0  0  0  0  0  0  0
   -0.3571   -0.6901    0.2581 H   0  0  0  0  0  0  0  0  0  0  0  0
   -1.3037    1.2411    0.1040 C   0  0  0  0  0  0  0  0  0  0  0  0
   -2.3369    1.5567    0.2572 H   0  0  0  0  0  0  0  0  0  0  0  0
   -0.6490    1.9907    0.5526 H   0  0  0  0  0  0  0  0  0  0  0  0
   -1.0376    1.1764   -1.4078 C   0  0  0  0  0  0  0  0  0  0  0  0
   -0.4358    2.0338   -1.7119 H   0  0  0  0  0  0  0  0  0  0  0  0
   -0.4928    0.2588   -1.6379 H   0  0  0  0  0  0  0  0  0  0  0  0
   -2.3614    1.1896   -2.1846 C   0  0  0  0  0  0  0  0  0  0  0  0
   -2.9681    0.3382   -1.8669 H   0  0  0  0  0  0  0  0  0  0  0  0
   -2.8980    2.1132   -1.9582 H   0  0  0  0  0  0  0  0  0  0  0  0
   -2.0982    1.1001   -3.6930 C   0  0  0  0  0  0  0  0  0  0  0  0
   -1.4836    1.9563   -3.9894 H   0  0  0  0  0  0  0  0  0  0  0  0
   -1.5240    0.1903   -3.8923 H   0  0  0  0  0  0  0  0  0  0  0  0
   -3.3644    1.0869   -4.4682 N   0  3  0  0  0  0  0  0  0  0  0  0
   -3.8955    1.9314   -4.2960 H   0  0  0  0  0  0  0  0  0  0  0  0
   -3.1736    1.0272   -5.4607 H   0  0  0  0  0  0  0  0  0  0  0  0
   -3.9333    0.2911   -4.2038 H   0  0  0  0  0  0  0  0  0  0  0  0
   -0.5865    0.0771    2.2496 C   0  0  0  0  0  0  0  0  0  0  0  0
    0.5860   -0.1608    2.5143 O   0  0  0  0  0  0  0  0  0  0  0  0
   -1.4786    0.4656    3.1667 N   0  0  0  0  0  0  0  0  0  0  0  0
   -2.4139    0.6698    2.8558 H   0  0  0  0  0  0  0  0  0  0  0  0
   -1.1587    0.6908    4.5775 C   0  0  0  0  0  0  0  0  0  0  0  0
   -0.4270    1.4968    4.6656 H   0  0  0  0  0  0  0  0  0  0  0  0
   -2.0565    0.9649    5.1327 H   0  0  0  0  0  0  0  0  0  0  0  0
   -0.7281   -0.2137    5.0125 H   0  0  0  0  0  0  0  0  0  0  0  0
  5  6  2  0  0  0  0
  5  7  1  0  0  0  0
  2  3  1  0  0  0  0
  2  4  1  0  0  0  0
  2  5  1  0  0  0  0
  1  2  1  0  0  0  0
 27 28  2  0  0  0  0
 27 29  1  0  0  0  0
 23 24  1  0  0  0  0
 23 25  1  0  0  0  0
 23 26  1  0  0  0  0
 20 21  1  0  0  0  0
 20 22  1  0  0  0  0
 20 23  1  0  0  0  0
 17 18  1  0  0  0  0
 17 19  1  0  0  0  0
 17 20  1  0  0  0  0
 14 15  1  0  0  0  0
 14 16  1  0  0  0  0
 14 17  1  0  0  0  0
 11 12  1  0  0  0  0
 11 13  1  0  0  0  0
 11 14  1  0  0  0  0
  9 10  1  0  0  0  0
  9 11  1  0  0  0  0
  9 27  1  0  0  0  0
  7  8  1  0  0  0  0
  7  9  1  0  0  0  0
 31 32  1  0  0  0  0
 31 33  1  0  0  0  0
 31 34  1  0  0  0  0
 29 30  1  0  0  0  0
 29 31  1  0  0  0  0
M  CHG  1  23   1
M  END
$$$$
default_name
  -OEChem-02102213163D

 34 33  0     1  0  0  0  0  0999 V2000
   -3.8899   -3.6747    1.6490 H   0  0  0  0  0  0  0  0  0  0  0  0
   -3.9109   -2.6717    1.2250 C   0  0  0  0  0  0  0  0  0  0  0  0
   -4.6009   -2.0517    1.7950 H   0  0  0  0  0  0  0  0  0  0  0  0
   -4.2309   -2.7237    0.1860 H   0  0  0  0  0  0  0  0  0  0  0  0
   -2.5229   -2.0787    1.2980 C   0  0  0  0  0  0  0  0  0  0  0  0
   -1.5999   -2.7227    1.7810 O   0  0  0  0  0  0  0  0  0  0  0  0
   -2.3659   -0.8447    0.8120 N   0  0  0  0  0  0  0  0  0  0  0  0
   -3.1749   -0.3807    0.4220 H   0  0  0  0  0  0  0  0  0  0  0  0
   -1.0919   -0.1077    0.8170 C   0  0  1  0  0  0  0  0  0  0  0  0
   -0.3571   -0.6901    0.2581 H   0  0  0  0  0  0  0  0  0  0  0  0
   -1.3037    1.2411    0.1040 C   0  0  0  0  0  0  0  0  0  0  0  0
   -2.3369    1.5567    0.2572 H   0  0  0  0  0  0  0  0  0  0  0  0
   -0.6490    1.9907    0.5526 H   0  0  0  0  0  0  0  0  0  0  0  0
   -1.0376    1.1764   -1.4078 C   0  0  0  0  0  0  0  0  0  0  0  0
   -0.2324    1.8644   -1.6688 H   0  0  0  0  0  0  0  0  0  0  0  0
   -0.7404    0.1611   -1.6773 H   0  0  0  0  0  0  0  0  0  0  0  0
   -2.3013    1.5604   -2.1899 C   0  0  0  0  0  0  0  0  0  0  0  0
   -3.1099    0.8788   -1.9150 H   0  0  0  0  0  0  0  0  0  0  0  0
   -2.5889    2.5795   -1.9238 H   0  0  0  0  0  0  0  0  0  0  0  0
   -2.0444    1.4723   -3.6994 C   0  0  0  0  0  0  0  0  0  0  0  0
   -1.2273    2.1555   -3.9529 H   0  0  0  0  0  0  0  0  0  0  0  0
   -1.7173    0.4557   -3.9377 H   0  0  0  0  0  0  0  0  0  0  0  0
   -3.2592    1.8160   -4.4809 N   0  3  0  0  0  0  0  0  0  0  0  0
   -3.5607    2.7596   -4.2725 H   0  0  0  0  0  0  0  0  0  0  0  0
   -3.0733    1.7528   -5.4741 H   0  0  0  0  0  0  0  0  0  0  0  0
   -4.0161    1.1807   -4.2564 H   0  0  0  0  0  0  0  0  0  0  0  0
   -0.5865    0.0771    2.2496 C   0  0  0  0  0  0  0  0  0  0  0  0
    0.5860   -0.1608    2.5143 O   0  0  0  0  0  0  0  0  0  0  0  0
   -1.4786    0.4656    3.1667 N   0  0  0  0  0  0  0  0  0  0  0  0
   -2.4139    0.6698    2.8558 H   0  0  0  0  0  0  0  0  0  0  0  0
   -1.1587    0.6908    4.5775 C   0  0  0  0  0  0  0  0  0  0  0  0
   -0.4270    1.4968    4.6656 H   0  0  0  0  0  0  0  0  0  0  0  0
   -2.0565    0.9649    5.1327 H   0  0  0  0  0  0  0  0  0  0  0  0
   -0.7281   -0.2137    5.0125 H   0  0  0  0  0  0  0  0  0  0  0  0
  5  6  2  0  0  0  0
  5  7  1  0  0  0  0
  2  3  1  0  0  0  0
  2  4  1  0  0  0  0
  2  5  1  0  0  0  0
  1  2  1  0  0  0  0
 27 28  2  0  0  0  0
 27 29  1  0  0  0  0
 23 24  1  0  0  0  0
 23 25  1  0  0  0  0
 23 26  1  0  0  0  0
 20 21  1  0  0  0  0
 20 22  1  0  0  0  0
 20 23  1  0  0  0  0
 17 18  1  0  0  0  0
 17 19  1  0  0  0  0
 17 20  1  0  0  0  0
 14 15  1  0  0  0  0
 14 16  1  0  0  0  0
 14 17  1  0  0  0  0
 11 12  1  0  0  0  0
 11 13  1  0  0  0  0
 11 14  1  0  0  0  0
  9 10  1  0  0  0  0
  9 11  1  0  0  0  0
  9 27  1  0  0  0  0
  7  8  1  0  0  0  0
  7  9  1  0  0  0  0
 31 32  1  0  0  0  0
 31 33  1  0  0  0  0
 31 34  1  0  0  0  0
 29 30  1  0  0  0  0
 29 31  1  0  0  0  0
M  CHG  1  23   1
M  END
$$$$
default_name
  -OEChem-02102213163D

 34 33  0     1  0  0  0  0  0999 V2000
   -3.8899   -3.6747    1.6490 H   0  0  0  0  0  0  0  0  0  0  0  0
   -3.9109   -2.6717    1.2250 C   0  0  0  0  0  0  0  0  0  0  0  0
   -4.6009   -2.0517    1.7950 H   0  0  0  0  0  0  0  0  0  0  0  0
   -4.2309   -2.7237    0.1860 H   0  0  0  0  0  0  0  0  0  0  0  0
   -2.5229   -2.0787    1.2980 C   0  0  0  0  0  0  0  0  0  0  0  0
   -1.5999   -2.7227    1.7810 O   0  0  0  0  0  0  0  0  0  0  0  0
   -2.3659   -0.8447    0.8120 N   0  0  0  0  0  0  0  0  0  0  0  0
   -3.1749   -0.3807    0.4220 H   0  0  0  0  0  0  0  0  0  0  0  0
   -1.0919   -0.1077    0.8170 C   0  0  1  0  0  0  0  0  0  0  0  0
   -0.3571   -0.6901    0.2581 H   0  0  0  0  0  0  0  0  0  0  0  0
   -1.3037    1.2411    0.1040 C   0  0  0  0  0  0  0  0  0  0  0  0
   -2.3369    1.5567    0.2572 H   0  0  0  0  0  0  0  0  0  0  0  0
   -0.6490    1.9907    0.5526 H   0  0  0  0  0  0  0  0  0  0  0  0
   -1.0376    1.1764   -1.4078 C   0  0  0  0  0  0  0  0  0  0  0  0
   -0.0796    1.6471   -1.6326 H   0  0  0  0  0  0  0  0  0  0  0  0
   -1.0040    0.1315   -1.7225 H   0  0  0  0  0  0  0  0  0  0  0  0
   -2.1488    1.9034   -2.1777 C   0  0  0  0  0  0  0  0  0  0  0  0
   -3.1087    1.4392   -1.9388 H   0  0  0  0  0  0  0  0  0  0  0  0
   -2.1721    2.9496   -1.8662 H   0  0  0  0  0  0  0  0  0  0  0  0
   -1.8976    1.8183   -3.6884 C   0  0  0  0  0  0  0  0  0  0  0  0
   -0.9294    2.2810   -3.9058 H   0  0  0  0  0  0  0  0  0  0  0  0
   -1.8360    0.7633   -3.9717 H   0  0  0  0  0  0  0  0  0  0  0  0
   -2.9717    2.4940   -4.4593 N   0  3  0  0  0  0  0  0  0  0  0  0
   -3.0267    3.4733   -4.2091 H   0  0  0  0  0  0  0  0  0  0  0  0
   -2.7915    2.4286   -5.4534 H   0  0  0  0  0  0  0  0  0  0  0  0
   -3.8690    2.0636   -4.2683 H   0  0  0  0  0  0  0  0  0  0  0  0
   -0.5865    0.0771    2.2496 C   0  0  0  0  0  0  0  0  0  0  0  0
    0.5860   -0.1608    2.5143 O   0  0  0  0  0  0  0  0  0  0  0  0
   -1.4786    0.4656    3.1667 N   0  0  0  0  0  0  0  0  0  0  0  0
   -2.4139    0.6698    2.8558 H   0  0  0  0  0  0  0  0  0  0  0  0
   -1.1587    0.6908    4.5775 C   0  0  0  0  0  0  0  0  0  0  0  0
   -0.4270    1.4968    4.6656 H   0  0  0  0  0  0  0  0  0  0  0  0
   -2.0565    0.9649    5.1327 H   0  0  0  0  0  0  0  0  0  0  0  0
   -0.7281   -0.2137    5.0125 H   0  0  0  0  0  0  0  0  0  0  0  0
  5  6  2  0  0  0  0
  5  7  1  0  0  0  0
  2  3  1  0  0  0  0
  2  4  1  0  0  0  0
  2  5  1  0  0  0  0
  1  2  1  0  0  0  0
 27 28  2  0  0  0  0
 27 29  1  0  0  0  0
 23 24  1  0  0  0  0
 23 25  1  0  0  0  0
 23 26  1  0  0  0  0
 20 21  1  0  0  0  0
 20 22  1  0  0  0  0
 20 23  1  0  0  0  0
 17 18  1  0  0  0  0
 17 19  1  0  0  0  0
 17 20  1  0  0  0  0
 14 15  1  0  0  0  0
 14 16  1  0  0  0  0
 14 17  1  0  0  0  0
 11 12  1  0  0  0  0
 11 13  1  0  0  0  0
 11 14  1  0  0  0  0
  9 10  1  0  0  0  0
  9 11  1  0  0  0  0
  9 27  1  0  0  0  0
  7  8  1  0  0  0  0
  7  9  1  0  0  0  0
 31 32  1  0  0  0  0
 31 33  1  0  0  0  0
 31 34  1  0  0  0  0
 29 30  1  0  0  0  0
 29 31  1  0  0  0  0
M  CHG  1  23   1
M  END
$$$$
default_name
  -OEChem-02102213163D

 34 33  0     1  0  0  0  0  0999 V2000
   -3.8899   -3.6747    1.6490 H   0  0  0  0  0  0  0  0  0  0  0  0
   -3.9109   -2.6717    1.2250 C   0  0  0  0  0  0  0  0  0  0  0  0
   -4.6009   -2.0517    1.7950 H   0  0  0  0  0  0  0  0  0  0  0  0
   -4.2309   -2.7237    0.1860 H   0  0  0  0  0  0  0  0  0  0  0  0
   -2.5229   -2.0787    1.2980 C   0  0  0  0  0  0  0  0  0  0  0  0
   -1.5999   -2.7227    1.7810 O   0  0  0  0  0  0  0  0  0  0  0  0
   -2.3659   -0.8447    0.8120 N   0  0  0  0  0  0  0  0  0  0  0  0
   -3.1749   -0.3807    0.4220 H   0  0  0  0  0  0  0  0  0  0  0  0
   -1.0919   -0.1077    0.8170 C   0  0  1  0  0  0  0  0  0  0  0  0
   -0.3571   -0.6901    0.2581 H   0  0  0  0  0  0  0  0  0  0  0  0
   -1.3037    1.2411    0.1040 C   0  0  0  0  0  0  0  0  0  0  0  0
   -2.3369    1.5567    0.2572 H   0  0  0  0  0  0  0  0  0  0  0  0
   -0.6490    1.9907    0.5526 H   0  0  0  0  0  0  0  0  0  0  0  0
   -1.0376    1.1764   -1.4078 C   0  0  0  0  0  0  0  0  0  0  0  0
    0.0122    1.3966   -1.6058 H   0  0  0  0  0  0  0  0  0  0  0  0
   -1.2657    0.1722   -1.7703 H   0  0  0  0  0  0  0  0  0  0  0  0
   -1.9143    2.1954   -2.1489 C   0  0  0  0  0  0  0  0  0  0  0  0
   -2.9645    1.9813   -1.9366 H   0  0  0  0  0  0  0  0  0  0  0  0
   -1.6758    3.1984   -1.7895 H   0  0  0  0  0  0  0  0  0  0  0  0
   -1.6678    2.1148   -3.6606 C   0  0  0  0  0  0  0  0  0  0  0  0
   -0.6102    2.3243   -3.8515 H   0  0  0  0  0  0  0  0  0  0  0  0
   -1.8719    1.0922   -3.9921 H   0  0  0  0  0  0  0  0  0  0  0  0
   -2.5216    3.0747   -4.4049 N   0  3  0  0  0  0  0  0  0  0  0  0
   -2.3298    4.0239   -4.1099 H   0  0  0  0  0  0  0  0  0  0  0  0
   -2.3473    3.0088   -5.4000 H   0  0  0  0  0  0  0  0  0  0  0  0
   -3.5020    2.8794   -4.2385 H   0  0  0  0  0  0  0  0  0  0  0  0
   -0.5865    0.0771    2.2496 C   0  0  0  0  0  0  0  0  0  0  0  0
    0.5860   -0.1608    2.5143 O   0  0  0  0  0  0  0  0  0  0  0  0
   -1.4786    0.4656    3.1667 N   0  0  0  0  0  0  0  0  0  0  0  0
   -2.4139    0.6698    2.8558 H   0  0  0  0  0  0  0  0  0  0  0  0
   -1.1587    0.6908    4.5775 C   0  0  0  0  0  0  0  0  0  0  0  0
   -0.4270    1.4968    4.6656 H   0  0  0  0  0  0  0  0  0  0  0  0
   -2.0565    0.9649    5.1327 H   0  0  0  0  0  0  0  0  0  0  0  0
   -0.7281   -0.2137    5.0125 H   0  0  0  0  0  0  0  0  0  0  0  0
  5  6  2  0  0  0  0
  5  7  1  0  0  0  0
  2  3  1  0  0  0  0
  2  4  1  0  0  0  0
  2  5  1  0  0  0  0
  1  2  1  0  0  0  0
 27 28  2  0  0  0  0
 27 29  1  0  0  0  0
 23 24  1  0  0  0  0
 23 25  1  0  0  0  0
 23 26  1  0  0  0  0
 20 21  1  0  0  0  0
 20 22  1  0  0  0  0
 20 23  1  0  0  0  0
 17 18  1  0  0  0  0
 17 19  1  0  0  0  0
 17 20  1  0  0  0  0
 14 15  1  0  0  0  0
 14 16  1  0  0  0  0
 14 17  1  0  0  0  0
 11 12  1  0  0  0  0
 11 13  1  0  0  0  0
 11 14  1  0  0  0  0
  9 10  1  0  0  0  0
  9 11  1  0  0  0  0
  9 27  1  0  0  0  0
  7  8  1  0  0  0  0
  7  9  1  0  0  0  0
 31 32  1  0  0  0  0
 31 33  1  0  0  0  0
 31 34  1  0  0  0  0
 29 30  1  0  0  0  0
 29 31  1  0  0  0  0
M  CHG  1  23   1
M  END
$$$$
default_name
  -OEChem-02102213163D

 34 33  0     1  0  0  0  0  0999 V2000
   -3.8899   -3.6747    1.6490 H   0  0  0  0  0  0  0  0  0  0  0  0
   -3.9109   -2.6717    1.2250 C   0  0  0  0  0  0  0  0  0  0  0  0
   -4.6009   -2.0517    1.7950 H   0  0  0  0  0  0  0  0  0  0  0  0
   -4.2309   -2.7237    0.1860 H   0  0  0  0  0  0  0  0  0  0  0  0
   -2.5229   -2.0787    1.2980 C   0  0  0  0  0  0  0  0  0  0  0  0
   -1.5999   -2.7227    1.7810 O   0  0  0  0  0  0  0  0  0  0  0  0
   -2.3659   -0.8447    0.8120 N   0  0  0  0  0  0  0  0  0  0  0  0
   -3.1749   -0.3807    0.4220 H   0  0  0  0  0  0  0  0  0  0  0  0
   -1.0919   -0.1077    0.8170 C   0  0  1  0  0  0  0  0  0  0  0  0
   -0.3571   -0.6901    0.2581 H   0  0  0  0  0  0  0  0  0  0  0  0
   -1.3037    1.2411    0.1040 C   0  0  0  0  0  0  0  0  0  0  0  0
   -2.3369    1.5567    0.2572 H   0  0  0  0  0  0  0  0  0  0  0  0
   -0.6490    1.9907    0.5526 H   0  0  0  0  0  0  0  0  0  0  0  0
   -1.0376    1.1764   -1.4078 C   0  0  0  0  0  0  0  0  0  0  0  0
    0.0368    1.1301   -1.5900 H   0  0  0  0  0  0  0  0  0  0  0  0
   -1.5077    0.2802   -1.8175 H   0  0  0  0  0  0  0  0  0  0  0  0
   -1.6137    2.4164   -2.1055 C   0  0  0  0  0  0  0  0  0  0  0  0
   -2.6872    2.4681   -1.9086 H   0  0  0  0  0  0  0  0  0  0  0  0
   -1.1339    3.3089   -1.6988 H   0  0  0  0  0  0  0  0  0  0  0  0
   -1.3706    2.3413   -3.6180 C   0  0  0  0  0  0  0  0  0  0  0  0
   -0.2915    2.2824   -3.7936 H   0  0  0  0  0  0  0  0  0  0  0  0
   -1.8226    1.4199   -3.9974 H   0  0  0  0  0  0  0  0  0  0  0  0
   -1.9396    3.5186   -4.3214 N   0  3  0  0  0  0  0  0  0  0  0  0
   -1.5175    4.3738   -3.9819 H   0  0  0  0  0  0  0  0  0  0  0  0
   -1.7712    3.4536   -5.3176 H   0  0  0  0  0  0  0  0  0  0  0  0
   -2.9400    3.5726   -4.1693 H   0  0  0  0  0  0  0  0  0  0  0  0
   -0.5865    0.0771    2.2496 C   0  0  0  0  0  0  0  0  0  0  0  0
    0.5860   -0.1608    2.5143 O   0  0  0  0  0  0  0  0  0  0  0  0
   -1.4786    0.4656    3.1667 N   0  0  0  0  0  0  0  0  0  0  0  0
   -2.4139    0.6698    2.8558 H   0  0  0  0  0  0  0  0  0  0  0  0
   -1.1587    0.6908    4.5775 C   0  0  0  0  0  0  0  0  0  0  0  0
   -0.4270    1.4968    4.6656 H   0  0  0  0  0  0  0  0  0  0  0  0
   -2.0565    0.9649    5.1327 H   0  0  0  0  0  0  0  0  0  0  0  0
   -0.7281   -0.2137    5.0125 H   0  0  0  0  0  0  0  0  0  0  0  0
  5  6  2  0  0  0  0
  5  7  1  0  0  0  0
  2  3  1  0  0  0  0
  2  4  1  0  0  0  0
  2  5  1  0  0  0  0
  1  2  1  0  0  0  0
 27 28  2  0  0  0  0
 27 29  1  0  0  0  0
 23 24  1  0  0  0  0
 23 25  1  0  0  0  0
 23 26  1  0  0  0  0
 20 21  1  0  0  0  0
 20 22  1  0  0  0  0
 20 23  1  0  0  0  0
 17 18  1  0  0  0  0
 17 19  1  0  0  0  0
 17 20  1  0  0  0  0
 14 15  1  0  0  0  0
 14 16  1  0  0  0  0
 14 17  1  0  0  0  0
 11 12  1  0  0  0  0
 11 13  1  0  0  0  0
 11 14  1  0  0  0  0
  9 10  1  0  0  0  0
  9 11  1  0  0  0  0
  9 27  1  0  0  0  0
  7  8  1  0  0  0  0
  7  9  1  0  0  0  0
 31 32  1  0  0  0  0
 31 33  1  0  0  0  0
 31 34  1  0  0  0  0
 29 30  1  0  0  0  0
 29 31  1  0  0  0  0
M  CHG  1  23   1
M  END
$$$$
default_name
  -OEChem-02102213163D

 34 33  0     1  0  0  0  0  0999 V2000
   -3.8899   -3.6747    1.6490 H   0  0  0  0  0  0  0  0  0  0  0  0
   -3.9109   -2.6717    1.2250 C   0  0  0  0  0  0  0  0  0  0  0  0
   -4.6009   -2.0517    1.7950 H   0  0  0  0  0  0  0  0  0  0  0  0
   -4.2309   -2.7237    0.1860 H   0  0  0  0  0  0  0  0  0  0  0  0
   -2.5229   -2.0787    1.2980 C   0  0  0  0  0  0  0  0  0  0  0  0
   -1.5999   -2.7227    1.7810 O   0  0  0  0  0  0  0  0  0  0  0  0
   -2.3659   -0.8447    0.8120 N   0  0  0  0  0  0  0  0  0  0  0  0
   -3.1749   -0.3807    0.4220 H   0  0  0  0  0  0  0  0  0  0  0  0
   -1.0919   -0.1077    0.8170 C   0  0  1  0  0  0  0  0  0  0  0  0
   -0.3571   -0.6901    0.2581 H   0  0  0  0  0  0  0  0  0  0  0  0
   -1.3037    1.2411    0.1040 C   0  0  0  0  0  0  0  0  0  0  0  0
   -2.2308    1.6856    0.4694 H   0  0  0  0  0  0  0  0  0  0  0  0
   -0.4815    1.9134    0.3566 H   0  0  0  0  0  0  0  0  0  0  0  0
   -1.3999    1.1110   -1.4238 C   0  0  0  0  0  0  0  0  0  0  0  0
   -0.4810    0.6712   -1.8137 H   0  0  0  0  0  0  0  0  0  0  0  0
   -2.2409    0.4626   -1.6771 H   0  0  0  0  0  0  0  0  0  0  0  0
   -1.6100    2.4895   -2.0655 C   0  0  0  0  0  0  0  0  0  0  0  0
   -2.5231    2.9337   -1.6618 H   0  0  0  0  0  0  0  0  0  0  0  0
   -0.7622    3.1310   -1.8169 H   0  0  0  0  0  0  0  0  0  0  0  0
   -1.7311    2.3584   -3.5889 C   0  0  0  0  0  0  0  0  0  0  0  0
   -0.8112    1.9051   -3.9723 H   0  0  0  0  0  0  0  0  0  0  0  0
   -2.5588    1.6793   -3.8147 H   0  0  0  0  0  0  0  0  0  0  0  0
   -1.9591    3.6762   -4.2338 N   0  3  0  0  0  0  0  0  0  0  0  0
   -1.1912    4.3058   -4.0371 H   0  0  0  0  0  0  0  0  0  0  0  0
   -2.0370    3.5724   -5.2378 H   0  0  0  0  0  0  0  0  0  0  0  0
   -2.8143    4.0961   -3.8886 H   0  0  0  0  0  0  0  0  0  0  0  0
   -0.5865    0.0771    2.2496 C   0  0  0  0  0  0  0  0  0  0  0  0
    0.5860   -0.1608    2.5143 O   0  0  0  0  0  0  0  0  0  0  0  0
   -1.4786    0.4656    3.1667 N   0  0  0  0  0  0  0  0  0  0  0  0
   -2.4139    0.6698    2.8558 H   0  0  0  0  0  0  0  0  0  0  0  0
   -1.1587    0.6908    4.5775 C   0  0  0  0  0  0  0  0  0  0  0  0
   -0.4270    1.4968    4.6656 H   0  0  0  0  0  0  0  0  0  0  0  0
   -2.0565    0.9649    5.1327 H   0  0  0  0  0  0  0  0  0  0  0  0
   -0.7281   -0.2137    5.0125 H   0  0  0  0  0  0  0  0  0  0  0  0
  5  6  2  0  0  0  0
  5  7  1  0  0  0  0
  2  3  1  0  0  0  0
  2  4  1  0  0  0  0
  2  5  1  0  0  0  0
  1  2  1  0  0  0  0
 27 28  2  0  0  0  0
 27 29  1  0  0  0  0
 23 24  1  0  0  0  0
 23 25  1  0  0  0  0
 23 26  1  0  0  0  0
 20 21  1  0  0  0  0
 20 22  1  0  0  0  0
 20 23  1  0  0  0  0
 17 18  1  0  0  0  0
 17 19  1  0  0  0  0
 17 20  1  0  0  0  0
 14 15  1  0  0  0  0
 14 16  1  0  0  0  0
 14 17  1  0  0  0  0
 11 12  1  0  0  0  0
 11 13  1  0  0  0  0
 11 14  1  0  0  0  0
  9 10  1  0  0  0  0
  9 11  1  0  0  0  0
  9 27  1  0  0  0  0
  7  8  1  0  0  0  0
  7  9  1  0  0  0  0
 31 32  1  0  0  0  0
 31 33  1  0  0  0  0
 31 34  1  0  0  0  0
 29 30  1  0  0  0  0
 29 31  1  0  0  0  0
M  CHG  1  23   1
M  END
$$$$
default_name
  -OEChem-02102213163D

 34 33  0     1  0  0  0  0  0999 V2000
   -3.8899   -3.6747    1.6490 H   0  0  0  0  0  0  0  0  0  0  0  0
   -3.9109   -2.6717    1.2250 C   0  0  0  0  0  0  0  0  0  0  0  0
   -4.6009   -2.0517    1.7950 H   0  0  0  0  0  0  0  0  0  0  0  0
   -4.2309   -2.7237    0.1860 H   0  0  0  0  0  0  0  0  0  0  0  0
   -2.5229   -2.0787    1.2980 C   0  0  0  0  0  0  0  0  0  0  0  0
   -1.5999   -2.7227    1.7810 O   0  0  0  0  0  0  0  0  0  0  0  0
   -2.3659   -0.8447    0.8120 N   0  0  0  0  0  0  0  0  0  0  0  0
   -3.1749   -0.3807    0.4220 H   0  0  0  0  0  0  0  0  0  0  0  0
   -1.0919   -0.1077    0.8170 C   0  0  1  0  0  0  0  0  0  0  0  0
   -0.3571   -0.6901    0.2581 H   0  0  0  0  0  0  0  0  0  0  0  0
   -1.3037    1.2411    0.1040 C   0  0  0  0  0  0  0  0  0  0  0  0
   -2.2308    1.6856    0.4694 H   0  0  0  0  0  0  0  0  0  0  0  0
   -0.4815    1.9134    0.3566 H   0  0  0  0  0  0  0  0  0  0  0  0
   -1.3999    1.1110   -1.4238 C   0  0  0  0  0  0  0  0  0  0  0  0
   -0.6177    0.4423   -1.7856 H   0  0  0  0  0  0  0  0  0  0  0  0
   -2.3744    0.6960   -1.6886 H   0  0  0  0  0  0  0  0  0  0  0  0
   -1.2352    2.4847   -2.0887 C   0  0  0  0  0  0  0  0  0  0  0  0
   -2.0108    3.1564   -1.7130 H   0  0  0  0  0  0  0  0  0  0  0  0
   -0.2558    2.8911   -1.8284 H   0  0  0  0  0  0  0  0  0  0  0  0
   -1.3557    2.3601   -3.6126 C   0  0  0  0  0  0  0  0  0  0  0  0
   -0.5762    1.6782   -3.9678 H   0  0  0  0  0  0  0  0  0  0  0  0
   -2.3258    1.9125   -3.8492 H   0  0  0  0  0  0  0  0  0  0  0  0
   -1.2238    3.6796   -4.2804 N   0  3  0  0  0  0  0  0  0  0  0  0
   -0.3237    4.0942   -4.0737 H   0  0  0  0  0  0  0  0  0  0  0  0
   -1.3060    3.5803   -5.2845 H   0  0  0  0  0  0  0  0  0  0  0  0
   -1.9487    4.3119   -3.9614 H   0  0  0  0  0  0  0  0  0  0  0  0
   -0.5865    0.0771    2.2496 C   0  0  0  0  0  0  0  0  0  0  0  0
    0.5860   -0.1608    2.5143 O   0  0  0  0  0  0  0  0  0  0  0  0
   -1.4786    0.4656    3.1667 N   0  0  0  0  0  0  0  0  0  0  0  0
   -2.4139    0.6698    2.8558 H   0  0  0  0  0  0  0  0  0  0  0  0
   -1.1587    0.6908    4.5775 C   0  0  0  0  0  0  0  0  0  0  0  0
   -0.4270    1.4968    4.6656 H   0  0  0  0  0  0  0  0  0  0  0  0
   -2.0565    0.9649    5.1327 H   0  0  0  0  0  0  0  0  0  0  0  0
   -0.7281   -0.2137    5.0125 H   0  0  0  0  0  0  0  0  0  0  0  0
  5  6  2  0  0  0  0
  5  7  1  0  0  0  0
  2  3  1  0  0  0  0
  2  4  1  0  0  0  0
  2  5  1  0  0  0  0
  1  2  1  0  0  0  0
 27 28  2  0  0  0  0
 27 29  1  0  0  0  0
 23 24  1  0  0  0  0
 23 25  1  0  0  0  0
 23 26  1  0  0  0  0
 20 21  1  0  0  0  0
 20 22  1  0  0  0  0
 20 23  1  0  0  0  0
 17 18  1  0  0  0  0
 17 19  1  0  0  0  0
 17 20  1  0  0  0  0
 14 15  1  0  0  0  0
 14 16  1  0  0  0  0
 14 17  1  0  0  0  0
 11 12  1  0  0  0  0
 11 13  1  0  0  0  0
 11 14  1  0  0  0  0
  9 10  1  0  0  0  0
  9 11  1  0  0  0  0
  9 27  1  0  0  0  0
  7  8  1  0  0  0  0
  7  9  1  0  0  0  0
 31 32  1  0  0  0  0
 31 33  1  0  0  0  0
 31 34  1  0  0  0  0
 29 30  1  0  0  0  0
 29 31  1  0  0  0  0
M  CHG  1  23   1
M  END
$$$$
default_name
  -OEChem-02102213163D

 34 33  0     1  0  0  0  0  0999 V2000
   -3.8899   -3.6747    1.6490 H   0  0  0  0  0  0  0  0  0  0  0  0
   -3.9109   -2.6717    1.2250 C   0  0  0  0  0  0  0  0  0  0  0  0
   -4.6009   -2.0517    1.7950 H   0  0  0  0  0  0  0  0  0  0  0  0
   -4.2309   -2.7237    0.1860 H   0  0  0  0  0  0  0  0  0  0  0  0
   -2.5229   -2.0787    1.2980 C   0  0  0  0  0  0  0  0  0  0  0  0
   -1.5999   -2.7227    1.7810 O   0  0  0  0  0  0  0  0  0  0  0  0
   -2.3659   -0.8447    0.8120 N   0  0  0  0  0  0  0  0  0  0  0  0
   -3.1749   -0.3807    0.4220 H   0  0  0  0  0  0  0  0  0  0  0  0
   -1.0919   -0.1077    0.8170 C   0  0  1  0  0  0  0  0  0  0  0  0
   -0.3571   -0.6901    0.2581 H   0  0  0  0  0  0  0  0  0  0  0  0
   -1.3037    1.2411    0.1040 C   0  0  0  0  0  0  0  0  0  0  0  0
   -2.2308    1.6856    0.4694 H   0  0  0  0  0  0  0  0  0  0  0  0
   -0.4815    1.9134    0.3566 H   0  0  0  0  0  0  0  0  0  0  0  0
   -1.3999    1.1110   -1.4238 C   0  0  0  0  0  0  0  0  0  0  0  0
   -0.8094    0.2569   -1.7578 H   0  0  0  0  0  0  0  0  0  0  0  0
   -2.4430    0.9556   -1.7064 H   0  0  0  0  0  0  0  0  0  0  0  0
   -0.8738    2.3832   -2.1028 C   0  0  0  0  0  0  0  0  0  0  0  0
   -1.4575    3.2388   -1.7549 H   0  0  0  0  0  0  0  0  0  0  0  0
    0.1718    2.5289   -1.8245 H   0  0  0  0  0  0  0  0  0  0  0  0
   -0.9922    2.2647   -3.6274 C   0  0  0  0  0  0  0  0  0  0  0  0
   -0.4078    1.3986   -3.9546 H   0  0  0  0  0  0  0  0  0  0  0  0
   -2.0399    2.0772   -3.8812 H   0  0  0  0  0  0  0  0  0  0  0  0
   -0.5117    3.4930   -4.3093 N   0  3  0  0  0  0  0  0  0  0  0  0
    0.4605    3.6660   -4.0866 H   0  0  0  0  0  0  0  0  0  0  0  0
   -0.5968    3.3989   -5.3137 H   0  0  0  0  0  0  0  0  0  0  0  0
   -1.0554    4.2964   -4.0164 H   0  0  0  0  0  0  0  0  0  0  0  0
   -0.5865    0.0771    2.2496 C   0  0  0  0  0  0  0  0  0  0  0  0
    0.5860   -0.1608    2.5143 O   0  0  0  0  0  0  0  0  0  0  0  0
   -1.4786    0.4656    3.1667 N   0  0  0  0  0  0  0  0  0  0  0  0
   -2.4139    0.6698    2.8558 H   0  0  0  0  0  0  0  0  0  0  0  0
   -1.1587    0.6908    4.5775 C   0  0  0  0  0  0  0  0  0  0  0  0
   -0.4270    1.4968    4.6656 H   0  0  0  0  0  0  0  0  0  0  0  0
   -2.0565    0.9649    5.1327 H   0  0  0  0  0  0  0  0  0  0  0  0
   -0.7281   -0.2137    5.0125 H   0  0  0  0  0  0  0  0  0  0  0  0
  5  6  2  0  0  0  0
  5  7  1  0  0  0  0
  2  3  1  0  0  0  0
  2  4  1  0  0  0  0
  2  5  1  0  0  0  0
  1  2  1  0  0  0  0
 27 28  2  0  0  0  0
 27 29  1  0  0  0  0
 23 24  1  0  0  0  0
 23 25  1  0  0  0  0
 23 26  1  0  0  0  0
 20 21  1  0  0  0  0
 20 22  1  0  0  0  0
 20 23  1  0  0  0  0
 17 18  1  0  0  0  0
 17 19  1  0  0  0  0
 17 20  1  0  0  0  0
 14 15  1  0  0  0  0
 14 16  1  0  0  0  0
 14 17  1  0  0  0  0
 11 12  1  0  0  0  0
 11 13  1  0  0  0  0
 11 14  1  0  0  0  0
  9 10  1  0  0  0  0
  9 11  1  0  0  0  0
  9 27  1  0  0  0  0
  7  8  1  0  0  0  0
  7  9  1  0  0  0  0
 31 32  1  0  0  0  0
 31 33  1  0  0  0  0
 31 34  1  0  0  0  0
 29 30  1  0  0  0  0
 29 31  1  0  0  0  0
M  CHG  1  23   1
M  END
$$$$
default_name
  -OEChem-02102213163D

 34 33  0     1  0  0  0  0  0999 V2000
   -3.8899   -3.6747    1.6490 H   0  0  0  0  0  0  0  0  0  0  0  0
   -3.9109   -2.6717    1.2250 C   0  0  0  0  0  0  0  0  0  0  0  0
   -4.6009   -2.0517    1.7950 H   0  0  0  0  0  0  0  0  0  0  0  0
   -4.2309   -2.7237    0.1860 H   0  0  0  0  0  0  0  0  0  0  0  0
   -2.5229   -2.0787    1.2980 C   0  0  0  0  0  0  0  0  0  0  0  0
   -1.5999   -2.7227    1.7810 O   0  0  0  0  0  0  0  0  0  0  0  0
   -2.3659   -0.8447    0.8120 N   0  0  0  0  0  0  0  0  0  0  0  0
   -3.1749   -0.3807    0.4220 H   0  0  0  0  0  0  0  0  0  0  0  0
   -1.0919   -0.1077    0.8170 C   0  0  1  0  0  0  0  0  0  0  0  0
   -0.3571   -0.6901    0.2581 H   0  0  0  0  0  0  0  0  0  0  0  0
   -1.3037    1.2411    0.1040 C   0  0  0  0  0  0  0  0  0  0  0  0
   -2.2308    1.6856    0.4694 H   0  0  0  0  0  0  0  0  0  0  0  0
   -0.4815    1.9134    0.3566 H   0  0  0  0  0  0  0  0  0  0  0  0
   -1.3999    1.1110   -1.4238 C   0  0  0  0  0  0  0  0  0  0  0  0
   -1.0428    0.1275   -1.7321 H   0  0  0  0  0  0  0  0  0  0  0  0
   -2.4420    1.2237   -1.7293 H   0  0  0  0  0  0  0  0  0  0  0  0
   -0.5506    2.1919   -2.1068 C   0  0  0  0  0  0  0  0  0  0  0  0
   -0.9010    3.1753   -1.7845 H   0  0  0  0  0  0  0  0  0  0  0  0
    0.4916    2.0690   -1.8054 H   0  0  0  0  0  0  0  0  0  0  0  0
   -0.6653    2.0788   -3.6322 C   0  0  0  0  0  0  0  0  0  0  0  0
   -0.3173    1.0855   -3.9337 H   0  0  0  0  0  0  0  0  0  0  0  0
   -1.7207    2.1623   -3.9085 H   0  0  0  0  0  0  0  0  0  0  0  0
    0.1287    3.1289   -4.3186 N   0  3  0  0  0  0  0  0  0  0  0  0
    1.1081    3.0502   -4.0750 H   0  0  0  0  0  0  0  0  0  0  0  0
    0.0422    3.0408   -5.3235 H   0  0  0  0  0  0  0  0  0  0  0  0
   -0.1954    4.0506   -4.0496 H   0  0  0  0  0  0  0  0  0  0  0  0
   -0.5865    0.0771    2.2496 C   0  0  0  0  0  0  0  0  0  0  0  0
    0.5860   -0.1608    2.5143 O   0  0  0  0  0  0  0  0  0  0  0  0
   -1.4786    0.4656    3.1667 N   0  0  0  0  0  0  0  0  0  0  0  0
   -2.4139    0.6698    2.8558 H   0  0  0  0  0  0  0  0  0  0  0  0
   -1.1587    0.6908    4.5775 C   0  0  0  0  0  0  0  0  0  0  0  0
   -0.4270    1.4968    4.6656 H   0  0  0  0  0  0  0  0  0  0  0  0
   -2.0565    0.9649    5.1327 H   0  0  0  0  0  0  0  0  0  0  0  0
   -0.7281   -0.2137    5.0125 H   0  0  0  0  0  0  0  0  0  0  0  0
  5  6  2  0  0  0  0
  5  7  1  0  0  0  0
  2  3  1  0  0  0  0
  2  4  1  0  0  0  0
  2  5  1  0  0  0  0
  1  2  1  0  0  0  0
 27 28  2  0  0  0  0
 27 29  1  0  0  0  0
 23 24  1  0  0  0  0
 23 25  1  0  0  0  0
 23 26  1  0  0  0  0
 20 21  1  0  0  0  0
 20 22  1  0  0  0  0
 20 23  1  0  0  0  0
 17 18  1  0  0  0  0
 17 19  1  0  0  0  0
 17 20  1  0  0  0  0
 14 15  1  0  0  0  0
 14 16  1  0  0  0  0
 14 17  1  0  0  0  0
 11 12  1  0  0  0  0
 11 13  1  0  0  0  0
 11 14  1  0  0  0  0
  9 10  1  0  0  0  0
  9 11  1  0  0  0  0
  9 27  1  0  0  0  0
  7  8  1  0  0  0  0
  7  9  1  0  0  0  0
 31 32  1  0  0  0  0
 31 33  1  0  0  0  0
 31 34  1  0  0  0  0
 29 30  1  0  0  0  0
 29 31  1  0  0  0  0
M  CHG  1  23   1
M  END
$$$$
default_name
  -OEChem-02102213163D

 34 33  0     1  0  0  0  0  0999 V2000
   -3.8899   -3.6747    1.6490 H   0  0  0  0  0  0  0  0  0  0  0  0
   -3.9109   -2.6717    1.2250 C   0  0  0  0  0  0  0  0  0  0  0  0
   -4.6009   -2.0517    1.7950 H   0  0  0  0  0  0  0  0  0  0  0  0
   -4.2309   -2.7237    0.1860 H   0  0  0  0  0  0  0  0  0  0  0  0
   -2.5229   -2.0787    1.2980 C   0  0  0  0  0  0  0  0  0  0  0  0
   -1.5999   -2.7227    1.7810 O   0  0  0  0  0  0  0  0  0  0  0  0
   -2.3659   -0.8447    0.8120 N   0  0  0  0  0  0  0  0  0  0  0  0
   -3.1749   -0.3807    0.4220 H   0  0  0  0  0  0  0  0  0  0  0  0
   -1.0919   -0.1077    0.8170 C   0  0  1  0  0  0  0  0  0  0  0  0
   -0.3571   -0.6901    0.2581 H   0  0  0  0  0  0  0  0  0  0  0  0
   -1.3037    1.2411    0.1040 C   0  0  0  0  0  0  0  0  0  0  0  0
   -2.2308    1.6856    0.4694 H   0  0  0  0  0  0  0  0  0  0  0  0
   -0.4815    1.9134    0.3566 H   0  0  0  0  0  0  0  0  0  0  0  0
   -1.3999    1.1110   -1.4238 C   0  0  0  0  0  0  0  0  0  0  0  0
   -1.3021    0.0630   -1.7102 H   0  0  0  0  0  0  0  0  0  0  0  0
   -2.3716    1.4821   -1.7557 H   0  0  0  0  0  0  0  0  0  0  0  0
   -0.2875    1.9238   -2.1006 C   0  0  0  0  0  0  0  0  0  0  0  0
   -0.3791    2.9703   -1.7999 H   0  0  0  0  0  0  0  0  0  0  0  0
    0.6817    1.5428   -1.7726 H   0  0  0  0  0  0  0  0  0  0  0  0
   -0.3973    1.8150   -3.6266 C   0  0  0  0  0  0  0  0  0  0  0  0
   -0.3110    0.7600   -3.9064 H   0  0  0  0  0  0  0  0  0  0  0  0
   -1.3899    2.1619   -3.9293 H   0  0  0  0  0  0  0  0  0  0  0  0
    0.6538    2.6123   -4.3077 N   0  3  0  0  0  0  0  0  0  0  0  0
    1.5749    2.2890   -4.0396 H   0  0  0  0  0  0  0  0  0  0  0  0
    0.5674    2.5302   -5.3131 H   0  0  0  0  0  0  0  0  0  0  0  0
    0.5728    3.5912   -4.0588 H   0  0  0  0  0  0  0  0  0  0  0  0
   -0.5865    0.0771    2.2496 C   0  0  0  0  0  0  0  0  0  0  0  0
    0.5860   -0.1608    2.5143 O   0  0  0  0  0  0  0  0  0  0  0  0
   -1.4786    0.4656    3.1667 N   0  0  0  0  0  0  0  0  0  0  0  0
   -2.4139    0.6698    2.8558 H   0  0  0  0  0  0  0  0  0  0  0  0
   -1.1587    0.6908    4.5775 C   0  0  0  0  0  0  0  0  0  0  0  0
   -0.4270    1.4968    4.6656 H   0  0  0  0  0  0  0  0  0  0  0  0
   -2.0565    0.9649    5.1327 H   0  0  0  0  0  0  0  0  0  0  0  0
   -0.7281   -0.2137    5.0125 H   0  0  0  0  0  0  0  0  0  0  0  0
  5  6  2  0  0  0  0
  5  7  1  0  0  0  0
  2  3  1  0  0  0  0
  2  4  1  0  0  0  0
  2  5  1  0  0  0  0
  1  2  1  0  0  0  0
 27 28  2  0  0  0  0
 27 29  1  0  0  0  0
 23 24  1  0  0  0  0
 23 25  1  0  0  0  0
 23 26  1  0  0  0  0
 20 21  1  0  0  0  0
 20 22  1  0  0  0  0
 20 23  1  0  0  0  0
 17 18  1  0  0  0  0
 17 19  1  0  0  0  0
 17 20  1  0  0  0  0
 14 15  1  0  0  0  0
 14 16  1  0  0  0  0
 14 17  1  0  0  0  0
 11 12  1  0  0  0  0
 11 13  1  0  0  0  0
 11 14  1  0  0  0  0
  9 10  1  0  0  0  0
  9 11  1  0  0  0  0
  9 27  1  0  0  0  0
  7  8  1  0  0  0  0
  7  9  1  0  0  0  0
 31 32  1  0  0  0  0
 31 33  1  0  0  0  0
 31 34  1  0  0  0  0
 29 30  1  0  0  0  0
 29 31  1  0  0  0  0
M  CHG  1  23   1
M  END
$$$$
default_name
  -OEChem-02102213163D

 34 33  0     1  0  0  0  0  0999 V2000
   -3.8899   -3.6747    1.6490 H   0  0  0  0  0  0  0  0  0  0  0  0
   -3.9109   -2.6717    1.2250 C   0  0  0  0  0  0  0  0  0  0  0  0
   -4.6009   -2.0517    1.7950 H   0  0  0  0  0  0  0  0  0  0  0  0
   -4.2309   -2.7237    0.1860 H   0  0  0  0  0  0  0  0  0  0  0  0
   -2.5229   -2.0787    1.2980 C   0  0  0  0  0  0  0  0  0  0  0  0
   -1.5999   -2.7227    1.7810 O   0  0  0  0  0  0  0  0  0  0  0  0
   -2.3659   -0.8447    0.8120 N   0  0  0  0  0  0  0  0  0  0  0  0
   -3.1749   -0.3807    0.4220 H   0  0  0  0  0  0  0  0  0  0  0  0
   -1.0919   -0.1077    0.8170 C   0  0  1  0  0  0  0  0  0  0  0  0
   -0.3571   -0.6901    0.2581 H   0  0  0  0  0  0  0  0  0  0  0  0
   -1.3037    1.2411    0.1040 C   0  0  0  0  0  0  0  0  0  0  0  0
   -2.2308    1.6856    0.4694 H   0  0  0  0  0  0  0  0  0  0  0  0
   -0.4815    1.9134    0.3566 H   0  0  0  0  0  0  0  0  0  0  0  0
   -1.3999    1.1110   -1.4238 C   0  0  0  0  0  0  0  0  0  0  0  0
   -1.5697    0.0679   -1.6938 H   0  0  0  0  0  0  0  0  0  0  0  0
   -2.2364    1.7131   -1.7839 H   0  0  0  0  0  0  0  0  0  0  0  0
   -0.1025    1.5973   -2.0844 C   0  0  0  0  0  0  0  0  0  0  0  0
    0.0725    2.6376   -1.8001 H   0  0  0  0  0  0  0  0  0  0  0  0
    0.7292    0.9862   -1.7282 H   0  0  0  0  0  0  0  0  0  0  0  0
   -0.2064    1.4913   -3.6110 C   0  0  0  0  0  0  0  0  0  0  0  0
   -0.3892    0.4445   -3.8746 H   0  0  0  0  0  0  0  0  0  0  0  0
   -1.0700    2.0760   -3.9421 H   0  0  0  0  0  0  0  0  0  0  0  0
    1.0279    1.9783   -4.2773 N   0  3  0  0  0  0  0  0  0  0  0  0
    1.8291    1.4341   -3.9828 H   0  0  0  0  0  0  0  0  0  0  0  0
    0.9431    1.9020   -5.2833 H   0  0  0  0  0  0  0  0  0  0  0  0
    1.1967    2.9497   -4.0435 H   0  0  0  0  0  0  0  0  0  0  0  0
   -0.5865    0.0771    2.2496 C   0  0  0  0  0  0  0  0  0  0  0  0
    0.5860   -0.1608    2.5143 O   0  0  0  0  0  0  0  0  0  0  0  0
   -1.4786    0.4656    3.1667 N   0  0  0  0  0  0  0  0  0  0  0  0
   -2.4139    0.6698    2.8558 H   0  0  0  0  0  0  0  0  0  0  0  0
   -1.1587    0.6908    4.5775 C   0  0  0  0  0  0  0  0  0  0  0  0
   -0.4270    1.4968    4.6656 H   0  0  0  0  0  0  0  0  0  0  0  0
   -2.0565    0.9649    5.1327 H   0  0  0  0  0  0  0  0  0  0  0  0
   -0.7281   -0.2137    5.0125 H   0  0  0  0  0  0  0  0  0  0  0  0
  5  6  2  0  0  0  0
  5  7  1  0  0  0  0
  2  3  1  0  0  0  0
  2  4  1  0  0  0  0
  2  5  1  0  0  0  0
  1  2  1  0  0  0  0
 27 28  2  0  0  0  0
 27 29  1  0  0  0  0
 23 24  1  0  0  0  0
 23 25  1  0  0  0  0
 23 26  1  0  0  0  0
 20 21  1  0  0  0  0
 20 22  1  0  0  0  0
 20 23  1  0  0  0  0
 17 18  1  0  0  0  0
 17 19  1  0  0  0  0
 17 20  1  0  0  0  0
 14 15  1  0  0  0  0
 14 16  1  0  0  0  0
 14 17  1  0  0  0  0
 11 12  1  0  0  0  0
 11 13  1  0  0  0  0
 11 14  1  0  0  0  0
  9 10  1  0  0  0  0
  9 11  1  0  0  0  0
  9 27  1  0  0  0  0
  7  8  1  0  0  0  0
  7  9  1  0  0  0  0
 31 32  1  0  0  0  0
 31 33  1  0  0  0  0
 31 34  1  0  0  0  0
 29 30  1  0  0  0  0
 29 31  1  0  0  0  0
M  CHG  1  23   1
M  END
$$$$
default_name
  -OEChem-02102213163D

 34 33  0     1  0  0  0  0  0999 V2000
   -3.8899   -3.6747    1.6490 H   0  0  0  0  0  0  0  0  0  0  0  0
   -3.9109   -2.6717    1.2250 C   0  0  0  0  0  0  0  0  0  0  0  0
   -4.6009   -2.0517    1.7950 H   0  0  0  0  0  0  0  0  0  0  0  0
   -4.2309   -2.7237    0.1860 H   0  0  0  0  0  0  0  0  0  0  0  0
   -2.5229   -2.0787    1.2980 C   0  0  0  0  0  0  0  0  0  0  0  0
   -1.5999   -2.7227    1.7810 O   0  0  0  0  0  0  0  0  0  0  0  0
   -2.3659   -0.8447    0.8120 N   0  0  0  0  0  0  0  0  0  0  0  0
   -3.1749   -0.3807    0.4220 H   0  0  0  0  0  0  0  0  0  0  0  0
   -1.0919   -0.1077    0.8170 C   0  0  1  0  0  0  0  0  0  0  0  0
   -0.3571   -0.6901    0.2581 H   0  0  0  0  0  0  0  0  0  0  0  0
   -1.3037    1.2411    0.1040 C   0  0  0  0  0  0  0  0  0  0  0  0
   -2.2308    1.6856    0.4694 H   0  0  0  0  0  0  0  0  0  0  0  0
   -0.4815    1.9134    0.3566 H   0  0  0  0  0  0  0  0  0  0  0  0
   -1.3999    1.1110   -1.4238 C   0  0  0  0  0  0  0  0  0  0  0  0
   -1.8273    0.1417   -1.6839 H   0  0  0  0  0  0  0  0  0  0  0  0
   -2.0458    1.9011   -1.8119 H   0  0  0  0  0  0  0  0  0  0  0  0
   -0.0083    1.2346   -2.0595 C   0  0  0  0  0  0  0  0  0  0  0  0
    0.4232    2.2001   -1.7849 H   0  0  0  0  0  0  0  0  0  0  0  0
    0.6308    0.4370   -1.6753 H   0  0  0  0  0  0  0  0  0  0  0  0
   -0.1057    1.1298   -3.5866 C   0  0  0  0  0  0  0  0  0  0  0  0
   -0.5467    0.1603   -3.8405 H   0  0  0  0  0  0  0  0  0  0  0  0
   -0.7829    1.9104   -3.9461 H   0  0  0  0  0  0  0  0  0  0  0  0
    1.2253    1.2701   -4.2295 N   0  3  0  0  0  0  0  0  0  0  0  0
    1.8534    0.5439   -3.9086 H   0  0  0  0  0  0  0  0  0  0  0  0
    1.1437    1.1990   -5.2361 H   0  0  0  0  0  0  0  0  0  0  0  0
    1.6340    2.1697   -4.0047 H   0  0  0  0  0  0  0  0  0  0  0  0
   -0.5865    0.0771    2.2496 C   0  0  0  0  0  0  0  0  0  0  0  0
    0.5860   -0.1608    2.5143 O   0  0  0  0  0  0  0  0  0  0  0  0
   -1.4786    0.4656    3.1667 N   0  0  0  0  0  0  0  0  0  0  0  0
   -2.4139    0.6698    2.8558 H   0  0  0  0  0  0  0  0  0  0  0  0
   -1.1587    0.6908    4.5775 C   0  0  0  0  0  0  0  0  0  0  0  0
   -0.4270    1.4968    4.6656 H   0  0  0  0  0  0  0  0  0  0  0  0
   -2.0565    0.9649    5.1327 H   0  0  0  0  0  0  0  0  0  0  0  0
   -0.7281   -0.2137    5.0125 H   0  0  0  0  0  0  0  0  0  0  0  0
  5  6  2  0  0  0  0
  5  7  1  0  0  0  0
  2  3  1  0  0  0  0
  2  4  1  0  0  0  0
  2  5  1  0  0  0  0
  1  2  1  0  0  0  0
 27 28  2  0  0  0  0
 27 29  1  0  0  0  0
 23 24  1  0  0  0  0
 23 25  1  0  0  0  0
 23 26  1  0  0  0  0
 20 21  1  0  0  0  0
 20 22  1  0  0  0  0
 20 23  1  0  0  0  0
 17 18  1  0  0  0  0
 17 19  1  0  0  0  0
 17 20  1  0  0  0  0
 14 15  1  0  0  0  0
 14 16  1  0  0  0  0
 14 17  1  0  0  0  0
 11 12  1  0  0  0  0
 11 13  1  0  0  0  0
 11 14  1  0  0  0  0
  9 10  1  0  0  0  0
  9 11  1  0  0  0  0
  9 27  1  0  0  0  0
  7  8  1  0  0  0  0
  7  9  1  0  0  0  0
 31 32  1  0  0  0  0
 31 33  1  0  0  0  0
 31 34  1  0  0  0  0
 29 30  1  0  0  0  0
 29 31  1  0  0  0  0
M  CHG  1  23   1
M  END
$$$$
default_name
  -OEChem-02102213163D

 34 33  0     1  0  0  0  0  0999 V2000
   -3.8899   -3.6747    1.6490 H   0  0  0  0  0  0  0  0  0  0  0  0
   -3.9109   -2.6717    1.2250 C   0  0  0  0  0  0  0  0  0  0  0  0
   -4.6009   -2.0517    1.7950 H   0  0  0  0  0  0  0  0  0  0  0  0
   -4.2309   -2.7237    0.1860 H   0  0  0  0  0  0  0  0  0  0  0  0
   -2.5229   -2.0787    1.2980 C   0  0  0  0  0  0  0  0  0  0  0  0
   -1.5999   -2.7227    1.7810 O   0  0  0  0  0  0  0  0  0  0  0  0
   -2.3659   -0.8447    0.8120 N   0  0  0  0  0  0  0  0  0  0  0  0
   -3.1749   -0.3807    0.4220 H   0  0  0  0  0  0  0  0  0  0  0  0
   -1.0919   -0.1077    0.8170 C   0  0  1  0  0  0  0  0  0  0  0  0
   -0.3571   -0.6901    0.2581 H   0  0  0  0  0  0  0  0  0  0  0  0
   -1.3037    1.2411    0.1040 C   0  0  0  0  0  0  0  0  0  0  0  0
   -2.2308    1.6856    0.4694 H   0  0  0  0  0  0  0  0  0  0  0  0
   -0.4815    1.9134    0.3566 H   0  0  0  0  0  0  0  0  0  0  0  0
   -1.3999    1.1110   -1.4238 C   0  0  0  0  0  0  0  0  0  0  0  0
   -2.0573    0.2794   -1.6811 H   0  0  0  0  0  0  0  0  0  0  0  0
   -1.8128    2.0331   -1.8378 H   0  0  0  0  0  0  0  0  0  0  0  0
   -0.0111    0.8603   -2.0275 C   0  0  0  0  0  0  0  0  0  0  0  0
    0.6489    1.6875   -1.7555 H   0  0  0  0  0  0  0  0  0  0  0  0
    0.3932   -0.0673   -1.6174 H   0  0  0  0  0  0  0  0  0  0  0  0
   -0.1020    0.7550   -3.5550 C   0  0  0  0  0  0  0  0  0  0  0  0
   -0.7727   -0.0730   -3.8064 H   0  0  0  0  0  0  0  0  0  0  0  0
   -0.5480    1.6766   -3.9410 H   0  0  0  0  0  0  0  0  0  0  0  0
    1.2326    0.5360   -4.1674 N   0  3  0  0  0  0  0  0  0  0  0  0
    1.6460   -0.3211   -3.8219 H   0  0  0  0  0  0  0  0  0  0  0  0
    1.1554    0.4691   -5.1747 H   0  0  0  0  0  0  0  0  0  0  0  0
    1.8548    1.3043   -3.9449 H   0  0  0  0  0  0  0  0  0  0  0  0
   -0.5865    0.0771    2.2496 C   0  0  0  0  0  0  0  0  0  0  0  0
    0.5860   -0.1608    2.5143 O   0  0  0  0  0  0  0  0  0  0  0  0
   -1.4786    0.4656    3.1667 N   0  0  0  0  0  0  0  0  0  0  0  0
   -2.4139    0.6698    2.8558 H   0  0  0  0  0  0  0  0  0  0  0  0
   -1.1587    0.6908    4.5775 C   0  0  0  0  0  0  0  0  0  0  0  0
   -0.4270    1.4968    4.6656 H   0  0  0  0  0  0  0  0  0  0  0  0
   -2.0565    0.9649    5.1327 H   0  0  0  0  0  0  0  0  0  0  0  0
   -0.7281   -0.2137    5.0125 H   0  0  0  0  0  0  0  0  0  0  0  0
  5  6  2  0  0  0  0
  5  7  1  0  0  0  0
  2  3  1  0  0  0  0
  2  4  1  0  0  0  0
  2  5  1  0  0  0  0
  1  2  1  0  0  0  0
 27 28  2  0  0  0  0
 27 29  1  0  0  0  0
 23 24  1  0  0  0  0
 23 25  1  0  0  0  0
 23 26  1  0  0  0  0
 20 21  1  0  0  0  0
 20 22  1  0  0  0  0
 20 23  1  0  0  0  0
 17 18  1  0  0  0  0
 17 19  1  0  0  0  0
 17 20  1  0  0  0  0
 14 15  1  0  0  0  0
 14 16  1  0  0  0  0
 14 17  1  0  0  0  0
 11 12  1  0  0  0  0
 11 13  1  0  0  0  0
 11 14  1  0  0  0  0
  9 10  1  0  0  0  0
  9 11  1  0  0  0  0
  9 27  1  0  0  0  0
  7  8  1  0  0  0  0
  7  9  1  0  0  0  0
 31 32  1  0  0  0  0
 31 33  1  0  0  0  0
 31 34  1  0  0  0  0
 29 30  1  0  0  0  0
 29 31  1  0  0  0  0
M  CHG  1  23   1
M  END
$$$$
default_name
  -OEChem-02102213163D

 34 33  0     1  0  0  0  0  0999 V2000
   -3.8899   -3.6747    1.6490 H   0  0  0  0  0  0  0  0  0  0  0  0
   -3.9109   -2.6717    1.2250 C   0  0  0  0  0  0  0  0  0  0  0  0
   -4.6009   -2.0517    1.7950 H   0  0  0  0  0  0  0  0  0  0  0  0
   -4.2309   -2.7237    0.1860 H   0  0  0  0  0  0  0  0  0  0  0  0
   -2.5229   -2.0787    1.2980 C   0  0  0  0  0  0  0  0  0  0  0  0
   -1.5999   -2.7227    1.7810 O   0  0  0  0  0  0  0  0  0  0  0  0
   -2.3659   -0.8447    0.8120 N   0  0  0  0  0  0  0  0  0  0  0  0
   -3.1749   -0.3807    0.4220 H   0  0  0  0  0  0  0  0  0  0  0  0
   -1.0919   -0.1077    0.8170 C   0  0  1  0  0  0  0  0  0  0  0  0
   -0.3571   -0.6901    0.2581 H   0  0  0  0  0  0  0  0  0  0  0  0
   -1.3037    1.2411    0.1040 C   0  0  0  0  0  0  0  0  0  0  0  0
   -2.2308    1.6856    0.4694 H   0  0  0  0  0  0  0  0  0  0  0  0
   -0.4815    1.9134    0.3566 H   0  0  0  0  0  0  0  0  0  0  0  0
   -1.3999    1.1110   -1.4238 C   0  0  0  0  0  0  0  0  0  0  0  0
   -2.2441    0.4717   -1.6857 H   0  0  0  0  0  0  0  0  0  0  0  0
   -1.5531    2.1002   -1.8598 H   0  0  0  0  0  0  0  0  0  0  0  0
   -0.1109    0.5001   -1.9905 C   0  0  0  0  0  0  0  0  0  0  0  0
    0.7344    1.1347   -1.7138 H   0  0  0  0  0  0  0  0  0  0  0  0
    0.0327   -0.4923   -1.5586 H   0  0  0  0  0  0  0  0  0  0  0  0
   -0.1956    0.3926   -3.5182 C   0  0  0  0  0  0  0  0  0  0  0  0
   -1.0518   -0.2397   -3.7746 H   0  0  0  0  0  0  0  0  0  0  0  0
   -0.3815    1.3903   -3.9271 H   0  0  0  0  0  0  0  0  0  0  0  0
    1.0495   -0.1740   -4.0955 N   0  3  0  0  0  0  0  0  0  0  0  0
    1.2212   -1.1018   -3.7287 H   0  0  0  0  0  0  0  0  0  0  0  0
    0.9776   -0.2379   -5.1033 H   0  0  0  0  0  0  0  0  0  0  0  0
    1.8440    0.4126   -3.8683 H   0  0  0  0  0  0  0  0  0  0  0  0
   -0.5865    0.0771    2.2496 C   0  0  0  0  0  0  0  0  0  0  0  0
    0.5860   -0.1608    2.5143 O   0  0  0  0  0  0  0  0  0  0  0  0
   -1.4786    0.4656    3.1667 N   0  0  0  0  0  0  0  0  0  0  0  0
   -2.4139    0.6698    2.8558 H   0  0  0  0  0  0  0  0  0  0  0  0
   -1.1587    0.6908    4.5775 C   0  0  0  0  0  0  0  0  0  0  0  0
   -0.4270    1.4968    4.6656 H   0  0  0  0  0  0  0  0  0  0  0  0
   -2.0565    0.9649    5.1327 H   0  0  0  0  0  0  0  0  0  0  0  0
   -0.7281   -0.2137    5.0125 H   0  0  0  0  0  0  0  0  0  0  0  0
  5  6  2  0  0  0  0
  5  7  1  0  0  0  0
  2  3  1  0  0  0  0
  2  4  1  0  0  0  0
  2  5  1  0  0  0  0
  1  2  1  0  0  0  0
 27 28  2  0  0  0  0
 27 29  1  0  0  0  0
 23 24  1  0  0  0  0
 23 25  1  0  0  0  0
 23 26  1  0  0  0  0
 20 21  1  0  0  0  0
 20 22  1  0  0  0  0
 20 23  1  0  0  0  0
 17 18  1  0  0  0  0
 17 19  1  0  0  0  0
 17 20  1  0  0  0  0
 14 15  1  0  0  0  0
 14 16  1  0  0  0  0
 14 17  1  0  0  0  0
 11 12  1  0  0  0  0
 11 13  1  0  0  0  0
 11 14  1  0  0  0  0
  9 10  1  0  0  0  0
  9 11  1  0  0  0  0
  9 27  1  0  0  0  0
  7  8  1  0  0  0  0
  7  9  1  0  0  0  0
 31 32  1  0  0  0  0
 31 33  1  0  0  0  0
 31 34  1  0  0  0  0
 29 30  1  0  0  0  0
 29 31  1  0  0  0  0
M  CHG  1  23   1
M  END
$$$$
default_name
  -OEChem-02102213163D

 34 33  0     1  0  0  0  0  0999 V2000
   -3.8899   -3.6747    1.6490 H   0  0  0  0  0  0  0  0  0  0  0  0
   -3.9109   -2.6717    1.2250 C   0  0  0  0  0  0  0  0  0  0  0  0
   -4.6009   -2.0517    1.7950 H   0  0  0  0  0  0  0  0  0  0  0  0
   -4.2309   -2.7237    0.1860 H   0  0  0  0  0  0  0  0  0  0  0  0
   -2.5229   -2.0787    1.2980 C   0  0  0  0  0  0  0  0  0  0  0  0
   -1.5999   -2.7227    1.7810 O   0  0  0  0  0  0  0  0  0  0  0  0
   -2.3659   -0.8447    0.8120 N   0  0  0  0  0  0  0  0  0  0  0  0
   -3.1749   -0.3807    0.4220 H   0  0  0  0  0  0  0  0  0  0  0  0
   -1.0919   -0.1077    0.8170 C   0  0  1  0  0  0  0  0  0  0  0  0
   -0.3571   -0.6901    0.2581 H   0  0  0  0  0  0  0  0  0  0  0  0
   -1.3037    1.2411    0.1040 C   0  0  0  0  0  0  0  0  0  0  0  0
   -2.2308    1.6856    0.4694 H   0  0  0  0  0  0  0  0  0  0  0  0
   -0.4815    1.9134    0.3566 H   0  0  0  0  0  0  0  0  0  0  0  0
   -1.3999    1.1110   -1.4238 C   0  0  0  0  0  0  0  0  0  0  0  0
   -2.3749    0.7055   -1.6974 H   0  0  0  0  0  0  0  0  0  0  0  0
   -1.2845    2.0978   -1.8765 H   0  0  0  0  0  0  0  0  0  0  0  0
   -0.3008    0.1784   -1.9512 C   0  0  0  0  0  0  0  0  0  0  0  0
    0.6738    0.5794   -1.6627 H   0  0  0  0  0  0  0  0  0  0  0  0
   -0.4262   -0.8091   -1.5027 H   0  0  0  0  0  0  0  0  0  0  0  0
   -0.3801    0.0672   -3.4789 C   0  0  0  0  0  0  0  0  0  0  0  0
   -1.3651   -0.3284   -3.7474 H   0  0  0  0  0  0  0  0  0  0  0  0
   -0.2946    1.0712   -3.9054 H   0  0  0  0  0  0  0  0  0  0  0  0
    0.6882   -0.8114   -4.0185 N   0  3  0  0  0  0  0  0  0  0  0  0
    0.6079   -1.7450   -3.6353 H   0  0  0  0  0  0  0  0  0  0  0  0
    0.6222   -0.8740   -5.0268 H   0  0  0  0  0  0  0  0  0  0  0  0
    1.6023   -0.4447   -3.7801 H   0  0  0  0  0  0  0  0  0  0  0  0
   -0.5865    0.0771    2.2496 C   0  0  0  0  0  0  0  0  0  0  0  0
    0.5860   -0.1608    2.5143 O   0  0  0  0  0  0  0  0  0  0  0  0
   -1.4786    0.4656    3.1667 N   0  0  0  0  0  0  0  0  0  0  0  0
   -2.4139    0.6698    2.8558 H   0  0  0  0  0  0  0  0  0  0  0  0
   -1.1587    0.6908    4.5775 C   0  0  0  0  0  0  0  0  0  0  0  0
   -0.4270    1.4968    4.6656 H   0  0  0  0  0  0  0  0  0  0  0  0
   -2.0565    0.9649    5.1327 H   0  0  0  0  0  0  0  0  0  0  0  0
   -0.7281   -0.2137    5.0125 H   0  0  0  0  0  0  0  0  0  0  0  0
  5  6  2  0  0  0  0
  5  7  1  0  0  0  0
  2  3  1  0  0  0  0
  2  4  1  0  0  0  0
  2  5  1  0  0  0  0
  1  2  1  0  0  0  0
 27 28  2  0  0  0  0
 27 29  1  0  0  0  0
 23 24  1  0  0  0  0
 23 25  1  0  0  0  0
 23 26  1  0  0  0  0
 20 21  1  0  0  0  0
 20 22  1  0  0  0  0
 20 23  1  0  0  0  0
 17 18  1  0  0  0  0
 17 19  1  0  0  0  0
 17 20  1  0  0  0  0
 14 15  1  0  0  0  0
 14 16  1  0  0  0  0
 14 17  1  0  0  0  0
 11 12  1  0  0  0  0
 11 13  1  0  0  0  0
 11 14  1  0  0  0  0
  9 10  1  0  0  0  0
  9 11  1  0  0  0  0
  9 27  1  0  0  0  0
  7  8  1  0  0  0  0
  7  9  1  0  0  0  0
 31 32  1  0  0  0  0
 31 33  1  0  0  0  0
 31 34  1  0  0  0  0
 29 30  1  0  0  0  0
 29 31  1  0  0  0  0
M  CHG  1  23   1
M  END
$$$$
default_name
  -OEChem-02102213163D

 34 33  0     1  0  0  0  0  0999 V2000
   -3.8899   -3.6747    1.6490 H   0  0  0  0  0  0  0  0  0  0  0  0
   -3.9109   -2.6717    1.2250 C   0  0  0  0  0  0  0  0  0  0  0  0
   -4.6009   -2.0517    1.7950 H   0  0  0  0  0  0  0  0  0  0  0  0
   -4.2309   -2.7237    0.1860 H   0  0  0  0  0  0  0  0  0  0  0  0
   -2.5229   -2.0787    1.2980 C   0  0  0  0  0  0  0  0  0  0  0  0
   -1.5999   -2.7227    1.7810 O   0  0  0  0  0  0  0  0  0  0  0  0
   -2.3659   -0.8447    0.8120 N   0  0  0  0  0  0  0  0  0  0  0  0
   -3.1749   -0.3807    0.4220 H   0  0  0  0  0  0  0  0  0  0  0  0
   -1.0919   -0.1077    0.8170 C   0  0  1  0  0  0  0  0  0  0  0  0
   -0.3571   -0.6901    0.2581 H   0  0  0  0  0  0  0  0  0  0  0  0
   -1.3037    1.2411    0.1040 C   0  0  0  0  0  0  0  0  0  0  0  0
   -2.2308    1.6856    0.4694 H   0  0  0  0  0  0  0  0  0  0  0  0
   -0.4815    1.9134    0.3566 H   0  0  0  0  0  0  0  0  0  0  0  0
   -1.3999    1.1110   -1.4238 C   0  0  0  0  0  0  0  0  0  0  0  0
   -2.4409    0.9648   -1.7153 H   0  0  0  0  0  0  0  0  0  0  0  0
   -1.0253    2.0261   -1.8867 H   0  0  0  0  0  0  0  0  0  0  0  0
   -0.5679   -0.0828   -1.9122 C   0  0  0  0  0  0  0  0  0  0  0  0
    0.4712    0.0595   -1.6057 H   0  0  0  0  0  0  0  0  0  0  0  0
   -0.9523   -0.9961   -1.4537 H   0  0  0  0  0  0  0  0  0  0  0  0
   -0.6429   -0.1990   -3.4397 C   0  0  0  0  0  0  0  0  0  0  0  0
   -1.6910   -0.3330   -3.7265 H   0  0  0  0  0  0  0  0  0  0  0  0
   -0.2932    0.7409   -3.8774 H   0  0  0  0  0  0  0  0  0  0  0  0
    0.1735   -1.3330   -3.9417 N   0  3  0  0  0  0  0  0  0  0  0  0
   -0.1521   -2.2070   -3.5482 H   0  0  0  0  0  0  0  0  0  0  0  0
    0.1136   -1.3956   -4.9504 H   0  0  0  0  0  0  0  0  0  0  0  0
    1.1463   -1.2092   -3.6864 H   0  0  0  0  0  0  0  0  0  0  0  0
   -0.5865    0.0771    2.2496 C   0  0  0  0  0  0  0  0  0  0  0  0
    0.5860   -0.1608    2.5143 O   0  0  0  0  0  0  0  0  0  0  0  0
   -1.4786    0.4656    3.1667 N   0  0  0  0  0  0  0  0  0  0  0  0
   -2.4139    0.6698    2.8558 H   0  0  0  0  0  0  0  0  0  0  0  0
   -1.1587    0.6908    4.5775 C   0  0  0  0  0  0  0  0  0  0  0  0
   -0.4270    1.4968    4.6656 H   0  0  0  0  0  0  0  0  0  0  0  0
   -2.0565    0.9649    5.1327 H   0  0  0  0  0  0  0  0  0  0  0  0
   -0.7281   -0.2137    5.0125 H   0  0  0  0  0  0  0  0  0  0  0  0
  5  6  2  0  0  0  0
  5  7  1  0  0  0  0
  2  3  1  0  0  0  0
  2  4  1  0  0  0  0
  2  5  1  0  0  0  0
  1  2  1  0  0  0  0
 27 28  2  0  0  0  0
 27 29  1  0  0  0  0
 23 24  1  0  0  0  0
 23 25  1  0  0  0  0
 23 26  1  0  0  0  0
 20 21  1  0  0  0  0
 20 22  1  0  0  0  0
 20 23  1  0  0  0  0
 17 18  1  0  0  0  0
 17 19  1  0  0  0  0
 17 20  1  0  0  0  0
 14 15  1  0  0  0  0
 14 16  1  0  0  0  0
 14 17  1  0  0  0  0
 11 12  1  0  0  0  0
 11 13  1  0  0  0  0
 11 14  1  0  0  0  0
  9 10  1  0  0  0  0
  9 11  1  0  0  0  0
  9 27  1  0  0  0  0
  7  8  1  0  0  0  0
  7  9  1  0  0  0  0
 31 32  1  0  0  0  0
 31 33  1  0  0  0  0
 31 34  1  0  0  0  0
 29 30  1  0  0  0  0
 29 31  1  0  0  0  0
M  CHG  1  23   1
M  END
$$$$
default_name
  -OEChem-02102213163D

 34 33  0     1  0  0  0  0  0999 V2000
   -3.8899   -3.6747    1.6490 H   0  0  0  0  0  0  0  0  0  0  0  0
   -3.9109   -2.6717    1.2250 C   0  0  0  0  0  0  0  0  0  0  0  0
   -4.6009   -2.0517    1.7950 H   0  0  0  0  0  0  0  0  0  0  0  0
   -4.2309   -2.7237    0.1860 H   0  0  0  0  0  0  0  0  0  0  0  0
   -2.5229   -2.0787    1.2980 C   0  0  0  0  0  0  0  0  0  0  0  0
   -1.5999   -2.7227    1.7810 O   0  0  0  0  0  0  0  0  0  0  0  0
   -2.3659   -0.8447    0.8120 N   0  0  0  0  0  0  0  0  0  0  0  0
   -3.1749   -0.3807    0.4220 H   0  0  0  0  0  0  0  0  0  0  0  0
   -1.0919   -0.1077    0.8170 C   0  0  1  0  0  0  0  0  0  0  0  0
   -0.3571   -0.6901    0.2581 H   0  0  0  0  0  0  0  0  0  0  0  0
   -1.3037    1.2411    0.1040 C   0  0  0  0  0  0  0  0  0  0  0  0
   -2.2308    1.6856    0.4694 H   0  0  0  0  0  0  0  0  0  0  0  0
   -0.4815    1.9134    0.3566 H   0  0  0  0  0  0  0  0  0  0  0  0
   -1.3999    1.1110   -1.4238 C   0  0  0  0  0  0  0  0  0  0  0  0
   -2.4374    1.2319   -1.7383 H   0  0  0  0  0  0  0  0  0  0  0  0
   -0.7932    1.8899   -1.8898 H   0  0  0  0  0  0  0  0  0  0  0  0
   -0.8939   -0.2657   -1.8761 C   0  0  0  0  0  0  0  0  0  0  0  0
    0.1405   -0.3897   -1.5467 H   0  0  0  0  0  0  0  0  0  0  0  0
   -1.5096   -1.0405   -1.4148 H   0  0  0  0  0  0  0  0  0  0  0  0
   -0.9661   -0.3878   -3.4033 C   0  0  0  0  0  0  0  0  0  0  0  0
   -2.0075   -0.2532   -3.7133 H   0  0  0  0  0  0  0  0  0  0  0  0
   -0.3776    0.4220   -3.8450 H   0  0  0  0  0  0  0  0  0  0  0  0
   -0.4595   -1.7030   -3.8703 N   0  3  0  0  0  0  0  0  0  0  0  0
   -1.0070   -2.4562   -3.4731 H   0  0  0  0  0  0  0  0  0  0  0  0
   -0.5136   -1.7674   -4.8792 H   0  0  0  0  0  0  0  0  0  0  0  0
    0.5071   -1.8288   -3.5934 H   0  0  0  0  0  0  0  0  0  0  0  0
   -0.5865    0.0771    2.2496 C   0  0  0  0  0  0  0  0  0  0  0  0
    0.5860   -0.1608    2.5143 O   0  0  0  0  0  0  0  0  0  0  0  0
   -1.4786    0.4656    3.1667 N   0  0  0  0  0  0  0  0  0  0  0  0
   -2.4139    0.6698    2.8558 H   0  0  0  0  0  0  0  0  0  0  0  0
   -1.1587    0.6908    4.5775 C   0  0  0  0  0  0  0  0  0  0  0  0
   -0.4270    1.4968    4.6656 H   0  0  0  0  0  0  0  0  0  0  0  0
   -2.0565    0.9649    5.1327 H   0  0  0  0  0  0  0  0  0  0  0  0
   -0.7281   -0.2137    5.0125 H   0  0  0  0  0  0  0  0  0  0  0  0
  5  6  2  0  0  0  0
  5  7  1  0  0  0  0
  2  3  1  0  0  0  0
  2  4  1  0  0  0  0
  2  5  1  0  0  0  0
  1  2  1  0  0  0  0
 27 28  2  0  0  0  0
 27 29  1  0  0  0  0
 23 24  1  0  0  0  0
 23 25  1  0  0  0  0
 23 26  1  0  0  0  0
 20 21  1  0  0  0  0
 20 22  1  0  0  0  0
 20 23  1  0  0  0  0
 17 18  1  0  0  0  0
 17 19  1  0  0  0  0
 17 20  1  0  0  0  0
 14 15  1  0  0  0  0
 14 16  1  0  0  0  0
 14 17  1  0  0  0  0
 11 12  1  0  0  0  0
 11 13  1  0  0  0  0
 11 14  1  0  0  0  0
  9 10  1  0  0  0  0
  9 11  1  0  0  0  0
  9 27  1  0  0  0  0
  7  8  1  0  0  0  0
  7  9  1  0  0  0  0
 31 32  1  0  0  0  0
 31 33  1  0  0  0  0
 31 34  1  0  0  0  0
 29 30  1  0  0  0  0
 29 31  1  0  0  0  0
M  CHG  1  23   1
M  END
$$$$
default_name
  -OEChem-02102213163D

 34 33  0     1  0  0  0  0  0999 V2000
   -3.8899   -3.6747    1.6490 H   0  0  0  0  0  0  0  0  0  0  0  0
   -3.9109   -2.6717    1.2250 C   0  0  0  0  0  0  0  0  0  0  0  0
   -4.6009   -2.0517    1.7950 H   0  0  0  0  0  0  0  0  0  0  0  0
   -4.2309   -2.7237    0.1860 H   0  0  0  0  0  0  0  0  0  0  0  0
   -2.5229   -2.0787    1.2980 C   0  0  0  0  0  0  0  0  0  0  0  0
   -1.5999   -2.7227    1.7810 O   0  0  0  0  0  0  0  0  0  0  0  0
   -2.3659   -0.8447    0.8120 N   0  0  0  0  0  0  0  0  0  0  0  0
   -3.1749   -0.3807    0.4220 H   0  0  0  0  0  0  0  0  0  0  0  0
   -1.0919   -0.1077    0.8170 C   0  0  1  0  0  0  0  0  0  0  0  0
   -0.3571   -0.6901    0.2581 H   0  0  0  0  0  0  0  0  0  0  0  0
   -1.3037    1.2411    0.1040 C   0  0  0  0  0  0  0  0  0  0  0  0
   -2.2308    1.6856    0.4694 H   0  0  0  0  0  0  0  0  0  0  0  0
   -0.4815    1.9134    0.3566 H   0  0  0  0  0  0  0  0  0  0  0  0
   -1.3999    1.1110   -1.4238 C   0  0  0  0  0  0  0  0  0  0  0  0
   -2.3649    1.4886   -1.7647 H   0  0  0  0  0  0  0  0  0  0  0  0
   -0.6040    1.6986   -1.8854 H   0  0  0  0  0  0  0  0  0  0  0  0
   -1.2567   -0.3579   -1.8454 C   0  0  0  0  0  0  0  0  0  0  0  0
   -0.2959   -0.7375   -1.4896 H   0  0  0  0  0  0  0  0  0  0  0  0
   -2.0602   -0.9394   -1.3888 H   0  0  0  0  0  0  0  0  0  0  0  0
   -1.3277   -0.4864   -3.3721 C   0  0  0  0  0  0  0  0  0  0  0  0
   -2.2929   -0.0944   -3.7089 H   0  0  0  0  0  0  0  0  0  0  0  0
   -0.5419    0.1362   -3.8103 H   0  0  0  0  0  0  0  0  0  0  0  0
   -1.1678   -1.8963   -3.8093 N   0  3  0  0  0  0  0  0  0  0  0  0
   -1.8986   -2.4757   -3.4154 H   0  0  0  0  0  0  0  0  0  0  0  0
   -1.2167   -1.9639   -4.8183 H   0  0  0  0  0  0  0  0  0  0  0  0
   -0.2719   -2.2612   -3.5076 H   0  0  0  0  0  0  0  0  0  0  0  0
   -0.5865    0.0771    2.2496 C   0  0  0  0  0  0  0  0  0  0  0  0
    0.5860   -0.1608    2.5143 O   0  0  0  0  0  0  0  0  0  0  0  0
   -1.4786    0.4656    3.1667 N   0  0  0  0  0  0  0  0  0  0  0  0
   -2.4139    0.6698    2.8558 H   0  0  0  0  0  0  0  0  0  0  0  0
   -1.1587    0.6908    4.5775 C   0  0  0  0  0  0  0  0  0  0  0  0
   -0.4270    1.4968    4.6656 H   0  0  0  0  0  0  0  0  0  0  0  0
   -2.0565    0.9649    5.1327 H   0  0  0  0  0  0  0  0  0  0  0  0
   -0.7281   -0.2137    5.0125 H   0  0  0  0  0  0  0  0  0  0  0  0
  5  6  2  0  0  0  0
  5  7  1  0  0  0  0
  2  3  1  0  0  0  0
  2  4  1  0  0  0  0
  2  5  1  0  0  0  0
  1  2  1  0  0  0  0
 27 28  2  0  0  0  0
 27 29  1  0  0  0  0
 23 24  1  0  0  0  0
 23 25  1  0  0  0  0
 23 26  1  0  0  0  0
 20 21  1  0  0  0  0
 20 22  1  0  0  0  0
 20 23  1  0  0  0  0
 17 18  1  0  0  0  0
 17 19  1  0  0  0  0
 17 20  1  0  0  0  0
 14 15  1  0  0  0  0
 14 16  1  0  0  0  0
 14 17  1  0  0  0  0
 11 12  1  0  0  0  0
 11 13  1  0  0  0  0
 11 14  1  0  0  0  0
  9 10  1  0  0  0  0
  9 11  1  0  0  0  0
  9 27  1  0  0  0  0
  7  8  1  0  0  0  0
  7  9  1  0  0  0  0
 31 32  1  0  0  0  0
 31 33  1  0  0  0  0
 31 34  1  0  0  0  0
 29 30  1  0  0  0  0
 29 31  1  0  0  0  0
M  CHG  1  23   1
M  END
$$$$
default_name
  -OEChem-02102213163D

 34 33  0     1  0  0  0  0  0999 V2000
   -3.8899   -3.6747    1.6490 H   0  0  0  0  0  0  0  0  0  0  0  0
   -3.9109   -2.6717    1.2250 C   0  0  0  0  0  0  0  0  0  0  0  0
   -4.6009   -2.0517    1.7950 H   0  0  0  0  0  0  0  0  0  0  0  0
   -4.2309   -2.7237    0.1860 H   0  0  0  0  0  0  0  0  0  0  0  0
   -2.5229   -2.0787    1.2980 C   0  0  0  0  0  0  0  0  0  0  0  0
   -1.5999   -2.7227    1.7810 O   0  0  0  0  0  0  0  0  0  0  0  0
   -2.3659   -0.8447    0.8120 N   0  0  0  0  0  0  0  0  0  0  0  0
   -3.1749   -0.3807    0.4220 H   0  0  0  0  0  0  0  0  0  0  0  0
   -1.0919   -0.1077    0.8170 C   0  0  1  0  0  0  0  0  0  0  0  0
   -0.3571   -0.6901    0.2581 H   0  0  0  0  0  0  0  0  0  0  0  0
   -1.3037    1.2411    0.1040 C   0  0  0  0  0  0  0  0  0  0  0  0
   -2.2308    1.6856    0.4694 H   0  0  0  0  0  0  0  0  0  0  0  0
   -0.4815    1.9134    0.3566 H   0  0  0  0  0  0  0  0  0  0  0  0
   -1.3999    1.1110   -1.4238 C   0  0  0  0  0  0  0  0  0  0  0  0
   -2.2281    1.7176   -1.7928 H   0  0  0  0  0  0  0  0  0  0  0  0
   -0.4705    1.4652   -1.8739 H   0  0  0  0  0  0  0  0  0  0  0  0
   -1.6316   -0.3531   -1.8222 C   0  0  0  0  0  0  0  0  0  0  0  0
   -0.8082   -0.9601   -1.4384 H   0  0  0  0  0  0  0  0  0  0  0  0
   -2.5666   -0.6995   -1.3773 H   0  0  0  0  0  0  0  0  0  0  0  0
   -1.7031   -0.4881   -3.3484 C   0  0  0  0  0  0  0  0  0  0  0  0
   -2.5279    0.1325   -3.7134 H   0  0  0  0  0  0  0  0  0  0  0  0
   -0.7748   -0.0970   -3.7758 H   0  0  0  0  0  0  0  0  0  0  0  0
   -1.9031   -1.8998   -3.7627 N   0  3  0  0  0  0  0  0  0  0  0  0
   -2.7660   -2.2641   -3.3788 H   0  0  0  0  0  0  0  0  0  0  0  0
   -1.9477   -1.9717   -4.7716 H   0  0  0  0  0  0  0  0  0  0  0  0
   -1.1375   -2.4770   -3.4347 H   0  0  0  0  0  0  0  0  0  0  0  0
   -0.5865    0.0771    2.2496 C   0  0  0  0  0  0  0  0  0  0  0  0
    0.5860   -0.1608    2.5143 O   0  0  0  0  0  0  0  0  0  0  0  0
   -1.4786    0.4656    3.1667 N   0  0  0  0  0  0  0  0  0  0  0  0
   -2.4139    0.6698    2.8558 H   0  0  0  0  0  0  0  0  0  0  0  0
   -1.1587    0.6908    4.5775 C   0  0  0  0  0  0  0  0  0  0  0  0
   -0.4270    1.4968    4.6656 H   0  0  0  0  0  0  0  0  0  0  0  0
   -2.0565    0.9649    5.1327 H   0  0  0  0  0  0  0  0  0  0  0  0
   -0.7281   -0.2137    5.0125 H   0  0  0  0  0  0  0  0  0  0  0  0
  5  6  2  0  0  0  0
  5  7  1  0  0  0  0
  2  3  1  0  0  0  0
  2  4  1  0  0  0  0
  2  5  1  0  0  0  0
  1  2  1  0  0  0  0
 27 28  2  0  0  0  0
 27 29  1  0  0  0  0
 23 24  1  0  0  0  0
 23 25  1  0  0  0  0
 23 26  1  0  0  0  0
 20 21  1  0  0  0  0
 20 22  1  0  0  0  0
 20 23  1  0  0  0  0
 17 18  1  0  0  0  0
 17 19  1  0  0  0  0
 17 20  1  0  0  0  0
 14 15  1  0  0  0  0
 14 16  1  0  0  0  0
 14 17  1  0  0  0  0
 11 12  1  0  0  0  0
 11 13  1  0  0  0  0
 11 14  1  0  0  0  0
  9 10  1  0  0  0  0
  9 11  1  0  0  0  0
  9 27  1  0  0  0  0
  7  8  1  0  0  0  0
  7  9  1  0  0  0  0
 31 32  1  0  0  0  0
 31 33  1  0  0  0  0
 31 34  1  0  0  0  0
 29 30  1  0  0  0  0
 29 31  1  0  0  0  0
M  CHG  1  23   1
M  END
$$$$
default_name
  -OEChem-02102213163D

 34 33  0     1  0  0  0  0  0999 V2000
   -3.8899   -3.6747    1.6490 H   0  0  0  0  0  0  0  0  0  0  0  0
   -3.9109   -2.6717    1.2250 C   0  0  0  0  0  0  0  0  0  0  0  0
   -4.6009   -2.0517    1.7950 H   0  0  0  0  0  0  0  0  0  0  0  0
   -4.2309   -2.7237    0.1860 H   0  0  0  0  0  0  0  0  0  0  0  0
   -2.5229   -2.0787    1.2980 C   0  0  0  0  0  0  0  0  0  0  0  0
   -1.5999   -2.7227    1.7810 O   0  0  0  0  0  0  0  0  0  0  0  0
   -2.3659   -0.8447    0.8120 N   0  0  0  0  0  0  0  0  0  0  0  0
   -3.1749   -0.3807    0.4220 H   0  0  0  0  0  0  0  0  0  0  0  0
   -1.0919   -0.1077    0.8170 C   0  0  1  0  0  0  0  0  0  0  0  0
   -0.3571   -0.6901    0.2581 H   0  0  0  0  0  0  0  0  0  0  0  0
   -1.3037    1.2411    0.1040 C   0  0  0  0  0  0  0  0  0  0  0  0
   -2.2308    1.6856    0.4694 H   0  0  0  0  0  0  0  0  0  0  0  0
   -0.4815    1.9134    0.3566 H   0  0  0  0  0  0  0  0  0  0  0  0
   -1.3999    1.1110   -1.4238 C   0  0  0  0  0  0  0  0  0  0  0  0
   -2.0365    1.9030   -1.8206 H   0  0  0  0  0  0  0  0  0  0  0  0
   -0.4019    1.2056   -1.8562 H   0  0  0  0  0  0  0  0  0  0  0  0
   -1.9930   -0.2516   -1.8081 C   0  0  0  0  0  0  0  0  0  0  0  0
   -1.3614   -1.0426   -1.3965 H   0  0  0  0  0  0  0  0  0  0  0  0
   -2.9942   -0.3373   -1.3812 H   0  0  0  0  0  0  0  0  0  0  0  0
   -2.0666   -0.3928   -3.3336 C   0  0  0  0  0  0  0  0  0  0  0  0
   -2.6964    0.4120   -3.7266 H   0  0  0  0  0  0  0  0  0  0  0  0
   -1.0607   -0.2618   -3.7438 H   0  0  0  0  0  0  0  0  0  0  0  0
   -2.6152   -1.7131   -3.7338 N   0  3  0  0  0  0  0  0  0  0  0  0
   -3.5503   -1.8358   -3.3658 H   0  0  0  0  0  0  0  0  0  0  0  0
   -2.6569   -1.7904   -4.7424 H   0  0  0  0  0  0  0  0  0  0  0  0
   -2.0308   -2.4614   -3.3798 H   0  0  0  0  0  0  0  0  0  0  0  0
   -0.5865    0.0771    2.2496 C   0  0  0  0  0  0  0  0  0  0  0  0
    0.5860   -0.1608    2.5143 O   0  0  0  0  0  0  0  0  0  0  0  0
   -1.4786    0.4656    3.1667 N   0  0  0  0  0  0  0  0  0  0  0  0
   -2.4139    0.6698    2.8558 H   0  0  0  0  0  0  0  0  0  0  0  0
   -1.1587    0.6908    4.5775 C   0  0  0  0  0  0  0  0  0  0  0  0
   -0.4270    1.4968    4.6656 H   0  0  0  0  0  0  0  0  0  0  0  0
   -2.0565    0.9649    5.1327 H   0  0  0  0  0  0  0  0  0  0  0  0
   -0.7281   -0.2137    5.0125 H   0  0  0  0  0  0  0  0  0  0  0  0
  5  6  2  0  0  0  0
  5  7  1  0  0  0  0
  2  3  1  0  0  0  0
  2  4  1  0  0  0  0
  2  5  1  0  0  0  0
  1  2  1  0  0  0  0
 27 28  2  0  0  0  0
 27 29  1  0  0  0  0
 23 24  1  0  0  0  0
 23 25  1  0  0  0  0
 23 26  1  0  0  0  0
 20 21  1  0  0  0  0
 20 22  1  0  0  0  0
 20 23  1  0  0  0  0
 17 18  1  0  0  0  0
 17 19  1  0  0  0  0
 17 20  1  0  0  0  0
 14 15  1  0  0  0  0
 14 16  1  0  0  0  0
 14 17  1  0  0  0  0
 11 12  1  0  0  0  0
 11 13  1  0  0  0  0
 11 14  1  0  0  0  0
  9 10  1  0  0  0  0
  9 11  1  0  0  0  0
  9 27  1  0  0  0  0
  7  8  1  0  0  0  0
  7  9  1  0  0  0  0
 31 32  1  0  0  0  0
 31 33  1  0  0  0  0
 31 34  1  0  0  0  0
 29 30  1  0  0  0  0
 29 31  1  0  0  0  0
M  CHG  1  23   1
M  END
$$$$
default_name
  -OEChem-02102213163D

 34 33  0     1  0  0  0  0  0999 V2000
   -3.8899   -3.6747    1.6490 H   0  0  0  0  0  0  0  0  0  0  0  0
   -3.9109   -2.6717    1.2250 C   0  0  0  0  0  0  0  0  0  0  0  0
   -4.6009   -2.0517    1.7950 H   0  0  0  0  0  0  0  0  0  0  0  0
   -4.2309   -2.7237    0.1860 H   0  0  0  0  0  0  0  0  0  0  0  0
   -2.5229   -2.0787    1.2980 C   0  0  0  0  0  0  0  0  0  0  0  0
   -1.5999   -2.7227    1.7810 O   0  0  0  0  0  0  0  0  0  0  0  0
   -2.3659   -0.8447    0.8120 N   0  0  0  0  0  0  0  0  0  0  0  0
   -3.1749   -0.3807    0.4220 H   0  0  0  0  0  0  0  0  0  0  0  0
   -1.0919   -0.1077    0.8170 C   0  0  1  0  0  0  0  0  0  0  0  0
   -0.3571   -0.6901    0.2581 H   0  0  0  0  0  0  0  0  0  0  0  0
   -1.3037    1.2411    0.1040 C   0  0  0  0  0  0  0  0  0  0  0  0
   -2.2308    1.6856    0.4694 H   0  0  0  0  0  0  0  0  0  0  0  0
   -0.4815    1.9134    0.3566 H   0  0  0  0  0  0  0  0  0  0  0  0
   -1.3999    1.1110   -1.4238 C   0  0  0  0  0  0  0  0  0  0  0  0
   -1.8031    2.0324   -1.8463 H   0  0  0  0  0  0  0  0  0  0  0  0
   -0.4029    0.9375   -1.8333 H   0  0  0  0  0  0  0  0  0  0  0  0
   -2.3162   -0.0603   -1.8040 C   0  0  0  0  0  0  0  0  0  0  0  0
   -1.9180   -0.9791   -1.3669 H   0  0  0  0  0  0  0  0  0  0  0  0
   -3.3140    0.1226   -1.4002 H   0  0  0  0  0  0  0  0  0  0  0  0
   -2.3935   -0.2068   -3.3288 C   0  0  0  0  0  0  0  0  0  0  0  0
   -2.7868    0.7252   -3.7475 H   0  0  0  0  0  0  0  0  0  0  0  0
   -1.3799   -0.3468   -3.7164 H   0  0  0  0  0  0  0  0  0  0  0  0
   -3.2556   -1.3491   -3.7244 N   0  3  0  0  0  0  0  0  0  0  0  0
   -4.1979   -1.2201   -3.3775 H   0  0  0  0  0  0  0  0  0  0  0  0
   -3.2958   -1.4322   -4.7326 H   0  0  0  0  0  0  0  0  0  0  0  0
   -2.8908   -2.2156   -3.3466 H   0  0  0  0  0  0  0  0  0  0  0  0
   -0.5865    0.0771    2.2496 C   0  0  0  0  0  0  0  0  0  0  0  0
    0.5860   -0.1608    2.5143 O   0  0  0  0  0  0  0  0  0  0  0  0
   -1.4786    0.4656    3.1667 N   0  0  0  0  0  0  0  0  0  0  0  0
   -2.4139    0.6698    2.8558 H   0  0  0  0  0  0  0  0  0  0  0  0
   -1.1587    0.6908    4.5775 C   0  0  0  0  0  0  0  0  0  0  0  0
   -0.4270    1.4968    4.6656 H   0  0  0  0  0  0  0  0  0  0  0  0
   -2.0565    0.9649    5.1327 H   0  0  0  0  0  0  0  0  0  0  0  0
   -0.7281   -0.2137    5.0125 H   0  0  0  0  0  0  0  0  0  0  0  0
  5  6  2  0  0  0  0
  5  7  1  0  0  0  0
  2  3  1  0  0  0  0
  2  4  1  0  0  0  0
  2  5  1  0  0  0  0
  1  2  1  0  0  0  0
 27 28  2  0  0  0  0
 27 29  1  0  0  0  0
 23 24  1  0  0  0  0
 23 25  1  0  0  0  0
 23 26  1  0  0  0  0
 20 21  1  0  0  0  0
 20 22  1  0  0  0  0
 20 23  1  0  0  0  0
 17 18  1  0  0  0  0
 17 19  1  0  0  0  0
 17 20  1  0  0  0  0
 14 15  1  0  0  0  0
 14 16  1  0  0  0  0
 14 17  1  0  0  0  0
 11 12  1  0  0  0  0
 11 13  1  0  0  0  0
 11 14  1  0  0  0  0
  9 10  1  0  0  0  0
  9 11  1  0  0  0  0
  9 27  1  0  0  0  0
  7  8  1  0  0  0  0
  7  9  1  0  0  0  0
 31 32  1  0  0  0  0
 31 33  1  0  0  0  0
 31 34  1  0  0  0  0
 29 30  1  0  0  0  0
 29 31  1  0  0  0  0
M  CHG  1  23   1
M  END
$$$$
default_name
  -OEChem-02102213163D

 34 33  0     1  0  0  0  0  0999 V2000
   -3.8899   -3.6747    1.6490 H   0  0  0  0  0  0  0  0  0  0  0  0
   -3.9109   -2.6717    1.2250 C   0  0  0  0  0  0  0  0  0  0  0  0
   -4.6009   -2.0517    1.7950 H   0  0  0  0  0  0  0  0  0  0  0  0
   -4.2309   -2.7237    0.1860 H   0  0  0  0  0  0  0  0  0  0  0  0
   -2.5229   -2.0787    1.2980 C   0  0  0  0  0  0  0  0  0  0  0  0
   -1.5999   -2.7227    1.7810 O   0  0  0  0  0  0  0  0  0  0  0  0
   -2.3659   -0.8447    0.8120 N   0  0  0  0  0  0  0  0  0  0  0  0
   -3.1749   -0.3807    0.4220 H   0  0  0  0  0  0  0  0  0  0  0  0
   -1.0919   -0.1077    0.8170 C   0  0  1  0  0  0  0  0  0  0  0  0
   -0.3571   -0.6901    0.2581 H   0  0  0  0  0  0  0  0  0  0  0  0
   -1.3037    1.2411    0.1040 C   0  0  0  0  0  0  0  0  0  0  0  0
   -2.2308    1.6856    0.4694 H   0  0  0  0  0  0  0  0  0  0  0  0
   -0.4815    1.9134    0.3566 H   0  0  0  0  0  0  0  0  0  0  0  0
   -1.3999    1.1110   -1.4238 C   0  0  0  0  0  0  0  0  0  0  0  0
   -1.5437    2.0968   -1.8681 H   0  0  0  0  0  0  0  0  0  0  0  0
   -0.4733    0.6791   -1.8068 H   0  0  0  0  0  0  0  0  0  0  0  0
   -2.5793    0.2078   -1.8103 C   0  0  0  0  0  0  0  0  0  0  0  0
   -2.4398   -0.7740   -1.3515 H   0  0  0  0  0  0  0  0  0  0  0  0
   -3.5041    0.6488   -1.4330 H   0  0  0  0  0  0  0  0  0  0  0  0
   -2.6615    0.0570   -3.3344 C   0  0  0  0  0  0  0  0  0  0  0  0
   -2.7932    1.0506   -3.7749 H   0  0  0  0  0  0  0  0  0  0  0  0
   -1.7107   -0.3464   -3.6956 H   0  0  0  0  0  0  0  0  0  0  0  0
   -3.7808   -0.8324   -3.7354 N   0  3  0  0  0  0  0  0  0  0  0  0
   -4.6647   -0.4589   -3.4129 H   0  0  0  0  0  0  0  0  0  0  0  0
   -3.8211   -0.9217   -4.7430 H   0  0  0  0  0  0  0  0  0  0  0  0
   -3.6590   -1.7563   -3.3373 H   0  0  0  0  0  0  0  0  0  0  0  0
   -0.5865    0.0771    2.2496 C   0  0  0  0  0  0  0  0  0  0  0  0
    0.5860   -0.1608    2.5143 O   0  0  0  0  0  0  0  0  0  0  0  0
   -1.4786    0.4656    3.1667 N   0  0  0  0  0  0  0  0  0  0  0  0
   -2.4139    0.6698    2.8558 H   0  0  0  0  0  0  0  0  0  0  0  0
   -1.1587    0.6908    4.5775 C   0  0  0  0  0  0  0  0  0  0  0  0
   -0.4270    1.4968    4.6656 H   0  0  0  0  0  0  0  0  0  0  0  0
   -2.0565    0.9649    5.1327 H   0  0  0  0  0  0  0  0  0  0  0  0
   -0.7281   -0.2137    5.0125 H   0  0  0  0  0  0  0  0  0  0  0  0
  5  6  2  0  0  0  0
  5  7  1  0  0  0  0
  2  3  1  0  0  0  0
  2  4  1  0  0  0  0
  2  5  1  0  0  0  0
  1  2  1  0  0  0  0
 27 28  2  0  0  0  0
 27 29  1  0  0  0  0
 23 24  1  0  0  0  0
 23 25  1  0  0  0  0
 23 26  1  0  0  0  0
 20 21  1  0  0  0  0
 20 22  1  0  0  0  0
 20 23  1  0  0  0  0
 17 18  1  0  0  0  0
 17 19  1  0  0  0  0
 17 20  1  0  0  0  0
 14 15  1  0  0  0  0
 14 16  1  0  0  0  0
 14 17  1  0  0  0  0
 11 12  1  0  0  0  0
 11 13  1  0  0  0  0
 11 14  1  0  0  0  0
  9 10  1  0  0  0  0
  9 11  1  0  0  0  0
  9 27  1  0  0  0  0
  7  8  1  0  0  0  0
  7  9  1  0  0  0  0
 31 32  1  0  0  0  0
 31 33  1  0  0  0  0
 31 34  1  0  0  0  0
 29 30  1  0  0  0  0
 29 31  1  0  0  0  0
M  CHG  1  23   1
M  END
$$$$
default_name
  -OEChem-02102213163D

 34 33  0     1  0  0  0  0  0999 V2000
   -3.8899   -3.6747    1.6490 H   0  0  0  0  0  0  0  0  0  0  0  0
   -3.9109   -2.6717    1.2250 C   0  0  0  0  0  0  0  0  0  0  0  0
   -4.6009   -2.0517    1.7950 H   0  0  0  0  0  0  0  0  0  0  0  0
   -4.2309   -2.7237    0.1860 H   0  0  0  0  0  0  0  0  0  0  0  0
   -2.5229   -2.0787    1.2980 C   0  0  0  0  0  0  0  0  0  0  0  0
   -1.5999   -2.7227    1.7810 O   0  0  0  0  0  0  0  0  0  0  0  0
   -2.3659   -0.8447    0.8120 N   0  0  0  0  0  0  0  0  0  0  0  0
   -3.1749   -0.3807    0.4220 H   0  0  0  0  0  0  0  0  0  0  0  0
   -1.0919   -0.1077    0.8170 C   0  0  1  0  0  0  0  0  0  0  0  0
   -0.3571   -0.6901    0.2581 H   0  0  0  0  0  0  0  0  0  0  0  0
   -1.3037    1.2411    0.1040 C   0  0  0  0  0  0  0  0  0  0  0  0
   -2.2308    1.6856    0.4694 H   0  0  0  0  0  0  0  0  0  0  0  0
   -0.4815    1.9134    0.3566 H   0  0  0  0  0  0  0  0  0  0  0  0
   -1.3999    1.1110   -1.4238 C   0  0  0  0  0  0  0  0  0  0  0  0
   -1.2761    2.0920   -1.8846 H   0  0  0  0  0  0  0  0  0  0  0  0
   -0.6084    0.4481   -1.7787 H   0  0  0  0  0  0  0  0  0  0  0  0
   -2.7642    0.5343   -1.8264 C   0  0  0  0  0  0  0  0  0  0  0  0
   -2.8915   -0.4414   -1.3514 H   0  0  0  0  0  0  0  0  0  0  0  0
   -3.5516    1.2054   -1.4774 H   0  0  0  0  0  0  0  0  0  0  0  0
   -2.8524    0.3807   -3.3499 C   0  0  0  0  0  0  0  0  0  0  0  0
   -2.7149    1.3662   -3.8066 H   0  0  0  0  0  0  0  0  0  0  0  0
   -2.0306   -0.2605   -3.6828 H   0  0  0  0  0  0  0  0  0  0  0  0
   -4.1548   -0.1984   -3.7658 N   0  3  0  0  0  0  0  0  0  0  0  0
   -4.9189    0.3960   -3.4696 H   0  0  0  0  0  0  0  0  0  0  0  0
   -4.1968   -0.2935   -4.7728 H   0  0  0  0  0  0  0  0  0  0  0  0
   -4.2829   -1.1148   -3.3526 H   0  0  0  0  0  0  0  0  0  0  0  0
   -0.5865    0.0771    2.2496 C   0  0  0  0  0  0  0  0  0  0  0  0
    0.5860   -0.1608    2.5143 O   0  0  0  0  0  0  0  0  0  0  0  0
   -1.4786    0.4656    3.1667 N   0  0  0  0  0  0  0  0  0  0  0  0
   -2.4139    0.6698    2.8558 H   0  0  0  0  0  0  0  0  0  0  0  0
   -1.1587    0.6908    4.5775 C   0  0  0  0  0  0  0  0  0  0  0  0
   -0.4270    1.4968    4.6656 H   0  0  0  0  0  0  0  0  0  0  0  0
   -2.0565    0.9649    5.1327 H   0  0  0  0  0  0  0  0  0  0  0  0
   -0.7281   -0.2137    5.0125 H   0  0  0  0  0  0  0  0  0  0  0  0
  5  6  2  0  0  0  0
  5  7  1  0  0  0  0
  2  3  1  0  0  0  0
  2  4  1  0  0  0  0
  2  5  1  0  0  0  0
  1  2  1  0  0  0  0
 27 28  2  0  0  0  0
 27 29  1  0  0  0  0
 23 24  1  0  0  0  0
 23 25  1  0  0  0  0
 23 26  1  0  0  0  0
 20 21  1  0  0  0  0
 20 22  1  0  0  0  0
 20 23  1  0  0  0  0
 17 18  1  0  0  0  0
 17 19  1  0  0  0  0
 17 20  1  0  0  0  0
 14 15  1  0  0  0  0
 14 16  1  0  0  0  0
 14 17  1  0  0  0  0
 11 12  1  0  0  0  0
 11 13  1  0  0  0  0
 11 14  1  0  0  0  0
  9 10  1  0  0  0  0
  9 11  1  0  0  0  0
  9 27  1  0  0  0  0
  7  8  1  0  0  0  0
  7  9  1  0  0  0  0
 31 32  1  0  0  0  0
 31 33  1  0  0  0  0
 31 34  1  0  0  0  0
 29 30  1  0  0  0  0
 29 31  1  0  0  0  0
M  CHG  1  23   1
M  END
$$$$
default_name
  -OEChem-02102213163D

 34 33  0     1  0  0  0  0  0999 V2000
   -3.8899   -3.6747    1.6490 H   0  0  0  0  0  0  0  0  0  0  0  0
   -3.9109   -2.6717    1.2250 C   0  0  0  0  0  0  0  0  0  0  0  0
   -4.6009   -2.0517    1.7950 H   0  0  0  0  0  0  0  0  0  0  0  0
   -4.2309   -2.7237    0.1860 H   0  0  0  0  0  0  0  0  0  0  0  0
   -2.5229   -2.0787    1.2980 C   0  0  0  0  0  0  0  0  0  0  0  0
   -1.5999   -2.7227    1.7810 O   0  0  0  0  0  0  0  0  0  0  0  0
   -2.3659   -0.8447    0.8120 N   0  0  0  0  0  0  0  0  0  0  0  0
   -3.1749   -0.3807    0.4220 H   0  0  0  0  0  0  0  0  0  0  0  0
   -1.0919   -0.1077    0.8170 C   0  0  1  0  0  0  0  0  0  0  0  0
   -0.3571   -0.6901    0.2581 H   0  0  0  0  0  0  0  0  0  0  0  0
   -1.3037    1.2411    0.1040 C   0  0  0  0  0  0  0  0  0  0  0  0
   -2.2308    1.6856    0.4694 H   0  0  0  0  0  0  0  0  0  0  0  0
   -0.4815    1.9134    0.3566 H   0  0  0  0  0  0  0  0  0  0  0  0
   -1.3999    1.1110   -1.4238 C   0  0  0  0  0  0  0  0  0  0  0  0
   -1.0186    2.0182   -1.8945 H   0  0  0  0  0  0  0  0  0  0  0  0
   -0.7990    0.2602   -1.7507 H   0  0  0  0  0  0  0  0  0  0  0  0
   -2.8585    0.8970   -1.8513 C   0  0  0  0  0  0  0  0  0  0  0  0
   -3.2422   -0.0039   -1.3665 H   0  0  0  0  0  0  0  0  0  0  0  0
   -3.4532    1.7546   -1.5303 H   0  0  0  0  0  0  0  0  0  0  0  0
   -2.9531    0.7422   -3.3744 C   0  0  0  0  0  0  0  0  0  0  0  0
   -2.5574    1.6503   -3.8407 H   0  0  0  0  0  0  0  0  0  0  0  0
   -2.3177   -0.0950   -3.6788 H   0  0  0  0  0  0  0  0  0  0  0  0
   -4.3522    0.5098   -3.8136 N   0  3  0  0  0  0  0  0  0  0  0  0
   -4.9431    1.2863   -3.5439 H   0  0  0  0  0  0  0  0  0  0  0  0
   -4.3973    0.4095   -4.8200 H   0  0  0  0  0  0  0  0  0  0  0  0
   -4.7202   -0.3347   -3.3915 H   0  0  0  0  0  0  0  0  0  0  0  0
   -0.5865    0.0771    2.2496 C   0  0  0  0  0  0  0  0  0  0  0  0
    0.5860   -0.1608    2.5143 O   0  0  0  0  0  0  0  0  0  0  0  0
   -1.4786    0.4656    3.1667 N   0  0  0  0  0  0  0  0  0  0  0  0
   -2.4139    0.6698    2.8558 H   0  0  0  0  0  0  0  0  0  0  0  0
   -1.1587    0.6908    4.5775 C   0  0  0  0  0  0  0  0  0  0  0  0
   -0.4270    1.4968    4.6656 H   0  0  0  0  0  0  0  0  0  0  0  0
   -2.0565    0.9649    5.1327 H   0  0  0  0  0  0  0  0  0  0  0  0
   -0.7281   -0.2137    5.0125 H   0  0  0  0  0  0  0  0  0  0  0  0
  5  6  2  0  0  0  0
  5  7  1  0  0  0  0
  2  3  1  0  0  0  0
  2  4  1  0  0  0  0
  2  5  1  0  0  0  0
  1  2  1  0  0  0  0
 27 28  2  0  0  0  0
 27 29  1  0  0  0  0
 23 24  1  0  0  0  0
 23 25  1  0  0  0  0
 23 26  1  0  0  0  0
 20 21  1  0  0  0  0
 20 22  1  0  0  0  0
 20 23  1  0  0  0  0
 17 18  1  0  0  0  0
 17 19  1  0  0  0  0
 17 20  1  0  0  0  0
 14 15  1  0  0  0  0
 14 16  1  0  0  0  0
 14 17  1  0  0  0  0
 11 12  1  0  0  0  0
 11 13  1  0  0  0  0
 11 14  1  0  0  0  0
  9 10  1  0  0  0  0
  9 11  1  0  0  0  0
  9 27  1  0  0  0  0
  7  8  1  0  0  0  0
  7  9  1  0  0  0  0
 31 32  1  0  0  0  0
 31 33  1  0  0  0  0
 31 34  1  0  0  0  0
 29 30  1  0  0  0  0
 29 31  1  0  0  0  0
M  CHG  1  23   1
M  END
$$$$
default_name
  -OEChem-02102213163D

 34 33  0     1  0  0  0  0  0999 V2000
   -3.8899   -3.6747    1.6490 H   0  0  0  0  0  0  0  0  0  0  0  0
   -3.9109   -2.6717    1.2250 C   0  0  0  0  0  0  0  0  0  0  0  0
   -4.6009   -2.0517    1.7950 H   0  0  0  0  0  0  0  0  0  0  0  0
   -4.2309   -2.7237    0.1860 H   0  0  0  0  0  0  0  0  0  0  0  0
   -2.5229   -2.0787    1.2980 C   0  0  0  0  0  0  0  0  0  0  0  0
   -1.5999   -2.7227    1.7810 O   0  0  0  0  0  0  0  0  0  0  0  0
   -2.3659   -0.8447    0.8120 N   0  0  0  0  0  0  0  0  0  0  0  0
   -3.1749   -0.3807    0.4220 H   0  0  0  0  0  0  0  0  0  0  0  0
   -1.0919   -0.1077    0.8170 C   0  0  1  0  0  0  0  0  0  0  0  0
   -0.3571   -0.6901    0.2581 H   0  0  0  0  0  0  0  0  0  0  0  0
   -1.3037    1.2411    0.1040 C   0  0  0  0  0  0  0  0  0  0  0  0
   -2.2308    1.6856    0.4694 H   0  0  0  0  0  0  0  0  0  0  0  0
   -0.4815    1.9134    0.3566 H   0  0  0  0  0  0  0  0  0  0  0  0
   -1.3999    1.1110   -1.4238 C   0  0  0  0  0  0  0  0  0  0  0  0
   -0.7885    1.8804   -1.8973 H   0  0  0  0  0  0  0  0  0  0  0  0
   -1.0321    0.1282   -1.7248 H   0  0  0  0  0  0  0  0  0  0  0  0
   -2.8557    1.2713   -1.8834 C   0  0  0  0  0  0  0  0  0  0  0  0
   -3.4679    0.5087   -1.3960 H   0  0  0  0  0  0  0  0  0  0  0  0
   -3.2156    2.2589   -1.5882 H   0  0  0  0  0  0  0  0  0  0  0  0
   -2.9568    1.1169   -3.4060 C   0  0  0  0  0  0  0  0  0  0  0  0
   -2.3314    1.8837   -3.8748 H   0  0  0  0  0  0  0  0  0  0  0  0
   -2.5526    0.1389   -3.6839 H   0  0  0  0  0  0  0  0  0  0  0  0
   -4.3596    1.2439   -3.8756 N   0  3  0  0  0  0  0  0  0  0  0  0
   -4.7358    2.1512   -3.6306 H   0  0  0  0  0  0  0  0  0  0  0  0
   -4.4091    1.1394   -4.8814 H   0  0  0  0  0  0  0  0  0  0  0  0
   -4.9410    0.5306   -3.4512 H   0  0  0  0  0  0  0  0  0  0  0  0
   -0.5865    0.0771    2.2496 C   0  0  0  0  0  0  0  0  0  0  0  0
    0.5860   -0.1608    2.5143 O   0  0  0  0  0  0  0  0  0  0  0  0
   -1.4786    0.4656    3.1667 N   0  0  0  0  0  0  0  0  0  0  0  0
   -2.4139    0.6698    2.8558 H   0  0  0  0  0  0  0  0  0  0  0  0
   -1.1587    0.6908    4.5775 C   0  0  0  0  0  0  0  0  0  0  0  0
   -0.4270    1.4968    4.6656 H   0  0  0  0  0  0  0  0  0  0  0  0
   -2.0565    0.9649    5.1327 H   0  0  0  0  0  0  0  0  0  0  0  0
   -0.7281   -0.2137    5.0125 H   0  0  0  0  0  0  0  0  0  0  0  0
  5  6  2  0  0  0  0
  5  7  1  0  0  0  0
  2  3  1  0  0  0  0
  2  4  1  0  0  0  0
  2  5  1  0  0  0  0
  1  2  1  0  0  0  0
 27 28  2  0  0  0  0
 27 29  1  0  0  0  0
 23 24  1  0  0  0  0
 23 25  1  0  0  0  0
 23 26  1  0  0  0  0
 20 21  1  0  0  0  0
 20 22  1  0  0  0  0
 20 23  1  0  0  0  0
 17 18  1  0  0  0  0
 17 19  1  0  0  0  0
 17 20  1  0  0  0  0
 14 15  1  0  0  0  0
 14 16  1  0  0  0  0
 14 17  1  0  0  0  0
 11 12  1  0  0  0  0
 11 13  1  0  0  0  0
 11 14  1  0  0  0  0
  9 10  1  0  0  0  0
  9 11  1  0  0  0  0
  9 27  1  0  0  0  0
  7  8  1  0  0  0  0
  7  9  1  0  0  0  0
 31 32  1  0  0  0  0
 31 33  1  0  0  0  0
 31 34  1  0  0  0  0
 29 30  1  0  0  0  0
 29 31  1  0  0  0  0
M  CHG  1  23   1
M  END
$$$$
default_name
  -OEChem-02102213163D

 34 33  0     1  0  0  0  0  0999 V2000
   -3.8899   -3.6747    1.6490 H   0  0  0  0  0  0  0  0  0  0  0  0
   -3.9109   -2.6717    1.2250 C   0  0  0  0  0  0  0  0  0  0  0  0
   -4.6009   -2.0517    1.7950 H   0  0  0  0  0  0  0  0  0  0  0  0
   -4.2309   -2.7237    0.1860 H   0  0  0  0  0  0  0  0  0  0  0  0
   -2.5229   -2.0787    1.2980 C   0  0  0  0  0  0  0  0  0  0  0  0
   -1.5999   -2.7227    1.7810 O   0  0  0  0  0  0  0  0  0  0  0  0
   -2.3659   -0.8447    0.8120 N   0  0  0  0  0  0  0  0  0  0  0  0
   -3.1749   -0.3807    0.4220 H   0  0  0  0  0  0  0  0  0  0  0  0
   -1.0919   -0.1077    0.8170 C   0  0  1  0  0  0  0  0  0  0  0  0
   -0.3571   -0.6901    0.2581 H   0  0  0  0  0  0  0  0  0  0  0  0
   -1.3037    1.2411    0.1040 C   0  0  0  0  0  0  0  0  0  0  0  0
   -2.2308    1.6856    0.4694 H   0  0  0  0  0  0  0  0  0  0  0  0
   -0.4815    1.9134    0.3566 H   0  0  0  0  0  0  0  0  0  0  0  0
   -1.3999    1.1110   -1.4238 C   0  0  0  0  0  0  0  0  0  0  0  0
   -0.6018    1.6881   -1.8926 H   0  0  0  0  0  0  0  0  0  0  0  0
   -1.2918    0.0611   -1.7027 H   0  0  0  0  0  0  0  0  0  0  0  0
   -2.7559    1.6315   -1.9203 C   0  0  0  0  0  0  0  0  0  0  0  0
   -3.5534    1.0615   -1.4376 H   0  0  0  0  0  0  0  0  0  0  0  0
   -2.8551    2.6839   -1.6471 H   0  0  0  0  0  0  0  0  0  0  0  0
   -2.8632    1.4794   -3.4428 C   0  0  0  0  0  0  0  0  0  0  0  0
   -2.0523    2.0504   -3.9066 H   0  0  0  0  0  0  0  0  0  0  0  0
   -2.7191    0.4251   -3.6978 H   0  0  0  0  0  0  0  0  0  0  0  0
   -4.1764    1.9538   -3.9476 N   0  3  0  0  0  0  0  0  0  0  0  0
   -4.3110    2.9319   -3.7237 H   0  0  0  0  0  0  0  0  0  0  0  0
   -4.2312    1.8465   -4.9528 H   0  0  0  0  0  0  0  0  0  0  0  0
   -4.9302    1.4223   -3.5278 H   0  0  0  0  0  0  0  0  0  0  0  0
   -0.5865    0.0771    2.2496 C   0  0  0  0  0  0  0  0  0  0  0  0
    0.5860   -0.1608    2.5143 O   0  0  0  0  0  0  0  0  0  0  0  0
   -1.4786    0.4656    3.1667 N   0  0  0  0  0  0  0  0  0  0  0  0
   -2.4139    0.6698    2.8558 H   0  0  0  0  0  0  0  0  0  0  0  0
   -1.1587    0.6908    4.5775 C   0  0  0  0  0  0  0  0  0  0  0  0
   -0.4270    1.4968    4.6656 H   0  0  0  0  0  0  0  0  0  0  0  0
   -2.0565    0.9649    5.1327 H   0  0  0  0  0  0  0  0  0  0  0  0
   -0.7281   -0.2137    5.0125 H   0  0  0  0  0  0  0  0  0  0  0  0
  5  6  2  0  0  0  0
  5  7  1  0  0  0  0
  2  3  1  0  0  0  0
  2  4  1  0  0  0  0
  2  5  1  0  0  0  0
  1  2  1  0  0  0  0
 27 28  2  0  0  0  0
 27 29  1  0  0  0  0
 23 24  1  0  0  0  0
 23 25  1  0  0  0  0
 23 26  1  0  0  0  0
 20 21  1  0  0  0  0
 20 22  1  0  0  0  0
 20 23  1  0  0  0  0
 17 18  1  0  0  0  0
 17 19  1  0  0  0  0
 17 20  1  0  0  0  0
 14 15  1  0  0  0  0
 14 16  1  0  0  0  0
 14 17  1  0  0  0  0
 11 12  1  0  0  0  0
 11 13  1  0  0  0  0
 11 14  1  0  0  0  0
  9 10  1  0  0  0  0
  9 11  1  0  0  0  0
  9 27  1  0  0  0  0
  7  8  1  0  0  0  0
  7  9  1  0  0  0  0
 31 32  1  0  0  0  0
 31 33  1  0  0  0  0
 31 34  1  0  0  0  0
 29 30  1  0  0  0  0
 29 31  1  0  0  0  0
M  CHG  1  23   1
M  END
$$$$
default_name
  -OEChem-02102213163D

 34 33  0     1  0  0  0  0  0999 V2000
   -3.8899   -3.6747    1.6490 H   0  0  0  0  0  0  0  0  0  0  0  0
   -3.9109   -2.6717    1.2250 C   0  0  0  0  0  0  0  0  0  0  0  0
   -4.6009   -2.0517    1.7950 H   0  0  0  0  0  0  0  0  0  0  0  0
   -4.2309   -2.7237    0.1860 H   0  0  0  0  0  0  0  0  0  0  0  0
   -2.5229   -2.0787    1.2980 C   0  0  0  0  0  0  0  0  0  0  0  0
   -1.5999   -2.7227    1.7810 O   0  0  0  0  0  0  0  0  0  0  0  0
   -2.3659   -0.8447    0.8120 N   0  0  0  0  0  0  0  0  0  0  0  0
   -3.1749   -0.3807    0.4220 H   0  0  0  0  0  0  0  0  0  0  0  0
   -1.0919   -0.1077    0.8170 C   0  0  1  0  0  0  0  0  0  0  0  0
   -0.3571   -0.6901    0.2581 H   0  0  0  0  0  0  0  0  0  0  0  0
   -1.3037    1.2411    0.1040 C   0  0  0  0  0  0  0  0  0  0  0  0
   -2.2308    1.6856    0.4694 H   0  0  0  0  0  0  0  0  0  0  0  0
   -0.4815    1.9134    0.3566 H   0  0  0  0  0  0  0  0  0  0  0  0
   -1.3999    1.1110   -1.4238 C   0  0  0  0  0  0  0  0  0  0  0  0
   -0.4709    1.4544   -1.8810 H   0  0  0  0  0  0  0  0  0  0  0  0
   -1.5604    0.0635   -1.6860 H   0  0  0  0  0  0  0  0  0  0  0  0
   -2.5660    1.9532   -1.9596 C   0  0  0  0  0  0  0  0  0  0  0  0
   -3.4928    1.6168   -1.4887 H   0  0  0  0  0  0  0  0  0  0  0  0
   -2.3962    3.0007   -1.7030 H   0  0  0  0  0  0  0  0  0  0  0  0
   -2.6787    1.8048   -3.4821 C   0  0  0  0  0  0  0  0  0  0  0  0
   -1.7391    2.1391   -3.9338 H   0  0  0  0  0  0  0  0  0  0  0  0
   -2.8060    0.7443   -3.7195 H   0  0  0  0  0  0  0  0  0  0  0  0
   -3.8152    2.5913   -4.0246 N   0  3  0  0  0  0  0  0  0  0  0  0
   -3.6977    3.5752   -3.8171 H   0  0  0  0  0  0  0  0  0  0  0  0
   -3.8759    2.4825   -5.0293 H   0  0  0  0  0  0  0  0  0  0  0  0
   -4.6885    2.2797   -3.6160 H   0  0  0  0  0  0  0  0  0  0  0  0
   -0.5865    0.0771    2.2496 C   0  0  0  0  0  0  0  0  0  0  0  0
    0.5860   -0.1608    2.5143 O   0  0  0  0  0  0  0  0  0  0  0  0
   -1.4786    0.4656    3.1667 N   0  0  0  0  0  0  0  0  0  0  0  0
   -2.4139    0.6698    2.8558 H   0  0  0  0  0  0  0  0  0  0  0  0
   -1.1587    0.6908    4.5775 C   0  0  0  0  0  0  0  0  0  0  0  0
   -0.4270    1.4968    4.6656 H   0  0  0  0  0  0  0  0  0  0  0  0
   -2.0565    0.9649    5.1327 H   0  0  0  0  0  0  0  0  0  0  0  0
   -0.7281   -0.2137    5.0125 H   0  0  0  0  0  0  0  0  0  0  0  0
  5  6  2  0  0  0  0
  5  7  1  0  0  0  0
  2  3  1  0  0  0  0
  2  4  1  0  0  0  0
  2  5  1  0  0  0  0
  1  2  1  0  0  0  0
 27 28  2  0  0  0  0
 27 29  1  0  0  0  0
 23 24  1  0  0  0  0
 23 25  1  0  0  0  0
 23 26  1  0  0  0  0
 20 21  1  0  0  0  0
 20 22  1  0  0  0  0
 20 23  1  0  0  0  0
 17 18  1  0  0  0  0
 17 19  1  0  0  0  0
 17 20  1  0  0  0  0
 14 15  1  0  0  0  0
 14 16  1  0  0  0  0
 14 17  1  0  0  0  0
 11 12  1  0  0  0  0
 11 13  1  0  0  0  0
 11 14  1  0  0  0  0
  9 10  1  0  0  0  0
  9 11  1  0  0  0  0
  9 27  1  0  0  0  0
  7  8  1  0  0  0  0
  7  9  1  0  0  0  0
 31 32  1  0  0  0  0
 31 33  1  0  0  0  0
 31 34  1  0  0  0  0
 29 30  1  0  0  0  0
 29 31  1  0  0  0  0
M  CHG  1  23   1
M  END
$$$$
default_name
  -OEChem-02102213163D

 34 33  0     1  0  0  0  0  0999 V2000
   -3.8899   -3.6747    1.6490 H   0  0  0  0  0  0  0  0  0  0  0  0
   -3.9109   -2.6717    1.2250 C   0  0  0  0  0  0  0  0  0  0  0  0
   -4.6009   -2.0517    1.7950 H   0  0  0  0  0  0  0  0  0  0  0  0
   -4.2309   -2.7237    0.1860 H   0  0  0  0  0  0  0  0  0  0  0  0
   -2.5229   -2.0787    1.2980 C   0  0  0  0  0  0  0  0  0  0  0  0
   -1.5999   -2.7227    1.7810 O   0  0  0  0  0  0  0  0  0  0  0  0
   -2.3659   -0.8447    0.8120 N   0  0  0  0  0  0  0  0  0  0  0  0
   -3.1749   -0.3807    0.4220 H   0  0  0  0  0  0  0  0  0  0  0  0
   -1.0919   -0.1077    0.8170 C   0  0  1  0  0  0  0  0  0  0  0  0
   -0.3571   -0.6901    0.2581 H   0  0  0  0  0  0  0  0  0  0  0  0
   -1.3037    1.2411    0.1040 C   0  0  0  0  0  0  0  0  0  0  0  0
   -2.2308    1.6856    0.4694 H   0  0  0  0  0  0  0  0  0  0  0  0
   -0.4815    1.9134    0.3566 H   0  0  0  0  0  0  0  0  0  0  0  0
   -1.3999    1.1110   -1.4238 C   0  0  0  0  0  0  0  0  0  0  0  0
   -0.4050    1.1951   -1.8631 H   0  0  0  0  0  0  0  0  0  0  0  0
   -1.8195    0.1352   -1.6758 H   0  0  0  0  0  0  0  0  0  0  0  0
   -2.2989    2.2144   -1.9987 C   0  0  0  0  0  0  0  0  0  0  0  0
   -3.2902    2.1368   -1.5457 H   0  0  0  0  0  0  0  0  0  0  0  0
   -1.8701    3.1877   -1.7520 H   0  0  0  0  0  0  0  0  0  0  0  0
   -2.4159    2.0709   -3.5213 C   0  0  0  0  0  0  0  0  0  0  0  0
   -1.4131    2.1437   -3.9548 H   0  0  0  0  0  0  0  0  0  0  0  0
   -2.8074    1.0745   -3.7475 H   0  0  0  0  0  0  0  0  0  0  0  0
   -3.3005    3.1128   -4.1014 N   0  3  0  0  0  0  0  0  0  0  0  0
   -2.9377    4.0371   -3.9043 H   0  0  0  0  0  0  0  0  0  0  0  0
   -3.3673    3.0042   -5.1057 H   0  0  0  0  0  0  0  0  0  0  0  0
   -4.2325    3.0442   -3.7098 H   0  0  0  0  0  0  0  0  0  0  0  0
   -0.5865    0.0771    2.2496 C   0  0  0  0  0  0  0  0  0  0  0  0
    0.5860   -0.1608    2.5143 O   0  0  0  0  0  0  0  0  0  0  0  0
   -1.4786    0.4656    3.1667 N   0  0  0  0  0  0  0  0  0  0  0  0
   -2.4139    0.6698    2.8558 H   0  0  0  0  0  0  0  0  0  0  0  0
   -1.1587    0.6908    4.5775 C   0  0  0  0  0  0  0  0  0  0  0  0
   -0.4270    1.4968    4.6656 H   0  0  0  0  0  0  0  0  0  0  0  0
   -2.0565    0.9649    5.1327 H   0  0  0  0  0  0  0  0  0  0  0  0
   -0.7281   -0.2137    5.0125 H   0  0  0  0  0  0  0  0  0  0  0  0
  5  6  2  0  0  0  0
  5  7  1  0  0  0  0
  2  3  1  0  0  0  0
  2  4  1  0  0  0  0
  2  5  1  0  0  0  0
  1  2  1  0  0  0  0
 27 28  2  0  0  0  0
 27 29  1  0  0  0  0
 23 24  1  0  0  0  0
 23 25  1  0  0  0  0
 23 26  1  0  0  0  0
 20 21  1  0  0  0  0
 20 22  1  0  0  0  0
 20 23  1  0  0  0  0
 17 18  1  0  0  0  0
 17 19  1  0  0  0  0
 17 20  1  0  0  0  0
 14 15  1  0  0  0  0
 14 16  1  0  0  0  0
 14 17  1  0  0  0  0
 11 12  1  0  0  0  0
 11 13  1  0  0  0  0
 11 14  1  0  0  0  0
  9 10  1  0  0  0  0
  9 11  1  0  0  0  0
  9 27  1  0  0  0  0
  7  8  1  0  0  0  0
  7  9  1  0  0  0  0
 31 32  1  0  0  0  0
 31 33  1  0  0  0  0
 31 34  1  0  0  0  0
 29 30  1  0  0  0  0
 29 31  1  0  0  0  0
M  CHG  1  23   1
M  END
$$$$
default_name
  -OEChem-02102213163D

 34 33  0     1  0  0  0  0  0999 V2000
   -3.8899   -3.6747    1.6490 H   0  0  0  0  0  0  0  0  0  0  0  0
   -3.9109   -2.6717    1.2250 C   0  0  0  0  0  0  0  0  0  0  0  0
   -4.6009   -2.0517    1.7950 H   0  0  0  0  0  0  0  0  0  0  0  0
   -4.2309   -2.7237    0.1860 H   0  0  0  0  0  0  0  0  0  0  0  0
   -2.5229   -2.0787    1.2980 C   0  0  0  0  0  0  0  0  0  0  0  0
   -1.5999   -2.7227    1.7810 O   0  0  0  0  0  0  0  0  0  0  0  0
   -2.3659   -0.8447    0.8120 N   0  0  0  0  0  0  0  0  0  0  0  0
   -3.1749   -0.3807    0.4220 H   0  0  0  0  0  0  0  0  0  0  0  0
   -1.0919   -0.1077    0.8170 C   0  0  1  0  0  0  0  0  0  0  0  0
   -0.3571   -0.6901    0.2581 H   0  0  0  0  0  0  0  0  0  0  0  0
   -1.3037    1.2411    0.1040 C   0  0  0  0  0  0  0  0  0  0  0  0
   -2.2308    1.6856    0.4694 H   0  0  0  0  0  0  0  0  0  0  0  0
   -0.4815    1.9134    0.3566 H   0  0  0  0  0  0  0  0  0  0  0  0
   -1.3999    1.1110   -1.4238 C   0  0  0  0  0  0  0  0  0  0  0  0
   -0.4084    0.9280   -1.8401 H   0  0  0  0  0  0  0  0  0  0  0  0
   -2.0517    0.2713   -1.6728 H   0  0  0  0  0  0  0  0  0  0  0  0
   -1.9729    2.3973   -2.0348 C   0  0  0  0  0  0  0  0  0  0  0  0
   -2.9595    2.5859   -1.6048 H   0  0  0  0  0  0  0  0  0  0  0  0
   -1.3128    3.2321   -1.7908 H   0  0  0  0  0  0  0  0  0  0  0  0
   -2.0927    2.2598   -3.5577 C   0  0  0  0  0  0  0  0  0  0  0  0
   -1.0966    2.0639   -3.9679 H   0  0  0  0  0  0  0  0  0  0  0  0
   -2.7230    1.3934   -3.7800 H   0  0  0  0  0  0  0  0  0  0  0  0
   -2.6674    3.4829   -4.1727 N   0  3  0  0  0  0  0  0  0  0  0  0
   -2.0828    4.2864   -3.9793 H   0  0  0  0  0  0  0  0  0  0  0  0
   -2.7401    3.3759   -5.1768 H   0  0  0  0  0  0  0  0  0  0  0  0
   -3.5933    3.6637   -3.8027 H   0  0  0  0  0  0  0  0  0  0  0  0
   -0.5865    0.0771    2.2496 C   0  0  0  0  0  0  0  0  0  0  0  0
    0.5860   -0.1608    2.5143 O   0  0  0  0  0  0  0  0  0  0  0  0
   -1.4786    0.4656    3.1667 N   0  0  0  0  0  0  0  0  0  0  0  0
   -2.4139    0.6698    2.8558 H   0  0  0  0  0  0  0  0  0  0  0  0
   -1.1587    0.6908    4.5775 C   0  0  0  0  0  0  0  0  0  0  0  0
   -0.4270    1.4968    4.6656 H   0  0  0  0  0  0  0  0  0  0  0  0
   -2.0565    0.9649    5.1327 H   0  0  0  0  0  0  0  0  0  0  0  0
   -0.7281   -0.2137    5.0125 H   0  0  0  0  0  0  0  0  0  0  0  0
  5  6  2  0  0  0  0
  5  7  1  0  0  0  0
  2  3  1  0  0  0  0
  2  4  1  0  0  0  0
  2  5  1  0  0  0  0
  1  2  1  0  0  0  0
 27 28  2  0  0  0  0
 27 29  1  0  0  0  0
 23 24  1  0  0  0  0
 23 25  1  0  0  0  0
 23 26  1  0  0  0  0
 20 21  1  0  0  0  0
 20 22  1  0  0  0  0
 20 23  1  0  0  0  0
 17 18  1  0  0  0  0
 17 19  1  0  0  0  0
 17 20  1  0  0  0  0
 14 15  1  0  0  0  0
 14 16  1  0  0  0  0
 14 17  1  0  0  0  0
 11 12  1  0  0  0  0
 11 13  1  0  0  0  0
 11 14  1  0  0  0  0
  9 10  1  0  0  0  0
  9 11  1  0  0  0  0
  9 27  1  0  0  0  0
  7  8  1  0  0  0  0
  7  9  1  0  0  0  0
 31 32  1  0  0  0  0
 31 33  1  0  0  0  0
 31 34  1  0  0  0  0
 29 30  1  0  0  0  0
 29 31  1  0  0  0  0
M  CHG  1  23   1
M  END
$$$$
default_name
  -OEChem-02102213163D

 34 33  0     1  0  0  0  0  0999 V2000
   -3.8899   -3.6747    1.6490 H   0  0  0  0  0  0  0  0  0  0  0  0
   -3.9109   -2.6717    1.2250 C   0  0  0  0  0  0  0  0  0  0  0  0
   -4.6009   -2.0517    1.7950 H   0  0  0  0  0  0  0  0  0  0  0  0
   -4.2309   -2.7237    0.1860 H   0  0  0  0  0  0  0  0  0  0  0  0
   -2.5229   -2.0787    1.2980 C   0  0  0  0  0  0  0  0  0  0  0  0
   -1.5999   -2.7227    1.7810 O   0  0  0  0  0  0  0  0  0  0  0  0
   -2.3659   -0.8447    0.8120 N   0  0  0  0  0  0  0  0  0  0  0  0
   -3.1749   -0.3807    0.4220 H   0  0  0  0  0  0  0  0  0  0  0  0
   -1.0919   -0.1077    0.8170 C   0  0  1  0  0  0  0  0  0  0  0  0
   -0.3571   -0.6901    0.2581 H   0  0  0  0  0  0  0  0  0  0  0  0
   -1.3037    1.2411    0.1040 C   0  0  0  0  0  0  0  0  0  0  0  0
   -2.0648    1.8049    0.6458 H   0  0  0  0  0  0  0  0  0  0  0  0
   -0.3734    1.8117    0.1321 H   0  0  0  0  0  0  0  0  0  0  0  0
   -1.7613    1.0907   -1.3549 C   0  0  0  0  0  0  0  0  0  0  0  0
   -1.0132    0.5320   -1.9189 H   0  0  0  0  0  0  0  0  0  0  0  0
   -2.7072    0.5461   -1.3806 H   0  0  0  0  0  0  0  0  0  0  0  0
   -1.9517    2.4703   -2.0003 C   0  0  0  0  0  0  0  0  0  0  0  0
   -2.6905    3.0329   -1.4245 H   0  0  0  0  0  0  0  0  0  0  0  0
   -1.0012    3.0070   -1.9804 H   0  0  0  0  0  0  0  0  0  0  0  0
   -2.4325    2.3220   -3.4493 C   0  0  0  0  0  0  0  0  0  0  0  0
   -1.6835    1.7500   -4.0066 H   0  0  0  0  0  0  0  0  0  0  0  0
   -3.3627    1.7459   -3.4497 H   0  0  0  0  0  0  0  0  0  0  0  0
   -2.6480    3.6436   -4.0908 N   0  3  0  0  0  0  0  0  0  0  0  0
   -1.7879    4.1774   -4.1029 H   0  0  0  0  0  0  0  0  0  0  0  0
   -2.9650    3.5284   -5.0454 H   0  0  0  0  0  0  0  0  0  0  0  0
   -3.3470    4.1737   -3.5837 H   0  0  0  0  0  0  0  0  0  0  0  0
   -0.5865    0.0771    2.2496 C   0  0  0  0  0  0  0  0  0  0  0  0
    0.5860   -0.1608    2.5143 O   0  0  0  0  0  0  0  0  0  0  0  0
   -1.4786    0.4656    3.1667 N   0  0  0  0  0  0  0  0  0  0  0  0
   -2.4139    0.6698    2.8558 H   0  0  0  0  0  0  0  0  0  0  0  0
   -1.1587    0.6908    4.5775 C   0  0  0  0  0  0  0  0  0  0  0  0
   -0.4270    1.4968    4.6656 H   0  0  0  0  0  0  0  0  0  0  0  0
   -2.0565    0.9649    5.1327 H   0  0  0  0  0  0  0  0  0  0  0  0
   -0.7281   -0.2137    5.0125 H   0  0  0  0  0  0  0  0  0  0  0  0
  5  6  2  0  0  0  0
  5  7  1  0  0  0  0
  2  3  1  0  0  0  0
  2  4  1  0  0  0  0
  2  5  1  0  0  0  0
  1  2  1  0  0  0  0
 27 28  2  0  0  0  0
 27 29  1  0  0  0  0
 23 24  1  0  0  0  0
 23 25  1  0  0  0  0
 23 26  1  0  0  0  0
 20 21  1  0  0  0  0
 20 22  1  0  0  0  0
 20 23  1  0  0  0  0
 17 18  1  0  0  0  0
 17 19  1  0  0  0  0
 17 20  1  0  0  0  0
 14 15  1  0  0  0  0
 14 16  1  0  0  0  0
 14 17  1  0  0  0  0
 11 12  1  0  0  0  0
 11 13  1  0  0  0  0
 11 14  1  0  0  0  0
  9 10  1  0  0  0  0
  9 11  1  0  0  0  0
  9 27  1  0  0  0  0
  7  8  1  0  0  0  0
  7  9  1  0  0  0  0
 31 32  1  0  0  0  0
 31 33  1  0  0  0  0
 31 34  1  0  0  0  0
 29 30  1  0  0  0  0
 29 31  1  0  0  0  0
M  CHG  1  23   1
M  END
$$$$
default_name
  -OEChem-02102213163D

 34 33  0     1  0  0  0  0  0999 V2000
   -3.8899   -3.6747    1.6490 H   0  0  0  0  0  0  0  0  0  0  0  0
   -3.9109   -2.6717    1.2250 C   0  0  0  0  0  0  0  0  0  0  0  0
   -4.6009   -2.0517    1.7950 H   0  0  0  0  0  0  0  0  0  0  0  0
   -4.2309   -2.7237    0.1860 H   0  0  0  0  0  0  0  0  0  0  0  0
   -2.5229   -2.0787    1.2980 C   0  0  0  0  0  0  0  0  0  0  0  0
   -1.5999   -2.7227    1.7810 O   0  0  0  0  0  0  0  0  0  0  0  0
   -2.3659   -0.8447    0.8120 N   0  0  0  0  0  0  0  0  0  0  0  0
   -3.1749   -0.3807    0.4220 H   0  0  0  0  0  0  0  0  0  0  0  0
   -1.0919   -0.1077    0.8170 C   0  0  1  0  0  0  0  0  0  0  0  0
   -0.3571   -0.6901    0.2581 H   0  0  0  0  0  0  0  0  0  0  0  0
   -1.3037    1.2411    0.1040 C   0  0  0  0  0  0  0  0  0  0  0  0
   -2.0648    1.8049    0.6458 H   0  0  0  0  0  0  0  0  0  0  0  0
   -0.3734    1.8117    0.1321 H   0  0  0  0  0  0  0  0  0  0  0  0
   -1.7613    1.0907   -1.3549 C   0  0  0  0  0  0  0  0  0  0  0  0
   -1.1654    0.3225   -1.8495 H   0  0  0  0  0  0  0  0  0  0  0  0
   -2.8118    0.7939   -1.3734 H   0  0  0  0  0  0  0  0  0  0  0  0
   -1.5953    2.4186   -2.1068 C   0  0  0  0  0  0  0  0  0  0  0  0
   -2.1813    3.1892   -1.6003 H   0  0  0  0  0  0  0  0  0  0  0  0
   -0.5421    2.7061   -2.0934 H   0  0  0  0  0  0  0  0  0  0  0  0
   -2.0749    2.2767   -3.5567 C   0  0  0  0  0  0  0  0  0  0  0  0
   -1.4817    1.4959   -4.0437 H   0  0  0  0  0  0  0  0  0  0  0  0
   -3.1184    1.9477   -3.5471 H   0  0  0  0  0  0  0  0  0  0  0  0
   -1.9476    3.5549   -4.3014 N   0  3  0  0  0  0  0  0  0  0  0  0
   -0.9823    3.8591   -4.3228 H   0  0  0  0  0  0  0  0  0  0  0  0
   -2.2682    3.4446   -5.2553 H   0  0  0  0  0  0  0  0  0  0  0  0
   -2.5020    4.2789   -3.8595 H   0  0  0  0  0  0  0  0  0  0  0  0
   -0.5865    0.0771    2.2496 C   0  0  0  0  0  0  0  0  0  0  0  0
    0.5860   -0.1608    2.5143 O   0  0  0  0  0  0  0  0  0  0  0  0
   -1.4786    0.4656    3.1667 N   0  0  0  0  0  0  0  0  0  0  0  0
   -2.4139    0.6698    2.8558 H   0  0  0  0  0  0  0  0  0  0  0  0
   -1.1587    0.6908    4.5775 C   0  0  0  0  0  0  0  0  0  0  0  0
   -0.4270    1.4968    4.6656 H   0  0  0  0  0  0  0  0  0  0  0  0
   -2.0565    0.9649    5.1327 H   0  0  0  0  0  0  0  0  0  0  0  0
   -0.7281   -0.2137    5.0125 H   0  0  0  0  0  0  0  0  0  0  0  0
  5  6  2  0  0  0  0
  5  7  1  0  0  0  0
  2  3  1  0  0  0  0
  2  4  1  0  0  0  0
  2  5  1  0  0  0  0
  1  2  1  0  0  0  0
 27 28  2  0  0  0  0
 27 29  1  0  0  0  0
 23 24  1  0  0  0  0
 23 25  1  0  0  0  0
 23 26  1  0  0  0  0
 20 21  1  0  0  0  0
 20 22  1  0  0  0  0
 20 23  1  0  0  0  0
 17 18  1  0  0  0  0
 17 19  1  0  0  0  0
 17 20  1  0  0  0  0
 14 15  1  0  0  0  0
 14 16  1  0  0  0  0
 14 17  1  0  0  0  0
 11 12  1  0  0  0  0
 11 13  1  0  0  0  0
 11 14  1  0  0  0  0
  9 10  1  0  0  0  0
  9 11  1  0  0  0  0
  9 27  1  0  0  0  0
  7  8  1  0  0  0  0
  7  9  1  0  0  0  0
 31 32  1  0  0  0  0
 31 33  1  0  0  0  0
 31 34  1  0  0  0  0
 29 30  1  0  0  0  0
 29 31  1  0  0  0  0
M  CHG  1  23   1
M  END
$$$$
default_name
  -OEChem-02102213163D

 34 33  0     1  0  0  0  0  0999 V2000
   -3.8899   -3.6747    1.6490 H   0  0  0  0  0  0  0  0  0  0  0  0
   -3.9109   -2.6717    1.2250 C   0  0  0  0  0  0  0  0  0  0  0  0
   -4.6009   -2.0517    1.7950 H   0  0  0  0  0  0  0  0  0  0  0  0
   -4.2309   -2.7237    0.1860 H   0  0  0  0  0  0  0  0  0  0  0  0
   -2.5229   -2.0787    1.2980 C   0  0  0  0  0  0  0  0  0  0  0  0
   -1.5999   -2.7227    1.7810 O   0  0  0  0  0  0  0  0  0  0  0  0
   -2.3659   -0.8447    0.8120 N   0  0  0  0  0  0  0  0  0  0  0  0
   -3.1749   -0.3807    0.4220 H   0  0  0  0  0  0  0  0  0  0  0  0
   -1.0919   -0.1077    0.8170 C   0  0  1  0  0  0  0  0  0  0  0  0
   -0.3571   -0.6901    0.2581 H   0  0  0  0  0  0  0  0  0  0  0  0
   -1.3037    1.2411    0.1040 C   0  0  0  0  0  0  0  0  0  0  0  0
   -2.0648    1.8049    0.6458 H   0  0  0  0  0  0  0  0  0  0  0  0
   -0.3734    1.8117    0.1321 H   0  0  0  0  0  0  0  0  0  0  0  0
   -1.7613    1.0907   -1.3549 C   0  0  0  0  0  0  0  0  0  0  0  0
   -1.3658    0.1629   -1.7703 H   0  0  0  0  0  0  0  0  0  0  0  0
   -2.8521    1.0596   -1.3881 H   0  0  0  0  0  0  0  0  0  0  0  0
   -1.2610    2.2727   -2.1966 C   0  0  0  0  0  0  0  0  0  0  0  0
   -1.6466    3.2015   -1.7693 H   0  0  0  0  0  0  0  0  0  0  0  0
   -0.1697    2.2938   -2.1677 H   0  0  0  0  0  0  0  0  0  0  0  0
   -1.7380    2.1367   -3.6480 C   0  0  0  0  0  0  0  0  0  0  0  0
   -1.3482    1.1980   -4.0549 H   0  0  0  0  0  0  0  0  0  0  0  0
   -2.8304    2.0750   -3.6506 H   0  0  0  0  0  0  0  0  0  0  0  0
   -1.2875    3.2808   -4.4802 N   0  3  0  0  0  0  0  0  0  0  0  0
   -0.2767    3.3368   -4.4902 H   0  0  0  0  0  0  0  0  0  0  0  0
   -1.6104    3.1762   -5.4340 H   0  0  0  0  0  0  0  0  0  0  0  0
   -1.6530    4.1516   -4.1127 H   0  0  0  0  0  0  0  0  0  0  0  0
   -0.5865    0.0771    2.2496 C   0  0  0  0  0  0  0  0  0  0  0  0
    0.5860   -0.1608    2.5143 O   0  0  0  0  0  0  0  0  0  0  0  0
   -1.4786    0.4656    3.1667 N   0  0  0  0  0  0  0  0  0  0  0  0
   -2.4139    0.6698    2.8558 H   0  0  0  0  0  0  0  0  0  0  0  0
   -1.1587    0.6908    4.5775 C   0  0  0  0  0  0  0  0  0  0  0  0
   -0.4270    1.4968    4.6656 H   0  0  0  0  0  0  0  0  0  0  0  0
   -2.0565    0.9649    5.1327 H   0  0  0  0  0  0  0  0  0  0  0  0
   -0.7281   -0.2137    5.0125 H   0  0  0  0  0  0  0  0  0  0  0  0
  5  6  2  0  0  0  0
  5  7  1  0  0  0  0
  2  3  1  0  0  0  0
  2  4  1  0  0  0  0
  2  5  1  0  0  0  0
  1  2  1  0  0  0  0
 27 28  2  0  0  0  0
 27 29  1  0  0  0  0
 23 24  1  0  0  0  0
 23 25  1  0  0  0  0
 23 26  1  0  0  0  0
 20 21  1  0  0  0  0
 20 22  1  0  0  0  0
 20 23  1  0  0  0  0
 17 18  1  0  0  0  0
 17 19  1  0  0  0  0
 17 20  1  0  0  0  0
 14 15  1  0  0  0  0
 14 16  1  0  0  0  0
 14 17  1  0  0  0  0
 11 12  1  0  0  0  0
 11 13  1  0  0  0  0
 11 14  1  0  0  0  0
  9 10  1  0  0  0  0
  9 11  1  0  0  0  0
  9 27  1  0  0  0  0
  7  8  1  0  0  0  0
  7  9  1  0  0  0  0
 31 32  1  0  0  0  0
 31 33  1  0  0  0  0
 31 34  1  0  0  0  0
 29 30  1  0  0  0  0
 29 31  1  0  0  0  0
M  CHG  1  23   1
M  END
$$$$
default_name
  -OEChem-02102213163D

 34 33  0     1  0  0  0  0  0999 V2000
   -3.8899   -3.6747    1.6490 H   0  0  0  0  0  0  0  0  0  0  0  0
   -3.9109   -2.6717    1.2250 C   0  0  0  0  0  0  0  0  0  0  0  0
   -4.6009   -2.0517    1.7950 H   0  0  0  0  0  0  0  0  0  0  0  0
   -4.2309   -2.7237    0.1860 H   0  0  0  0  0  0  0  0  0  0  0  0
   -2.5229   -2.0787    1.2980 C   0  0  0  0  0  0  0  0  0  0  0  0
   -1.5999   -2.7227    1.7810 O   0  0  0  0  0  0  0  0  0  0  0  0
   -2.3659   -0.8447    0.8120 N   0  0  0  0  0  0  0  0  0  0  0  0
   -3.1749   -0.3807    0.4220 H   0  0  0  0  0  0  0  0  0  0  0  0
   -1.0919   -0.1077    0.8170 C   0  0  1  0  0  0  0  0  0  0  0  0
   -0.3571   -0.6901    0.2581 H   0  0  0  0  0  0  0  0  0  0  0  0
   -1.3037    1.2411    0.1040 C   0  0  0  0  0  0  0  0  0  0  0  0
   -2.0648    1.8049    0.6458 H   0  0  0  0  0  0  0  0  0  0  0  0
   -0.3734    1.8117    0.1321 H   0  0  0  0  0  0  0  0  0  0  0  0
   -1.7613    1.0907   -1.3549 C   0  0  0  0  0  0  0  0  0  0  0  0
   -1.6005    0.0640   -1.6865 H   0  0  0  0  0  0  0  0  0  0  0  0
   -2.8254    1.3250   -1.4238 H   0  0  0  0  0  0  0  0  0  0  0  0
   -0.9716    2.0428   -2.2637 C   0  0  0  0  0  0  0  0  0  0  0  0
   -1.1228    3.0689   -1.9199 H   0  0  0  0  0  0  0  0  0  0  0  0
    0.0905    1.7984   -2.1982 H   0  0  0  0  0  0  0  0  0  0  0  0
   -1.4446    1.9117   -3.7168 C   0  0  0  0  0  0  0  0  0  0  0  0
   -1.2921    0.8765   -4.0393 H   0  0  0  0  0  0  0  0  0  0  0  0
   -2.5183    2.1193   -3.7530 H   0  0  0  0  0  0  0  0  0  0  0  0
   -0.7127    2.8401   -4.6150 N   0  3  0  0  0  0  0  0  0  0  0  0
    0.2806    2.6460   -4.5939 H   0  0  0  0  0  0  0  0  0  0  0  0
   -1.0364    2.7415   -5.5692 H   0  0  0  0  0  0  0  0  0  0  0  0
   -0.8578    3.8004   -4.3260 H   0  0  0  0  0  0  0  0  0  0  0  0
   -0.5865    0.0771    2.2496 C   0  0  0  0  0  0  0  0  0  0  0  0
    0.5860   -0.1608    2.5143 O   0  0  0  0  0  0  0  0  0  0  0  0
   -1.4786    0.4656    3.1667 N   0  0  0  0  0  0  0  0  0  0  0  0
   -2.4139    0.6698    2.8558 H   0  0  0  0  0  0  0  0  0  0  0  0
   -1.1587    0.6908    4.5775 C   0  0  0  0  0  0  0  0  0  0  0  0
   -0.4270    1.4968    4.6656 H   0  0  0  0  0  0  0  0  0  0  0  0
   -2.0565    0.9649    5.1327 H   0  0  0  0  0  0  0  0  0  0  0  0
   -0.7281   -0.2137    5.0125 H   0  0  0  0  0  0  0  0  0  0  0  0
  5  6  2  0  0  0  0
  5  7  1  0  0  0  0
  2  3  1  0  0  0  0
  2  4  1  0  0  0  0
  2  5  1  0  0  0  0
  1  2  1  0  0  0  0
 27 28  2  0  0  0  0
 27 29  1  0  0  0  0
 23 24  1  0  0  0  0
 23 25  1  0  0  0  0
 23 26  1  0  0  0  0
 20 21  1  0  0  0  0
 20 22  1  0  0  0  0
 20 23  1  0  0  0  0
 17 18  1  0  0  0  0
 17 19  1  0  0  0  0
 17 20  1  0  0  0  0
 14 15  1  0  0  0  0
 14 16  1  0  0  0  0
 14 17  1  0  0  0  0
 11 12  1  0  0  0  0
 11 13  1  0  0  0  0
 11 14  1  0  0  0  0
  9 10  1  0  0  0  0
  9 11  1  0  0  0  0
  9 27  1  0  0  0  0
  7  8  1  0  0  0  0
  7  9  1  0  0  0  0
 31 32  1  0  0  0  0
 31 33  1  0  0  0  0
 31 34  1  0  0  0  0
 29 30  1  0  0  0  0
 29 31  1  0  0  0  0
M  CHG  1  23   1
M  END
$$$$
default_name
  -OEChem-02102213163D

 34 33  0     1  0  0  0  0  0999 V2000
   -3.8899   -3.6747    1.6490 H   0  0  0  0  0  0  0  0  0  0  0  0
   -3.9109   -2.6717    1.2250 C   0  0  0  0  0  0  0  0  0  0  0  0
   -4.6009   -2.0517    1.7950 H   0  0  0  0  0  0  0  0  0  0  0  0
   -4.2309   -2.7237    0.1860 H   0  0  0  0  0  0  0  0  0  0  0  0
   -2.5229   -2.0787    1.2980 C   0  0  0  0  0  0  0  0  0  0  0  0
   -1.5999   -2.7227    1.7810 O   0  0  0  0  0  0  0  0  0  0  0  0
   -2.3659   -0.8447    0.8120 N   0  0  0  0  0  0  0  0  0  0  0  0
   -3.1749   -0.3807    0.4220 H   0  0  0  0  0  0  0  0  0  0  0  0
   -1.0919   -0.1077    0.8170 C   0  0  1  0  0  0  0  0  0  0  0  0
   -0.3571   -0.6901    0.2581 H   0  0  0  0  0  0  0  0  0  0  0  0
   -1.3037    1.2411    0.1040 C   0  0  0  0  0  0  0  0  0  0  0  0
   -2.0648    1.8049    0.6458 H   0  0  0  0  0  0  0  0  0  0  0  0
   -0.3734    1.8117    0.1321 H   0  0  0  0  0  0  0  0  0  0  0  0
   -1.7613    1.0907   -1.3549 C   0  0  0  0  0  0  0  0  0  0  0  0
   -1.8536    0.0327   -1.6038 H   0  0  0  0  0  0  0  0  0  0  0  0
   -2.7335    1.5720   -1.4781 H   0  0  0  0  0  0  0  0  0  0  0  0
   -0.7469    1.7445   -2.3034 C   0  0  0  0  0  0  0  0  0  0  0  0
   -0.6456    2.8005   -2.0419 H   0  0  0  0  0  0  0  0  0  0  0  0
    0.2208    1.2536   -2.1830 H   0  0  0  0  0  0  0  0  0  0  0  0
   -1.2148    1.6169   -3.7585 C   0  0  0  0  0  0  0  0  0  0  0  0
   -1.3174    0.5535   -3.9981 H   0  0  0  0  0  0  0  0  0  0  0  0
   -2.2034    2.0774   -3.8475 H   0  0  0  0  0  0  0  0  0  0  0  0
   -0.2624    2.2627   -4.6968 N   0  3  0  0  0  0  0  0  0  0  0  0
    0.6518    1.8337   -4.6266 H   0  0  0  0  0  0  0  0  0  0  0  0
   -0.5855    2.1701   -5.6518 H   0  0  0  0  0  0  0  0  0  0  0  0
   -0.1706    3.2494   -4.4847 H   0  0  0  0  0  0  0  0  0  0  0  0
   -0.5865    0.0771    2.2496 C   0  0  0  0  0  0  0  0  0  0  0  0
    0.5860   -0.1608    2.5143 O   0  0  0  0  0  0  0  0  0  0  0  0
   -1.4786    0.4656    3.1667 N   0  0  0  0  0  0  0  0  0  0  0  0
   -2.4139    0.6698    2.8558 H   0  0  0  0  0  0  0  0  0  0  0  0
   -1.1587    0.6908    4.5775 C   0  0  0  0  0  0  0  0  0  0  0  0
   -0.4270    1.4968    4.6656 H   0  0  0  0  0  0  0  0  0  0  0  0
   -2.0565    0.9649    5.1327 H   0  0  0  0  0  0  0  0  0  0  0  0
   -0.7281   -0.2137    5.0125 H   0  0  0  0  0  0  0  0  0  0  0  0
  5  6  2  0  0  0  0
  5  7  1  0  0  0  0
  2  3  1  0  0  0  0
  2  4  1  0  0  0  0
  2  5  1  0  0  0  0
  1  2  1  0  0  0  0
 27 28  2  0  0  0  0
 27 29  1  0  0  0  0
 23 24  1  0  0  0  0
 23 25  1  0  0  0  0
 23 26  1  0  0  0  0
 20 21  1  0  0  0  0
 20 22  1  0  0  0  0
 20 23  1  0  0  0  0
 17 18  1  0  0  0  0
 17 19  1  0  0  0  0
 17 20  1  0  0  0  0
 14 15  1  0  0  0  0
 14 16  1  0  0  0  0
 14 17  1  0  0  0  0
 11 12  1  0  0  0  0
 11 13  1  0  0  0  0
 11 14  1  0  0  0  0
  9 10  1  0  0  0  0
  9 11  1  0  0  0  0
  9 27  1  0  0  0  0
  7  8  1  0  0  0  0
  7  9  1  0  0  0  0
 31 32  1  0  0  0  0
 31 33  1  0  0  0  0
 31 34  1  0  0  0  0
 29 30  1  0  0  0  0
 29 31  1  0  0  0  0
M  CHG  1  23   1
M  END
$$$$
default_name
  -OEChem-02102213163D

 34 33  0     1  0  0  0  0  0999 V2000
   -3.8899   -3.6747    1.6490 H   0  0  0  0  0  0  0  0  0  0  0  0
   -3.9109   -2.6717    1.2250 C   0  0  0  0  0  0  0  0  0  0  0  0
   -4.6009   -2.0517    1.7950 H   0  0  0  0  0  0  0  0  0  0  0  0
   -4.2309   -2.7237    0.1860 H   0  0  0  0  0  0  0  0  0  0  0  0
   -2.5229   -2.0787    1.2980 C   0  0  0  0  0  0  0  0  0  0  0  0
   -1.5999   -2.7227    1.7810 O   0  0  0  0  0  0  0  0  0  0  0  0
   -2.3659   -0.8447    0.8120 N   0  0  0  0  0  0  0  0  0  0  0  0
   -3.1749   -0.3807    0.4220 H   0  0  0  0  0  0  0  0  0  0  0  0
   -1.0919   -0.1077    0.8170 C   0  0  1  0  0  0  0  0  0  0  0  0
   -0.3571   -0.6901    0.2581 H   0  0  0  0  0  0  0  0  0  0  0  0
   -1.3037    1.2411    0.1040 C   0  0  0  0  0  0  0  0  0  0  0  0
   -2.0648    1.8049    0.6458 H   0  0  0  0  0  0  0  0  0  0  0  0
   -0.3734    1.8117    0.1321 H   0  0  0  0  0  0  0  0  0  0  0  0
   -1.7613    1.0907   -1.3549 C   0  0  0  0  0  0  0  0  0  0  0  0
   -2.1079    0.0710   -1.5280 H   0  0  0  0  0  0  0  0  0  0  0  0
   -2.5826    1.7838   -1.5473 H   0  0  0  0  0  0  0  0  0  0  0  0
   -0.6022    1.3980   -2.3131 C   0  0  0  0  0  0  0  0  0  0  0  0
   -0.2476    2.4146   -2.1270 H   0  0  0  0  0  0  0  0  0  0  0  0
    0.2125    0.6964   -2.1229 H   0  0  0  0  0  0  0  0  0  0  0  0
   -1.0642    1.2725   -3.7703 C   0  0  0  0  0  0  0  0  0  0  0  0
   -1.4223    0.2508   -3.9340 H   0  0  0  0  0  0  0  0  0  0  0  0
   -1.9071    1.9522   -3.9275 H   0  0  0  0  0  0  0  0  0  0  0  0
    0.0327    1.5881   -4.7198 N   0  3  0  0  0  0  0  0  0  0  0  0
    0.8116    0.9554   -4.5862 H   0  0  0  0  0  0  0  0  0  0  0  0
   -0.2882    1.5010   -5.6760 H   0  0  0  0  0  0  0  0  0  0  0  0
    0.3618    2.5360   -4.5782 H   0  0  0  0  0  0  0  0  0  0  0  0
   -0.5865    0.0771    2.2496 C   0  0  0  0  0  0  0  0  0  0  0  0
    0.5860   -0.1608    2.5143 O   0  0  0  0  0  0  0  0  0  0  0  0
   -1.4786    0.4656    3.1667 N   0  0  0  0  0  0  0  0  0  0  0  0
   -2.4139    0.6698    2.8558 H   0  0  0  0  0  0  0  0  0  0  0  0
   -1.1587    0.6908    4.5775 C   0  0  0  0  0  0  0  0  0  0  0  0
   -0.4270    1.4968    4.6656 H   0  0  0  0  0  0  0  0  0  0  0  0
   -2.0565    0.9649    5.1327 H   0  0  0  0  0  0  0  0  0  0  0  0
   -0.7281   -0.2137    5.0125 H   0  0  0  0  0  0  0  0  0  0  0  0
  5  6  2  0  0  0  0
  5  7  1  0  0  0  0
  2  3  1  0  0  0  0
  2  4  1  0  0  0  0
  2  5  1  0  0  0  0
  1  2  1  0  0  0  0
 27 28  2  0  0  0  0
 27 29  1  0  0  0  0
 23 24  1  0  0  0  0
 23 25  1  0  0  0  0
 23 26  1  0  0  0  0
 20 21  1  0  0  0  0
 20 22  1  0  0  0  0
 20 23  1  0  0  0  0
 17 18  1  0  0  0  0
 17 19  1  0  0  0  0
 17 20  1  0  0  0  0
 14 15  1  0  0  0  0
 14 16  1  0  0  0  0
 14 17  1  0  0  0  0
 11 12  1  0  0  0  0
 11 13  1  0  0  0  0
 11 14  1  0  0  0  0
  9 10  1  0  0  0  0
  9 11  1  0  0  0  0
  9 27  1  0  0  0  0
  7  8  1  0  0  0  0
  7  9  1  0  0  0  0
 31 32  1  0  0  0  0
 31 33  1  0  0  0  0
 31 34  1  0  0  0  0
 29 30  1  0  0  0  0
 29 31  1  0  0  0  0
M  CHG  1  23   1
M  END
$$$$
default_name
  -OEChem-02102213163D

 34 33  0     1  0  0  0  0  0999 V2000
   -3.8899   -3.6747    1.6490 H   0  0  0  0  0  0  0  0  0  0  0  0
   -3.9109   -2.6717    1.2250 C   0  0  0  0  0  0  0  0  0  0  0  0
   -4.6009   -2.0517    1.7950 H   0  0  0  0  0  0  0  0  0  0  0  0
   -4.2309   -2.7237    0.1860 H   0  0  0  0  0  0  0  0  0  0  0  0
   -2.5229   -2.0787    1.2980 C   0  0  0  0  0  0  0  0  0  0  0  0
   -1.5999   -2.7227    1.7810 O   0  0  0  0  0  0  0  0  0  0  0  0
   -2.3659   -0.8447    0.8120 N   0  0  0  0  0  0  0  0  0  0  0  0
   -3.1749   -0.3807    0.4220 H   0  0  0  0  0  0  0  0  0  0  0  0
   -1.0919   -0.1077    0.8170 C   0  0  1  0  0  0  0  0  0  0  0  0
   -0.3571   -0.6901    0.2581 H   0  0  0  0  0  0  0  0  0  0  0  0
   -1.3037    1.2411    0.1040 C   0  0  0  0  0  0  0  0  0  0  0  0
   -2.0648    1.8049    0.6458 H   0  0  0  0  0  0  0  0  0  0  0  0
   -0.3734    1.8117    0.1321 H   0  0  0  0  0  0  0  0  0  0  0  0
   -1.7613    1.0907   -1.3549 C   0  0  0  0  0  0  0  0  0  0  0  0
   -2.3461    0.1764   -1.4642 H   0  0  0  0  0  0  0  0  0  0  0  0
   -2.3830    1.9460   -1.6266 H   0  0  0  0  0  0  0  0  0  0  0  0
   -0.5474    1.0270   -2.2921 C   0  0  0  0  0  0  0  0  0  0  0  0
    0.0442    1.9374   -2.1693 H   0  0  0  0  0  0  0  0  0  0  0  0
    0.0659    0.1649   -2.0222 H   0  0  0  0  0  0  0  0  0  0  0  0
   -1.0031    0.9018   -3.7512 C   0  0  0  0  0  0  0  0  0  0  0  0
   -1.5996   -0.0108   -3.8514 H   0  0  0  0  0  0  0  0  0  0  0  0
   -1.6496    1.7524   -3.9877 H   0  0  0  0  0  0  0  0  0  0  0  0
    0.1525    0.8621   -4.6826 N   0  3  0  0  0  0  0  0  0  0  0  0
    0.7490    0.0708   -4.4754 H   0  0  0  0  0  0  0  0  0  0  0  0
   -0.1649    0.7798   -5.6404 H   0  0  0  0  0  0  0  0  0  0  0  0
    0.7031    1.7088   -4.6000 H   0  0  0  0  0  0  0  0  0  0  0  0
   -0.5865    0.0771    2.2496 C   0  0  0  0  0  0  0  0  0  0  0  0
    0.5860   -0.1608    2.5143 O   0  0  0  0  0  0  0  0  0  0  0  0
   -1.4786    0.4656    3.1667 N   0  0  0  0  0  0  0  0  0  0  0  0
   -2.4139    0.6698    2.8558 H   0  0  0  0  0  0  0  0  0  0  0  0
   -1.1587    0.6908    4.5775 C   0  0  0  0  0  0  0  0  0  0  0  0
   -0.4270    1.4968    4.6656 H   0  0  0  0  0  0  0  0  0  0  0  0
   -2.0565    0.9649    5.1327 H   0  0  0  0  0  0  0  0  0  0  0  0
   -0.7281   -0.2137    5.0125 H   0  0  0  0  0  0  0  0  0  0  0  0
  5  6  2  0  0  0  0
  5  7  1  0  0  0  0
  2  3  1  0  0  0  0
  2  4  1  0  0  0  0
  2  5  1  0  0  0  0
  1  2  1  0  0  0  0
 27 28  2  0  0  0  0
 27 29  1  0  0  0  0
 23 24  1  0  0  0  0
 23 25  1  0  0  0  0
 23 26  1  0  0  0  0
 20 21  1  0  0  0  0
 20 22  1  0  0  0  0
 20 23  1  0  0  0  0
 17 18  1  0  0  0  0
 17 19  1  0  0  0  0
 17 20  1  0  0  0  0
 14 15  1  0  0  0  0
 14 16  1  0  0  0  0
 14 17  1  0  0  0  0
 11 12  1  0  0  0  0
 11 13  1  0  0  0  0
 11 14  1  0  0  0  0
  9 10  1  0  0  0  0
  9 11  1  0  0  0  0
  9 27  1  0  0  0  0
  7  8  1  0  0  0  0
  7  9  1  0  0  0  0
 31 32  1  0  0  0  0
 31 33  1  0  0  0  0
 31 34  1  0  0  0  0
 29 30  1  0  0  0  0
 29 31  1  0  0  0  0
M  CHG  1  23   1
M  END
$$$$
default_name
  -OEChem-02102213163D

 34 33  0     1  0  0  0  0  0999 V2000
   -3.8899   -3.6747    1.6490 H   0  0  0  0  0  0  0  0  0  0  0  0
   -3.9109   -2.6717    1.2250 C   0  0  0  0  0  0  0  0  0  0  0  0
   -4.6009   -2.0517    1.7950 H   0  0  0  0  0  0  0  0  0  0  0  0
   -4.2309   -2.7237    0.1860 H   0  0  0  0  0  0  0  0  0  0  0  0
   -2.5229   -2.0787    1.2980 C   0  0  0  0  0  0  0  0  0  0  0  0
   -1.5999   -2.7227    1.7810 O   0  0  0  0  0  0  0  0  0  0  0  0
   -2.3659   -0.8447    0.8120 N   0  0  0  0  0  0  0  0  0  0  0  0
   -3.1749   -0.3807    0.4220 H   0  0  0  0  0  0  0  0  0  0  0  0
   -1.0919   -0.1077    0.8170 C   0  0  1  0  0  0  0  0  0  0  0  0
   -0.3571   -0.6901    0.2581 H   0  0  0  0  0  0  0  0  0  0  0  0
   -1.3037    1.2411    0.1040 C   0  0  0  0  0  0  0  0  0  0  0  0
   -2.0648    1.8049    0.6458 H   0  0  0  0  0  0  0  0  0  0  0  0
   -0.3734    1.8117    0.1321 H   0  0  0  0  0  0  0  0  0  0  0  0
   -1.7613    1.0907   -1.3549 C   0  0  0  0  0  0  0  0  0  0  0  0
   -2.5518    0.3416   -1.4167 H   0  0  0  0  0  0  0  0  0  0  0  0
   -2.1484    2.0475   -1.7106 H   0  0  0  0  0  0  0  0  0  0  0  0
   -0.5861    0.6568   -2.2418 C   0  0  0  0  0  0  0  0  0  0  0  0
    0.2099    1.4015   -2.1661 H   0  0  0  0  0  0  0  0  0  0  0  0
   -0.2088   -0.3047   -1.8876 H   0  0  0  0  0  0  0  0  0  0  0  0
   -1.0357    0.5303   -3.7027 C   0  0  0  0  0  0  0  0  0  0  0  0
   -1.8373   -0.2136   -3.7560 H   0  0  0  0  0  0  0  0  0  0  0  0
   -1.4484    1.4914   -4.0239 H   0  0  0  0  0  0  0  0  0  0  0  0
    0.0889    0.1343   -4.5876 N   0  3  0  0  0  0  0  0  0  0  0  0
    0.4684   -0.7597   -4.3018 H   0  0  0  0  0  0  0  0  0  0  0  0
   -0.2239    0.0556   -5.5472 H   0  0  0  0  0  0  0  0  0  0  0  0
    0.8301    0.8243   -4.5486 H   0  0  0  0  0  0  0  0  0  0  0  0
   -0.5865    0.0771    2.2496 C   0  0  0  0  0  0  0  0  0  0  0  0
    0.5860   -0.1608    2.5143 O   0  0  0  0  0  0  0  0  0  0  0  0
   -1.4786    0.4656    3.1667 N   0  0  0  0  0  0  0  0  0  0  0  0
   -2.4139    0.6698    2.8558 H   0  0  0  0  0  0  0  0  0  0  0  0
   -1.1587    0.6908    4.5775 C   0  0  0  0  0  0  0  0  0  0  0  0
   -0.4270    1.4968    4.6656 H   0  0  0  0  0  0  0  0  0  0  0  0
   -2.0565    0.9649    5.1327 H   0  0  0  0  0  0  0  0  0  0  0  0
   -0.7281   -0.2137    5.0125 H   0  0  0  0  0  0  0  0  0  0  0  0
  5  6  2  0  0  0  0
  5  7  1  0  0  0  0
  2  3  1  0  0  0  0
  2  4  1  0  0  0  0
  2  5  1  0  0  0  0
  1  2  1  0  0  0  0
 27 28  2  0  0  0  0
 27 29  1  0  0  0  0
 23 24  1  0  0  0  0
 23 25  1  0  0  0  0
 23 26  1  0  0  0  0
 20 21  1  0  0  0  0
 20 22  1  0  0  0  0
 20 23  1  0  0  0  0
 17 18  1  0  0  0  0
 17 19  1  0  0  0  0
 17 20  1  0  0  0  0
 14 15  1  0  0  0  0
 14 16  1  0  0  0  0
 14 17  1  0  0  0  0
 11 12  1  0  0  0  0
 11 13  1  0  0  0  0
 11 14  1  0  0  0  0
  9 10  1  0  0  0  0
  9 11  1  0  0  0  0
  9 27  1  0  0  0  0
  7  8  1  0  0  0  0
  7  9  1  0  0  0  0
 31 32  1  0  0  0  0
 31 33  1  0  0  0  0
 31 34  1  0  0  0  0
 29 30  1  0  0  0  0
 29 31  1  0  0  0  0
M  CHG  1  23   1
M  END
$$$$
default_name
  -OEChem-02102213163D

 34 33  0     1  0  0  0  0  0999 V2000
   -3.8899   -3.6747    1.6490 H   0  0  0  0  0  0  0  0  0  0  0  0
   -3.9109   -2.6717    1.2250 C   0  0  0  0  0  0  0  0  0  0  0  0
   -4.6009   -2.0517    1.7950 H   0  0  0  0  0  0  0  0  0  0  0  0
   -4.2309   -2.7237    0.1860 H   0  0  0  0  0  0  0  0  0  0  0  0
   -2.5229   -2.0787    1.2980 C   0  0  0  0  0  0  0  0  0  0  0  0
   -1.5999   -2.7227    1.7810 O   0  0  0  0  0  0  0  0  0  0  0  0
   -2.3659   -0.8447    0.8120 N   0  0  0  0  0  0  0  0  0  0  0  0
   -3.1749   -0.3807    0.4220 H   0  0  0  0  0  0  0  0  0  0  0  0
   -1.0919   -0.1077    0.8170 C   0  0  1  0  0  0  0  0  0  0  0  0
   -0.3571   -0.6901    0.2581 H   0  0  0  0  0  0  0  0  0  0  0  0
   -1.3037    1.2411    0.1040 C   0  0  0  0  0  0  0  0  0  0  0  0
   -2.0648    1.8049    0.6458 H   0  0  0  0  0  0  0  0  0  0  0  0
   -0.3734    1.8117    0.1321 H   0  0  0  0  0  0  0  0  0  0  0  0
   -1.7613    1.0907   -1.3549 C   0  0  0  0  0  0  0  0  0  0  0  0
   -2.7112    0.5554   -1.3887 H   0  0  0  0  0  0  0  0  0  0  0  0
   -1.8947    2.0815   -1.7937 H   0  0  0  0  0  0  0  0  0  0  0  0
   -0.7157    0.3126   -2.1656 C   0  0  0  0  0  0  0  0  0  0  0  0
    0.2381    0.8434   -2.1174 H   0  0  0  0  0  0  0  0  0  0  0  0
   -0.5930   -0.6803   -1.7284 H   0  0  0  0  0  0  0  0  0  0  0  0
   -1.1596    0.1832   -3.6281 C   0  0  0  0  0  0  0  0  0  0  0  0
   -2.1191   -0.3437   -3.6542 H   0  0  0  0  0  0  0  0  0  0  0  0
   -1.3174    1.1871   -4.0336 H   0  0  0  0  0  0  0  0  0  0  0  0
   -0.1538   -0.5458   -4.4414 N   0  3  0  0  0  0  0  0  0  0  0  0
   -0.0112   -1.4795   -4.0771 H   0  0  0  0  0  0  0  0  0  0  0  0
   -0.4613   -0.6223   -5.4029 H   0  0  0  0  0  0  0  0  0  0  0  0
    0.7340   -0.0574   -4.4276 H   0  0  0  0  0  0  0  0  0  0  0  0
   -0.5865    0.0771    2.2496 C   0  0  0  0  0  0  0  0  0  0  0  0
    0.5860   -0.1608    2.5143 O   0  0  0  0  0  0  0  0  0  0  0  0
   -1.4786    0.4656    3.1667 N   0  0  0  0  0  0  0  0  0  0  0  0
   -2.4139    0.6698    2.8558 H   0  0  0  0  0  0  0  0  0  0  0  0
   -1.1587    0.6908    4.5775 C   0  0  0  0  0  0  0  0  0  0  0  0
   -0.4270    1.4968    4.6656 H   0  0  0  0  0  0  0  0  0  0  0  0
   -2.0565    0.9649    5.1327 H   0  0  0  0  0  0  0  0  0  0  0  0
   -0.7281   -0.2137    5.0125 H   0  0  0  0  0  0  0  0  0  0  0  0
  5  6  2  0  0  0  0
  5  7  1  0  0  0  0
  2  3  1  0  0  0  0
  2  4  1  0  0  0  0
  2  5  1  0  0  0  0
  1  2  1  0  0  0  0
 27 28  2  0  0  0  0
 27 29  1  0  0  0  0
 23 24  1  0  0  0  0
 23 25  1  0  0  0  0
 23 26  1  0  0  0  0
 20 21  1  0  0  0  0
 20 22  1  0  0  0  0
 20 23  1  0  0  0  0
 17 18  1  0  0  0  0
 17 19  1  0  0  0  0
 17 20  1  0  0  0  0
 14 15  1  0  0  0  0
 14 16  1  0  0  0  0
 14 17  1  0  0  0  0
 11 12  1  0  0  0  0
 11 13  1  0  0  0  0
 11 14  1  0  0  0  0
  9 10  1  0  0  0  0
  9 11  1  0  0  0  0
  9 27  1  0  0  0  0
  7  8  1  0  0  0  0
  7  9  1  0  0  0  0
 31 32  1  0  0  0  0
 31 33  1  0  0  0  0
 31 34  1  0  0  0  0
 29 30  1  0  0  0  0
 29 31  1  0  0  0  0
M  CHG  1  23   1
M  END
$$$$
default_name
  -OEChem-02102213163D

 34 33  0     1  0  0  0  0  0999 V2000
   -3.8899   -3.6747    1.6490 H   0  0  0  0  0  0  0  0  0  0  0  0
   -3.9109   -2.6717    1.2250 C   0  0  0  0  0  0  0  0  0  0  0  0
   -4.6009   -2.0517    1.7950 H   0  0  0  0  0  0  0  0  0  0  0  0
   -4.2309   -2.7237    0.1860 H   0  0  0  0  0  0  0  0  0  0  0  0
   -2.5229   -2.0787    1.2980 C   0  0  0  0  0  0  0  0  0  0  0  0
   -1.5999   -2.7227    1.7810 O   0  0  0  0  0  0  0  0  0  0  0  0
   -2.3659   -0.8447    0.8120 N   0  0  0  0  0  0  0  0  0  0  0  0
   -3.1749   -0.3807    0.4220 H   0  0  0  0  0  0  0  0  0  0  0  0
   -1.0919   -0.1077    0.8170 C   0  0  1  0  0  0  0  0  0  0  0  0
   -0.3571   -0.6901    0.2581 H   0  0  0  0  0  0  0  0  0  0  0  0
   -1.3037    1.2411    0.1040 C   0  0  0  0  0  0  0  0  0  0  0  0
   -2.0648    1.8049    0.6458 H   0  0  0  0  0  0  0  0  0  0  0  0
   -0.3734    1.8117    0.1321 H   0  0  0  0  0  0  0  0  0  0  0  0
   -1.7613    1.0907   -1.3549 C   0  0  0  0  0  0  0  0  0  0  0  0
   -2.8132    0.8032   -1.3822 H   0  0  0  0  0  0  0  0  0  0  0  0
   -1.6392    2.0454   -1.8701 H   0  0  0  0  0  0  0  0  0  0  0  0
   -0.9275    0.0178   -2.0688 C   0  0  0  0  0  0  0  0  0  0  0  0
    0.1269    0.3011   -2.0266 H   0  0  0  0  0  0  0  0  0  0  0  0
   -1.0604   -0.9365   -1.5554 H   0  0  0  0  0  0  0  0  0  0  0  0
   -1.3666   -0.1159   -3.5323 C   0  0  0  0  0  0  0  0  0  0  0  0
   -2.4258   -0.3922   -3.5530 H   0  0  0  0  0  0  0  0  0  0  0  0
   -1.2654    0.8602   -4.0162 H   0  0  0  0  0  0  0  0  0  0  0  0
   -0.5591   -1.1317   -4.2539 N   0  3  0  0  0  0  0  0  0  0  0  0
   -0.6571   -2.0396   -3.8168 H   0  0  0  0  0  0  0  0  0  0  0  0
   -0.8608   -1.2076   -5.2173 H   0  0  0  0  0  0  0  0  0  0  0  0
    0.4214   -0.8760   -4.2452 H   0  0  0  0  0  0  0  0  0  0  0  0
   -0.5865    0.0771    2.2496 C   0  0  0  0  0  0  0  0  0  0  0  0
    0.5860   -0.1608    2.5143 O   0  0  0  0  0  0  0  0  0  0  0  0
   -1.4786    0.4656    3.1667 N   0  0  0  0  0  0  0  0  0  0  0  0
   -2.4139    0.6698    2.8558 H   0  0  0  0  0  0  0  0  0  0  0  0
   -1.1587    0.6908    4.5775 C   0  0  0  0  0  0  0  0  0  0  0  0
   -0.4270    1.4968    4.6656 H   0  0  0  0  0  0  0  0  0  0  0  0
   -2.0565    0.9649    5.1327 H   0  0  0  0  0  0  0  0  0  0  0  0
   -0.7281   -0.2137    5.0125 H   0  0  0  0  0  0  0  0  0  0  0  0
  5  6  2  0  0  0  0
  5  7  1  0  0  0  0
  2  3  1  0  0  0  0
  2  4  1  0  0  0  0
  2  5  1  0  0  0  0
  1  2  1  0  0  0  0
 27 28  2  0  0  0  0
 27 29  1  0  0  0  0
 23 24  1  0  0  0  0
 23 25  1  0  0  0  0
 23 26  1  0  0  0  0
 20 21  1  0  0  0  0
 20 22  1  0  0  0  0
 20 23  1  0  0  0  0
 17 18  1  0  0  0  0
 17 19  1  0  0  0  0
 17 20  1  0  0  0  0
 14 15  1  0  0  0  0
 14 16  1  0  0  0  0
 14 17  1  0  0  0  0
 11 12  1  0  0  0  0
 11 13  1  0  0  0  0
 11 14  1  0  0  0  0
  9 10  1  0  0  0  0
  9 11  1  0  0  0  0
  9 27  1  0  0  0  0
  7  8  1  0  0  0  0
  7  9  1  0  0  0  0
 31 32  1  0  0  0  0
 31 33  1  0  0  0  0
 31 34  1  0  0  0  0
 29 30  1  0  0  0  0
 29 31  1  0  0  0  0
M  CHG  1  23   1
M  END
$$$$
default_name
  -OEChem-02102213163D

 34 33  0     1  0  0  0  0  0999 V2000
   -3.8899   -3.6747    1.6490 H   0  0  0  0  0  0  0  0  0  0  0  0
   -3.9109   -2.6717    1.2250 C   0  0  0  0  0  0  0  0  0  0  0  0
   -4.6009   -2.0517    1.7950 H   0  0  0  0  0  0  0  0  0  0  0  0
   -4.2309   -2.7237    0.1860 H   0  0  0  0  0  0  0  0  0  0  0  0
   -2.5229   -2.0787    1.2980 C   0  0  0  0  0  0  0  0  0  0  0  0
   -1.5999   -2.7227    1.7810 O   0  0  0  0  0  0  0  0  0  0  0  0
   -2.3659   -0.8447    0.8120 N   0  0  0  0  0  0  0  0  0  0  0  0
   -3.1749   -0.3807    0.4220 H   0  0  0  0  0  0  0  0  0  0  0  0
   -1.0919   -0.1077    0.8170 C   0  0  1  0  0  0  0  0  0  0  0  0
   -0.3571   -0.6901    0.2581 H   0  0  0  0  0  0  0  0  0  0  0  0
   -1.3037    1.2411    0.1040 C   0  0  0  0  0  0  0  0  0  0  0  0
   -2.0648    1.8049    0.6458 H   0  0  0  0  0  0  0  0  0  0  0  0
   -0.3734    1.8117    0.1321 H   0  0  0  0  0  0  0  0  0  0  0  0
   -1.7613    1.0907   -1.3549 C   0  0  0  0  0  0  0  0  0  0  0  0
   -2.8511    1.0682   -1.3977 H   0  0  0  0  0  0  0  0  0  0  0  0
   -1.3993    1.9420   -1.9347 H   0  0  0  0  0  0  0  0  0  0  0  0
   -1.2069   -0.2074   -1.9580 C   0  0  0  0  0  0  0  0  0  0  0  0
   -0.1160   -0.1883   -1.9000 H   0  0  0  0  0  0  0  0  0  0  0  0
   -1.5793   -1.0558   -1.3803 H   0  0  0  0  0  0  0  0  0  0  0  0
   -1.6424   -0.3466   -3.4220 C   0  0  0  0  0  0  0  0  0  0  0  0
   -2.7366   -0.3559   -3.4592 H   0  0  0  0  0  0  0  0  0  0  0  0
   -1.2959    0.5330   -3.9729 H   0  0  0  0  0  0  0  0  0  0  0  0
   -1.0994   -1.5837   -4.0378 N   0  3  0  0  0  0  0  0  0  0  0  0
   -1.4252   -2.4019   -3.5386 H   0  0  0  0  0  0  0  0  0  0  0  0
   -1.3953   -1.6604   -5.0030 H   0  0  0  0  0  0  0  0  0  0  0  0
   -0.0863   -1.5759   -4.0138 H   0  0  0  0  0  0  0  0  0  0  0  0
   -0.5865    0.0771    2.2496 C   0  0  0  0  0  0  0  0  0  0  0  0
    0.5860   -0.1608    2.5143 O   0  0  0  0  0  0  0  0  0  0  0  0
   -1.4786    0.4656    3.1667 N   0  0  0  0  0  0  0  0  0  0  0  0
   -2.4139    0.6698    2.8558 H   0  0  0  0  0  0  0  0  0  0  0  0
   -1.1587    0.6908    4.5775 C   0  0  0  0  0  0  0  0  0  0  0  0
   -0.4270    1.4968    4.6656 H   0  0  0  0  0  0  0  0  0  0  0  0
   -2.0565    0.9649    5.1327 H   0  0  0  0  0  0  0  0  0  0  0  0
   -0.7281   -0.2137    5.0125 H   0  0  0  0  0  0  0  0  0  0  0  0
  5  6  2  0  0  0  0
  5  7  1  0  0  0  0
  2  3  1  0  0  0  0
  2  4  1  0  0  0  0
  2  5  1  0  0  0  0
  1  2  1  0  0  0  0
 27 28  2  0  0  0  0
 27 29  1  0  0  0  0
 23 24  1  0  0  0  0
 23 25  1  0  0  0  0
 23 26  1  0  0  0  0
 20 21  1  0  0  0  0
 20 22  1  0  0  0  0
 20 23  1  0  0  0  0
 17 18  1  0  0  0  0
 17 19  1  0  0  0  0
 17 20  1  0  0  0  0
 14 15  1  0  0  0  0
 14 16  1  0  0  0  0
 14 17  1  0  0  0  0
 11 12  1  0  0  0  0
 11 13  1  0  0  0  0
 11 14  1  0  0  0  0
  9 10  1  0  0  0  0
  9 11  1  0  0  0  0
  9 27  1  0  0  0  0
  7  8  1  0  0  0  0
  7  9  1  0  0  0  0
 31 32  1  0  0  0  0
 31 33  1  0  0  0  0
 31 34  1  0  0  0  0
 29 30  1  0  0  0  0
 29 31  1  0  0  0  0
M  CHG  1  23   1
M  END
$$$$
default_name
  -OEChem-02102213163D

 34 33  0     1  0  0  0  0  0999 V2000
   -3.8899   -3.6747    1.6490 H   0  0  0  0  0  0  0  0  0  0  0  0
   -3.9109   -2.6717    1.2250 C   0  0  0  0  0  0  0  0  0  0  0  0
   -4.6009   -2.0517    1.7950 H   0  0  0  0  0  0  0  0  0  0  0  0
   -4.2309   -2.7237    0.1860 H   0  0  0  0  0  0  0  0  0  0  0  0
   -2.5229   -2.0787    1.2980 C   0  0  0  0  0  0  0  0  0  0  0  0
   -1.5999   -2.7227    1.7810 O   0  0  0  0  0  0  0  0  0  0  0  0
   -2.3659   -0.8447    0.8120 N   0  0  0  0  0  0  0  0  0  0  0  0
   -3.1749   -0.3807    0.4220 H   0  0  0  0  0  0  0  0  0  0  0  0
   -1.0919   -0.1077    0.8170 C   0  0  1  0  0  0  0  0  0  0  0  0
   -0.3571   -0.6901    0.2581 H   0  0  0  0  0  0  0  0  0  0  0  0
   -1.3037    1.2411    0.1040 C   0  0  0  0  0  0  0  0  0  0  0  0
   -2.0648    1.8049    0.6458 H   0  0  0  0  0  0  0  0  0  0  0  0
   -0.3734    1.8117    0.1321 H   0  0  0  0  0  0  0  0  0  0  0  0
   -1.7613    1.0907   -1.3549 C   0  0  0  0  0  0  0  0  0  0  0  0
   -2.8221    1.3323   -1.4340 H   0  0  0  0  0  0  0  0  0  0  0  0
   -1.1914    1.7781   -1.9830 H   0  0  0  0  0  0  0  0  0  0  0  0
   -1.5350   -0.3477   -1.8406 C   0  0  0  0  0  0  0  0  0  0  0  0
   -0.4742   -0.5916   -1.7461 H   0  0  0  0  0  0  0  0  0  0  0  0
   -2.1142   -1.0300   -1.2152 H   0  0  0  0  0  0  0  0  0  0  0  0
   -1.9684   -0.4931   -3.3047 C   0  0  0  0  0  0  0  0  0  0  0  0
   -3.0303   -0.2372   -3.3793 H   0  0  0  0  0  0  0  0  0  0  0  0
   -1.4069    0.2278   -3.9067 H   0  0  0  0  0  0  0  0  0  0  0  0
   -1.7378   -1.8708   -3.8080 N   0  3  0  0  0  0  0  0  0  0  0  0
   -2.2632   -2.5415   -3.2613 H   0  0  0  0  0  0  0  0  0  0  0  0
   -2.0283   -1.9499   -4.7746 H   0  0  0  0  0  0  0  0  0  0  0  0
   -0.7547   -2.1093   -3.7492 H   0  0  0  0  0  0  0  0  0  0  0  0
   -0.5865    0.0771    2.2496 C   0  0  0  0  0  0  0  0  0  0  0  0
    0.5860   -0.1608    2.5143 O   0  0  0  0  0  0  0  0  0  0  0  0
   -1.4786    0.4656    3.1667 N   0  0  0  0  0  0  0  0  0  0  0  0
   -2.4139    0.6698    2.8558 H   0  0  0  0  0  0  0  0  0  0  0  0
   -1.1587    0.6908    4.5775 C   0  0  0  0  0  0  0  0  0  0  0  0
   -0.4270    1.4968    4.6656 H   0  0  0  0  0  0  0  0  0  0  0  0
   -2.0565    0.9649    5.1327 H   0  0  0  0  0  0  0  0  0  0  0  0
   -0.7281   -0.2137    5.0125 H   0  0  0  0  0  0  0  0  0  0  0  0
  5  6  2  0  0  0  0
  5  7  1  0  0  0  0
  2  3  1  0  0  0  0
  2  4  1  0  0  0  0
  2  5  1  0  0  0  0
  1  2  1  0  0  0  0
 27 28  2  0  0  0  0
 27 29  1  0  0  0  0
 23 24  1  0  0  0  0
 23 25  1  0  0  0  0
 23 26  1  0  0  0  0
 20 21  1  0  0  0  0
 20 22  1  0  0  0  0
 20 23  1  0  0  0  0
 17 18  1  0  0  0  0
 17 19  1  0  0  0  0
 17 20  1  0  0  0  0
 14 15  1  0  0  0  0
 14 16  1  0  0  0  0
 14 17  1  0  0  0  0
 11 12  1  0  0  0  0
 11 13  1  0  0  0  0
 11 14  1  0  0  0  0
  9 10  1  0  0  0  0
  9 11  1  0  0  0  0
  9 27  1  0  0  0  0
  7  8  1  0  0  0  0
  7  9  1  0  0  0  0
 31 32  1  0  0  0  0
 31 33  1  0  0  0  0
 31 34  1  0  0  0  0
 29 30  1  0  0  0  0
 29 31  1  0  0  0  0
M  CHG  1  23   1
M  END
$$$$
default_name
  -OEChem-02102213163D

 34 33  0     1  0  0  0  0  0999 V2000
   -3.8899   -3.6747    1.6490 H   0  0  0  0  0  0  0  0  0  0  0  0
   -3.9109   -2.6717    1.2250 C   0  0  0  0  0  0  0  0  0  0  0  0
   -4.6009   -2.0517    1.7950 H   0  0  0  0  0  0  0  0  0  0  0  0
   -4.2309   -2.7237    0.1860 H   0  0  0  0  0  0  0  0  0  0  0  0
   -2.5229   -2.0787    1.2980 C   0  0  0  0  0  0  0  0  0  0  0  0
   -1.5999   -2.7227    1.7810 O   0  0  0  0  0  0  0  0  0  0  0  0
   -2.3659   -0.8447    0.8120 N   0  0  0  0  0  0  0  0  0  0  0  0
   -3.1749   -0.3807    0.4220 H   0  0  0  0  0  0  0  0  0  0  0  0
   -1.0919   -0.1077    0.8170 C   0  0  1  0  0  0  0  0  0  0  0  0
   -0.3571   -0.6901    0.2581 H   0  0  0  0  0  0  0  0  0  0  0  0
   -1.3037    1.2411    0.1040 C   0  0  0  0  0  0  0  0  0  0  0  0
   -2.0648    1.8049    0.6458 H   0  0  0  0  0  0  0  0  0  0  0  0
   -0.3734    1.8117    0.1321 H   0  0  0  0  0  0  0  0  0  0  0  0
   -1.7613    1.0907   -1.3549 C   0  0  0  0  0  0  0  0  0  0  0  0
   -2.7283    1.5775   -1.4887 H   0  0  0  0  0  0  0  0  0  0  0  0
   -1.0296    1.5650   -2.0118 H   0  0  0  0  0  0  0  0  0  0  0  0
   -1.8894   -0.3935   -1.7247 C   0  0  0  0  0  0  0  0  0  0  0  0
   -0.9231   -0.8813   -1.5754 H   0  0  0  0  0  0  0  0  0  0  0  0
   -2.6288   -0.8608   -1.0713 H   0  0  0  0  0  0  0  0  0  0  0  0
   -2.3222   -0.5454   -3.1883 C   0  0  0  0  0  0  0  0  0  0  0  0
   -3.2868   -0.0443   -3.3188 H   0  0  0  0  0  0  0  0  0  0  0  0
   -1.5908   -0.0347   -3.8219 H   0  0  0  0  0  0  0  0  0  0  0  0
   -2.4308   -1.9735   -3.5800 N   0  3  0  0  0  0  0  0  0  0  0  0
   -3.1140   -2.4491   -3.0040 H   0  0  0  0  0  0  0  0  0  0  0  0
   -2.7167   -2.0564   -4.5477 H   0  0  0  0  0  0  0  0  0  0  0  0
   -1.5380   -2.4399   -3.4695 H   0  0  0  0  0  0  0  0  0  0  0  0
   -0.5865    0.0771    2.2496 C   0  0  0  0  0  0  0  0  0  0  0  0
    0.5860   -0.1608    2.5143 O   0  0  0  0  0  0  0  0  0  0  0  0
   -1.4786    0.4656    3.1667 N   0  0  0  0  0  0  0  0  0  0  0  0
   -2.4139    0.6698    2.8558 H   0  0  0  0  0  0  0  0  0  0  0  0
   -1.1587    0.6908    4.5775 C   0  0  0  0  0  0  0  0  0  0  0  0
   -0.4270    1.4968    4.6656 H   0  0  0  0  0  0  0  0  0  0  0  0
   -2.0565    0.9649    5.1327 H   0  0  0  0  0  0  0  0  0  0  0  0
   -0.7281   -0.2137    5.0125 H   0  0  0  0  0  0  0  0  0  0  0  0
  5  6  2  0  0  0  0
  5  7  1  0  0  0  0
  2  3  1  0  0  0  0
  2  4  1  0  0  0  0
  2  5  1  0  0  0  0
  1  2  1  0  0  0  0
 27 28  2  0  0  0  0
 27 29  1  0  0  0  0
 23 24  1  0  0  0  0
 23 25  1  0  0  0  0
 23 26  1  0  0  0  0
 20 21  1  0  0  0  0
 20 22  1  0  0  0  0
 20 23  1  0  0  0  0
 17 18  1  0  0  0  0
 17 19  1  0  0  0  0
 17 20  1  0  0  0  0
 14 15  1  0  0  0  0
 14 16  1  0  0  0  0
 14 17  1  0  0  0  0
 11 12  1  0  0  0  0
 11 13  1  0  0  0  0
 11 14  1  0  0  0  0
  9 10  1  0  0  0  0
  9 11  1  0  0  0  0
  9 27  1  0  0  0  0
  7  8  1  0  0  0  0
  7  9  1  0  0  0  0
 31 32  1  0  0  0  0
 31 33  1  0  0  0  0
 31 34  1  0  0  0  0
 29 30  1  0  0  0  0
 29 31  1  0  0  0  0
M  CHG  1  23   1
M  END
$$$$
default_name
  -OEChem-02102213163D

 34 33  0     1  0  0  0  0  0999 V2000
   -3.8899   -3.6747    1.6490 H   0  0  0  0  0  0  0  0  0  0  0  0
   -3.9109   -2.6717    1.2250 C   0  0  0  0  0  0  0  0  0  0  0  0
   -4.6009   -2.0517    1.7950 H   0  0  0  0  0  0  0  0  0  0  0  0
   -4.2309   -2.7237    0.1860 H   0  0  0  0  0  0  0  0  0  0  0  0
   -2.5229   -2.0787    1.2980 C   0  0  0  0  0  0  0  0  0  0  0  0
   -1.5999   -2.7227    1.7810 O   0  0  0  0  0  0  0  0  0  0  0  0
   -2.3659   -0.8447    0.8120 N   0  0  0  0  0  0  0  0  0  0  0  0
   -3.1749   -0.3807    0.4220 H   0  0  0  0  0  0  0  0  0  0  0  0
   -1.0919   -0.1077    0.8170 C   0  0  1  0  0  0  0  0  0  0  0  0
   -0.3571   -0.6901    0.2581 H   0  0  0  0  0  0  0  0  0  0  0  0
   -1.3037    1.2411    0.1040 C   0  0  0  0  0  0  0  0  0  0  0  0
   -2.0648    1.8049    0.6458 H   0  0  0  0  0  0  0  0  0  0  0  0
   -0.3734    1.8117    0.1321 H   0  0  0  0  0  0  0  0  0  0  0  0
   -1.7613    1.0907   -1.3549 C   0  0  0  0  0  0  0  0  0  0  0  0
   -2.5761    1.7870   -1.5580 H   0  0  0  0  0  0  0  0  0  0  0  0
   -0.9250    1.3171   -2.0191 H   0  0  0  0  0  0  0  0  0  0  0  0
   -2.2458   -0.3418   -1.6183 C   0  0  0  0  0  0  0  0  0  0  0  0
   -1.4323   -1.0377   -1.3996 H   0  0  0  0  0  0  0  0  0  0  0  0
   -3.0878   -0.5599   -0.9583 H   0  0  0  0  0  0  0  0  0  0  0  0
   -2.6797   -0.5001   -3.0809 C   0  0  0  0  0  0  0  0  0  0  0  0
   -3.4887    0.2098   -3.2816 H   0  0  0  0  0  0  0  0  0  0  0  0
   -1.8351   -0.2364   -3.7245 H   0  0  0  0  0  0  0  0  0  0  0  0
   -3.1312   -1.8848   -3.3695 N   0  3  0  0  0  0  0  0  0  0  0  0
   -3.9196   -2.1309   -2.7841 H   0  0  0  0  0  0  0  0  0  0  0  0
   -3.4135   -1.9726   -4.3378 H   0  0  0  0  0  0  0  0  0  0  0  0
   -2.3830   -2.5451   -3.1936 H   0  0  0  0  0  0  0  0  0  0  0  0
   -0.5865    0.0771    2.2496 C   0  0  0  0  0  0  0  0  0  0  0  0
    0.5860   -0.1608    2.5143 O   0  0  0  0  0  0  0  0  0  0  0  0
   -1.4786    0.4656    3.1667 N   0  0  0  0  0  0  0  0  0  0  0  0
   -2.4139    0.6698    2.8558 H   0  0  0  0  0  0  0  0  0  0  0  0
   -1.1587    0.6908    4.5775 C   0  0  0  0  0  0  0  0  0  0  0  0
   -0.4270    1.4968    4.6656 H   0  0  0  0  0  0  0  0  0  0  0  0
   -2.0565    0.9649    5.1327 H   0  0  0  0  0  0  0  0  0  0  0  0
   -0.7281   -0.2137    5.0125 H   0  0  0  0  0  0  0  0  0  0  0  0
  5  6  2  0  0  0  0
  5  7  1  0  0  0  0
  2  3  1  0  0  0  0
  2  4  1  0  0  0  0
  2  5  1  0  0  0  0
  1  2  1  0  0  0  0
 27 28  2  0  0  0  0
 27 29  1  0  0  0  0
 23 24  1  0  0  0  0
 23 25  1  0  0  0  0
 23 26  1  0  0  0  0
 20 21  1  0  0  0  0
 20 22  1  0  0  0  0
 20 23  1  0  0  0  0
 17 18  1  0  0  0  0
 17 19  1  0  0  0  0
 17 20  1  0  0  0  0
 14 15  1  0  0  0  0
 14 16  1  0  0  0  0
 14 17  1  0  0  0  0
 11 12  1  0  0  0  0
 11 13  1  0  0  0  0
 11 14  1  0  0  0  0
  9 10  1  0  0  0  0
  9 11  1  0  0  0  0
  9 27  1  0  0  0  0
  7  8  1  0  0  0  0
  7  9  1  0  0  0  0
 31 32  1  0  0  0  0
 31 33  1  0  0  0  0
 31 34  1  0  0  0  0
 29 30  1  0  0  0  0
 29 31  1  0  0  0  0
M  CHG  1  23   1
M  END
$$$$
default_name
  -OEChem-02102213163D

 34 33  0     1  0  0  0  0  0999 V2000
   -3.8899   -3.6747    1.6490 H   0  0  0  0  0  0  0  0  0  0  0  0
   -3.9109   -2.6717    1.2250 C   0  0  0  0  0  0  0  0  0  0  0  0
   -4.6009   -2.0517    1.7950 H   0  0  0  0  0  0  0  0  0  0  0  0
   -4.2309   -2.7237    0.1860 H   0  0  0  0  0  0  0  0  0  0  0  0
   -2.5229   -2.0787    1.2980 C   0  0  0  0  0  0  0  0  0  0  0  0
   -1.5999   -2.7227    1.7810 O   0  0  0  0  0  0  0  0  0  0  0  0
   -2.3659   -0.8447    0.8120 N   0  0  0  0  0  0  0  0  0  0  0  0
   -3.1749   -0.3807    0.4220 H   0  0  0  0  0  0  0  0  0  0  0  0
   -1.0919   -0.1077    0.8170 C   0  0  1  0  0  0  0  0  0  0  0  0
   -0.3571   -0.6901    0.2581 H   0  0  0  0  0  0  0  0  0  0  0  0
   -1.3037    1.2411    0.1040 C   0  0  0  0  0  0  0  0  0  0  0  0
   -2.0648    1.8049    0.6458 H   0  0  0  0  0  0  0  0  0  0  0  0
   -0.3734    1.8117    0.1321 H   0  0  0  0  0  0  0  0  0  0  0  0
   -1.7613    1.0907   -1.3549 C   0  0  0  0  0  0  0  0  0  0  0  0
   -2.3758    1.9466   -1.6373 H   0  0  0  0  0  0  0  0  0  0  0  0
   -0.8847    1.0515   -2.0044 H   0  0  0  0  0  0  0  0  0  0  0  0
   -2.5801   -0.1960   -1.5284 C   0  0  0  0  0  0  0  0  0  0  0  0
   -1.9671   -1.0499   -1.2306 H   0  0  0  0  0  0  0  0  0  0  0  0
   -3.4602   -0.1476   -0.8840 H   0  0  0  0  0  0  0  0  0  0  0  0
   -3.0167   -0.3601   -2.9896 C   0  0  0  0  0  0  0  0  0  0  0  0
   -3.6222    0.5077   -3.2705 H   0  0  0  0  0  0  0  0  0  0  0  0
   -2.1231   -0.3638   -3.6211 H   0  0  0  0  0  0  0  0  0  0  0  0
   -3.7913   -1.6107   -3.1907 N   0  3  0  0  0  0  0  0  0  0  0  0
   -4.6251   -1.6086   -2.6166 H   0  0  0  0  0  0  0  0  0  0  0  0
   -4.0713   -1.7042   -4.1591 H   0  0  0  0  0  0  0  0  0  0  0  0
   -3.2320   -2.4178   -2.9404 H   0  0  0  0  0  0  0  0  0  0  0  0
   -0.5865    0.0771    2.2496 C   0  0  0  0  0  0  0  0  0  0  0  0
    0.5860   -0.1608    2.5143 O   0  0  0  0  0  0  0  0  0  0  0  0
   -1.4786    0.4656    3.1667 N   0  0  0  0  0  0  0  0  0  0  0  0
   -2.4139    0.6698    2.8558 H   0  0  0  0  0  0  0  0  0  0  0  0
   -1.1587    0.6908    4.5775 C   0  0  0  0  0  0  0  0  0  0  0  0
   -0.4270    1.4968    4.6656 H   0  0  0  0  0  0  0  0  0  0  0  0
   -2.0565    0.9649    5.1327 H   0  0  0  0  0  0  0  0  0  0  0  0
   -0.7281   -0.2137    5.0125 H   0  0  0  0  0  0  0  0  0  0  0  0
  5  6  2  0  0  0  0
  5  7  1  0  0  0  0
  2  3  1  0  0  0  0
  2  4  1  0  0  0  0
  2  5  1  0  0  0  0
  1  2  1  0  0  0  0
 27 28  2  0  0  0  0
 27 29  1  0  0  0  0
 23 24  1  0  0  0  0
 23 25  1  0  0  0  0
 23 26  1  0  0  0  0
 20 21  1  0  0  0  0
 20 22  1  0  0  0  0
 20 23  1  0  0  0  0
 17 18  1  0  0  0  0
 17 19  1  0  0  0  0
 17 20  1  0  0  0  0
 14 15  1  0  0  0  0
 14 16  1  0  0  0  0
 14 17  1  0  0  0  0
 11 12  1  0  0  0  0
 11 13  1  0  0  0  0
 11 14  1  0  0  0  0
  9 10  1  0  0  0  0
  9 11  1  0  0  0  0
  9 27  1  0  0  0  0
  7  8  1  0  0  0  0
  7  9  1  0  0  0  0
 31 32  1  0  0  0  0
 31 33  1  0  0  0  0
 31 34  1  0  0  0  0
 29 30  1  0  0  0  0
 29 31  1  0  0  0  0
M  CHG  1  23   1
M  END
$$$$
default_name
  -OEChem-02102213163D

 34 33  0     1  0  0  0  0  0999 V2000
   -3.8899   -3.6747    1.6490 H   0  0  0  0  0  0  0  0  0  0  0  0
   -3.9109   -2.6717    1.2250 C   0  0  0  0  0  0  0  0  0  0  0  0
   -4.6009   -2.0517    1.7950 H   0  0  0  0  0  0  0  0  0  0  0  0
   -4.2309   -2.7237    0.1860 H   0  0  0  0  0  0  0  0  0  0  0  0
   -2.5229   -2.0787    1.2980 C   0  0  0  0  0  0  0  0  0  0  0  0
   -1.5999   -2.7227    1.7810 O   0  0  0  0  0  0  0  0  0  0  0  0
   -2.3659   -0.8447    0.8120 N   0  0  0  0  0  0  0  0  0  0  0  0
   -3.1749   -0.3807    0.4220 H   0  0  0  0  0  0  0  0  0  0  0  0
   -1.0919   -0.1077    0.8170 C   0  0  1  0  0  0  0  0  0  0  0  0
   -0.3571   -0.6901    0.2581 H   0  0  0  0  0  0  0  0  0  0  0  0
   -1.3037    1.2411    0.1040 C   0  0  0  0  0  0  0  0  0  0  0  0
   -2.0648    1.8049    0.6458 H   0  0  0  0  0  0  0  0  0  0  0  0
   -0.3734    1.8117    0.1321 H   0  0  0  0  0  0  0  0  0  0  0  0
   -1.7613    1.0907   -1.3549 C   0  0  0  0  0  0  0  0  0  0  0  0
   -2.1411    2.0455   -1.7211 H   0  0  0  0  0  0  0  0  0  0  0  0
   -0.9114    0.7861   -1.9686 H   0  0  0  0  0  0  0  0  0  0  0  0
   -2.8695    0.0340   -1.4614 C   0  0  0  0  0  0  0  0  0  0  0  0
   -2.4909   -0.9174   -1.0800 H   0  0  0  0  0  0  0  0  0  0  0  0
   -3.7204    0.3478   -0.8534 H   0  0  0  0  0  0  0  0  0  0  0  0
   -3.3100   -0.1351   -2.9208 C   0  0  0  0  0  0  0  0  0  0  0  0
   -3.6782    0.8292   -3.2860 H   0  0  0  0  0  0  0  0  0  0  0  0
   -2.4352   -0.4080   -3.5186 H   0  0  0  0  0  0  0  0  0  0  0  0
   -4.3661   -1.1700   -3.0558 N   0  3  0  0  0  0  0  0  0  0  0  0
   -5.1825   -0.9178   -2.5130 H   0  0  0  0  0  0  0  0  0  0  0  0
   -4.6452   -1.2695   -4.0239 H   0  0  0  0  0  0  0  0  0  0  0  0
   -4.0272   -2.0667   -2.7272 H   0  0  0  0  0  0  0  0  0  0  0  0
   -0.5865    0.0771    2.2496 C   0  0  0  0  0  0  0  0  0  0  0  0
    0.5860   -0.1608    2.5143 O   0  0  0  0  0  0  0  0  0  0  0  0
   -1.4786    0.4656    3.1667 N   0  0  0  0  0  0  0  0  0  0  0  0
   -2.4139    0.6698    2.8558 H   0  0  0  0  0  0  0  0  0  0  0  0
   -1.1587    0.6908    4.5775 C   0  0  0  0  0  0  0  0  0  0  0  0
   -0.4270    1.4968    4.6656 H   0  0  0  0  0  0  0  0  0  0  0  0
   -2.0565    0.9649    5.1327 H   0  0  0  0  0  0  0  0  0  0  0  0
   -0.7281   -0.2137    5.0125 H   0  0  0  0  0  0  0  0  0  0  0  0
  5  6  2  0  0  0  0
  5  7  1  0  0  0  0
  2  3  1  0  0  0  0
  2  4  1  0  0  0  0
  2  5  1  0  0  0  0
  1  2  1  0  0  0  0
 27 28  2  0  0  0  0
 27 29  1  0  0  0  0
 23 24  1  0  0  0  0
 23 25  1  0  0  0  0
 23 26  1  0  0  0  0
 20 21  1  0  0  0  0
 20 22  1  0  0  0  0
 20 23  1  0  0  0  0
 17 18  1  0  0  0  0
 17 19  1  0  0  0  0
 17 20  1  0  0  0  0
 14 15  1  0  0  0  0
 14 16  1  0  0  0  0
 14 17  1  0  0  0  0
 11 12  1  0  0  0  0
 11 13  1  0  0  0  0
 11 14  1  0  0  0  0
  9 10  1  0  0  0  0
  9 11  1  0  0  0  0
  9 27  1  0  0  0  0
  7  8  1  0  0  0  0
  7  9  1  0  0  0  0
 31 32  1  0  0  0  0
 31 33  1  0  0  0  0
 31 34  1  0  0  0  0
 29 30  1  0  0  0  0
 29 31  1  0  0  0  0
M  CHG  1  23   1
M  END
$$$$
default_name
  -OEChem-02102213163D

 34 33  0     1  0  0  0  0  0999 V2000
   -3.8899   -3.6747    1.6490 H   0  0  0  0  0  0  0  0  0  0  0  0
   -3.9109   -2.6717    1.2250 C   0  0  0  0  0  0  0  0  0  0  0  0
   -4.6009   -2.0517    1.7950 H   0  0  0  0  0  0  0  0  0  0  0  0
   -4.2309   -2.7237    0.1860 H   0  0  0  0  0  0  0  0  0  0  0  0
   -2.5229   -2.0787    1.2980 C   0  0  0  0  0  0  0  0  0  0  0  0
   -1.5999   -2.7227    1.7810 O   0  0  0  0  0  0  0  0  0  0  0  0
   -2.3659   -0.8447    0.8120 N   0  0  0  0  0  0  0  0  0  0  0  0
   -3.1749   -0.3807    0.4220 H   0  0  0  0  0  0  0  0  0  0  0  0
   -1.0919   -0.1077    0.8170 C   0  0  1  0  0  0  0  0  0  0  0  0
   -0.3571   -0.6901    0.2581 H   0  0  0  0  0  0  0  0  0  0  0  0
   -1.3037    1.2411    0.1040 C   0  0  0  0  0  0  0  0  0  0  0  0
   -2.0648    1.8049    0.6458 H   0  0  0  0  0  0  0  0  0  0  0  0
   -0.3734    1.8117    0.1321 H   0  0  0  0  0  0  0  0  0  0  0  0
   -1.7613    1.0907   -1.3549 C   0  0  0  0  0  0  0  0  0  0  0  0
   -1.8879    2.0768   -1.8037 H   0  0  0  0  0  0  0  0  0  0  0  0
   -1.0033    0.5391   -1.9143 H   0  0  0  0  0  0  0  0  0  0  0  0
   -3.0942    0.3323   -1.4216 C   0  0  0  0  0  0  0  0  0  0  0  0
   -2.9680   -0.6490   -0.9580 H   0  0  0  0  0  0  0  0  0  0  0  0
   -3.8508    0.8926   -0.8687 H   0  0  0  0  0  0  0  0  0  0  0  0
   -3.5399    0.1597   -2.8791 C   0  0  0  0  0  0  0  0  0  0  0  0
   -3.6529    1.1522   -3.3273 H   0  0  0  0  0  0  0  0  0  0  0  0
   -2.7502   -0.3661   -3.4241 H   0  0  0  0  0  0  0  0  0  0  0  0
   -4.8164   -0.5926   -2.9741 N   0  3  0  0  0  0  0  0  0  0  0  0
   -5.5537   -0.1055   -2.4803 H   0  0  0  0  0  0  0  0  0  0  0  0
   -5.0962   -0.6981   -3.9413 H   0  0  0  0  0  0  0  0  0  0  0  0
   -4.7144   -1.5156   -2.5684 H   0  0  0  0  0  0  0  0  0  0  0  0
   -0.5865    0.0771    2.2496 C   0  0  0  0  0  0  0  0  0  0  0  0
    0.5860   -0.1608    2.5143 O   0  0  0  0  0  0  0  0  0  0  0  0
   -1.4786    0.4656    3.1667 N   0  0  0  0  0  0  0  0  0  0  0  0
   -2.4139    0.6698    2.8558 H   0  0  0  0  0  0  0  0  0  0  0  0
   -1.1587    0.6908    4.5775 C   0  0  0  0  0  0  0  0  0  0  0  0
   -0.4270    1.4968    4.6656 H   0  0  0  0  0  0  0  0  0  0  0  0
   -2.0565    0.9649    5.1327 H   0  0  0  0  0  0  0  0  0  0  0  0
   -0.7281   -0.2137    5.0125 H   0  0  0  0  0  0  0  0  0  0  0  0
  5  6  2  0  0  0  0
  5  7  1  0  0  0  0
  2  3  1  0  0  0  0
  2  4  1  0  0  0  0
  2  5  1  0  0  0  0
  1  2  1  0  0  0  0
 27 28  2  0  0  0  0
 27 29  1  0  0  0  0
 23 24  1  0  0  0  0
 23 25  1  0  0  0  0
 23 26  1  0  0  0  0
 20 21  1  0  0  0  0
 20 22  1  0  0  0  0
 20 23  1  0  0  0  0
 17 18  1  0  0  0  0
 17 19  1  0  0  0  0
 17 20  1  0  0  0  0
 14 15  1  0  0  0  0
 14 16  1  0  0  0  0
 14 17  1  0  0  0  0
 11 12  1  0  0  0  0
 11 13  1  0  0  0  0
 11 14  1  0  0  0  0
  9 10  1  0  0  0  0
  9 11  1  0  0  0  0
  9 27  1  0  0  0  0
  7  8  1  0  0  0  0
  7  9  1  0  0  0  0
 31 32  1  0  0  0  0
 31 33  1  0  0  0  0
 31 34  1  0  0  0  0
 29 30  1  0  0  0  0
 29 31  1  0  0  0  0
M  CHG  1  23   1
M  END
$$$$
default_name
  -OEChem-02102213163D

 34 33  0     1  0  0  0  0  0999 V2000
   -3.8899   -3.6747    1.6490 H   0  0  0  0  0  0  0  0  0  0  0  0
   -3.9109   -2.6717    1.2250 C   0  0  0  0  0  0  0  0  0  0  0  0
   -4.6009   -2.0517    1.7950 H   0  0  0  0  0  0  0  0  0  0  0  0
   -4.2309   -2.7237    0.1860 H   0  0  0  0  0  0  0  0  0  0  0  0
   -2.5229   -2.0787    1.2980 C   0  0  0  0  0  0  0  0  0  0  0  0
   -1.5999   -2.7227    1.7810 O   0  0  0  0  0  0  0  0  0  0  0  0
   -2.3659   -0.8447    0.8120 N   0  0  0  0  0  0  0  0  0  0  0  0
   -3.1749   -0.3807    0.4220 H   0  0  0  0  0  0  0  0  0  0  0  0
   -1.0919   -0.1077    0.8170 C   0  0  1  0  0  0  0  0  0  0  0  0
   -0.3571   -0.6901    0.2581 H   0  0  0  0  0  0  0  0  0  0  0  0
   -1.3037    1.2411    0.1040 C   0  0  0  0  0  0  0  0  0  0  0  0
   -2.0648    1.8049    0.6458 H   0  0  0  0  0  0  0  0  0  0  0  0
   -0.3734    1.8117    0.1321 H   0  0  0  0  0  0  0  0  0  0  0  0
   -1.7613    1.0907   -1.3549 C   0  0  0  0  0  0  0  0  0  0  0  0
   -1.6336    2.0385   -1.8796 H   0  0  0  0  0  0  0  0  0  0  0  0
   -1.1542    0.3272   -1.8452 H   0  0  0  0  0  0  0  0  0  0  0  0
   -3.2389    0.6788   -1.4120 C   0  0  0  0  0  0  0  0  0  0  0  0
   -3.3661   -0.2630   -0.8729 H   0  0  0  0  0  0  0  0  0  0  0  0
   -3.8424    1.4498   -0.9287 H   0  0  0  0  0  0  0  0  0  0  0  0
   -3.6905    0.5042   -2.8673 C   0  0  0  0  0  0  0  0  0  0  0  0
   -3.5481    1.4549   -3.3913 H   0  0  0  0  0  0  0  0  0  0  0  0
   -3.0465   -0.2410   -3.3441 H   0  0  0  0  0  0  0  0  0  0  0  0
   -5.1115    0.0820   -2.9511 N   0  3  0  0  0  0  0  0  0  0  0  0
   -5.7135    0.7728   -2.5207 H   0  0  0  0  0  0  0  0  0  0  0  0
   -5.3935   -0.0290   -3.9170 H   0  0  0  0  0  0  0  0  0  0  0  0
   -5.2468   -0.8022   -2.4749 H   0  0  0  0  0  0  0  0  0  0  0  0
   -0.5865    0.0771    2.2496 C   0  0  0  0  0  0  0  0  0  0  0  0
    0.5860   -0.1608    2.5143 O   0  0  0  0  0  0  0  0  0  0  0  0
   -1.4786    0.4656    3.1667 N   0  0  0  0  0  0  0  0  0  0  0  0
   -2.4139    0.6698    2.8558 H   0  0  0  0  0  0  0  0  0  0  0  0
   -1.1587    0.6908    4.5775 C   0  0  0  0  0  0  0  0  0  0  0  0
   -0.4270    1.4968    4.6656 H   0  0  0  0  0  0  0  0  0  0  0  0
   -2.0565    0.9649    5.1327 H   0  0  0  0  0  0  0  0  0  0  0  0
   -0.7281   -0.2137    5.0125 H   0  0  0  0  0  0  0  0  0  0  0  0
  5  6  2  0  0  0  0
  5  7  1  0  0  0  0
  2  3  1  0  0  0  0
  2  4  1  0  0  0  0
  2  5  1  0  0  0  0
  1  2  1  0  0  0  0
 27 28  2  0  0  0  0
 27 29  1  0  0  0  0
 23 24  1  0  0  0  0
 23 25  1  0  0  0  0
 23 26  1  0  0  0  0
 20 21  1  0  0  0  0
 20 22  1  0  0  0  0
 20 23  1  0  0  0  0
 17 18  1  0  0  0  0
 17 19  1  0  0  0  0
 17 20  1  0  0  0  0
 14 15  1  0  0  0  0
 14 16  1  0  0  0  0
 14 17  1  0  0  0  0
 11 12  1  0  0  0  0
 11 13  1  0  0  0  0
 11 14  1  0  0  0  0
  9 10  1  0  0  0  0
  9 11  1  0  0  0  0
  9 27  1  0  0  0  0
  7  8  1  0  0  0  0
  7  9  1  0  0  0  0
 31 32  1  0  0  0  0
 31 33  1  0  0  0  0
 31 34  1  0  0  0  0
 29 30  1  0  0  0  0
 29 31  1  0  0  0  0
M  CHG  1  23   1
M  END
$$$$
default_name
  -OEChem-02102213163D

 34 33  0     1  0  0  0  0  0999 V2000
   -3.8899   -3.6747    1.6490 H   0  0  0  0  0  0  0  0  0  0  0  0
   -3.9109   -2.6717    1.2250 C   0  0  0  0  0  0  0  0  0  0  0  0
   -4.6009   -2.0517    1.7950 H   0  0  0  0  0  0  0  0  0  0  0  0
   -4.2309   -2.7237    0.1860 H   0  0  0  0  0  0  0  0  0  0  0  0
   -2.5229   -2.0787    1.2980 C   0  0  0  0  0  0  0  0  0  0  0  0
   -1.5999   -2.7227    1.7810 O   0  0  0  0  0  0  0  0  0  0  0  0
   -2.3659   -0.8447    0.8120 N   0  0  0  0  0  0  0  0  0  0  0  0
   -3.1749   -0.3807    0.4220 H   0  0  0  0  0  0  0  0  0  0  0  0
   -1.0919   -0.1077    0.8170 C   0  0  1  0  0  0  0  0  0  0  0  0
   -0.3571   -0.6901    0.2581 H   0  0  0  0  0  0  0  0  0  0  0  0
   -1.3037    1.2411    0.1040 C   0  0  0  0  0  0  0  0  0  0  0  0
   -2.0648    1.8049    0.6458 H   0  0  0  0  0  0  0  0  0  0  0  0
   -0.3734    1.8117    0.1321 H   0  0  0  0  0  0  0  0  0  0  0  0
   -1.7613    1.0907   -1.3549 C   0  0  0  0  0  0  0  0  0  0  0  0
   -1.3955    1.9332   -1.9434 H   0  0  0  0  0  0  0  0  0  0  0  0
   -1.3538    0.1650   -1.7659 H   0  0  0  0  0  0  0  0  0  0  0  0
   -3.2938    1.0498   -1.4330 C   0  0  0  0  0  0  0  0  0  0  0  0
   -3.6579    0.2142   -0.8306 H   0  0  0  0  0  0  0  0  0  0  0  0
   -3.6958    1.9813   -1.0295 H   0  0  0  0  0  0  0  0  0  0  0  0
   -3.7516    0.8748   -2.8864 C   0  0  0  0  0  0  0  0  0  0  0  0
   -3.3708    1.7165   -3.4739 H   0  0  0  0  0  0  0  0  0  0  0  0
   -3.3040   -0.0411   -3.2839 H   0  0  0  0  0  0  0  0  0  0  0  0
   -5.2313    0.8080   -2.9883 N   0  3  0  0  0  0  0  0  0  0  0  0
   -5.6509    1.6574   -2.6315 H   0  0  0  0  0  0  0  0  0  0  0  0
   -5.5168    0.6922   -3.9527 H   0  0  0  0  0  0  0  0  0  0  0  0
   -5.5881    0.0250   -2.4531 H   0  0  0  0  0  0  0  0  0  0  0  0
   -0.5865    0.0771    2.2496 C   0  0  0  0  0  0  0  0  0  0  0  0
    0.5860   -0.1608    2.5143 O   0  0  0  0  0  0  0  0  0  0  0  0
   -1.4786    0.4656    3.1667 N   0  0  0  0  0  0  0  0  0  0  0  0
   -2.4139    0.6698    2.8558 H   0  0  0  0  0  0  0  0  0  0  0  0
   -1.1587    0.6908    4.5775 C   0  0  0  0  0  0  0  0  0  0  0  0
   -0.4270    1.4968    4.6656 H   0  0  0  0  0  0  0  0  0  0  0  0
   -2.0565    0.9649    5.1327 H   0  0  0  0  0  0  0  0  0  0  0  0
   -0.7281   -0.2137    5.0125 H   0  0  0  0  0  0  0  0  0  0  0  0
  5  6  2  0  0  0  0
  5  7  1  0  0  0  0
  2  3  1  0  0  0  0
  2  4  1  0  0  0  0
  2  5  1  0  0  0  0
  1  2  1  0  0  0  0
 27 28  2  0  0  0  0
 27 29  1  0  0  0  0
 23 24  1  0  0  0  0
 23 25  1  0  0  0  0
 23 26  1  0  0  0  0
 20 21  1  0  0  0  0
 20 22  1  0  0  0  0
 20 23  1  0  0  0  0
 17 18  1  0  0  0  0
 17 19  1  0  0  0  0
 17 20  1  0  0  0  0
 14 15  1  0  0  0  0
 14 16  1  0  0  0  0
 14 17  1  0  0  0  0
 11 12  1  0  0  0  0
 11 13  1  0  0  0  0
 11 14  1  0  0  0  0
  9 10  1  0  0  0  0
  9 11  1  0  0  0  0
  9 27  1  0  0  0  0
  7  8  1  0  0  0  0
  7  9  1  0  0  0  0
 31 32  1  0  0  0  0
 31 33  1  0  0  0  0
 31 34  1  0  0  0  0
 29 30  1  0  0  0  0
 29 31  1  0  0  0  0
M  CHG  1  23   1
M  END
$$$$
default_name
  -OEChem-02102213163D

 34 33  0     1  0  0  0  0  0999 V2000
   -3.8899   -3.6747    1.6490 H   0  0  0  0  0  0  0  0  0  0  0  0
   -3.9109   -2.6717    1.2250 C   0  0  0  0  0  0  0  0  0  0  0  0
   -4.6009   -2.0517    1.7950 H   0  0  0  0  0  0  0  0  0  0  0  0
   -4.2309   -2.7237    0.1860 H   0  0  0  0  0  0  0  0  0  0  0  0
   -2.5229   -2.0787    1.2980 C   0  0  0  0  0  0  0  0  0  0  0  0
   -1.5999   -2.7227    1.7810 O   0  0  0  0  0  0  0  0  0  0  0  0
   -2.3659   -0.8447    0.8120 N   0  0  0  0  0  0  0  0  0  0  0  0
   -3.1749   -0.3807    0.4220 H   0  0  0  0  0  0  0  0  0  0  0  0
   -1.0919   -0.1077    0.8170 C   0  0  1  0  0  0  0  0  0  0  0  0
   -0.3571   -0.6901    0.2581 H   0  0  0  0  0  0  0  0  0  0  0  0
   -1.3037    1.2411    0.1040 C   0  0  0  0  0  0  0  0  0  0  0  0
   -2.0648    1.8049    0.6458 H   0  0  0  0  0  0  0  0  0  0  0  0
   -0.3734    1.8117    0.1321 H   0  0  0  0  0  0  0  0  0  0  0  0
   -1.7613    1.0907   -1.3549 C   0  0  0  0  0  0  0  0  0  0  0  0
   -1.1897    1.7679   -1.9909 H   0  0  0  0  0  0  0  0  0  0  0  0
   -1.5884    0.0635   -1.6818 H   0  0  0  0  0  0  0  0  0  0  0  0
   -3.2550    1.4200   -1.4833 C   0  0  0  0  0  0  0  0  0  0  0  0
   -3.8235    0.7500   -0.8338 H   0  0  0  0  0  0  0  0  0  0  0  0
   -3.4211    2.4508   -1.1640 H   0  0  0  0  0  0  0  0  0  0  0  0
   -3.7190    1.2463   -2.9349 C   0  0  0  0  0  0  0  0  0  0  0  0
   -3.1331    1.9193   -3.5694 H   0  0  0  0  0  0  0  0  0  0  0  0
   -3.5051    0.2199   -3.2477 H   0  0  0  0  0  0  0  0  0  0  0  0
   -5.1677    1.5358   -3.0833 N   0  3  0  0  0  0  0  0  0  0  0  0
   -5.3702    2.4879   -2.8051 H   0  0  0  0  0  0  0  0  0  0  0  0
   -5.4578    1.4164   -4.0458 H   0  0  0  0  0  0  0  0  0  0  0  0
   -5.7151    0.9095   -2.5045 H   0  0  0  0  0  0  0  0  0  0  0  0
   -0.5865    0.0771    2.2496 C   0  0  0  0  0  0  0  0  0  0  0  0
    0.5860   -0.1608    2.5143 O   0  0  0  0  0  0  0  0  0  0  0  0
   -1.4786    0.4656    3.1667 N   0  0  0  0  0  0  0  0  0  0  0  0
   -2.4139    0.6698    2.8558 H   0  0  0  0  0  0  0  0  0  0  0  0
   -1.1587    0.6908    4.5775 C   0  0  0  0  0  0  0  0  0  0  0  0
   -0.4270    1.4968    4.6656 H   0  0  0  0  0  0  0  0  0  0  0  0
   -2.0565    0.9649    5.1327 H   0  0  0  0  0  0  0  0  0  0  0  0
   -0.7281   -0.2137    5.0125 H   0  0  0  0  0  0  0  0  0  0  0  0
  5  6  2  0  0  0  0
  5  7  1  0  0  0  0
  2  3  1  0  0  0  0
  2  4  1  0  0  0  0
  2  5  1  0  0  0  0
  1  2  1  0  0  0  0
 27 28  2  0  0  0  0
 27 29  1  0  0  0  0
 23 24  1  0  0  0  0
 23 25  1  0  0  0  0
 23 26  1  0  0  0  0
 20 21  1  0  0  0  0
 20 22  1  0  0  0  0
 20 23  1  0  0  0  0
 17 18  1  0  0  0  0
 17 19  1  0  0  0  0
 17 20  1  0  0  0  0
 14 15  1  0  0  0  0
 14 16  1  0  0  0  0
 14 17  1  0  0  0  0
 11 12  1  0  0  0  0
 11 13  1  0  0  0  0
 11 14  1  0  0  0  0
  9 10  1  0  0  0  0
  9 11  1  0  0  0  0
  9 27  1  0  0  0  0
  7  8  1  0  0  0  0
  7  9  1  0  0  0  0
 31 32  1  0  0  0  0
 31 33  1  0  0  0  0
 31 34  1  0  0  0  0
 29 30  1  0  0  0  0
 29 31  1  0  0  0  0
M  CHG  1  23   1
M  END
$$$$
default_name
  -OEChem-02102213163D

 34 33  0     1  0  0  0  0  0999 V2000
   -3.8899   -3.6747    1.6490 H   0  0  0  0  0  0  0  0  0  0  0  0
   -3.9109   -2.6717    1.2250 C   0  0  0  0  0  0  0  0  0  0  0  0
   -4.6009   -2.0517    1.7950 H   0  0  0  0  0  0  0  0  0  0  0  0
   -4.2309   -2.7237    0.1860 H   0  0  0  0  0  0  0  0  0  0  0  0
   -2.5229   -2.0787    1.2980 C   0  0  0  0  0  0  0  0  0  0  0  0
   -1.5999   -2.7227    1.7810 O   0  0  0  0  0  0  0  0  0  0  0  0
   -2.3659   -0.8447    0.8120 N   0  0  0  0  0  0  0  0  0  0  0  0
   -3.1749   -0.3807    0.4220 H   0  0  0  0  0  0  0  0  0  0  0  0
   -1.0919   -0.1077    0.8170 C   0  0  1  0  0  0  0  0  0  0  0  0
   -0.3571   -0.6901    0.2581 H   0  0  0  0  0  0  0  0  0  0  0  0
   -1.3037    1.2411    0.1040 C   0  0  0  0  0  0  0  0  0  0  0  0
   -2.0648    1.8049    0.6458 H   0  0  0  0  0  0  0  0  0  0  0  0
   -0.3734    1.8117    0.1321 H   0  0  0  0  0  0  0  0  0  0  0  0
   -1.7613    1.0907   -1.3549 C   0  0  0  0  0  0  0  0  0  0  0  0
   -1.0304    1.5541   -2.0189 H   0  0  0  0  0  0  0  0  0  0  0  0
   -1.8421    0.0296   -1.5987 H   0  0  0  0  0  0  0  0  0  0  0  0
   -3.1254    1.7642   -1.5594 C   0  0  0  0  0  0  0  0  0  0  0  0
   -3.8517    1.3081   -0.8825 H   0  0  0  0  0  0  0  0  0  0  0  0
   -3.0370    2.8265   -1.3233 H   0  0  0  0  0  0  0  0  0  0  0  0
   -3.5950    1.5935   -3.0095 C   0  0  0  0  0  0  0  0  0  0  0  0
   -2.8513    2.0494   -3.6712 H   0  0  0  0  0  0  0  0  0  0  0  0
   -3.6361    0.5242   -3.2380 H   0  0  0  0  0  0  0  0  0  0  0  0
   -4.9249    2.2159   -3.2295 N   0  3  0  0  0  0  0  0  0  0  0  0
   -4.8906    3.2077   -3.0297 H   0  0  0  0  0  0  0  0  0  0  0  0
   -5.2204    2.0943   -4.1902 H   0  0  0  0  0  0  0  0  0  0  0  0
   -5.6190    1.7912   -2.6255 H   0  0  0  0  0  0  0  0  0  0  0  0
   -0.5865    0.0771    2.2496 C   0  0  0  0  0  0  0  0  0  0  0  0
    0.5860   -0.1608    2.5143 O   0  0  0  0  0  0  0  0  0  0  0  0
   -1.4786    0.4656    3.1667 N   0  0  0  0  0  0  0  0  0  0  0  0
   -2.4139    0.6698    2.8558 H   0  0  0  0  0  0  0  0  0  0  0  0
   -1.1587    0.6908    4.5775 C   0  0  0  0  0  0  0  0  0  0  0  0
   -0.4270    1.4968    4.6656 H   0  0  0  0  0  0  0  0  0  0  0  0
   -2.0565    0.9649    5.1327 H   0  0  0  0  0  0  0  0  0  0  0  0
   -0.7281   -0.2137    5.0125 H   0  0  0  0  0  0  0  0  0  0  0  0
  5  6  2  0  0  0  0
  5  7  1  0  0  0  0
  2  3  1  0  0  0  0
  2  4  1  0  0  0  0
  2  5  1  0  0  0  0
  1  2  1  0  0  0  0
 27 28  2  0  0  0  0
 27 29  1  0  0  0  0
 23 24  1  0  0  0  0
 23 25  1  0  0  0  0
 23 26  1  0  0  0  0
 20 21  1  0  0  0  0
 20 22  1  0  0  0  0
 20 23  1  0  0  0  0
 17 18  1  0  0  0  0
 17 19  1  0  0  0  0
 17 20  1  0  0  0  0
 14 15  1  0  0  0  0
 14 16  1  0  0  0  0
 14 17  1  0  0  0  0
 11 12  1  0  0  0  0
 11 13  1  0  0  0  0
 11 14  1  0  0  0  0
  9 10  1  0  0  0  0
  9 11  1  0  0  0  0
  9 27  1  0  0  0  0
  7  8  1  0  0  0  0
  7  9  1  0  0  0  0
 31 32  1  0  0  0  0
 31 33  1  0  0  0  0
 31 34  1  0  0  0  0
 29 30  1  0  0  0  0
 29 31  1  0  0  0  0
M  CHG  1  23   1
M  END
$$$$
default_name
  -OEChem-02102213163D

 34 33  0     1  0  0  0  0  0999 V2000
   -3.8899   -3.6747    1.6490 H   0  0  0  0  0  0  0  0  0  0  0  0
   -3.9109   -2.6717    1.2250 C   0  0  0  0  0  0  0  0  0  0  0  0
   -4.6009   -2.0517    1.7950 H   0  0  0  0  0  0  0  0  0  0  0  0
   -4.2309   -2.7237    0.1860 H   0  0  0  0  0  0  0  0  0  0  0  0
   -2.5229   -2.0787    1.2980 C   0  0  0  0  0  0  0  0  0  0  0  0
   -1.5999   -2.7227    1.7810 O   0  0  0  0  0  0  0  0  0  0  0  0
   -2.3659   -0.8447    0.8120 N   0  0  0  0  0  0  0  0  0  0  0  0
   -3.1749   -0.3807    0.4220 H   0  0  0  0  0  0  0  0  0  0  0  0
   -1.0919   -0.1077    0.8170 C   0  0  1  0  0  0  0  0  0  0  0  0
   -0.3571   -0.6901    0.2581 H   0  0  0  0  0  0  0  0  0  0  0  0
   -1.3037    1.2411    0.1040 C   0  0  0  0  0  0  0  0  0  0  0  0
   -2.0648    1.8049    0.6458 H   0  0  0  0  0  0  0  0  0  0  0  0
   -0.3734    1.8117    0.1321 H   0  0  0  0  0  0  0  0  0  0  0  0
   -1.7613    1.0907   -1.3549 C   0  0  0  0  0  0  0  0  0  0  0  0
   -0.9283    1.3063   -2.0253 H   0  0  0  0  0  0  0  0  0  0  0  0
   -2.0976    0.0656   -1.5223 H   0  0  0  0  0  0  0  0  0  0  0  0
   -2.9136    2.0590   -1.6562 C   0  0  0  0  0  0  0  0  0  0  0  0
   -3.7406    1.8504   -0.9732 H   0  0  0  0  0  0  0  0  0  0  0  0
   -2.5695    3.0827   -1.4963 H   0  0  0  0  0  0  0  0  0  0  0  0
   -3.3881    1.8925   -3.1053 C   0  0  0  0  0  0  0  0  0  0  0  0
   -2.5445    2.0979   -3.7724 H   0  0  0  0  0  0  0  0  0  0  0  0
   -3.6882    0.8511   -3.2554 H   0  0  0  0  0  0  0  0  0  0  0  0
   -4.5196    2.8019   -3.4170 N   0  3  0  0  0  0  0  0  0  0  0  0
   -4.2448    3.7679   -3.2901 H   0  0  0  0  0  0  0  0  0  0  0  0
   -4.8208    2.6796   -4.3758 H   0  0  0  0  0  0  0  0  0  0  0  0
   -5.3064    2.6098   -2.8079 H   0  0  0  0  0  0  0  0  0  0  0  0
   -0.5865    0.0771    2.2496 C   0  0  0  0  0  0  0  0  0  0  0  0
    0.5860   -0.1608    2.5143 O   0  0  0  0  0  0  0  0  0  0  0  0
   -1.4786    0.4656    3.1667 N   0  0  0  0  0  0  0  0  0  0  0  0
   -2.4139    0.6698    2.8558 H   0  0  0  0  0  0  0  0  0  0  0  0
   -1.1587    0.6908    4.5775 C   0  0  0  0  0  0  0  0  0  0  0  0
   -0.4270    1.4968    4.6656 H   0  0  0  0  0  0  0  0  0  0  0  0
   -2.0565    0.9649    5.1327 H   0  0  0  0  0  0  0  0  0  0  0  0
   -0.7281   -0.2137    5.0125 H   0  0  0  0  0  0  0  0  0  0  0  0
  5  6  2  0  0  0  0
  5  7  1  0  0  0  0
  2  3  1  0  0  0  0
  2  4  1  0  0  0  0
  2  5  1  0  0  0  0
  1  2  1  0  0  0  0
 27 28  2  0  0  0  0
 27 29  1  0  0  0  0
 23 24  1  0  0  0  0
 23 25  1  0  0  0  0
 23 26  1  0  0  0  0
 20 21  1  0  0  0  0
 20 22  1  0  0  0  0
 20 23  1  0  0  0  0
 17 18  1  0  0  0  0
 17 19  1  0  0  0  0
 17 20  1  0  0  0  0
 14 15  1  0  0  0  0
 14 16  1  0  0  0  0
 14 17  1  0  0  0  0
 11 12  1  0  0  0  0
 11 13  1  0  0  0  0
 11 14  1  0  0  0  0
  9 10  1  0  0  0  0
  9 11  1  0  0  0  0
  9 27  1  0  0  0  0
  7  8  1  0  0  0  0
  7  9  1  0  0  0  0
 31 32  1  0  0  0  0
 31 33  1  0  0  0  0
 31 34  1  0  0  0  0
 29 30  1  0  0  0  0
 29 31  1  0  0  0  0
M  CHG  1  23   1
M  END
$$$$
default_name
  -OEChem-02102213163D

 34 33  0     1  0  0  0  0  0999 V2000
   -3.8899   -3.6747    1.6490 H   0  0  0  0  0  0  0  0  0  0  0  0
   -3.9109   -2.6717    1.2250 C   0  0  0  0  0  0  0  0  0  0  0  0
   -4.6009   -2.0517    1.7950 H   0  0  0  0  0  0  0  0  0  0  0  0
   -4.2309   -2.7237    0.1860 H   0  0  0  0  0  0  0  0  0  0  0  0
   -2.5229   -2.0787    1.2980 C   0  0  0  0  0  0  0  0  0  0  0  0
   -1.5999   -2.7227    1.7810 O   0  0  0  0  0  0  0  0  0  0  0  0
   -2.3659   -0.8447    0.8120 N   0  0  0  0  0  0  0  0  0  0  0  0
   -3.1749   -0.3807    0.4220 H   0  0  0  0  0  0  0  0  0  0  0  0
   -1.0919   -0.1077    0.8170 C   0  0  1  0  0  0  0  0  0  0  0  0
   -0.3571   -0.6901    0.2581 H   0  0  0  0  0  0  0  0  0  0  0  0
   -1.3037    1.2411    0.1040 C   0  0  0  0  0  0  0  0  0  0  0  0
   -2.0648    1.8049    0.6458 H   0  0  0  0  0  0  0  0  0  0  0  0
   -0.3734    1.8117    0.1321 H   0  0  0  0  0  0  0  0  0  0  0  0
   -1.7613    1.0907   -1.3549 C   0  0  0  0  0  0  0  0  0  0  0  0
   -0.8904    1.0413   -2.0099 H   0  0  0  0  0  0  0  0  0  0  0  0
   -2.3375    0.1691   -1.4577 H   0  0  0  0  0  0  0  0  0  0  0  0
   -2.6342    2.2842   -1.7671 C   0  0  0  0  0  0  0  0  0  0  0  0
   -3.4976    2.3399   -1.0999 H   0  0  0  0  0  0  0  0  0  0  0  0
   -2.0506    3.2020   -1.6713 H   0  0  0  0  0  0  0  0  0  0  0  0
   -3.1122    2.1232   -3.2156 C   0  0  0  0  0  0  0  0  0  0  0  0
   -2.2337    2.0616   -3.8661 H   0  0  0  0  0  0  0  0  0  0  0  0
   -3.6576    1.1783   -3.2987 H   0  0  0  0  0  0  0  0  0  0  0  0
   -3.9794    3.2538   -3.6331 N   0  3  0  0  0  0  0  0  0  0  0  0
   -3.4767    4.1301   -3.5683 H   0  0  0  0  0  0  0  0  0  0  0  0
   -4.2864    3.1324   -4.5901 H   0  0  0  0  0  0  0  0  0  0  0  0
   -4.7986    3.3097   -3.0393 H   0  0  0  0  0  0  0  0  0  0  0  0
   -0.5865    0.0771    2.2496 C   0  0  0  0  0  0  0  0  0  0  0  0
    0.5860   -0.1608    2.5143 O   0  0  0  0  0  0  0  0  0  0  0  0
   -1.4786    0.4656    3.1667 N   0  0  0  0  0  0  0  0  0  0  0  0
   -2.4139    0.6698    2.8558 H   0  0  0  0  0  0  0  0  0  0  0  0
   -1.1587    0.6908    4.5775 C   0  0  0  0  0  0  0  0  0  0  0  0
   -0.4270    1.4968    4.6656 H   0  0  0  0  0  0  0  0  0  0  0  0
   -2.0565    0.9649    5.1327 H   0  0  0  0  0  0  0  0  0  0  0  0
   -0.7281   -0.2137    5.0125 H   0  0  0  0  0  0  0  0  0  0  0  0
  5  6  2  0  0  0  0
  5  7  1  0  0  0  0
  2  3  1  0  0  0  0
  2  4  1  0  0  0  0
  2  5  1  0  0  0  0
  1  2  1  0  0  0  0
 27 28  2  0  0  0  0
 27 29  1  0  0  0  0
 23 24  1  0  0  0  0
 23 25  1  0  0  0  0
 23 26  1  0  0  0  0
 20 21  1  0  0  0  0
 20 22  1  0  0  0  0
 20 23  1  0  0  0  0
 17 18  1  0  0  0  0
 17 19  1  0  0  0  0
 17 20  1  0  0  0  0
 14 15  1  0  0  0  0
 14 16  1  0  0  0  0
 14 17  1  0  0  0  0
 11 12  1  0  0  0  0
 11 13  1  0  0  0  0
 11 14  1  0  0  0  0
  9 10  1  0  0  0  0
  9 11  1  0  0  0  0
  9 27  1  0  0  0  0
  7  8  1  0  0  0  0
  7  9  1  0  0  0  0
 31 32  1  0  0  0  0
 31 33  1  0  0  0  0
 31 34  1  0  0  0  0
 29 30  1  0  0  0  0
 29 31  1  0  0  0  0
M  CHG  1  23   1
M  END
$$$$
default_name
  -OEChem-02102213163D

 34 33  0     1  0  0  0  0  0999 V2000
   -3.8899   -3.6747    1.6490 H   0  0  0  0  0  0  0  0  0  0  0  0
   -3.9109   -2.6717    1.2250 C   0  0  0  0  0  0  0  0  0  0  0  0
   -4.6009   -2.0517    1.7950 H   0  0  0  0  0  0  0  0  0  0  0  0
   -4.2309   -2.7237    0.1860 H   0  0  0  0  0  0  0  0  0  0  0  0
   -2.5229   -2.0787    1.2980 C   0  0  0  0  0  0  0  0  0  0  0  0
   -1.5999   -2.7227    1.7810 O   0  0  0  0  0  0  0  0  0  0  0  0
   -2.3659   -0.8447    0.8120 N   0  0  0  0  0  0  0  0  0  0  0  0
   -3.1749   -0.3807    0.4220 H   0  0  0  0  0  0  0  0  0  0  0  0
   -1.0919   -0.1077    0.8170 C   0  0  1  0  0  0  0  0  0  0  0  0
   -0.3571   -0.6901    0.2581 H   0  0  0  0  0  0  0  0  0  0  0  0
   -1.3037    1.2411    0.1040 C   0  0  0  0  0  0  0  0  0  0  0  0
   -2.0648    1.8049    0.6458 H   0  0  0  0  0  0  0  0  0  0  0  0
   -0.3734    1.8117    0.1321 H   0  0  0  0  0  0  0  0  0  0  0  0
   -1.7613    1.0907   -1.3549 C   0  0  0  0  0  0  0  0  0  0  0  0
   -0.9194    0.7772   -1.9736 H   0  0  0  0  0  0  0  0  0  0  0  0
   -2.5454    0.3330   -1.4094 H   0  0  0  0  0  0  0  0  0  0  0  0
   -2.3061    2.4245   -1.8845 C   0  0  0  0  0  0  0  0  0  0  0  0
   -3.1395    2.7432   -1.2538 H   0  0  0  0  0  0  0  0  0  0  0  0
   -1.5157    3.1762   -1.8364 H   0  0  0  0  0  0  0  0  0  0  0  0
   -2.7863    2.2697   -3.3329 C   0  0  0  0  0  0  0  0  0  0  0  0
   -1.9401    1.9430   -3.9460 H   0  0  0  0  0  0  0  0  0  0  0  0
   -3.5466    1.4835   -3.3649 H   0  0  0  0  0  0  0  0  0  0  0  0
   -3.3410    3.5409   -3.8629 N   0  3  0  0  0  0  0  0  0  0  0  0
   -2.6387    4.2698   -3.8456 H   0  0  0  0  0  0  0  0  0  0  0  0
   -3.6534    3.4219   -4.8185 H   0  0  0  0  0  0  0  0  0  0  0  0
   -4.1303    3.8431   -3.3039 H   0  0  0  0  0  0  0  0  0  0  0  0
   -0.5865    0.0771    2.2496 C   0  0  0  0  0  0  0  0  0  0  0  0
    0.5860   -0.1608    2.5143 O   0  0  0  0  0  0  0  0  0  0  0  0
   -1.4786    0.4656    3.1667 N   0  0  0  0  0  0  0  0  0  0  0  0
   -2.4139    0.6698    2.8558 H   0  0  0  0  0  0  0  0  0  0  0  0
   -1.1587    0.6908    4.5775 C   0  0  0  0  0  0  0  0  0  0  0  0
   -0.4270    1.4968    4.6656 H   0  0  0  0  0  0  0  0  0  0  0  0
   -2.0565    0.9649    5.1327 H   0  0  0  0  0  0  0  0  0  0  0  0
   -0.7281   -0.2137    5.0125 H   0  0  0  0  0  0  0  0  0  0  0  0
  5  6  2  0  0  0  0
  5  7  1  0  0  0  0
  2  3  1  0  0  0  0
  2  4  1  0  0  0  0
  2  5  1  0  0  0  0
  1  2  1  0  0  0  0
 27 28  2  0  0  0  0
 27 29  1  0  0  0  0
 23 24  1  0  0  0  0
 23 25  1  0  0  0  0
 23 26  1  0  0  0  0
 20 21  1  0  0  0  0
 20 22  1  0  0  0  0
 20 23  1  0  0  0  0
 17 18  1  0  0  0  0
 17 19  1  0  0  0  0
 17 20  1  0  0  0  0
 14 15  1  0  0  0  0
 14 16  1  0  0  0  0
 14 17  1  0  0  0  0
 11 12  1  0  0  0  0
 11 13  1  0  0  0  0
 11 14  1  0  0  0  0
  9 10  1  0  0  0  0
  9 11  1  0  0  0  0
  9 27  1  0  0  0  0
  7  8  1  0  0  0  0
  7  9  1  0  0  0  0
 31 32  1  0  0  0  0
 31 33  1  0  0  0  0
 31 34  1  0  0  0  0
 29 30  1  0  0  0  0
 29 31  1  0  0  0  0
M  CHG  1  23   1
M  END
$$$$
default_name
  -OEChem-02102213163D

 34 33  0     1  0  0  0  0  0999 V2000
   -3.8899   -3.6747    1.6490 H   0  0  0  0  0  0  0  0  0  0  0  0
   -3.9109   -2.6717    1.2250 C   0  0  0  0  0  0  0  0  0  0  0  0
   -4.6009   -2.0517    1.7950 H   0  0  0  0  0  0  0  0  0  0  0  0
   -4.2309   -2.7237    0.1860 H   0  0  0  0  0  0  0  0  0  0  0  0
   -2.5229   -2.0787    1.2980 C   0  0  0  0  0  0  0  0  0  0  0  0
   -1.5999   -2.7227    1.7810 O   0  0  0  0  0  0  0  0  0  0  0  0
   -2.3659   -0.8447    0.8120 N   0  0  0  0  0  0  0  0  0  0  0  0
   -3.1749   -0.3807    0.4220 H   0  0  0  0  0  0  0  0  0  0  0  0
   -1.0919   -0.1077    0.8170 C   0  0  1  0  0  0  0  0  0  0  0  0
   -0.3571   -0.6901    0.2581 H   0  0  0  0  0  0  0  0  0  0  0  0
   -1.3037    1.2411    0.1040 C   0  0  0  0  0  0  0  0  0  0  0  0
   -1.8501    1.9065    0.7742 H   0  0  0  0  0  0  0  0  0  0  0  0
   -0.3320    1.6925   -0.1057 H   0  0  0  0  0  0  0  0  0  0  0  0
   -2.0973    1.1168   -1.2057 C   0  0  0  0  0  0  0  0  0  0  0  0
   -1.5678    0.4576   -1.8949 H   0  0  0  0  0  0  0  0  0  0  0  0
   -3.0804    0.6932   -0.9915 H   0  0  0  0  0  0  0  0  0  0  0  0
   -2.2694    2.4950   -1.8592 C   0  0  0  0  0  0  0  0  0  0  0  0
   -2.7866    3.1572   -1.1608 H   0  0  0  0  0  0  0  0  0  0  0  0
   -1.2839    2.9101   -2.0798 H   0  0  0  0  0  0  0  0  0  0  0  0
   -3.0827    2.3759   -3.1542 C   0  0  0  0  0  0  0  0  0  0  0  0
   -2.5525    1.7035   -3.8364 H   0  0  0  0  0  0  0  0  0  0  0  0
   -4.0486    1.9197   -2.9173 H   0  0  0  0  0  0  0  0  0  0  0  0
   -3.2849    3.6997   -3.7955 N   0  3  0  0  0  0  0  0  0  0  0  0
   -2.3945    4.1224   -4.0266 H   0  0  0  0  0  0  0  0  0  0  0  0
   -3.8231    3.6039   -4.6476 H   0  0  0  0  0  0  0  0  0  0  0  0
   -3.7832    4.3232   -3.1711 H   0  0  0  0  0  0  0  0  0  0  0  0
   -0.5865    0.0771    2.2496 C   0  0  0  0  0  0  0  0  0  0  0  0
    0.5860   -0.1608    2.5143 O   0  0  0  0  0  0  0  0  0  0  0  0
   -1.4786    0.4656    3.1667 N   0  0  0  0  0  0  0  0  0  0  0  0
   -2.4139    0.6698    2.8558 H   0  0  0  0  0  0  0  0  0  0  0  0
   -1.1587    0.6908    4.5775 C   0  0  0  0  0  0  0  0  0  0  0  0
   -0.4270    1.4968    4.6656 H   0  0  0  0  0  0  0  0  0  0  0  0
   -2.0565    0.9649    5.1327 H   0  0  0  0  0  0  0  0  0  0  0  0
   -0.7281   -0.2137    5.0125 H   0  0  0  0  0  0  0  0  0  0  0  0
  5  6  2  0  0  0  0
  5  7  1  0  0  0  0
  2  3  1  0  0  0  0
  2  4  1  0  0  0  0
  2  5  1  0  0  0  0
  1  2  1  0  0  0  0
 27 28  2  0  0  0  0
 27 29  1  0  0  0  0
 23 24  1  0  0  0  0
 23 25  1  0  0  0  0
 23 26  1  0  0  0  0
 20 21  1  0  0  0  0
 20 22  1  0  0  0  0
 20 23  1  0  0  0  0
 17 18  1  0  0  0  0
 17 19  1  0  0  0  0
 17 20  1  0  0  0  0
 14 15  1  0  0  0  0
 14 16  1  0  0  0  0
 14 17  1  0  0  0  0
 11 12  1  0  0  0  0
 11 13  1  0  0  0  0
 11 14  1  0  0  0  0
  9 10  1  0  0  0  0
  9 11  1  0  0  0  0
  9 27  1  0  0  0  0
  7  8  1  0  0  0  0
  7  9  1  0  0  0  0
 31 32  1  0  0  0  0
 31 33  1  0  0  0  0
 31 34  1  0  0  0  0
 29 30  1  0  0  0  0
 29 31  1  0  0  0  0
M  CHG  1  23   1
M  END
$$$$
default_name
  -OEChem-02102213163D

 34 33  0     1  0  0  0  0  0999 V2000
   -3.8899   -3.6747    1.6490 H   0  0  0  0  0  0  0  0  0  0  0  0
   -3.9109   -2.6717    1.2250 C   0  0  0  0  0  0  0  0  0  0  0  0
   -4.6009   -2.0517    1.7950 H   0  0  0  0  0  0  0  0  0  0  0  0
   -4.2309   -2.7237    0.1860 H   0  0  0  0  0  0  0  0  0  0  0  0
   -2.5229   -2.0787    1.2980 C   0  0  0  0  0  0  0  0  0  0  0  0
   -1.5999   -2.7227    1.7810 O   0  0  0  0  0  0  0  0  0  0  0  0
   -2.3659   -0.8447    0.8120 N   0  0  0  0  0  0  0  0  0  0  0  0
   -3.1749   -0.3807    0.4220 H   0  0  0  0  0  0  0  0  0  0  0  0
   -1.0919   -0.1077    0.8170 C   0  0  1  0  0  0  0  0  0  0  0  0
   -0.3571   -0.6901    0.2581 H   0  0  0  0  0  0  0  0  0  0  0  0
   -1.3037    1.2411    0.1040 C   0  0  0  0  0  0  0  0  0  0  0  0
   -1.8501    1.9065    0.7742 H   0  0  0  0  0  0  0  0  0  0  0  0
   -0.3320    1.6925   -0.1057 H   0  0  0  0  0  0  0  0  0  0  0  0
   -2.0973    1.1168   -1.2057 C   0  0  0  0  0  0  0  0  0  0  0  0
   -1.7233    0.2701   -1.7829 H   0  0  0  0  0  0  0  0  0  0  0  0
   -3.1512    0.9522   -0.9732 H   0  0  0  0  0  0  0  0  0  0  0  0
   -1.9551    2.3972   -2.0403 C   0  0  0  0  0  0  0  0  0  0  0  0
   -2.3165    3.2453   -1.4539 H   0  0  0  0  0  0  0  0  0  0  0  0
   -0.9008    2.5522   -2.2779 H   0  0  0  0  0  0  0  0  0  0  0  0
   -2.7670    2.2843   -3.3368 C   0  0  0  0  0  0  0  0  0  0  0  0
   -2.3953    1.4256   -3.9053 H   0  0  0  0  0  0  0  0  0  0  0  0
   -3.8114    2.0874   -3.0769 H   0  0  0  0  0  0  0  0  0  0  0  0
   -2.6663    3.5203   -4.1532 N   0  3  0  0  0  0  0  0  0  0  0  0
   -1.7030    3.7021   -4.4058 H   0  0  0  0  0  0  0  0  0  0  0  0
   -3.2073    3.4299   -5.0042 H   0  0  0  0  0  0  0  0  0  0  0  0
   -3.0174    4.3169   -3.6345 H   0  0  0  0  0  0  0  0  0  0  0  0
   -0.5865    0.0771    2.2496 C   0  0  0  0  0  0  0  0  0  0  0  0
    0.5860   -0.1608    2.5143 O   0  0  0  0  0  0  0  0  0  0  0  0
   -1.4786    0.4656    3.1667 N   0  0  0  0  0  0  0  0  0  0  0  0
   -2.4139    0.6698    2.8558 H   0  0  0  0  0  0  0  0  0  0  0  0
   -1.1587    0.6908    4.5775 C   0  0  0  0  0  0  0  0  0  0  0  0
   -0.4270    1.4968    4.6656 H   0  0  0  0  0  0  0  0  0  0  0  0
   -2.0565    0.9649    5.1327 H   0  0  0  0  0  0  0  0  0  0  0  0
   -0.7281   -0.2137    5.0125 H   0  0  0  0  0  0  0  0  0  0  0  0
  5  6  2  0  0  0  0
  5  7  1  0  0  0  0
  2  3  1  0  0  0  0
  2  4  1  0  0  0  0
  2  5  1  0  0  0  0
  1  2  1  0  0  0  0
 27 28  2  0  0  0  0
 27 29  1  0  0  0  0
 23 24  1  0  0  0  0
 23 25  1  0  0  0  0
 23 26  1  0  0  0  0
 20 21  1  0  0  0  0
 20 22  1  0  0  0  0
 20 23  1  0  0  0  0
 17 18  1  0  0  0  0
 17 19  1  0  0  0  0
 17 20  1  0  0  0  0
 14 15  1  0  0  0  0
 14 16  1  0  0  0  0
 14 17  1  0  0  0  0
 11 12  1  0  0  0  0
 11 13  1  0  0  0  0
 11 14  1  0  0  0  0
  9 10  1  0  0  0  0
  9 11  1  0  0  0  0
  9 27  1  0  0  0  0
  7  8  1  0  0  0  0
  7  9  1  0  0  0  0
 31 32  1  0  0  0  0
 31 33  1  0  0  0  0
 31 34  1  0  0  0  0
 29 30  1  0  0  0  0
 29 31  1  0  0  0  0
M  CHG  1  23   1
M  END
$$$$
default_name
  -OEChem-02102213163D

 34 33  0     1  0  0  0  0  0999 V2000
   -3.8899   -3.6747    1.6490 H   0  0  0  0  0  0  0  0  0  0  0  0
   -3.9109   -2.6717    1.2250 C   0  0  0  0  0  0  0  0  0  0  0  0
   -4.6009   -2.0517    1.7950 H   0  0  0  0  0  0  0  0  0  0  0  0
   -4.2309   -2.7237    0.1860 H   0  0  0  0  0  0  0  0  0  0  0  0
   -2.5229   -2.0787    1.2980 C   0  0  0  0  0  0  0  0  0  0  0  0
   -1.5999   -2.7227    1.7810 O   0  0  0  0  0  0  0  0  0  0  0  0
   -2.3659   -0.8447    0.8120 N   0  0  0  0  0  0  0  0  0  0  0  0
   -3.1749   -0.3807    0.4220 H   0  0  0  0  0  0  0  0  0  0  0  0
   -1.0919   -0.1077    0.8170 C   0  0  1  0  0  0  0  0  0  0  0  0
   -0.3571   -0.6901    0.2581 H   0  0  0  0  0  0  0  0  0  0  0  0
   -1.3037    1.2411    0.1040 C   0  0  0  0  0  0  0  0  0  0  0  0
   -1.8501    1.9065    0.7742 H   0  0  0  0  0  0  0  0  0  0  0  0
   -0.3320    1.6925   -0.1057 H   0  0  0  0  0  0  0  0  0  0  0  0
   -2.0973    1.1168   -1.2057 C   0  0  0  0  0  0  0  0  0  0  0  0
   -1.9173    0.1383   -1.6529 H   0  0  0  0  0  0  0  0  0  0  0  0
   -3.1628    1.2204   -0.9916 H   0  0  0  0  0  0  0  0  0  0  0  0
   -1.6694    2.2091   -2.1956 C   0  0  0  0  0  0  0  0  0  0  0  0
   -1.8369    3.1876   -1.7390 H   0  0  0  0  0  0  0  0  0  0  0  0
   -0.6056    2.0955   -2.4134 H   0  0  0  0  0  0  0  0  0  0  0  0
   -2.4783    2.1017   -3.4943 C   0  0  0  0  0  0  0  0  0  0  0  0
   -2.3033    1.1133   -3.9314 H   0  0  0  0  0  0  0  0  0  0  0  0
   -3.5420    2.1758   -3.2485 H   0  0  0  0  0  0  0  0  0  0  0  0
   -2.1009    3.1628   -4.4619 N   0  3  0  0  0  0  0  0  0  0  0  0
   -1.1198    3.0929   -4.7013 H   0  0  0  0  0  0  0  0  0  0  0  0
   -2.6434    3.0782   -5.3125 H   0  0  0  0  0  0  0  0  0  0  0  0
   -2.2694    4.0799   -4.0652 H   0  0  0  0  0  0  0  0  0  0  0  0
   -0.5865    0.0771    2.2496 C   0  0  0  0  0  0  0  0  0  0  0  0
    0.5860   -0.1608    2.5143 O   0  0  0  0  0  0  0  0  0  0  0  0
   -1.4786    0.4656    3.1667 N   0  0  0  0  0  0  0  0  0  0  0  0
   -2.4139    0.6698    2.8558 H   0  0  0  0  0  0  0  0  0  0  0  0
   -1.1587    0.6908    4.5775 C   0  0  0  0  0  0  0  0  0  0  0  0
   -0.4270    1.4968    4.6656 H   0  0  0  0  0  0  0  0  0  0  0  0
   -2.0565    0.9649    5.1327 H   0  0  0  0  0  0  0  0  0  0  0  0
   -0.7281   -0.2137    5.0125 H   0  0  0  0  0  0  0  0  0  0  0  0
  5  6  2  0  0  0  0
  5  7  1  0  0  0  0
  2  3  1  0  0  0  0
  2  4  1  0  0  0  0
  2  5  1  0  0  0  0
  1  2  1  0  0  0  0
 27 28  2  0  0  0  0
 27 29  1  0  0  0  0
 23 24  1  0  0  0  0
 23 25  1  0  0  0  0
 23 26  1  0  0  0  0
 20 21  1  0  0  0  0
 20 22  1  0  0  0  0
 20 23  1  0  0  0  0
 17 18  1  0  0  0  0
 17 19  1  0  0  0  0
 17 20  1  0  0  0  0
 14 15  1  0  0  0  0
 14 16  1  0  0  0  0
 14 17  1  0  0  0  0
 11 12  1  0  0  0  0
 11 13  1  0  0  0  0
 11 14  1  0  0  0  0
  9 10  1  0  0  0  0
  9 11  1  0  0  0  0
  9 27  1  0  0  0  0
  7  8  1  0  0  0  0
  7  9  1  0  0  0  0
 31 32  1  0  0  0  0
 31 33  1  0  0  0  0
 31 34  1  0  0  0  0
 29 30  1  0  0  0  0
 29 31  1  0  0  0  0
M  CHG  1  23   1
M  END
$$$$
default_name
  -OEChem-02102213163D

 34 33  0     1  0  0  0  0  0999 V2000
   -3.8899   -3.6747    1.6490 H   0  0  0  0  0  0  0  0  0  0  0  0
   -3.9109   -2.6717    1.2250 C   0  0  0  0  0  0  0  0  0  0  0  0
   -4.6009   -2.0517    1.7950 H   0  0  0  0  0  0  0  0  0  0  0  0
   -4.2309   -2.7237    0.1860 H   0  0  0  0  0  0  0  0  0  0  0  0
   -2.5229   -2.0787    1.2980 C   0  0  0  0  0  0  0  0  0  0  0  0
   -1.5999   -2.7227    1.7810 O   0  0  0  0  0  0  0  0  0  0  0  0
   -2.3659   -0.8447    0.8120 N   0  0  0  0  0  0  0  0  0  0  0  0
   -3.1749   -0.3807    0.4220 H   0  0  0  0  0  0  0  0  0  0  0  0
   -1.0919   -0.1077    0.8170 C   0  0  1  0  0  0  0  0  0  0  0  0
   -0.3571   -0.6901    0.2581 H   0  0  0  0  0  0  0  0  0  0  0  0
   -1.3037    1.2411    0.1040 C   0  0  0  0  0  0  0  0  0  0  0  0
   -1.8501    1.9065    0.7742 H   0  0  0  0  0  0  0  0  0  0  0  0
   -0.3320    1.6925   -0.1057 H   0  0  0  0  0  0  0  0  0  0  0  0
   -2.0973    1.1168   -1.2057 C   0  0  0  0  0  0  0  0  0  0  0  0
   -2.1364    0.0711   -1.5138 H   0  0  0  0  0  0  0  0  0  0  0  0
   -3.1144    1.4796   -1.0455 H   0  0  0  0  0  0  0  0  0  0  0  0
   -1.4317    1.9437   -2.3145 C   0  0  0  0  0  0  0  0  0  0  0  0
   -1.3805    2.9879   -1.9966 H   0  0  0  0  0  0  0  0  0  0  0  0
   -0.4184    1.5711   -2.4771 H   0  0  0  0  0  0  0  0  0  0  0  0
   -2.2366    1.8406   -3.6160 C   0  0  0  0  0  0  0  0  0  0  0  0
   -2.2828    0.7878   -3.9130 H   0  0  0  0  0  0  0  0  0  0  0  0
   -3.2586    2.1788   -3.4205 H   0  0  0  0  0  0  0  0  0  0  0  0
   -1.6272    2.6514   -4.7004 N   0  3  0  0  0  0  0  0  0  0  0  0
   -0.6847    2.3362   -4.8931 H   0  0  0  0  0  0  0  0  0  0  0  0
   -2.1699    2.5729   -5.5514 H   0  0  0  0  0  0  0  0  0  0  0  0
   -1.5902    3.6284   -4.4339 H   0  0  0  0  0  0  0  0  0  0  0  0
   -0.5865    0.0771    2.2496 C   0  0  0  0  0  0  0  0  0  0  0  0
    0.5860   -0.1608    2.5143 O   0  0  0  0  0  0  0  0  0  0  0  0
   -1.4786    0.4656    3.1667 N   0  0  0  0  0  0  0  0  0  0  0  0
   -2.4139    0.6698    2.8558 H   0  0  0  0  0  0  0  0  0  0  0  0
   -1.1587    0.6908    4.5775 C   0  0  0  0  0  0  0  0  0  0  0  0
   -0.4270    1.4968    4.6656 H   0  0  0  0  0  0  0  0  0  0  0  0
   -2.0565    0.9649    5.1327 H   0  0  0  0  0  0  0  0  0  0  0  0
   -0.7281   -0.2137    5.0125 H   0  0  0  0  0  0  0  0  0  0  0  0
  5  6  2  0  0  0  0
  5  7  1  0  0  0  0
  2  3  1  0  0  0  0
  2  4  1  0  0  0  0
  2  5  1  0  0  0  0
  1  2  1  0  0  0  0
 27 28  2  0  0  0  0
 27 29  1  0  0  0  0
 23 24  1  0  0  0  0
 23 25  1  0  0  0  0
 23 26  1  0  0  0  0
 20 21  1  0  0  0  0
 20 22  1  0  0  0  0
 20 23  1  0  0  0  0
 17 18  1  0  0  0  0
 17 19  1  0  0  0  0
 17 20  1  0  0  0  0
 14 15  1  0  0  0  0
 14 16  1  0  0  0  0
 14 17  1  0  0  0  0
 11 12  1  0  0  0  0
 11 13  1  0  0  0  0
 11 14  1  0  0  0  0
  9 10  1  0  0  0  0
  9 11  1  0  0  0  0
  9 27  1  0  0  0  0
  7  8  1  0  0  0  0
  7  9  1  0  0  0  0
 31 32  1  0  0  0  0
 31 33  1  0  0  0  0
 31 34  1  0  0  0  0
 29 30  1  0  0  0  0
 29 31  1  0  0  0  0
M  CHG  1  23   1
M  END
$$$$
default_name
  -OEChem-02102213163D

 34 33  0     1  0  0  0  0  0999 V2000
   -3.8899   -3.6747    1.6490 H   0  0  0  0  0  0  0  0  0  0  0  0
   -3.9109   -2.6717    1.2250 C   0  0  0  0  0  0  0  0  0  0  0  0
   -4.6009   -2.0517    1.7950 H   0  0  0  0  0  0  0  0  0  0  0  0
   -4.2309   -2.7237    0.1860 H   0  0  0  0  0  0  0  0  0  0  0  0
   -2.5229   -2.0787    1.2980 C   0  0  0  0  0  0  0  0  0  0  0  0
   -1.5999   -2.7227    1.7810 O   0  0  0  0  0  0  0  0  0  0  0  0
   -2.3659   -0.8447    0.8120 N   0  0  0  0  0  0  0  0  0  0  0  0
   -3.1749   -0.3807    0.4220 H   0  0  0  0  0  0  0  0  0  0  0  0
   -1.0919   -0.1077    0.8170 C   0  0  1  0  0  0  0  0  0  0  0  0
   -0.3571   -0.6901    0.2581 H   0  0  0  0  0  0  0  0  0  0  0  0
   -1.3037    1.2411    0.1040 C   0  0  0  0  0  0  0  0  0  0  0  0
   -1.8501    1.9065    0.7742 H   0  0  0  0  0  0  0  0  0  0  0  0
   -0.3320    1.6925   -0.1057 H   0  0  0  0  0  0  0  0  0  0  0  0
   -2.0973    1.1168   -1.2057 C   0  0  0  0  0  0  0  0  0  0  0  0
   -2.3658    0.0732   -1.3750 H   0  0  0  0  0  0  0  0  0  0  0  0
   -3.0094    1.7121   -1.1312 H   0  0  0  0  0  0  0  0  0  0  0  0
   -1.2581    1.6190   -2.3888 C   0  0  0  0  0  0  0  0  0  0  0  0
   -0.9782    2.6598   -2.2092 H   0  0  0  0  0  0  0  0  0  0  0  0
   -0.3520    1.0147   -2.4646 H   0  0  0  0  0  0  0  0  0  0  0  0
   -2.0581    1.5188   -3.6937 C   0  0  0  0  0  0  0  0  0  0  0  0
   -2.3351    0.4713   -3.8512 H   0  0  0  0  0  0  0  0  0  0  0  0
   -2.9807    2.0962   -3.5811 H   0  0  0  0  0  0  0  0  0  0  0  0
   -1.2775    2.0210   -4.8525 N   0  3  0  0  0  0  0  0  0  0  0  0
   -0.4274    1.4837   -4.9682 H   0  0  0  0  0  0  0  0  0  0  0  0
   -1.8190    1.9484   -5.7048 H   0  0  0  0  0  0  0  0  0  0  0  0
   -1.0260    2.9931   -4.7155 H   0  0  0  0  0  0  0  0  0  0  0  0
   -0.5865    0.0771    2.2496 C   0  0  0  0  0  0  0  0  0  0  0  0
    0.5860   -0.1608    2.5143 O   0  0  0  0  0  0  0  0  0  0  0  0
   -1.4786    0.4656    3.1667 N   0  0  0  0  0  0  0  0  0  0  0  0
   -2.4139    0.6698    2.8558 H   0  0  0  0  0  0  0  0  0  0  0  0
   -1.1587    0.6908    4.5775 C   0  0  0  0  0  0  0  0  0  0  0  0
   -0.4270    1.4968    4.6656 H   0  0  0  0  0  0  0  0  0  0  0  0
   -2.0565    0.9649    5.1327 H   0  0  0  0  0  0  0  0  0  0  0  0
   -0.7281   -0.2137    5.0125 H   0  0  0  0  0  0  0  0  0  0  0  0
  5  6  2  0  0  0  0
  5  7  1  0  0  0  0
  2  3  1  0  0  0  0
  2  4  1  0  0  0  0
  2  5  1  0  0  0  0
  1  2  1  0  0  0  0
 27 28  2  0  0  0  0
 27 29  1  0  0  0  0
 23 24  1  0  0  0  0
 23 25  1  0  0  0  0
 23 26  1  0  0  0  0
 20 21  1  0  0  0  0
 20 22  1  0  0  0  0
 20 23  1  0  0  0  0
 17 18  1  0  0  0  0
 17 19  1  0  0  0  0
 17 20  1  0  0  0  0
 14 15  1  0  0  0  0
 14 16  1  0  0  0  0
 14 17  1  0  0  0  0
 11 12  1  0  0  0  0
 11 13  1  0  0  0  0
 11 14  1  0  0  0  0
  9 10  1  0  0  0  0
  9 11  1  0  0  0  0
  9 27  1  0  0  0  0
  7  8  1  0  0  0  0
  7  9  1  0  0  0  0
 31 32  1  0  0  0  0
 31 33  1  0  0  0  0
 31 34  1  0  0  0  0
 29 30  1  0  0  0  0
 29 31  1  0  0  0  0
M  CHG  1  23   1
M  END
$$$$
default_name
  -OEChem-02102213163D

 34 33  0     1  0  0  0  0  0999 V2000
   -3.8899   -3.6747    1.6490 H   0  0  0  0  0  0  0  0  0  0  0  0
   -3.9109   -2.6717    1.2250 C   0  0  0  0  0  0  0  0  0  0  0  0
   -4.6009   -2.0517    1.7950 H   0  0  0  0  0  0  0  0  0  0  0  0
   -4.2309   -2.7237    0.1860 H   0  0  0  0  0  0  0  0  0  0  0  0
   -2.5229   -2.0787    1.2980 C   0  0  0  0  0  0  0  0  0  0  0  0
   -1.5999   -2.7227    1.7810 O   0  0  0  0  0  0  0  0  0  0  0  0
   -2.3659   -0.8447    0.8120 N   0  0  0  0  0  0  0  0  0  0  0  0
   -3.1749   -0.3807    0.4220 H   0  0  0  0  0  0  0  0  0  0  0  0
   -1.0919   -0.1077    0.8170 C   0  0  1  0  0  0  0  0  0  0  0  0
   -0.3571   -0.6901    0.2581 H   0  0  0  0  0  0  0  0  0  0  0  0
   -1.3037    1.2411    0.1040 C   0  0  0  0  0  0  0  0  0  0  0  0
   -1.8501    1.9065    0.7742 H   0  0  0  0  0  0  0  0  0  0  0  0
   -0.3320    1.6925   -0.1057 H   0  0  0  0  0  0  0  0  0  0  0  0
   -2.0973    1.1168   -1.2057 C   0  0  0  0  0  0  0  0  0  0  0  0
   -2.5898    0.1444   -1.2460 H   0  0  0  0  0  0  0  0  0  0  0  0
   -2.8549    1.9020   -1.2428 H   0  0  0  0  0  0  0  0  0  0  0  0
   -1.1606    1.2572   -2.4136 C   0  0  0  0  0  0  0  0  0  0  0  0
   -0.6576    2.2258   -2.3623 H   0  0  0  0  0  0  0  0  0  0  0  0
   -0.4108    0.4644   -2.3768 H   0  0  0  0  0  0  0  0  0  0  0  0
   -1.9551    1.1581   -3.7219 C   0  0  0  0  0  0  0  0  0  0  0  0
   -2.4569    0.1855   -3.7504 H   0  0  0  0  0  0  0  0  0  0  0  0
   -2.7271    1.9336   -3.7193 H   0  0  0  0  0  0  0  0  0  0  0  0
   -1.0756    1.3147   -4.9078 N   0  3  0  0  0  0  0  0  0  0  0  0
   -0.3653    0.5934   -4.9213 H   0  0  0  0  0  0  0  0  0  0  0  0
   -1.6146    1.2472   -5.7621 H   0  0  0  0  0  0  0  0  0  0  0  0
   -0.6153    2.2173   -4.8907 H   0  0  0  0  0  0  0  0  0  0  0  0
   -0.5865    0.0771    2.2496 C   0  0  0  0  0  0  0  0  0  0  0  0
    0.5860   -0.1608    2.5143 O   0  0  0  0  0  0  0  0  0  0  0  0
   -1.4786    0.4656    3.1667 N   0  0  0  0  0  0  0  0  0  0  0  0
   -2.4139    0.6698    2.8558 H   0  0  0  0  0  0  0  0  0  0  0  0
   -1.1587    0.6908    4.5775 C   0  0  0  0  0  0  0  0  0  0  0  0
   -0.4270    1.4968    4.6656 H   0  0  0  0  0  0  0  0  0  0  0  0
   -2.0565    0.9649    5.1327 H   0  0  0  0  0  0  0  0  0  0  0  0
   -0.7281   -0.2137    5.0125 H   0  0  0  0  0  0  0  0  0  0  0  0
  5  6  2  0  0  0  0
  5  7  1  0  0  0  0
  2  3  1  0  0  0  0
  2  4  1  0  0  0  0
  2  5  1  0  0  0  0
  1  2  1  0  0  0  0
 27 28  2  0  0  0  0
 27 29  1  0  0  0  0
 23 24  1  0  0  0  0
 23 25  1  0  0  0  0
 23 26  1  0  0  0  0
 20 21  1  0  0  0  0
 20 22  1  0  0  0  0
 20 23  1  0  0  0  0
 17 18  1  0  0  0  0
 17 19  1  0  0  0  0
 17 20  1  0  0  0  0
 14 15  1  0  0  0  0
 14 16  1  0  0  0  0
 14 17  1  0  0  0  0
 11 12  1  0  0  0  0
 11 13  1  0  0  0  0
 11 14  1  0  0  0  0
  9 10  1  0  0  0  0
  9 11  1  0  0  0  0
  9 27  1  0  0  0  0
  7  8  1  0  0  0  0
  7  9  1  0  0  0  0
 31 32  1  0  0  0  0
 31 33  1  0  0  0  0
 31 34  1  0  0  0  0
 29 30  1  0  0  0  0
 29 31  1  0  0  0  0
M  CHG  1  23   1
M  END
$$$$
default_name
  -OEChem-02102213163D

 34 33  0     1  0  0  0  0  0999 V2000
   -3.8899   -3.6747    1.6490 H   0  0  0  0  0  0  0  0  0  0  0  0
   -3.9109   -2.6717    1.2250 C   0  0  0  0  0  0  0  0  0  0  0  0
   -4.6009   -2.0517    1.7950 H   0  0  0  0  0  0  0  0  0  0  0  0
   -4.2309   -2.7237    0.1860 H   0  0  0  0  0  0  0  0  0  0  0  0
   -2.5229   -2.0787    1.2980 C   0  0  0  0  0  0  0  0  0  0  0  0
   -1.5999   -2.7227    1.7810 O   0  0  0  0  0  0  0  0  0  0  0  0
   -2.3659   -0.8447    0.8120 N   0  0  0  0  0  0  0  0  0  0  0  0
   -3.1749   -0.3807    0.4220 H   0  0  0  0  0  0  0  0  0  0  0  0
   -1.0919   -0.1077    0.8170 C   0  0  1  0  0  0  0  0  0  0  0  0
   -0.3571   -0.6901    0.2581 H   0  0  0  0  0  0  0  0  0  0  0  0
   -1.3037    1.2411    0.1040 C   0  0  0  0  0  0  0  0  0  0  0  0
   -1.8501    1.9065    0.7742 H   0  0  0  0  0  0  0  0  0  0  0  0
   -0.3320    1.6925   -0.1057 H   0  0  0  0  0  0  0  0  0  0  0  0
   -2.0973    1.1168   -1.2057 C   0  0  0  0  0  0  0  0  0  0  0  0
   -2.7932    0.2798   -1.1356 H   0  0  0  0  0  0  0  0  0  0  0  0
   -2.6614    2.0365   -1.3728 H   0  0  0  0  0  0  0  0  0  0  0  0
   -1.1457    0.8828   -2.3871 C   0  0  0  0  0  0  0  0  0  0  0  0
   -0.4404    1.7153   -2.4455 H   0  0  0  0  0  0  0  0  0  0  0  0
   -0.5909   -0.0425   -2.2196 H   0  0  0  0  0  0  0  0  0  0  0  0
   -1.9345    0.7833   -3.6987 C   0  0  0  0  0  0  0  0  0  0  0  0
   -2.6396   -0.0503   -3.6173 H   0  0  0  0  0  0  0  0  0  0  0  0
   -2.5151    1.7021   -3.8258 H   0  0  0  0  0  0  0  0  0  0  0  0
   -1.0352    0.5804   -4.8626 N   0  3  0  0  0  0  0  0  0  0  0  0
   -0.5028   -0.2739   -4.7558 H   0  0  0  0  0  0  0  0  0  0  0  0
   -1.5707    0.5172   -5.7195 H   0  0  0  0  0  0  0  0  0  0  0  0
   -0.3862    1.3540   -4.9476 H   0  0  0  0  0  0  0  0  0  0  0  0
   -0.5865    0.0771    2.2496 C   0  0  0  0  0  0  0  0  0  0  0  0
    0.5860   -0.1608    2.5143 O   0  0  0  0  0  0  0  0  0  0  0  0
   -1.4786    0.4656    3.1667 N   0  0  0  0  0  0  0  0  0  0  0  0
   -2.4139    0.6698    2.8558 H   0  0  0  0  0  0  0  0  0  0  0  0
   -1.1587    0.6908    4.5775 C   0  0  0  0  0  0  0  0  0  0  0  0
   -0.4270    1.4968    4.6656 H   0  0  0  0  0  0  0  0  0  0  0  0
   -2.0565    0.9649    5.1327 H   0  0  0  0  0  0  0  0  0  0  0  0
   -0.7281   -0.2137    5.0125 H   0  0  0  0  0  0  0  0  0  0  0  0
  5  6  2  0  0  0  0
  5  7  1  0  0  0  0
  2  3  1  0  0  0  0
  2  4  1  0  0  0  0
  2  5  1  0  0  0  0
  1  2  1  0  0  0  0
 27 28  2  0  0  0  0
 27 29  1  0  0  0  0
 23 24  1  0  0  0  0
 23 25  1  0  0  0  0
 23 26  1  0  0  0  0
 20 21  1  0  0  0  0
 20 22  1  0  0  0  0
 20 23  1  0  0  0  0
 17 18  1  0  0  0  0
 17 19  1  0  0  0  0
 17 20  1  0  0  0  0
 14 15  1  0  0  0  0
 14 16  1  0  0  0  0
 14 17  1  0  0  0  0
 11 12  1  0  0  0  0
 11 13  1  0  0  0  0
 11 14  1  0  0  0  0
  9 10  1  0  0  0  0
  9 11  1  0  0  0  0
  9 27  1  0  0  0  0
  7  8  1  0  0  0  0
  7  9  1  0  0  0  0
 31 32  1  0  0  0  0
 31 33  1  0  0  0  0
 31 34  1  0  0  0  0
 29 30  1  0  0  0  0
 29 31  1  0  0  0  0
M  CHG  1  23   1
M  END
$$$$
default_name
  -OEChem-02102213163D

 34 33  0     1  0  0  0  0  0999 V2000
   -3.8899   -3.6747    1.6490 H   0  0  0  0  0  0  0  0  0  0  0  0
   -3.9109   -2.6717    1.2250 C   0  0  0  0  0  0  0  0  0  0  0  0
   -4.6009   -2.0517    1.7950 H   0  0  0  0  0  0  0  0  0  0  0  0
   -4.2309   -2.7237    0.1860 H   0  0  0  0  0  0  0  0  0  0  0  0
   -2.5229   -2.0787    1.2980 C   0  0  0  0  0  0  0  0  0  0  0  0
   -1.5999   -2.7227    1.7810 O   0  0  0  0  0  0  0  0  0  0  0  0
   -2.3659   -0.8447    0.8120 N   0  0  0  0  0  0  0  0  0  0  0  0
   -3.1749   -0.3807    0.4220 H   0  0  0  0  0  0  0  0  0  0  0  0
   -1.0919   -0.1077    0.8170 C   0  0  1  0  0  0  0  0  0  0  0  0
   -0.3571   -0.6901    0.2581 H   0  0  0  0  0  0  0  0  0  0  0  0
   -1.3037    1.2411    0.1040 C   0  0  0  0  0  0  0  0  0  0  0  0
   -1.8501    1.9065    0.7742 H   0  0  0  0  0  0  0  0  0  0  0  0
   -0.3320    1.6925   -0.1057 H   0  0  0  0  0  0  0  0  0  0  0  0
   -2.0973    1.1168   -1.2057 C   0  0  0  0  0  0  0  0  0  0  0  0
   -2.9621    0.4703   -1.0513 H   0  0  0  0  0  0  0  0  0  0  0  0
   -2.4421    2.1063   -1.5123 H   0  0  0  0  0  0  0  0  0  0  0  0
   -1.2144    0.5214   -2.3112 C   0  0  0  0  0  0  0  0  0  0  0  0
   -0.3416    1.1632   -2.4530 H   0  0  0  0  0  0  0  0  0  0  0  0
   -0.8799   -0.4714   -2.0037 H   0  0  0  0  0  0  0  0  0  0  0  0
   -1.9979    0.4198   -3.6259 C   0  0  0  0  0  0  0  0  0  0  0  0
   -2.8710   -0.2200   -3.4610 H   0  0  0  0  0  0  0  0  0  0  0  0
   -2.3591    1.4174   -3.8932 H   0  0  0  0  0  0  0  0  0  0  0  0
   -1.1592   -0.1317   -4.7199 N   0  3  0  0  0  0  0  0  0  0  0  0
   -0.8304   -1.0593   -4.4828 H   0  0  0  0  0  0  0  0  0  0  0  0
   -1.6902   -0.1919   -5.5798 H   0  0  0  0  0  0  0  0  0  0  0  0
   -0.3541    0.4618   -4.8825 H   0  0  0  0  0  0  0  0  0  0  0  0
   -0.5865    0.0771    2.2496 C   0  0  0  0  0  0  0  0  0  0  0  0
    0.5860   -0.1608    2.5143 O   0  0  0  0  0  0  0  0  0  0  0  0
   -1.4786    0.4656    3.1667 N   0  0  0  0  0  0  0  0  0  0  0  0
   -2.4139    0.6698    2.8558 H   0  0  0  0  0  0  0  0  0  0  0  0
   -1.1587    0.6908    4.5775 C   0  0  0  0  0  0  0  0  0  0  0  0
   -0.4270    1.4968    4.6656 H   0  0  0  0  0  0  0  0  0  0  0  0
   -2.0565    0.9649    5.1327 H   0  0  0  0  0  0  0  0  0  0  0  0
   -0.7281   -0.2137    5.0125 H   0  0  0  0  0  0  0  0  0  0  0  0
  5  6  2  0  0  0  0
  5  7  1  0  0  0  0
  2  3  1  0  0  0  0
  2  4  1  0  0  0  0
  2  5  1  0  0  0  0
  1  2  1  0  0  0  0
 27 28  2  0  0  0  0
 27 29  1  0  0  0  0
 23 24  1  0  0  0  0
 23 25  1  0  0  0  0
 23 26  1  0  0  0  0
 20 21  1  0  0  0  0
 20 22  1  0  0  0  0
 20 23  1  0  0  0  0
 17 18  1  0  0  0  0
 17 19  1  0  0  0  0
 17 20  1  0  0  0  0
 14 15  1  0  0  0  0
 14 16  1  0  0  0  0
 14 17  1  0  0  0  0
 11 12  1  0  0  0  0
 11 13  1  0  0  0  0
 11 14  1  0  0  0  0
  9 10  1  0  0  0  0
  9 11  1  0  0  0  0
  9 27  1  0  0  0  0
  7  8  1  0  0  0  0
  7  9  1  0  0  0  0
 31 32  1  0  0  0  0
 31 33  1  0  0  0  0
 31 34  1  0  0  0  0
 29 30  1  0  0  0  0
 29 31  1  0  0  0  0
M  CHG  1  23   1
M  END
$$$$
default_name
  -OEChem-02102213163D

 34 33  0     1  0  0  0  0  0999 V2000
   -3.8899   -3.6747    1.6490 H   0  0  0  0  0  0  0  0  0  0  0  0
   -3.9109   -2.6717    1.2250 C   0  0  0  0  0  0  0  0  0  0  0  0
   -4.6009   -2.0517    1.7950 H   0  0  0  0  0  0  0  0  0  0  0  0
   -4.2309   -2.7237    0.1860 H   0  0  0  0  0  0  0  0  0  0  0  0
   -2.5229   -2.0787    1.2980 C   0  0  0  0  0  0  0  0  0  0  0  0
   -1.5999   -2.7227    1.7810 O   0  0  0  0  0  0  0  0  0  0  0  0
   -2.3659   -0.8447    0.8120 N   0  0  0  0  0  0  0  0  0  0  0  0
   -3.1749   -0.3807    0.4220 H   0  0  0  0  0  0  0  0  0  0  0  0
   -1.0919   -0.1077    0.8170 C   0  0  1  0  0  0  0  0  0  0  0  0
   -0.3571   -0.6901    0.2581 H   0  0  0  0  0  0  0  0  0  0  0  0
   -1.3037    1.2411    0.1040 C   0  0  0  0  0  0  0  0  0  0  0  0
   -1.8501    1.9065    0.7742 H   0  0  0  0  0  0  0  0  0  0  0  0
   -0.3320    1.6925   -0.1057 H   0  0  0  0  0  0  0  0  0  0  0  0
   -2.0973    1.1168   -1.2057 C   0  0  0  0  0  0  0  0  0  0  0  0
   -3.0850    0.7027   -0.9990 H   0  0  0  0  0  0  0  0  0  0  0  0
   -2.2119    2.1067   -1.6518 H   0  0  0  0  0  0  0  0  0  0  0  0
   -1.3621    0.1976   -2.1910 C   0  0  0  0  0  0  0  0  0  0  0  0
   -0.3678    0.6071   -2.3844 H   0  0  0  0  0  0  0  0  0  0  0  0
   -1.2583   -0.7931   -1.7440 H   0  0  0  0  0  0  0  0  0  0  0  0
   -2.1408    0.0924   -3.5082 C   0  0  0  0  0  0  0  0  0  0  0  0
   -3.1351   -0.3119   -3.2923 H   0  0  0  0  0  0  0  0  0  0  0  0
   -2.2699    1.0991   -3.9171 H   0  0  0  0  0  0  0  0  0  0  0  0
   -1.4390   -0.7731   -4.4895 N   0  3  0  0  0  0  0  0  0  0  0  0
   -1.3259   -1.7091   -4.1209 H   0  0  0  0  0  0  0  0  0  0  0  0
   -1.9651   -0.8318   -5.3525 H   0  0  0  0  0  0  0  0  0  0  0  0
   -0.5213   -0.3982   -4.6996 H   0  0  0  0  0  0  0  0  0  0  0  0
   -0.5865    0.0771    2.2496 C   0  0  0  0  0  0  0  0  0  0  0  0
    0.5860   -0.1608    2.5143 O   0  0  0  0  0  0  0  0  0  0  0  0
   -1.4786    0.4656    3.1667 N   0  0  0  0  0  0  0  0  0  0  0  0
   -2.4139    0.6698    2.8558 H   0  0  0  0  0  0  0  0  0  0  0  0
   -1.1587    0.6908    4.5775 C   0  0  0  0  0  0  0  0  0  0  0  0
   -0.4270    1.4968    4.6656 H   0  0  0  0  0  0  0  0  0  0  0  0
   -2.0565    0.9649    5.1327 H   0  0  0  0  0  0  0  0  0  0  0  0
   -0.7281   -0.2137    5.0125 H   0  0  0  0  0  0  0  0  0  0  0  0
  5  6  2  0  0  0  0
  5  7  1  0  0  0  0
  2  3  1  0  0  0  0
  2  4  1  0  0  0  0
  2  5  1  0  0  0  0
  1  2  1  0  0  0  0
 27 28  2  0  0  0  0
 27 29  1  0  0  0  0
 23 24  1  0  0  0  0
 23 25  1  0  0  0  0
 23 26  1  0  0  0  0
 20 21  1  0  0  0  0
 20 22  1  0  0  0  0
 20 23  1  0  0  0  0
 17 18  1  0  0  0  0
 17 19  1  0  0  0  0
 17 20  1  0  0  0  0
 14 15  1  0  0  0  0
 14 16  1  0  0  0  0
 14 17  1  0  0  0  0
 11 12  1  0  0  0  0
 11 13  1  0  0  0  0
 11 14  1  0  0  0  0
  9 10  1  0  0  0  0
  9 11  1  0  0  0  0
  9 27  1  0  0  0  0
  7  8  1  0  0  0  0
  7  9  1  0  0  0  0
 31 32  1  0  0  0  0
 31 33  1  0  0  0  0
 31 34  1  0  0  0  0
 29 30  1  0  0  0  0
 29 31  1  0  0  0  0
M  CHG  1  23   1
M  END
$$$$
default_name
  -OEChem-02102213163D

 34 33  0     1  0  0  0  0  0999 V2000
   -3.8899   -3.6747    1.6490 H   0  0  0  0  0  0  0  0  0  0  0  0
   -3.9109   -2.6717    1.2250 C   0  0  0  0  0  0  0  0  0  0  0  0
   -4.6009   -2.0517    1.7950 H   0  0  0  0  0  0  0  0  0  0  0  0
   -4.2309   -2.7237    0.1860 H   0  0  0  0  0  0  0  0  0  0  0  0
   -2.5229   -2.0787    1.2980 C   0  0  0  0  0  0  0  0  0  0  0  0
   -1.5999   -2.7227    1.7810 O   0  0  0  0  0  0  0  0  0  0  0  0
   -2.3659   -0.8447    0.8120 N   0  0  0  0  0  0  0  0  0  0  0  0
   -3.1749   -0.3807    0.4220 H   0  0  0  0  0  0  0  0  0  0  0  0
   -1.0919   -0.1077    0.8170 C   0  0  1  0  0  0  0  0  0  0  0  0
   -0.3571   -0.6901    0.2581 H   0  0  0  0  0  0  0  0  0  0  0  0
   -1.3037    1.2411    0.1040 C   0  0  0  0  0  0  0  0  0  0  0  0
   -1.8501    1.9065    0.7742 H   0  0  0  0  0  0  0  0  0  0  0  0
   -0.3320    1.6925   -0.1057 H   0  0  0  0  0  0  0  0  0  0  0  0
   -2.0973    1.1168   -1.2057 C   0  0  0  0  0  0  0  0  0  0  0  0
   -3.1535    0.9614   -0.9820 H   0  0  0  0  0  0  0  0  0  0  0  0
   -1.9866    2.0376   -1.7817 H   0  0  0  0  0  0  0  0  0  0  0  0
   -1.5788   -0.0664   -2.0347 C   0  0  0  0  0  0  0  0  0  0  0  0
   -0.5172    0.0849   -2.2443 H   0  0  0  0  0  0  0  0  0  0  0  0
   -1.7002   -0.9855   -1.4580 H   0  0  0  0  0  0  0  0  0  0  0  0
   -2.3535   -0.1766   -3.3538 C   0  0  0  0  0  0  0  0  0  0  0  0
   -3.4141   -0.3198   -3.1225 H   0  0  0  0  0  0  0  0  0  0  0  0
   -2.2535    0.7687   -3.8957 H   0  0  0  0  0  0  0  0  0  0  0  0
   -1.8557   -1.3001   -4.1871 N   0  3  0  0  0  0  0  0  0  0  0  0
   -1.9554   -2.1791   -3.6950 H   0  0  0  0  0  0  0  0  0  0  0  0
   -2.3765   -1.3589   -5.0533 H   0  0  0  0  0  0  0  0  0  0  0  0
   -0.8764   -1.1677   -4.4114 H   0  0  0  0  0  0  0  0  0  0  0  0
   -0.5865    0.0771    2.2496 C   0  0  0  0  0  0  0  0  0  0  0  0
    0.5860   -0.1608    2.5143 O   0  0  0  0  0  0  0  0  0  0  0  0
   -1.4786    0.4656    3.1667 N   0  0  0  0  0  0  0  0  0  0  0  0
   -2.4139    0.6698    2.8558 H   0  0  0  0  0  0  0  0  0  0  0  0
   -1.1587    0.6908    4.5775 C   0  0  0  0  0  0  0  0  0  0  0  0
   -0.4270    1.4968    4.6656 H   0  0  0  0  0  0  0  0  0  0  0  0
   -2.0565    0.9649    5.1327 H   0  0  0  0  0  0  0  0  0  0  0  0
   -0.7281   -0.2137    5.0125 H   0  0  0  0  0  0  0  0  0  0  0  0
  5  6  2  0  0  0  0
  5  7  1  0  0  0  0
  2  3  1  0  0  0  0
  2  4  1  0  0  0  0
  2  5  1  0  0  0  0
  1  2  1  0  0  0  0
 27 28  2  0  0  0  0
 27 29  1  0  0  0  0
 23 24  1  0  0  0  0
 23 25  1  0  0  0  0
 23 26  1  0  0  0  0
 20 21  1  0  0  0  0
 20 22  1  0  0  0  0
 20 23  1  0  0  0  0
 17 18  1  0  0  0  0
 17 19  1  0  0  0  0
 17 20  1  0  0  0  0
 14 15  1  0  0  0  0
 14 16  1  0  0  0  0
 14 17  1  0  0  0  0
 11 12  1  0  0  0  0
 11 13  1  0  0  0  0
 11 14  1  0  0  0  0
  9 10  1  0  0  0  0
  9 11  1  0  0  0  0
  9 27  1  0  0  0  0
  7  8  1  0  0  0  0
  7  9  1  0  0  0  0
 31 32  1  0  0  0  0
 31 33  1  0  0  0  0
 31 34  1  0  0  0  0
 29 30  1  0  0  0  0
 29 31  1  0  0  0  0
M  CHG  1  23   1
M  END
$$$$
default_name
  -OEChem-02102213163D

 34 33  0     1  0  0  0  0  0999 V2000
   -3.8899   -3.6747    1.6490 H   0  0  0  0  0  0  0  0  0  0  0  0
   -3.9109   -2.6717    1.2250 C   0  0  0  0  0  0  0  0  0  0  0  0
   -4.6009   -2.0517    1.7950 H   0  0  0  0  0  0  0  0  0  0  0  0
   -4.2309   -2.7237    0.1860 H   0  0  0  0  0  0  0  0  0  0  0  0
   -2.5229   -2.0787    1.2980 C   0  0  0  0  0  0  0  0  0  0  0  0
   -1.5999   -2.7227    1.7810 O   0  0  0  0  0  0  0  0  0  0  0  0
   -2.3659   -0.8447    0.8120 N   0  0  0  0  0  0  0  0  0  0  0  0
   -3.1749   -0.3807    0.4220 H   0  0  0  0  0  0  0  0  0  0  0  0
   -1.0919   -0.1077    0.8170 C   0  0  1  0  0  0  0  0  0  0  0  0
   -0.3571   -0.6901    0.2581 H   0  0  0  0  0  0  0  0  0  0  0  0
   -1.3037    1.2411    0.1040 C   0  0  0  0  0  0  0  0  0  0  0  0
   -1.8501    1.9065    0.7742 H   0  0  0  0  0  0  0  0  0  0  0  0
   -0.3320    1.6925   -0.1057 H   0  0  0  0  0  0  0  0  0  0  0  0
   -2.0973    1.1168   -1.2057 C   0  0  0  0  0  0  0  0  0  0  0  0
   -3.1630    1.2286   -1.0016 H   0  0  0  0  0  0  0  0  0  0  0  0
   -1.7815    1.9038   -1.8933 H   0  0  0  0  0  0  0  0  0  0  0  0
   -1.8496   -0.2528   -1.8529 C   0  0  0  0  0  0  0  0  0  0  0  0
   -0.7796   -0.3678   -2.0423 H   0  0  0  0  0  0  0  0  0  0  0  0
   -2.1755   -1.0357   -1.1653 H   0  0  0  0  0  0  0  0  0  0  0  0
   -2.6216   -0.3688   -3.1732 C   0  0  0  0  0  0  0  0  0  0  0  0
   -3.6888   -0.2433   -2.9633 H   0  0  0  0  0  0  0  0  0  0  0  0
   -2.3109    0.4488   -3.8306 H   0  0  0  0  0  0  0  0  0  0  0  0
   -2.3807   -1.6767   -3.8333 N   0  3  0  0  0  0  0  0  0  0  0  0
   -2.6761   -2.4372   -3.2338 H   0  0  0  0  0  0  0  0  0  0  0  0
   -2.8965   -1.7372   -4.7023 H   0  0  0  0  0  0  0  0  0  0  0  0
   -1.3952   -1.7940   -4.0377 H   0  0  0  0  0  0  0  0  0  0  0  0
   -0.5865    0.0771    2.2496 C   0  0  0  0  0  0  0  0  0  0  0  0
    0.5860   -0.1608    2.5143 O   0  0  0  0  0  0  0  0  0  0  0  0
   -1.4786    0.4656    3.1667 N   0  0  0  0  0  0  0  0  0  0  0  0
   -2.4139    0.6698    2.8558 H   0  0  0  0  0  0  0  0  0  0  0  0
   -1.1587    0.6908    4.5775 C   0  0  0  0  0  0  0  0  0  0  0  0
   -0.4270    1.4968    4.6656 H   0  0  0  0  0  0  0  0  0  0  0  0
   -2.0565    0.9649    5.1327 H   0  0  0  0  0  0  0  0  0  0  0  0
   -0.7281   -0.2137    5.0125 H   0  0  0  0  0  0  0  0  0  0  0  0
  5  6  2  0  0  0  0
  5  7  1  0  0  0  0
  2  3  1  0  0  0  0
  2  4  1  0  0  0  0
  2  5  1  0  0  0  0
  1  2  1  0  0  0  0
 27 28  2  0  0  0  0
 27 29  1  0  0  0  0
 23 24  1  0  0  0  0
 23 25  1  0  0  0  0
 23 26  1  0  0  0  0
 20 21  1  0  0  0  0
 20 22  1  0  0  0  0
 20 23  1  0  0  0  0
 17 18  1  0  0  0  0
 17 19  1  0  0  0  0
 17 20  1  0  0  0  0
 14 15  1  0  0  0  0
 14 16  1  0  0  0  0
 14 17  1  0  0  0  0
 11 12  1  0  0  0  0
 11 13  1  0  0  0  0
 11 14  1  0  0  0  0
  9 10  1  0  0  0  0
  9 11  1  0  0  0  0
  9 27  1  0  0  0  0
  7  8  1  0  0  0  0
  7  9  1  0  0  0  0
 31 32  1  0  0  0  0
 31 33  1  0  0  0  0
 31 34  1  0  0  0  0
 29 30  1  0  0  0  0
 29 31  1  0  0  0  0
M  CHG  1  23   1
M  END
$$$$
default_name
  -OEChem-02102213163D

 34 33  0     1  0  0  0  0  0999 V2000
   -3.8899   -3.6747    1.6490 H   0  0  0  0  0  0  0  0  0  0  0  0
   -3.9109   -2.6717    1.2250 C   0  0  0  0  0  0  0  0  0  0  0  0
   -4.6009   -2.0517    1.7950 H   0  0  0  0  0  0  0  0  0  0  0  0
   -4.2309   -2.7237    0.1860 H   0  0  0  0  0  0  0  0  0  0  0  0
   -2.5229   -2.0787    1.2980 C   0  0  0  0  0  0  0  0  0  0  0  0
   -1.5999   -2.7227    1.7810 O   0  0  0  0  0  0  0  0  0  0  0  0
   -2.3659   -0.8447    0.8120 N   0  0  0  0  0  0  0  0  0  0  0  0
   -3.1749   -0.3807    0.4220 H   0  0  0  0  0  0  0  0  0  0  0  0
   -1.0919   -0.1077    0.8170 C   0  0  1  0  0  0  0  0  0  0  0  0
   -0.3571   -0.6901    0.2581 H   0  0  0  0  0  0  0  0  0  0  0  0
   -1.3037    1.2411    0.1040 C   0  0  0  0  0  0  0  0  0  0  0  0
   -1.8501    1.9065    0.7742 H   0  0  0  0  0  0  0  0  0  0  0  0
   -0.3320    1.6925   -0.1057 H   0  0  0  0  0  0  0  0  0  0  0  0
   -2.0973    1.1168   -1.2057 C   0  0  0  0  0  0  0  0  0  0  0  0
   -3.1127    1.4862   -1.0565 H   0  0  0  0  0  0  0  0  0  0  0  0
   -1.6105    1.7145   -1.9789 H   0  0  0  0  0  0  0  0  0  0  0  0
   -2.1561   -0.3487   -1.6581 C   0  0  0  0  0  0  0  0  0  0  0  0
   -1.1373   -0.7202   -1.7922 H   0  0  0  0  0  0  0  0  0  0  0  0
   -2.6517   -0.9402   -0.8858 H   0  0  0  0  0  0  0  0  0  0  0  0
   -2.9267   -0.4712   -2.9786 C   0  0  0  0  0  0  0  0  0  0  0  0
   -3.9407   -0.0874   -2.8255 H   0  0  0  0  0  0  0  0  0  0  0  0
   -2.4384    0.1612   -3.7261 H   0  0  0  0  0  0  0  0  0  0  0  0
   -2.9784   -1.8775   -3.4521 N   0  3  0  0  0  0  0  0  0  0  0  0
   -3.4388   -2.4659   -2.7690 H   0  0  0  0  0  0  0  0  0  0  0  0
   -3.4896   -1.9410   -4.3237 H   0  0  0  0  0  0  0  0  0  0  0  0
   -2.0423   -2.2346   -3.6038 H   0  0  0  0  0  0  0  0  0  0  0  0
   -0.5865    0.0771    2.2496 C   0  0  0  0  0  0  0  0  0  0  0  0
    0.5860   -0.1608    2.5143 O   0  0  0  0  0  0  0  0  0  0  0  0
   -1.4786    0.4656    3.1667 N   0  0  0  0  0  0  0  0  0  0  0  0
   -2.4139    0.6698    2.8558 H   0  0  0  0  0  0  0  0  0  0  0  0
   -1.1587    0.6908    4.5775 C   0  0  0  0  0  0  0  0  0  0  0  0
   -0.4270    1.4968    4.6656 H   0  0  0  0  0  0  0  0  0  0  0  0
   -2.0565    0.9649    5.1327 H   0  0  0  0  0  0  0  0  0  0  0  0
   -0.7281   -0.2137    5.0125 H   0  0  0  0  0  0  0  0  0  0  0  0
  5  6  2  0  0  0  0
  5  7  1  0  0  0  0
  2  3  1  0  0  0  0
  2  4  1  0  0  0  0
  2  5  1  0  0  0  0
  1  2  1  0  0  0  0
 27 28  2  0  0  0  0
 27 29  1  0  0  0  0
 23 24  1  0  0  0  0
 23 25  1  0  0  0  0
 23 26  1  0  0  0  0
 20 21  1  0  0  0  0
 20 22  1  0  0  0  0
 20 23  1  0  0  0  0
 17 18  1  0  0  0  0
 17 19  1  0  0  0  0
 17 20  1  0  0  0  0
 14 15  1  0  0  0  0
 14 16  1  0  0  0  0
 14 17  1  0  0  0  0
 11 12  1  0  0  0  0
 11 13  1  0  0  0  0
 11 14  1  0  0  0  0
  9 10  1  0  0  0  0
  9 11  1  0  0  0  0
  9 27  1  0  0  0  0
  7  8  1  0  0  0  0
  7  9  1  0  0  0  0
 31 32  1  0  0  0  0
 31 33  1  0  0  0  0
 31 34  1  0  0  0  0
 29 30  1  0  0  0  0
 29 31  1  0  0  0  0
M  CHG  1  23   1
M  END
$$$$
default_name
  -OEChem-02102213163D

 34 33  0     1  0  0  0  0  0999 V2000
   -3.8899   -3.6747    1.6490 H   0  0  0  0  0  0  0  0  0  0  0  0
   -3.9109   -2.6717    1.2250 C   0  0  0  0  0  0  0  0  0  0  0  0
   -4.6009   -2.0517    1.7950 H   0  0  0  0  0  0  0  0  0  0  0  0
   -4.2309   -2.7237    0.1860 H   0  0  0  0  0  0  0  0  0  0  0  0
   -2.5229   -2.0787    1.2980 C   0  0  0  0  0  0  0  0  0  0  0  0
   -1.5999   -2.7227    1.7810 O   0  0  0  0  0  0  0  0  0  0  0  0
   -2.3659   -0.8447    0.8120 N   0  0  0  0  0  0  0  0  0  0  0  0
   -3.1749   -0.3807    0.4220 H   0  0  0  0  0  0  0  0  0  0  0  0
   -1.0919   -0.1077    0.8170 C   0  0  1  0  0  0  0  0  0  0  0  0
   -0.3571   -0.6901    0.2581 H   0  0  0  0  0  0  0  0  0  0  0  0
   -1.3037    1.2411    0.1040 C   0  0  0  0  0  0  0  0  0  0  0  0
   -1.8501    1.9065    0.7742 H   0  0  0  0  0  0  0  0  0  0  0  0
   -0.3320    1.6925   -0.1057 H   0  0  0  0  0  0  0  0  0  0  0  0
   -2.0973    1.1168   -1.2057 C   0  0  0  0  0  0  0  0  0  0  0  0
   -3.0062    1.7166   -1.1429 H   0  0  0  0  0  0  0  0  0  0  0  0
   -1.4854    1.4824   -2.0327 H   0  0  0  0  0  0  0  0  0  0  0  0
   -2.4773   -0.3478   -1.4636 C   0  0  0  0  0  0  0  0  0  0  0  0
   -1.5657   -0.9482   -1.5110 H   0  0  0  0  0  0  0  0  0  0  0  0
   -3.0966   -0.7055   -0.6385 H   0  0  0  0  0  0  0  0  0  0  0  0
   -3.2481   -0.4767   -2.7833 C   0  0  0  0  0  0  0  0  0  0  0  0
   -4.1524    0.1371   -2.7185 H   0  0  0  0  0  0  0  0  0  0  0  0
   -2.6271   -0.0745   -3.5894 H   0  0  0  0  0  0  0  0  0  0  0  0
   -3.6080   -1.8885   -3.0696 N   0  3  0  0  0  0  0  0  0  0  0  0
   -4.1916   -2.2632   -2.3321 H   0  0  0  0  0  0  0  0  0  0  0  0
   -4.1153   -1.9564   -3.9431 H   0  0  0  0  0  0  0  0  0  0  0  0
   -2.7737   -2.4594   -3.1394 H   0  0  0  0  0  0  0  0  0  0  0  0
   -0.5865    0.0771    2.2496 C   0  0  0  0  0  0  0  0  0  0  0  0
    0.5860   -0.1608    2.5143 O   0  0  0  0  0  0  0  0  0  0  0  0
   -1.4786    0.4656    3.1667 N   0  0  0  0  0  0  0  0  0  0  0  0
   -2.4139    0.6698    2.8558 H   0  0  0  0  0  0  0  0  0  0  0  0
   -1.1587    0.6908    4.5775 C   0  0  0  0  0  0  0  0  0  0  0  0
   -0.4270    1.4968    4.6656 H   0  0  0  0  0  0  0  0  0  0  0  0
   -2.0565    0.9649    5.1327 H   0  0  0  0  0  0  0  0  0  0  0  0
   -0.7281   -0.2137    5.0125 H   0  0  0  0  0  0  0  0  0  0  0  0
  5  6  2  0  0  0  0
  5  7  1  0  0  0  0
  2  3  1  0  0  0  0
  2  4  1  0  0  0  0
  2  5  1  0  0  0  0
  1  2  1  0  0  0  0
 27 28  2  0  0  0  0
 27 29  1  0  0  0  0
 23 24  1  0  0  0  0
 23 25  1  0  0  0  0
 23 26  1  0  0  0  0
 20 21  1  0  0  0  0
 20 22  1  0  0  0  0
 20 23  1  0  0  0  0
 17 18  1  0  0  0  0
 17 19  1  0  0  0  0
 17 20  1  0  0  0  0
 14 15  1  0  0  0  0
 14 16  1  0  0  0  0
 14 17  1  0  0  0  0
 11 12  1  0  0  0  0
 11 13  1  0  0  0  0
 11 14  1  0  0  0  0
  9 10  1  0  0  0  0
  9 11  1  0  0  0  0
  9 27  1  0  0  0  0
  7  8  1  0  0  0  0
  7  9  1  0  0  0  0
 31 32  1  0  0  0  0
 31 33  1  0  0  0  0
 31 34  1  0  0  0  0
 29 30  1  0  0  0  0
 29 31  1  0  0  0  0
M  CHG  1  23   1
M  END
$$$$
default_name
  -OEChem-02102213163D

 34 33  0     1  0  0  0  0  0999 V2000
   -3.8899   -3.6747    1.6490 H   0  0  0  0  0  0  0  0  0  0  0  0
   -3.9109   -2.6717    1.2250 C   0  0  0  0  0  0  0  0  0  0  0  0
   -4.6009   -2.0517    1.7950 H   0  0  0  0  0  0  0  0  0  0  0  0
   -4.2309   -2.7237    0.1860 H   0  0  0  0  0  0  0  0  0  0  0  0
   -2.5229   -2.0787    1.2980 C   0  0  0  0  0  0  0  0  0  0  0  0
   -1.5999   -2.7227    1.7810 O   0  0  0  0  0  0  0  0  0  0  0  0
   -2.3659   -0.8447    0.8120 N   0  0  0  0  0  0  0  0  0  0  0  0
   -3.1749   -0.3807    0.4220 H   0  0  0  0  0  0  0  0  0  0  0  0
   -1.0919   -0.1077    0.8170 C   0  0  1  0  0  0  0  0  0  0  0  0
   -0.3571   -0.6901    0.2581 H   0  0  0  0  0  0  0  0  0  0  0  0
   -1.3037    1.2411    0.1040 C   0  0  0  0  0  0  0  0  0  0  0  0
   -1.8501    1.9065    0.7742 H   0  0  0  0  0  0  0  0  0  0  0  0
   -0.3320    1.6925   -0.1057 H   0  0  0  0  0  0  0  0  0  0  0  0
   -2.0973    1.1168   -1.2057 C   0  0  0  0  0  0  0  0  0  0  0  0
   -2.8507    1.9041   -1.2549 H   0  0  0  0  0  0  0  0  0  0  0  0
   -1.4146    1.2234   -2.0510 H   0  0  0  0  0  0  0  0  0  0  0  0
   -2.7916   -0.2500   -1.2825 C   0  0  0  0  0  0  0  0  0  0  0  0
   -2.0357   -1.0364   -1.2179 H   0  0  0  0  0  0  0  0  0  0  0  0
   -3.4796   -0.3476   -0.4404 H   0  0  0  0  0  0  0  0  0  0  0  0
   -3.5639   -0.3851   -2.6007 C   0  0  0  0  0  0  0  0  0  0  0  0
   -4.3097    0.4150   -2.6496 H   0  0  0  0  0  0  0  0  0  0  0  0
   -2.8643   -0.2422   -3.4298 H   0  0  0  0  0  0  0  0  0  0  0  0
   -4.2266   -1.7091   -2.7119 N   0  3  0  0  0  0  0  0  0  0  0  0
   -4.8831   -1.8429   -1.9530 H   0  0  0  0  0  0  0  0  0  0  0  0
   -4.7311   -1.7824   -3.5865 H   0  0  0  0  0  0  0  0  0  0  0  0
   -3.5395   -2.4531   -2.6760 H   0  0  0  0  0  0  0  0  0  0  0  0
   -0.5865    0.0771    2.2496 C   0  0  0  0  0  0  0  0  0  0  0  0
    0.5860   -0.1608    2.5143 O   0  0  0  0  0  0  0  0  0  0  0  0
   -1.4786    0.4656    3.1667 N   0  0  0  0  0  0  0  0  0  0  0  0
   -2.4139    0.6698    2.8558 H   0  0  0  0  0  0  0  0  0  0  0  0
   -1.1587    0.6908    4.5775 C   0  0  0  0  0  0  0  0  0  0  0  0
   -0.4270    1.4968    4.6656 H   0  0  0  0  0  0  0  0  0  0  0  0
   -2.0565    0.9649    5.1327 H   0  0  0  0  0  0  0  0  0  0  0  0
   -0.7281   -0.2137    5.0125 H   0  0  0  0  0  0  0  0  0  0  0  0
  5  6  2  0  0  0  0
  5  7  1  0  0  0  0
  2  3  1  0  0  0  0
  2  4  1  0  0  0  0
  2  5  1  0  0  0  0
  1  2  1  0  0  0  0
 27 28  2  0  0  0  0
 27 29  1  0  0  0  0
 23 24  1  0  0  0  0
 23 25  1  0  0  0  0
 23 26  1  0  0  0  0
 20 21  1  0  0  0  0
 20 22  1  0  0  0  0
 20 23  1  0  0  0  0
 17 18  1  0  0  0  0
 17 19  1  0  0  0  0
 17 20  1  0  0  0  0
 14 15  1  0  0  0  0
 14 16  1  0  0  0  0
 14 17  1  0  0  0  0
 11 12  1  0  0  0  0
 11 13  1  0  0  0  0
 11 14  1  0  0  0  0
  9 10  1  0  0  0  0
  9 11  1  0  0  0  0
  9 27  1  0  0  0  0
  7  8  1  0  0  0  0
  7  9  1  0  0  0  0
 31 32  1  0  0  0  0
 31 33  1  0  0  0  0
 31 34  1  0  0  0  0
 29 30  1  0  0  0  0
 29 31  1  0  0  0  0
M  CHG  1  23   1
M  END
$$$$
default_name
  -OEChem-02102213163D

 34 33  0     1  0  0  0  0  0999 V2000
   -3.8899   -3.6747    1.6490 H   0  0  0  0  0  0  0  0  0  0  0  0
   -3.9109   -2.6717    1.2250 C   0  0  0  0  0  0  0  0  0  0  0  0
   -4.6009   -2.0517    1.7950 H   0  0  0  0  0  0  0  0  0  0  0  0
   -4.2309   -2.7237    0.1860 H   0  0  0  0  0  0  0  0  0  0  0  0
   -2.5229   -2.0787    1.2980 C   0  0  0  0  0  0  0  0  0  0  0  0
   -1.5999   -2.7227    1.7810 O   0  0  0  0  0  0  0  0  0  0  0  0
   -2.3659   -0.8447    0.8120 N   0  0  0  0  0  0  0  0  0  0  0  0
   -3.1749   -0.3807    0.4220 H   0  0  0  0  0  0  0  0  0  0  0  0
   -1.0919   -0.1077    0.8170 C   0  0  1  0  0  0  0  0  0  0  0  0
   -0.3571   -0.6901    0.2581 H   0  0  0  0  0  0  0  0  0  0  0  0
   -1.3037    1.2411    0.1040 C   0  0  0  0  0  0  0  0  0  0  0  0
   -1.8501    1.9065    0.7742 H   0  0  0  0  0  0  0  0  0  0  0  0
   -0.3320    1.6925   -0.1057 H   0  0  0  0  0  0  0  0  0  0  0  0
   -2.0973    1.1168   -1.2057 C   0  0  0  0  0  0  0  0  0  0  0  0
   -2.6567    2.0359   -1.3849 H   0  0  0  0  0  0  0  0  0  0  0  0
   -1.4030    0.9551   -2.0326 H   0  0  0  0  0  0  0  0  0  0  0  0
   -3.0773   -0.0619   -1.1272 C   0  0  0  0  0  0  0  0  0  0  0  0
   -2.5153   -0.9786   -0.9328 H   0  0  0  0  0  0  0  0  0  0  0  0
   -3.7748    0.1091   -0.3049 H   0  0  0  0  0  0  0  0  0  0  0  0
   -3.8525   -0.2025   -2.4432 C   0  0  0  0  0  0  0  0  0  0  0  0
   -4.4017    0.7274   -2.6235 H   0  0  0  0  0  0  0  0  0  0  0  0
   -3.1337   -0.3306   -3.2581 H   0  0  0  0  0  0  0  0  0  0  0  0
   -4.7920   -1.3516   -2.4032 N   0  3  0  0  0  0  0  0  0  0  0  0
   -5.4663   -1.2336   -1.6575 H   0  0  0  0  0  0  0  0  0  0  0  0
   -5.2950   -1.4307   -3.2782 H   0  0  0  0  0  0  0  0  0  0  0  0
   -4.2875   -2.2161   -2.2453 H   0  0  0  0  0  0  0  0  0  0  0  0
   -0.5865    0.0771    2.2496 C   0  0  0  0  0  0  0  0  0  0  0  0
    0.5860   -0.1608    2.5143 O   0  0  0  0  0  0  0  0  0  0  0  0
   -1.4786    0.4656    3.1667 N   0  0  0  0  0  0  0  0  0  0  0  0
   -2.4139    0.6698    2.8558 H   0  0  0  0  0  0  0  0  0  0  0  0
   -1.1587    0.6908    4.5775 C   0  0  0  0  0  0  0  0  0  0  0  0
   -0.4270    1.4968    4.6656 H   0  0  0  0  0  0  0  0  0  0  0  0
   -2.0565    0.9649    5.1327 H   0  0  0  0  0  0  0  0  0  0  0  0
   -0.7281   -0.2137    5.0125 H   0  0  0  0  0  0  0  0  0  0  0  0
  5  6  2  0  0  0  0
  5  7  1  0  0  0  0
  2  3  1  0  0  0  0
  2  4  1  0  0  0  0
  2  5  1  0  0  0  0
  1  2  1  0  0  0  0
 27 28  2  0  0  0  0
 27 29  1  0  0  0  0
 23 24  1  0  0  0  0
 23 25  1  0  0  0  0
 23 26  1  0  0  0  0
 20 21  1  0  0  0  0
 20 22  1  0  0  0  0
 20 23  1  0  0  0  0
 17 18  1  0  0  0  0
 17 19  1  0  0  0  0
 17 20  1  0  0  0  0
 14 15  1  0  0  0  0
 14 16  1  0  0  0  0
 14 17  1  0  0  0  0
 11 12  1  0  0  0  0
 11 13  1  0  0  0  0
 11 14  1  0  0  0  0
  9 10  1  0  0  0  0
  9 11  1  0  0  0  0
  9 27  1  0  0  0  0
  7  8  1  0  0  0  0
  7  9  1  0  0  0  0
 31 32  1  0  0  0  0
 31 33  1  0  0  0  0
 31 34  1  0  0  0  0
 29 30  1  0  0  0  0
 29 31  1  0  0  0  0
M  CHG  1  23   1
M  END
$$$$
default_name
  -OEChem-02102213163D

 34 33  0     1  0  0  0  0  0999 V2000
   -3.8899   -3.6747    1.6490 H   0  0  0  0  0  0  0  0  0  0  0  0
   -3.9109   -2.6717    1.2250 C   0  0  0  0  0  0  0  0  0  0  0  0
   -4.6009   -2.0517    1.7950 H   0  0  0  0  0  0  0  0  0  0  0  0
   -4.2309   -2.7237    0.1860 H   0  0  0  0  0  0  0  0  0  0  0  0
   -2.5229   -2.0787    1.2980 C   0  0  0  0  0  0  0  0  0  0  0  0
   -1.5999   -2.7227    1.7810 O   0  0  0  0  0  0  0  0  0  0  0  0
   -2.3659   -0.8447    0.8120 N   0  0  0  0  0  0  0  0  0  0  0  0
   -3.1749   -0.3807    0.4220 H   0  0  0  0  0  0  0  0  0  0  0  0
   -1.0919   -0.1077    0.8170 C   0  0  1  0  0  0  0  0  0  0  0  0
   -0.3571   -0.6901    0.2581 H   0  0  0  0  0  0  0  0  0  0  0  0
   -1.3037    1.2411    0.1040 C   0  0  0  0  0  0  0  0  0  0  0  0
   -1.8501    1.9065    0.7742 H   0  0  0  0  0  0  0  0  0  0  0  0
   -0.3320    1.6925   -0.1057 H   0  0  0  0  0  0  0  0  0  0  0  0
   -2.0973    1.1168   -1.2057 C   0  0  0  0  0  0  0  0  0  0  0  0
   -2.4376    2.1031   -1.5240 H   0  0  0  0  0  0  0  0  0  0  0  0
   -1.4514    0.6959   -1.9787 H   0  0  0  0  0  0  0  0  0  0  0  0
   -3.3150    0.2035   -1.0083 C   0  0  0  0  0  0  0  0  0  0  0  0
   -2.9718   -0.7789   -0.6752 H   0  0  0  0  0  0  0  0  0  0  0  0
   -3.9620    0.6335   -0.2412 H   0  0  0  0  0  0  0  0  0  0  0  0
   -4.0943    0.0586   -2.3214 C   0  0  0  0  0  0  0  0  0  0  0  0
   -4.4222    1.0528   -2.6419 H   0  0  0  0  0  0  0  0  0  0  0  0
   -3.4171   -0.3336   -3.0862 H   0  0  0  0  0  0  0  0  0  0  0  0
   -5.2657   -0.8402   -2.1647 N   0  3  0  0  0  0  0  0  0  0  0  0
   -5.9014   -0.4770   -1.4656 H   0  0  0  0  0  0  0  0  0  0  0  0
   -5.7685   -0.9254   -3.0393 H   0  0  0  0  0  0  0  0  0  0  0  0
   -4.9667   -1.7646   -1.8766 H   0  0  0  0  0  0  0  0  0  0  0  0
   -0.5865    0.0771    2.2496 C   0  0  0  0  0  0  0  0  0  0  0  0
    0.5860   -0.1608    2.5143 O   0  0  0  0  0  0  0  0  0  0  0  0
   -1.4786    0.4656    3.1667 N   0  0  0  0  0  0  0  0  0  0  0  0
   -2.4139    0.6698    2.8558 H   0  0  0  0  0  0  0  0  0  0  0  0
   -1.1587    0.6908    4.5775 C   0  0  0  0  0  0  0  0  0  0  0  0
   -0.4270    1.4968    4.6656 H   0  0  0  0  0  0  0  0  0  0  0  0
   -2.0565    0.9649    5.1327 H   0  0  0  0  0  0  0  0  0  0  0  0
   -0.7281   -0.2137    5.0125 H   0  0  0  0  0  0  0  0  0  0  0  0
  5  6  2  0  0  0  0
  5  7  1  0  0  0  0
  2  3  1  0  0  0  0
  2  4  1  0  0  0  0
  2  5  1  0  0  0  0
  1  2  1  0  0  0  0
 27 28  2  0  0  0  0
 27 29  1  0  0  0  0
 23 24  1  0  0  0  0
 23 25  1  0  0  0  0
 23 26  1  0  0  0  0
 20 21  1  0  0  0  0
 20 22  1  0  0  0  0
 20 23  1  0  0  0  0
 17 18  1  0  0  0  0
 17 19  1  0  0  0  0
 17 20  1  0  0  0  0
 14 15  1  0  0  0  0
 14 16  1  0  0  0  0
 14 17  1  0  0  0  0
 11 12  1  0  0  0  0
 11 13  1  0  0  0  0
 11 14  1  0  0  0  0
  9 10  1  0  0  0  0
  9 11  1  0  0  0  0
  9 27  1  0  0  0  0
  7  8  1  0  0  0  0
  7  9  1  0  0  0  0
 31 32  1  0  0  0  0
 31 33  1  0  0  0  0
 31 34  1  0  0  0  0
 29 30  1  0  0  0  0
 29 31  1  0  0  0  0
M  CHG  1  23   1
M  END
$$$$
default_name
  -OEChem-02102213163D

 34 33  0     1  0  0  0  0  0999 V2000
   -3.8899   -3.6747    1.6490 H   0  0  0  0  0  0  0  0  0  0  0  0
   -3.9109   -2.6717    1.2250 C   0  0  0  0  0  0  0  0  0  0  0  0
   -4.6009   -2.0517    1.7950 H   0  0  0  0  0  0  0  0  0  0  0  0
   -4.2309   -2.7237    0.1860 H   0  0  0  0  0  0  0  0  0  0  0  0
   -2.5229   -2.0787    1.2980 C   0  0  0  0  0  0  0  0  0  0  0  0
   -1.5999   -2.7227    1.7810 O   0  0  0  0  0  0  0  0  0  0  0  0
   -2.3659   -0.8447    0.8120 N   0  0  0  0  0  0  0  0  0  0  0  0
   -3.1749   -0.3807    0.4220 H   0  0  0  0  0  0  0  0  0  0  0  0
   -1.0919   -0.1077    0.8170 C   0  0  1  0  0  0  0  0  0  0  0  0
   -0.3571   -0.6901    0.2581 H   0  0  0  0  0  0  0  0  0  0  0  0
   -1.3037    1.2411    0.1040 C   0  0  0  0  0  0  0  0  0  0  0  0
   -1.8501    1.9065    0.7742 H   0  0  0  0  0  0  0  0  0  0  0  0
   -0.3320    1.6925   -0.1057 H   0  0  0  0  0  0  0  0  0  0  0  0
   -2.0973    1.1168   -1.2057 C   0  0  0  0  0  0  0  0  0  0  0  0
   -2.2082    2.1010   -1.6628 H   0  0  0  0  0  0  0  0  0  0  0  0
   -1.5564    0.4635   -1.8931 H   0  0  0  0  0  0  0  0  0  0  0  0
   -3.4886    0.5282   -0.9340 C   0  0  0  0  0  0  0  0  0  0  0  0
   -3.3741   -0.4509   -0.4626 H   0  0  0  0  0  0  0  0  0  0  0  0
   -4.0285    1.1898   -0.2537 H   0  0  0  0  0  0  0  0  0  0  0  0
   -4.2728    0.3804   -2.2438 C   0  0  0  0  0  0  0  0  0  0  0  0
   -4.3698    1.3693   -2.7037 H   0  0  0  0  0  0  0  0  0  0  0  0
   -3.6950   -0.2510   -2.9256 H   0  0  0  0  0  0  0  0  0  0  0  0
   -5.6154   -0.2098   -2.0126 N   0  3  0  0  0  0  0  0  0  0  0  0
   -6.1587    0.3755   -1.3906 H   0  0  0  0  0  0  0  0  0  0  0  0
   -6.1194   -0.3009   -2.8859 H   0  0  0  0  0  0  0  0  0  0  0  0
   -5.5308   -1.1293   -1.5951 H   0  0  0  0  0  0  0  0  0  0  0  0
   -0.5865    0.0771    2.2496 C   0  0  0  0  0  0  0  0  0  0  0  0
    0.5860   -0.1608    2.5143 O   0  0  0  0  0  0  0  0  0  0  0  0
   -1.4786    0.4656    3.1667 N   0  0  0  0  0  0  0  0  0  0  0  0
   -2.4139    0.6698    2.8558 H   0  0  0  0  0  0  0  0  0  0  0  0
   -1.1587    0.6908    4.5775 C   0  0  0  0  0  0  0  0  0  0  0  0
   -0.4270    1.4968    4.6656 H   0  0  0  0  0  0  0  0  0  0  0  0
   -2.0565    0.9649    5.1327 H   0  0  0  0  0  0  0  0  0  0  0  0
   -0.7281   -0.2137    5.0125 H   0  0  0  0  0  0  0  0  0  0  0  0
  5  6  2  0  0  0  0
  5  7  1  0  0  0  0
  2  3  1  0  0  0  0
  2  4  1  0  0  0  0
  2  5  1  0  0  0  0
  1  2  1  0  0  0  0
 27 28  2  0  0  0  0
 27 29  1  0  0  0  0
 23 24  1  0  0  0  0
 23 25  1  0  0  0  0
 23 26  1  0  0  0  0
 20 21  1  0  0  0  0
 20 22  1  0  0  0  0
 20 23  1  0  0  0  0
 17 18  1  0  0  0  0
 17 19  1  0  0  0  0
 17 20  1  0  0  0  0
 14 15  1  0  0  0  0
 14 16  1  0  0  0  0
 14 17  1  0  0  0  0
 11 12  1  0  0  0  0
 11 13  1  0  0  0  0
 11 14  1  0  0  0  0
  9 10  1  0  0  0  0
  9 11  1  0  0  0  0
  9 27  1  0  0  0  0
  7  8  1  0  0  0  0
  7  9  1  0  0  0  0
 31 32  1  0  0  0  0
 31 33  1  0  0  0  0
 31 34  1  0  0  0  0
 29 30  1  0  0  0  0
 29 31  1  0  0  0  0
M  CHG  1  23   1
M  END
$$$$
default_name
  -OEChem-02102213163D

 34 33  0     1  0  0  0  0  0999 V2000
   -3.8899   -3.6747    1.6490 H   0  0  0  0  0  0  0  0  0  0  0  0
   -3.9109   -2.6717    1.2250 C   0  0  0  0  0  0  0  0  0  0  0  0
   -4.6009   -2.0517    1.7950 H   0  0  0  0  0  0  0  0  0  0  0  0
   -4.2309   -2.7237    0.1860 H   0  0  0  0  0  0  0  0  0  0  0  0
   -2.5229   -2.0787    1.2980 C   0  0  0  0  0  0  0  0  0  0  0  0
   -1.5999   -2.7227    1.7810 O   0  0  0  0  0  0  0  0  0  0  0  0
   -2.3659   -0.8447    0.8120 N   0  0  0  0  0  0  0  0  0  0  0  0
   -3.1749   -0.3807    0.4220 H   0  0  0  0  0  0  0  0  0  0  0  0
   -1.0919   -0.1077    0.8170 C   0  0  1  0  0  0  0  0  0  0  0  0
   -0.3571   -0.6901    0.2581 H   0  0  0  0  0  0  0  0  0  0  0  0
   -1.3037    1.2411    0.1040 C   0  0  0  0  0  0  0  0  0  0  0  0
   -1.8501    1.9065    0.7742 H   0  0  0  0  0  0  0  0  0  0  0  0
   -0.3320    1.6925   -0.1057 H   0  0  0  0  0  0  0  0  0  0  0  0
   -2.0973    1.1168   -1.2057 C   0  0  0  0  0  0  0  0  0  0  0  0
   -1.9842    2.0298   -1.7918 H   0  0  0  0  0  0  0  0  0  0  0  0
   -1.7109    0.2735   -1.7814 H   0  0  0  0  0  0  0  0  0  0  0  0
   -3.5861    0.8901   -0.9092 C   0  0  0  0  0  0  0  0  0  0  0  0
   -3.6947   -0.0168   -0.3095 H   0  0  0  0  0  0  0  0  0  0  0  0
   -3.9697    1.7402   -0.3415 H   0  0  0  0  0  0  0  0  0  0  0  0
   -4.3758    0.7410   -2.2156 C   0  0  0  0  0  0  0  0  0  0  0  0
   -4.2481    1.6552   -2.8045 H   0  0  0  0  0  0  0  0  0  0  0  0
   -3.9487   -0.0884   -2.7874 H   0  0  0  0  0  0  0  0  0  0  0  0
   -5.8173    0.4965   -1.9573 N   0  3  0  0  0  0  0  0  0  0  0  0
   -6.2208    1.2658   -1.4374 H   0  0  0  0  0  0  0  0  0  0  0  0
   -6.3238    0.4003   -2.8286 H   0  0  0  0  0  0  0  0  0  0  0  0
   -5.9415   -0.3535   -1.4198 H   0  0  0  0  0  0  0  0  0  0  0  0
   -0.5865    0.0771    2.2496 C   0  0  0  0  0  0  0  0  0  0  0  0
    0.5860   -0.1608    2.5143 O   0  0  0  0  0  0  0  0  0  0  0  0
   -1.4786    0.4656    3.1667 N   0  0  0  0  0  0  0  0  0  0  0  0
   -2.4139    0.6698    2.8558 H   0  0  0  0  0  0  0  0  0  0  0  0
   -1.1587    0.6908    4.5775 C   0  0  0  0  0  0  0  0  0  0  0  0
   -0.4270    1.4968    4.6656 H   0  0  0  0  0  0  0  0  0  0  0  0
   -2.0565    0.9649    5.1327 H   0  0  0  0  0  0  0  0  0  0  0  0
   -0.7281   -0.2137    5.0125 H   0  0  0  0  0  0  0  0  0  0  0  0
  5  6  2  0  0  0  0
  5  7  1  0  0  0  0
  2  3  1  0  0  0  0
  2  4  1  0  0  0  0
  2  5  1  0  0  0  0
  1  2  1  0  0  0  0
 27 28  2  0  0  0  0
 27 29  1  0  0  0  0
 23 24  1  0  0  0  0
 23 25  1  0  0  0  0
 23 26  1  0  0  0  0
 20 21  1  0  0  0  0
 20 22  1  0  0  0  0
 20 23  1  0  0  0  0
 17 18  1  0  0  0  0
 17 19  1  0  0  0  0
 17 20  1  0  0  0  0
 14 15  1  0  0  0  0
 14 16  1  0  0  0  0
 14 17  1  0  0  0  0
 11 12  1  0  0  0  0
 11 13  1  0  0  0  0
 11 14  1  0  0  0  0
  9 10  1  0  0  0  0
  9 11  1  0  0  0  0
  9 27  1  0  0  0  0
  7  8  1  0  0  0  0
  7  9  1  0  0  0  0
 31 32  1  0  0  0  0
 31 33  1  0  0  0  0
 31 34  1  0  0  0  0
 29 30  1  0  0  0  0
 29 31  1  0  0  0  0
M  CHG  1  23   1
M  END
$$$$
default_name
  -OEChem-02102213163D

 34 33  0     1  0  0  0  0  0999 V2000
   -3.8899   -3.6747    1.6490 H   0  0  0  0  0  0  0  0  0  0  0  0
   -3.9109   -2.6717    1.2250 C   0  0  0  0  0  0  0  0  0  0  0  0
   -4.6009   -2.0517    1.7950 H   0  0  0  0  0  0  0  0  0  0  0  0
   -4.2309   -2.7237    0.1860 H   0  0  0  0  0  0  0  0  0  0  0  0
   -2.5229   -2.0787    1.2980 C   0  0  0  0  0  0  0  0  0  0  0  0
   -1.5999   -2.7227    1.7810 O   0  0  0  0  0  0  0  0  0  0  0  0
   -2.3659   -0.8447    0.8120 N   0  0  0  0  0  0  0  0  0  0  0  0
   -3.1749   -0.3807    0.4220 H   0  0  0  0  0  0  0  0  0  0  0  0
   -1.0919   -0.1077    0.8170 C   0  0  1  0  0  0  0  0  0  0  0  0
   -0.3571   -0.6901    0.2581 H   0  0  0  0  0  0  0  0  0  0  0  0
   -1.3037    1.2411    0.1040 C   0  0  0  0  0  0  0  0  0  0  0  0
   -1.8501    1.9065    0.7742 H   0  0  0  0  0  0  0  0  0  0  0  0
   -0.3320    1.6925   -0.1057 H   0  0  0  0  0  0  0  0  0  0  0  0
   -2.0973    1.1168   -1.2057 C   0  0  0  0  0  0  0  0  0  0  0  0
   -1.7808    1.8944   -1.9022 H   0  0  0  0  0  0  0  0  0  0  0  0
   -1.9044    0.1391   -1.6514 H   0  0  0  0  0  0  0  0  0  0  0  0
   -3.6010    1.2644   -0.9357 C   0  0  0  0  0  0  0  0  0  0  0  0
   -3.9118    0.4937   -0.2264 H   0  0  0  0  0  0  0  0  0  0  0  0
   -3.7896    2.2471   -0.4987 H   0  0  0  0  0  0  0  0  0  0  0  0
   -4.3963    1.1159   -2.2387 C   0  0  0  0  0  0  0  0  0  0  0  0
   -4.0653    1.8909   -2.9376 H   0  0  0  0  0  0  0  0  0  0  0  0
   -4.1606    0.1431   -2.6809 H   0  0  0  0  0  0  0  0  0  0  0  0
   -5.8577    1.2308   -2.0025 N   0  3  0  0  0  0  0  0  0  0  0  0
   -6.0833    2.1332   -1.6030 H   0  0  0  0  0  0  0  0  0  0  0  0
   -6.3677    1.1303   -2.8712 H   0  0  0  0  0  0  0  0  0  0  0  0
   -6.1707    0.5098   -1.3629 H   0  0  0  0  0  0  0  0  0  0  0  0
   -0.5865    0.0771    2.2496 C   0  0  0  0  0  0  0  0  0  0  0  0
    0.5860   -0.1608    2.5143 O   0  0  0  0  0  0  0  0  0  0  0  0
   -1.4786    0.4656    3.1667 N   0  0  0  0  0  0  0  0  0  0  0  0
   -2.4139    0.6698    2.8558 H   0  0  0  0  0  0  0  0  0  0  0  0
   -1.1587    0.6908    4.5775 C   0  0  0  0  0  0  0  0  0  0  0  0
   -0.4270    1.4968    4.6656 H   0  0  0  0  0  0  0  0  0  0  0  0
   -2.0565    0.9649    5.1327 H   0  0  0  0  0  0  0  0  0  0  0  0
   -0.7281   -0.2137    5.0125 H   0  0  0  0  0  0  0  0  0  0  0  0
  5  6  2  0  0  0  0
  5  7  1  0  0  0  0
  2  3  1  0  0  0  0
  2  4  1  0  0  0  0
  2  5  1  0  0  0  0
  1  2  1  0  0  0  0
 27 28  2  0  0  0  0
 27 29  1  0  0  0  0
 23 24  1  0  0  0  0
 23 25  1  0  0  0  0
 23 26  1  0  0  0  0
 20 21  1  0  0  0  0
 20 22  1  0  0  0  0
 20 23  1  0  0  0  0
 17 18  1  0  0  0  0
 17 19  1  0  0  0  0
 17 20  1  0  0  0  0
 14 15  1  0  0  0  0
 14 16  1  0  0  0  0
 14 17  1  0  0  0  0
 11 12  1  0  0  0  0
 11 13  1  0  0  0  0
 11 14  1  0  0  0  0
  9 10  1  0  0  0  0
  9 11  1  0  0  0  0
  9 27  1  0  0  0  0
  7  8  1  0  0  0  0
  7  9  1  0  0  0  0
 31 32  1  0  0  0  0
 31 33  1  0  0  0  0
 31 34  1  0  0  0  0
 29 30  1  0  0  0  0
 29 31  1  0  0  0  0
M  CHG  1  23   1
M  END
$$$$
default_name
  -OEChem-02102213163D

 34 33  0     1  0  0  0  0  0999 V2000
   -3.8899   -3.6747    1.6490 H   0  0  0  0  0  0  0  0  0  0  0  0
   -3.9109   -2.6717    1.2250 C   0  0  0  0  0  0  0  0  0  0  0  0
   -4.6009   -2.0517    1.7950 H   0  0  0  0  0  0  0  0  0  0  0  0
   -4.2309   -2.7237    0.1860 H   0  0  0  0  0  0  0  0  0  0  0  0
   -2.5229   -2.0787    1.2980 C   0  0  0  0  0  0  0  0  0  0  0  0
   -1.5999   -2.7227    1.7810 O   0  0  0  0  0  0  0  0  0  0  0  0
   -2.3659   -0.8447    0.8120 N   0  0  0  0  0  0  0  0  0  0  0  0
   -3.1749   -0.3807    0.4220 H   0  0  0  0  0  0  0  0  0  0  0  0
   -1.0919   -0.1077    0.8170 C   0  0  1  0  0  0  0  0  0  0  0  0
   -0.3571   -0.6901    0.2581 H   0  0  0  0  0  0  0  0  0  0  0  0
   -1.3037    1.2411    0.1040 C   0  0  0  0  0  0  0  0  0  0  0  0
   -1.8501    1.9065    0.7742 H   0  0  0  0  0  0  0  0  0  0  0  0
   -0.3320    1.6925   -0.1057 H   0  0  0  0  0  0  0  0  0  0  0  0
   -2.0973    1.1168   -1.2057 C   0  0  0  0  0  0  0  0  0  0  0  0
   -1.6119    1.7040   -1.9865 H   0  0  0  0  0  0  0  0  0  0  0  0
   -2.1237    0.0693   -1.5119 H   0  0  0  0  0  0  0  0  0  0  0  0
   -3.5323    1.6258   -1.0116 C   0  0  0  0  0  0  0  0  0  0  0  0
   -4.0107    1.0457   -0.2188 H   0  0  0  0  0  0  0  0  0  0  0  0
   -3.5005    2.6760   -0.7146 H   0  0  0  0  0  0  0  0  0  0  0  0
   -4.3330    1.4794   -2.3116 C   0  0  0  0  0  0  0  0  0  0  0  0
   -3.8340    2.0606   -3.0939 H   0  0  0  0  0  0  0  0  0  0  0  0
   -4.3166    0.4278   -2.6134 H   0  0  0  0  0  0  0  0  0  0  0  0
   -5.7337    1.9429   -2.1452 N   0  3  0  0  0  0  0  0  0  0  0  0
   -5.7557    2.9185   -1.8760 H   0  0  0  0  0  0  0  0  0  0  0  0
   -6.2481    1.8394   -3.0109 H   0  0  0  0  0  0  0  0  0  0  0  0
   -6.2028    1.4020   -1.4281 H   0  0  0  0  0  0  0  0  0  0  0  0
   -0.5865    0.0771    2.2496 C   0  0  0  0  0  0  0  0  0  0  0  0
    0.5860   -0.1608    2.5143 O   0  0  0  0  0  0  0  0  0  0  0  0
   -1.4786    0.4656    3.1667 N   0  0  0  0  0  0  0  0  0  0  0  0
   -2.4139    0.6698    2.8558 H   0  0  0  0  0  0  0  0  0  0  0  0
   -1.1587    0.6908    4.5775 C   0  0  0  0  0  0  0  0  0  0  0  0
   -0.4270    1.4968    4.6656 H   0  0  0  0  0  0  0  0  0  0  0  0
   -2.0565    0.9649    5.1327 H   0  0  0  0  0  0  0  0  0  0  0  0
   -0.7281   -0.2137    5.0125 H   0  0  0  0  0  0  0  0  0  0  0  0
  5  6  2  0  0  0  0
  5  7  1  0  0  0  0
  2  3  1  0  0  0  0
  2  4  1  0  0  0  0
  2  5  1  0  0  0  0
  1  2  1  0  0  0  0
 27 28  2  0  0  0  0
 27 29  1  0  0  0  0
 23 24  1  0  0  0  0
 23 25  1  0  0  0  0
 23 26  1  0  0  0  0
 20 21  1  0  0  0  0
 20 22  1  0  0  0  0
 20 23  1  0  0  0  0
 17 18  1  0  0  0  0
 17 19  1  0  0  0  0
 17 20  1  0  0  0  0
 14 15  1  0  0  0  0
 14 16  1  0  0  0  0
 14 17  1  0  0  0  0
 11 12  1  0  0  0  0
 11 13  1  0  0  0  0
 11 14  1  0  0  0  0
  9 10  1  0  0  0  0
  9 11  1  0  0  0  0
  9 27  1  0  0  0  0
  7  8  1  0  0  0  0
  7  9  1  0  0  0  0
 31 32  1  0  0  0  0
 31 33  1  0  0  0  0
 31 34  1  0  0  0  0
 29 30  1  0  0  0  0
 29 31  1  0  0  0  0
M  CHG  1  23   1
M  END
$$$$
default_name
  -OEChem-02102213163D

 34 33  0     1  0  0  0  0  0999 V2000
   -3.8899   -3.6747    1.6490 H   0  0  0  0  0  0  0  0  0  0  0  0
   -3.9109   -2.6717    1.2250 C   0  0  0  0  0  0  0  0  0  0  0  0
   -4.6009   -2.0517    1.7950 H   0  0  0  0  0  0  0  0  0  0  0  0
   -4.2309   -2.7237    0.1860 H   0  0  0  0  0  0  0  0  0  0  0  0
   -2.5229   -2.0787    1.2980 C   0  0  0  0  0  0  0  0  0  0  0  0
   -1.5999   -2.7227    1.7810 O   0  0  0  0  0  0  0  0  0  0  0  0
   -2.3659   -0.8447    0.8120 N   0  0  0  0  0  0  0  0  0  0  0  0
   -3.1749   -0.3807    0.4220 H   0  0  0  0  0  0  0  0  0  0  0  0
   -1.0919   -0.1077    0.8170 C   0  0  1  0  0  0  0  0  0  0  0  0
   -0.3571   -0.6901    0.2581 H   0  0  0  0  0  0  0  0  0  0  0  0
   -1.3037    1.2411    0.1040 C   0  0  0  0  0  0  0  0  0  0  0  0
   -1.8501    1.9065    0.7742 H   0  0  0  0  0  0  0  0  0  0  0  0
   -0.3320    1.6925   -0.1057 H   0  0  0  0  0  0  0  0  0  0  0  0
   -2.0973    1.1168   -1.2057 C   0  0  0  0  0  0  0  0  0  0  0  0
   -1.4890    1.4715   -2.0389 H   0  0  0  0  0  0  0  0  0  0  0  0
   -2.3539    0.0689   -1.3725 H   0  0  0  0  0  0  0  0  0  0  0  0
   -3.3846    1.9496   -1.1318 C   0  0  0  0  0  0  0  0  0  0  0  0
   -3.9845    1.6018   -0.2874 H   0  0  0  0  0  0  0  0  0  0  0  0
   -3.1221    2.9976   -0.9743 H   0  0  0  0  0  0  0  0  0  0  0  0
   -4.1901    1.8068   -2.4293 C   0  0  0  0  0  0  0  0  0  0  0  0
   -3.5698    2.1525   -3.2626 H   0  0  0  0  0  0  0  0  0  0  0  0
   -4.4058    0.7461   -2.5896 H   0  0  0  0  0  0  0  0  0  0  0  0
   -5.4538    2.5843   -2.3755 N   0  3  0  0  0  0  0  0  0  0  0  0
   -5.2602    3.5683   -2.2378 H   0  0  0  0  0  0  0  0  0  0  0  0
   -5.9733    2.4793   -3.2382 H   0  0  0  0  0  0  0  0  0  0  0  0
   -6.0356    2.2620   -1.6109 H   0  0  0  0  0  0  0  0  0  0  0  0
   -0.5865    0.0771    2.2496 C   0  0  0  0  0  0  0  0  0  0  0  0
    0.5860   -0.1608    2.5143 O   0  0  0  0  0  0  0  0  0  0  0  0
   -1.4786    0.4656    3.1667 N   0  0  0  0  0  0  0  0  0  0  0  0
   -2.4139    0.6698    2.8558 H   0  0  0  0  0  0  0  0  0  0  0  0
   -1.1587    0.6908    4.5775 C   0  0  0  0  0  0  0  0  0  0  0  0
   -0.4270    1.4968    4.6656 H   0  0  0  0  0  0  0  0  0  0  0  0
   -2.0565    0.9649    5.1327 H   0  0  0  0  0  0  0  0  0  0  0  0
   -0.7281   -0.2137    5.0125 H   0  0  0  0  0  0  0  0  0  0  0  0
  5  6  2  0  0  0  0
  5  7  1  0  0  0  0
  2  3  1  0  0  0  0
  2  4  1  0  0  0  0
  2  5  1  0  0  0  0
  1  2  1  0  0  0  0
 27 28  2  0  0  0  0
 27 29  1  0  0  0  0
 23 24  1  0  0  0  0
 23 25  1  0  0  0  0
 23 26  1  0  0  0  0
 20 21  1  0  0  0  0
 20 22  1  0  0  0  0
 20 23  1  0  0  0  0
 17 18  1  0  0  0  0
 17 19  1  0  0  0  0
 17 20  1  0  0  0  0
 14 15  1  0  0  0  0
 14 16  1  0  0  0  0
 14 17  1  0  0  0  0
 11 12  1  0  0  0  0
 11 13  1  0  0  0  0
 11 14  1  0  0  0  0
  9 10  1  0  0  0  0
  9 11  1  0  0  0  0
  9 27  1  0  0  0  0
  7  8  1  0  0  0  0
  7  9  1  0  0  0  0
 31 32  1  0  0  0  0
 31 33  1  0  0  0  0
 31 34  1  0  0  0  0
 29 30  1  0  0  0  0
 29 31  1  0  0  0  0
M  CHG  1  23   1
M  END
$$$$
default_name
  -OEChem-02102213163D

 34 33  0     1  0  0  0  0  0999 V2000
   -3.8899   -3.6747    1.6490 H   0  0  0  0  0  0  0  0  0  0  0  0
   -3.9109   -2.6717    1.2250 C   0  0  0  0  0  0  0  0  0  0  0  0
   -4.6009   -2.0517    1.7950 H   0  0  0  0  0  0  0  0  0  0  0  0
   -4.2309   -2.7237    0.1860 H   0  0  0  0  0  0  0  0  0  0  0  0
   -2.5229   -2.0787    1.2980 C   0  0  0  0  0  0  0  0  0  0  0  0
   -1.5999   -2.7227    1.7810 O   0  0  0  0  0  0  0  0  0  0  0  0
   -2.3659   -0.8447    0.8120 N   0  0  0  0  0  0  0  0  0  0  0  0
   -3.1749   -0.3807    0.4220 H   0  0  0  0  0  0  0  0  0  0  0  0
   -1.0919   -0.1077    0.8170 C   0  0  1  0  0  0  0  0  0  0  0  0
   -0.3571   -0.6901    0.2581 H   0  0  0  0  0  0  0  0  0  0  0  0
   -1.3037    1.2411    0.1040 C   0  0  0  0  0  0  0  0  0  0  0  0
   -1.8501    1.9065    0.7742 H   0  0  0  0  0  0  0  0  0  0  0  0
   -0.3320    1.6925   -0.1057 H   0  0  0  0  0  0  0  0  0  0  0  0
   -2.0973    1.1168   -1.2057 C   0  0  0  0  0  0  0  0  0  0  0  0
   -1.4205    1.2128   -2.0558 H   0  0  0  0  0  0  0  0  0  0  0  0
   -2.5792    0.1379   -1.2425 H   0  0  0  0  0  0  0  0  0  0  0  0
   -3.1679    2.2136   -1.2881 C   0  0  0  0  0  0  0  0  0  0  0  0
   -3.8351    2.1240   -0.4275 H   0  0  0  0  0  0  0  0  0  0  0  0
   -2.6803    3.1901   -1.2603 H   0  0  0  0  0  0  0  0  0  0  0  0
   -3.9773    2.0757   -2.5837 C   0  0  0  0  0  0  0  0  0  0  0  0
   -3.2909    2.1605   -3.4324 H   0  0  0  0  0  0  0  0  0  0  0  0
   -4.4222    1.0765   -2.6109 H   0  0  0  0  0  0  0  0  0  0  0  0
   -5.0372    3.1113   -2.6780 N   0  3  0  0  0  0  0  0  0  0  0  0
   -4.6307    4.0383   -2.6638 H   0  0  0  0  0  0  0  0  0  0  0  0
   -5.5619    3.0064   -3.5374 H   0  0  0  0  0  0  0  0  0  0  0  0
   -5.6805    3.0315   -1.8991 H   0  0  0  0  0  0  0  0  0  0  0  0
   -0.5865    0.0771    2.2496 C   0  0  0  0  0  0  0  0  0  0  0  0
    0.5860   -0.1608    2.5143 O   0  0  0  0  0  0  0  0  0  0  0  0
   -1.4786    0.4656    3.1667 N   0  0  0  0  0  0  0  0  0  0  0  0
   -2.4139    0.6698    2.8558 H   0  0  0  0  0  0  0  0  0  0  0  0
   -1.1587    0.6908    4.5775 C   0  0  0  0  0  0  0  0  0  0  0  0
   -0.4270    1.4968    4.6656 H   0  0  0  0  0  0  0  0  0  0  0  0
   -2.0565    0.9649    5.1327 H   0  0  0  0  0  0  0  0  0  0  0  0
   -0.7281   -0.2137    5.0125 H   0  0  0  0  0  0  0  0  0  0  0  0
  5  6  2  0  0  0  0
  5  7  1  0  0  0  0
  2  3  1  0  0  0  0
  2  4  1  0  0  0  0
  2  5  1  0  0  0  0
  1  2  1  0  0  0  0
 27 28  2  0  0  0  0
 27 29  1  0  0  0  0
 23 24  1  0  0  0  0
 23 25  1  0  0  0  0
 23 26  1  0  0  0  0
 20 21  1  0  0  0  0
 20 22  1  0  0  0  0
 20 23  1  0  0  0  0
 17 18  1  0  0  0  0
 17 19  1  0  0  0  0
 17 20  1  0  0  0  0
 14 15  1  0  0  0  0
 14 16  1  0  0  0  0
 14 17  1  0  0  0  0
 11 12  1  0  0  0  0
 11 13  1  0  0  0  0
 11 14  1  0  0  0  0
  9 10  1  0  0  0  0
  9 11  1  0  0  0  0
  9 27  1  0  0  0  0
  7  8  1  0  0  0  0
  7  9  1  0  0  0  0
 31 32  1  0  0  0  0
 31 33  1  0  0  0  0
 31 34  1  0  0  0  0
 29 30  1  0  0  0  0
 29 31  1  0  0  0  0
M  CHG  1  23   1
M  END
$$$$
default_name
  -OEChem-02102213163D

 34 33  0     1  0  0  0  0  0999 V2000
   -3.8899   -3.6747    1.6490 H   0  0  0  0  0  0  0  0  0  0  0  0
   -3.9109   -2.6717    1.2250 C   0  0  0  0  0  0  0  0  0  0  0  0
   -4.6009   -2.0517    1.7950 H   0  0  0  0  0  0  0  0  0  0  0  0
   -4.2309   -2.7237    0.1860 H   0  0  0  0  0  0  0  0  0  0  0  0
   -2.5229   -2.0787    1.2980 C   0  0  0  0  0  0  0  0  0  0  0  0
   -1.5999   -2.7227    1.7810 O   0  0  0  0  0  0  0  0  0  0  0  0
   -2.3659   -0.8447    0.8120 N   0  0  0  0  0  0  0  0  0  0  0  0
   -3.1749   -0.3807    0.4220 H   0  0  0  0  0  0  0  0  0  0  0  0
   -1.0919   -0.1077    0.8170 C   0  0  1  0  0  0  0  0  0  0  0  0
   -0.3571   -0.6901    0.2581 H   0  0  0  0  0  0  0  0  0  0  0  0
   -1.3037    1.2411    0.1040 C   0  0  0  0  0  0  0  0  0  0  0  0
   -1.8501    1.9065    0.7742 H   0  0  0  0  0  0  0  0  0  0  0  0
   -0.3320    1.6925   -0.1057 H   0  0  0  0  0  0  0  0  0  0  0  0
   -2.0973    1.1168   -1.2057 C   0  0  0  0  0  0  0  0  0  0  0  0
   -1.4111    0.9456   -2.0362 H   0  0  0  0  0  0  0  0  0  0  0  0
   -2.7843    0.2717   -1.1309 H   0  0  0  0  0  0  0  0  0  0  0  0
   -2.8971    2.4000   -1.4699 C   0  0  0  0  0  0  0  0  0  0  0  0
   -3.5726    2.5768   -0.6295 H   0  0  0  0  0  0  0  0  0  0  0  0
   -2.2050    3.2403   -1.5530 H   0  0  0  0  0  0  0  0  0  0  0  0
   -3.7093    2.2680   -2.7643 C   0  0  0  0  0  0  0  0  0  0  0  0
   -3.0161    2.0839   -3.5916 H   0  0  0  0  0  0  0  0  0  0  0  0
   -4.3648    1.3964   -2.6761 H   0  0  0  0  0  0  0  0  0  0  0  0
   -4.5121    3.4879   -3.0318 N   0  3  0  0  0  0  0  0  0  0  0  0
   -3.9100    4.2964   -3.1249 H   0  0  0  0  0  0  0  0  0  0  0  0
   -5.0419    3.3847   -3.8884 H   0  0  0  0  0  0  0  0  0  0  0  0
   -5.1617    3.6578   -2.2728 H   0  0  0  0  0  0  0  0  0  0  0  0
   -0.5865    0.0771    2.2496 C   0  0  0  0  0  0  0  0  0  0  0  0
    0.5860   -0.1608    2.5143 O   0  0  0  0  0  0  0  0  0  0  0  0
   -1.4786    0.4656    3.1667 N   0  0  0  0  0  0  0  0  0  0  0  0
   -2.4139    0.6698    2.8558 H   0  0  0  0  0  0  0  0  0  0  0  0
   -1.1587    0.6908    4.5775 C   0  0  0  0  0  0  0  0  0  0  0  0
   -0.4270    1.4968    4.6656 H   0  0  0  0  0  0  0  0  0  0  0  0
   -2.0565    0.9649    5.1327 H   0  0  0  0  0  0  0  0  0  0  0  0
   -0.7281   -0.2137    5.0125 H   0  0  0  0  0  0  0  0  0  0  0  0
  5  6  2  0  0  0  0
  5  7  1  0  0  0  0
  2  3  1  0  0  0  0
  2  4  1  0  0  0  0
  2  5  1  0  0  0  0
  1  2  1  0  0  0  0
 27 28  2  0  0  0  0
 27 29  1  0  0  0  0
 23 24  1  0  0  0  0
 23 25  1  0  0  0  0
 23 26  1  0  0  0  0
 20 21  1  0  0  0  0
 20 22  1  0  0  0  0
 20 23  1  0  0  0  0
 17 18  1  0  0  0  0
 17 19  1  0  0  0  0
 17 20  1  0  0  0  0
 14 15  1  0  0  0  0
 14 16  1  0  0  0  0
 14 17  1  0  0  0  0
 11 12  1  0  0  0  0
 11 13  1  0  0  0  0
 11 14  1  0  0  0  0
  9 10  1  0  0  0  0
  9 11  1  0  0  0  0
  9 27  1  0  0  0  0
  7  8  1  0  0  0  0
  7  9  1  0  0  0  0
 31 32  1  0  0  0  0
 31 33  1  0  0  0  0
 31 34  1  0  0  0  0
 29 30  1  0  0  0  0
 29 31  1  0  0  0  0
M  CHG  1  23   1
M  END
$$$$
default_name
  -OEChem-02102213163D

 34 33  0     1  0  0  0  0  0999 V2000
   -3.8899   -3.6747    1.6490 H   0  0  0  0  0  0  0  0  0  0  0  0
   -3.9109   -2.6717    1.2250 C   0  0  0  0  0  0  0  0  0  0  0  0
   -4.6009   -2.0517    1.7950 H   0  0  0  0  0  0  0  0  0  0  0  0
   -4.2309   -2.7237    0.1860 H   0  0  0  0  0  0  0  0  0  0  0  0
   -2.5229   -2.0787    1.2980 C   0  0  0  0  0  0  0  0  0  0  0  0
   -1.5999   -2.7227    1.7810 O   0  0  0  0  0  0  0  0  0  0  0  0
   -2.3659   -0.8447    0.8120 N   0  0  0  0  0  0  0  0  0  0  0  0
   -3.1749   -0.3807    0.4220 H   0  0  0  0  0  0  0  0  0  0  0  0
   -1.0919   -0.1077    0.8170 C   0  0  1  0  0  0  0  0  0  0  0  0
   -0.3571   -0.6901    0.2581 H   0  0  0  0  0  0  0  0  0  0  0  0
   -1.3037    1.2411    0.1040 C   0  0  0  0  0  0  0  0  0  0  0  0
   -1.8501    1.9065    0.7742 H   0  0  0  0  0  0  0  0  0  0  0  0
   -0.3320    1.6925   -0.1057 H   0  0  0  0  0  0  0  0  0  0  0  0
   -2.0973    1.1168   -1.2057 C   0  0  0  0  0  0  0  0  0  0  0  0
   -1.4613    0.6880   -1.9813 H   0  0  0  0  0  0  0  0  0  0  0  0
   -2.9553    0.4611   -1.0453 H   0  0  0  0  0  0  0  0  0  0  0  0
   -2.5906    2.4960   -1.6647 C   0  0  0  0  0  0  0  0  0  0  0  0
   -3.2150    2.9291   -0.8796 H   0  0  0  0  0  0  0  0  0  0  0  0
   -1.7287    3.1448   -1.8325 H   0  0  0  0  0  0  0  0  0  0  0  0
   -3.4041    2.3704   -2.9589 C   0  0  0  0  0  0  0  0  0  0  0  0
   -2.7643    1.9280   -3.7294 H   0  0  0  0  0  0  0  0  0  0  0  0
   -4.2373    1.6839   -2.7806 H   0  0  0  0  0  0  0  0  0  0  0  0
   -3.9145    3.6886   -3.4130 N   0  3  0  0  0  0  0  0  0  0  0  0
   -3.1473    4.3251   -3.5898 H   0  0  0  0  0  0  0  0  0  0  0  0
   -4.4488    3.5885   -4.2670 H   0  0  0  0  0  0  0  0  0  0  0  0
   -4.5146    4.0984   -2.7067 H   0  0  0  0  0  0  0  0  0  0  0  0
   -0.5865    0.0771    2.2496 C   0  0  0  0  0  0  0  0  0  0  0  0
    0.5860   -0.1608    2.5143 O   0  0  0  0  0  0  0  0  0  0  0  0
   -1.4786    0.4656    3.1667 N   0  0  0  0  0  0  0  0  0  0  0  0
   -2.4139    0.6698    2.8558 H   0  0  0  0  0  0  0  0  0  0  0  0
   -1.1587    0.6908    4.5775 C   0  0  0  0  0  0  0  0  0  0  0  0
   -0.4270    1.4968    4.6656 H   0  0  0  0  0  0  0  0  0  0  0  0
   -2.0565    0.9649    5.1327 H   0  0  0  0  0  0  0  0  0  0  0  0
   -0.7281   -0.2137    5.0125 H   0  0  0  0  0  0  0  0  0  0  0  0
  5  6  2  0  0  0  0
  5  7  1  0  0  0  0
  2  3  1  0  0  0  0
  2  4  1  0  0  0  0
  2  5  1  0  0  0  0
  1  2  1  0  0  0  0
 27 28  2  0  0  0  0
 27 29  1  0  0  0  0
 23 24  1  0  0  0  0
 23 25  1  0  0  0  0
 23 26  1  0  0  0  0
 20 21  1  0  0  0  0
 20 22  1  0  0  0  0
 20 23  1  0  0  0  0
 17 18  1  0  0  0  0
 17 19  1  0  0  0  0
 17 20  1  0  0  0  0
 14 15  1  0  0  0  0
 14 16  1  0  0  0  0
 14 17  1  0  0  0  0
 11 12  1  0  0  0  0
 11 13  1  0  0  0  0
 11 14  1  0  0  0  0
  9 10  1  0  0  0  0
  9 11  1  0  0  0  0
  9 27  1  0  0  0  0
  7  8  1  0  0  0  0
  7  9  1  0  0  0  0
 31 32  1  0  0  0  0
 31 33  1  0  0  0  0
 31 34  1  0  0  0  0
 29 30  1  0  0  0  0
 29 31  1  0  0  0  0
M  CHG  1  23   1
M  END
$$$$
default_name
  -OEChem-02102213163D

 34 33  0     1  0  0  0  0  0999 V2000
   -3.8899   -3.6747    1.6490 H   0  0  0  0  0  0  0  0  0  0  0  0
   -3.9109   -2.6717    1.2250 C   0  0  0  0  0  0  0  0  0  0  0  0
   -4.6009   -2.0517    1.7950 H   0  0  0  0  0  0  0  0  0  0  0  0
   -4.2309   -2.7237    0.1860 H   0  0  0  0  0  0  0  0  0  0  0  0
   -2.5229   -2.0787    1.2980 C   0  0  0  0  0  0  0  0  0  0  0  0
   -1.5999   -2.7227    1.7810 O   0  0  0  0  0  0  0  0  0  0  0  0
   -2.3659   -0.8447    0.8120 N   0  0  0  0  0  0  0  0  0  0  0  0
   -3.1749   -0.3807    0.4220 H   0  0  0  0  0  0  0  0  0  0  0  0
   -1.0919   -0.1077    0.8170 C   0  0  1  0  0  0  0  0  0  0  0  0
   -0.3571   -0.6901    0.2581 H   0  0  0  0  0  0  0  0  0  0  0  0
   -1.3037    1.2411    0.1040 C   0  0  0  0  0  0  0  0  0  0  0  0
   -1.6015    1.9835    0.8461 H   0  0  0  0  0  0  0  0  0  0  0  0
   -0.3603    1.5639   -0.3405 H   0  0  0  0  0  0  0  0  0  0  0  0
   -2.3848    1.1876   -0.9864 C   0  0  0  0  0  0  0  0  0  0  0  0
   -2.1070    0.4530   -1.7434 H   0  0  0  0  0  0  0  0  0  0  0  0
   -3.3350    0.8938   -0.5363 H   0  0  0  0  0  0  0  0  0  0  0  0
   -2.5412    2.5619   -1.6519 C   0  0  0  0  0  0  0  0  0  0  0  0
   -2.8047    3.2981   -0.8887 H   0  0  0  0  0  0  0  0  0  0  0  0
   -1.5911    2.8468   -2.1082 H   0  0  0  0  0  0  0  0  0  0  0  0
   -3.6374    2.5164   -2.7237 C   0  0  0  0  0  0  0  0  0  0  0  0
   -3.3589    1.7688   -3.4734 H   0  0  0  0  0  0  0  0  0  0  0  0
   -4.5696    2.1886   -2.2538 H   0  0  0  0  0  0  0  0  0  0  0  0
   -3.8264    3.8407   -3.3678 N   0  3  0  0  0  0  0  0  0  0  0  0
   -2.9698    4.1447   -3.8135 H   0  0  0  0  0  0  0  0  0  0  0  0
   -4.5527    3.7938   -4.0716 H   0  0  0  0  0  0  0  0  0  0  0  0
   -4.0931    4.5346   -2.6792 H   0  0  0  0  0  0  0  0  0  0  0  0
   -0.5865    0.0771    2.2496 C   0  0  0  0  0  0  0  0  0  0  0  0
    0.5860   -0.1608    2.5143 O   0  0  0  0  0  0  0  0  0  0  0  0
   -1.4786    0.4656    3.1667 N   0  0  0  0  0  0  0  0  0  0  0  0
   -2.4139    0.6698    2.8558 H   0  0  0  0  0  0  0  0  0  0  0  0
   -1.1587    0.6908    4.5775 C   0  0  0  0  0  0  0  0  0  0  0  0
   -0.4270    1.4968    4.6656 H   0  0  0  0  0  0  0  0  0  0  0  0
   -2.0565    0.9649    5.1327 H   0  0  0  0  0  0  0  0  0  0  0  0
   -0.7281   -0.2137    5.0125 H   0  0  0  0  0  0  0  0  0  0  0  0
  5  6  2  0  0  0  0
  5  7  1  0  0  0  0
  2  3  1  0  0  0  0
  2  4  1  0  0  0  0
  2  5  1  0  0  0  0
  1  2  1  0  0  0  0
 27 28  2  0  0  0  0
 27 29  1  0  0  0  0
 23 24  1  0  0  0  0
 23 25  1  0  0  0  0
 23 26  1  0  0  0  0
 20 21  1  0  0  0  0
 20 22  1  0  0  0  0
 20 23  1  0  0  0  0
 17 18  1  0  0  0  0
 17 19  1  0  0  0  0
 17 20  1  0  0  0  0
 14 15  1  0  0  0  0
 14 16  1  0  0  0  0
 14 17  1  0  0  0  0
 11 12  1  0  0  0  0
 11 13  1  0  0  0  0
 11 14  1  0  0  0  0
  9 10  1  0  0  0  0
  9 11  1  0  0  0  0
  9 27  1  0  0  0  0
  7  8  1  0  0  0  0
  7  9  1  0  0  0  0
 31 32  1  0  0  0  0
 31 33  1  0  0  0  0
 31 34  1  0  0  0  0
 29 30  1  0  0  0  0
 29 31  1  0  0  0  0
M  CHG  1  23   1
M  END
$$$$
default_name
  -OEChem-02102213163D

 34 33  0     1  0  0  0  0  0999 V2000
   -3.8899   -3.6747    1.6490 H   0  0  0  0  0  0  0  0  0  0  0  0
   -3.9109   -2.6717    1.2250 C   0  0  0  0  0  0  0  0  0  0  0  0
   -4.6009   -2.0517    1.7950 H   0  0  0  0  0  0  0  0  0  0  0  0
   -4.2309   -2.7237    0.1860 H   0  0  0  0  0  0  0  0  0  0  0  0
   -2.5229   -2.0787    1.2980 C   0  0  0  0  0  0  0  0  0  0  0  0
   -1.5999   -2.7227    1.7810 O   0  0  0  0  0  0  0  0  0  0  0  0
   -2.3659   -0.8447    0.8120 N   0  0  0  0  0  0  0  0  0  0  0  0
   -3.1749   -0.3807    0.4220 H   0  0  0  0  0  0  0  0  0  0  0  0
   -1.0919   -0.1077    0.8170 C   0  0  1  0  0  0  0  0  0  0  0  0
   -0.3571   -0.6901    0.2581 H   0  0  0  0  0  0  0  0  0  0  0  0
   -1.3037    1.2411    0.1040 C   0  0  0  0  0  0  0  0  0  0  0  0
   -1.6015    1.9835    0.8461 H   0  0  0  0  0  0  0  0  0  0  0  0
   -0.3603    1.5639   -0.3405 H   0  0  0  0  0  0  0  0  0  0  0  0
   -2.3848    1.1876   -0.9864 C   0  0  0  0  0  0  0  0  0  0  0  0
   -2.2534    0.2887   -1.5902 H   0  0  0  0  0  0  0  0  0  0  0  0
   -3.3693    1.1599   -0.5154 H   0  0  0  0  0  0  0  0  0  0  0  0
   -2.2903    2.4220   -1.8938 C   0  0  0  0  0  0  0  0  0  0  0  0
   -2.4073    3.3210   -1.2839 H   0  0  0  0  0  0  0  0  0  0  0  0
   -1.3076    2.4400   -2.3693 H   0  0  0  0  0  0  0  0  0  0  0  0
   -3.3846    2.3824   -2.9677 C   0  0  0  0  0  0  0  0  0  0  0  0
   -3.2548    1.4721   -3.5621 H   0  0  0  0  0  0  0  0  0  0  0  0
   -4.3575    2.3222   -2.4706 H   0  0  0  0  0  0  0  0  0  0  0  0
   -3.3311    3.5783   -3.8460 N   0  3  0  0  0  0  0  0  0  0  0  0
   -2.4368    3.6338   -4.3170 H   0  0  0  0  0  0  0  0  0  0  0  0
   -4.0592    3.5371   -4.5483 H   0  0  0  0  0  0  0  0  0  0  0  0
   -3.4596    4.4234   -3.3017 H   0  0  0  0  0  0  0  0  0  0  0  0
   -0.5865    0.0771    2.2496 C   0  0  0  0  0  0  0  0  0  0  0  0
    0.5860   -0.1608    2.5143 O   0  0  0  0  0  0  0  0  0  0  0  0
   -1.4786    0.4656    3.1667 N   0  0  0  0  0  0  0  0  0  0  0  0
   -2.4139    0.6698    2.8558 H   0  0  0  0  0  0  0  0  0  0  0  0
   -1.1587    0.6908    4.5775 C   0  0  0  0  0  0  0  0  0  0  0  0
   -0.4270    1.4968    4.6656 H   0  0  0  0  0  0  0  0  0  0  0  0
   -2.0565    0.9649    5.1327 H   0  0  0  0  0  0  0  0  0  0  0  0
   -0.7281   -0.2137    5.0125 H   0  0  0  0  0  0  0  0  0  0  0  0
  5  6  2  0  0  0  0
  5  7  1  0  0  0  0
  2  3  1  0  0  0  0
  2  4  1  0  0  0  0
  2  5  1  0  0  0  0
  1  2  1  0  0  0  0
 27 28  2  0  0  0  0
 27 29  1  0  0  0  0
 23 24  1  0  0  0  0
 23 25  1  0  0  0  0
 23 26  1  0  0  0  0
 20 21  1  0  0  0  0
 20 22  1  0  0  0  0
 20 23  1  0  0  0  0
 17 18  1  0  0  0  0
 17 19  1  0  0  0  0
 17 20  1  0  0  0  0
 14 15  1  0  0  0  0
 14 16  1  0  0  0  0
 14 17  1  0  0  0  0
 11 12  1  0  0  0  0
 11 13  1  0  0  0  0
 11 14  1  0  0  0  0
  9 10  1  0  0  0  0
  9 11  1  0  0  0  0
  9 27  1  0  0  0  0
  7  8  1  0  0  0  0
  7  9  1  0  0  0  0
 31 32  1  0  0  0  0
 31 33  1  0  0  0  0
 31 34  1  0  0  0  0
 29 30  1  0  0  0  0
 29 31  1  0  0  0  0
M  CHG  1  23   1
M  END
$$$$
default_name
  -OEChem-02102213163D

 34 33  0     1  0  0  0  0  0999 V2000
   -3.8899   -3.6747    1.6490 H   0  0  0  0  0  0  0  0  0  0  0  0
   -3.9109   -2.6717    1.2250 C   0  0  0  0  0  0  0  0  0  0  0  0
   -4.6009   -2.0517    1.7950 H   0  0  0  0  0  0  0  0  0  0  0  0
   -4.2309   -2.7237    0.1860 H   0  0  0  0  0  0  0  0  0  0  0  0
   -2.5229   -2.0787    1.2980 C   0  0  0  0  0  0  0  0  0  0  0  0
   -1.5999   -2.7227    1.7810 O   0  0  0  0  0  0  0  0  0  0  0  0
   -2.3659   -0.8447    0.8120 N   0  0  0  0  0  0  0  0  0  0  0  0
   -3.1749   -0.3807    0.4220 H   0  0  0  0  0  0  0  0  0  0  0  0
   -1.0919   -0.1077    0.8170 C   0  0  1  0  0  0  0  0  0  0  0  0
   -0.3571   -0.6901    0.2581 H   0  0  0  0  0  0  0  0  0  0  0  0
   -1.3037    1.2411    0.1040 C   0  0  0  0  0  0  0  0  0  0  0  0
   -1.6015    1.9835    0.8461 H   0  0  0  0  0  0  0  0  0  0  0  0
   -0.3603    1.5639   -0.3405 H   0  0  0  0  0  0  0  0  0  0  0  0
   -2.3848    1.1876   -0.9864 C   0  0  0  0  0  0  0  0  0  0  0  0
   -2.4264    0.1848   -1.4137 H   0  0  0  0  0  0  0  0  0  0  0  0
   -3.3537    1.4271   -0.5439 H   0  0  0  0  0  0  0  0  0  0  0  0
   -2.0714    2.1967   -2.0998 C   0  0  0  0  0  0  0  0  0  0  0  0
   -2.0156    3.1980   -1.6661 H   0  0  0  0  0  0  0  0  0  0  0  0
   -1.1061    1.9474   -2.5449 H   0  0  0  0  0  0  0  0  0  0  0  0
   -3.1628    2.1620   -3.1768 C   0  0  0  0  0  0  0  0  0  0  0  0
   -3.2080    1.1502   -3.5927 H   0  0  0  0  0  0  0  0  0  0  0  0
   -4.1261    2.3727   -2.7025 H   0  0  0  0  0  0  0  0  0  0  0  0
   -2.8966    3.1468   -4.2556 N   0  3  0  0  0  0  0  0  0  0  0  0
   -2.0112    2.9507   -4.7054 H   0  0  0  0  0  0  0  0  0  0  0  0
   -3.6254    3.1116   -4.9575 H   0  0  0  0  0  0  0  0  0  0  0  0
   -2.8626    4.0862   -3.8771 H   0  0  0  0  0  0  0  0  0  0  0  0
   -0.5865    0.0771    2.2496 C   0  0  0  0  0  0  0  0  0  0  0  0
    0.5860   -0.1608    2.5143 O   0  0  0  0  0  0  0  0  0  0  0  0
   -1.4786    0.4656    3.1667 N   0  0  0  0  0  0  0  0  0  0  0  0
   -2.4139    0.6698    2.8558 H   0  0  0  0  0  0  0  0  0  0  0  0
   -1.1587    0.6908    4.5775 C   0  0  0  0  0  0  0  0  0  0  0  0
   -0.4270    1.4968    4.6656 H   0  0  0  0  0  0  0  0  0  0  0  0
   -2.0565    0.9649    5.1327 H   0  0  0  0  0  0  0  0  0  0  0  0
   -0.7281   -0.2137    5.0125 H   0  0  0  0  0  0  0  0  0  0  0  0
  5  6  2  0  0  0  0
  5  7  1  0  0  0  0
  2  3  1  0  0  0  0
  2  4  1  0  0  0  0
  2  5  1  0  0  0  0
  1  2  1  0  0  0  0
 27 28  2  0  0  0  0
 27 29  1  0  0  0  0
 23 24  1  0  0  0  0
 23 25  1  0  0  0  0
 23 26  1  0  0  0  0
 20 21  1  0  0  0  0
 20 22  1  0  0  0  0
 20 23  1  0  0  0  0
 17 18  1  0  0  0  0
 17 19  1  0  0  0  0
 17 20  1  0  0  0  0
 14 15  1  0  0  0  0
 14 16  1  0  0  0  0
 14 17  1  0  0  0  0
 11 12  1  0  0  0  0
 11 13  1  0  0  0  0
 11 14  1  0  0  0  0
  9 10  1  0  0  0  0
  9 11  1  0  0  0  0
  9 27  1  0  0  0  0
  7  8  1  0  0  0  0
  7  9  1  0  0  0  0
 31 32  1  0  0  0  0
 31 33  1  0  0  0  0
 31 34  1  0  0  0  0
 29 30  1  0  0  0  0
 29 31  1  0  0  0  0
M  CHG  1  23   1
M  END
$$$$
default_name
  -OEChem-02102213163D

 34 33  0     1  0  0  0  0  0999 V2000
   -3.8899   -3.6747    1.6490 H   0  0  0  0  0  0  0  0  0  0  0  0
   -3.9109   -2.6717    1.2250 C   0  0  0  0  0  0  0  0  0  0  0  0
   -4.6009   -2.0517    1.7950 H   0  0  0  0  0  0  0  0  0  0  0  0
   -4.2309   -2.7237    0.1860 H   0  0  0  0  0  0  0  0  0  0  0  0
   -2.5229   -2.0787    1.2980 C   0  0  0  0  0  0  0  0  0  0  0  0
   -1.5999   -2.7227    1.7810 O   0  0  0  0  0  0  0  0  0  0  0  0
   -2.3659   -0.8447    0.8120 N   0  0  0  0  0  0  0  0  0  0  0  0
   -3.1749   -0.3807    0.4220 H   0  0  0  0  0  0  0  0  0  0  0  0
   -1.0919   -0.1077    0.8170 C   0  0  1  0  0  0  0  0  0  0  0  0
   -0.3571   -0.6901    0.2581 H   0  0  0  0  0  0  0  0  0  0  0  0
   -1.3037    1.2411    0.1040 C   0  0  0  0  0  0  0  0  0  0  0  0
   -1.6015    1.9835    0.8461 H   0  0  0  0  0  0  0  0  0  0  0  0
   -0.3603    1.5639   -0.3405 H   0  0  0  0  0  0  0  0  0  0  0  0
   -2.3848    1.1876   -0.9864 C   0  0  0  0  0  0  0  0  0  0  0  0
   -2.6141    0.1484   -1.2257 H   0  0  0  0  0  0  0  0  0  0  0  0
   -3.2893    1.6770   -0.6200 H   0  0  0  0  0  0  0  0  0  0  0  0
   -1.8995    1.9013   -2.2557 C   0  0  0  0  0  0  0  0  0  0  0  0
   -1.6564    2.9378   -2.0095 H   0  0  0  0  0  0  0  0  0  0  0  0
   -1.0004    1.4025   -2.6230 H   0  0  0  0  0  0  0  0  0  0  0  0
   -2.9872    1.8704   -3.3367 C   0  0  0  0  0  0  0  0  0  0  0  0
   -3.2216    0.8252   -3.5633 H   0  0  0  0  0  0  0  0  0  0  0  0
   -3.8912    2.3368   -2.9336 H   0  0  0  0  0  0  0  0  0  0  0  0
   -2.5525    2.5756   -4.5688 N   0  3  0  0  0  0  0  0  0  0  0  0
   -1.7221    2.1420   -4.9524 H   0  0  0  0  0  0  0  0  0  0  0  0
   -3.2808    2.5465   -5.2714 H   0  0  0  0  0  0  0  0  0  0  0  0
   -2.3427    3.5461   -4.3660 H   0  0  0  0  0  0  0  0  0  0  0  0
   -0.5865    0.0771    2.2496 C   0  0  0  0  0  0  0  0  0  0  0  0
    0.5860   -0.1608    2.5143 O   0  0  0  0  0  0  0  0  0  0  0  0
   -1.4786    0.4656    3.1667 N   0  0  0  0  0  0  0  0  0  0  0  0
   -2.4139    0.6698    2.8558 H   0  0  0  0  0  0  0  0  0  0  0  0
   -1.1587    0.6908    4.5775 C   0  0  0  0  0  0  0  0  0  0  0  0
   -0.4270    1.4968    4.6656 H   0  0  0  0  0  0  0  0  0  0  0  0
   -2.0565    0.9649    5.1327 H   0  0  0  0  0  0  0  0  0  0  0  0
   -0.7281   -0.2137    5.0125 H   0  0  0  0  0  0  0  0  0  0  0  0
  5  6  2  0  0  0  0
  5  7  1  0  0  0  0
  2  3  1  0  0  0  0
  2  4  1  0  0  0  0
  2  5  1  0  0  0  0
  1  2  1  0  0  0  0
 27 28  2  0  0  0  0
 27 29  1  0  0  0  0
 23 24  1  0  0  0  0
 23 25  1  0  0  0  0
 23 26  1  0  0  0  0
 20 21  1  0  0  0  0
 20 22  1  0  0  0  0
 20 23  1  0  0  0  0
 17 18  1  0  0  0  0
 17 19  1  0  0  0  0
 17 20  1  0  0  0  0
 14 15  1  0  0  0  0
 14 16  1  0  0  0  0
 14 17  1  0  0  0  0
 11 12  1  0  0  0  0
 11 13  1  0  0  0  0
 11 14  1  0  0  0  0
  9 10  1  0  0  0  0
  9 11  1  0  0  0  0
  9 27  1  0  0  0  0
  7  8  1  0  0  0  0
  7  9  1  0  0  0  0
 31 32  1  0  0  0  0
 31 33  1  0  0  0  0
 31 34  1  0  0  0  0
 29 30  1  0  0  0  0
 29 31  1  0  0  0  0
M  CHG  1  23   1
M  END
$$$$
default_name
  -OEChem-02102213163D

 34 33  0     1  0  0  0  0  0999 V2000
   -3.8899   -3.6747    1.6490 H   0  0  0  0  0  0  0  0  0  0  0  0
   -3.9109   -2.6717    1.2250 C   0  0  0  0  0  0  0  0  0  0  0  0
   -4.6009   -2.0517    1.7950 H   0  0  0  0  0  0  0  0  0  0  0  0
   -4.2309   -2.7237    0.1860 H   0  0  0  0  0  0  0  0  0  0  0  0
   -2.5229   -2.0787    1.2980 C   0  0  0  0  0  0  0  0  0  0  0  0
   -1.5999   -2.7227    1.7810 O   0  0  0  0  0  0  0  0  0  0  0  0
   -2.3659   -0.8447    0.8120 N   0  0  0  0  0  0  0  0  0  0  0  0
   -3.1749   -0.3807    0.4220 H   0  0  0  0  0  0  0  0  0  0  0  0
   -1.0919   -0.1077    0.8170 C   0  0  1  0  0  0  0  0  0  0  0  0
   -0.3571   -0.6901    0.2581 H   0  0  0  0  0  0  0  0  0  0  0  0
   -1.3037    1.2411    0.1040 C   0  0  0  0  0  0  0  0  0  0  0  0
   -1.6015    1.9835    0.8461 H   0  0  0  0  0  0  0  0  0  0  0  0
   -0.3603    1.5639   -0.3405 H   0  0  0  0  0  0  0  0  0  0  0  0
   -2.3848    1.1876   -0.9864 C   0  0  0  0  0  0  0  0  0  0  0  0
   -2.8038    0.1819   -1.0393 H   0  0  0  0  0  0  0  0  0  0  0  0
   -3.1805    1.8928   -0.7385 H   0  0  0  0  0  0  0  0  0  0  0  0
   -1.7863    1.5561   -2.3510 C   0  0  0  0  0  0  0  0  0  0  0  0
   -1.3542    2.5578   -2.2905 H   0  0  0  0  0  0  0  0  0  0  0  0
   -0.9977    0.8427   -2.5983 H   0  0  0  0  0  0  0  0  0  0  0  0
   -2.8697    1.5273   -3.4364 C   0  0  0  0  0  0  0  0  0  0  0  0
   -3.2947    0.5191   -3.4758 H   0  0  0  0  0  0  0  0  0  0  0  0
   -3.6689    2.2169   -3.1482 H   0  0  0  0  0  0  0  0  0  0  0  0
   -2.3222    1.9036   -4.7642 N   0  3  0  0  0  0  0  0  0  0  0  0
   -1.5892    1.2627   -5.0411 H   0  0  0  0  0  0  0  0  0  0  0  0
   -3.0490    1.8801   -5.4686 H   0  0  0  0  0  0  0  0  0  0  0  0
   -1.9353    2.8398   -4.7353 H   0  0  0  0  0  0  0  0  0  0  0  0
   -0.5865    0.0771    2.2496 C   0  0  0  0  0  0  0  0  0  0  0  0
    0.5860   -0.1608    2.5143 O   0  0  0  0  0  0  0  0  0  0  0  0
   -1.4786    0.4656    3.1667 N   0  0  0  0  0  0  0  0  0  0  0  0
   -2.4139    0.6698    2.8558 H   0  0  0  0  0  0  0  0  0  0  0  0
   -1.1587    0.6908    4.5775 C   0  0  0  0  0  0  0  0  0  0  0  0
   -0.4270    1.4968    4.6656 H   0  0  0  0  0  0  0  0  0  0  0  0
   -2.0565    0.9649    5.1327 H   0  0  0  0  0  0  0  0  0  0  0  0
   -0.7281   -0.2137    5.0125 H   0  0  0  0  0  0  0  0  0  0  0  0
  5  6  2  0  0  0  0
  5  7  1  0  0  0  0
  2  3  1  0  0  0  0
  2  4  1  0  0  0  0
  2  5  1  0  0  0  0
  1  2  1  0  0  0  0
 27 28  2  0  0  0  0
 27 29  1  0  0  0  0
 23 24  1  0  0  0  0
 23 25  1  0  0  0  0
 23 26  1  0  0  0  0
 20 21  1  0  0  0  0
 20 22  1  0  0  0  0
 20 23  1  0  0  0  0
 17 18  1  0  0  0  0
 17 19  1  0  0  0  0
 17 20  1  0  0  0  0
 14 15  1  0  0  0  0
 14 16  1  0  0  0  0
 14 17  1  0  0  0  0
 11 12  1  0  0  0  0
 11 13  1  0  0  0  0
 11 14  1  0  0  0  0
  9 10  1  0  0  0  0
  9 11  1  0  0  0  0
  9 27  1  0  0  0  0
  7  8  1  0  0  0  0
  7  9  1  0  0  0  0
 31 32  1  0  0  0  0
 31 33  1  0  0  0  0
 31 34  1  0  0  0  0
 29 30  1  0  0  0  0
 29 31  1  0  0  0  0
M  CHG  1  23   1
M  END
$$$$
default_name
  -OEChem-02102213163D

 34 33  0     1  0  0  0  0  0999 V2000
   -3.8899   -3.6747    1.6490 H   0  0  0  0  0  0  0  0  0  0  0  0
   -3.9109   -2.6717    1.2250 C   0  0  0  0  0  0  0  0  0  0  0  0
   -4.6009   -2.0517    1.7950 H   0  0  0  0  0  0  0  0  0  0  0  0
   -4.2309   -2.7237    0.1860 H   0  0  0  0  0  0  0  0  0  0  0  0
   -2.5229   -2.0787    1.2980 C   0  0  0  0  0  0  0  0  0  0  0  0
   -1.5999   -2.7227    1.7810 O   0  0  0  0  0  0  0  0  0  0  0  0
   -2.3659   -0.8447    0.8120 N   0  0  0  0  0  0  0  0  0  0  0  0
   -3.1749   -0.3807    0.4220 H   0  0  0  0  0  0  0  0  0  0  0  0
   -1.0919   -0.1077    0.8170 C   0  0  1  0  0  0  0  0  0  0  0  0
   -0.3571   -0.6901    0.2581 H   0  0  0  0  0  0  0  0  0  0  0  0
   -1.3037    1.2411    0.1040 C   0  0  0  0  0  0  0  0  0  0  0  0
   -1.6015    1.9835    0.8461 H   0  0  0  0  0  0  0  0  0  0  0  0
   -0.3603    1.5639   -0.3405 H   0  0  0  0  0  0  0  0  0  0  0  0
   -2.3848    1.1876   -0.9864 C   0  0  0  0  0  0  0  0  0  0  0  0
   -2.9826    0.2831   -0.8670 H   0  0  0  0  0  0  0  0  0  0  0  0
   -3.0347    2.0596   -0.8912 H   0  0  0  0  0  0  0  0  0  0  0  0
   -1.7396    1.1845   -2.3791 C   0  0  0  0  0  0  0  0  0  0  0  0
   -1.1296    2.0842   -2.4900 H   0  0  0  0  0  0  0  0  0  0  0  0
   -1.0981    0.3059   -2.4724 H   0  0  0  0  0  0  0  0  0  0  0  0
   -2.8183    1.1562   -3.4691 C   0  0  0  0  0  0  0  0  0  0  0  0
   -3.4224    0.2528   -3.3362 H   0  0  0  0  0  0  0  0  0  0  0  0
   -3.4742    2.0211   -3.3316 H   0  0  0  0  0  0  0  0  0  0  0  0
   -2.2214    1.1767   -4.8285 N   0  3  0  0  0  0  0  0  0  0  0  0
   -1.6215    0.3728   -4.9654 H   0  0  0  0  0  0  0  0  0  0  0  0
   -2.9457    1.1580   -5.5356 H   0  0  0  0  0  0  0  0  0  0  0  0
   -1.6682    2.0155   -4.9597 H   0  0  0  0  0  0  0  0  0  0  0  0
   -0.5865    0.0771    2.2496 C   0  0  0  0  0  0  0  0  0  0  0  0
    0.5860   -0.1608    2.5143 O   0  0  0  0  0  0  0  0  0  0  0  0
   -1.4786    0.4656    3.1667 N   0  0  0  0  0  0  0  0  0  0  0  0
   -2.4139    0.6698    2.8558 H   0  0  0  0  0  0  0  0  0  0  0  0
   -1.1587    0.6908    4.5775 C   0  0  0  0  0  0  0  0  0  0  0  0
   -0.4270    1.4968    4.6656 H   0  0  0  0  0  0  0  0  0  0  0  0
   -2.0565    0.9649    5.1327 H   0  0  0  0  0  0  0  0  0  0  0  0
   -0.7281   -0.2137    5.0125 H   0  0  0  0  0  0  0  0  0  0  0  0
  5  6  2  0  0  0  0
  5  7  1  0  0  0  0
  2  3  1  0  0  0  0
  2  4  1  0  0  0  0
  2  5  1  0  0  0  0
  1  2  1  0  0  0  0
 27 28  2  0  0  0  0
 27 29  1  0  0  0  0
 23 24  1  0  0  0  0
 23 25  1  0  0  0  0
 23 26  1  0  0  0  0
 20 21  1  0  0  0  0
 20 22  1  0  0  0  0
 20 23  1  0  0  0  0
 17 18  1  0  0  0  0
 17 19  1  0  0  0  0
 17 20  1  0  0  0  0
 14 15  1  0  0  0  0
 14 16  1  0  0  0  0
 14 17  1  0  0  0  0
 11 12  1  0  0  0  0
 11 13  1  0  0  0  0
 11 14  1  0  0  0  0
  9 10  1  0  0  0  0
  9 11  1  0  0  0  0
  9 27  1  0  0  0  0
  7  8  1  0  0  0  0
  7  9  1  0  0  0  0
 31 32  1  0  0  0  0
 31 33  1  0  0  0  0
 31 34  1  0  0  0  0
 29 30  1  0  0  0  0
 29 31  1  0  0  0  0
M  CHG  1  23   1
M  END
$$$$
default_name
  -OEChem-02102213163D

 34 33  0     1  0  0  0  0  0999 V2000
   -3.8899   -3.6747    1.6490 H   0  0  0  0  0  0  0  0  0  0  0  0
   -3.9109   -2.6717    1.2250 C   0  0  0  0  0  0  0  0  0  0  0  0
   -4.6009   -2.0517    1.7950 H   0  0  0  0  0  0  0  0  0  0  0  0
   -4.2309   -2.7237    0.1860 H   0  0  0  0  0  0  0  0  0  0  0  0
   -2.5229   -2.0787    1.2980 C   0  0  0  0  0  0  0  0  0  0  0  0
   -1.5999   -2.7227    1.7810 O   0  0  0  0  0  0  0  0  0  0  0  0
   -2.3659   -0.8447    0.8120 N   0  0  0  0  0  0  0  0  0  0  0  0
   -3.1749   -0.3807    0.4220 H   0  0  0  0  0  0  0  0  0  0  0  0
   -1.0919   -0.1077    0.8170 C   0  0  1  0  0  0  0  0  0  0  0  0
   -0.3571   -0.6901    0.2581 H   0  0  0  0  0  0  0  0  0  0  0  0
   -1.3037    1.2411    0.1040 C   0  0  0  0  0  0  0  0  0  0  0  0
   -1.6015    1.9835    0.8461 H   0  0  0  0  0  0  0  0  0  0  0  0
   -0.3603    1.5639   -0.3405 H   0  0  0  0  0  0  0  0  0  0  0  0
   -2.3848    1.1876   -0.9864 C   0  0  0  0  0  0  0  0  0  0  0  0
   -3.1383    0.4450   -0.7206 H   0  0  0  0  0  0  0  0  0  0  0  0
   -2.8619    2.1662   -1.0678 H   0  0  0  0  0  0  0  0  0  0  0  0
   -1.7624    0.8118   -2.3382 C   0  0  0  0  0  0  0  0  0  0  0  0
   -0.9978    1.5490   -2.5944 H   0  0  0  0  0  0  0  0  0  0  0  0
   -1.2949   -0.1713   -2.2540 H   0  0  0  0  0  0  0  0  0  0  0  0
   -2.8365    0.7823   -3.4327 C   0  0  0  0  0  0  0  0  0  0  0  0
   -3.5958    0.0444   -3.1540 H   0  0  0  0  0  0  0  0  0  0  0  0
   -3.3204    1.7629   -3.4714 H   0  0  0  0  0  0  0  0  0  0  0  0
   -2.2570    0.4442   -4.7573 N   0  3  0  0  0  0  0  0  0  0  0  0
   -1.8168   -0.4670   -4.7306 H   0  0  0  0  0  0  0  0  0  0  0  0
   -2.9780    0.4292   -5.4679 H   0  0  0  0  0  0  0  0  0  0  0  0
   -1.5596    1.1294   -5.0240 H   0  0  0  0  0  0  0  0  0  0  0  0
   -0.5865    0.0771    2.2496 C   0  0  0  0  0  0  0  0  0  0  0  0
    0.5860   -0.1608    2.5143 O   0  0  0  0  0  0  0  0  0  0  0  0
   -1.4786    0.4656    3.1667 N   0  0  0  0  0  0  0  0  0  0  0  0
   -2.4139    0.6698    2.8558 H   0  0  0  0  0  0  0  0  0  0  0  0
   -1.1587    0.6908    4.5775 C   0  0  0  0  0  0  0  0  0  0  0  0
   -0.4270    1.4968    4.6656 H   0  0  0  0  0  0  0  0  0  0  0  0
   -2.0565    0.9649    5.1327 H   0  0  0  0  0  0  0  0  0  0  0  0
   -0.7281   -0.2137    5.0125 H   0  0  0  0  0  0  0  0  0  0  0  0
  5  6  2  0  0  0  0
  5  7  1  0  0  0  0
  2  3  1  0  0  0  0
  2  4  1  0  0  0  0
  2  5  1  0  0  0  0
  1  2  1  0  0  0  0
 27 28  2  0  0  0  0
 27 29  1  0  0  0  0
 23 24  1  0  0  0  0
 23 25  1  0  0  0  0
 23 26  1  0  0  0  0
 20 21  1  0  0  0  0
 20 22  1  0  0  0  0
 20 23  1  0  0  0  0
 17 18  1  0  0  0  0
 17 19  1  0  0  0  0
 17 20  1  0  0  0  0
 14 15  1  0  0  0  0
 14 16  1  0  0  0  0
 14 17  1  0  0  0  0
 11 12  1  0  0  0  0
 11 13  1  0  0  0  0
 11 14  1  0  0  0  0
  9 10  1  0  0  0  0
  9 11  1  0  0  0  0
  9 27  1  0  0  0  0
  7  8  1  0  0  0  0
  7  9  1  0  0  0  0
 31 32  1  0  0  0  0
 31 33  1  0  0  0  0
 31 34  1  0  0  0  0
 29 30  1  0  0  0  0
 29 31  1  0  0  0  0
M  CHG  1  23   1
M  END
$$$$
default_name
  -OEChem-02102213163D

 34 33  0     1  0  0  0  0  0999 V2000
   -3.8899   -3.6747    1.6490 H   0  0  0  0  0  0  0  0  0  0  0  0
   -3.9109   -2.6717    1.2250 C   0  0  0  0  0  0  0  0  0  0  0  0
   -4.6009   -2.0517    1.7950 H   0  0  0  0  0  0  0  0  0  0  0  0
   -4.2309   -2.7237    0.1860 H   0  0  0  0  0  0  0  0  0  0  0  0
   -2.5229   -2.0787    1.2980 C   0  0  0  0  0  0  0  0  0  0  0  0
   -1.5999   -2.7227    1.7810 O   0  0  0  0  0  0  0  0  0  0  0  0
   -2.3659   -0.8447    0.8120 N   0  0  0  0  0  0  0  0  0  0  0  0
   -3.1749   -0.3807    0.4220 H   0  0  0  0  0  0  0  0  0  0  0  0
   -1.0919   -0.1077    0.8170 C   0  0  1  0  0  0  0  0  0  0  0  0
   -0.3571   -0.6901    0.2581 H   0  0  0  0  0  0  0  0  0  0  0  0
   -1.3037    1.2411    0.1040 C   0  0  0  0  0  0  0  0  0  0  0  0
   -1.6015    1.9835    0.8461 H   0  0  0  0  0  0  0  0  0  0  0  0
   -0.3603    1.5639   -0.3405 H   0  0  0  0  0  0  0  0  0  0  0  0
   -2.3848    1.1876   -0.9864 C   0  0  0  0  0  0  0  0  0  0  0  0
   -3.2602    0.6567   -0.6101 H   0  0  0  0  0  0  0  0  0  0  0  0
   -2.6737    2.2053   -1.2562 H   0  0  0  0  0  0  0  0  0  0  0  0
   -1.8533    0.4634   -2.2310 C   0  0  0  0  0  0  0  0  0  0  0  0
   -0.9678    0.9889   -2.5967 H   0  0  0  0  0  0  0  0  0  0  0  0
   -1.5745   -0.5562   -1.9578 H   0  0  0  0  0  0  0  0  0  0  0  0
   -2.9231    0.4311   -3.3296 C   0  0  0  0  0  0  0  0  0  0  0  0
   -3.8033   -0.0918   -2.9416 H   0  0  0  0  0  0  0  0  0  0  0  0
   -3.2181    1.4598   -3.5580 H   0  0  0  0  0  0  0  0  0  0  0  0
   -2.4266   -0.2437   -4.5554 N   0  3  0  0  0  0  0  0  0  0  0  0
   -2.1619   -1.1995   -4.3526 H   0  0  0  0  0  0  0  0  0  0  0  0
   -3.1436   -0.2564   -5.2700 H   0  0  0  0  0  0  0  0  0  0  0  0
   -1.6169    0.2418   -4.9236 H   0  0  0  0  0  0  0  0  0  0  0  0
   -0.5865    0.0771    2.2496 C   0  0  0  0  0  0  0  0  0  0  0  0
    0.5860   -0.1608    2.5143 O   0  0  0  0  0  0  0  0  0  0  0  0
   -1.4786    0.4656    3.1667 N   0  0  0  0  0  0  0  0  0  0  0  0
   -2.4139    0.6698    2.8558 H   0  0  0  0  0  0  0  0  0  0  0  0
   -1.1587    0.6908    4.5775 C   0  0  0  0  0  0  0  0  0  0  0  0
   -0.4270    1.4968    4.6656 H   0  0  0  0  0  0  0  0  0  0  0  0
   -2.0565    0.9649    5.1327 H   0  0  0  0  0  0  0  0  0  0  0  0
   -0.7281   -0.2137    5.0125 H   0  0  0  0  0  0  0  0  0  0  0  0
  5  6  2  0  0  0  0
  5  7  1  0  0  0  0
  2  3  1  0  0  0  0
  2  4  1  0  0  0  0
  2  5  1  0  0  0  0
  1  2  1  0  0  0  0
 27 28  2  0  0  0  0
 27 29  1  0  0  0  0
 23 24  1  0  0  0  0
 23 25  1  0  0  0  0
 23 26  1  0  0  0  0
 20 21  1  0  0  0  0
 20 22  1  0  0  0  0
 20 23  1  0  0  0  0
 17 18  1  0  0  0  0
 17 19  1  0  0  0  0
 17 20  1  0  0  0  0
 14 15  1  0  0  0  0
 14 16  1  0  0  0  0
 14 17  1  0  0  0  0
 11 12  1  0  0  0  0
 11 13  1  0  0  0  0
 11 14  1  0  0  0  0
  9 10  1  0  0  0  0
  9 11  1  0  0  0  0
  9 27  1  0  0  0  0
  7  8  1  0  0  0  0
  7  9  1  0  0  0  0
 31 32  1  0  0  0  0
 31 33  1  0  0  0  0
 31 34  1  0  0  0  0
 29 30  1  0  0  0  0
 29 31  1  0  0  0  0
M  CHG  1  23   1
M  END
$$$$
default_name
  -OEChem-02102213163D

 34 33  0     1  0  0  0  0  0999 V2000
   -3.8899   -3.6747    1.6490 H   0  0  0  0  0  0  0  0  0  0  0  0
   -3.9109   -2.6717    1.2250 C   0  0  0  0  0  0  0  0  0  0  0  0
   -4.6009   -2.0517    1.7950 H   0  0  0  0  0  0  0  0  0  0  0  0
   -4.2309   -2.7237    0.1860 H   0  0  0  0  0  0  0  0  0  0  0  0
   -2.5229   -2.0787    1.2980 C   0  0  0  0  0  0  0  0  0  0  0  0
   -1.5999   -2.7227    1.7810 O   0  0  0  0  0  0  0  0  0  0  0  0
   -2.3659   -0.8447    0.8120 N   0  0  0  0  0  0  0  0  0  0  0  0
   -3.1749   -0.3807    0.4220 H   0  0  0  0  0  0  0  0  0  0  0  0
   -1.0919   -0.1077    0.8170 C   0  0  1  0  0  0  0  0  0  0  0  0
   -0.3571   -0.6901    0.2581 H   0  0  0  0  0  0  0  0  0  0  0  0
   -1.3037    1.2411    0.1040 C   0  0  0  0  0  0  0  0  0  0  0  0
   -1.6015    1.9835    0.8461 H   0  0  0  0  0  0  0  0  0  0  0  0
   -0.3603    1.5639   -0.3405 H   0  0  0  0  0  0  0  0  0  0  0  0
   -2.3848    1.1876   -0.9864 C   0  0  0  0  0  0  0  0  0  0  0  0
   -3.3401    0.9037   -0.5430 H   0  0  0  0  0  0  0  0  0  0  0  0
   -2.4831    2.1741   -1.4437 H   0  0  0  0  0  0  0  0  0  0  0  0
   -2.0060    0.1632   -2.0649 C   0  0  0  0  0  0  0  0  0  0  0  0
   -1.0418    0.4420   -2.4965 H   0  0  0  0  0  0  0  0  0  0  0  0
   -1.9180   -0.8228   -1.6042 H   0  0  0  0  0  0  0  0  0  0  0  0
   -3.0722    0.1266   -3.1669 C   0  0  0  0  0  0  0  0  0  0  0  0
   -4.0307   -0.1466   -2.7135 H   0  0  0  0  0  0  0  0  0  0  0  0
   -3.1741    1.1324   -3.5856 H   0  0  0  0  0  0  0  0  0  0  0  0
   -2.7186   -0.8403   -4.2367 N   0  3  0  0  0  0  0  0  0  0  0  0
   -2.6332   -1.7749   -3.8571 H   0  0  0  0  0  0  0  0  0  0  0  0
   -3.4313   -0.8522   -4.9556 H   0  0  0  0  0  0  0  0  0  0  0  0
   -1.8362   -0.5868   -4.6656 H   0  0  0  0  0  0  0  0  0  0  0  0
   -0.5865    0.0771    2.2496 C   0  0  0  0  0  0  0  0  0  0  0  0
    0.5860   -0.1608    2.5143 O   0  0  0  0  0  0  0  0  0  0  0  0
   -1.4786    0.4656    3.1667 N   0  0  0  0  0  0  0  0  0  0  0  0
   -2.4139    0.6698    2.8558 H   0  0  0  0  0  0  0  0  0  0  0  0
   -1.1587    0.6908    4.5775 C   0  0  0  0  0  0  0  0  0  0  0  0
   -0.4270    1.4968    4.6656 H   0  0  0  0  0  0  0  0  0  0  0  0
   -2.0565    0.9649    5.1327 H   0  0  0  0  0  0  0  0  0  0  0  0
   -0.7281   -0.2137    5.0125 H   0  0  0  0  0  0  0  0  0  0  0  0
  5  6  2  0  0  0  0
  5  7  1  0  0  0  0
  2  3  1  0  0  0  0
  2  4  1  0  0  0  0
  2  5  1  0  0  0  0
  1  2  1  0  0  0  0
 27 28  2  0  0  0  0
 27 29  1  0  0  0  0
 23 24  1  0  0  0  0
 23 25  1  0  0  0  0
 23 26  1  0  0  0  0
 20 21  1  0  0  0  0
 20 22  1  0  0  0  0
 20 23  1  0  0  0  0
 17 18  1  0  0  0  0
 17 19  1  0  0  0  0
 17 20  1  0  0  0  0
 14 15  1  0  0  0  0
 14 16  1  0  0  0  0
 14 17  1  0  0  0  0
 11 12  1  0  0  0  0
 11 13  1  0  0  0  0
 11 14  1  0  0  0  0
  9 10  1  0  0  0  0
  9 11  1  0  0  0  0
  9 27  1  0  0  0  0
  7  8  1  0  0  0  0
  7  9  1  0  0  0  0
 31 32  1  0  0  0  0
 31 33  1  0  0  0  0
 31 34  1  0  0  0  0
 29 30  1  0  0  0  0
 29 31  1  0  0  0  0
M  CHG  1  23   1
M  END
$$$$
default_name
  -OEChem-02102213163D

 34 33  0     1  0  0  0  0  0999 V2000
   -3.8899   -3.6747    1.6490 H   0  0  0  0  0  0  0  0  0  0  0  0
   -3.9109   -2.6717    1.2250 C   0  0  0  0  0  0  0  0  0  0  0  0
   -4.6009   -2.0517    1.7950 H   0  0  0  0  0  0  0  0  0  0  0  0
   -4.2309   -2.7237    0.1860 H   0  0  0  0  0  0  0  0  0  0  0  0
   -2.5229   -2.0787    1.2980 C   0  0  0  0  0  0  0  0  0  0  0  0
   -1.5999   -2.7227    1.7810 O   0  0  0  0  0  0  0  0  0  0  0  0
   -2.3659   -0.8447    0.8120 N   0  0  0  0  0  0  0  0  0  0  0  0
   -3.1749   -0.3807    0.4220 H   0  0  0  0  0  0  0  0  0  0  0  0
   -1.0919   -0.1077    0.8170 C   0  0  1  0  0  0  0  0  0  0  0  0
   -0.3571   -0.6901    0.2581 H   0  0  0  0  0  0  0  0  0  0  0  0
   -1.3037    1.2411    0.1040 C   0  0  0  0  0  0  0  0  0  0  0  0
   -1.6015    1.9835    0.8461 H   0  0  0  0  0  0  0  0  0  0  0  0
   -0.3603    1.5639   -0.3405 H   0  0  0  0  0  0  0  0  0  0  0  0
   -2.3848    1.1876   -0.9864 C   0  0  0  0  0  0  0  0  0  0  0  0
   -3.3725    1.1692   -0.5239 H   0  0  0  0  0  0  0  0  0  0  0  0
   -2.3031    2.0748   -1.6173 H   0  0  0  0  0  0  0  0  0  0  0  0
   -2.2102   -0.0685   -1.8511 C   0  0  0  0  0  0  0  0  0  0  0  0
   -1.2146   -0.0545   -2.3009 H   0  0  0  0  0  0  0  0  0  0  0  0
   -2.3020   -0.9527   -1.2172 H   0  0  0  0  0  0  0  0  0  0  0  0
   -3.2737   -0.1105   -2.9556 C   0  0  0  0  0  0  0  0  0  0  0  0
   -4.2624   -0.1162   -2.4853 H   0  0  0  0  0  0  0  0  0  0  0  0
   -3.1916    0.8031   -3.5521 H   0  0  0  0  0  0  0  0  0  0  0  0
   -3.1131   -1.3049   -3.8228 N   0  3  0  0  0  0  0  0  0  0  0  0
   -3.1986   -2.1539   -3.2780 H   0  0  0  0  0  0  0  0  0  0  0  0
   -3.8215   -1.3176   -4.5459 H   0  0  0  0  0  0  0  0  0  0  0  0
   -2.2026   -1.2998   -4.2675 H   0  0  0  0  0  0  0  0  0  0  0  0
   -0.5865    0.0771    2.2496 C   0  0  0  0  0  0  0  0  0  0  0  0
    0.5860   -0.1608    2.5143 O   0  0  0  0  0  0  0  0  0  0  0  0
   -1.4786    0.4656    3.1667 N   0  0  0  0  0  0  0  0  0  0  0  0
   -2.4139    0.6698    2.8558 H   0  0  0  0  0  0  0  0  0  0  0  0
   -1.1587    0.6908    4.5775 C   0  0  0  0  0  0  0  0  0  0  0  0
   -0.4270    1.4968    4.6656 H   0  0  0  0  0  0  0  0  0  0  0  0
   -2.0565    0.9649    5.1327 H   0  0  0  0  0  0  0  0  0  0  0  0
   -0.7281   -0.2137    5.0125 H   0  0  0  0  0  0  0  0  0  0  0  0
  5  6  2  0  0  0  0
  5  7  1  0  0  0  0
  2  3  1  0  0  0  0
  2  4  1  0  0  0  0
  2  5  1  0  0  0  0
  1  2  1  0  0  0  0
 27 28  2  0  0  0  0
 27 29  1  0  0  0  0
 23 24  1  0  0  0  0
 23 25  1  0  0  0  0
 23 26  1  0  0  0  0
 20 21  1  0  0  0  0
 20 22  1  0  0  0  0
 20 23  1  0  0  0  0
 17 18  1  0  0  0  0
 17 19  1  0  0  0  0
 17 20  1  0  0  0  0
 14 15  1  0  0  0  0
 14 16  1  0  0  0  0
 14 17  1  0  0  0  0
 11 12  1  0  0  0  0
 11 13  1  0  0  0  0
 11 14  1  0  0  0  0
  9 10  1  0  0  0  0
  9 11  1  0  0  0  0
  9 27  1  0  0  0  0
  7  8  1  0  0  0  0
  7  9  1  0  0  0  0
 31 32  1  0  0  0  0
 31 33  1  0  0  0  0
 31 34  1  0  0  0  0
 29 30  1  0  0  0  0
 29 31  1  0  0  0  0
M  CHG  1  23   1
M  END
$$$$
default_name
  -OEChem-02102213163D

 34 33  0     1  0  0  0  0  0999 V2000
   -3.8899   -3.6747    1.6490 H   0  0  0  0  0  0  0  0  0  0  0  0
   -3.9109   -2.6717    1.2250 C   0  0  0  0  0  0  0  0  0  0  0  0
   -4.6009   -2.0517    1.7950 H   0  0  0  0  0  0  0  0  0  0  0  0
   -4.2309   -2.7237    0.1860 H   0  0  0  0  0  0  0  0  0  0  0  0
   -2.5229   -2.0787    1.2980 C   0  0  0  0  0  0  0  0  0  0  0  0
   -1.5999   -2.7227    1.7810 O   0  0  0  0  0  0  0  0  0  0  0  0
   -2.3659   -0.8447    0.8120 N   0  0  0  0  0  0  0  0  0  0  0  0
   -3.1749   -0.3807    0.4220 H   0  0  0  0  0  0  0  0  0  0  0  0
   -1.0919   -0.1077    0.8170 C   0  0  1  0  0  0  0  0  0  0  0  0
   -0.3571   -0.6901    0.2581 H   0  0  0  0  0  0  0  0  0  0  0  0
   -1.3037    1.2411    0.1040 C   0  0  0  0  0  0  0  0  0  0  0  0
   -1.6015    1.9835    0.8461 H   0  0  0  0  0  0  0  0  0  0  0  0
   -0.3603    1.5639   -0.3405 H   0  0  0  0  0  0  0  0  0  0  0  0
   -2.3848    1.1876   -0.9864 C   0  0  0  0  0  0  0  0  0  0  0  0
   -3.3552    1.4350   -0.5540 H   0  0  0  0  0  0  0  0  0  0  0  0
   -2.1458    1.9143   -1.7653 H   0  0  0  0  0  0  0  0  0  0  0  0
   -2.4519   -0.2159   -1.6042 C   0  0  0  0  0  0  0  0  0  0  0  0
   -1.4744   -0.4667   -2.0231 H   0  0  0  0  0  0  0  0  0  0  0  0
   -2.7002   -0.9373   -0.8231 H   0  0  0  0  0  0  0  0  0  0  0  0
   -3.5137   -0.2641   -2.7101 C   0  0  0  0  0  0  0  0  0  0  0  0
   -4.4827   -0.0027   -2.2724 H   0  0  0  0  0  0  0  0  0  0  0  0
   -3.2692    0.4943   -3.4600 H   0  0  0  0  0  0  0  0  0  0  0  0
   -3.5832   -1.6059   -3.3420 N   0  3  0  0  0  0  0  0  0  0  0  0
   -3.8195   -2.3106   -2.6547 H   0  0  0  0  0  0  0  0  0  0  0  0
   -4.2876   -1.6209   -4.0690 H   0  0  0  0  0  0  0  0  0  0  0  0
   -2.6910   -1.8488   -3.7563 H   0  0  0  0  0  0  0  0  0  0  0  0
   -0.5865    0.0771    2.2496 C   0  0  0  0  0  0  0  0  0  0  0  0
    0.5860   -0.1608    2.5143 O   0  0  0  0  0  0  0  0  0  0  0  0
   -1.4786    0.4656    3.1667 N   0  0  0  0  0  0  0  0  0  0  0  0
   -2.4139    0.6698    2.8558 H   0  0  0  0  0  0  0  0  0  0  0  0
   -1.1587    0.6908    4.5775 C   0  0  0  0  0  0  0  0  0  0  0  0
   -0.4270    1.4968    4.6656 H   0  0  0  0  0  0  0  0  0  0  0  0
   -2.0565    0.9649    5.1327 H   0  0  0  0  0  0  0  0  0  0  0  0
   -0.7281   -0.2137    5.0125 H   0  0  0  0  0  0  0  0  0  0  0  0
  5  6  2  0  0  0  0
  5  7  1  0  0  0  0
  2  3  1  0  0  0  0
  2  4  1  0  0  0  0
  2  5  1  0  0  0  0
  1  2  1  0  0  0  0
 27 28  2  0  0  0  0
 27 29  1  0  0  0  0
 23 24  1  0  0  0  0
 23 25  1  0  0  0  0
 23 26  1  0  0  0  0
 20 21  1  0  0  0  0
 20 22  1  0  0  0  0
 20 23  1  0  0  0  0
 17 18  1  0  0  0  0
 17 19  1  0  0  0  0
 17 20  1  0  0  0  0
 14 15  1  0  0  0  0
 14 16  1  0  0  0  0
 14 17  1  0  0  0  0
 11 12  1  0  0  0  0
 11 13  1  0  0  0  0
 11 14  1  0  0  0  0
  9 10  1  0  0  0  0
  9 11  1  0  0  0  0
  9 27  1  0  0  0  0
  7  8  1  0  0  0  0
  7  9  1  0  0  0  0
 31 32  1  0  0  0  0
 31 33  1  0  0  0  0
 31 34  1  0  0  0  0
 29 30  1  0  0  0  0
 29 31  1  0  0  0  0
M  CHG  1  23   1
M  END
$$$$
default_name
  -OEChem-02102213163D

 34 33  0     1  0  0  0  0  0999 V2000
   -3.8899   -3.6747    1.6490 H   0  0  0  0  0  0  0  0  0  0  0  0
   -3.9109   -2.6717    1.2250 C   0  0  0  0  0  0  0  0  0  0  0  0
   -4.6009   -2.0517    1.7950 H   0  0  0  0  0  0  0  0  0  0  0  0
   -4.2309   -2.7237    0.1860 H   0  0  0  0  0  0  0  0  0  0  0  0
   -2.5229   -2.0787    1.2980 C   0  0  0  0  0  0  0  0  0  0  0  0
   -1.5999   -2.7227    1.7810 O   0  0  0  0  0  0  0  0  0  0  0  0
   -2.3659   -0.8447    0.8120 N   0  0  0  0  0  0  0  0  0  0  0  0
   -3.1749   -0.3807    0.4220 H   0  0  0  0  0  0  0  0  0  0  0  0
   -1.0919   -0.1077    0.8170 C   0  0  1  0  0  0  0  0  0  0  0  0
   -0.3571   -0.6901    0.2581 H   0  0  0  0  0  0  0  0  0  0  0  0
   -1.3037    1.2411    0.1040 C   0  0  0  0  0  0  0  0  0  0  0  0
   -1.6015    1.9835    0.8461 H   0  0  0  0  0  0  0  0  0  0  0  0
   -0.3603    1.5639   -0.3405 H   0  0  0  0  0  0  0  0  0  0  0  0
   -2.3848    1.1876   -0.9864 C   0  0  0  0  0  0  0  0  0  0  0  0
   -3.2894    1.6832   -0.6315 H   0  0  0  0  0  0  0  0  0  0  0  0
   -2.0221    1.7033   -1.8777 H   0  0  0  0  0  0  0  0  0  0  0  0
   -2.7147   -0.2689   -1.3411 C   0  0  0  0  0  0  0  0  0  0  0  0
   -1.8036   -0.7665   -1.6820 H   0  0  0  0  0  0  0  0  0  0  0  0
   -3.0855   -0.7774   -0.4489 H   0  0  0  0  0  0  0  0  0  0  0  0
   -3.7759   -0.3236   -2.4471 C   0  0  0  0  0  0  0  0  0  0  0  0
   -4.6765    0.1861   -2.0895 H   0  0  0  0  0  0  0  0  0  0  0  0
   -3.4017    0.2270   -3.3155 H   0  0  0  0  0  0  0  0  0  0  0  0
   -4.0969   -1.7226   -2.8269 N   0  3  0  0  0  0  0  0  0  0  0  0
   -4.4537   -2.2344   -2.0297 H   0  0  0  0  0  0  0  0  0  0  0  0
   -4.7978   -1.7413   -3.5573 H   0  0  0  0  0  0  0  0  0  0  0  0
   -3.2682   -2.1962   -3.1670 H   0  0  0  0  0  0  0  0  0  0  0  0
   -0.5865    0.0771    2.2496 C   0  0  0  0  0  0  0  0  0  0  0  0
    0.5860   -0.1608    2.5143 O   0  0  0  0  0  0  0  0  0  0  0  0
   -1.4786    0.4656    3.1667 N   0  0  0  0  0  0  0  0  0  0  0  0
   -2.4139    0.6698    2.8558 H   0  0  0  0  0  0  0  0  0  0  0  0
   -1.1587    0.6908    4.5775 C   0  0  0  0  0  0  0  0  0  0  0  0
   -0.4270    1.4968    4.6656 H   0  0  0  0  0  0  0  0  0  0  0  0
   -2.0565    0.9649    5.1327 H   0  0  0  0  0  0  0  0  0  0  0  0
   -0.7281   -0.2137    5.0125 H   0  0  0  0  0  0  0  0  0  0  0  0
  5  6  2  0  0  0  0
  5  7  1  0  0  0  0
  2  3  1  0  0  0  0
  2  4  1  0  0  0  0
  2  5  1  0  0  0  0
  1  2  1  0  0  0  0
 27 28  2  0  0  0  0
 27 29  1  0  0  0  0
 23 24  1  0  0  0  0
 23 25  1  0  0  0  0
 23 26  1  0  0  0  0
 20 21  1  0  0  0  0
 20 22  1  0  0  0  0
 20 23  1  0  0  0  0
 17 18  1  0  0  0  0
 17 19  1  0  0  0  0
 17 20  1  0  0  0  0
 14 15  1  0  0  0  0
 14 16  1  0  0  0  0
 14 17  1  0  0  0  0
 11 12  1  0  0  0  0
 11 13  1  0  0  0  0
 11 14  1  0  0  0  0
  9 10  1  0  0  0  0
  9 11  1  0  0  0  0
  9 27  1  0  0  0  0
  7  8  1  0  0  0  0
  7  9  1  0  0  0  0
 31 32  1  0  0  0  0
 31 33  1  0  0  0  0
 31 34  1  0  0  0  0
 29 30  1  0  0  0  0
 29 31  1  0  0  0  0
M  CHG  1  23   1
M  END
$$$$
default_name
  -OEChem-02102213163D

 34 33  0     1  0  0  0  0  0999 V2000
   -3.8899   -3.6747    1.6490 H   0  0  0  0  0  0  0  0  0  0  0  0
   -3.9109   -2.6717    1.2250 C   0  0  0  0  0  0  0  0  0  0  0  0
   -4.6009   -2.0517    1.7950 H   0  0  0  0  0  0  0  0  0  0  0  0
   -4.2309   -2.7237    0.1860 H   0  0  0  0  0  0  0  0  0  0  0  0
   -2.5229   -2.0787    1.2980 C   0  0  0  0  0  0  0  0  0  0  0  0
   -1.5999   -2.7227    1.7810 O   0  0  0  0  0  0  0  0  0  0  0  0
   -2.3659   -0.8447    0.8120 N   0  0  0  0  0  0  0  0  0  0  0  0
   -3.1749   -0.3807    0.4220 H   0  0  0  0  0  0  0  0  0  0  0  0
   -1.0919   -0.1077    0.8170 C   0  0  1  0  0  0  0  0  0  0  0  0
   -0.3571   -0.6901    0.2581 H   0  0  0  0  0  0  0  0  0  0  0  0
   -1.3037    1.2411    0.1040 C   0  0  0  0  0  0  0  0  0  0  0  0
   -1.6015    1.9835    0.8461 H   0  0  0  0  0  0  0  0  0  0  0  0
   -0.3603    1.5639   -0.3405 H   0  0  0  0  0  0  0  0  0  0  0  0
   -2.3848    1.1876   -0.9864 C   0  0  0  0  0  0  0  0  0  0  0  0
   -3.1796    1.8966   -0.7508 H   0  0  0  0  0  0  0  0  0  0  0  0
   -1.9403    1.4564   -1.9467 H   0  0  0  0  0  0  0  0  0  0  0  0
   -2.9806   -0.2239   -1.0797 C   0  0  0  0  0  0  0  0  0  0  0  0
   -2.1798   -0.9335   -1.3008 H   0  0  0  0  0  0  0  0  0  0  0  0
   -3.4318   -0.4841   -0.1200 H   0  0  0  0  0  0  0  0  0  0  0  0
   -4.0426   -0.2851   -2.1847 C   0  0  0  0  0  0  0  0  0  0  0  0
   -4.8307    0.4374   -1.9489 H   0  0  0  0  0  0  0  0  0  0  0  0
   -3.5802    0.0195   -3.1284 H   0  0  0  0  0  0  0  0  0  0  0  0
   -4.6192   -1.6472   -2.3128 N   0  3  0  0  0  0  0  0  0  0  0  0
   -5.0579   -1.9305   -1.4455 H   0  0  0  0  0  0  0  0  0  0  0  0
   -5.3173   -1.6708   -3.0456 H   0  0  0  0  0  0  0  0  0  0  0  0
   -3.8948   -2.3185   -2.5398 H   0  0  0  0  0  0  0  0  0  0  0  0
   -0.5865    0.0771    2.2496 C   0  0  0  0  0  0  0  0  0  0  0  0
    0.5860   -0.1608    2.5143 O   0  0  0  0  0  0  0  0  0  0  0  0
   -1.4786    0.4656    3.1667 N   0  0  0  0  0  0  0  0  0  0  0  0
   -2.4139    0.6698    2.8558 H   0  0  0  0  0  0  0  0  0  0  0  0
   -1.1587    0.6908    4.5775 C   0  0  0  0  0  0  0  0  0  0  0  0
   -0.4270    1.4968    4.6656 H   0  0  0  0  0  0  0  0  0  0  0  0
   -2.0565    0.9649    5.1327 H   0  0  0  0  0  0  0  0  0  0  0  0
   -0.7281   -0.2137    5.0125 H   0  0  0  0  0  0  0  0  0  0  0  0
  5  6  2  0  0  0  0
  5  7  1  0  0  0  0
  2  3  1  0  0  0  0
  2  4  1  0  0  0  0
  2  5  1  0  0  0  0
  1  2  1  0  0  0  0
 27 28  2  0  0  0  0
 27 29  1  0  0  0  0
 23 24  1  0  0  0  0
 23 25  1  0  0  0  0
 23 26  1  0  0  0  0
 20 21  1  0  0  0  0
 20 22  1  0  0  0  0
 20 23  1  0  0  0  0
 17 18  1  0  0  0  0
 17 19  1  0  0  0  0
 17 20  1  0  0  0  0
 14 15  1  0  0  0  0
 14 16  1  0  0  0  0
 14 17  1  0  0  0  0
 11 12  1  0  0  0  0
 11 13  1  0  0  0  0
 11 14  1  0  0  0  0
  9 10  1  0  0  0  0
  9 11  1  0  0  0  0
  9 27  1  0  0  0  0
  7  8  1  0  0  0  0
  7  9  1  0  0  0  0
 31 32  1  0  0  0  0
 31 33  1  0  0  0  0
 31 34  1  0  0  0  0
 29 30  1  0  0  0  0
 29 31  1  0  0  0  0
M  CHG  1  23   1
M  END
$$$$
default_name
  -OEChem-02102213163D

 34 33  0     1  0  0  0  0  0999 V2000
   -3.8899   -3.6747    1.6490 H   0  0  0  0  0  0  0  0  0  0  0  0
   -3.9109   -2.6717    1.2250 C   0  0  0  0  0  0  0  0  0  0  0  0
   -4.6009   -2.0517    1.7950 H   0  0  0  0  0  0  0  0  0  0  0  0
   -4.2309   -2.7237    0.1860 H   0  0  0  0  0  0  0  0  0  0  0  0
   -2.5229   -2.0787    1.2980 C   0  0  0  0  0  0  0  0  0  0  0  0
   -1.5999   -2.7227    1.7810 O   0  0  0  0  0  0  0  0  0  0  0  0
   -2.3659   -0.8447    0.8120 N   0  0  0  0  0  0  0  0  0  0  0  0
   -3.1749   -0.3807    0.4220 H   0  0  0  0  0  0  0  0  0  0  0  0
   -1.0919   -0.1077    0.8170 C   0  0  1  0  0  0  0  0  0  0  0  0
   -0.3571   -0.6901    0.2581 H   0  0  0  0  0  0  0  0  0  0  0  0
   -1.3037    1.2411    0.1040 C   0  0  0  0  0  0  0  0  0  0  0  0
   -1.6015    1.9835    0.8461 H   0  0  0  0  0  0  0  0  0  0  0  0
   -0.3603    1.5639   -0.3405 H   0  0  0  0  0  0  0  0  0  0  0  0
   -2.3848    1.1876   -0.9864 C   0  0  0  0  0  0  0  0  0  0  0  0
   -3.0332    2.0609   -0.9040 H   0  0  0  0  0  0  0  0  0  0  0  0
   -1.9061    1.1903   -1.9676 H   0  0  0  0  0  0  0  0  0  0  0  0
   -3.2316   -0.0840   -0.8377 C   0  0  0  0  0  0  0  0  0  0  0  0
   -2.5772   -0.9563   -0.9057 H   0  0  0  0  0  0  0  0  0  0  0  0
   -3.7153   -0.0772    0.1411 H   0  0  0  0  0  0  0  0  0  0  0  0
   -4.2954   -0.1510   -1.9406 C   0  0  0  0  0  0  0  0  0  0  0  0
   -4.9348    0.7341   -1.8603 H   0  0  0  0  0  0  0  0  0  0  0  0
   -3.7923   -0.1140   -2.9116 H   0  0  0  0  0  0  0  0  0  0  0  0
   -5.1145   -1.3849   -1.8346 N   0  3  0  0  0  0  0  0  0  0  0  0
   -5.5910   -1.4196   -0.9421 H   0  0  0  0  0  0  0  0  0  0  0  0
   -5.8108   -1.4140   -2.5690 H   0  0  0  0  0  0  0  0  0  0  0  0
   -4.5283   -2.2073   -1.9172 H   0  0  0  0  0  0  0  0  0  0  0  0
   -0.5865    0.0771    2.2496 C   0  0  0  0  0  0  0  0  0  0  0  0
    0.5860   -0.1608    2.5143 O   0  0  0  0  0  0  0  0  0  0  0  0
   -1.4786    0.4656    3.1667 N   0  0  0  0  0  0  0  0  0  0  0  0
   -2.4139    0.6698    2.8558 H   0  0  0  0  0  0  0  0  0  0  0  0
   -1.1587    0.6908    4.5775 C   0  0  0  0  0  0  0  0  0  0  0  0
   -0.4270    1.4968    4.6656 H   0  0  0  0  0  0  0  0  0  0  0  0
   -2.0565    0.9649    5.1327 H   0  0  0  0  0  0  0  0  0  0  0  0
   -0.7281   -0.2137    5.0125 H   0  0  0  0  0  0  0  0  0  0  0  0
  5  6  2  0  0  0  0
  5  7  1  0  0  0  0
  2  3  1  0  0  0  0
  2  4  1  0  0  0  0
  2  5  1  0  0  0  0
  1  2  1  0  0  0  0
 27 28  2  0  0  0  0
 27 29  1  0  0  0  0
 23 24  1  0  0  0  0
 23 25  1  0  0  0  0
 23 26  1  0  0  0  0
 20 21  1  0  0  0  0
 20 22  1  0  0  0  0
 20 23  1  0  0  0  0
 17 18  1  0  0  0  0
 17 19  1  0  0  0  0
 17 20  1  0  0  0  0
 14 15  1  0  0  0  0
 14 16  1  0  0  0  0
 14 17  1  0  0  0  0
 11 12  1  0  0  0  0
 11 13  1  0  0  0  0
 11 14  1  0  0  0  0
  9 10  1  0  0  0  0
  9 11  1  0  0  0  0
  9 27  1  0  0  0  0
  7  8  1  0  0  0  0
  7  9  1  0  0  0  0
 31 32  1  0  0  0  0
 31 33  1  0  0  0  0
 31 34  1  0  0  0  0
 29 30  1  0  0  0  0
 29 31  1  0  0  0  0
M  CHG  1  23   1
M  END
$$$$
default_name
  -OEChem-02102213163D

 34 33  0     1  0  0  0  0  0999 V2000
   -3.8899   -3.6747    1.6490 H   0  0  0  0  0  0  0  0  0  0  0  0
   -3.9109   -2.6717    1.2250 C   0  0  0  0  0  0  0  0  0  0  0  0
   -4.6009   -2.0517    1.7950 H   0  0  0  0  0  0  0  0  0  0  0  0
   -4.2309   -2.7237    0.1860 H   0  0  0  0  0  0  0  0  0  0  0  0
   -2.5229   -2.0787    1.2980 C   0  0  0  0  0  0  0  0  0  0  0  0
   -1.5999   -2.7227    1.7810 O   0  0  0  0  0  0  0  0  0  0  0  0
   -2.3659   -0.8447    0.8120 N   0  0  0  0  0  0  0  0  0  0  0  0
   -3.1749   -0.3807    0.4220 H   0  0  0  0  0  0  0  0  0  0  0  0
   -1.0919   -0.1077    0.8170 C   0  0  1  0  0  0  0  0  0  0  0  0
   -0.3571   -0.6901    0.2581 H   0  0  0  0  0  0  0  0  0  0  0  0
   -1.3037    1.2411    0.1040 C   0  0  0  0  0  0  0  0  0  0  0  0
   -1.6015    1.9835    0.8461 H   0  0  0  0  0  0  0  0  0  0  0  0
   -0.3603    1.5639   -0.3405 H   0  0  0  0  0  0  0  0  0  0  0  0
   -2.3848    1.1876   -0.9864 C   0  0  0  0  0  0  0  0  0  0  0  0
   -2.8602    2.1649   -1.0806 H   0  0  0  0  0  0  0  0  0  0  0  0
   -1.9217    0.9232   -1.9390 H   0  0  0  0  0  0  0  0  0  0  0  0
   -3.4504    0.1414   -0.6318 C   0  0  0  0  0  0  0  0  0  0  0  0
   -2.9689   -0.8334   -0.5234 H   0  0  0  0  0  0  0  0  0  0  0  0
   -3.9167    0.4154    0.3167 H   0  0  0  0  0  0  0  0  0  0  0  0
   -4.5172    0.0693   -1.7315 C   0  0  0  0  0  0  0  0  0  0  0  0
   -4.9816    1.0559   -1.8297 H   0  0  0  0  0  0  0  0  0  0  0  0
   -4.0237   -0.1646   -2.6797 H   0  0  0  0  0  0  0  0  0  0  0  0
   -5.5490   -0.9534   -1.4250 N   0  3  0  0  0  0  0  0  0  0  0  0
   -6.0165   -0.7366   -0.5536 H   0  0  0  0  0  0  0  0  0  0  0  0
   -6.2446   -0.9886   -2.1598 H   0  0  0  0  0  0  0  0  0  0  0  0
   -5.1253   -1.8701   -1.3418 H   0  0  0  0  0  0  0  0  0  0  0  0
   -0.5865    0.0771    2.2496 C   0  0  0  0  0  0  0  0  0  0  0  0
    0.5860   -0.1608    2.5143 O   0  0  0  0  0  0  0  0  0  0  0  0
   -1.4786    0.4656    3.1667 N   0  0  0  0  0  0  0  0  0  0  0  0
   -2.4139    0.6698    2.8558 H   0  0  0  0  0  0  0  0  0  0  0  0
   -1.1587    0.6908    4.5775 C   0  0  0  0  0  0  0  0  0  0  0  0
   -0.4270    1.4968    4.6656 H   0  0  0  0  0  0  0  0  0  0  0  0
   -2.0565    0.9649    5.1327 H   0  0  0  0  0  0  0  0  0  0  0  0
   -0.7281   -0.2137    5.0125 H   0  0  0  0  0  0  0  0  0  0  0  0
  5  6  2  0  0  0  0
  5  7  1  0  0  0  0
  2  3  1  0  0  0  0
  2  4  1  0  0  0  0
  2  5  1  0  0  0  0
  1  2  1  0  0  0  0
 27 28  2  0  0  0  0
 27 29  1  0  0  0  0
 23 24  1  0  0  0  0
 23 25  1  0  0  0  0
 23 26  1  0  0  0  0
 20 21  1  0  0  0  0
 20 22  1  0  0  0  0
 20 23  1  0  0  0  0
 17 18  1  0  0  0  0
 17 19  1  0  0  0  0
 17 20  1  0  0  0  0
 14 15  1  0  0  0  0
 14 16  1  0  0  0  0
 14 17  1  0  0  0  0
 11 12  1  0  0  0  0
 11 13  1  0  0  0  0
 11 14  1  0  0  0  0
  9 10  1  0  0  0  0
  9 11  1  0  0  0  0
  9 27  1  0  0  0  0
  7  8  1  0  0  0  0
  7  9  1  0  0  0  0
 31 32  1  0  0  0  0
 31 33  1  0  0  0  0
 31 34  1  0  0  0  0
 29 30  1  0  0  0  0
 29 31  1  0  0  0  0
M  CHG  1  23   1
M  END
$$$$
default_name
  -OEChem-02102213163D

 34 33  0     1  0  0  0  0  0999 V2000
   -3.8899   -3.6747    1.6490 H   0  0  0  0  0  0  0  0  0  0  0  0
   -3.9109   -2.6717    1.2250 C   0  0  0  0  0  0  0  0  0  0  0  0
   -4.6009   -2.0517    1.7950 H   0  0  0  0  0  0  0  0  0  0  0  0
   -4.2309   -2.7237    0.1860 H   0  0  0  0  0  0  0  0  0  0  0  0
   -2.5229   -2.0787    1.2980 C   0  0  0  0  0  0  0  0  0  0  0  0
   -1.5999   -2.7227    1.7810 O   0  0  0  0  0  0  0  0  0  0  0  0
   -2.3659   -0.8447    0.8120 N   0  0  0  0  0  0  0  0  0  0  0  0
   -3.1749   -0.3807    0.4220 H   0  0  0  0  0  0  0  0  0  0  0  0
   -1.0919   -0.1077    0.8170 C   0  0  1  0  0  0  0  0  0  0  0  0
   -0.3571   -0.6901    0.2581 H   0  0  0  0  0  0  0  0  0  0  0  0
   -1.3037    1.2411    0.1040 C   0  0  0  0  0  0  0  0  0  0  0  0
   -1.6015    1.9835    0.8461 H   0  0  0  0  0  0  0  0  0  0  0  0
   -0.3603    1.5639   -0.3405 H   0  0  0  0  0  0  0  0  0  0  0  0
   -2.3848    1.1876   -0.9864 C   0  0  0  0  0  0  0  0  0  0  0  0
   -2.6725    2.2013   -1.2685 H   0  0  0  0  0  0  0  0  0  0  0  0
   -1.9861    0.6732   -1.8629 H   0  0  0  0  0  0  0  0  0  0  0  0
   -3.6223    0.4367   -0.4758 C   0  0  0  0  0  0  0  0  0  0  0  0
   -3.3281   -0.5731   -0.1801 H   0  0  0  0  0  0  0  0  0  0  0  0
   -4.0224    0.9602    0.3948 H   0  0  0  0  0  0  0  0  0  0  0  0
   -4.6928    0.3609   -1.5717 C   0  0  0  0  0  0  0  0  0  0  0  0
   -4.9680    1.3809   -1.8591 H   0  0  0  0  0  0  0  0  0  0  0  0
   -4.2586   -0.1287   -2.4486 H   0  0  0  0  0  0  0  0  0  0  0  0
   -5.8931   -0.3821   -1.1118 N   0  3  0  0  0  0  0  0  0  0  0  0
   -6.3056    0.0722   -0.3067 H   0  0  0  0  0  0  0  0  0  0  0  0
   -6.5891   -0.4234   -1.8459 H   0  0  0  0  0  0  0  0  0  0  0  0
   -5.6452   -1.3300   -0.8529 H   0  0  0  0  0  0  0  0  0  0  0  0
   -0.5865    0.0771    2.2496 C   0  0  0  0  0  0  0  0  0  0  0  0
    0.5860   -0.1608    2.5143 O   0  0  0  0  0  0  0  0  0  0  0  0
   -1.4786    0.4656    3.1667 N   0  0  0  0  0  0  0  0  0  0  0  0
   -2.4139    0.6698    2.8558 H   0  0  0  0  0  0  0  0  0  0  0  0
   -1.1587    0.6908    4.5775 C   0  0  0  0  0  0  0  0  0  0  0  0
   -0.4270    1.4968    4.6656 H   0  0  0  0  0  0  0  0  0  0  0  0
   -2.0565    0.9649    5.1327 H   0  0  0  0  0  0  0  0  0  0  0  0
   -0.7281   -0.2137    5.0125 H   0  0  0  0  0  0  0  0  0  0  0  0
  5  6  2  0  0  0  0
  5  7  1  0  0  0  0
  2  3  1  0  0  0  0
  2  4  1  0  0  0  0
  2  5  1  0  0  0  0
  1  2  1  0  0  0  0
 27 28  2  0  0  0  0
 27 29  1  0  0  0  0
 23 24  1  0  0  0  0
 23 25  1  0  0  0  0
 23 26  1  0  0  0  0
 20 21  1  0  0  0  0
 20 22  1  0  0  0  0
 20 23  1  0  0  0  0
 17 18  1  0  0  0  0
 17 19  1  0  0  0  0
 17 20  1  0  0  0  0
 14 15  1  0  0  0  0
 14 16  1  0  0  0  0
 14 17  1  0  0  0  0
 11 12  1  0  0  0  0
 11 13  1  0  0  0  0
 11 14  1  0  0  0  0
  9 10  1  0  0  0  0
  9 11  1  0  0  0  0
  9 27  1  0  0  0  0
  7  8  1  0  0  0  0
  7  9  1  0  0  0  0
 31 32  1  0  0  0  0
 31 33  1  0  0  0  0
 31 34  1  0  0  0  0
 29 30  1  0  0  0  0
 29 31  1  0  0  0  0
M  CHG  1  23   1
M  END
$$$$
default_name
  -OEChem-02102213163D

 34 33  0     1  0  0  0  0  0999 V2000
   -3.8899   -3.6747    1.6490 H   0  0  0  0  0  0  0  0  0  0  0  0
   -3.9109   -2.6717    1.2250 C   0  0  0  0  0  0  0  0  0  0  0  0
   -4.6009   -2.0517    1.7950 H   0  0  0  0  0  0  0  0  0  0  0  0
   -4.2309   -2.7237    0.1860 H   0  0  0  0  0  0  0  0  0  0  0  0
   -2.5229   -2.0787    1.2980 C   0  0  0  0  0  0  0  0  0  0  0  0
   -1.5999   -2.7227    1.7810 O   0  0  0  0  0  0  0  0  0  0  0  0
   -2.3659   -0.8447    0.8120 N   0  0  0  0  0  0  0  0  0  0  0  0
   -3.1749   -0.3807    0.4220 H   0  0  0  0  0  0  0  0  0  0  0  0
   -1.0919   -0.1077    0.8170 C   0  0  1  0  0  0  0  0  0  0  0  0
   -0.3571   -0.6901    0.2581 H   0  0  0  0  0  0  0  0  0  0  0  0
   -1.3037    1.2411    0.1040 C   0  0  0  0  0  0  0  0  0  0  0  0
   -1.6015    1.9835    0.8461 H   0  0  0  0  0  0  0  0  0  0  0  0
   -0.3603    1.5639   -0.3405 H   0  0  0  0  0  0  0  0  0  0  0  0
   -2.3848    1.1876   -0.9864 C   0  0  0  0  0  0  0  0  0  0  0  0
   -2.4827    2.1678   -1.4550 H   0  0  0  0  0  0  0  0  0  0  0  0
   -2.0949    0.4574   -1.7445 H   0  0  0  0  0  0  0  0  0  0  0  0
   -3.7355    0.7820   -0.3805 C   0  0  0  0  0  0  0  0  0  0  0  0
   -3.6303   -0.1932    0.1009 H   0  0  0  0  0  0  0  0  0  0  0  0
   -4.0252    1.5201    0.3700 H   0  0  0  0  0  0  0  0  0  0  0  0
   -4.8103    0.7040   -1.4720 C   0  0  0  0  0  0  0  0  0  0  0  0
   -4.8949    1.6871   -1.9466 H   0  0  0  0  0  0  0  0  0  0  0  0
   -4.4809   -0.0088   -2.2340 H   0  0  0  0  0  0  0  0  0  0  0  0
   -6.1234    0.2898   -0.9164 N   0  3  0  0  0  0  0  0  0  0  0  0
   -6.4386    0.9514   -0.2180 H   0  0  0  0  0  0  0  0  0  0  0  0
   -6.8210    0.2430   -1.6487 H   0  0  0  0  0  0  0  0  0  0  0  0
   -6.0526   -0.6237   -0.4836 H   0  0  0  0  0  0  0  0  0  0  0  0
   -0.5865    0.0771    2.2496 C   0  0  0  0  0  0  0  0  0  0  0  0
    0.5860   -0.1608    2.5143 O   0  0  0  0  0  0  0  0  0  0  0  0
   -1.4786    0.4656    3.1667 N   0  0  0  0  0  0  0  0  0  0  0  0
   -2.4139    0.6698    2.8558 H   0  0  0  0  0  0  0  0  0  0  0  0
   -1.1587    0.6908    4.5775 C   0  0  0  0  0  0  0  0  0  0  0  0
   -0.4270    1.4968    4.6656 H   0  0  0  0  0  0  0  0  0  0  0  0
   -2.0565    0.9649    5.1327 H   0  0  0  0  0  0  0  0  0  0  0  0
   -0.7281   -0.2137    5.0125 H   0  0  0  0  0  0  0  0  0  0  0  0
  5  6  2  0  0  0  0
  5  7  1  0  0  0  0
  2  3  1  0  0  0  0
  2  4  1  0  0  0  0
  2  5  1  0  0  0  0
  1  2  1  0  0  0  0
 27 28  2  0  0  0  0
 27 29  1  0  0  0  0
 23 24  1  0  0  0  0
 23 25  1  0  0  0  0
 23 26  1  0  0  0  0
 20 21  1  0  0  0  0
 20 22  1  0  0  0  0
 20 23  1  0  0  0  0
 17 18  1  0  0  0  0
 17 19  1  0  0  0  0
 17 20  1  0  0  0  0
 14 15  1  0  0  0  0
 14 16  1  0  0  0  0
 14 17  1  0  0  0  0
 11 12  1  0  0  0  0
 11 13  1  0  0  0  0
 11 14  1  0  0  0  0
  9 10  1  0  0  0  0
  9 11  1  0  0  0  0
  9 27  1  0  0  0  0
  7  8  1  0  0  0  0
  7  9  1  0  0  0  0
 31 32  1  0  0  0  0
 31 33  1  0  0  0  0
 31 34  1  0  0  0  0
 29 30  1  0  0  0  0
 29 31  1  0  0  0  0
M  CHG  1  23   1
M  END
$$$$
default_name
  -OEChem-02102213163D

 34 33  0     1  0  0  0  0  0999 V2000
   -3.8899   -3.6747    1.6490 H   0  0  0  0  0  0  0  0  0  0  0  0
   -3.9109   -2.6717    1.2250 C   0  0  0  0  0  0  0  0  0  0  0  0
   -4.6009   -2.0517    1.7950 H   0  0  0  0  0  0  0  0  0  0  0  0
   -4.2309   -2.7237    0.1860 H   0  0  0  0  0  0  0  0  0  0  0  0
   -2.5229   -2.0787    1.2980 C   0  0  0  0  0  0  0  0  0  0  0  0
   -1.5999   -2.7227    1.7810 O   0  0  0  0  0  0  0  0  0  0  0  0
   -2.3659   -0.8447    0.8120 N   0  0  0  0  0  0  0  0  0  0  0  0
   -3.1749   -0.3807    0.4220 H   0  0  0  0  0  0  0  0  0  0  0  0
   -1.0919   -0.1077    0.8170 C   0  0  1  0  0  0  0  0  0  0  0  0
   -0.3571   -0.6901    0.2581 H   0  0  0  0  0  0  0  0  0  0  0  0
   -1.3037    1.2411    0.1040 C   0  0  0  0  0  0  0  0  0  0  0  0
   -1.6015    1.9835    0.8461 H   0  0  0  0  0  0  0  0  0  0  0  0
   -0.3603    1.5639   -0.3405 H   0  0  0  0  0  0  0  0  0  0  0  0
   -2.3848    1.1876   -0.9864 C   0  0  0  0  0  0  0  0  0  0  0  0
   -2.3039    2.0666   -1.6273 H   0  0  0  0  0  0  0  0  0  0  0  0
   -2.2407    0.2906   -1.5917 H   0  0  0  0  0  0  0  0  0  0  0  0
   -3.7823    1.1536   -0.3524 C   0  0  0  0  0  0  0  0  0  0  0  0
   -3.8549    0.2804    0.3004 H   0  0  0  0  0  0  0  0  0  0  0  0
   -3.9247    2.0569    0.2442 H   0  0  0  0  0  0  0  0  0  0  0  0
   -4.8617    1.0752   -1.4392 C   0  0  0  0  0  0  0  0  0  0  0  0
   -4.7672    1.9534   -2.0862 H   0  0  0  0  0  0  0  0  0  0  0  0
   -4.6756    0.1870   -2.0506 H   0  0  0  0  0  0  0  0  0  0  0  0
   -6.2242    1.0168   -0.8521 N   0  3  0  0  0  0  0  0  0  0  0  0
   -6.4062    1.8413   -0.2936 H   0  0  0  0  0  0  0  0  0  0  0  0
   -6.9243    0.9651   -1.5817 H   0  0  0  0  0  0  0  0  0  0  0  0
   -6.3196    0.2006   -0.2592 H   0  0  0  0  0  0  0  0  0  0  0  0
   -0.5865    0.0771    2.2496 C   0  0  0  0  0  0  0  0  0  0  0  0
    0.5860   -0.1608    2.5143 O   0  0  0  0  0  0  0  0  0  0  0  0
   -1.4786    0.4656    3.1667 N   0  0  0  0  0  0  0  0  0  0  0  0
   -2.4139    0.6698    2.8558 H   0  0  0  0  0  0  0  0  0  0  0  0
   -1.1587    0.6908    4.5775 C   0  0  0  0  0  0  0  0  0  0  0  0
   -0.4270    1.4968    4.6656 H   0  0  0  0  0  0  0  0  0  0  0  0
   -2.0565    0.9649    5.1327 H   0  0  0  0  0  0  0  0  0  0  0  0
   -0.7281   -0.2137    5.0125 H   0  0  0  0  0  0  0  0  0  0  0  0
  5  6  2  0  0  0  0
  5  7  1  0  0  0  0
  2  3  1  0  0  0  0
  2  4  1  0  0  0  0
  2  5  1  0  0  0  0
  1  2  1  0  0  0  0
 27 28  2  0  0  0  0
 27 29  1  0  0  0  0
 23 24  1  0  0  0  0
 23 25  1  0  0  0  0
 23 26  1  0  0  0  0
 20 21  1  0  0  0  0
 20 22  1  0  0  0  0
 20 23  1  0  0  0  0
 17 18  1  0  0  0  0
 17 19  1  0  0  0  0
 17 20  1  0  0  0  0
 14 15  1  0  0  0  0
 14 16  1  0  0  0  0
 14 17  1  0  0  0  0
 11 12  1  0  0  0  0
 11 13  1  0  0  0  0
 11 14  1  0  0  0  0
  9 10  1  0  0  0  0
  9 11  1  0  0  0  0
  9 27  1  0  0  0  0
  7  8  1  0  0  0  0
  7  9  1  0  0  0  0
 31 32  1  0  0  0  0
 31 33  1  0  0  0  0
 31 34  1  0  0  0  0
 29 30  1  0  0  0  0
 29 31  1  0  0  0  0
M  CHG  1  23   1
M  END
$$$$
default_name
  -OEChem-02102213163D

 34 33  0     1  0  0  0  0  0999 V2000
   -3.8899   -3.6747    1.6490 H   0  0  0  0  0  0  0  0  0  0  0  0
   -3.9109   -2.6717    1.2250 C   0  0  0  0  0  0  0  0  0  0  0  0
   -4.6009   -2.0517    1.7950 H   0  0  0  0  0  0  0  0  0  0  0  0
   -4.2309   -2.7237    0.1860 H   0  0  0  0  0  0  0  0  0  0  0  0
   -2.5229   -2.0787    1.2980 C   0  0  0  0  0  0  0  0  0  0  0  0
   -1.5999   -2.7227    1.7810 O   0  0  0  0  0  0  0  0  0  0  0  0
   -2.3659   -0.8447    0.8120 N   0  0  0  0  0  0  0  0  0  0  0  0
   -3.1749   -0.3807    0.4220 H   0  0  0  0  0  0  0  0  0  0  0  0
   -1.0919   -0.1077    0.8170 C   0  0  1  0  0  0  0  0  0  0  0  0
   -0.3571   -0.6901    0.2581 H   0  0  0  0  0  0  0  0  0  0  0  0
   -1.3037    1.2411    0.1040 C   0  0  0  0  0  0  0  0  0  0  0  0
   -1.6015    1.9835    0.8461 H   0  0  0  0  0  0  0  0  0  0  0  0
   -0.3603    1.5639   -0.3405 H   0  0  0  0  0  0  0  0  0  0  0  0
   -2.3848    1.1876   -0.9864 C   0  0  0  0  0  0  0  0  0  0  0  0
   -2.1483    1.9047   -1.7737 H   0  0  0  0  0  0  0  0  0  0  0  0
   -2.4135    0.1840   -1.4151 H   0  0  0  0  0  0  0  0  0  0  0  0
   -3.7594    1.5263   -0.3933 C   0  0  0  0  0  0  0  0  0  0  0  0
   -3.9867    0.8156    0.4049 H   0  0  0  0  0  0  0  0  0  0  0  0
   -3.7280    2.5340    0.0257 H   0  0  0  0  0  0  0  0  0  0  0  0
   -4.8435    1.4490   -1.4756 C   0  0  0  0  0  0  0  0  0  0  0  0
   -4.5938    2.1617   -2.2684 H   0  0  0  0  0  0  0  0  0  0  0  0
   -4.8294    0.4452   -1.9108 H   0  0  0  0  0  0  0  0  0  0  0  0
   -6.1886    1.7492   -0.9233 N   0  3  0  0  0  0  0  0  0  0  0  0
   -6.2109    2.6811   -0.5285 H   0  0  0  0  0  0  0  0  0  0  0  0
   -6.8920    1.6938   -1.6494 H   0  0  0  0  0  0  0  0  0  0  0  0
   -6.4282    1.0868   -0.1950 H   0  0  0  0  0  0  0  0  0  0  0  0
   -0.5865    0.0771    2.2496 C   0  0  0  0  0  0  0  0  0  0  0  0
    0.5860   -0.1608    2.5143 O   0  0  0  0  0  0  0  0  0  0  0  0
   -1.4786    0.4656    3.1667 N   0  0  0  0  0  0  0  0  0  0  0  0
   -2.4139    0.6698    2.8558 H   0  0  0  0  0  0  0  0  0  0  0  0
   -1.1587    0.6908    4.5775 C   0  0  0  0  0  0  0  0  0  0  0  0
   -0.4270    1.4968    4.6656 H   0  0  0  0  0  0  0  0  0  0  0  0
   -2.0565    0.9649    5.1327 H   0  0  0  0  0  0  0  0  0  0  0  0
   -0.7281   -0.2137    5.0125 H   0  0  0  0  0  0  0  0  0  0  0  0
  5  6  2  0  0  0  0
  5  7  1  0  0  0  0
  2  3  1  0  0  0  0
  2  4  1  0  0  0  0
  2  5  1  0  0  0  0
  1  2  1  0  0  0  0
 27 28  2  0  0  0  0
 27 29  1  0  0  0  0
 23 24  1  0  0  0  0
 23 25  1  0  0  0  0
 23 26  1  0  0  0  0
 20 21  1  0  0  0  0
 20 22  1  0  0  0  0
 20 23  1  0  0  0  0
 17 18  1  0  0  0  0
 17 19  1  0  0  0  0
 17 20  1  0  0  0  0
 14 15  1  0  0  0  0
 14 16  1  0  0  0  0
 14 17  1  0  0  0  0
 11 12  1  0  0  0  0
 11 13  1  0  0  0  0
 11 14  1  0  0  0  0
  9 10  1  0  0  0  0
  9 11  1  0  0  0  0
  9 27  1  0  0  0  0
  7  8  1  0  0  0  0
  7  9  1  0  0  0  0
 31 32  1  0  0  0  0
 31 33  1  0  0  0  0
 31 34  1  0  0  0  0
 29 30  1  0  0  0  0
 29 31  1  0  0  0  0
M  CHG  1  23   1
M  END
$$$$
default_name
  -OEChem-02102213163D

 34 33  0     1  0  0  0  0  0999 V2000
   -3.8899   -3.6747    1.6490 H   0  0  0  0  0  0  0  0  0  0  0  0
   -3.9109   -2.6717    1.2250 C   0  0  0  0  0  0  0  0  0  0  0  0
   -4.6009   -2.0517    1.7950 H   0  0  0  0  0  0  0  0  0  0  0  0
   -4.2309   -2.7237    0.1860 H   0  0  0  0  0  0  0  0  0  0  0  0
   -2.5229   -2.0787    1.2980 C   0  0  0  0  0  0  0  0  0  0  0  0
   -1.5999   -2.7227    1.7810 O   0  0  0  0  0  0  0  0  0  0  0  0
   -2.3659   -0.8447    0.8120 N   0  0  0  0  0  0  0  0  0  0  0  0
   -3.1749   -0.3807    0.4220 H   0  0  0  0  0  0  0  0  0  0  0  0
   -1.0919   -0.1077    0.8170 C   0  0  1  0  0  0  0  0  0  0  0  0
   -0.3571   -0.6901    0.2581 H   0  0  0  0  0  0  0  0  0  0  0  0
   -1.3037    1.2411    0.1040 C   0  0  0  0  0  0  0  0  0  0  0  0
   -1.6015    1.9835    0.8461 H   0  0  0  0  0  0  0  0  0  0  0  0
   -0.3603    1.5639   -0.3405 H   0  0  0  0  0  0  0  0  0  0  0  0
   -2.3848    1.1876   -0.9864 C   0  0  0  0  0  0  0  0  0  0  0  0
   -2.0263    1.6930   -1.8842 H   0  0  0  0  0  0  0  0  0  0  0  0
   -2.6016    0.1450   -1.2267 H   0  0  0  0  0  0  0  0  0  0  0  0
   -3.6685    1.8746   -0.5005 C   0  0  0  0  0  0  0  0  0  0  0  0
   -4.0167    1.3757    0.4071 H   0  0  0  0  0  0  0  0  0  0  0  0
   -3.4483    2.9190   -0.2704 H   0  0  0  0  0  0  0  0  0  0  0  0
   -4.7569    1.8002   -1.5787 C   0  0  0  0  0  0  0  0  0  0  0  0
   -4.3863    2.2979   -2.4808 H   0  0  0  0  0  0  0  0  0  0  0  0
   -4.9317    0.7484   -1.8242 H   0  0  0  0  0  0  0  0  0  0  0  0
   -6.0190    2.4372   -1.1252 N   0  3  0  0  0  0  0  0  0  0  0  0
   -5.8658    3.4137   -0.9065 H   0  0  0  0  0  0  0  0  0  0  0  0
   -6.7264    2.3794   -1.8472 H   0  0  0  0  0  0  0  0  0  0  0  0
   -6.3710    1.9744   -0.2953 H   0  0  0  0  0  0  0  0  0  0  0  0
   -0.5865    0.0771    2.2496 C   0  0  0  0  0  0  0  0  0  0  0  0
    0.5860   -0.1608    2.5143 O   0  0  0  0  0  0  0  0  0  0  0  0
   -1.4786    0.4656    3.1667 N   0  0  0  0  0  0  0  0  0  0  0  0
   -2.4139    0.6698    2.8558 H   0  0  0  0  0  0  0  0  0  0  0  0
   -1.1587    0.6908    4.5775 C   0  0  0  0  0  0  0  0  0  0  0  0
   -0.4270    1.4968    4.6656 H   0  0  0  0  0  0  0  0  0  0  0  0
   -2.0565    0.9649    5.1327 H   0  0  0  0  0  0  0  0  0  0  0  0
   -0.7281   -0.2137    5.0125 H   0  0  0  0  0  0  0  0  0  0  0  0
  5  6  2  0  0  0  0
  5  7  1  0  0  0  0
  2  3  1  0  0  0  0
  2  4  1  0  0  0  0
  2  5  1  0  0  0  0
  1  2  1  0  0  0  0
 27 28  2  0  0  0  0
 27 29  1  0  0  0  0
 23 24  1  0  0  0  0
 23 25  1  0  0  0  0
 23 26  1  0  0  0  0
 20 21  1  0  0  0  0
 20 22  1  0  0  0  0
 20 23  1  0  0  0  0
 17 18  1  0  0  0  0
 17 19  1  0  0  0  0
 17 20  1  0  0  0  0
 14 15  1  0  0  0  0
 14 16  1  0  0  0  0
 14 17  1  0  0  0  0
 11 12  1  0  0  0  0
 11 13  1  0  0  0  0
 11 14  1  0  0  0  0
  9 10  1  0  0  0  0
  9 11  1  0  0  0  0
  9 27  1  0  0  0  0
  7  8  1  0  0  0  0
  7  9  1  0  0  0  0
 31 32  1  0  0  0  0
 31 33  1  0  0  0  0
 31 34  1  0  0  0  0
 29 30  1  0  0  0  0
 29 31  1  0  0  0  0
M  CHG  1  23   1
M  END
$$$$
default_name
  -OEChem-02102213163D

 34 33  0     1  0  0  0  0  0999 V2000
   -3.8899   -3.6747    1.6490 H   0  0  0  0  0  0  0  0  0  0  0  0
   -3.9109   -2.6717    1.2250 C   0  0  0  0  0  0  0  0  0  0  0  0
   -4.6009   -2.0517    1.7950 H   0  0  0  0  0  0  0  0  0  0  0  0
   -4.2309   -2.7237    0.1860 H   0  0  0  0  0  0  0  0  0  0  0  0
   -2.5229   -2.0787    1.2980 C   0  0  0  0  0  0  0  0  0  0  0  0
   -1.5999   -2.7227    1.7810 O   0  0  0  0  0  0  0  0  0  0  0  0
   -2.3659   -0.8447    0.8120 N   0  0  0  0  0  0  0  0  0  0  0  0
   -3.1749   -0.3807    0.4220 H   0  0  0  0  0  0  0  0  0  0  0  0
   -1.0919   -0.1077    0.8170 C   0  0  1  0  0  0  0  0  0  0  0  0
   -0.3571   -0.6901    0.2581 H   0  0  0  0  0  0  0  0  0  0  0  0
   -1.3037    1.2411    0.1040 C   0  0  0  0  0  0  0  0  0  0  0  0
   -1.6015    1.9835    0.8461 H   0  0  0  0  0  0  0  0  0  0  0  0
   -0.3603    1.5639   -0.3405 H   0  0  0  0  0  0  0  0  0  0  0  0
   -2.3848    1.1876   -0.9864 C   0  0  0  0  0  0  0  0  0  0  0  0
   -1.9465    1.4460   -1.9513 H   0  0  0  0  0  0  0  0  0  0  0  0
   -2.7922    0.1761   -1.0393 H   0  0  0  0  0  0  0  0  0  0  0  0
   -3.5158    2.1749   -0.6667 C   0  0  0  0  0  0  0  0  0  0  0  0
   -3.9427    1.9226    0.3070 H   0  0  0  0  0  0  0  0  0  0  0  0
   -3.1048    3.1855   -0.6240 H   0  0  0  0  0  0  0  0  0  0  0  0
   -4.6078    2.1047   -1.7415 C   0  0  0  0  0  0  0  0  0  0  0  0
   -4.1590    2.3527   -2.7088 H   0  0  0  0  0  0  0  0  0  0  0  0
   -4.9757    1.0757   -1.7967 H   0  0  0  0  0  0  0  0  0  0  0  0
   -5.7270    3.0338   -1.4439 N   0  3  0  0  0  0  0  0  0  0  0  0
   -5.3945    3.9891   -1.4020 H   0  0  0  0  0  0  0  0  0  0  0  0
   -6.4386    2.9753   -2.1617 H   0  0  0  0  0  0  0  0  0  0  0  0
   -6.1517    2.8029   -0.5533 H   0  0  0  0  0  0  0  0  0  0  0  0
   -0.5865    0.0771    2.2496 C   0  0  0  0  0  0  0  0  0  0  0  0
    0.5860   -0.1608    2.5143 O   0  0  0  0  0  0  0  0  0  0  0  0
   -1.4786    0.4656    3.1667 N   0  0  0  0  0  0  0  0  0  0  0  0
   -2.4139    0.6698    2.8558 H   0  0  0  0  0  0  0  0  0  0  0  0
   -1.1587    0.6908    4.5775 C   0  0  0  0  0  0  0  0  0  0  0  0
   -0.4270    1.4968    4.6656 H   0  0  0  0  0  0  0  0  0  0  0  0
   -2.0565    0.9649    5.1327 H   0  0  0  0  0  0  0  0  0  0  0  0
   -0.7281   -0.2137    5.0125 H   0  0  0  0  0  0  0  0  0  0  0  0
  5  6  2  0  0  0  0
  5  7  1  0  0  0  0
  2  3  1  0  0  0  0
  2  4  1  0  0  0  0
  2  5  1  0  0  0  0
  1  2  1  0  0  0  0
 27 28  2  0  0  0  0
 27 29  1  0  0  0  0
 23 24  1  0  0  0  0
 23 25  1  0  0  0  0
 23 26  1  0  0  0  0
 20 21  1  0  0  0  0
 20 22  1  0  0  0  0
 20 23  1  0  0  0  0
 17 18  1  0  0  0  0
 17 19  1  0  0  0  0
 17 20  1  0  0  0  0
 14 15  1  0  0  0  0
 14 16  1  0  0  0  0
 14 17  1  0  0  0  0
 11 12  1  0  0  0  0
 11 13  1  0  0  0  0
 11 14  1  0  0  0  0
  9 10  1  0  0  0  0
  9 11  1  0  0  0  0
  9 27  1  0  0  0  0
  7  8  1  0  0  0  0
  7  9  1  0  0  0  0
 31 32  1  0  0  0  0
 31 33  1  0  0  0  0
 31 34  1  0  0  0  0
 29 30  1  0  0  0  0
 29 31  1  0  0  0  0
M  CHG  1  23   1
M  END
$$$$
default_name
  -OEChem-02102213163D

 34 33  0     1  0  0  0  0  0999 V2000
   -3.8899   -3.6747    1.6490 H   0  0  0  0  0  0  0  0  0  0  0  0
   -3.9109   -2.6717    1.2250 C   0  0  0  0  0  0  0  0  0  0  0  0
   -4.6009   -2.0517    1.7950 H   0  0  0  0  0  0  0  0  0  0  0  0
   -4.2309   -2.7237    0.1860 H   0  0  0  0  0  0  0  0  0  0  0  0
   -2.5229   -2.0787    1.2980 C   0  0  0  0  0  0  0  0  0  0  0  0
   -1.5999   -2.7227    1.7810 O   0  0  0  0  0  0  0  0  0  0  0  0
   -2.3659   -0.8447    0.8120 N   0  0  0  0  0  0  0  0  0  0  0  0
   -3.1749   -0.3807    0.4220 H   0  0  0  0  0  0  0  0  0  0  0  0
   -1.0919   -0.1077    0.8170 C   0  0  1  0  0  0  0  0  0  0  0  0
   -0.3571   -0.6901    0.2581 H   0  0  0  0  0  0  0  0  0  0  0  0
   -1.3037    1.2411    0.1040 C   0  0  0  0  0  0  0  0  0  0  0  0
   -1.6015    1.9835    0.8461 H   0  0  0  0  0  0  0  0  0  0  0  0
   -0.3603    1.5639   -0.3405 H   0  0  0  0  0  0  0  0  0  0  0  0
   -2.3848    1.1876   -0.9864 C   0  0  0  0  0  0  0  0  0  0  0  0
   -1.9141    1.1805   -1.9704 H   0  0  0  0  0  0  0  0  0  0  0  0
   -2.9723    0.2754   -0.8656 H   0  0  0  0  0  0  0  0  0  0  0  0
   -3.3116    2.4066   -0.8805 C   0  0  0  0  0  0  0  0  0  0  0  0
   -3.7699    2.4191    0.1113 H   0  0  0  0  0  0  0  0  0  0  0  0
   -2.7209    3.3155   -1.0111 H   0  0  0  0  0  0  0  0  0  0  0  0
   -4.4063    2.3419   -1.9528 C   0  0  0  0  0  0  0  0  0  0  0  0
   -3.9272    2.3224   -2.9371 H   0  0  0  0  0  0  0  0  0  0  0  0
   -4.9582    1.4051   -1.8301 H   0  0  0  0  0  0  0  0  0  0  0  0
   -5.3325    3.4984   -1.8578 N   0  3  0  0  0  0  0  0  0  0  0  0
   -4.8292    4.3680   -1.9811 H   0  0  0  0  0  0  0  0  0  0  0  0
   -6.0485    3.4407   -2.5713 H   0  0  0  0  0  0  0  0  0  0  0  0
   -5.7853    3.5160   -0.9514 H   0  0  0  0  0  0  0  0  0  0  0  0
   -0.5865    0.0771    2.2496 C   0  0  0  0  0  0  0  0  0  0  0  0
    0.5860   -0.1608    2.5143 O   0  0  0  0  0  0  0  0  0  0  0  0
   -1.4786    0.4656    3.1667 N   0  0  0  0  0  0  0  0  0  0  0  0
   -2.4139    0.6698    2.8558 H   0  0  0  0  0  0  0  0  0  0  0  0
   -1.1587    0.6908    4.5775 C   0  0  0  0  0  0  0  0  0  0  0  0
   -0.4270    1.4968    4.6656 H   0  0  0  0  0  0  0  0  0  0  0  0
   -2.0565    0.9649    5.1327 H   0  0  0  0  0  0  0  0  0  0  0  0
   -0.7281   -0.2137    5.0125 H   0  0  0  0  0  0  0  0  0  0  0  0
  5  6  2  0  0  0  0
  5  7  1  0  0  0  0
  2  3  1  0  0  0  0
  2  4  1  0  0  0  0
  2  5  1  0  0  0  0
  1  2  1  0  0  0  0
 27 28  2  0  0  0  0
 27 29  1  0  0  0  0
 23 24  1  0  0  0  0
 23 25  1  0  0  0  0
 23 26  1  0  0  0  0
 20 21  1  0  0  0  0
 20 22  1  0  0  0  0
 20 23  1  0  0  0  0
 17 18  1  0  0  0  0
 17 19  1  0  0  0  0
 17 20  1  0  0  0  0
 14 15  1  0  0  0  0
 14 16  1  0  0  0  0
 14 17  1  0  0  0  0
 11 12  1  0  0  0  0
 11 13  1  0  0  0  0
 11 14  1  0  0  0  0
  9 10  1  0  0  0  0
  9 11  1  0  0  0  0
  9 27  1  0  0  0  0
  7  8  1  0  0  0  0
  7  9  1  0  0  0  0
 31 32  1  0  0  0  0
 31 33  1  0  0  0  0
 31 34  1  0  0  0  0
 29 30  1  0  0  0  0
 29 31  1  0  0  0  0
M  CHG  1  23   1
M  END
$$$$
default_name
  -OEChem-02102213163D

 34 33  0     1  0  0  0  0  0999 V2000
   -3.8899   -3.6747    1.6490 H   0  0  0  0  0  0  0  0  0  0  0  0
   -3.9109   -2.6717    1.2250 C   0  0  0  0  0  0  0  0  0  0  0  0
   -4.6009   -2.0517    1.7950 H   0  0  0  0  0  0  0  0  0  0  0  0
   -4.2309   -2.7237    0.1860 H   0  0  0  0  0  0  0  0  0  0  0  0
   -2.5229   -2.0787    1.2980 C   0  0  0  0  0  0  0  0  0  0  0  0
   -1.5999   -2.7227    1.7810 O   0  0  0  0  0  0  0  0  0  0  0  0
   -2.3659   -0.8447    0.8120 N   0  0  0  0  0  0  0  0  0  0  0  0
   -3.1749   -0.3807    0.4220 H   0  0  0  0  0  0  0  0  0  0  0  0
   -1.0919   -0.1077    0.8170 C   0  0  1  0  0  0  0  0  0  0  0  0
   -0.3571   -0.6901    0.2581 H   0  0  0  0  0  0  0  0  0  0  0  0
   -1.3037    1.2411    0.1040 C   0  0  0  0  0  0  0  0  0  0  0  0
   -1.6015    1.9835    0.8461 H   0  0  0  0  0  0  0  0  0  0  0  0
   -0.3603    1.5639   -0.3405 H   0  0  0  0  0  0  0  0  0  0  0  0
   -2.3848    1.1876   -0.9864 C   0  0  0  0  0  0  0  0  0  0  0  0
   -1.9314    0.9146   -1.9402 H   0  0  0  0  0  0  0  0  0  0  0  0
   -3.1295    0.4360   -0.7176 H   0  0  0  0  0  0  0  0  0  0  0  0
   -3.0699    2.5539   -1.1273 C   0  0  0  0  0  0  0  0  0  0  0  0
   -3.5101    2.8313   -0.1665 H   0  0  0  0  0  0  0  0  0  0  0  0
   -2.3227    3.3000   -1.4051 H   0  0  0  0  0  0  0  0  0  0  0  0
   -4.1663    2.4954   -2.1983 C   0  0  0  0  0  0  0  0  0  0  0  0
   -3.7069    2.2089   -3.1499 H   0  0  0  0  0  0  0  0  0  0  0  0
   -4.8806    1.7139   -1.9222 H   0  0  0  0  0  0  0  0  0  0  0  0
   -4.8624    3.7993   -2.3387 N   0  3  0  0  0  0  0  0  0  0  0  0
   -4.2082    4.5248   -2.6044 H   0  0  0  0  0  0  0  0  0  0  0  0
   -5.5824    3.7439   -3.0483 H   0  0  0  0  0  0  0  0  0  0  0  0
   -5.2969    4.0649   -1.4626 H   0  0  0  0  0  0  0  0  0  0  0  0
   -0.5865    0.0771    2.2496 C   0  0  0  0  0  0  0  0  0  0  0  0
    0.5860   -0.1608    2.5143 O   0  0  0  0  0  0  0  0  0  0  0  0
   -1.4786    0.4656    3.1667 N   0  0  0  0  0  0  0  0  0  0  0  0
   -2.4139    0.6698    2.8558 H   0  0  0  0  0  0  0  0  0  0  0  0
   -1.1587    0.6908    4.5775 C   0  0  0  0  0  0  0  0  0  0  0  0
   -0.4270    1.4968    4.6656 H   0  0  0  0  0  0  0  0  0  0  0  0
   -2.0565    0.9649    5.1327 H   0  0  0  0  0  0  0  0  0  0  0  0
   -0.7281   -0.2137    5.0125 H   0  0  0  0  0  0  0  0  0  0  0  0
  5  6  2  0  0  0  0
  5  7  1  0  0  0  0
  2  3  1  0  0  0  0
  2  4  1  0  0  0  0
  2  5  1  0  0  0  0
  1  2  1  0  0  0  0
 27 28  2  0  0  0  0
 27 29  1  0  0  0  0
 23 24  1  0  0  0  0
 23 25  1  0  0  0  0
 23 26  1  0  0  0  0
 20 21  1  0  0  0  0
 20 22  1  0  0  0  0
 20 23  1  0  0  0  0
 17 18  1  0  0  0  0
 17 19  1  0  0  0  0
 17 20  1  0  0  0  0
 14 15  1  0  0  0  0
 14 16  1  0  0  0  0
 14 17  1  0  0  0  0
 11 12  1  0  0  0  0
 11 13  1  0  0  0  0
 11 14  1  0  0  0  0
  9 10  1  0  0  0  0
  9 11  1  0  0  0  0
  9 27  1  0  0  0  0
  7  8  1  0  0  0  0
  7  9  1  0  0  0  0
 31 32  1  0  0  0  0
 31 33  1  0  0  0  0
 31 34  1  0  0  0  0
 29 30  1  0  0  0  0
 29 31  1  0  0  0  0
M  CHG  1  23   1
M  END
$$$$
default_name
  -OEChem-02102213163D

 34 33  0     1  0  0  0  0  0999 V2000
   -3.8899   -3.6747    1.6490 H   0  0  0  0  0  0  0  0  0  0  0  0
   -3.9109   -2.6717    1.2250 C   0  0  0  0  0  0  0  0  0  0  0  0
   -4.6009   -2.0517    1.7950 H   0  0  0  0  0  0  0  0  0  0  0  0
   -4.2309   -2.7237    0.1860 H   0  0  0  0  0  0  0  0  0  0  0  0
   -2.5229   -2.0787    1.2980 C   0  0  0  0  0  0  0  0  0  0  0  0
   -1.5999   -2.7227    1.7810 O   0  0  0  0  0  0  0  0  0  0  0  0
   -2.3659   -0.8447    0.8120 N   0  0  0  0  0  0  0  0  0  0  0  0
   -3.1749   -0.3807    0.4220 H   0  0  0  0  0  0  0  0  0  0  0  0
   -1.0919   -0.1077    0.8170 C   0  0  1  0  0  0  0  0  0  0  0  0
   -0.3571   -0.6901    0.2581 H   0  0  0  0  0  0  0  0  0  0  0  0
   -1.3037    1.2411    0.1040 C   0  0  0  0  0  0  0  0  0  0  0  0
   -1.6015    1.9835    0.8461 H   0  0  0  0  0  0  0  0  0  0  0  0
   -0.3603    1.5639   -0.3405 H   0  0  0  0  0  0  0  0  0  0  0  0
   -2.3848    1.1876   -0.9864 C   0  0  0  0  0  0  0  0  0  0  0  0
   -1.9972    0.6665   -1.8628 H   0  0  0  0  0  0  0  0  0  0  0  0
   -3.2533    0.6469   -0.6053 H   0  0  0  0  0  0  0  0  0  0  0  0
   -2.8071    2.6069   -1.3904 C   0  0  0  0  0  0  0  0  0  0  0  0
   -3.1808    3.1311   -0.5076 H   0  0  0  0  0  0  0  0  0  0  0  0
   -1.9373    3.1401   -1.7793 H   0  0  0  0  0  0  0  0  0  0  0  0
   -3.9041    2.5550   -2.4612 C   0  0  0  0  0  0  0  0  0  0  0  0
   -3.5131    2.0201   -3.3329 H   0  0  0  0  0  0  0  0  0  0  0  0
   -4.7481    1.9811   -2.0667 H   0  0  0  0  0  0  0  0  0  0  0  0
   -4.3487    3.9161   -2.8537 N   0  3  0  0  0  0  0  0  0  0  0  0
   -3.5740    4.4486   -3.2294 H   0  0  0  0  0  0  0  0  0  0  0  0
   -5.0722    3.8644   -3.5600 H   0  0  0  0  0  0  0  0  0  0  0  0
   -4.7197    4.4124   -2.0519 H   0  0  0  0  0  0  0  0  0  0  0  0
   -0.5865    0.0771    2.2496 C   0  0  0  0  0  0  0  0  0  0  0  0
    0.5860   -0.1608    2.5143 O   0  0  0  0  0  0  0  0  0  0  0  0
   -1.4786    0.4656    3.1667 N   0  0  0  0  0  0  0  0  0  0  0  0
   -2.4139    0.6698    2.8558 H   0  0  0  0  0  0  0  0  0  0  0  0
   -1.1587    0.6908    4.5775 C   0  0  0  0  0  0  0  0  0  0  0  0
   -0.4270    1.4968    4.6656 H   0  0  0  0  0  0  0  0  0  0  0  0
   -2.0565    0.9649    5.1327 H   0  0  0  0  0  0  0  0  0  0  0  0
   -0.7281   -0.2137    5.0125 H   0  0  0  0  0  0  0  0  0  0  0  0
  5  6  2  0  0  0  0
  5  7  1  0  0  0  0
  2  3  1  0  0  0  0
  2  4  1  0  0  0  0
  2  5  1  0  0  0  0
  1  2  1  0  0  0  0
 27 28  2  0  0  0  0
 27 29  1  0  0  0  0
 23 24  1  0  0  0  0
 23 25  1  0  0  0  0
 23 26  1  0  0  0  0
 20 21  1  0  0  0  0
 20 22  1  0  0  0  0
 20 23  1  0  0  0  0
 17 18  1  0  0  0  0
 17 19  1  0  0  0  0
 17 20  1  0  0  0  0
 14 15  1  0  0  0  0
 14 16  1  0  0  0  0
 14 17  1  0  0  0  0
 11 12  1  0  0  0  0
 11 13  1  0  0  0  0
 11 14  1  0  0  0  0
  9 10  1  0  0  0  0
  9 11  1  0  0  0  0
  9 27  1  0  0  0  0
  7  8  1  0  0  0  0
  7  9  1  0  0  0  0
 31 32  1  0  0  0  0
 31 33  1  0  0  0  0
 31 34  1  0  0  0  0
 29 30  1  0  0  0  0
 29 31  1  0  0  0  0
M  CHG  1  23   1
M  END
$$$$
default_name
  -OEChem-02102213163D

 34 33  0     1  0  0  0  0  0999 V2000
   -3.8899   -3.6747    1.6490 H   0  0  0  0  0  0  0  0  0  0  0  0
   -3.9109   -2.6717    1.2250 C   0  0  0  0  0  0  0  0  0  0  0  0
   -4.6009   -2.0517    1.7950 H   0  0  0  0  0  0  0  0  0  0  0  0
   -4.2309   -2.7237    0.1860 H   0  0  0  0  0  0  0  0  0  0  0  0
   -2.5229   -2.0787    1.2980 C   0  0  0  0  0  0  0  0  0  0  0  0
   -1.5999   -2.7227    1.7810 O   0  0  0  0  0  0  0  0  0  0  0  0
   -2.3659   -0.8447    0.8120 N   0  0  0  0  0  0  0  0  0  0  0  0
   -3.1749   -0.3807    0.4220 H   0  0  0  0  0  0  0  0  0  0  0  0
   -1.0919   -0.1077    0.8170 C   0  0  1  0  0  0  0  0  0  0  0  0
   -0.3571   -0.6901    0.2581 H   0  0  0  0  0  0  0  0  0  0  0  0
   -1.3037    1.2411    0.1040 C   0  0  0  0  0  0  0  0  0  0  0  0
   -1.3359    2.0307    0.8564 H   0  0  0  0  0  0  0  0  0  0  0  0
   -0.4562    1.4348   -0.5564 H   0  0  0  0  0  0  0  0  0  0  0  0
   -2.6043    1.2983   -0.7119 C   0  0  0  0  0  0  0  0  0  0  0  0
   -2.5940    0.5186   -1.4747 H   0  0  0  0  0  0  0  0  0  0  0  0
   -3.4538    1.1343   -0.0460 H   0  0  0  0  0  0  0  0  0  0  0  0
   -2.7488    2.6665   -1.3923 C   0  0  0  0  0  0  0  0  0  0  0  0
   -2.7437    3.4462   -0.6268 H   0  0  0  0  0  0  0  0  0  0  0  0
   -1.9019    2.8215   -2.0638 H   0  0  0  0  0  0  0  0  0  0  0  0
   -4.0589    2.7338   -2.1871 C   0  0  0  0  0  0  0  0  0  0  0  0
   -4.0477    1.9413   -2.9424 H   0  0  0  0  0  0  0  0  0  0  0  0
   -4.8903    2.5344   -1.5043 H   0  0  0  0  0  0  0  0  0  0  0  0
   -4.2357    4.0570   -2.8370 N   0  3  0  0  0  0  0  0  0  0  0  0
   -3.4745    4.2428   -3.4781 H   0  0  0  0  0  0  0  0  0  0  0  0
   -5.1041    4.0852   -3.3566 H   0  0  0  0  0  0  0  0  0  0  0  0
   -4.2556    4.7935   -2.1412 H   0  0  0  0  0  0  0  0  0  0  0  0
   -0.5865    0.0771    2.2496 C   0  0  0  0  0  0  0  0  0  0  0  0
    0.5860   -0.1608    2.5143 O   0  0  0  0  0  0  0  0  0  0  0  0
   -1.4786    0.4656    3.1667 N   0  0  0  0  0  0  0  0  0  0  0  0
   -2.4139    0.6698    2.8558 H   0  0  0  0  0  0  0  0  0  0  0  0
   -1.1587    0.6908    4.5775 C   0  0  0  0  0  0  0  0  0  0  0  0
   -0.4270    1.4968    4.6656 H   0  0  0  0  0  0  0  0  0  0  0  0
   -2.0565    0.9649    5.1327 H   0  0  0  0  0  0  0  0  0  0  0  0
   -0.7281   -0.2137    5.0125 H   0  0  0  0  0  0  0  0  0  0  0  0
  5  6  2  0  0  0  0
  5  7  1  0  0  0  0
  2  3  1  0  0  0  0
  2  4  1  0  0  0  0
  2  5  1  0  0  0  0
  1  2  1  0  0  0  0
 27 28  2  0  0  0  0
 27 29  1  0  0  0  0
 23 24  1  0  0  0  0
 23 25  1  0  0  0  0
 23 26  1  0  0  0  0
 20 21  1  0  0  0  0
 20 22  1  0  0  0  0
 20 23  1  0  0  0  0
 17 18  1  0  0  0  0
 17 19  1  0  0  0  0
 17 20  1  0  0  0  0
 14 15  1  0  0  0  0
 14 16  1  0  0  0  0
 14 17  1  0  0  0  0
 11 12  1  0  0  0  0
 11 13  1  0  0  0  0
 11 14  1  0  0  0  0
  9 10  1  0  0  0  0
  9 11  1  0  0  0  0
  9 27  1  0  0  0  0
  7  8  1  0  0  0  0
  7  9  1  0  0  0  0
 31 32  1  0  0  0  0
 31 33  1  0  0  0  0
 31 34  1  0  0  0  0
 29 30  1  0  0  0  0
 29 31  1  0  0  0  0
M  CHG  1  23   1
M  END
$$$$
default_name
  -OEChem-02102213163D

 34 33  0     1  0  0  0  0  0999 V2000
   -3.8899   -3.6747    1.6490 H   0  0  0  0  0  0  0  0  0  0  0  0
   -3.9109   -2.6717    1.2250 C   0  0  0  0  0  0  0  0  0  0  0  0
   -4.6009   -2.0517    1.7950 H   0  0  0  0  0  0  0  0  0  0  0  0
   -4.2309   -2.7237    0.1860 H   0  0  0  0  0  0  0  0  0  0  0  0
   -2.5229   -2.0787    1.2980 C   0  0  0  0  0  0  0  0  0  0  0  0
   -1.5999   -2.7227    1.7810 O   0  0  0  0  0  0  0  0  0  0  0  0
   -2.3659   -0.8447    0.8120 N   0  0  0  0  0  0  0  0  0  0  0  0
   -3.1749   -0.3807    0.4220 H   0  0  0  0  0  0  0  0  0  0  0  0
   -1.0919   -0.1077    0.8170 C   0  0  1  0  0  0  0  0  0  0  0  0
   -0.3571   -0.6901    0.2581 H   0  0  0  0  0  0  0  0  0  0  0  0
   -1.3037    1.2411    0.1040 C   0  0  0  0  0  0  0  0  0  0  0  0
   -1.3359    2.0307    0.8564 H   0  0  0  0  0  0  0  0  0  0  0  0
   -0.4562    1.4348   -0.5564 H   0  0  0  0  0  0  0  0  0  0  0  0
   -2.6043    1.2983   -0.7119 C   0  0  0  0  0  0  0  0  0  0  0  0
   -2.7195    0.3771   -1.2847 H   0  0  0  0  0  0  0  0  0  0  0  0
   -3.4514    1.4030   -0.0311 H   0  0  0  0  0  0  0  0  0  0  0  0
   -2.5778    2.4913   -1.6772 C   0  0  0  0  0  0  0  0  0  0  0  0
   -2.4473    3.4109   -1.1018 H   0  0  0  0  0  0  0  0  0  0  0  0
   -1.7347    2.3770   -2.3615 H   0  0  0  0  0  0  0  0  0  0  0  0
   -3.8859    2.5643   -2.4748 C   0  0  0  0  0  0  0  0  0  0  0  0
   -4.0017    1.6322   -3.0374 H   0  0  0  0  0  0  0  0  0  0  0  0
   -4.7194    2.6359   -1.7696 H   0  0  0  0  0  0  0  0  0  0  0  0
   -3.8967    3.7250   -3.4006 N   0  3  0  0  0  0  0  0  0  0  0  0
   -3.1336    3.6589   -4.0625 H   0  0  0  0  0  0  0  0  0  0  0  0
   -4.7659    3.7590   -3.9186 H   0  0  0  0  0  0  0  0  0  0  0  0
   -3.7986    4.5911   -2.8838 H   0  0  0  0  0  0  0  0  0  0  0  0
   -0.5865    0.0771    2.2496 C   0  0  0  0  0  0  0  0  0  0  0  0
    0.5860   -0.1608    2.5143 O   0  0  0  0  0  0  0  0  0  0  0  0
   -1.4786    0.4656    3.1667 N   0  0  0  0  0  0  0  0  0  0  0  0
   -2.4139    0.6698    2.8558 H   0  0  0  0  0  0  0  0  0  0  0  0
   -1.1587    0.6908    4.5775 C   0  0  0  0  0  0  0  0  0  0  0  0
   -0.4270    1.4968    4.6656 H   0  0  0  0  0  0  0  0  0  0  0  0
   -2.0565    0.9649    5.1327 H   0  0  0  0  0  0  0  0  0  0  0  0
   -0.7281   -0.2137    5.0125 H   0  0  0  0  0  0  0  0  0  0  0  0
  5  6  2  0  0  0  0
  5  7  1  0  0  0  0
  2  3  1  0  0  0  0
  2  4  1  0  0  0  0
  2  5  1  0  0  0  0
  1  2  1  0  0  0  0
 27 28  2  0  0  0  0
 27 29  1  0  0  0  0
 23 24  1  0  0  0  0
 23 25  1  0  0  0  0
 23 26  1  0  0  0  0
 20 21  1  0  0  0  0
 20 22  1  0  0  0  0
 20 23  1  0  0  0  0
 17 18  1  0  0  0  0
 17 19  1  0  0  0  0
 17 20  1  0  0  0  0
 14 15  1  0  0  0  0
 14 16  1  0  0  0  0
 14 17  1  0  0  0  0
 11 12  1  0  0  0  0
 11 13  1  0  0  0  0
 11 14  1  0  0  0  0
  9 10  1  0  0  0  0
  9 11  1  0  0  0  0
  9 27  1  0  0  0  0
  7  8  1  0  0  0  0
  7  9  1  0  0  0  0
 31 32  1  0  0  0  0
 31 33  1  0  0  0  0
 31 34  1  0  0  0  0
 29 30  1  0  0  0  0
 29 31  1  0  0  0  0
M  CHG  1  23   1
M  END
$$$$
default_name
  -OEChem-02102213163D

 34 33  0     1  0  0  0  0  0999 V2000
   -3.8899   -3.6747    1.6490 H   0  0  0  0  0  0  0  0  0  0  0  0
   -3.9109   -2.6717    1.2250 C   0  0  0  0  0  0  0  0  0  0  0  0
   -4.6009   -2.0517    1.7950 H   0  0  0  0  0  0  0  0  0  0  0  0
   -4.2309   -2.7237    0.1860 H   0  0  0  0  0  0  0  0  0  0  0  0
   -2.5229   -2.0787    1.2980 C   0  0  0  0  0  0  0  0  0  0  0  0
   -1.5999   -2.7227    1.7810 O   0  0  0  0  0  0  0  0  0  0  0  0
   -2.3659   -0.8447    0.8120 N   0  0  0  0  0  0  0  0  0  0  0  0
   -3.1749   -0.3807    0.4220 H   0  0  0  0  0  0  0  0  0  0  0  0
   -1.0919   -0.1077    0.8170 C   0  0  1  0  0  0  0  0  0  0  0  0
   -0.3571   -0.6901    0.2581 H   0  0  0  0  0  0  0  0  0  0  0  0
   -1.3037    1.2411    0.1040 C   0  0  0  0  0  0  0  0  0  0  0  0
   -1.3359    2.0307    0.8564 H   0  0  0  0  0  0  0  0  0  0  0  0
   -0.4562    1.4348   -0.5564 H   0  0  0  0  0  0  0  0  0  0  0  0
   -2.6043    1.2983   -0.7119 C   0  0  0  0  0  0  0  0  0  0  0  0
   -2.8583    0.2993   -1.0689 H   0  0  0  0  0  0  0  0  0  0  0  0
   -3.4119    1.6655   -0.0756 H   0  0  0  0  0  0  0  0  0  0  0  0
   -2.4394    2.2362   -1.9157 C   0  0  0  0  0  0  0  0  0  0  0  0
   -2.1704    3.2321   -1.5556 H   0  0  0  0  0  0  0  0  0  0  0  0
   -1.6371    1.8596   -2.5533 H   0  0  0  0  0  0  0  0  0  0  0  0
   -3.7448    2.3136   -2.7172 C   0  0  0  0  0  0  0  0  0  0  0  0
   -4.0007    1.3064   -3.0618 H   0  0  0  0  0  0  0  0  0  0  0  0
   -4.5430    2.6523   -2.0497 H   0  0  0  0  0  0  0  0  0  0  0  0
   -3.6204    3.2341   -3.8755 N   0  3  0  0  0  0  0  0  0  0  0  0
   -2.8902    2.9200   -4.5023 H   0  0  0  0  0  0  0  0  0  0  0  0
   -4.4895    3.2742   -4.3933 H   0  0  0  0  0  0  0  0  0  0  0  0
   -3.3922    4.1701   -3.5611 H   0  0  0  0  0  0  0  0  0  0  0  0
   -0.5865    0.0771    2.2496 C   0  0  0  0  0  0  0  0  0  0  0  0
    0.5860   -0.1608    2.5143 O   0  0  0  0  0  0  0  0  0  0  0  0
   -1.4786    0.4656    3.1667 N   0  0  0  0  0  0  0  0  0  0  0  0
   -2.4139    0.6698    2.8558 H   0  0  0  0  0  0  0  0  0  0  0  0
   -1.1587    0.6908    4.5775 C   0  0  0  0  0  0  0  0  0  0  0  0
   -0.4270    1.4968    4.6656 H   0  0  0  0  0  0  0  0  0  0  0  0
   -2.0565    0.9649    5.1327 H   0  0  0  0  0  0  0  0  0  0  0  0
   -0.7281   -0.2137    5.0125 H   0  0  0  0  0  0  0  0  0  0  0  0
  5  6  2  0  0  0  0
  5  7  1  0  0  0  0
  2  3  1  0  0  0  0
  2  4  1  0  0  0  0
  2  5  1  0  0  0  0
  1  2  1  0  0  0  0
 27 28  2  0  0  0  0
 27 29  1  0  0  0  0
 23 24  1  0  0  0  0
 23 25  1  0  0  0  0
 23 26  1  0  0  0  0
 20 21  1  0  0  0  0
 20 22  1  0  0  0  0
 20 23  1  0  0  0  0
 17 18  1  0  0  0  0
 17 19  1  0  0  0  0
 17 20  1  0  0  0  0
 14 15  1  0  0  0  0
 14 16  1  0  0  0  0
 14 17  1  0  0  0  0
 11 12  1  0  0  0  0
 11 13  1  0  0  0  0
 11 14  1  0  0  0  0
  9 10  1  0  0  0  0
  9 11  1  0  0  0  0
  9 27  1  0  0  0  0
  7  8  1  0  0  0  0
  7  9  1  0  0  0  0
 31 32  1  0  0  0  0
 31 33  1  0  0  0  0
 31 34  1  0  0  0  0
 29 30  1  0  0  0  0
 29 31  1  0  0  0  0
M  CHG  1  23   1
M  END
$$$$
default_name
  -OEChem-02102213163D

 34 33  0     1  0  0  0  0  0999 V2000
   -3.8899   -3.6747    1.6490 H   0  0  0  0  0  0  0  0  0  0  0  0
   -3.9109   -2.6717    1.2250 C   0  0  0  0  0  0  0  0  0  0  0  0
   -4.6009   -2.0517    1.7950 H   0  0  0  0  0  0  0  0  0  0  0  0
   -4.2309   -2.7237    0.1860 H   0  0  0  0  0  0  0  0  0  0  0  0
   -2.5229   -2.0787    1.2980 C   0  0  0  0  0  0  0  0  0  0  0  0
   -1.5999   -2.7227    1.7810 O   0  0  0  0  0  0  0  0  0  0  0  0
   -2.3659   -0.8447    0.8120 N   0  0  0  0  0  0  0  0  0  0  0  0
   -3.1749   -0.3807    0.4220 H   0  0  0  0  0  0  0  0  0  0  0  0
   -1.0919   -0.1077    0.8170 C   0  0  1  0  0  0  0  0  0  0  0  0
   -0.3571   -0.6901    0.2581 H   0  0  0  0  0  0  0  0  0  0  0  0
   -1.3037    1.2411    0.1040 C   0  0  0  0  0  0  0  0  0  0  0  0
   -1.3359    2.0307    0.8564 H   0  0  0  0  0  0  0  0  0  0  0  0
   -0.4562    1.4348   -0.5564 H   0  0  0  0  0  0  0  0  0  0  0  0
   -2.6043    1.2983   -0.7119 C   0  0  0  0  0  0  0  0  0  0  0  0
   -3.0010    0.2905   -0.8420 H   0  0  0  0  0  0  0  0  0  0  0  0
   -3.3382    1.9038   -0.1765 H   0  0  0  0  0  0  0  0  0  0  0  0
   -2.3431    1.9185   -2.0914 C   0  0  0  0  0  0  0  0  0  0  0  0
   -1.9319    2.9219   -1.9575 H   0  0  0  0  0  0  0  0  0  0  0  0
   -1.6158    1.3043   -2.6261 H   0  0  0  0  0  0  0  0  0  0  0  0
   -3.6454    1.9991   -2.8978 C   0  0  0  0  0  0  0  0  0  0  0  0
   -4.0447    0.9863   -3.0140 H   0  0  0  0  0  0  0  0  0  0  0  0
   -4.3730    2.5826   -2.3256 H   0  0  0  0  0  0  0  0  0  0  0  0
   -3.4255    2.6180   -4.2293 N   0  3  0  0  0  0  0  0  0  0  0  0
   -2.7608    2.0765   -4.7676 H   0  0  0  0  0  0  0  0  0  0  0  0
   -4.2937    2.6640   -4.7482 H   0  0  0  0  0  0  0  0  0  0  0  0
   -3.0641    3.5591   -4.1270 H   0  0  0  0  0  0  0  0  0  0  0  0
   -0.5865    0.0771    2.2496 C   0  0  0  0  0  0  0  0  0  0  0  0
    0.5860   -0.1608    2.5143 O   0  0  0  0  0  0  0  0  0  0  0  0
   -1.4786    0.4656    3.1667 N   0  0  0  0  0  0  0  0  0  0  0  0
   -2.4139    0.6698    2.8558 H   0  0  0  0  0  0  0  0  0  0  0  0
   -1.1587    0.6908    4.5775 C   0  0  0  0  0  0  0  0  0  0  0  0
   -0.4270    1.4968    4.6656 H   0  0  0  0  0  0  0  0  0  0  0  0
   -2.0565    0.9649    5.1327 H   0  0  0  0  0  0  0  0  0  0  0  0
   -0.7281   -0.2137    5.0125 H   0  0  0  0  0  0  0  0  0  0  0  0
  5  6  2  0  0  0  0
  5  7  1  0  0  0  0
  2  3  1  0  0  0  0
  2  4  1  0  0  0  0
  2  5  1  0  0  0  0
  1  2  1  0  0  0  0
 27 28  2  0  0  0  0
 27 29  1  0  0  0  0
 23 24  1  0  0  0  0
 23 25  1  0  0  0  0
 23 26  1  0  0  0  0
 20 21  1  0  0  0  0
 20 22  1  0  0  0  0
 20 23  1  0  0  0  0
 17 18  1  0  0  0  0
 17 19  1  0  0  0  0
 17 20  1  0  0  0  0
 14 15  1  0  0  0  0
 14 16  1  0  0  0  0
 14 17  1  0  0  0  0
 11 12  1  0  0  0  0
 11 13  1  0  0  0  0
 11 14  1  0  0  0  0
  9 10  1  0  0  0  0
  9 11  1  0  0  0  0
  9 27  1  0  0  0  0
  7  8  1  0  0  0  0
  7  9  1  0  0  0  0
 31 32  1  0  0  0  0
 31 33  1  0  0  0  0
 31 34  1  0  0  0  0
 29 30  1  0  0  0  0
 29 31  1  0  0  0  0
M  CHG  1  23   1
M  END
$$$$
default_name
  -OEChem-02102213163D

 34 33  0     1  0  0  0  0  0999 V2000
   -3.8899   -3.6747    1.6490 H   0  0  0  0  0  0  0  0  0  0  0  0
   -3.9109   -2.6717    1.2250 C   0  0  0  0  0  0  0  0  0  0  0  0
   -4.6009   -2.0517    1.7950 H   0  0  0  0  0  0  0  0  0  0  0  0
   -4.2309   -2.7237    0.1860 H   0  0  0  0  0  0  0  0  0  0  0  0
   -2.5229   -2.0787    1.2980 C   0  0  0  0  0  0  0  0  0  0  0  0
   -1.5999   -2.7227    1.7810 O   0  0  0  0  0  0  0  0  0  0  0  0
   -2.3659   -0.8447    0.8120 N   0  0  0  0  0  0  0  0  0  0  0  0
   -3.1749   -0.3807    0.4220 H   0  0  0  0  0  0  0  0  0  0  0  0
   -1.0919   -0.1077    0.8170 C   0  0  1  0  0  0  0  0  0  0  0  0
   -0.3571   -0.6901    0.2581 H   0  0  0  0  0  0  0  0  0  0  0  0
   -1.3037    1.2411    0.1040 C   0  0  0  0  0  0  0  0  0  0  0  0
   -1.3359    2.0307    0.8564 H   0  0  0  0  0  0  0  0  0  0  0  0
   -0.4562    1.4348   -0.5564 H   0  0  0  0  0  0  0  0  0  0  0  0
   -2.6043    1.2983   -0.7119 C   0  0  0  0  0  0  0  0  0  0  0  0
   -3.1378    0.3513   -0.6196 H   0  0  0  0  0  0  0  0  0  0  0  0
   -3.2351    2.1018   -0.3268 H   0  0  0  0  0  0  0  0  0  0  0  0
   -2.2955    1.5599   -2.1925 C   0  0  0  0  0  0  0  0  0  0  0  0
   -1.7481    2.5015   -2.2801 H   0  0  0  0  0  0  0  0  0  0  0  0
   -1.6723    0.7491   -2.5750 H   0  0  0  0  0  0  0  0  0  0  0  0
   -3.5943    1.6420   -3.0042 C   0  0  0  0  0  0  0  0  0  0  0  0
   -4.1308    0.6936   -2.8974 H   0  0  0  0  0  0  0  0  0  0  0  0
   -4.2210    2.4314   -2.5784 H   0  0  0  0  0  0  0  0  0  0  0  0
   -3.3254    1.9186   -4.4380 N   0  3  0  0  0  0  0  0  0  0  0  0
   -2.7544    1.1859   -4.8404 H   0  0  0  0  0  0  0  0  0  0  0  0
   -4.1918    1.9699   -4.9592 H   0  0  0  0  0  0  0  0  0  0  0  0
   -2.8365    2.8000   -4.5430 H   0  0  0  0  0  0  0  0  0  0  0  0
   -0.5865    0.0771    2.2496 C   0  0  0  0  0  0  0  0  0  0  0  0
    0.5860   -0.1608    2.5143 O   0  0  0  0  0  0  0  0  0  0  0  0
   -1.4786    0.4656    3.1667 N   0  0  0  0  0  0  0  0  0  0  0  0
   -2.4139    0.6698    2.8558 H   0  0  0  0  0  0  0  0  0  0  0  0
   -1.1587    0.6908    4.5775 C   0  0  0  0  0  0  0  0  0  0  0  0
   -0.4270    1.4968    4.6656 H   0  0  0  0  0  0  0  0  0  0  0  0
   -2.0565    0.9649    5.1327 H   0  0  0  0  0  0  0  0  0  0  0  0
   -0.7281   -0.2137    5.0125 H   0  0  0  0  0  0  0  0  0  0  0  0
  5  6  2  0  0  0  0
  5  7  1  0  0  0  0
  2  3  1  0  0  0  0
  2  4  1  0  0  0  0
  2  5  1  0  0  0  0
  1  2  1  0  0  0  0
 27 28  2  0  0  0  0
 27 29  1  0  0  0  0
 23 24  1  0  0  0  0
 23 25  1  0  0  0  0
 23 26  1  0  0  0  0
 20 21  1  0  0  0  0
 20 22  1  0  0  0  0
 20 23  1  0  0  0  0
 17 18  1  0  0  0  0
 17 19  1  0  0  0  0
 17 20  1  0  0  0  0
 14 15  1  0  0  0  0
 14 16  1  0  0  0  0
 14 17  1  0  0  0  0
 11 12  1  0  0  0  0
 11 13  1  0  0  0  0
 11 14  1  0  0  0  0
  9 10  1  0  0  0  0
  9 11  1  0  0  0  0
  9 27  1  0  0  0  0
  7  8  1  0  0  0  0
  7  9  1  0  0  0  0
 31 32  1  0  0  0  0
 31 33  1  0  0  0  0
 31 34  1  0  0  0  0
 29 30  1  0  0  0  0
 29 31  1  0  0  0  0
M  CHG  1  23   1
M  END
$$$$
default_name
  -OEChem-02102213163D

 34 33  0     1  0  0  0  0  0999 V2000
   -3.8899   -3.6747    1.6490 H   0  0  0  0  0  0  0  0  0  0  0  0
   -3.9109   -2.6717    1.2250 C   0  0  0  0  0  0  0  0  0  0  0  0
   -4.6009   -2.0517    1.7950 H   0  0  0  0  0  0  0  0  0  0  0  0
   -4.2309   -2.7237    0.1860 H   0  0  0  0  0  0  0  0  0  0  0  0
   -2.5229   -2.0787    1.2980 C   0  0  0  0  0  0  0  0  0  0  0  0
   -1.5999   -2.7227    1.7810 O   0  0  0  0  0  0  0  0  0  0  0  0
   -2.3659   -0.8447    0.8120 N   0  0  0  0  0  0  0  0  0  0  0  0
   -3.1749   -0.3807    0.4220 H   0  0  0  0  0  0  0  0  0  0  0  0
   -1.0919   -0.1077    0.8170 C   0  0  1  0  0  0  0  0  0  0  0  0
   -0.3571   -0.6901    0.2581 H   0  0  0  0  0  0  0  0  0  0  0  0
   -1.3037    1.2411    0.1040 C   0  0  0  0  0  0  0  0  0  0  0  0
   -1.3359    2.0307    0.8564 H   0  0  0  0  0  0  0  0  0  0  0  0
   -0.4562    1.4348   -0.5564 H   0  0  0  0  0  0  0  0  0  0  0  0
   -2.6043    1.2983   -0.7119 C   0  0  0  0  0  0  0  0  0  0  0  0
   -3.2595    0.4776   -0.4168 H   0  0  0  0  0  0  0  0  0  0  0  0
   -3.1098    2.2460   -0.5165 H   0  0  0  0  0  0  0  0  0  0  0  0
   -2.2997    1.1848   -2.2120 C   0  0  0  0  0  0  0  0  0  0  0  0
   -1.6314    1.9994   -2.5013 H   0  0  0  0  0  0  0  0  0  0  0  0
   -1.8027    0.2317   -2.4034 H   0  0  0  0  0  0  0  0  0  0  0  0
   -3.5950    1.2667   -3.0293 C   0  0  0  0  0  0  0  0  0  0  0  0
   -4.2530    0.4482   -2.7197 H   0  0  0  0  0  0  0  0  0  0  0  0
   -4.0975    2.2091   -2.7910 H   0  0  0  0  0  0  0  0  0  0  0  0
   -3.3268    1.1835   -4.4872 N   0  3  0  0  0  0  0  0  0  0  0  0
   -2.8713    0.3087   -4.7155 H   0  0  0  0  0  0  0  0  0  0  0  0
   -4.1909    1.2393   -5.0119 H   0  0  0  0  0  0  0  0  0  0  0  0
   -2.7251    1.9442   -4.7806 H   0  0  0  0  0  0  0  0  0  0  0  0
   -0.5865    0.0771    2.2496 C   0  0  0  0  0  0  0  0  0  0  0  0
    0.5860   -0.1608    2.5143 O   0  0  0  0  0  0  0  0  0  0  0  0
   -1.4786    0.4656    3.1667 N   0  0  0  0  0  0  0  0  0  0  0  0
   -2.4139    0.6698    2.8558 H   0  0  0  0  0  0  0  0  0  0  0  0
   -1.1587    0.6908    4.5775 C   0  0  0  0  0  0  0  0  0  0  0  0
   -0.4270    1.4968    4.6656 H   0  0  0  0  0  0  0  0  0  0  0  0
   -2.0565    0.9649    5.1327 H   0  0  0  0  0  0  0  0  0  0  0  0
   -0.7281   -0.2137    5.0125 H   0  0  0  0  0  0  0  0  0  0  0  0
  5  6  2  0  0  0  0
  5  7  1  0  0  0  0
  2  3  1  0  0  0  0
  2  4  1  0  0  0  0
  2  5  1  0  0  0  0
  1  2  1  0  0  0  0
 27 28  2  0  0  0  0
 27 29  1  0  0  0  0
 23 24  1  0  0  0  0
 23 25  1  0  0  0  0
 23 26  1  0  0  0  0
 20 21  1  0  0  0  0
 20 22  1  0  0  0  0
 20 23  1  0  0  0  0
 17 18  1  0  0  0  0
 17 19  1  0  0  0  0
 17 20  1  0  0  0  0
 14 15  1  0  0  0  0
 14 16  1  0  0  0  0
 14 17  1  0  0  0  0
 11 12  1  0  0  0  0
 11 13  1  0  0  0  0
 11 14  1  0  0  0  0
  9 10  1  0  0  0  0
  9 11  1  0  0  0  0
  9 27  1  0  0  0  0
  7  8  1  0  0  0  0
  7  9  1  0  0  0  0
 31 32  1  0  0  0  0
 31 33  1  0  0  0  0
 31 34  1  0  0  0  0
 29 30  1  0  0  0  0
 29 31  1  0  0  0  0
M  CHG  1  23   1
M  END
$$$$
default_name
  -OEChem-02102213163D

 34 33  0     1  0  0  0  0  0999 V2000
   -3.8899   -3.6747    1.6490 H   0  0  0  0  0  0  0  0  0  0  0  0
   -3.9109   -2.6717    1.2250 C   0  0  0  0  0  0  0  0  0  0  0  0
   -4.6009   -2.0517    1.7950 H   0  0  0  0  0  0  0  0  0  0  0  0
   -4.2309   -2.7237    0.1860 H   0  0  0  0  0  0  0  0  0  0  0  0
   -2.5229   -2.0787    1.2980 C   0  0  0  0  0  0  0  0  0  0  0  0
   -1.5999   -2.7227    1.7810 O   0  0  0  0  0  0  0  0  0  0  0  0
   -2.3659   -0.8447    0.8120 N   0  0  0  0  0  0  0  0  0  0  0  0
   -3.1749   -0.3807    0.4220 H   0  0  0  0  0  0  0  0  0  0  0  0
   -1.0919   -0.1077    0.8170 C   0  0  1  0  0  0  0  0  0  0  0  0
   -0.3571   -0.6901    0.2581 H   0  0  0  0  0  0  0  0  0  0  0  0
   -1.3037    1.2411    0.1040 C   0  0  0  0  0  0  0  0  0  0  0  0
   -1.3359    2.0307    0.8564 H   0  0  0  0  0  0  0  0  0  0  0  0
   -0.4562    1.4348   -0.5564 H   0  0  0  0  0  0  0  0  0  0  0  0
   -2.6043    1.2983   -0.7119 C   0  0  0  0  0  0  0  0  0  0  0  0
   -3.3577    0.6607   -0.2474 H   0  0  0  0  0  0  0  0  0  0  0  0
   -2.9709    2.3264   -0.7324 H   0  0  0  0  0  0  0  0  0  0  0  0
   -2.3555    0.8188   -2.1487 C   0  0  0  0  0  0  0  0  0  0  0  0
   -1.5898    1.4499   -2.6061 H   0  0  0  0  0  0  0  0  0  0  0  0
   -1.9981   -0.2125   -2.1231 H   0  0  0  0  0  0  0  0  0  0  0  0
   -3.6476    0.8988   -2.9713 C   0  0  0  0  0  0  0  0  0  0  0  0
   -4.4031    0.2670   -2.4931 H   0  0  0  0  0  0  0  0  0  0  0  0
   -4.0107    1.9308   -2.9488 H   0  0  0  0  0  0  0  0  0  0  0  0
   -3.4297    0.4628   -4.3738 N   0  3  0  0  0  0  0  0  0  0  0  0
   -3.1035   -0.4951   -4.4016 H   0  0  0  0  0  0  0  0  0  0  0  0
   -4.2909    0.5218   -4.9028 H   0  0  0  0  0  0  0  0  0  0  0  0
   -2.7373    1.0503   -4.8237 H   0  0  0  0  0  0  0  0  0  0  0  0
   -0.5865    0.0771    2.2496 C   0  0  0  0  0  0  0  0  0  0  0  0
    0.5860   -0.1608    2.5143 O   0  0  0  0  0  0  0  0  0  0  0  0
   -1.4786    0.4656    3.1667 N   0  0  0  0  0  0  0  0  0  0  0  0
   -2.4139    0.6698    2.8558 H   0  0  0  0  0  0  0  0  0  0  0  0
   -1.1587    0.6908    4.5775 C   0  0  0  0  0  0  0  0  0  0  0  0
   -0.4270    1.4968    4.6656 H   0  0  0  0  0  0  0  0  0  0  0  0
   -2.0565    0.9649    5.1327 H   0  0  0  0  0  0  0  0  0  0  0  0
   -0.7281   -0.2137    5.0125 H   0  0  0  0  0  0  0  0  0  0  0  0
  5  6  2  0  0  0  0
  5  7  1  0  0  0  0
  2  3  1  0  0  0  0
  2  4  1  0  0  0  0
  2  5  1  0  0  0  0
  1  2  1  0  0  0  0
 27 28  2  0  0  0  0
 27 29  1  0  0  0  0
 23 24  1  0  0  0  0
 23 25  1  0  0  0  0
 23 26  1  0  0  0  0
 20 21  1  0  0  0  0
 20 22  1  0  0  0  0
 20 23  1  0  0  0  0
 17 18  1  0  0  0  0
 17 19  1  0  0  0  0
 17 20  1  0  0  0  0
 14 15  1  0  0  0  0
 14 16  1  0  0  0  0
 14 17  1  0  0  0  0
 11 12  1  0  0  0  0
 11 13  1  0  0  0  0
 11 14  1  0  0  0  0
  9 10  1  0  0  0  0
  9 11  1  0  0  0  0
  9 27  1  0  0  0  0
  7  8  1  0  0  0  0
  7  9  1  0  0  0  0
 31 32  1  0  0  0  0
 31 33  1  0  0  0  0
 31 34  1  0  0  0  0
 29 30  1  0  0  0  0
 29 31  1  0  0  0  0
M  CHG  1  23   1
M  END
$$$$
default_name
  -OEChem-02102213163D

 34 33  0     1  0  0  0  0  0999 V2000
   -3.8899   -3.6747    1.6490 H   0  0  0  0  0  0  0  0  0  0  0  0
   -3.9109   -2.6717    1.2250 C   0  0  0  0  0  0  0  0  0  0  0  0
   -4.6009   -2.0517    1.7950 H   0  0  0  0  0  0  0  0  0  0  0  0
   -4.2309   -2.7237    0.1860 H   0  0  0  0  0  0  0  0  0  0  0  0
   -2.5229   -2.0787    1.2980 C   0  0  0  0  0  0  0  0  0  0  0  0
   -1.5999   -2.7227    1.7810 O   0  0  0  0  0  0  0  0  0  0  0  0
   -2.3659   -0.8447    0.8120 N   0  0  0  0  0  0  0  0  0  0  0  0
   -3.1749   -0.3807    0.4220 H   0  0  0  0  0  0  0  0  0  0  0  0
   -1.0919   -0.1077    0.8170 C   0  0  1  0  0  0  0  0  0  0  0  0
   -0.3571   -0.6901    0.2581 H   0  0  0  0  0  0  0  0  0  0  0  0
   -1.3037    1.2411    0.1040 C   0  0  0  0  0  0  0  0  0  0  0  0
   -1.3359    2.0307    0.8564 H   0  0  0  0  0  0  0  0  0  0  0  0
   -0.4562    1.4348   -0.5564 H   0  0  0  0  0  0  0  0  0  0  0  0
   -2.6043    1.2983   -0.7119 C   0  0  0  0  0  0  0  0  0  0  0  0
   -3.4258    0.8882   -0.1229 H   0  0  0  0  0  0  0  0  0  0  0  0
   -2.8276    2.3377   -0.9599 H   0  0  0  0  0  0  0  0  0  0  0  0
   -2.4592    0.4869   -2.0067 C   0  0  0  0  0  0  0  0  0  0  0  0
   -1.6262    0.8905   -2.5873 H   0  0  0  0  0  0  0  0  0  0  0  0
   -2.2452   -0.5533   -1.7531 H   0  0  0  0  0  0  0  0  0  0  0  0
   -3.7484    0.5634   -2.8342 C   0  0  0  0  0  0  0  0  0  0  0  0
   -4.5708    0.1622   -2.2331 H   0  0  0  0  0  0  0  0  0  0  0  0
   -3.9667    1.6155   -3.0411 H   0  0  0  0  0  0  0  0  0  0  0  0
   -3.6270   -0.1943   -4.1053 N   0  3  0  0  0  0  0  0  0  0  0  0
   -3.4353   -1.1709   -3.9200 H   0  0  0  0  0  0  0  0  0  0  0  0
   -4.4850   -0.1335   -4.6392 H   0  0  0  0  0  0  0  0  0  0  0  0
   -2.8725    0.1790   -4.6694 H   0  0  0  0  0  0  0  0  0  0  0  0
   -0.5865    0.0771    2.2496 C   0  0  0  0  0  0  0  0  0  0  0  0
    0.5860   -0.1608    2.5143 O   0  0  0  0  0  0  0  0  0  0  0  0
   -1.4786    0.4656    3.1667 N   0  0  0  0  0  0  0  0  0  0  0  0
   -2.4139    0.6698    2.8558 H   0  0  0  0  0  0  0  0  0  0  0  0
   -1.1587    0.6908    4.5775 C   0  0  0  0  0  0  0  0  0  0  0  0
   -0.4270    1.4968    4.6656 H   0  0  0  0  0  0  0  0  0  0  0  0
   -2.0565    0.9649    5.1327 H   0  0  0  0  0  0  0  0  0  0  0  0
   -0.7281   -0.2137    5.0125 H   0  0  0  0  0  0  0  0  0  0  0  0
  5  6  2  0  0  0  0
  5  7  1  0  0  0  0
  2  3  1  0  0  0  0
  2  4  1  0  0  0  0
  2  5  1  0  0  0  0
  1  2  1  0  0  0  0
 27 28  2  0  0  0  0
 27 29  1  0  0  0  0
 23 24  1  0  0  0  0
 23 25  1  0  0  0  0
 23 26  1  0  0  0  0
 20 21  1  0  0  0  0
 20 22  1  0  0  0  0
 20 23  1  0  0  0  0
 17 18  1  0  0  0  0
 17 19  1  0  0  0  0
 17 20  1  0  0  0  0
 14 15  1  0  0  0  0
 14 16  1  0  0  0  0
 14 17  1  0  0  0  0
 11 12  1  0  0  0  0
 11 13  1  0  0  0  0
 11 14  1  0  0  0  0
  9 10  1  0  0  0  0
  9 11  1  0  0  0  0
  9 27  1  0  0  0  0
  7  8  1  0  0  0  0
  7  9  1  0  0  0  0
 31 32  1  0  0  0  0
 31 33  1  0  0  0  0
 31 34  1  0  0  0  0
 29 30  1  0  0  0  0
 29 31  1  0  0  0  0
M  CHG  1  23   1
M  END
$$$$
default_name
  -OEChem-02102213163D

 34 33  0     1  0  0  0  0  0999 V2000
   -3.8899   -3.6747    1.6490 H   0  0  0  0  0  0  0  0  0  0  0  0
   -3.9109   -2.6717    1.2250 C   0  0  0  0  0  0  0  0  0  0  0  0
   -4.6009   -2.0517    1.7950 H   0  0  0  0  0  0  0  0  0  0  0  0
   -4.2309   -2.7237    0.1860 H   0  0  0  0  0  0  0  0  0  0  0  0
   -2.5229   -2.0787    1.2980 C   0  0  0  0  0  0  0  0  0  0  0  0
   -1.5999   -2.7227    1.7810 O   0  0  0  0  0  0  0  0  0  0  0  0
   -2.3659   -0.8447    0.8120 N   0  0  0  0  0  0  0  0  0  0  0  0
   -3.1749   -0.3807    0.4220 H   0  0  0  0  0  0  0  0  0  0  0  0
   -1.0919   -0.1077    0.8170 C   0  0  1  0  0  0  0  0  0  0  0  0
   -0.3571   -0.6901    0.2581 H   0  0  0  0  0  0  0  0  0  0  0  0
   -1.3037    1.2411    0.1040 C   0  0  0  0  0  0  0  0  0  0  0  0
   -1.3359    2.0307    0.8564 H   0  0  0  0  0  0  0  0  0  0  0  0
   -0.4562    1.4348   -0.5564 H   0  0  0  0  0  0  0  0  0  0  0  0
   -2.6043    1.2983   -0.7119 C   0  0  0  0  0  0  0  0  0  0  0  0
   -3.4591    1.1446   -0.0519 H   0  0  0  0  0  0  0  0  0  0  0  0
   -2.6899    2.2791   -1.1836 H   0  0  0  0  0  0  0  0  0  0  0  0
   -2.6035    0.2115   -1.7959 C   0  0  0  0  0  0  0  0  0  0  0  0
   -1.7380    0.3593   -2.4462 H   0  0  0  0  0  0  0  0  0  0  0  0
   -2.5271   -0.7675   -1.3186 H   0  0  0  0  0  0  0  0  0  0  0  0
   -3.8905    0.2834   -2.6273 C   0  0  0  0  0  0  0  0  0  0  0  0
   -4.7447    0.1410   -1.9574 H   0  0  0  0  0  0  0  0  0  0  0  0
   -3.9684    1.2846   -3.0615 H   0  0  0  0  0  0  0  0  0  0  0  0
   -3.9053   -0.7430   -3.7001 N   0  3  0  0  0  0  0  0  0  0  0  0
   -3.8441   -1.6725   -3.3036 H   0  0  0  0  0  0  0  0  0  0  0  0
   -4.7601   -0.6821   -4.2391 H   0  0  0  0  0  0  0  0  0  0  0  0
   -3.1213   -0.6102   -4.3281 H   0  0  0  0  0  0  0  0  0  0  0  0
   -0.5865    0.0771    2.2496 C   0  0  0  0  0  0  0  0  0  0  0  0
    0.5860   -0.1608    2.5143 O   0  0  0  0  0  0  0  0  0  0  0  0
   -1.4786    0.4656    3.1667 N   0  0  0  0  0  0  0  0  0  0  0  0
   -2.4139    0.6698    2.8558 H   0  0  0  0  0  0  0  0  0  0  0  0
   -1.1587    0.6908    4.5775 C   0  0  0  0  0  0  0  0  0  0  0  0
   -0.4270    1.4968    4.6656 H   0  0  0  0  0  0  0  0  0  0  0  0
   -2.0565    0.9649    5.1327 H   0  0  0  0  0  0  0  0  0  0  0  0
   -0.7281   -0.2137    5.0125 H   0  0  0  0  0  0  0  0  0  0  0  0
  5  6  2  0  0  0  0
  5  7  1  0  0  0  0
  2  3  1  0  0  0  0
  2  4  1  0  0  0  0
  2  5  1  0  0  0  0
  1  2  1  0  0  0  0
 27 28  2  0  0  0  0
 27 29  1  0  0  0  0
 23 24  1  0  0  0  0
 23 25  1  0  0  0  0
 23 26  1  0  0  0  0
 20 21  1  0  0  0  0
 20 22  1  0  0  0  0
 20 23  1  0  0  0  0
 17 18  1  0  0  0  0
 17 19  1  0  0  0  0
 17 20  1  0  0  0  0
 14 15  1  0  0  0  0
 14 16  1  0  0  0  0
 14 17  1  0  0  0  0
 11 12  1  0  0  0  0
 11 13  1  0  0  0  0
 11 14  1  0  0  0  0
  9 10  1  0  0  0  0
  9 11  1  0  0  0  0
  9 27  1  0  0  0  0
  7  8  1  0  0  0  0
  7  9  1  0  0  0  0
 31 32  1  0  0  0  0
 31 33  1  0  0  0  0
 31 34  1  0  0  0  0
 29 30  1  0  0  0  0
 29 31  1  0  0  0  0
M  CHG  1  23   1
M  END
$$$$
default_name
  -OEChem-02102213163D

 34 33  0     1  0  0  0  0  0999 V2000
   -3.8899   -3.6747    1.6490 H   0  0  0  0  0  0  0  0  0  0  0  0
   -3.9109   -2.6717    1.2250 C   0  0  0  0  0  0  0  0  0  0  0  0
   -4.6009   -2.0517    1.7950 H   0  0  0  0  0  0  0  0  0  0  0  0
   -4.2309   -2.7237    0.1860 H   0  0  0  0  0  0  0  0  0  0  0  0
   -2.5229   -2.0787    1.2980 C   0  0  0  0  0  0  0  0  0  0  0  0
   -1.5999   -2.7227    1.7810 O   0  0  0  0  0  0  0  0  0  0  0  0
   -2.3659   -0.8447    0.8120 N   0  0  0  0  0  0  0  0  0  0  0  0
   -3.1749   -0.3807    0.4220 H   0  0  0  0  0  0  0  0  0  0  0  0
   -1.0919   -0.1077    0.8170 C   0  0  1  0  0  0  0  0  0  0  0  0
   -0.3571   -0.6901    0.2581 H   0  0  0  0  0  0  0  0  0  0  0  0
   -1.3037    1.2411    0.1040 C   0  0  0  0  0  0  0  0  0  0  0  0
   -1.3359    2.0307    0.8564 H   0  0  0  0  0  0  0  0  0  0  0  0
   -0.4562    1.4348   -0.5564 H   0  0  0  0  0  0  0  0  0  0  0  0
   -2.6043    1.2983   -0.7119 C   0  0  0  0  0  0  0  0  0  0  0  0
   -3.4553    1.4124   -0.0391 H   0  0  0  0  0  0  0  0  0  0  0  0
   -2.5671    2.1546   -1.3881 H   0  0  0  0  0  0  0  0  0  0  0  0
   -2.7788    0.0116   -1.5306 C   0  0  0  0  0  0  0  0  0  0  0  0
   -1.9177   -0.1076   -2.1925 H   0  0  0  0  0  0  0  0  0  0  0  0
   -2.8247   -0.8404   -0.8494 H   0  0  0  0  0  0  0  0  0  0  0  0
   -4.0642    0.0777   -2.3647 C   0  0  0  0  0  0  0  0  0  0  0  0
   -4.9130    0.2048   -1.6848 H   0  0  0  0  0  0  0  0  0  0  0  0
   -4.0157    0.9608   -3.0088 H   0  0  0  0  0  0  0  0  0  0  0  0
   -4.2457   -1.1460   -3.1857 N   0  3  0  0  0  0  0  0  0  0  0  0
   -4.3019   -1.9658   -2.5944 H   0  0  0  0  0  0  0  0  0  0  0  0
   -5.0974   -1.0866   -3.7299 H   0  0  0  0  0  0  0  0  0  0  0  0
   -3.4667   -1.2635   -3.8232 H   0  0  0  0  0  0  0  0  0  0  0  0
   -0.5865    0.0771    2.2496 C   0  0  0  0  0  0  0  0  0  0  0  0
    0.5860   -0.1608    2.5143 O   0  0  0  0  0  0  0  0  0  0  0  0
   -1.4786    0.4656    3.1667 N   0  0  0  0  0  0  0  0  0  0  0  0
   -2.4139    0.6698    2.8558 H   0  0  0  0  0  0  0  0  0  0  0  0
   -1.1587    0.6908    4.5775 C   0  0  0  0  0  0  0  0  0  0  0  0
   -0.4270    1.4968    4.6656 H   0  0  0  0  0  0  0  0  0  0  0  0
   -2.0565    0.9649    5.1327 H   0  0  0  0  0  0  0  0  0  0  0  0
   -0.7281   -0.2137    5.0125 H   0  0  0  0  0  0  0  0  0  0  0  0
  5  6  2  0  0  0  0
  5  7  1  0  0  0  0
  2  3  1  0  0  0  0
  2  4  1  0  0  0  0
  2  5  1  0  0  0  0
  1  2  1  0  0  0  0
 27 28  2  0  0  0  0
 27 29  1  0  0  0  0
 23 24  1  0  0  0  0
 23 25  1  0  0  0  0
 23 26  1  0  0  0  0
 20 21  1  0  0  0  0
 20 22  1  0  0  0  0
 20 23  1  0  0  0  0
 17 18  1  0  0  0  0
 17 19  1  0  0  0  0
 17 20  1  0  0  0  0
 14 15  1  0  0  0  0
 14 16  1  0  0  0  0
 14 17  1  0  0  0  0
 11 12  1  0  0  0  0
 11 13  1  0  0  0  0
 11 14  1  0  0  0  0
  9 10  1  0  0  0  0
  9 11  1  0  0  0  0
  9 27  1  0  0  0  0
  7  8  1  0  0  0  0
  7  9  1  0  0  0  0
 31 32  1  0  0  0  0
 31 33  1  0  0  0  0
 31 34  1  0  0  0  0
 29 30  1  0  0  0  0
 29 31  1  0  0  0  0
M  CHG  1  23   1
M  END
$$$$
default_name
  -OEChem-02102213163D

 34 33  0     1  0  0  0  0  0999 V2000
   -3.8899   -3.6747    1.6490 H   0  0  0  0  0  0  0  0  0  0  0  0
   -3.9109   -2.6717    1.2250 C   0  0  0  0  0  0  0  0  0  0  0  0
   -4.6009   -2.0517    1.7950 H   0  0  0  0  0  0  0  0  0  0  0  0
   -4.2309   -2.7237    0.1860 H   0  0  0  0  0  0  0  0  0  0  0  0
   -2.5229   -2.0787    1.2980 C   0  0  0  0  0  0  0  0  0  0  0  0
   -1.5999   -2.7227    1.7810 O   0  0  0  0  0  0  0  0  0  0  0  0
   -2.3659   -0.8447    0.8120 N   0  0  0  0  0  0  0  0  0  0  0  0
   -3.1749   -0.3807    0.4220 H   0  0  0  0  0  0  0  0  0  0  0  0
   -1.0919   -0.1077    0.8170 C   0  0  1  0  0  0  0  0  0  0  0  0
   -0.3571   -0.6901    0.2581 H   0  0  0  0  0  0  0  0  0  0  0  0
   -1.3037    1.2411    0.1040 C   0  0  0  0  0  0  0  0  0  0  0  0
   -1.3359    2.0307    0.8564 H   0  0  0  0  0  0  0  0  0  0  0  0
   -0.4562    1.4348   -0.5564 H   0  0  0  0  0  0  0  0  0  0  0  0
   -2.6043    1.2983   -0.7119 C   0  0  0  0  0  0  0  0  0  0  0  0
   -3.4148    1.6734   -0.0855 H   0  0  0  0  0  0  0  0  0  0  0  0
   -2.4675    1.9726   -1.5595 H   0  0  0  0  0  0  0  0  0  0  0  0
   -2.9730   -0.0992   -1.2288 C   0  0  0  0  0  0  0  0  0  0  0  0
   -2.1530   -0.4783   -1.8434 H   0  0  0  0  0  0  0  0  0  0  0  0
   -3.1177   -0.7671   -0.3772 H   0  0  0  0  0  0  0  0  0  0  0  0
   -4.2578   -0.0396   -2.0643 C   0  0  0  0  0  0  0  0  0  0  0  0
   -5.0641    0.3493   -1.4338 H   0  0  0  0  0  0  0  0  0  0  0  0
   -4.1054    0.6661   -2.8865 H   0  0  0  0  0  0  0  0  0  0  0  0
   -4.6249   -1.3758   -2.5974 N   0  3  0  0  0  0  0  0  0  0  0  0
   -4.7776   -2.0307   -1.8407 H   0  0  0  0  0  0  0  0  0  0  0  0
   -5.4738   -1.3193   -3.1461 H   0  0  0  0  0  0  0  0  0  0  0  0
   -3.8854   -1.7364   -3.1889 H   0  0  0  0  0  0  0  0  0  0  0  0
   -0.5865    0.0771    2.2496 C   0  0  0  0  0  0  0  0  0  0  0  0
    0.5860   -0.1608    2.5143 O   0  0  0  0  0  0  0  0  0  0  0  0
   -1.4786    0.4656    3.1667 N   0  0  0  0  0  0  0  0  0  0  0  0
   -2.4139    0.6698    2.8558 H   0  0  0  0  0  0  0  0  0  0  0  0
   -1.1587    0.6908    4.5775 C   0  0  0  0  0  0  0  0  0  0  0  0
   -0.4270    1.4968    4.6656 H   0  0  0  0  0  0  0  0  0  0  0  0
   -2.0565    0.9649    5.1327 H   0  0  0  0  0  0  0  0  0  0  0  0
   -0.7281   -0.2137    5.0125 H   0  0  0  0  0  0  0  0  0  0  0  0
  5  6  2  0  0  0  0
  5  7  1  0  0  0  0
  2  3  1  0  0  0  0
  2  4  1  0  0  0  0
  2  5  1  0  0  0  0
  1  2  1  0  0  0  0
 27 28  2  0  0  0  0
 27 29  1  0  0  0  0
 23 24  1  0  0  0  0
 23 25  1  0  0  0  0
 23 26  1  0  0  0  0
 20 21  1  0  0  0  0
 20 22  1  0  0  0  0
 20 23  1  0  0  0  0
 17 18  1  0  0  0  0
 17 19  1  0  0  0  0
 17 20  1  0  0  0  0
 14 15  1  0  0  0  0
 14 16  1  0  0  0  0
 14 17  1  0  0  0  0
 11 12  1  0  0  0  0
 11 13  1  0  0  0  0
 11 14  1  0  0  0  0
  9 10  1  0  0  0  0
  9 11  1  0  0  0  0
  9 27  1  0  0  0  0
  7  8  1  0  0  0  0
  7  9  1  0  0  0  0
 31 32  1  0  0  0  0
 31 33  1  0  0  0  0
 31 34  1  0  0  0  0
 29 30  1  0  0  0  0
 29 31  1  0  0  0  0
M  CHG  1  23   1
M  END
$$$$
default_name
  -OEChem-02102213163D

 34 33  0     1  0  0  0  0  0999 V2000
   -3.8899   -3.6747    1.6490 H   0  0  0  0  0  0  0  0  0  0  0  0
   -3.9109   -2.6717    1.2250 C   0  0  0  0  0  0  0  0  0  0  0  0
   -4.6009   -2.0517    1.7950 H   0  0  0  0  0  0  0  0  0  0  0  0
   -4.2309   -2.7237    0.1860 H   0  0  0  0  0  0  0  0  0  0  0  0
   -2.5229   -2.0787    1.2980 C   0  0  0  0  0  0  0  0  0  0  0  0
   -1.5999   -2.7227    1.7810 O   0  0  0  0  0  0  0  0  0  0  0  0
   -2.3659   -0.8447    0.8120 N   0  0  0  0  0  0  0  0  0  0  0  0
   -3.1749   -0.3807    0.4220 H   0  0  0  0  0  0  0  0  0  0  0  0
   -1.0919   -0.1077    0.8170 C   0  0  1  0  0  0  0  0  0  0  0  0
   -0.3571   -0.6901    0.2581 H   0  0  0  0  0  0  0  0  0  0  0  0
   -1.3037    1.2411    0.1040 C   0  0  0  0  0  0  0  0  0  0  0  0
   -1.3359    2.0307    0.8564 H   0  0  0  0  0  0  0  0  0  0  0  0
   -0.4562    1.4348   -0.5564 H   0  0  0  0  0  0  0  0  0  0  0  0
   -2.6043    1.2983   -0.7119 C   0  0  0  0  0  0  0  0  0  0  0  0
   -3.3402    1.9097   -0.1879 H   0  0  0  0  0  0  0  0  0  0  0  0
   -2.3980    1.7455   -1.6862 H   0  0  0  0  0  0  0  0  0  0  0  0
   -3.1729   -0.1135   -0.9111 C   0  0  0  0  0  0  0  0  0  0  0  0
   -2.4279   -0.7275   -1.4227 H   0  0  0  0  0  0  0  0  0  0  0  0
   -3.3860   -0.5526    0.0656 H   0  0  0  0  0  0  0  0  0  0  0  0
   -4.4581   -0.0604   -1.7466 C   0  0  0  0  0  0  0  0  0  0  0  0
   -5.1877    0.5646   -1.2216 H   0  0  0  0  0  0  0  0  0  0  0  0
   -4.2314    0.4206   -2.7029 H   0  0  0  0  0  0  0  0  0  0  0  0
   -5.0171   -1.4168   -1.9750 N   0  3  0  0  0  0  0  0  0  0  0  0
   -5.2387   -1.8630   -1.0938 H   0  0  0  0  0  0  0  0  0  0  0  0
   -5.8638   -1.3644   -2.5276 H   0  0  0  0  0  0  0  0  0  0  0  0
   -4.3487   -1.9968   -2.4687 H   0  0  0  0  0  0  0  0  0  0  0  0
   -0.5865    0.0771    2.2496 C   0  0  0  0  0  0  0  0  0  0  0  0
    0.5860   -0.1608    2.5143 O   0  0  0  0  0  0  0  0  0  0  0  0
   -1.4786    0.4656    3.1667 N   0  0  0  0  0  0  0  0  0  0  0  0
   -2.4139    0.6698    2.8558 H   0  0  0  0  0  0  0  0  0  0  0  0
   -1.1587    0.6908    4.5775 C   0  0  0  0  0  0  0  0  0  0  0  0
   -0.4270    1.4968    4.6656 H   0  0  0  0  0  0  0  0  0  0  0  0
   -2.0565    0.9649    5.1327 H   0  0  0  0  0  0  0  0  0  0  0  0
   -0.7281   -0.2137    5.0125 H   0  0  0  0  0  0  0  0  0  0  0  0
  5  6  2  0  0  0  0
  5  7  1  0  0  0  0
  2  3  1  0  0  0  0
  2  4  1  0  0  0  0
  2  5  1  0  0  0  0
  1  2  1  0  0  0  0
 27 28  2  0  0  0  0
 27 29  1  0  0  0  0
 23 24  1  0  0  0  0
 23 25  1  0  0  0  0
 23 26  1  0  0  0  0
 20 21  1  0  0  0  0
 20 22  1  0  0  0  0
 20 23  1  0  0  0  0
 17 18  1  0  0  0  0
 17 19  1  0  0  0  0
 17 20  1  0  0  0  0
 14 15  1  0  0  0  0
 14 16  1  0  0  0  0
 14 17  1  0  0  0  0
 11 12  1  0  0  0  0
 11 13  1  0  0  0  0
 11 14  1  0  0  0  0
  9 10  1  0  0  0  0
  9 11  1  0  0  0  0
  9 27  1  0  0  0  0
  7  8  1  0  0  0  0
  7  9  1  0  0  0  0
 31 32  1  0  0  0  0
 31 33  1  0  0  0  0
 31 34  1  0  0  0  0
 29 30  1  0  0  0  0
 29 31  1  0  0  0  0
M  CHG  1  23   1
M  END
$$$$
default_name
  -OEChem-02102213163D

 34 33  0     1  0  0  0  0  0999 V2000
   -3.8899   -3.6747    1.6490 H   0  0  0  0  0  0  0  0  0  0  0  0
   -3.9109   -2.6717    1.2250 C   0  0  0  0  0  0  0  0  0  0  0  0
   -4.6009   -2.0517    1.7950 H   0  0  0  0  0  0  0  0  0  0  0  0
   -4.2309   -2.7237    0.1860 H   0  0  0  0  0  0  0  0  0  0  0  0
   -2.5229   -2.0787    1.2980 C   0  0  0  0  0  0  0  0  0  0  0  0
   -1.5999   -2.7227    1.7810 O   0  0  0  0  0  0  0  0  0  0  0  0
   -2.3659   -0.8447    0.8120 N   0  0  0  0  0  0  0  0  0  0  0  0
   -3.1749   -0.3807    0.4220 H   0  0  0  0  0  0  0  0  0  0  0  0
   -1.0919   -0.1077    0.8170 C   0  0  1  0  0  0  0  0  0  0  0  0
   -0.3571   -0.6901    0.2581 H   0  0  0  0  0  0  0  0  0  0  0  0
   -1.3037    1.2411    0.1040 C   0  0  0  0  0  0  0  0  0  0  0  0
   -1.3359    2.0307    0.8564 H   0  0  0  0  0  0  0  0  0  0  0  0
   -0.4562    1.4348   -0.5564 H   0  0  0  0  0  0  0  0  0  0  0  0
   -2.6043    1.2983   -0.7119 C   0  0  0  0  0  0  0  0  0  0  0  0
   -3.2366    2.1053   -0.3393 H   0  0  0  0  0  0  0  0  0  0  0  0
   -2.3633    1.4889   -1.7595 H   0  0  0  0  0  0  0  0  0  0  0  0
   -3.3649   -0.0302   -0.5992 C   0  0  0  0  0  0  0  0  0  0  0  0
   -2.7236   -0.8383   -0.9591 H   0  0  0  0  0  0  0  0  0  0  0  0
   -3.6115   -0.2116    0.4489 H   0  0  0  0  0  0  0  0  0  0  0  0
   -4.6513    0.0166   -1.4332 C   0  0  0  0  0  0  0  0  0  0  0  0
   -5.2756    0.8361   -1.0625 H   0  0  0  0  0  0  0  0  0  0  0  0
   -4.3850    0.2409   -2.4706 H   0  0  0  0  0  0  0  0  0  0  0  0
   -5.3956   -1.2661   -1.3612 N   0  3  0  0  0  0  0  0  0  0  0  0
   -5.6539   -1.4739   -0.4047 H   0  0  0  0  0  0  0  0  0  0  0  0
   -6.2407   -1.2189   -1.9165 H   0  0  0  0  0  0  0  0  0  0  0  0
   -4.8250   -2.0267   -1.7115 H   0  0  0  0  0  0  0  0  0  0  0  0
   -0.5865    0.0771    2.2496 C   0  0  0  0  0  0  0  0  0  0  0  0
    0.5860   -0.1608    2.5143 O   0  0  0  0  0  0  0  0  0  0  0  0
   -1.4786    0.4656    3.1667 N   0  0  0  0  0  0  0  0  0  0  0  0
   -2.4139    0.6698    2.8558 H   0  0  0  0  0  0  0  0  0  0  0  0
   -1.1587    0.6908    4.5775 C   0  0  0  0  0  0  0  0  0  0  0  0
   -0.4270    1.4968    4.6656 H   0  0  0  0  0  0  0  0  0  0  0  0
   -2.0565    0.9649    5.1327 H   0  0  0  0  0  0  0  0  0  0  0  0
   -0.7281   -0.2137    5.0125 H   0  0  0  0  0  0  0  0  0  0  0  0
  5  6  2  0  0  0  0
  5  7  1  0  0  0  0
  2  3  1  0  0  0  0
  2  4  1  0  0  0  0
  2  5  1  0  0  0  0
  1  2  1  0  0  0  0
 27 28  2  0  0  0  0
 27 29  1  0  0  0  0
 23 24  1  0  0  0  0
 23 25  1  0  0  0  0
 23 26  1  0  0  0  0
 20 21  1  0  0  0  0
 20 22  1  0  0  0  0
 20 23  1  0  0  0  0
 17 18  1  0  0  0  0
 17 19  1  0  0  0  0
 17 20  1  0  0  0  0
 14 15  1  0  0  0  0
 14 16  1  0  0  0  0
 14 17  1  0  0  0  0
 11 12  1  0  0  0  0
 11 13  1  0  0  0  0
 11 14  1  0  0  0  0
  9 10  1  0  0  0  0
  9 11  1  0  0  0  0
  9 27  1  0  0  0  0
  7  8  1  0  0  0  0
  7  9  1  0  0  0  0
 31 32  1  0  0  0  0
 31 33  1  0  0  0  0
 31 34  1  0  0  0  0
 29 30  1  0  0  0  0
 29 31  1  0  0  0  0
M  CHG  1  23   1
M  END
$$$$
default_name
  -OEChem-02102213163D

 34 33  0     1  0  0  0  0  0999 V2000
   -3.8899   -3.6747    1.6490 H   0  0  0  0  0  0  0  0  0  0  0  0
   -3.9109   -2.6717    1.2250 C   0  0  0  0  0  0  0  0  0  0  0  0
   -4.6009   -2.0517    1.7950 H   0  0  0  0  0  0  0  0  0  0  0  0
   -4.2309   -2.7237    0.1860 H   0  0  0  0  0  0  0  0  0  0  0  0
   -2.5229   -2.0787    1.2980 C   0  0  0  0  0  0  0  0  0  0  0  0
   -1.5999   -2.7227    1.7810 O   0  0  0  0  0  0  0  0  0  0  0  0
   -2.3659   -0.8447    0.8120 N   0  0  0  0  0  0  0  0  0  0  0  0
   -3.1749   -0.3807    0.4220 H   0  0  0  0  0  0  0  0  0  0  0  0
   -1.0919   -0.1077    0.8170 C   0  0  1  0  0  0  0  0  0  0  0  0
   -0.3571   -0.6901    0.2581 H   0  0  0  0  0  0  0  0  0  0  0  0
   -1.3037    1.2411    0.1040 C   0  0  0  0  0  0  0  0  0  0  0  0
   -1.3359    2.0307    0.8564 H   0  0  0  0  0  0  0  0  0  0  0  0
   -0.4562    1.4348   -0.5564 H   0  0  0  0  0  0  0  0  0  0  0  0
   -2.6043    1.2983   -0.7119 C   0  0  0  0  0  0  0  0  0  0  0  0
   -3.1111    2.2468   -0.5293 H   0  0  0  0  0  0  0  0  0  0  0  0
   -2.3658    1.2202   -1.7744 H   0  0  0  0  0  0  0  0  0  0  0  0
   -3.5359    0.1449   -0.3143 C   0  0  0  0  0  0  0  0  0  0  0  0
   -3.0199   -0.8031   -0.4842 H   0  0  0  0  0  0  0  0  0  0  0  0
   -3.7787    0.2329    0.7466 H   0  0  0  0  0  0  0  0  0  0  0  0
   -4.8243    0.1862   -1.1456 C   0  0  0  0  0  0  0  0  0  0  0  0
   -5.3215    1.1452   -0.9676 H   0  0  0  0  0  0  0  0  0  0  0  0
   -4.5559    0.1394   -2.2053 H   0  0  0  0  0  0  0  0  0  0  0  0
   -5.7345   -0.9340   -0.7976 N   0  3  0  0  0  0  0  0  0  0  0  0
   -5.9948   -0.8901    0.1797 H   0  0  0  0  0  0  0  0  0  0  0  0
   -6.5789   -0.8927   -1.3545 H   0  0  0  0  0  0  0  0  0  0  0  0
   -5.2819   -1.8243   -0.9689 H   0  0  0  0  0  0  0  0  0  0  0  0
   -0.5865    0.0771    2.2496 C   0  0  0  0  0  0  0  0  0  0  0  0
    0.5860   -0.1608    2.5143 O   0  0  0  0  0  0  0  0  0  0  0  0
   -1.4786    0.4656    3.1667 N   0  0  0  0  0  0  0  0  0  0  0  0
   -2.4139    0.6698    2.8558 H   0  0  0  0  0  0  0  0  0  0  0  0
   -1.1587    0.6908    4.5775 C   0  0  0  0  0  0  0  0  0  0  0  0
   -0.4270    1.4968    4.6656 H   0  0  0  0  0  0  0  0  0  0  0  0
   -2.0565    0.9649    5.1327 H   0  0  0  0  0  0  0  0  0  0  0  0
   -0.7281   -0.2137    5.0125 H   0  0  0  0  0  0  0  0  0  0  0  0
  5  6  2  0  0  0  0
  5  7  1  0  0  0  0
  2  3  1  0  0  0  0
  2  4  1  0  0  0  0
  2  5  1  0  0  0  0
  1  2  1  0  0  0  0
 27 28  2  0  0  0  0
 27 29  1  0  0  0  0
 23 24  1  0  0  0  0
 23 25  1  0  0  0  0
 23 26  1  0  0  0  0
 20 21  1  0  0  0  0
 20 22  1  0  0  0  0
 20 23  1  0  0  0  0
 17 18  1  0  0  0  0
 17 19  1  0  0  0  0
 17 20  1  0  0  0  0
 14 15  1  0  0  0  0
 14 16  1  0  0  0  0
 14 17  1  0  0  0  0
 11 12  1  0  0  0  0
 11 13  1  0  0  0  0
 11 14  1  0  0  0  0
  9 10  1  0  0  0  0
  9 11  1  0  0  0  0
  9 27  1  0  0  0  0
  7  8  1  0  0  0  0
  7  9  1  0  0  0  0
 31 32  1  0  0  0  0
 31 33  1  0  0  0  0
 31 34  1  0  0  0  0
 29 30  1  0  0  0  0
 29 31  1  0  0  0  0
M  CHG  1  23   1
M  END
$$$$
default_name
  -OEChem-02102213163D

 34 33  0     1  0  0  0  0  0999 V2000
   -3.8899   -3.6747    1.6490 H   0  0  0  0  0  0  0  0  0  0  0  0
   -3.9109   -2.6717    1.2250 C   0  0  0  0  0  0  0  0  0  0  0  0
   -4.6009   -2.0517    1.7950 H   0  0  0  0  0  0  0  0  0  0  0  0
   -4.2309   -2.7237    0.1860 H   0  0  0  0  0  0  0  0  0  0  0  0
   -2.5229   -2.0787    1.2980 C   0  0  0  0  0  0  0  0  0  0  0  0
   -1.5999   -2.7227    1.7810 O   0  0  0  0  0  0  0  0  0  0  0  0
   -2.3659   -0.8447    0.8120 N   0  0  0  0  0  0  0  0  0  0  0  0
   -3.1749   -0.3807    0.4220 H   0  0  0  0  0  0  0  0  0  0  0  0
   -1.0919   -0.1077    0.8170 C   0  0  1  0  0  0  0  0  0  0  0  0
   -0.3571   -0.6901    0.2581 H   0  0  0  0  0  0  0  0  0  0  0  0
   -1.3037    1.2411    0.1040 C   0  0  0  0  0  0  0  0  0  0  0  0
   -1.3359    2.0307    0.8564 H   0  0  0  0  0  0  0  0  0  0  0  0
   -0.4562    1.4348   -0.5564 H   0  0  0  0  0  0  0  0  0  0  0  0
   -2.6043    1.2983   -0.7119 C   0  0  0  0  0  0  0  0  0  0  0  0
   -2.9723    2.3246   -0.7451 H   0  0  0  0  0  0  0  0  0  0  0  0
   -2.4053    0.9578   -1.7299 H   0  0  0  0  0  0  0  0  0  0  0  0
   -3.6743    0.4001   -0.0759 C   0  0  0  0  0  0  0  0  0  0  0  0
   -3.2968   -0.6243   -0.0303 H   0  0  0  0  0  0  0  0  0  0  0  0
   -3.8763    0.7503    0.9383 H   0  0  0  0  0  0  0  0  0  0  0  0
   -4.9653    0.4368   -0.9032 C   0  0  0  0  0  0  0  0  0  0  0  0
   -5.3225    1.4710   -0.9431 H   0  0  0  0  0  0  0  0  0  0  0  0
   -4.7323    0.1230   -1.9252 H   0  0  0  0  0  0  0  0  0  0  0  0
   -6.0108   -0.4432   -0.3227 N   0  3  0  0  0  0  0  0  0  0  0  0
   -6.2383   -0.1512    0.6196 H   0  0  0  0  0  0  0  0  0  0  0  0
   -6.8554   -0.4079   -0.8799 H   0  0  0  0  0  0  0  0  0  0  0  0
   -5.6883   -1.4033   -0.2916 H   0  0  0  0  0  0  0  0  0  0  0  0
   -0.5865    0.0771    2.2496 C   0  0  0  0  0  0  0  0  0  0  0  0
    0.5860   -0.1608    2.5143 O   0  0  0  0  0  0  0  0  0  0  0  0
   -1.4786    0.4656    3.1667 N   0  0  0  0  0  0  0  0  0  0  0  0
   -2.4139    0.6698    2.8558 H   0  0  0  0  0  0  0  0  0  0  0  0
   -1.1587    0.6908    4.5775 C   0  0  0  0  0  0  0  0  0  0  0  0
   -0.4270    1.4968    4.6656 H   0  0  0  0  0  0  0  0  0  0  0  0
   -2.0565    0.9649    5.1327 H   0  0  0  0  0  0  0  0  0  0  0  0
   -0.7281   -0.2137    5.0125 H   0  0  0  0  0  0  0  0  0  0  0  0
  5  6  2  0  0  0  0
  5  7  1  0  0  0  0
  2  3  1  0  0  0  0
  2  4  1  0  0  0  0
  2  5  1  0  0  0  0
  1  2  1  0  0  0  0
 27 28  2  0  0  0  0
 27 29  1  0  0  0  0
 23 24  1  0  0  0  0
 23 25  1  0  0  0  0
 23 26  1  0  0  0  0
 20 21  1  0  0  0  0
 20 22  1  0  0  0  0
 20 23  1  0  0  0  0
 17 18  1  0  0  0  0
 17 19  1  0  0  0  0
 17 20  1  0  0  0  0
 14 15  1  0  0  0  0
 14 16  1  0  0  0  0
 14 17  1  0  0  0  0
 11 12  1  0  0  0  0
 11 13  1  0  0  0  0
 11 14  1  0  0  0  0
  9 10  1  0  0  0  0
  9 11  1  0  0  0  0
  9 27  1  0  0  0  0
  7  8  1  0  0  0  0
  7  9  1  0  0  0  0
 31 32  1  0  0  0  0
 31 33  1  0  0  0  0
 31 34  1  0  0  0  0
 29 30  1  0  0  0  0
 29 31  1  0  0  0  0
M  CHG  1  23   1
M  END
$$$$
default_name
  -OEChem-02102213163D

 34 33  0     1  0  0  0  0  0999 V2000
   -3.8899   -3.6747    1.6490 H   0  0  0  0  0  0  0  0  0  0  0  0
   -3.9109   -2.6717    1.2250 C   0  0  0  0  0  0  0  0  0  0  0  0
   -4.6009   -2.0517    1.7950 H   0  0  0  0  0  0  0  0  0  0  0  0
   -4.2309   -2.7237    0.1860 H   0  0  0  0  0  0  0  0  0  0  0  0
   -2.5229   -2.0787    1.2980 C   0  0  0  0  0  0  0  0  0  0  0  0
   -1.5999   -2.7227    1.7810 O   0  0  0  0  0  0  0  0  0  0  0  0
   -2.3659   -0.8447    0.8120 N   0  0  0  0  0  0  0  0  0  0  0  0
   -3.1749   -0.3807    0.4220 H   0  0  0  0  0  0  0  0  0  0  0  0
   -1.0919   -0.1077    0.8170 C   0  0  1  0  0  0  0  0  0  0  0  0
   -0.3571   -0.6901    0.2581 H   0  0  0  0  0  0  0  0  0  0  0  0
   -1.3037    1.2411    0.1040 C   0  0  0  0  0  0  0  0  0  0  0  0
   -1.3359    2.0307    0.8564 H   0  0  0  0  0  0  0  0  0  0  0  0
   -0.4562    1.4348   -0.5564 H   0  0  0  0  0  0  0  0  0  0  0  0
   -2.6043    1.2983   -0.7119 C   0  0  0  0  0  0  0  0  0  0  0  0
   -2.8297    2.3334   -0.9720 H   0  0  0  0  0  0  0  0  0  0  0  0
   -2.4790    0.7194   -1.6290 H   0  0  0  0  0  0  0  0  0  0  0  0
   -3.7706    0.7178    0.0999 C   0  0  0  0  0  0  0  0  0  0  0  0
   -3.5353   -0.3141    0.3716 H   0  0  0  0  0  0  0  0  0  0  0  0
   -3.8975    1.3056    1.0112 H   0  0  0  0  0  0  0  0  0  0  0  0
   -5.0648    0.7514   -0.7226 C   0  0  0  0  0  0  0  0  0  0  0  0
   -5.2785    1.7911   -0.9909 H   0  0  0  0  0  0  0  0  0  0  0  0
   -4.9023    0.1927   -1.6493 H   0  0  0  0  0  0  0  0  0  0  0  0
   -6.2057    0.1729    0.0311 N   0  3  0  0  0  0  0  0  0  0  0  0
   -6.3676    0.6923    0.8849 H   0  0  0  0  0  0  0  0  0  0  0  0
   -7.0512    0.2023   -0.5250 H   0  0  0  0  0  0  0  0  0  0  0  0
   -6.0165   -0.7924    0.2743 H   0  0  0  0  0  0  0  0  0  0  0  0
   -0.5865    0.0771    2.2496 C   0  0  0  0  0  0  0  0  0  0  0  0
    0.5860   -0.1608    2.5143 O   0  0  0  0  0  0  0  0  0  0  0  0
   -1.4786    0.4656    3.1667 N   0  0  0  0  0  0  0  0  0  0  0  0
   -2.4139    0.6698    2.8558 H   0  0  0  0  0  0  0  0  0  0  0  0
   -1.1587    0.6908    4.5775 C   0  0  0  0  0  0  0  0  0  0  0  0
   -0.4270    1.4968    4.6656 H   0  0  0  0  0  0  0  0  0  0  0  0
   -2.0565    0.9649    5.1327 H   0  0  0  0  0  0  0  0  0  0  0  0
   -0.7281   -0.2137    5.0125 H   0  0  0  0  0  0  0  0  0  0  0  0
  5  6  2  0  0  0  0
  5  7  1  0  0  0  0
  2  3  1  0  0  0  0
  2  4  1  0  0  0  0
  2  5  1  0  0  0  0
  1  2  1  0  0  0  0
 27 28  2  0  0  0  0
 27 29  1  0  0  0  0
 23 24  1  0  0  0  0
 23 25  1  0  0  0  0
 23 26  1  0  0  0  0
 20 21  1  0  0  0  0
 20 22  1  0  0  0  0
 20 23  1  0  0  0  0
 17 18  1  0  0  0  0
 17 19  1  0  0  0  0
 17 20  1  0  0  0  0
 14 15  1  0  0  0  0
 14 16  1  0  0  0  0
 14 17  1  0  0  0  0
 11 12  1  0  0  0  0
 11 13  1  0  0  0  0
 11 14  1  0  0  0  0
  9 10  1  0  0  0  0
  9 11  1  0  0  0  0
  9 27  1  0  0  0  0
  7  8  1  0  0  0  0
  7  9  1  0  0  0  0
 31 32  1  0  0  0  0
 31 33  1  0  0  0  0
 31 34  1  0  0  0  0
 29 30  1  0  0  0  0
 29 31  1  0  0  0  0
M  CHG  1  23   1
M  END
$$$$
default_name
  -OEChem-02102213163D

 34 33  0     1  0  0  0  0  0999 V2000
   -3.8899   -3.6747    1.6490 H   0  0  0  0  0  0  0  0  0  0  0  0
   -3.9109   -2.6717    1.2250 C   0  0  0  0  0  0  0  0  0  0  0  0
   -4.6009   -2.0517    1.7950 H   0  0  0  0  0  0  0  0  0  0  0  0
   -4.2309   -2.7237    0.1860 H   0  0  0  0  0  0  0  0  0  0  0  0
   -2.5229   -2.0787    1.2980 C   0  0  0  0  0  0  0  0  0  0  0  0
   -1.5999   -2.7227    1.7810 O   0  0  0  0  0  0  0  0  0  0  0  0
   -2.3659   -0.8447    0.8120 N   0  0  0  0  0  0  0  0  0  0  0  0
   -3.1749   -0.3807    0.4220 H   0  0  0  0  0  0  0  0  0  0  0  0
   -1.0919   -0.1077    0.8170 C   0  0  1  0  0  0  0  0  0  0  0  0
   -0.3571   -0.6901    0.2581 H   0  0  0  0  0  0  0  0  0  0  0  0
   -1.3037    1.2411    0.1040 C   0  0  0  0  0  0  0  0  0  0  0  0
   -1.3359    2.0307    0.8564 H   0  0  0  0  0  0  0  0  0  0  0  0
   -0.4562    1.4348   -0.5564 H   0  0  0  0  0  0  0  0  0  0  0  0
   -2.6043    1.2983   -0.7119 C   0  0  0  0  0  0  0  0  0  0  0  0
   -2.6928    2.2726   -1.1944 H   0  0  0  0  0  0  0  0  0  0  0  0
   -2.5820    0.5214   -1.4787 H   0  0  0  0  0  0  0  0  0  0  0  0
   -3.8182    1.0764    0.2010 C   0  0  0  0  0  0  0  0  0  0  0  0
   -3.7191    0.1064    0.6941 H   0  0  0  0  0  0  0  0  0  0  0  0
   -3.8410    1.8608    0.9600 H   0  0  0  0  0  0  0  0  0  0  0  0
   -5.1158    1.1085   -0.6161 C   0  0  0  0  0  0  0  0  0  0  0  0
   -5.1924    2.0838   -1.1076 H   0  0  0  0  0  0  0  0  0  0  0  0
   -5.0543    0.3439   -1.3965 H   0  0  0  0  0  0  0  0  0  0  0  0
   -6.3059    0.8724    0.2398 N   0  3  0  0  0  0  0  0  0  0  0  0
   -6.3741    1.5830    0.9576 H   0  0  0  0  0  0  0  0  0  0  0  0
   -7.1530    0.8964   -0.3140 H   0  0  0  0  0  0  0  0  0  0  0  0
   -6.2440   -0.0332    0.6902 H   0  0  0  0  0  0  0  0  0  0  0  0
   -0.5865    0.0771    2.2496 C   0  0  0  0  0  0  0  0  0  0  0  0
    0.5860   -0.1608    2.5143 O   0  0  0  0  0  0  0  0  0  0  0  0
   -1.4786    0.4656    3.1667 N   0  0  0  0  0  0  0  0  0  0  0  0
   -2.4139    0.6698    2.8558 H   0  0  0  0  0  0  0  0  0  0  0  0
   -1.1587    0.6908    4.5775 C   0  0  0  0  0  0  0  0  0  0  0  0
   -0.4270    1.4968    4.6656 H   0  0  0  0  0  0  0  0  0  0  0  0
   -2.0565    0.9649    5.1327 H   0  0  0  0  0  0  0  0  0  0  0  0
   -0.7281   -0.2137    5.0125 H   0  0  0  0  0  0  0  0  0  0  0  0
  5  6  2  0  0  0  0
  5  7  1  0  0  0  0
  2  3  1  0  0  0  0
  2  4  1  0  0  0  0
  2  5  1  0  0  0  0
  1  2  1  0  0  0  0
 27 28  2  0  0  0  0
 27 29  1  0  0  0  0
 23 24  1  0  0  0  0
 23 25  1  0  0  0  0
 23 26  1  0  0  0  0
 20 21  1  0  0  0  0
 20 22  1  0  0  0  0
 20 23  1  0  0  0  0
 17 18  1  0  0  0  0
 17 19  1  0  0  0  0
 17 20  1  0  0  0  0
 14 15  1  0  0  0  0
 14 16  1  0  0  0  0
 14 17  1  0  0  0  0
 11 12  1  0  0  0  0
 11 13  1  0  0  0  0
 11 14  1  0  0  0  0
  9 10  1  0  0  0  0
  9 11  1  0  0  0  0
  9 27  1  0  0  0  0
  7  8  1  0  0  0  0
  7  9  1  0  0  0  0
 31 32  1  0  0  0  0
 31 33  1  0  0  0  0
 31 34  1  0  0  0  0
 29 30  1  0  0  0  0
 29 31  1  0  0  0  0
M  CHG  1  23   1
M  END
$$$$
default_name
  -OEChem-02102213163D

 34 33  0     1  0  0  0  0  0999 V2000
   -3.8899   -3.6747    1.6490 H   0  0  0  0  0  0  0  0  0  0  0  0
   -3.9109   -2.6717    1.2250 C   0  0  0  0  0  0  0  0  0  0  0  0
   -4.6009   -2.0517    1.7950 H   0  0  0  0  0  0  0  0  0  0  0  0
   -4.2309   -2.7237    0.1860 H   0  0  0  0  0  0  0  0  0  0  0  0
   -2.5229   -2.0787    1.2980 C   0  0  0  0  0  0  0  0  0  0  0  0
   -1.5999   -2.7227    1.7810 O   0  0  0  0  0  0  0  0  0  0  0  0
   -2.3659   -0.8447    0.8120 N   0  0  0  0  0  0  0  0  0  0  0  0
   -3.1749   -0.3807    0.4220 H   0  0  0  0  0  0  0  0  0  0  0  0
   -1.0919   -0.1077    0.8170 C   0  0  1  0  0  0  0  0  0  0  0  0
   -0.3571   -0.6901    0.2581 H   0  0  0  0  0  0  0  0  0  0  0  0
   -1.3037    1.2411    0.1040 C   0  0  0  0  0  0  0  0  0  0  0  0
   -1.3359    2.0307    0.8564 H   0  0  0  0  0  0  0  0  0  0  0  0
   -0.4562    1.4348   -0.5564 H   0  0  0  0  0  0  0  0  0  0  0  0
   -2.6043    1.2983   -0.7119 C   0  0  0  0  0  0  0  0  0  0  0  0
   -2.5711    2.1463   -1.3972 H   0  0  0  0  0  0  0  0  0  0  0  0
   -2.7073    0.3773   -1.2891 H   0  0  0  0  0  0  0  0  0  0  0  0
   -3.8140    1.4515    0.2205 C   0  0  0  0  0  0  0  0  0  0  0  0
   -3.8358    0.6085    0.9153 H   0  0  0  0  0  0  0  0  0  0  0  0
   -3.7107    2.3782    0.7885 H   0  0  0  0  0  0  0  0  0  0  0  0
   -5.1151    1.4837   -0.5910 C   0  0  0  0  0  0  0  0  0  0  0  0
   -5.0702    2.3292   -1.2853 H   0  0  0  0  0  0  0  0  0  0  0  0
   -5.1779    0.5662   -1.1839 H   0  0  0  0  0  0  0  0  0  0  0  0
   -6.3044    1.6075    0.2891 N   0  3  0  0  0  0  0  0  0  0  0  0
   -6.2572    2.4601    0.8327 H   0  0  0  0  0  0  0  0  0  0  0  0
   -7.1540    1.6270   -0.2613 H   0  0  0  0  0  0  0  0  0  0  0  0
   -6.3555    0.8225    0.9279 H   0  0  0  0  0  0  0  0  0  0  0  0
   -0.5865    0.0771    2.2496 C   0  0  0  0  0  0  0  0  0  0  0  0
    0.5860   -0.1608    2.5143 O   0  0  0  0  0  0  0  0  0  0  0  0
   -1.4786    0.4656    3.1667 N   0  0  0  0  0  0  0  0  0  0  0  0
   -2.4139    0.6698    2.8558 H   0  0  0  0  0  0  0  0  0  0  0  0
   -1.1587    0.6908    4.5775 C   0  0  0  0  0  0  0  0  0  0  0  0
   -0.4270    1.4968    4.6656 H   0  0  0  0  0  0  0  0  0  0  0  0
   -2.0565    0.9649    5.1327 H   0  0  0  0  0  0  0  0  0  0  0  0
   -0.7281   -0.2137    5.0125 H   0  0  0  0  0  0  0  0  0  0  0  0
  5  6  2  0  0  0  0
  5  7  1  0  0  0  0
  2  3  1  0  0  0  0
  2  4  1  0  0  0  0
  2  5  1  0  0  0  0
  1  2  1  0  0  0  0
 27 28  2  0  0  0  0
 27 29  1  0  0  0  0
 23 24  1  0  0  0  0
 23 25  1  0  0  0  0
 23 26  1  0  0  0  0
 20 21  1  0  0  0  0
 20 22  1  0  0  0  0
 20 23  1  0  0  0  0
 17 18  1  0  0  0  0
 17 19  1  0  0  0  0
 17 20  1  0  0  0  0
 14 15  1  0  0  0  0
 14 16  1  0  0  0  0
 14 17  1  0  0  0  0
 11 12  1  0  0  0  0
 11 13  1  0  0  0  0
 11 14  1  0  0  0  0
  9 10  1  0  0  0  0
  9 11  1  0  0  0  0
  9 27  1  0  0  0  0
  7  8  1  0  0  0  0
  7  9  1  0  0  0  0
 31 32  1  0  0  0  0
 31 33  1  0  0  0  0
 31 34  1  0  0  0  0
 29 30  1  0  0  0  0
 29 31  1  0  0  0  0
M  CHG  1  23   1
M  END
$$$$
default_name
  -OEChem-02102213163D

 34 33  0     1  0  0  0  0  0999 V2000
   -3.8899   -3.6747    1.6490 H   0  0  0  0  0  0  0  0  0  0  0  0
   -3.9109   -2.6717    1.2250 C   0  0  0  0  0  0  0  0  0  0  0  0
   -4.6009   -2.0517    1.7950 H   0  0  0  0  0  0  0  0  0  0  0  0
   -4.2309   -2.7237    0.1860 H   0  0  0  0  0  0  0  0  0  0  0  0
   -2.5229   -2.0787    1.2980 C   0  0  0  0  0  0  0  0  0  0  0  0
   -1.5999   -2.7227    1.7810 O   0  0  0  0  0  0  0  0  0  0  0  0
   -2.3659   -0.8447    0.8120 N   0  0  0  0  0  0  0  0  0  0  0  0
   -3.1749   -0.3807    0.4220 H   0  0  0  0  0  0  0  0  0  0  0  0
   -1.0919   -0.1077    0.8170 C   0  0  1  0  0  0  0  0  0  0  0  0
   -0.3571   -0.6901    0.2581 H   0  0  0  0  0  0  0  0  0  0  0  0
   -1.3037    1.2411    0.1040 C   0  0  0  0  0  0  0  0  0  0  0  0
   -1.3359    2.0307    0.8564 H   0  0  0  0  0  0  0  0  0  0  0  0
   -0.4562    1.4348   -0.5564 H   0  0  0  0  0  0  0  0  0  0  0  0
   -2.6043    1.2983   -0.7119 C   0  0  0  0  0  0  0  0  0  0  0  0
   -2.4729    1.9631   -1.5666 H   0  0  0  0  0  0  0  0  0  0  0  0
   -2.8463    0.2968   -1.0731 H   0  0  0  0  0  0  0  0  0  0  0  0
   -3.7581    1.8175    0.1571 C   0  0  0  0  0  0  0  0  0  0  0  0
   -3.8774    1.1579    1.0201 H   0  0  0  0  0  0  0  0  0  0  0  0
   -3.5153    2.8224    0.5081 H   0  0  0  0  0  0  0  0  0  0  0  0
   -5.0625    1.8516   -0.6490 C   0  0  0  0  0  0  0  0  0  0  0  0
   -4.9201    2.5104   -1.5118 H   0  0  0  0  0  0  0  0  0  0  0  0
   -5.2646    0.8445   -1.0261 H   0  0  0  0  0  0  0  0  0  0  0  0
   -6.2016    2.3281    0.1756 N   0  3  0  0  0  0  0  0  0  0  0  0
   -6.0249    3.2640    0.5188 H   0  0  0  0  0  0  0  0  0  0  0  0
   -7.0540    2.3445   -0.3704 H   0  0  0  0  0  0  0  0  0  0  0  0
   -6.3432    1.7165    0.9710 H   0  0  0  0  0  0  0  0  0  0  0  0
   -0.5865    0.0771    2.2496 C   0  0  0  0  0  0  0  0  0  0  0  0
    0.5860   -0.1608    2.5143 O   0  0  0  0  0  0  0  0  0  0  0  0
   -1.4786    0.4656    3.1667 N   0  0  0  0  0  0  0  0  0  0  0  0
   -2.4139    0.6698    2.8558 H   0  0  0  0  0  0  0  0  0  0  0  0
   -1.1587    0.6908    4.5775 C   0  0  0  0  0  0  0  0  0  0  0  0
   -0.4270    1.4968    4.6656 H   0  0  0  0  0  0  0  0  0  0  0  0
   -2.0565    0.9649    5.1327 H   0  0  0  0  0  0  0  0  0  0  0  0
   -0.7281   -0.2137    5.0125 H   0  0  0  0  0  0  0  0  0  0  0  0
  5  6  2  0  0  0  0
  5  7  1  0  0  0  0
  2  3  1  0  0  0  0
  2  4  1  0  0  0  0
  2  5  1  0  0  0  0
  1  2  1  0  0  0  0
 27 28  2  0  0  0  0
 27 29  1  0  0  0  0
 23 24  1  0  0  0  0
 23 25  1  0  0  0  0
 23 26  1  0  0  0  0
 20 21  1  0  0  0  0
 20 22  1  0  0  0  0
 20 23  1  0  0  0  0
 17 18  1  0  0  0  0
 17 19  1  0  0  0  0
 17 20  1  0  0  0  0
 14 15  1  0  0  0  0
 14 16  1  0  0  0  0
 14 17  1  0  0  0  0
 11 12  1  0  0  0  0
 11 13  1  0  0  0  0
 11 14  1  0  0  0  0
  9 10  1  0  0  0  0
  9 11  1  0  0  0  0
  9 27  1  0  0  0  0
  7  8  1  0  0  0  0
  7  9  1  0  0  0  0
 31 32  1  0  0  0  0
 31 33  1  0  0  0  0
 31 34  1  0  0  0  0
 29 30  1  0  0  0  0
 29 31  1  0  0  0  0
M  CHG  1  23   1
M  END
$$$$
default_name
  -OEChem-02102213163D

 34 33  0     1  0  0  0  0  0999 V2000
   -3.8899   -3.6747    1.6490 H   0  0  0  0  0  0  0  0  0  0  0  0
   -3.9109   -2.6717    1.2250 C   0  0  0  0  0  0  0  0  0  0  0  0
   -4.6009   -2.0517    1.7950 H   0  0  0  0  0  0  0  0  0  0  0  0
   -4.2309   -2.7237    0.1860 H   0  0  0  0  0  0  0  0  0  0  0  0
   -2.5229   -2.0787    1.2980 C   0  0  0  0  0  0  0  0  0  0  0  0
   -1.5999   -2.7227    1.7810 O   0  0  0  0  0  0  0  0  0  0  0  0
   -2.3659   -0.8447    0.8120 N   0  0  0  0  0  0  0  0  0  0  0  0
   -3.1749   -0.3807    0.4220 H   0  0  0  0  0  0  0  0  0  0  0  0
   -1.0919   -0.1077    0.8170 C   0  0  1  0  0  0  0  0  0  0  0  0
   -0.3571   -0.6901    0.2581 H   0  0  0  0  0  0  0  0  0  0  0  0
   -1.3037    1.2411    0.1040 C   0  0  0  0  0  0  0  0  0  0  0  0
   -1.3359    2.0307    0.8564 H   0  0  0  0  0  0  0  0  0  0  0  0
   -0.4562    1.4348   -0.5564 H   0  0  0  0  0  0  0  0  0  0  0  0
   -2.6043    1.2983   -0.7119 C   0  0  0  0  0  0  0  0  0  0  0  0
   -2.4048    1.7356   -1.6911 H   0  0  0  0  0  0  0  0  0  0  0  0
   -2.9896    0.2855   -0.8456 H   0  0  0  0  0  0  0  0  0  0  0  0
   -3.6545    2.1494    0.0152 C   0  0  0  0  0  0  0  0  0  0  0  0
   -3.8410    1.7174    1.0013 H   0  0  0  0  0  0  0  0  0  0  0  0
   -3.2682    3.1632    0.1381 H   0  0  0  0  0  0  0  0  0  0  0  0
   -4.9618    2.1870   -0.7862 C   0  0  0  0  0  0  0  0  0  0  0  0
   -4.7524    2.6152   -1.7718 H   0  0  0  0  0  0  0  0  0  0  0  0
   -5.3086    1.1598   -0.9338 H   0  0  0  0  0  0  0  0  0  0  0  0
   -6.0043    2.9852   -0.0929 N   0  3  0  0  0  0  0  0  0  0  0  0
   -5.6931    3.9397    0.0373 H   0  0  0  0  0  0  0  0  0  0  0  0
   -6.8598    2.9998   -0.6340 H   0  0  0  0  0  0  0  0  0  0  0  0
   -6.2081    2.5877    0.8166 H   0  0  0  0  0  0  0  0  0  0  0  0
   -0.5865    0.0771    2.2496 C   0  0  0  0  0  0  0  0  0  0  0  0
    0.5860   -0.1608    2.5143 O   0  0  0  0  0  0  0  0  0  0  0  0
   -1.4786    0.4656    3.1667 N   0  0  0  0  0  0  0  0  0  0  0  0
   -2.4139    0.6698    2.8558 H   0  0  0  0  0  0  0  0  0  0  0  0
   -1.1587    0.6908    4.5775 C   0  0  0  0  0  0  0  0  0  0  0  0
   -0.4270    1.4968    4.6656 H   0  0  0  0  0  0  0  0  0  0  0  0
   -2.0565    0.9649    5.1327 H   0  0  0  0  0  0  0  0  0  0  0  0
   -0.7281   -0.2137    5.0125 H   0  0  0  0  0  0  0  0  0  0  0  0
  5  6  2  0  0  0  0
  5  7  1  0  0  0  0
  2  3  1  0  0  0  0
  2  4  1  0  0  0  0
  2  5  1  0  0  0  0
  1  2  1  0  0  0  0
 27 28  2  0  0  0  0
 27 29  1  0  0  0  0
 23 24  1  0  0  0  0
 23 25  1  0  0  0  0
 23 26  1  0  0  0  0
 20 21  1  0  0  0  0
 20 22  1  0  0  0  0
 20 23  1  0  0  0  0
 17 18  1  0  0  0  0
 17 19  1  0  0  0  0
 17 20  1  0  0  0  0
 14 15  1  0  0  0  0
 14 16  1  0  0  0  0
 14 17  1  0  0  0  0
 11 12  1  0  0  0  0
 11 13  1  0  0  0  0
 11 14  1  0  0  0  0
  9 10  1  0  0  0  0
  9 11  1  0  0  0  0
  9 27  1  0  0  0  0
  7  8  1  0  0  0  0
  7  9  1  0  0  0  0
 31 32  1  0  0  0  0
 31 33  1  0  0  0  0
 31 34  1  0  0  0  0
 29 30  1  0  0  0  0
 29 31  1  0  0  0  0
M  CHG  1  23   1
M  END
$$$$
default_name
  -OEChem-02102213163D

 34 33  0     1  0  0  0  0  0999 V2000
   -3.8899   -3.6747    1.6490 H   0  0  0  0  0  0  0  0  0  0  0  0
   -3.9109   -2.6717    1.2250 C   0  0  0  0  0  0  0  0  0  0  0  0
   -4.6009   -2.0517    1.7950 H   0  0  0  0  0  0  0  0  0  0  0  0
   -4.2309   -2.7237    0.1860 H   0  0  0  0  0  0  0  0  0  0  0  0
   -2.5229   -2.0787    1.2980 C   0  0  0  0  0  0  0  0  0  0  0  0
   -1.5999   -2.7227    1.7810 O   0  0  0  0  0  0  0  0  0  0  0  0
   -2.3659   -0.8447    0.8120 N   0  0  0  0  0  0  0  0  0  0  0  0
   -3.1749   -0.3807    0.4220 H   0  0  0  0  0  0  0  0  0  0  0  0
   -1.0919   -0.1077    0.8170 C   0  0  1  0  0  0  0  0  0  0  0  0
   -0.3571   -0.6901    0.2581 H   0  0  0  0  0  0  0  0  0  0  0  0
   -1.3037    1.2411    0.1040 C   0  0  0  0  0  0  0  0  0  0  0  0
   -1.3359    2.0307    0.8564 H   0  0  0  0  0  0  0  0  0  0  0  0
   -0.4562    1.4348   -0.5564 H   0  0  0  0  0  0  0  0  0  0  0  0
   -2.6043    1.2983   -0.7119 C   0  0  0  0  0  0  0  0  0  0  0  0
   -2.3715    1.4792   -1.7621 H   0  0  0  0  0  0  0  0  0  0  0  0
   -3.1273    0.3441   -0.6219 H   0  0  0  0  0  0  0  0  0  0  0  0
   -3.5101    2.4248   -0.1956 C   0  0  0  0  0  0  0  0  0  0  0  0
   -3.7292    2.2486    0.8603 H   0  0  0  0  0  0  0  0  0  0  0  0
   -2.9862    3.3774   -0.2963 H   0  0  0  0  0  0  0  0  0  0  0  0
   -4.8196    2.4671   -0.9931 C   0  0  0  0  0  0  0  0  0  0  0  0
   -4.5785    2.6364   -2.0475 H   0  0  0  0  0  0  0  0  0  0  0  0
   -5.3069    1.4907   -0.9134 H   0  0  0  0  0  0  0  0  0  0  0  0
   -5.7259    3.5339   -0.4981 N   0  3  0  0  0  0  0  0  0  0  0  0
   -5.2844    4.4413   -0.5791 H   0  0  0  0  0  0  0  0  0  0  0  0
   -6.5847    3.5484   -1.0340 H   0  0  0  0  0  0  0  0  0  0  0  0
   -5.9593    3.3769    0.4754 H   0  0  0  0  0  0  0  0  0  0  0  0
   -0.5865    0.0771    2.2496 C   0  0  0  0  0  0  0  0  0  0  0  0
    0.5860   -0.1608    2.5143 O   0  0  0  0  0  0  0  0  0  0  0  0
   -1.4786    0.4656    3.1667 N   0  0  0  0  0  0  0  0  0  0  0  0
   -2.4139    0.6698    2.8558 H   0  0  0  0  0  0  0  0  0  0  0  0
   -1.1587    0.6908    4.5775 C   0  0  0  0  0  0  0  0  0  0  0  0
   -0.4270    1.4968    4.6656 H   0  0  0  0  0  0  0  0  0  0  0  0
   -2.0565    0.9649    5.1327 H   0  0  0  0  0  0  0  0  0  0  0  0
   -0.7281   -0.2137    5.0125 H   0  0  0  0  0  0  0  0  0  0  0  0
  5  6  2  0  0  0  0
  5  7  1  0  0  0  0
  2  3  1  0  0  0  0
  2  4  1  0  0  0  0
  2  5  1  0  0  0  0
  1  2  1  0  0  0  0
 27 28  2  0  0  0  0
 27 29  1  0  0  0  0
 23 24  1  0  0  0  0
 23 25  1  0  0  0  0
 23 26  1  0  0  0  0
 20 21  1  0  0  0  0
 20 22  1  0  0  0  0
 20 23  1  0  0  0  0
 17 18  1  0  0  0  0
 17 19  1  0  0  0  0
 17 20  1  0  0  0  0
 14 15  1  0  0  0  0
 14 16  1  0  0  0  0
 14 17  1  0  0  0  0
 11 12  1  0  0  0  0
 11 13  1  0  0  0  0
 11 14  1  0  0  0  0
  9 10  1  0  0  0  0
  9 11  1  0  0  0  0
  9 27  1  0  0  0  0
  7  8  1  0  0  0  0
  7  9  1  0  0  0  0
 31 32  1  0  0  0  0
 31 33  1  0  0  0  0
 31 34  1  0  0  0  0
 29 30  1  0  0  0  0
 29 31  1  0  0  0  0
M  CHG  1  23   1
M  END
$$$$
default_name
  -OEChem-02102213163D

 34 33  0     1  0  0  0  0  0999 V2000
   -3.8899   -3.6747    1.6490 H   0  0  0  0  0  0  0  0  0  0  0  0
   -3.9109   -2.6717    1.2250 C   0  0  0  0  0  0  0  0  0  0  0  0
   -4.6009   -2.0517    1.7950 H   0  0  0  0  0  0  0  0  0  0  0  0
   -4.2309   -2.7237    0.1860 H   0  0  0  0  0  0  0  0  0  0  0  0
   -2.5229   -2.0787    1.2980 C   0  0  0  0  0  0  0  0  0  0  0  0
   -1.5999   -2.7227    1.7810 O   0  0  0  0  0  0  0  0  0  0  0  0
   -2.3659   -0.8447    0.8120 N   0  0  0  0  0  0  0  0  0  0  0  0
   -3.1749   -0.3807    0.4220 H   0  0  0  0  0  0  0  0  0  0  0  0
   -1.0919   -0.1077    0.8170 C   0  0  1  0  0  0  0  0  0  0  0  0
   -0.3571   -0.6901    0.2581 H   0  0  0  0  0  0  0  0  0  0  0  0
   -1.3037    1.2411    0.1040 C   0  0  0  0  0  0  0  0  0  0  0  0
   -1.3359    2.0307    0.8564 H   0  0  0  0  0  0  0  0  0  0  0  0
   -0.4562    1.4348   -0.5564 H   0  0  0  0  0  0  0  0  0  0  0  0
   -2.6043    1.2983   -0.7119 C   0  0  0  0  0  0  0  0  0  0  0  0
   -2.3753    1.2114   -1.7749 H   0  0  0  0  0  0  0  0  0  0  0  0
   -3.2501    0.4687   -0.4174 H   0  0  0  0  0  0  0  0  0  0  0  0
   -3.3349    2.6247   -0.4610 C   0  0  0  0  0  0  0  0  0  0  0  0
   -3.5495    2.7155    0.6065 H   0  0  0  0  0  0  0  0  0  0  0  0
   -2.6886    3.4503   -0.7656 H   0  0  0  0  0  0  0  0  0  0  0  0
   -4.6459    2.6728   -1.2557 C   0  0  0  0  0  0  0  0  0  0  0  0
   -4.4103    2.5726   -2.3202 H   0  0  0  0  0  0  0  0  0  0  0  0
   -5.2596    1.8145   -0.9661 H   0  0  0  0  0  0  0  0  0  0  0  0
   -5.3856    3.9370   -1.0125 N   0  3  0  0  0  0  0  0  0  0  0  0
   -4.8266    4.7346   -1.2884 H   0  0  0  0  0  0  0  0  0  0  0  0
   -6.2475    3.9528   -1.5433 H   0  0  0  0  0  0  0  0  0  0  0  0
   -5.6138    4.0302   -0.0296 H   0  0  0  0  0  0  0  0  0  0  0  0
   -0.5865    0.0771    2.2496 C   0  0  0  0  0  0  0  0  0  0  0  0
    0.5860   -0.1608    2.5143 O   0  0  0  0  0  0  0  0  0  0  0  0
   -1.4786    0.4656    3.1667 N   0  0  0  0  0  0  0  0  0  0  0  0
   -2.4139    0.6698    2.8558 H   0  0  0  0  0  0  0  0  0  0  0  0
   -1.1587    0.6908    4.5775 C   0  0  0  0  0  0  0  0  0  0  0  0
   -0.4270    1.4968    4.6656 H   0  0  0  0  0  0  0  0  0  0  0  0
   -2.0565    0.9649    5.1327 H   0  0  0  0  0  0  0  0  0  0  0  0
   -0.7281   -0.2137    5.0125 H   0  0  0  0  0  0  0  0  0  0  0  0
  5  6  2  0  0  0  0
  5  7  1  0  0  0  0
  2  3  1  0  0  0  0
  2  4  1  0  0  0  0
  2  5  1  0  0  0  0
  1  2  1  0  0  0  0
 27 28  2  0  0  0  0
 27 29  1  0  0  0  0
 23 24  1  0  0  0  0
 23 25  1  0  0  0  0
 23 26  1  0  0  0  0
 20 21  1  0  0  0  0
 20 22  1  0  0  0  0
 20 23  1  0  0  0  0
 17 18  1  0  0  0  0
 17 19  1  0  0  0  0
 17 20  1  0  0  0  0
 14 15  1  0  0  0  0
 14 16  1  0  0  0  0
 14 17  1  0  0  0  0
 11 12  1  0  0  0  0
 11 13  1  0  0  0  0
 11 14  1  0  0  0  0
  9 10  1  0  0  0  0
  9 11  1  0  0  0  0
  9 27  1  0  0  0  0
  7  8  1  0  0  0  0
  7  9  1  0  0  0  0
 31 32  1  0  0  0  0
 31 33  1  0  0  0  0
 31 34  1  0  0  0  0
 29 30  1  0  0  0  0
 29 31  1  0  0  0  0
M  CHG  1  23   1
M  END
$$$$
default_name
  -OEChem-02102213163D

 34 33  0     1  0  0  0  0  0999 V2000
   -3.8899   -3.6747    1.6490 H   0  0  0  0  0  0  0  0  0  0  0  0
   -3.9109   -2.6717    1.2250 C   0  0  0  0  0  0  0  0  0  0  0  0
   -4.6009   -2.0517    1.7950 H   0  0  0  0  0  0  0  0  0  0  0  0
   -4.2309   -2.7237    0.1860 H   0  0  0  0  0  0  0  0  0  0  0  0
   -2.5229   -2.0787    1.2980 C   0  0  0  0  0  0  0  0  0  0  0  0
   -1.5999   -2.7227    1.7810 O   0  0  0  0  0  0  0  0  0  0  0  0
   -2.3659   -0.8447    0.8120 N   0  0  0  0  0  0  0  0  0  0  0  0
   -3.1749   -0.3807    0.4220 H   0  0  0  0  0  0  0  0  0  0  0  0
   -1.0919   -0.1077    0.8170 C   0  0  1  0  0  0  0  0  0  0  0  0
   -0.3571   -0.6901    0.2581 H   0  0  0  0  0  0  0  0  0  0  0  0
   -1.3037    1.2411    0.1040 C   0  0  0  0  0  0  0  0  0  0  0  0
   -1.3359    2.0307    0.8564 H   0  0  0  0  0  0  0  0  0  0  0  0
   -0.4562    1.4348   -0.5564 H   0  0  0  0  0  0  0  0  0  0  0  0
   -2.6043    1.2983   -0.7119 C   0  0  0  0  0  0  0  0  0  0  0  0
   -2.4159    0.9505   -1.7285 H   0  0  0  0  0  0  0  0  0  0  0  0
   -3.3496    0.6507   -0.2460 H   0  0  0  0  0  0  0  0  0  0  0  0
   -3.1407    2.7355   -0.7628 C   0  0  0  0  0  0  0  0  0  0  0  0
   -3.3142    3.0862    0.2574 H   0  0  0  0  0  0  0  0  0  0  0  0
   -2.3957    3.3770   -1.2377 H   0  0  0  0  0  0  0  0  0  0  0  0
   -4.4523    2.7900   -1.5560 C   0  0  0  0  0  0  0  0  0  0  0  0
   -4.2592    2.4281   -2.5712 H   0  0  0  0  0  0  0  0  0  0  0  0
   -5.1699    2.1092   -1.0884 H   0  0  0  0  0  0  0  0  0  0  0  0
   -5.0064    4.1668   -1.6008 N   0  3  0  0  0  0  0  0  0  0  0  0
   -4.3509    4.7996   -2.0421 H   0  0  0  0  0  0  0  0  0  0  0  0
   -5.8710    4.1856   -2.1271 H   0  0  0  0  0  0  0  0  0  0  0  0
   -5.1952    4.5031   -0.6638 H   0  0  0  0  0  0  0  0  0  0  0  0
   -0.5865    0.0771    2.2496 C   0  0  0  0  0  0  0  0  0  0  0  0
    0.5860   -0.1608    2.5143 O   0  0  0  0  0  0  0  0  0  0  0  0
   -1.4786    0.4656    3.1667 N   0  0  0  0  0  0  0  0  0  0  0  0
   -2.4139    0.6698    2.8558 H   0  0  0  0  0  0  0  0  0  0  0  0
   -1.1587    0.6908    4.5775 C   0  0  0  0  0  0  0  0  0  0  0  0
   -0.4270    1.4968    4.6656 H   0  0  0  0  0  0  0  0  0  0  0  0
   -2.0565    0.9649    5.1327 H   0  0  0  0  0  0  0  0  0  0  0  0
   -0.7281   -0.2137    5.0125 H   0  0  0  0  0  0  0  0  0  0  0  0
  5  6  2  0  0  0  0
  5  7  1  0  0  0  0
  2  3  1  0  0  0  0
  2  4  1  0  0  0  0
  2  5  1  0  0  0  0
  1  2  1  0  0  0  0
 27 28  2  0  0  0  0
 27 29  1  0  0  0  0
 23 24  1  0  0  0  0
 23 25  1  0  0  0  0
 23 26  1  0  0  0  0
 20 21  1  0  0  0  0
 20 22  1  0  0  0  0
 20 23  1  0  0  0  0
 17 18  1  0  0  0  0
 17 19  1  0  0  0  0
 17 20  1  0  0  0  0
 14 15  1  0  0  0  0
 14 16  1  0  0  0  0
 14 17  1  0  0  0  0
 11 12  1  0  0  0  0
 11 13  1  0  0  0  0
 11 14  1  0  0  0  0
  9 10  1  0  0  0  0
  9 11  1  0  0  0  0
  9 27  1  0  0  0  0
  7  8  1  0  0  0  0
  7  9  1  0  0  0  0
 31 32  1  0  0  0  0
 31 33  1  0  0  0  0
 31 34  1  0  0  0  0
 29 30  1  0  0  0  0
 29 31  1  0  0  0  0
M  CHG  1  23   1
M  END
$$$$
default_name
  -OEChem-02102213163D

 34 33  0     1  0  0  0  0  0999 V2000
   -3.8899   -3.6747    1.6490 H   0  0  0  0  0  0  0  0  0  0  0  0
   -3.9109   -2.6717    1.2250 C   0  0  0  0  0  0  0  0  0  0  0  0
   -4.6009   -2.0517    1.7950 H   0  0  0  0  0  0  0  0  0  0  0  0
   -4.2309   -2.7237    0.1860 H   0  0  0  0  0  0  0  0  0  0  0  0
   -2.5229   -2.0787    1.2980 C   0  0  0  0  0  0  0  0  0  0  0  0
   -1.5999   -2.7227    1.7810 O   0  0  0  0  0  0  0  0  0  0  0  0
   -2.3659   -0.8447    0.8120 N   0  0  0  0  0  0  0  0  0  0  0  0
   -3.1749   -0.3807    0.4220 H   0  0  0  0  0  0  0  0  0  0  0  0
   -1.0919   -0.1077    0.8170 C   0  0  1  0  0  0  0  0  0  0  0  0
   -0.3571   -0.6901    0.2581 H   0  0  0  0  0  0  0  0  0  0  0  0
   -1.3037    1.2411    0.1040 C   0  0  0  0  0  0  0  0  0  0  0  0
   -1.3359    2.0307    0.8564 H   0  0  0  0  0  0  0  0  0  0  0  0
   -0.4562    1.4348   -0.5564 H   0  0  0  0  0  0  0  0  0  0  0  0
   -2.6043    1.2983   -0.7119 C   0  0  0  0  0  0  0  0  0  0  0  0
   -2.4905    0.7142   -1.6261 H   0  0  0  0  0  0  0  0  0  0  0  0
   -3.4191    0.8777   -0.1193 H   0  0  0  0  0  0  0  0  0  0  0  0
   -2.9408    2.7498   -1.0804 C   0  0  0  0  0  0  0  0  0  0  0  0
   -3.0393    3.3354   -0.1632 H   0  0  0  0  0  0  0  0  0  0  0  0
   -2.1273    3.1625   -1.6805 H   0  0  0  0  0  0  0  0  0  0  0  0
   -4.2521    2.8109   -1.8737 C   0  0  0  0  0  0  0  0  0  0  0  0
   -4.1355    2.2128   -2.7834 H   0  0  0  0  0  0  0  0  0  0  0  0
   -5.0440    2.3547   -1.2720 H   0  0  0  0  0  0  0  0  0  0  0  0
   -4.6142    4.2077   -2.2231 N   0  3  0  0  0  0  0  0  0  0  0  0
   -3.8897    4.6318   -2.7890 H   0  0  0  0  0  0  0  0  0  0  0  0
   -5.4811    4.2307   -2.7456 H   0  0  0  0  0  0  0  0  0  0  0  0
   -4.7319    4.7635   -1.3840 H   0  0  0  0  0  0  0  0  0  0  0  0
   -0.5865    0.0771    2.2496 C   0  0  0  0  0  0  0  0  0  0  0  0
    0.5860   -0.1608    2.5143 O   0  0  0  0  0  0  0  0  0  0  0  0
   -1.4786    0.4656    3.1667 N   0  0  0  0  0  0  0  0  0  0  0  0
   -2.4139    0.6698    2.8558 H   0  0  0  0  0  0  0  0  0  0  0  0
   -1.1587    0.6908    4.5775 C   0  0  0  0  0  0  0  0  0  0  0  0
   -0.4270    1.4968    4.6656 H   0  0  0  0  0  0  0  0  0  0  0  0
   -2.0565    0.9649    5.1327 H   0  0  0  0  0  0  0  0  0  0  0  0
   -0.7281   -0.2137    5.0125 H   0  0  0  0  0  0  0  0  0  0  0  0
  5  6  2  0  0  0  0
  5  7  1  0  0  0  0
  2  3  1  0  0  0  0
  2  4  1  0  0  0  0
  2  5  1  0  0  0  0
  1  2  1  0  0  0  0
 27 28  2  0  0  0  0
 27 29  1  0  0  0  0
 23 24  1  0  0  0  0
 23 25  1  0  0  0  0
 23 26  1  0  0  0  0
 20 21  1  0  0  0  0
 20 22  1  0  0  0  0
 20 23  1  0  0  0  0
 17 18  1  0  0  0  0
 17 19  1  0  0  0  0
 17 20  1  0  0  0  0
 14 15  1  0  0  0  0
 14 16  1  0  0  0  0
 14 17  1  0  0  0  0
 11 12  1  0  0  0  0
 11 13  1  0  0  0  0
 11 14  1  0  0  0  0
  9 10  1  0  0  0  0
  9 11  1  0  0  0  0
  9 27  1  0  0  0  0
  7  8  1  0  0  0  0
  7  9  1  0  0  0  0
 31 32  1  0  0  0  0
 31 33  1  0  0  0  0
 31 34  1  0  0  0  0
 29 30  1  0  0  0  0
 29 31  1  0  0  0  0
M  CHG  1  23   1
M  END
$$$$
default_name
  -OEChem-02102213163D

 34 33  0     1  0  0  0  0  0999 V2000
   -3.8899   -3.6747    1.6490 H   0  0  0  0  0  0  0  0  0  0  0  0
   -3.9109   -2.6717    1.2250 C   0  0  0  0  0  0  0  0  0  0  0  0
   -4.6009   -2.0517    1.7950 H   0  0  0  0  0  0  0  0  0  0  0  0
   -4.2309   -2.7237    0.1860 H   0  0  0  0  0  0  0  0  0  0  0  0
   -2.5229   -2.0787    1.2980 C   0  0  0  0  0  0  0  0  0  0  0  0
   -1.5999   -2.7227    1.7810 O   0  0  0  0  0  0  0  0  0  0  0  0
   -2.3659   -0.8447    0.8120 N   0  0  0  0  0  0  0  0  0  0  0  0
   -3.1749   -0.3807    0.4220 H   0  0  0  0  0  0  0  0  0  0  0  0
   -1.0919   -0.1077    0.8170 C   0  0  1  0  0  0  0  0  0  0  0  0
   -0.3571   -0.6901    0.2581 H   0  0  0  0  0  0  0  0  0  0  0  0
   -1.3037    1.2411    0.1040 C   0  0  0  0  0  0  0  0  0  0  0  0
   -1.0713    2.0448    0.8044 H   0  0  0  0  0  0  0  0  0  0  0  0
   -0.6132    1.3138   -0.7385 H   0  0  0  0  0  0  0  0  0  0  0  0
   -2.7409    1.4412   -0.4009 C   0  0  0  0  0  0  0  0  0  0  0  0
   -2.9957    0.6498   -1.1071 H   0  0  0  0  0  0  0  0  0  0  0  0
   -3.4286    1.3983    0.4459 H   0  0  0  0  0  0  0  0  0  0  0  0
   -2.8779    2.8017   -1.0983 C   0  0  0  0  0  0  0  0  0  0  0  0
   -2.6076    3.5911   -0.3930 H   0  0  0  0  0  0  0  0  0  0  0  0
   -2.1950    2.8358   -1.9496 H   0  0  0  0  0  0  0  0  0  0  0  0
   -4.3183    3.0135   -1.5811 C   0  0  0  0  0  0  0  0  0  0  0  0
   -4.5720    2.2094   -2.2795 H   0  0  0  0  0  0  0  0  0  0  0  0
   -4.9888    2.9335   -0.7201 H   0  0  0  0  0  0  0  0  0  0  0  0
   -4.4848    4.3339   -2.2393 N   0  3  0  0  0  0  0  0  0  0  0  0
   -3.8743    4.4099   -3.0432 H   0  0  0  0  0  0  0  0  0  0  0  0
   -5.4398    4.4581   -2.5514 H   0  0  0  0  0  0  0  0  0  0  0  0
   -4.2596    5.0821   -1.5940 H   0  0  0  0  0  0  0  0  0  0  0  0
   -0.5865    0.0771    2.2496 C   0  0  0  0  0  0  0  0  0  0  0  0
    0.5860   -0.1608    2.5143 O   0  0  0  0  0  0  0  0  0  0  0  0
   -1.4786    0.4656    3.1667 N   0  0  0  0  0  0  0  0  0  0  0  0
   -2.4139    0.6698    2.8558 H   0  0  0  0  0  0  0  0  0  0  0  0
   -1.1587    0.6908    4.5775 C   0  0  0  0  0  0  0  0  0  0  0  0
   -0.4270    1.4968    4.6656 H   0  0  0  0  0  0  0  0  0  0  0  0
   -2.0565    0.9649    5.1327 H   0  0  0  0  0  0  0  0  0  0  0  0
   -0.7281   -0.2137    5.0125 H   0  0  0  0  0  0  0  0  0  0  0  0
  5  6  2  0  0  0  0
  5  7  1  0  0  0  0
  2  3  1  0  0  0  0
  2  4  1  0  0  0  0
  2  5  1  0  0  0  0
  1  2  1  0  0  0  0
 27 28  2  0  0  0  0
 27 29  1  0  0  0  0
 23 24  1  0  0  0  0
 23 25  1  0  0  0  0
 23 26  1  0  0  0  0
 20 21  1  0  0  0  0
 20 22  1  0  0  0  0
 20 23  1  0  0  0  0
 17 18  1  0  0  0  0
 17 19  1  0  0  0  0
 17 20  1  0  0  0  0
 14 15  1  0  0  0  0
 14 16  1  0  0  0  0
 14 17  1  0  0  0  0
 11 12  1  0  0  0  0
 11 13  1  0  0  0  0
 11 14  1  0  0  0  0
  9 10  1  0  0  0  0
  9 11  1  0  0  0  0
  9 27  1  0  0  0  0
  7  8  1  0  0  0  0
  7  9  1  0  0  0  0
 31 32  1  0  0  0  0
 31 33  1  0  0  0  0
 31 34  1  0  0  0  0
 29 30  1  0  0  0  0
 29 31  1  0  0  0  0
M  CHG  1  23   1
M  END
$$$$
default_name
  -OEChem-02102213163D

 34 33  0     1  0  0  0  0  0999 V2000
   -3.8899   -3.6747    1.6490 H   0  0  0  0  0  0  0  0  0  0  0  0
   -3.9109   -2.6717    1.2250 C   0  0  0  0  0  0  0  0  0  0  0  0
   -4.6009   -2.0517    1.7950 H   0  0  0  0  0  0  0  0  0  0  0  0
   -4.2309   -2.7237    0.1860 H   0  0  0  0  0  0  0  0  0  0  0  0
   -2.5229   -2.0787    1.2980 C   0  0  0  0  0  0  0  0  0  0  0  0
   -1.5999   -2.7227    1.7810 O   0  0  0  0  0  0  0  0  0  0  0  0
   -2.3659   -0.8447    0.8120 N   0  0  0  0  0  0  0  0  0  0  0  0
   -3.1749   -0.3807    0.4220 H   0  0  0  0  0  0  0  0  0  0  0  0
   -1.0919   -0.1077    0.8170 C   0  0  1  0  0  0  0  0  0  0  0  0
   -0.3571   -0.6901    0.2581 H   0  0  0  0  0  0  0  0  0  0  0  0
   -1.3037    1.2411    0.1040 C   0  0  0  0  0  0  0  0  0  0  0  0
   -1.0713    2.0448    0.8044 H   0  0  0  0  0  0  0  0  0  0  0  0
   -0.6132    1.3138   -0.7385 H   0  0  0  0  0  0  0  0  0  0  0  0
   -2.7409    1.4412   -0.4009 C   0  0  0  0  0  0  0  0  0  0  0  0
   -3.0899    0.5291   -0.8870 H   0  0  0  0  0  0  0  0  0  0  0  0
   -3.3917    1.6649    0.4466 H   0  0  0  0  0  0  0  0  0  0  0  0
   -2.7981    2.6005   -1.4053 C   0  0  0  0  0  0  0  0  0  0  0  0
   -2.4339    3.5091   -0.9200 H   0  0  0  0  0  0  0  0  0  0  0  0
   -2.1530    2.3677   -2.2549 H   0  0  0  0  0  0  0  0  0  0  0  0
   -4.2365    2.8175   -1.8915 C   0  0  0  0  0  0  0  0  0  0  0  0
   -4.5850    1.8949   -2.3670 H   0  0  0  0  0  0  0  0  0  0  0  0
   -4.8726    3.0072   -1.0216 H   0  0  0  0  0  0  0  0  0  0  0  0
   -4.3246    3.9502   -2.8474 N   0  3  0  0  0  0  0  0  0  0  0  0
   -3.7460    3.7757   -3.6596 H   0  0  0  0  0  0  0  0  0  0  0  0
   -5.2793    4.0803   -3.1582 H   0  0  0  0  0  0  0  0  0  0  0  0
   -4.0113    4.8085   -2.4093 H   0  0  0  0  0  0  0  0  0  0  0  0
   -0.5865    0.0771    2.2496 C   0  0  0  0  0  0  0  0  0  0  0  0
    0.5860   -0.1608    2.5143 O   0  0  0  0  0  0  0  0  0  0  0  0
   -1.4786    0.4656    3.1667 N   0  0  0  0  0  0  0  0  0  0  0  0
   -2.4139    0.6698    2.8558 H   0  0  0  0  0  0  0  0  0  0  0  0
   -1.1587    0.6908    4.5775 C   0  0  0  0  0  0  0  0  0  0  0  0
   -0.4270    1.4968    4.6656 H   0  0  0  0  0  0  0  0  0  0  0  0
   -2.0565    0.9649    5.1327 H   0  0  0  0  0  0  0  0  0  0  0  0
   -0.7281   -0.2137    5.0125 H   0  0  0  0  0  0  0  0  0  0  0  0
  5  6  2  0  0  0  0
  5  7  1  0  0  0  0
  2  3  1  0  0  0  0
  2  4  1  0  0  0  0
  2  5  1  0  0  0  0
  1  2  1  0  0  0  0
 27 28  2  0  0  0  0
 27 29  1  0  0  0  0
 23 24  1  0  0  0  0
 23 25  1  0  0  0  0
 23 26  1  0  0  0  0
 20 21  1  0  0  0  0
 20 22  1  0  0  0  0
 20 23  1  0  0  0  0
 17 18  1  0  0  0  0
 17 19  1  0  0  0  0
 17 20  1  0  0  0  0
 14 15  1  0  0  0  0
 14 16  1  0  0  0  0
 14 17  1  0  0  0  0
 11 12  1  0  0  0  0
 11 13  1  0  0  0  0
 11 14  1  0  0  0  0
  9 10  1  0  0  0  0
  9 11  1  0  0  0  0
  9 27  1  0  0  0  0
  7  8  1  0  0  0  0
  7  9  1  0  0  0  0
 31 32  1  0  0  0  0
 31 33  1  0  0  0  0
 31 34  1  0  0  0  0
 29 30  1  0  0  0  0
 29 31  1  0  0  0  0
M  CHG  1  23   1
M  END
$$$$
default_name
  -OEChem-02102213163D

 34 33  0     1  0  0  0  0  0999 V2000
   -3.8899   -3.6747    1.6490 H   0  0  0  0  0  0  0  0  0  0  0  0
   -3.9109   -2.6717    1.2250 C   0  0  0  0  0  0  0  0  0  0  0  0
   -4.6009   -2.0517    1.7950 H   0  0  0  0  0  0  0  0  0  0  0  0
   -4.2309   -2.7237    0.1860 H   0  0  0  0  0  0  0  0  0  0  0  0
   -2.5229   -2.0787    1.2980 C   0  0  0  0  0  0  0  0  0  0  0  0
   -1.5999   -2.7227    1.7810 O   0  0  0  0  0  0  0  0  0  0  0  0
   -2.3659   -0.8447    0.8120 N   0  0  0  0  0  0  0  0  0  0  0  0
   -3.1749   -0.3807    0.4220 H   0  0  0  0  0  0  0  0  0  0  0  0
   -1.0919   -0.1077    0.8170 C   0  0  1  0  0  0  0  0  0  0  0  0
   -0.3571   -0.6901    0.2581 H   0  0  0  0  0  0  0  0  0  0  0  0
   -1.3037    1.2411    0.1040 C   0  0  0  0  0  0  0  0  0  0  0  0
   -1.0713    2.0448    0.8044 H   0  0  0  0  0  0  0  0  0  0  0  0
   -0.6132    1.3138   -0.7385 H   0  0  0  0  0  0  0  0  0  0  0  0
   -2.7409    1.4412   -0.4009 C   0  0  0  0  0  0  0  0  0  0  0  0
   -3.1837    0.4738   -0.6420 H   0  0  0  0  0  0  0  0  0  0  0  0
   -3.3334    1.9194    0.3814 H   0  0  0  0  0  0  0  0  0  0  0  0
   -2.7484    2.3250   -1.6558 C   0  0  0  0  0  0  0  0  0  0  0  0
   -2.2908    3.2876   -1.4150 H   0  0  0  0  0  0  0  0  0  0  0  0
   -2.1624    1.8381   -2.4379 H   0  0  0  0  0  0  0  0  0  0  0  0
   -4.1846    2.5461   -2.1467 C   0  0  0  0  0  0  0  0  0  0  0  0
   -4.6273    1.5711   -2.3749 H   0  0  0  0  0  0  0  0  0  0  0  0
   -4.7642    2.9956   -1.3347 H   0  0  0  0  0  0  0  0  0  0  0  0
   -4.2229    3.4187   -3.3474 N   0  3  0  0  0  0  0  0  0  0  0  0
   -3.6969    3.0030   -4.1058 H   0  0  0  0  0  0  0  0  0  0  0  0
   -5.1768    3.5549   -3.6582 H   0  0  0  0  0  0  0  0  0  0  0  0
   -3.8221    4.3258   -3.1389 H   0  0  0  0  0  0  0  0  0  0  0  0
   -0.5865    0.0771    2.2496 C   0  0  0  0  0  0  0  0  0  0  0  0
    0.5860   -0.1608    2.5143 O   0  0  0  0  0  0  0  0  0  0  0  0
   -1.4786    0.4656    3.1667 N   0  0  0  0  0  0  0  0  0  0  0  0
   -2.4139    0.6698    2.8558 H   0  0  0  0  0  0  0  0  0  0  0  0
   -1.1587    0.6908    4.5775 C   0  0  0  0  0  0  0  0  0  0  0  0
   -0.4270    1.4968    4.6656 H   0  0  0  0  0  0  0  0  0  0  0  0
   -2.0565    0.9649    5.1327 H   0  0  0  0  0  0  0  0  0  0  0  0
   -0.7281   -0.2137    5.0125 H   0  0  0  0  0  0  0  0  0  0  0  0
  5  6  2  0  0  0  0
  5  7  1  0  0  0  0
  2  3  1  0  0  0  0
  2  4  1  0  0  0  0
  2  5  1  0  0  0  0
  1  2  1  0  0  0  0
 27 28  2  0  0  0  0
 27 29  1  0  0  0  0
 23 24  1  0  0  0  0
 23 25  1  0  0  0  0
 23 26  1  0  0  0  0
 20 21  1  0  0  0  0
 20 22  1  0  0  0  0
 20 23  1  0  0  0  0
 17 18  1  0  0  0  0
 17 19  1  0  0  0  0
 17 20  1  0  0  0  0
 14 15  1  0  0  0  0
 14 16  1  0  0  0  0
 14 17  1  0  0  0  0
 11 12  1  0  0  0  0
 11 13  1  0  0  0  0
 11 14  1  0  0  0  0
  9 10  1  0  0  0  0
  9 11  1  0  0  0  0
  9 27  1  0  0  0  0
  7  8  1  0  0  0  0
  7  9  1  0  0  0  0
 31 32  1  0  0  0  0
 31 33  1  0  0  0  0
 31 34  1  0  0  0  0
 29 30  1  0  0  0  0
 29 31  1  0  0  0  0
M  CHG  1  23   1
M  END
$$$$
default_name
  -OEChem-02102213163D

 34 33  0     1  0  0  0  0  0999 V2000
   -3.8899   -3.6747    1.6490 H   0  0  0  0  0  0  0  0  0  0  0  0
   -3.9109   -2.6717    1.2250 C   0  0  0  0  0  0  0  0  0  0  0  0
   -4.6009   -2.0517    1.7950 H   0  0  0  0  0  0  0  0  0  0  0  0
   -4.2309   -2.7237    0.1860 H   0  0  0  0  0  0  0  0  0  0  0  0
   -2.5229   -2.0787    1.2980 C   0  0  0  0  0  0  0  0  0  0  0  0
   -1.5999   -2.7227    1.7810 O   0  0  0  0  0  0  0  0  0  0  0  0
   -2.3659   -0.8447    0.8120 N   0  0  0  0  0  0  0  0  0  0  0  0
   -3.1749   -0.3807    0.4220 H   0  0  0  0  0  0  0  0  0  0  0  0
   -1.0919   -0.1077    0.8170 C   0  0  1  0  0  0  0  0  0  0  0  0
   -0.3571   -0.6901    0.2581 H   0  0  0  0  0  0  0  0  0  0  0  0
   -1.3037    1.2411    0.1040 C   0  0  0  0  0  0  0  0  0  0  0  0
   -1.0713    2.0448    0.8044 H   0  0  0  0  0  0  0  0  0  0  0  0
   -0.6132    1.3138   -0.7385 H   0  0  0  0  0  0  0  0  0  0  0  0
   -2.7409    1.4412   -0.4009 C   0  0  0  0  0  0  0  0  0  0  0  0
   -3.2707    0.4877   -0.3887 H   0  0  0  0  0  0  0  0  0  0  0  0
   -3.2576    2.1445    0.2550 H   0  0  0  0  0  0  0  0  0  0  0  0
   -2.7323    1.9941   -1.8328 C   0  0  0  0  0  0  0  0  0  0  0  0
   -2.1881    2.9415   -1.8444 H   0  0  0  0  0  0  0  0  0  0  0  0
   -2.2228    1.2830   -2.4861 H   0  0  0  0  0  0  0  0  0  0  0  0
   -4.1662    2.2178   -2.3292 C   0  0  0  0  0  0  0  0  0  0  0  0
   -4.6960    1.2600   -2.3027 H   0  0  0  0  0  0  0  0  0  0  0  0
   -4.6711    2.8993   -1.6379 H   0  0  0  0  0  0  0  0  0  0  0  0
   -4.1868    2.7756   -3.7050 N   0  3  0  0  0  0  0  0  0  0  0  0
   -3.7301    2.1443   -4.3514 H   0  0  0  0  0  0  0  0  0  0  0  0
   -5.1393    2.9175   -4.0174 H   0  0  0  0  0  0  0  0  0  0  0  0
   -3.7051    3.6667   -3.7331 H   0  0  0  0  0  0  0  0  0  0  0  0
   -0.5865    0.0771    2.2496 C   0  0  0  0  0  0  0  0  0  0  0  0
    0.5860   -0.1608    2.5143 O   0  0  0  0  0  0  0  0  0  0  0  0
   -1.4786    0.4656    3.1667 N   0  0  0  0  0  0  0  0  0  0  0  0
   -2.4139    0.6698    2.8558 H   0  0  0  0  0  0  0  0  0  0  0  0
   -1.1587    0.6908    4.5775 C   0  0  0  0  0  0  0  0  0  0  0  0
   -0.4270    1.4968    4.6656 H   0  0  0  0  0  0  0  0  0  0  0  0
   -2.0565    0.9649    5.1327 H   0  0  0  0  0  0  0  0  0  0  0  0
   -0.7281   -0.2137    5.0125 H   0  0  0  0  0  0  0  0  0  0  0  0
  5  6  2  0  0  0  0
  5  7  1  0  0  0  0
  2  3  1  0  0  0  0
  2  4  1  0  0  0  0
  2  5  1  0  0  0  0
  1  2  1  0  0  0  0
 27 28  2  0  0  0  0
 27 29  1  0  0  0  0
 23 24  1  0  0  0  0
 23 25  1  0  0  0  0
 23 26  1  0  0  0  0
 20 21  1  0  0  0  0
 20 22  1  0  0  0  0
 20 23  1  0  0  0  0
 17 18  1  0  0  0  0
 17 19  1  0  0  0  0
 17 20  1  0  0  0  0
 14 15  1  0  0  0  0
 14 16  1  0  0  0  0
 14 17  1  0  0  0  0
 11 12  1  0  0  0  0
 11 13  1  0  0  0  0
 11 14  1  0  0  0  0
  9 10  1  0  0  0  0
  9 11  1  0  0  0  0
  9 27  1  0  0  0  0
  7  8  1  0  0  0  0
  7  9  1  0  0  0  0
 31 32  1  0  0  0  0
 31 33  1  0  0  0  0
 31 34  1  0  0  0  0
 29 30  1  0  0  0  0
 29 31  1  0  0  0  0
M  CHG  1  23   1
M  END
$$$$
default_name
  -OEChem-02102213163D

 34 33  0     1  0  0  0  0  0999 V2000
   -3.8899   -3.6747    1.6490 H   0  0  0  0  0  0  0  0  0  0  0  0
   -3.9109   -2.6717    1.2250 C   0  0  0  0  0  0  0  0  0  0  0  0
   -4.6009   -2.0517    1.7950 H   0  0  0  0  0  0  0  0  0  0  0  0
   -4.2309   -2.7237    0.1860 H   0  0  0  0  0  0  0  0  0  0  0  0
   -2.5229   -2.0787    1.2980 C   0  0  0  0  0  0  0  0  0  0  0  0
   -1.5999   -2.7227    1.7810 O   0  0  0  0  0  0  0  0  0  0  0  0
   -2.3659   -0.8447    0.8120 N   0  0  0  0  0  0  0  0  0  0  0  0
   -3.1749   -0.3807    0.4220 H   0  0  0  0  0  0  0  0  0  0  0  0
   -1.0919   -0.1077    0.8170 C   0  0  1  0  0  0  0  0  0  0  0  0
   -0.3571   -0.6901    0.2581 H   0  0  0  0  0  0  0  0  0  0  0  0
   -1.3037    1.2411    0.1040 C   0  0  0  0  0  0  0  0  0  0  0  0
   -1.0713    2.0448    0.8044 H   0  0  0  0  0  0  0  0  0  0  0  0
   -0.6132    1.3138   -0.7385 H   0  0  0  0  0  0  0  0  0  0  0  0
   -2.7409    1.4412   -0.4009 C   0  0  0  0  0  0  0  0  0  0  0  0
   -3.3450    0.5699   -0.1446 H   0  0  0  0  0  0  0  0  0  0  0  0
   -3.1696    2.3249    0.0757 H   0  0  0  0  0  0  0  0  0  0  0  0
   -2.7509    1.6303   -1.9241 C   0  0  0  0  0  0  0  0  0  0  0  0
   -2.1329    2.4946   -2.1788 H   0  0  0  0  0  0  0  0  0  0  0  0
   -2.3299    0.7403   -2.3962 H   0  0  0  0  0  0  0  0  0  0  0  0
   -4.1825    1.8549   -2.4266 C   0  0  0  0  0  0  0  0  0  0  0  0
   -4.7864    0.9829   -2.1553 H   0  0  0  0  0  0  0  0  0  0  0  0
   -4.5996    2.7250   -1.9106 H   0  0  0  0  0  0  0  0  0  0  0  0
   -4.2187    2.0648   -3.8960 N   0  3  0  0  0  0  0  0  0  0  0  0
   -3.8436    1.2584   -4.3796 H   0  0  0  0  0  0  0  0  0  0  0  0
   -5.1694    2.2117   -4.2113 H   0  0  0  0  0  0  0  0  0  0  0  0
   -3.6682    2.8763   -4.1515 H   0  0  0  0  0  0  0  0  0  0  0  0
   -0.5865    0.0771    2.2496 C   0  0  0  0  0  0  0  0  0  0  0  0
    0.5860   -0.1608    2.5143 O   0  0  0  0  0  0  0  0  0  0  0  0
   -1.4786    0.4656    3.1667 N   0  0  0  0  0  0  0  0  0  0  0  0
   -2.4139    0.6698    2.8558 H   0  0  0  0  0  0  0  0  0  0  0  0
   -1.1587    0.6908    4.5775 C   0  0  0  0  0  0  0  0  0  0  0  0
   -0.4270    1.4968    4.6656 H   0  0  0  0  0  0  0  0  0  0  0  0
   -2.0565    0.9649    5.1327 H   0  0  0  0  0  0  0  0  0  0  0  0
   -0.7281   -0.2137    5.0125 H   0  0  0  0  0  0  0  0  0  0  0  0
  5  6  2  0  0  0  0
  5  7  1  0  0  0  0
  2  3  1  0  0  0  0
  2  4  1  0  0  0  0
  2  5  1  0  0  0  0
  1  2  1  0  0  0  0
 27 28  2  0  0  0  0
 27 29  1  0  0  0  0
 23 24  1  0  0  0  0
 23 25  1  0  0  0  0
 23 26  1  0  0  0  0
 20 21  1  0  0  0  0
 20 22  1  0  0  0  0
 20 23  1  0  0  0  0
 17 18  1  0  0  0  0
 17 19  1  0  0  0  0
 17 20  1  0  0  0  0
 14 15  1  0  0  0  0
 14 16  1  0  0  0  0
 14 17  1  0  0  0  0
 11 12  1  0  0  0  0
 11 13  1  0  0  0  0
 11 14  1  0  0  0  0
  9 10  1  0  0  0  0
  9 11  1  0  0  0  0
  9 27  1  0  0  0  0
  7  8  1  0  0  0  0
  7  9  1  0  0  0  0
 31 32  1  0  0  0  0
 31 33  1  0  0  0  0
 31 34  1  0  0  0  0
 29 30  1  0  0  0  0
 29 31  1  0  0  0  0
M  CHG  1  23   1
M  END
$$$$
default_name
  -OEChem-02102213163D

 34 33  0     1  0  0  0  0  0999 V2000
   -3.8899   -3.6747    1.6490 H   0  0  0  0  0  0  0  0  0  0  0  0
   -3.9109   -2.6717    1.2250 C   0  0  0  0  0  0  0  0  0  0  0  0
   -4.6009   -2.0517    1.7950 H   0  0  0  0  0  0  0  0  0  0  0  0
   -4.2309   -2.7237    0.1860 H   0  0  0  0  0  0  0  0  0  0  0  0
   -2.5229   -2.0787    1.2980 C   0  0  0  0  0  0  0  0  0  0  0  0
   -1.5999   -2.7227    1.7810 O   0  0  0  0  0  0  0  0  0  0  0  0
   -2.3659   -0.8447    0.8120 N   0  0  0  0  0  0  0  0  0  0  0  0
   -3.1749   -0.3807    0.4220 H   0  0  0  0  0  0  0  0  0  0  0  0
   -1.0919   -0.1077    0.8170 C   0  0  1  0  0  0  0  0  0  0  0  0
   -0.3571   -0.6901    0.2581 H   0  0  0  0  0  0  0  0  0  0  0  0
   -1.3037    1.2411    0.1040 C   0  0  0  0  0  0  0  0  0  0  0  0
   -1.0713    2.0448    0.8044 H   0  0  0  0  0  0  0  0  0  0  0  0
   -0.6132    1.3138   -0.7385 H   0  0  0  0  0  0  0  0  0  0  0  0
   -2.7409    1.4412   -0.4009 C   0  0  0  0  0  0  0  0  0  0  0  0
   -3.4016    0.7146    0.0739 H   0  0  0  0  0  0  0  0  0  0  0  0
   -3.0752    2.4483   -0.1441 H   0  0  0  0  0  0  0  0  0  0  0  0
   -2.8028    1.2582   -1.9237 C   0  0  0  0  0  0  0  0  0  0  0  0
   -2.1288    1.9772   -2.3955 H   0  0  0  0  0  0  0  0  0  0  0  0
   -2.4765    0.2469   -2.1744 H   0  0  0  0  0  0  0  0  0  0  0  0
   -4.2324    1.4822   -2.4323 C   0  0  0  0  0  0  0  0  0  0  0  0
   -4.8923    0.7585   -1.9429 H   0  0  0  0  0  0  0  0  0  0  0  0
   -4.5545    2.4845   -2.1342 H   0  0  0  0  0  0  0  0  0  0  0  0
   -4.3164    1.3346   -3.9074 N   0  3  0  0  0  0  0  0  0  0  0  0
   -4.0295    0.4054   -4.1885 H   0  0  0  0  0  0  0  0  0  0  0  0
   -5.2651    1.4856   -4.2268 H   0  0  0  0  0  0  0  0  0  0  0  0
   -3.7139    2.0084   -4.3655 H   0  0  0  0  0  0  0  0  0  0  0  0
   -0.5865    0.0771    2.2496 C   0  0  0  0  0  0  0  0  0  0  0  0
    0.5860   -0.1608    2.5143 O   0  0  0  0  0  0  0  0  0  0  0  0
   -1.4786    0.4656    3.1667 N   0  0  0  0  0  0  0  0  0  0  0  0
   -2.4139    0.6698    2.8558 H   0  0  0  0  0  0  0  0  0  0  0  0
   -1.1587    0.6908    4.5775 C   0  0  0  0  0  0  0  0  0  0  0  0
   -0.4270    1.4968    4.6656 H   0  0  0  0  0  0  0  0  0  0  0  0
   -2.0565    0.9649    5.1327 H   0  0  0  0  0  0  0  0  0  0  0  0
   -0.7281   -0.2137    5.0125 H   0  0  0  0  0  0  0  0  0  0  0  0
  5  6  2  0  0  0  0
  5  7  1  0  0  0  0
  2  3  1  0  0  0  0
  2  4  1  0  0  0  0
  2  5  1  0  0  0  0
  1  2  1  0  0  0  0
 27 28  2  0  0  0  0
 27 29  1  0  0  0  0
 23 24  1  0  0  0  0
 23 25  1  0  0  0  0
 23 26  1  0  0  0  0
 20 21  1  0  0  0  0
 20 22  1  0  0  0  0
 20 23  1  0  0  0  0
 17 18  1  0  0  0  0
 17 19  1  0  0  0  0
 17 20  1  0  0  0  0
 14 15  1  0  0  0  0
 14 16  1  0  0  0  0
 14 17  1  0  0  0  0
 11 12  1  0  0  0  0
 11 13  1  0  0  0  0
 11 14  1  0  0  0  0
  9 10  1  0  0  0  0
  9 11  1  0  0  0  0
  9 27  1  0  0  0  0
  7  8  1  0  0  0  0
  7  9  1  0  0  0  0
 31 32  1  0  0  0  0
 31 33  1  0  0  0  0
 31 34  1  0  0  0  0
 29 30  1  0  0  0  0
 29 31  1  0  0  0  0
M  CHG  1  23   1
M  END
$$$$
default_name
  -OEChem-02102213163D

 34 33  0     1  0  0  0  0  0999 V2000
   -3.8899   -3.6747    1.6490 H   0  0  0  0  0  0  0  0  0  0  0  0
   -3.9109   -2.6717    1.2250 C   0  0  0  0  0  0  0  0  0  0  0  0
   -4.6009   -2.0517    1.7950 H   0  0  0  0  0  0  0  0  0  0  0  0
   -4.2309   -2.7237    0.1860 H   0  0  0  0  0  0  0  0  0  0  0  0
   -2.5229   -2.0787    1.2980 C   0  0  0  0  0  0  0  0  0  0  0  0
   -1.5999   -2.7227    1.7810 O   0  0  0  0  0  0  0  0  0  0  0  0
   -2.3659   -0.8447    0.8120 N   0  0  0  0  0  0  0  0  0  0  0  0
   -3.1749   -0.3807    0.4220 H   0  0  0  0  0  0  0  0  0  0  0  0
   -1.0919   -0.1077    0.8170 C   0  0  1  0  0  0  0  0  0  0  0  0
   -0.3571   -0.6901    0.2581 H   0  0  0  0  0  0  0  0  0  0  0  0
   -1.3037    1.2411    0.1040 C   0  0  0  0  0  0  0  0  0  0  0  0
   -1.0713    2.0448    0.8044 H   0  0  0  0  0  0  0  0  0  0  0  0
   -0.6132    1.3138   -0.7385 H   0  0  0  0  0  0  0  0  0  0  0  0
   -2.7409    1.4412   -0.4009 C   0  0  0  0  0  0  0  0  0  0  0  0
   -3.4366    0.9122    0.2518 H   0  0  0  0  0  0  0  0  0  0  0  0
   -2.9809    2.5062   -0.3894 H   0  0  0  0  0  0  0  0  0  0  0  0
   -2.8847    0.9035   -1.8314 C   0  0  0  0  0  0  0  0  0  0  0  0
   -2.1762    1.4247   -2.4796 H   0  0  0  0  0  0  0  0  0  0  0  0
   -2.6526   -0.1634   -1.8358 H   0  0  0  0  0  0  0  0  0  0  0  0
   -4.3125    1.1250   -2.3459 C   0  0  0  0  0  0  0  0  0  0  0  0
   -5.0065    0.6022   -1.6797 H   0  0  0  0  0  0  0  0  0  0  0  0
   -4.5389    2.1942   -2.2935 H   0  0  0  0  0  0  0  0  0  0  0  0
   -4.4732    0.6349   -3.7382 N   0  3  0  0  0  0  0  0  0  0  0  0
   -4.2752   -0.3564   -3.7912 H   0  0  0  0  0  0  0  0  0  0  0  0
   -5.4198    0.7886   -4.0627 H   0  0  0  0  0  0  0  0  0  0  0  0
   -3.8390    1.1221   -4.3605 H   0  0  0  0  0  0  0  0  0  0  0  0
   -0.5865    0.0771    2.2496 C   0  0  0  0  0  0  0  0  0  0  0  0
    0.5860   -0.1608    2.5143 O   0  0  0  0  0  0  0  0  0  0  0  0
   -1.4786    0.4656    3.1667 N   0  0  0  0  0  0  0  0  0  0  0  0
   -2.4139    0.6698    2.8558 H   0  0  0  0  0  0  0  0  0  0  0  0
   -1.1587    0.6908    4.5775 C   0  0  0  0  0  0  0  0  0  0  0  0
   -0.4270    1.4968    4.6656 H   0  0  0  0  0  0  0  0  0  0  0  0
   -2.0565    0.9649    5.1327 H   0  0  0  0  0  0  0  0  0  0  0  0
   -0.7281   -0.2137    5.0125 H   0  0  0  0  0  0  0  0  0  0  0  0
  5  6  2  0  0  0  0
  5  7  1  0  0  0  0
  2  3  1  0  0  0  0
  2  4  1  0  0  0  0
  2  5  1  0  0  0  0
  1  2  1  0  0  0  0
 27 28  2  0  0  0  0
 27 29  1  0  0  0  0
 23 24  1  0  0  0  0
 23 25  1  0  0  0  0
 23 26  1  0  0  0  0
 20 21  1  0  0  0  0
 20 22  1  0  0  0  0
 20 23  1  0  0  0  0
 17 18  1  0  0  0  0
 17 19  1  0  0  0  0
 17 20  1  0  0  0  0
 14 15  1  0  0  0  0
 14 16  1  0  0  0  0
 14 17  1  0  0  0  0
 11 12  1  0  0  0  0
 11 13  1  0  0  0  0
 11 14  1  0  0  0  0
  9 10  1  0  0  0  0
  9 11  1  0  0  0  0
  9 27  1  0  0  0  0
  7  8  1  0  0  0  0
  7  9  1  0  0  0  0
 31 32  1  0  0  0  0
 31 33  1  0  0  0  0
 31 34  1  0  0  0  0
 29 30  1  0  0  0  0
 29 31  1  0  0  0  0
M  CHG  1  23   1
M  END
$$$$
default_name
  -OEChem-02102213163D

 34 33  0     1  0  0  0  0  0999 V2000
   -3.8899   -3.6747    1.6490 H   0  0  0  0  0  0  0  0  0  0  0  0
   -3.9109   -2.6717    1.2250 C   0  0  0  0  0  0  0  0  0  0  0  0
   -4.6009   -2.0517    1.7950 H   0  0  0  0  0  0  0  0  0  0  0  0
   -4.2309   -2.7237    0.1860 H   0  0  0  0  0  0  0  0  0  0  0  0
   -2.5229   -2.0787    1.2980 C   0  0  0  0  0  0  0  0  0  0  0  0
   -1.5999   -2.7227    1.7810 O   0  0  0  0  0  0  0  0  0  0  0  0
   -2.3659   -0.8447    0.8120 N   0  0  0  0  0  0  0  0  0  0  0  0
   -3.1749   -0.3807    0.4220 H   0  0  0  0  0  0  0  0  0  0  0  0
   -1.0919   -0.1077    0.8170 C   0  0  1  0  0  0  0  0  0  0  0  0
   -0.3571   -0.6901    0.2581 H   0  0  0  0  0  0  0  0  0  0  0  0
   -1.3037    1.2411    0.1040 C   0  0  0  0  0  0  0  0  0  0  0  0
   -1.0713    2.0448    0.8044 H   0  0  0  0  0  0  0  0  0  0  0  0
   -0.6132    1.3138   -0.7385 H   0  0  0  0  0  0  0  0  0  0  0  0
   -2.7409    1.4412   -0.4009 C   0  0  0  0  0  0  0  0  0  0  0  0
   -3.4476    1.1490    0.3769 H   0  0  0  0  0  0  0  0  0  0  0  0
   -2.8932    2.4947   -0.6436 H   0  0  0  0  0  0  0  0  0  0  0  0
   -2.9908    0.5901   -1.6536 C   0  0  0  0  0  0  0  0  0  0  0  0
   -2.2718    0.8746   -2.4255 H   0  0  0  0  0  0  0  0  0  0  0  0
   -2.8462   -0.4628   -1.4034 H   0  0  0  0  0  0  0  0  0  0  0  0
   -4.4173    0.8077   -2.1733 C   0  0  0  0  0  0  0  0  0  0  0  0
   -5.1212    0.5247   -1.3839 H   0  0  0  0  0  0  0  0  0  0  0  0
   -4.5540    1.8740   -2.3776 H   0  0  0  0  0  0  0  0  0  0  0  0
   -4.6785    0.0133   -3.4002 N   0  3  0  0  0  0  0  0  0  0  0  0
   -4.5639   -0.9752   -3.2147 H   0  0  0  0  0  0  0  0  0  0  0  0
   -5.6230    0.1683   -3.7302 H   0  0  0  0  0  0  0  0  0  0  0  0
   -4.0351    0.2779   -4.1370 H   0  0  0  0  0  0  0  0  0  0  0  0
   -0.5865    0.0771    2.2496 C   0  0  0  0  0  0  0  0  0  0  0  0
    0.5860   -0.1608    2.5143 O   0  0  0  0  0  0  0  0  0  0  0  0
   -1.4786    0.4656    3.1667 N   0  0  0  0  0  0  0  0  0  0  0  0
   -2.4139    0.6698    2.8558 H   0  0  0  0  0  0  0  0  0  0  0  0
   -1.1587    0.6908    4.5775 C   0  0  0  0  0  0  0  0  0  0  0  0
   -0.4270    1.4968    4.6656 H   0  0  0  0  0  0  0  0  0  0  0  0
   -2.0565    0.9649    5.1327 H   0  0  0  0  0  0  0  0  0  0  0  0
   -0.7281   -0.2137    5.0125 H   0  0  0  0  0  0  0  0  0  0  0  0
  5  6  2  0  0  0  0
  5  7  1  0  0  0  0
  2  3  1  0  0  0  0
  2  4  1  0  0  0  0
  2  5  1  0  0  0  0
  1  2  1  0  0  0  0
 27 28  2  0  0  0  0
 27 29  1  0  0  0  0
 23 24  1  0  0  0  0
 23 25  1  0  0  0  0
 23 26  1  0  0  0  0
 20 21  1  0  0  0  0
 20 22  1  0  0  0  0
 20 23  1  0  0  0  0
 17 18  1  0  0  0  0
 17 19  1  0  0  0  0
 17 20  1  0  0  0  0
 14 15  1  0  0  0  0
 14 16  1  0  0  0  0
 14 17  1  0  0  0  0
 11 12  1  0  0  0  0
 11 13  1  0  0  0  0
 11 14  1  0  0  0  0
  9 10  1  0  0  0  0
  9 11  1  0  0  0  0
  9 27  1  0  0  0  0
  7  8  1  0  0  0  0
  7  9  1  0  0  0  0
 31 32  1  0  0  0  0
 31 33  1  0  0  0  0
 31 34  1  0  0  0  0
 29 30  1  0  0  0  0
 29 31  1  0  0  0  0
M  CHG  1  23   1
M  END
$$$$
default_name
  -OEChem-02102213163D

 34 33  0     1  0  0  0  0  0999 V2000
   -3.8899   -3.6747    1.6490 H   0  0  0  0  0  0  0  0  0  0  0  0
   -3.9109   -2.6717    1.2250 C   0  0  0  0  0  0  0  0  0  0  0  0
   -4.6009   -2.0517    1.7950 H   0  0  0  0  0  0  0  0  0  0  0  0
   -4.2309   -2.7237    0.1860 H   0  0  0  0  0  0  0  0  0  0  0  0
   -2.5229   -2.0787    1.2980 C   0  0  0  0  0  0  0  0  0  0  0  0
   -1.5999   -2.7227    1.7810 O   0  0  0  0  0  0  0  0  0  0  0  0
   -2.3659   -0.8447    0.8120 N   0  0  0  0  0  0  0  0  0  0  0  0
   -3.1749   -0.3807    0.4220 H   0  0  0  0  0  0  0  0  0  0  0  0
   -1.0919   -0.1077    0.8170 C   0  0  1  0  0  0  0  0  0  0  0  0
   -0.3571   -0.6901    0.2581 H   0  0  0  0  0  0  0  0  0  0  0  0
   -1.3037    1.2411    0.1040 C   0  0  0  0  0  0  0  0  0  0  0  0
   -1.0713    2.0448    0.8044 H   0  0  0  0  0  0  0  0  0  0  0  0
   -0.6132    1.3138   -0.7385 H   0  0  0  0  0  0  0  0  0  0  0  0
   -2.7409    1.4412   -0.4009 C   0  0  0  0  0  0  0  0  0  0  0  0
   -3.4339    1.4091    0.4409 H   0  0  0  0  0  0  0  0  0  0  0  0
   -2.8181    2.4146   -0.8892 H   0  0  0  0  0  0  0  0  0  0  0  0
   -3.1139    0.3394   -1.4024 C   0  0  0  0  0  0  0  0  0  0  0  0
   -2.4091    0.3645   -2.2369 H   0  0  0  0  0  0  0  0  0  0  0  0
   -3.0441   -0.6309   -0.9067 H   0  0  0  0  0  0  0  0  0  0  0  0
   -4.5398    0.5520   -1.9262 C   0  0  0  0  0  0  0  0  0  0  0  0
   -5.2287    0.5312   -1.0755 H   0  0  0  0  0  0  0  0  0  0  0  0
   -4.5986    1.5455   -2.3808 H   0  0  0  0  0  0  0  0  0  0  0  0
   -4.9183   -0.4877   -2.9162 N   0  3  0  0  0  0  0  0  0  0  0  0
   -4.8760   -1.4088   -2.4982 H   0  0  0  0  0  0  0  0  0  0  0  0
   -5.8608   -0.3332   -3.2520 H   0  0  0  0  0  0  0  0  0  0  0  0
   -4.2888   -0.4668   -3.7100 H   0  0  0  0  0  0  0  0  0  0  0  0
   -0.5865    0.0771    2.2496 C   0  0  0  0  0  0  0  0  0  0  0  0
    0.5860   -0.1608    2.5143 O   0  0  0  0  0  0  0  0  0  0  0  0
   -1.4786    0.4656    3.1667 N   0  0  0  0  0  0  0  0  0  0  0  0
   -2.4139    0.6698    2.8558 H   0  0  0  0  0  0  0  0  0  0  0  0
   -1.1587    0.6908    4.5775 C   0  0  0  0  0  0  0  0  0  0  0  0
   -0.4270    1.4968    4.6656 H   0  0  0  0  0  0  0  0  0  0  0  0
   -2.0565    0.9649    5.1327 H   0  0  0  0  0  0  0  0  0  0  0  0
   -0.7281   -0.2137    5.0125 H   0  0  0  0  0  0  0  0  0  0  0  0
  5  6  2  0  0  0  0
  5  7  1  0  0  0  0
  2  3  1  0  0  0  0
  2  4  1  0  0  0  0
  2  5  1  0  0  0  0
  1  2  1  0  0  0  0
 27 28  2  0  0  0  0
 27 29  1  0  0  0  0
 23 24  1  0  0  0  0
 23 25  1  0  0  0  0
 23 26  1  0  0  0  0
 20 21  1  0  0  0  0
 20 22  1  0  0  0  0
 20 23  1  0  0  0  0
 17 18  1  0  0  0  0
 17 19  1  0  0  0  0
 17 20  1  0  0  0  0
 14 15  1  0  0  0  0
 14 16  1  0  0  0  0
 14 17  1  0  0  0  0
 11 12  1  0  0  0  0
 11 13  1  0  0  0  0
 11 14  1  0  0  0  0
  9 10  1  0  0  0  0
  9 11  1  0  0  0  0
  9 27  1  0  0  0  0
  7  8  1  0  0  0  0
  7  9  1  0  0  0  0
 31 32  1  0  0  0  0
 31 33  1  0  0  0  0
 31 34  1  0  0  0  0
 29 30  1  0  0  0  0
 29 31  1  0  0  0  0
M  CHG  1  23   1
M  END
$$$$
default_name
  -OEChem-02102213163D

 34 33  0     1  0  0  0  0  0999 V2000
   -3.8899   -3.6747    1.6490 H   0  0  0  0  0  0  0  0  0  0  0  0
   -3.9109   -2.6717    1.2250 C   0  0  0  0  0  0  0  0  0  0  0  0
   -4.6009   -2.0517    1.7950 H   0  0  0  0  0  0  0  0  0  0  0  0
   -4.2309   -2.7237    0.1860 H   0  0  0  0  0  0  0  0  0  0  0  0
   -2.5229   -2.0787    1.2980 C   0  0  0  0  0  0  0  0  0  0  0  0
   -1.5999   -2.7227    1.7810 O   0  0  0  0  0  0  0  0  0  0  0  0
   -2.3659   -0.8447    0.8120 N   0  0  0  0  0  0  0  0  0  0  0  0
   -3.1749   -0.3807    0.4220 H   0  0  0  0  0  0  0  0  0  0  0  0
   -1.0919   -0.1077    0.8170 C   0  0  1  0  0  0  0  0  0  0  0  0
   -0.3571   -0.6901    0.2581 H   0  0  0  0  0  0  0  0  0  0  0  0
   -1.3037    1.2411    0.1040 C   0  0  0  0  0  0  0  0  0  0  0  0
   -1.0713    2.0448    0.8044 H   0  0  0  0  0  0  0  0  0  0  0  0
   -0.6132    1.3138   -0.7385 H   0  0  0  0  0  0  0  0  0  0  0  0
   -2.7409    1.4412   -0.4009 C   0  0  0  0  0  0  0  0  0  0  0  0
   -3.3963    1.6745    0.4392 H   0  0  0  0  0  0  0  0  0  0  0  0
   -2.7605    2.2713   -1.1097 H   0  0  0  0  0  0  0  0  0  0  0  0
   -3.2457    0.1686   -1.0950 C   0  0  0  0  0  0  0  0  0  0  0  0
   -2.5787   -0.0708   -1.9266 H   0  0  0  0  0  0  0  0  0  0  0  0
   -3.2328   -0.6562   -0.3796 H   0  0  0  0  0  0  0  0  0  0  0  0
   -4.6714    0.3752   -1.6215 C   0  0  0  0  0  0  0  0  0  0  0  0
   -5.3215    0.6213   -0.7755 H   0  0  0  0  0  0  0  0  0  0  0  0
   -4.6697    1.2313   -2.3029 H   0  0  0  0  0  0  0  0  0  0  0  0
   -5.1763   -0.8342   -2.3193 N   0  3  0  0  0  0  0  0  0  0  0  0
   -5.1901   -1.6276   -1.6907 H   0  0  0  0  0  0  0  0  0  0  0  0
   -6.1171   -0.6815   -2.6607 H   0  0  0  0  0  0  0  0  0  0  0  0
   -4.5828   -1.0611   -3.1087 H   0  0  0  0  0  0  0  0  0  0  0  0
   -0.5865    0.0771    2.2496 C   0  0  0  0  0  0  0  0  0  0  0  0
    0.5860   -0.1608    2.5143 O   0  0  0  0  0  0  0  0  0  0  0  0
   -1.4786    0.4656    3.1667 N   0  0  0  0  0  0  0  0  0  0  0  0
   -2.4139    0.6698    2.8558 H   0  0  0  0  0  0  0  0  0  0  0  0
   -1.1587    0.6908    4.5775 C   0  0  0  0  0  0  0  0  0  0  0  0
   -0.4270    1.4968    4.6656 H   0  0  0  0  0  0  0  0  0  0  0  0
   -2.0565    0.9649    5.1327 H   0  0  0  0  0  0  0  0  0  0  0  0
   -0.7281   -0.2137    5.0125 H   0  0  0  0  0  0  0  0  0  0  0  0
  5  6  2  0  0  0  0
  5  7  1  0  0  0  0
  2  3  1  0  0  0  0
  2  4  1  0  0  0  0
  2  5  1  0  0  0  0
  1  2  1  0  0  0  0
 27 28  2  0  0  0  0
 27 29  1  0  0  0  0
 23 24  1  0  0  0  0
 23 25  1  0  0  0  0
 23 26  1  0  0  0  0
 20 21  1  0  0  0  0
 20 22  1  0  0  0  0
 20 23  1  0  0  0  0
 17 18  1  0  0  0  0
 17 19  1  0  0  0  0
 17 20  1  0  0  0  0
 14 15  1  0  0  0  0
 14 16  1  0  0  0  0
 14 17  1  0  0  0  0
 11 12  1  0  0  0  0
 11 13  1  0  0  0  0
 11 14  1  0  0  0  0
  9 10  1  0  0  0  0
  9 11  1  0  0  0  0
  9 27  1  0  0  0  0
  7  8  1  0  0  0  0
  7  9  1  0  0  0  0
 31 32  1  0  0  0  0
 31 33  1  0  0  0  0
 31 34  1  0  0  0  0
 29 30  1  0  0  0  0
 29 31  1  0  0  0  0
M  CHG  1  23   1
M  END
$$$$
default_name
  -OEChem-02102213163D

 34 33  0     1  0  0  0  0  0999 V2000
   -3.8899   -3.6747    1.6490 H   0  0  0  0  0  0  0  0  0  0  0  0
   -3.9109   -2.6717    1.2250 C   0  0  0  0  0  0  0  0  0  0  0  0
   -4.6009   -2.0517    1.7950 H   0  0  0  0  0  0  0  0  0  0  0  0
   -4.2309   -2.7237    0.1860 H   0  0  0  0  0  0  0  0  0  0  0  0
   -2.5229   -2.0787    1.2980 C   0  0  0  0  0  0  0  0  0  0  0  0
   -1.5999   -2.7227    1.7810 O   0  0  0  0  0  0  0  0  0  0  0  0
   -2.3659   -0.8447    0.8120 N   0  0  0  0  0  0  0  0  0  0  0  0
   -3.1749   -0.3807    0.4220 H   0  0  0  0  0  0  0  0  0  0  0  0
   -1.0919   -0.1077    0.8170 C   0  0  1  0  0  0  0  0  0  0  0  0
   -0.3571   -0.6901    0.2581 H   0  0  0  0  0  0  0  0  0  0  0  0
   -1.3037    1.2411    0.1040 C   0  0  0  0  0  0  0  0  0  0  0  0
   -1.0713    2.0448    0.8044 H   0  0  0  0  0  0  0  0  0  0  0  0
   -0.6132    1.3138   -0.7385 H   0  0  0  0  0  0  0  0  0  0  0  0
   -2.7409    1.4412   -0.4009 C   0  0  0  0  0  0  0  0  0  0  0  0
   -3.3375    1.9274    0.3721 H   0  0  0  0  0  0  0  0  0  0  0  0
   -2.7246    2.0747   -1.2899 H   0  0  0  0  0  0  0  0  0  0  0  0
   -3.3772    0.0892   -0.7522 C   0  0  0  0  0  0  0  0  0  0  0  0
   -2.7691   -0.4018   -1.5157 H   0  0  0  0  0  0  0  0  0  0  0  0
   -3.3995   -0.5369    0.1420 H   0  0  0  0  0  0  0  0  0  0  0  0
   -4.8034    0.2894   -1.2799 C   0  0  0  0  0  0  0  0  0  0  0  0
   -5.3934    0.7888   -0.5045 H   0  0  0  0  0  0  0  0  0  0  0  0
   -4.7625    0.9527   -2.1491 H   0  0  0  0  0  0  0  0  0  0  0  0
   -5.4348   -1.0024   -1.6502 N   0  3  0  0  0  0  0  0  0  0  0  0
   -5.4850   -1.6167   -0.8472 H   0  0  0  0  0  0  0  0  0  0  0  0
   -6.3743   -0.8530   -1.9965 H   0  0  0  0  0  0  0  0  0  0  0  0
   -4.8970   -1.4646   -2.3742 H   0  0  0  0  0  0  0  0  0  0  0  0
   -0.5865    0.0771    2.2496 C   0  0  0  0  0  0  0  0  0  0  0  0
    0.5860   -0.1608    2.5143 O   0  0  0  0  0  0  0  0  0  0  0  0
   -1.4786    0.4656    3.1667 N   0  0  0  0  0  0  0  0  0  0  0  0
   -2.4139    0.6698    2.8558 H   0  0  0  0  0  0  0  0  0  0  0  0
   -1.1587    0.6908    4.5775 C   0  0  0  0  0  0  0  0  0  0  0  0
   -0.4270    1.4968    4.6656 H   0  0  0  0  0  0  0  0  0  0  0  0
   -2.0565    0.9649    5.1327 H   0  0  0  0  0  0  0  0  0  0  0  0
   -0.7281   -0.2137    5.0125 H   0  0  0  0  0  0  0  0  0  0  0  0
  5  6  2  0  0  0  0
  5  7  1  0  0  0  0
  2  3  1  0  0  0  0
  2  4  1  0  0  0  0
  2  5  1  0  0  0  0
  1  2  1  0  0  0  0
 27 28  2  0  0  0  0
 27 29  1  0  0  0  0
 23 24  1  0  0  0  0
 23 25  1  0  0  0  0
 23 26  1  0  0  0  0
 20 21  1  0  0  0  0
 20 22  1  0  0  0  0
 20 23  1  0  0  0  0
 17 18  1  0  0  0  0
 17 19  1  0  0  0  0
 17 20  1  0  0  0  0
 14 15  1  0  0  0  0
 14 16  1  0  0  0  0
 14 17  1  0  0  0  0
 11 12  1  0  0  0  0
 11 13  1  0  0  0  0
 11 14  1  0  0  0  0
  9 10  1  0  0  0  0
  9 11  1  0  0  0  0
  9 27  1  0  0  0  0
  7  8  1  0  0  0  0
  7  9  1  0  0  0  0
 31 32  1  0  0  0  0
 31 33  1  0  0  0  0
 31 34  1  0  0  0  0
 29 30  1  0  0  0  0
 29 31  1  0  0  0  0
M  CHG  1  23   1
M  END
$$$$
default_name
  -OEChem-02102213163D

 34 33  0     1  0  0  0  0  0999 V2000
   -3.8899   -3.6747    1.6490 H   0  0  0  0  0  0  0  0  0  0  0  0
   -3.9109   -2.6717    1.2250 C   0  0  0  0  0  0  0  0  0  0  0  0
   -4.6009   -2.0517    1.7950 H   0  0  0  0  0  0  0  0  0  0  0  0
   -4.2309   -2.7237    0.1860 H   0  0  0  0  0  0  0  0  0  0  0  0
   -2.5229   -2.0787    1.2980 C   0  0  0  0  0  0  0  0  0  0  0  0
   -1.5999   -2.7227    1.7810 O   0  0  0  0  0  0  0  0  0  0  0  0
   -2.3659   -0.8447    0.8120 N   0  0  0  0  0  0  0  0  0  0  0  0
   -3.1749   -0.3807    0.4220 H   0  0  0  0  0  0  0  0  0  0  0  0
   -1.0919   -0.1077    0.8170 C   0  0  1  0  0  0  0  0  0  0  0  0
   -0.3571   -0.6901    0.2581 H   0  0  0  0  0  0  0  0  0  0  0  0
   -1.3037    1.2411    0.1040 C   0  0  0  0  0  0  0  0  0  0  0  0
   -1.0713    2.0448    0.8044 H   0  0  0  0  0  0  0  0  0  0  0  0
   -0.6132    1.3138   -0.7385 H   0  0  0  0  0  0  0  0  0  0  0  0
   -2.7409    1.4412   -0.4009 C   0  0  0  0  0  0  0  0  0  0  0  0
   -3.2615    2.1503    0.2440 H   0  0  0  0  0  0  0  0  0  0  0  0
   -2.7127    1.8381   -1.4176 H   0  0  0  0  0  0  0  0  0  0  0  0
   -3.4994    0.1067   -0.3974 C   0  0  0  0  0  0  0  0  0  0  0  0
   -2.9674   -0.6058   -1.0323 H   0  0  0  0  0  0  0  0  0  0  0  0
   -3.5327   -0.2812    0.6226 H   0  0  0  0  0  0  0  0  0  0  0  0
   -4.9266    0.3005   -0.9247 C   0  0  0  0  0  0  0  0  0  0  0  0
   -5.4395    1.0224   -0.2808 H   0  0  0  0  0  0  0  0  0  0  0  0
   -4.8707    0.7287   -1.9300 H   0  0  0  0  0  0  0  0  0  0  0  0
   -5.6762   -0.9808   -0.9545 N   0  3  0  0  0  0  0  0  0  0  0  0
   -5.7404   -1.3768   -0.0251 H   0  0  0  0  0  0  0  0  0  0  0  0
   -6.6149   -0.8360   -1.3048 H   0  0  0  0  0  0  0  0  0  0  0  0
   -5.2102   -1.6498   -1.5564 H   0  0  0  0  0  0  0  0  0  0  0  0
   -0.5865    0.0771    2.2496 C   0  0  0  0  0  0  0  0  0  0  0  0
    0.5860   -0.1608    2.5143 O   0  0  0  0  0  0  0  0  0  0  0  0
   -1.4786    0.4656    3.1667 N   0  0  0  0  0  0  0  0  0  0  0  0
   -2.4139    0.6698    2.8558 H   0  0  0  0  0  0  0  0  0  0  0  0
   -1.1587    0.6908    4.5775 C   0  0  0  0  0  0  0  0  0  0  0  0
   -0.4270    1.4968    4.6656 H   0  0  0  0  0  0  0  0  0  0  0  0
   -2.0565    0.9649    5.1327 H   0  0  0  0  0  0  0  0  0  0  0  0
   -0.7281   -0.2137    5.0125 H   0  0  0  0  0  0  0  0  0  0  0  0
  5  6  2  0  0  0  0
  5  7  1  0  0  0  0
  2  3  1  0  0  0  0
  2  4  1  0  0  0  0
  2  5  1  0  0  0  0
  1  2  1  0  0  0  0
 27 28  2  0  0  0  0
 27 29  1  0  0  0  0
 23 24  1  0  0  0  0
 23 25  1  0  0  0  0
 23 26  1  0  0  0  0
 20 21  1  0  0  0  0
 20 22  1  0  0  0  0
 20 23  1  0  0  0  0
 17 18  1  0  0  0  0
 17 19  1  0  0  0  0
 17 20  1  0  0  0  0
 14 15  1  0  0  0  0
 14 16  1  0  0  0  0
 14 17  1  0  0  0  0
 11 12  1  0  0  0  0
 11 13  1  0  0  0  0
 11 14  1  0  0  0  0
  9 10  1  0  0  0  0
  9 11  1  0  0  0  0
  9 27  1  0  0  0  0
  7  8  1  0  0  0  0
  7  9  1  0  0  0  0
 31 32  1  0  0  0  0
 31 33  1  0  0  0  0
 31 34  1  0  0  0  0
 29 30  1  0  0  0  0
 29 31  1  0  0  0  0
M  CHG  1  23   1
M  END
$$$$
default_name
  -OEChem-02102213163D

 34 33  0     1  0  0  0  0  0999 V2000
   -3.8899   -3.6747    1.6490 H   0  0  0  0  0  0  0  0  0  0  0  0
   -3.9109   -2.6717    1.2250 C   0  0  0  0  0  0  0  0  0  0  0  0
   -4.6009   -2.0517    1.7950 H   0  0  0  0  0  0  0  0  0  0  0  0
   -4.2309   -2.7237    0.1860 H   0  0  0  0  0  0  0  0  0  0  0  0
   -2.5229   -2.0787    1.2980 C   0  0  0  0  0  0  0  0  0  0  0  0
   -1.5999   -2.7227    1.7810 O   0  0  0  0  0  0  0  0  0  0  0  0
   -2.3659   -0.8447    0.8120 N   0  0  0  0  0  0  0  0  0  0  0  0
   -3.1749   -0.3807    0.4220 H   0  0  0  0  0  0  0  0  0  0  0  0
   -1.0919   -0.1077    0.8170 C   0  0  1  0  0  0  0  0  0  0  0  0
   -0.3571   -0.6901    0.2581 H   0  0  0  0  0  0  0  0  0  0  0  0
   -1.3037    1.2411    0.1040 C   0  0  0  0  0  0  0  0  0  0  0  0
   -1.0713    2.0448    0.8044 H   0  0  0  0  0  0  0  0  0  0  0  0
   -0.6132    1.3138   -0.7385 H   0  0  0  0  0  0  0  0  0  0  0  0
   -2.7409    1.4412   -0.4009 C   0  0  0  0  0  0  0  0  0  0  0  0
   -3.1734    2.3282    0.0638 H   0  0  0  0  0  0  0  0  0  0  0  0
   -2.7256    1.5777   -1.4840 H   0  0  0  0  0  0  0  0  0  0  0  0
   -3.6040    0.2200   -0.0549 C   0  0  0  0  0  0  0  0  0  0  0  0
   -3.1599   -0.6690   -0.5092 H   0  0  0  0  0  0  0  0  0  0  0  0
   -3.6235    0.0934    1.0294 H   0  0  0  0  0  0  0  0  0  0  0  0
   -5.0328    0.4076   -0.5802 C   0  0  0  0  0  0  0  0  0  0  0  0
   -5.4565    1.3061   -0.1197 H   0  0  0  0  0  0  0  0  0  0  0  0
   -4.9868    0.5746   -1.6606 H   0  0  0  0  0  0  0  0  0  0  0  0
   -5.8841   -0.7711   -0.2796 N   0  3  0  0  0  0  0  0  0  0  0  0
   -5.9390   -0.9244    0.7196 H   0  0  0  0  0  0  0  0  0  0  0  0
   -6.8226   -0.6316   -0.6327 H   0  0  0  0  0  0  0  0  0  0  0  0
   -5.5008   -1.6040   -0.7110 H   0  0  0  0  0  0  0  0  0  0  0  0
   -0.5865    0.0771    2.2496 C   0  0  0  0  0  0  0  0  0  0  0  0
    0.5860   -0.1608    2.5143 O   0  0  0  0  0  0  0  0  0  0  0  0
   -1.4786    0.4656    3.1667 N   0  0  0  0  0  0  0  0  0  0  0  0
   -2.4139    0.6698    2.8558 H   0  0  0  0  0  0  0  0  0  0  0  0
   -1.1587    0.6908    4.5775 C   0  0  0  0  0  0  0  0  0  0  0  0
   -0.4270    1.4968    4.6656 H   0  0  0  0  0  0  0  0  0  0  0  0
   -2.0565    0.9649    5.1327 H   0  0  0  0  0  0  0  0  0  0  0  0
   -0.7281   -0.2137    5.0125 H   0  0  0  0  0  0  0  0  0  0  0  0
  5  6  2  0  0  0  0
  5  7  1  0  0  0  0
  2  3  1  0  0  0  0
  2  4  1  0  0  0  0
  2  5  1  0  0  0  0
  1  2  1  0  0  0  0
 27 28  2  0  0  0  0
 27 29  1  0  0  0  0
 23 24  1  0  0  0  0
 23 25  1  0  0  0  0
 23 26  1  0  0  0  0
 20 21  1  0  0  0  0
 20 22  1  0  0  0  0
 20 23  1  0  0  0  0
 17 18  1  0  0  0  0
 17 19  1  0  0  0  0
 17 20  1  0  0  0  0
 14 15  1  0  0  0  0
 14 16  1  0  0  0  0
 14 17  1  0  0  0  0
 11 12  1  0  0  0  0
 11 13  1  0  0  0  0
 11 14  1  0  0  0  0
  9 10  1  0  0  0  0
  9 11  1  0  0  0  0
  9 27  1  0  0  0  0
  7  8  1  0  0  0  0
  7  9  1  0  0  0  0
 31 32  1  0  0  0  0
 31 33  1  0  0  0  0
 31 34  1  0  0  0  0
 29 30  1  0  0  0  0
 29 31  1  0  0  0  0
M  CHG  1  23   1
M  END
$$$$
default_name
  -OEChem-02102213163D

 34 33  0     1  0  0  0  0  0999 V2000
   -3.8899   -3.6747    1.6490 H   0  0  0  0  0  0  0  0  0  0  0  0
   -3.9109   -2.6717    1.2250 C   0  0  0  0  0  0  0  0  0  0  0  0
   -4.6009   -2.0517    1.7950 H   0  0  0  0  0  0  0  0  0  0  0  0
   -4.2309   -2.7237    0.1860 H   0  0  0  0  0  0  0  0  0  0  0  0
   -2.5229   -2.0787    1.2980 C   0  0  0  0  0  0  0  0  0  0  0  0
   -1.5999   -2.7227    1.7810 O   0  0  0  0  0  0  0  0  0  0  0  0
   -2.3659   -0.8447    0.8120 N   0  0  0  0  0  0  0  0  0  0  0  0
   -3.1749   -0.3807    0.4220 H   0  0  0  0  0  0  0  0  0  0  0  0
   -1.0919   -0.1077    0.8170 C   0  0  1  0  0  0  0  0  0  0  0  0
   -0.3571   -0.6901    0.2581 H   0  0  0  0  0  0  0  0  0  0  0  0
   -1.3037    1.2411    0.1040 C   0  0  0  0  0  0  0  0  0  0  0  0
   -1.0713    2.0448    0.8044 H   0  0  0  0  0  0  0  0  0  0  0  0
   -0.6132    1.3138   -0.7385 H   0  0  0  0  0  0  0  0  0  0  0  0
   -2.7409    1.4412   -0.4009 C   0  0  0  0  0  0  0  0  0  0  0  0
   -3.0793    2.4489   -0.1563 H   0  0  0  0  0  0  0  0  0  0  0  0
   -2.7625    1.3111   -1.4847 H   0  0  0  0  0  0  0  0  0  0  0  0
   -3.6838    0.4211    0.2521 C   0  0  0  0  0  0  0  0  0  0  0  0
   -3.3337   -0.5870    0.0177 H   0  0  0  0  0  0  0  0  0  0  0  0
   -3.6656    0.5615    1.3347 H   0  0  0  0  0  0  0  0  0  0  0  0
   -5.1145    0.6036   -0.2697 C   0  0  0  0  0  0  0  0  0  0  0  0
   -5.4435    1.6205   -0.0323 H   0  0  0  0  0  0  0  0  0  0  0  0
   -5.1030    0.5008   -1.3590 H   0  0  0  0  0  0  0  0  0  0  0  0
   -6.0443   -0.3874    0.3286 N   0  3  0  0  0  0  0  0  0  0  0  0
   -6.0673   -0.2902    1.3360 H   0  0  0  0  0  0  0  0  0  0  0  0
   -6.9832   -0.2538   -0.0259 H   0  0  0  0  0  0  0  0  0  0  0  0
   -5.7491   -1.3304    0.1042 H   0  0  0  0  0  0  0  0  0  0  0  0
   -0.5865    0.0771    2.2496 C   0  0  0  0  0  0  0  0  0  0  0  0
    0.5860   -0.1608    2.5143 O   0  0  0  0  0  0  0  0  0  0  0  0
   -1.4786    0.4656    3.1667 N   0  0  0  0  0  0  0  0  0  0  0  0
   -2.4139    0.6698    2.8558 H   0  0  0  0  0  0  0  0  0  0  0  0
   -1.1587    0.6908    4.5775 C   0  0  0  0  0  0  0  0  0  0  0  0
   -0.4270    1.4968    4.6656 H   0  0  0  0  0  0  0  0  0  0  0  0
   -2.0565    0.9649    5.1327 H   0  0  0  0  0  0  0  0  0  0  0  0
   -0.7281   -0.2137    5.0125 H   0  0  0  0  0  0  0  0  0  0  0  0
  5  6  2  0  0  0  0
  5  7  1  0  0  0  0
  2  3  1  0  0  0  0
  2  4  1  0  0  0  0
  2  5  1  0  0  0  0
  1  2  1  0  0  0  0
 27 28  2  0  0  0  0
 27 29  1  0  0  0  0
 23 24  1  0  0  0  0
 23 25  1  0  0  0  0
 23 26  1  0  0  0  0
 20 21  1  0  0  0  0
 20 22  1  0  0  0  0
 20 23  1  0  0  0  0
 17 18  1  0  0  0  0
 17 19  1  0  0  0  0
 17 20  1  0  0  0  0
 14 15  1  0  0  0  0
 14 16  1  0  0  0  0
 14 17  1  0  0  0  0
 11 12  1  0  0  0  0
 11 13  1  0  0  0  0
 11 14  1  0  0  0  0
  9 10  1  0  0  0  0
  9 11  1  0  0  0  0
  9 27  1  0  0  0  0
  7  8  1  0  0  0  0
  7  9  1  0  0  0  0
 31 32  1  0  0  0  0
 31 33  1  0  0  0  0
 31 34  1  0  0  0  0
 29 30  1  0  0  0  0
 29 31  1  0  0  0  0
M  CHG  1  23   1
M  END
$$$$
default_name
  -OEChem-02102213163D

 34 33  0     1  0  0  0  0  0999 V2000
   -3.8899   -3.6747    1.6490 H   0  0  0  0  0  0  0  0  0  0  0  0
   -3.9109   -2.6717    1.2250 C   0  0  0  0  0  0  0  0  0  0  0  0
   -4.6009   -2.0517    1.7950 H   0  0  0  0  0  0  0  0  0  0  0  0
   -4.2309   -2.7237    0.1860 H   0  0  0  0  0  0  0  0  0  0  0  0
   -2.5229   -2.0787    1.2980 C   0  0  0  0  0  0  0  0  0  0  0  0
   -1.5999   -2.7227    1.7810 O   0  0  0  0  0  0  0  0  0  0  0  0
   -2.3659   -0.8447    0.8120 N   0  0  0  0  0  0  0  0  0  0  0  0
   -3.1749   -0.3807    0.4220 H   0  0  0  0  0  0  0  0  0  0  0  0
   -1.0919   -0.1077    0.8170 C   0  0  1  0  0  0  0  0  0  0  0  0
   -0.3571   -0.6901    0.2581 H   0  0  0  0  0  0  0  0  0  0  0  0
   -1.3037    1.2411    0.1040 C   0  0  0  0  0  0  0  0  0  0  0  0
   -1.0713    2.0448    0.8044 H   0  0  0  0  0  0  0  0  0  0  0  0
   -0.6132    1.3138   -0.7385 H   0  0  0  0  0  0  0  0  0  0  0  0
   -2.7409    1.4412   -0.4009 C   0  0  0  0  0  0  0  0  0  0  0  0
   -2.9855    2.5042   -0.4014 H   0  0  0  0  0  0  0  0  0  0  0  0
   -2.8208    1.0566   -1.4195 H   0  0  0  0  0  0  0  0  0  0  0  0
   -3.7335    0.6966    0.5026 C   0  0  0  0  0  0  0  0  0  0  0  0
   -3.4767   -0.3654    0.5128 H   0  0  0  0  0  0  0  0  0  0  0  0
   -3.6561    1.0912    1.5177 H   0  0  0  0  0  0  0  0  0  0  0  0
   -5.1664    0.8750   -0.0145 C   0  0  0  0  0  0  0  0  0  0  0  0
   -5.4012    1.9443   -0.0244 H   0  0  0  0  0  0  0  0  0  0  0  0
   -5.2114    0.5125   -1.0460 H   0  0  0  0  0  0  0  0  0  0  0  0
   -6.1460    0.1442    0.8286 N   0  3  0  0  0  0  0  0  0  0  0  0
   -6.1164    0.4825    1.7822 H   0  0  0  0  0  0  0  0  0  0  0  0
   -7.0857    0.2716    0.4741 H   0  0  0  0  0  0  0  0  0  0  0  0
   -5.9382   -0.8476    0.8338 H   0  0  0  0  0  0  0  0  0  0  0  0
   -0.5865    0.0771    2.2496 C   0  0  0  0  0  0  0  0  0  0  0  0
    0.5860   -0.1608    2.5143 O   0  0  0  0  0  0  0  0  0  0  0  0
   -1.4786    0.4656    3.1667 N   0  0  0  0  0  0  0  0  0  0  0  0
   -2.4139    0.6698    2.8558 H   0  0  0  0  0  0  0  0  0  0  0  0
   -1.1587    0.6908    4.5775 C   0  0  0  0  0  0  0  0  0  0  0  0
   -0.4270    1.4968    4.6656 H   0  0  0  0  0  0  0  0  0  0  0  0
   -2.0565    0.9649    5.1327 H   0  0  0  0  0  0  0  0  0  0  0  0
   -0.7281   -0.2137    5.0125 H   0  0  0  0  0  0  0  0  0  0  0  0
  5  6  2  0  0  0  0
  5  7  1  0  0  0  0
  2  3  1  0  0  0  0
  2  4  1  0  0  0  0
  2  5  1  0  0  0  0
  1  2  1  0  0  0  0
 27 28  2  0  0  0  0
 27 29  1  0  0  0  0
 23 24  1  0  0  0  0
 23 25  1  0  0  0  0
 23 26  1  0  0  0  0
 20 21  1  0  0  0  0
 20 22  1  0  0  0  0
 20 23  1  0  0  0  0
 17 18  1  0  0  0  0
 17 19  1  0  0  0  0
 17 20  1  0  0  0  0
 14 15  1  0  0  0  0
 14 16  1  0  0  0  0
 14 17  1  0  0  0  0
 11 12  1  0  0  0  0
 11 13  1  0  0  0  0
 11 14  1  0  0  0  0
  9 10  1  0  0  0  0
  9 11  1  0  0  0  0
  9 27  1  0  0  0  0
  7  8  1  0  0  0  0
  7  9  1  0  0  0  0
 31 32  1  0  0  0  0
 31 33  1  0  0  0  0
 31 34  1  0  0  0  0
 29 30  1  0  0  0  0
 29 31  1  0  0  0  0
M  CHG  1  23   1
M  END
$$$$
default_name
  -OEChem-02102213163D

 34 33  0     1  0  0  0  0  0999 V2000
   -3.8899   -3.6747    1.6490 H   0  0  0  0  0  0  0  0  0  0  0  0
   -3.9109   -2.6717    1.2250 C   0  0  0  0  0  0  0  0  0  0  0  0
   -4.6009   -2.0517    1.7950 H   0  0  0  0  0  0  0  0  0  0  0  0
   -4.2309   -2.7237    0.1860 H   0  0  0  0  0  0  0  0  0  0  0  0
   -2.5229   -2.0787    1.2980 C   0  0  0  0  0  0  0  0  0  0  0  0
   -1.5999   -2.7227    1.7810 O   0  0  0  0  0  0  0  0  0  0  0  0
   -2.3659   -0.8447    0.8120 N   0  0  0  0  0  0  0  0  0  0  0  0
   -3.1749   -0.3807    0.4220 H   0  0  0  0  0  0  0  0  0  0  0  0
   -1.0919   -0.1077    0.8170 C   0  0  1  0  0  0  0  0  0  0  0  0
   -0.3571   -0.6901    0.2581 H   0  0  0  0  0  0  0  0  0  0  0  0
   -1.3037    1.2411    0.1040 C   0  0  0  0  0  0  0  0  0  0  0  0
   -1.0713    2.0448    0.8044 H   0  0  0  0  0  0  0  0  0  0  0  0
   -0.6132    1.3138   -0.7385 H   0  0  0  0  0  0  0  0  0  0  0  0
   -2.7409    1.4412   -0.4009 C   0  0  0  0  0  0  0  0  0  0  0  0
   -2.8985    2.4903   -0.6546 H   0  0  0  0  0  0  0  0  0  0  0  0
   -2.8966    0.8315   -1.2931 H   0  0  0  0  0  0  0  0  0  0  0  0
   -3.7496    1.0275    0.6796 C   0  0  0  0  0  0  0  0  0  0  0  0
   -3.5794   -0.0194    0.9421 H   0  0  0  0  0  0  0  0  0  0  0  0
   -3.5958    1.6462    1.5659 H   0  0  0  0  0  0  0  0  0  0  0  0
   -5.1848    1.2033    0.1680 C   0  0  0  0  0  0  0  0  0  0  0  0
   -5.3325    2.2554   -0.0965 H   0  0  0  0  0  0  0  0  0  0  0  0
   -5.3045    0.6088   -0.7428 H   0  0  0  0  0  0  0  0  0  0  0  0
   -6.1821    0.7872    1.1862 N   0  3  0  0  0  0  0  0  0  0  0  0
   -6.0832    1.3411    2.0278 H   0  0  0  0  0  0  0  0  0  0  0  0
   -7.1232    0.9090    0.8333 H   0  0  0  0  0  0  0  0  0  0  0  0
   -6.0552   -0.1886    1.4281 H   0  0  0  0  0  0  0  0  0  0  0  0
   -0.5865    0.0771    2.2496 C   0  0  0  0  0  0  0  0  0  0  0  0
    0.5860   -0.1608    2.5143 O   0  0  0  0  0  0  0  0  0  0  0  0
   -1.4786    0.4656    3.1667 N   0  0  0  0  0  0  0  0  0  0  0  0
   -2.4139    0.6698    2.8558 H   0  0  0  0  0  0  0  0  0  0  0  0
   -1.1587    0.6908    4.5775 C   0  0  0  0  0  0  0  0  0  0  0  0
   -0.4270    1.4968    4.6656 H   0  0  0  0  0  0  0  0  0  0  0  0
   -2.0565    0.9649    5.1327 H   0  0  0  0  0  0  0  0  0  0  0  0
   -0.7281   -0.2137    5.0125 H   0  0  0  0  0  0  0  0  0  0  0  0
  5  6  2  0  0  0  0
  5  7  1  0  0  0  0
  2  3  1  0  0  0  0
  2  4  1  0  0  0  0
  2  5  1  0  0  0  0
  1  2  1  0  0  0  0
 27 28  2  0  0  0  0
 27 29  1  0  0  0  0
 23 24  1  0  0  0  0
 23 25  1  0  0  0  0
 23 26  1  0  0  0  0
 20 21  1  0  0  0  0
 20 22  1  0  0  0  0
 20 23  1  0  0  0  0
 17 18  1  0  0  0  0
 17 19  1  0  0  0  0
 17 20  1  0  0  0  0
 14 15  1  0  0  0  0
 14 16  1  0  0  0  0
 14 17  1  0  0  0  0
 11 12  1  0  0  0  0
 11 13  1  0  0  0  0
 11 14  1  0  0  0  0
  9 10  1  0  0  0  0
  9 11  1  0  0  0  0
  9 27  1  0  0  0  0
  7  8  1  0  0  0  0
  7  9  1  0  0  0  0
 31 32  1  0  0  0  0
 31 33  1  0  0  0  0
 31 34  1  0  0  0  0
 29 30  1  0  0  0  0
 29 31  1  0  0  0  0
M  CHG  1  23   1
M  END
$$$$
default_name
  -OEChem-02102213163D

 34 33  0     1  0  0  0  0  0999 V2000
   -3.8899   -3.6747    1.6490 H   0  0  0  0  0  0  0  0  0  0  0  0
   -3.9109   -2.6717    1.2250 C   0  0  0  0  0  0  0  0  0  0  0  0
   -4.6009   -2.0517    1.7950 H   0  0  0  0  0  0  0  0  0  0  0  0
   -4.2309   -2.7237    0.1860 H   0  0  0  0  0  0  0  0  0  0  0  0
   -2.5229   -2.0787    1.2980 C   0  0  0  0  0  0  0  0  0  0  0  0
   -1.5999   -2.7227    1.7810 O   0  0  0  0  0  0  0  0  0  0  0  0
   -2.3659   -0.8447    0.8120 N   0  0  0  0  0  0  0  0  0  0  0  0
   -3.1749   -0.3807    0.4220 H   0  0  0  0  0  0  0  0  0  0  0  0
   -1.0919   -0.1077    0.8170 C   0  0  1  0  0  0  0  0  0  0  0  0
   -0.3571   -0.6901    0.2581 H   0  0  0  0  0  0  0  0  0  0  0  0
   -1.3037    1.2411    0.1040 C   0  0  0  0  0  0  0  0  0  0  0  0
   -1.0713    2.0448    0.8044 H   0  0  0  0  0  0  0  0  0  0  0  0
   -0.6132    1.3138   -0.7385 H   0  0  0  0  0  0  0  0  0  0  0  0
   -2.7409    1.4412   -0.4009 C   0  0  0  0  0  0  0  0  0  0  0  0
   -2.8241    2.4082   -0.8988 H   0  0  0  0  0  0  0  0  0  0  0  0
   -2.9847    0.6511   -1.1138 H   0  0  0  0  0  0  0  0  0  0  0  0
   -3.7310    1.3914    0.7709 C   0  0  0  0  0  0  0  0  0  0  0  0
   -3.6347    0.4276    1.2766 H   0  0  0  0  0  0  0  0  0  0  0  0
   -3.4886    2.1890    1.4760 H   0  0  0  0  0  0  0  0  0  0  0  0
   -5.1685    1.5662    0.2654 C   0  0  0  0  0  0  0  0  0  0  0  0
   -5.2421    2.5326   -0.2439 H   0  0  0  0  0  0  0  0  0  0  0  0
   -5.3760    0.7831   -0.4701 H   0  0  0  0  0  0  0  0  0  0  0  0
   -6.1502    1.4981    1.3772 N   0  3  0  0  0  0  0  0  0  0  0  0
   -5.9697    2.2271    2.0560 H   0  0  0  0  0  0  0  0  0  0  0  0
   -7.0930    1.6148    1.0273 H   0  0  0  0  0  0  0  0  0  0  0  0
   -6.0922    0.6018    1.8465 H   0  0  0  0  0  0  0  0  0  0  0  0
   -0.5865    0.0771    2.2496 C   0  0  0  0  0  0  0  0  0  0  0  0
    0.5860   -0.1608    2.5143 O   0  0  0  0  0  0  0  0  0  0  0  0
   -1.4786    0.4656    3.1667 N   0  0  0  0  0  0  0  0  0  0  0  0
   -2.4139    0.6698    2.8558 H   0  0  0  0  0  0  0  0  0  0  0  0
   -1.1587    0.6908    4.5775 C   0  0  0  0  0  0  0  0  0  0  0  0
   -0.4270    1.4968    4.6656 H   0  0  0  0  0  0  0  0  0  0  0  0
   -2.0565    0.9649    5.1327 H   0  0  0  0  0  0  0  0  0  0  0  0
   -0.7281   -0.2137    5.0125 H   0  0  0  0  0  0  0  0  0  0  0  0
  5  6  2  0  0  0  0
  5  7  1  0  0  0  0
  2  3  1  0  0  0  0
  2  4  1  0  0  0  0
  2  5  1  0  0  0  0
  1  2  1  0  0  0  0
 27 28  2  0  0  0  0
 27 29  1  0  0  0  0
 23 24  1  0  0  0  0
 23 25  1  0  0  0  0
 23 26  1  0  0  0  0
 20 21  1  0  0  0  0
 20 22  1  0  0  0  0
 20 23  1  0  0  0  0
 17 18  1  0  0  0  0
 17 19  1  0  0  0  0
 17 20  1  0  0  0  0
 14 15  1  0  0  0  0
 14 16  1  0  0  0  0
 14 17  1  0  0  0  0
 11 12  1  0  0  0  0
 11 13  1  0  0  0  0
 11 14  1  0  0  0  0
  9 10  1  0  0  0  0
  9 11  1  0  0  0  0
  9 27  1  0  0  0  0
  7  8  1  0  0  0  0
  7  9  1  0  0  0  0
 31 32  1  0  0  0  0
 31 33  1  0  0  0  0
 31 34  1  0  0  0  0
 29 30  1  0  0  0  0
 29 31  1  0  0  0  0
M  CHG  1  23   1
M  END
$$$$
default_name
  -OEChem-02102213163D

 34 33  0     1  0  0  0  0  0999 V2000
   -3.8899   -3.6747    1.6490 H   0  0  0  0  0  0  0  0  0  0  0  0
   -3.9109   -2.6717    1.2250 C   0  0  0  0  0  0  0  0  0  0  0  0
   -4.6009   -2.0517    1.7950 H   0  0  0  0  0  0  0  0  0  0  0  0
   -4.2309   -2.7237    0.1860 H   0  0  0  0  0  0  0  0  0  0  0  0
   -2.5229   -2.0787    1.2980 C   0  0  0  0  0  0  0  0  0  0  0  0
   -1.5999   -2.7227    1.7810 O   0  0  0  0  0  0  0  0  0  0  0  0
   -2.3659   -0.8447    0.8120 N   0  0  0  0  0  0  0  0  0  0  0  0
   -3.1749   -0.3807    0.4220 H   0  0  0  0  0  0  0  0  0  0  0  0
   -1.0919   -0.1077    0.8170 C   0  0  1  0  0  0  0  0  0  0  0  0
   -0.3571   -0.6901    0.2581 H   0  0  0  0  0  0  0  0  0  0  0  0
   -1.3037    1.2411    0.1040 C   0  0  0  0  0  0  0  0  0  0  0  0
   -1.0713    2.0448    0.8044 H   0  0  0  0  0  0  0  0  0  0  0  0
   -0.6132    1.3138   -0.7385 H   0  0  0  0  0  0  0  0  0  0  0  0
   -2.7409    1.4412   -0.4009 C   0  0  0  0  0  0  0  0  0  0  0  0
   -2.7675    2.2634   -1.1172 H   0  0  0  0  0  0  0  0  0  0  0  0
   -3.0791    0.5277   -0.8940 H   0  0  0  0  0  0  0  0  0  0  0  0
   -3.6790    1.7634    0.7705 C   0  0  0  0  0  0  0  0  0  0  0  0
   -3.6387    0.9449    1.4932 H   0  0  0  0  0  0  0  0  0  0  0  0
   -3.3420    2.6823    1.2542 H   0  0  0  0  0  0  0  0  0  0  0  0
   -5.1186    1.9389    0.2711 C   0  0  0  0  0  0  0  0  0  0  0  0
   -5.1363    2.7570   -0.4564 H   0  0  0  0  0  0  0  0  0  0  0  0
   -5.4211    1.0236   -0.2464 H   0  0  0  0  0  0  0  0  0  0  0  0
   -6.0525    2.2282    1.3885 N   0  3  0  0  0  0  0  0  0  0  0  0
   -5.7838    3.0801    1.8649 H   0  0  0  0  0  0  0  0  0  0  0  0
   -6.9973    2.3409    1.0427 H   0  0  0  0  0  0  0  0  0  0  0  0
   -6.0465    1.4697    2.0605 H   0  0  0  0  0  0  0  0  0  0  0  0
   -0.5865    0.0771    2.2496 C   0  0  0  0  0  0  0  0  0  0  0  0
    0.5860   -0.1608    2.5143 O   0  0  0  0  0  0  0  0  0  0  0  0
   -1.4786    0.4656    3.1667 N   0  0  0  0  0  0  0  0  0  0  0  0
   -2.4139    0.6698    2.8558 H   0  0  0  0  0  0  0  0  0  0  0  0
   -1.1587    0.6908    4.5775 C   0  0  0  0  0  0  0  0  0  0  0  0
   -0.4270    1.4968    4.6656 H   0  0  0  0  0  0  0  0  0  0  0  0
   -2.0565    0.9649    5.1327 H   0  0  0  0  0  0  0  0  0  0  0  0
   -0.7281   -0.2137    5.0125 H   0  0  0  0  0  0  0  0  0  0  0  0
  5  6  2  0  0  0  0
  5  7  1  0  0  0  0
  2  3  1  0  0  0  0
  2  4  1  0  0  0  0
  2  5  1  0  0  0  0
  1  2  1  0  0  0  0
 27 28  2  0  0  0  0
 27 29  1  0  0  0  0
 23 24  1  0  0  0  0
 23 25  1  0  0  0  0
 23 26  1  0  0  0  0
 20 21  1  0  0  0  0
 20 22  1  0  0  0  0
 20 23  1  0  0  0  0
 17 18  1  0  0  0  0
 17 19  1  0  0  0  0
 17 20  1  0  0  0  0
 14 15  1  0  0  0  0
 14 16  1  0  0  0  0
 14 17  1  0  0  0  0
 11 12  1  0  0  0  0
 11 13  1  0  0  0  0
 11 14  1  0  0  0  0
  9 10  1  0  0  0  0
  9 11  1  0  0  0  0
  9 27  1  0  0  0  0
  7  8  1  0  0  0  0
  7  9  1  0  0  0  0
 31 32  1  0  0  0  0
 31 33  1  0  0  0  0
 31 34  1  0  0  0  0
 29 30  1  0  0  0  0
 29 31  1  0  0  0  0
M  CHG  1  23   1
M  END
$$$$
default_name
  -OEChem-02102213163D

 34 33  0     1  0  0  0  0  0999 V2000
   -3.8899   -3.6747    1.6490 H   0  0  0  0  0  0  0  0  0  0  0  0
   -3.9109   -2.6717    1.2250 C   0  0  0  0  0  0  0  0  0  0  0  0
   -4.6009   -2.0517    1.7950 H   0  0  0  0  0  0  0  0  0  0  0  0
   -4.2309   -2.7237    0.1860 H   0  0  0  0  0  0  0  0  0  0  0  0
   -2.5229   -2.0787    1.2980 C   0  0  0  0  0  0  0  0  0  0  0  0
   -1.5999   -2.7227    1.7810 O   0  0  0  0  0  0  0  0  0  0  0  0
   -2.3659   -0.8447    0.8120 N   0  0  0  0  0  0  0  0  0  0  0  0
   -3.1749   -0.3807    0.4220 H   0  0  0  0  0  0  0  0  0  0  0  0
   -1.0919   -0.1077    0.8170 C   0  0  1  0  0  0  0  0  0  0  0  0
   -0.3571   -0.6901    0.2581 H   0  0  0  0  0  0  0  0  0  0  0  0
   -1.3037    1.2411    0.1040 C   0  0  0  0  0  0  0  0  0  0  0  0
   -1.0713    2.0448    0.8044 H   0  0  0  0  0  0  0  0  0  0  0  0
   -0.6132    1.3138   -0.7385 H   0  0  0  0  0  0  0  0  0  0  0  0
   -2.7409    1.4412   -0.4009 C   0  0  0  0  0  0  0  0  0  0  0  0
   -2.7325    2.0659   -1.2951 H   0  0  0  0  0  0  0  0  0  0  0  0
   -3.1733    0.4698   -0.6487 H   0  0  0  0  0  0  0  0  0  0  0  0
   -3.5972    2.1182    0.6782 C   0  0  0  0  0  0  0  0  0  0  0  0
   -3.5914    1.4975    1.5774 H   0  0  0  0  0  0  0  0  0  0  0  0
   -3.1659    3.0927    0.9156 H   0  0  0  0  0  0  0  0  0  0  0  0
   -5.0385    2.2961    0.1847 C   0  0  0  0  0  0  0  0  0  0  0  0
   -5.0220    2.9132   -0.7195 H   0  0  0  0  0  0  0  0  0  0  0  0
   -5.4367    1.3138   -0.0872 H   0  0  0  0  0  0  0  0  0  0  0  0
   -5.8957    2.9279    1.2194 N   0  3  0  0  0  0  0  0  0  0  0  0
   -5.5381    3.8419    1.4676 H   0  0  0  0  0  0  0  0  0  0  0  0
   -6.8426    3.0379    0.8786 H   0  0  0  0  0  0  0  0  0  0  0  0
   -5.9213    2.3560    2.0555 H   0  0  0  0  0  0  0  0  0  0  0  0
   -0.5865    0.0771    2.2496 C   0  0  0  0  0  0  0  0  0  0  0  0
    0.5860   -0.1608    2.5143 O   0  0  0  0  0  0  0  0  0  0  0  0
   -1.4786    0.4656    3.1667 N   0  0  0  0  0  0  0  0  0  0  0  0
   -2.4139    0.6698    2.8558 H   0  0  0  0  0  0  0  0  0  0  0  0
   -1.1587    0.6908    4.5775 C   0  0  0  0  0  0  0  0  0  0  0  0
   -0.4270    1.4968    4.6656 H   0  0  0  0  0  0  0  0  0  0  0  0
   -2.0565    0.9649    5.1327 H   0  0  0  0  0  0  0  0  0  0  0  0
   -0.7281   -0.2137    5.0125 H   0  0  0  0  0  0  0  0  0  0  0  0
  5  6  2  0  0  0  0
  5  7  1  0  0  0  0
  2  3  1  0  0  0  0
  2  4  1  0  0  0  0
  2  5  1  0  0  0  0
  1  2  1  0  0  0  0
 27 28  2  0  0  0  0
 27 29  1  0  0  0  0
 23 24  1  0  0  0  0
 23 25  1  0  0  0  0
 23 26  1  0  0  0  0
 20 21  1  0  0  0  0
 20 22  1  0  0  0  0
 20 23  1  0  0  0  0
 17 18  1  0  0  0  0
 17 19  1  0  0  0  0
 17 20  1  0  0  0  0
 14 15  1  0  0  0  0
 14 16  1  0  0  0  0
 14 17  1  0  0  0  0
 11 12  1  0  0  0  0
 11 13  1  0  0  0  0
 11 14  1  0  0  0  0
  9 10  1  0  0  0  0
  9 11  1  0  0  0  0
  9 27  1  0  0  0  0
  7  8  1  0  0  0  0
  7  9  1  0  0  0  0
 31 32  1  0  0  0  0
 31 33  1  0  0  0  0
 31 34  1  0  0  0  0
 29 30  1  0  0  0  0
 29 31  1  0  0  0  0
M  CHG  1  23   1
M  END
$$$$
default_name
  -OEChem-02102213163D

 34 33  0     1  0  0  0  0  0999 V2000
   -3.8899   -3.6747    1.6490 H   0  0  0  0  0  0  0  0  0  0  0  0
   -3.9109   -2.6717    1.2250 C   0  0  0  0  0  0  0  0  0  0  0  0
   -4.6009   -2.0517    1.7950 H   0  0  0  0  0  0  0  0  0  0  0  0
   -4.2309   -2.7237    0.1860 H   0  0  0  0  0  0  0  0  0  0  0  0
   -2.5229   -2.0787    1.2980 C   0  0  0  0  0  0  0  0  0  0  0  0
   -1.5999   -2.7227    1.7810 O   0  0  0  0  0  0  0  0  0  0  0  0
   -2.3659   -0.8447    0.8120 N   0  0  0  0  0  0  0  0  0  0  0  0
   -3.1749   -0.3807    0.4220 H   0  0  0  0  0  0  0  0  0  0  0  0
   -1.0919   -0.1077    0.8170 C   0  0  1  0  0  0  0  0  0  0  0  0
   -0.3571   -0.6901    0.2581 H   0  0  0  0  0  0  0  0  0  0  0  0
   -1.3037    1.2411    0.1040 C   0  0  0  0  0  0  0  0  0  0  0  0
   -1.0713    2.0448    0.8044 H   0  0  0  0  0  0  0  0  0  0  0  0
   -0.6132    1.3138   -0.7385 H   0  0  0  0  0  0  0  0  0  0  0  0
   -2.7409    1.4412   -0.4009 C   0  0  0  0  0  0  0  0  0  0  0  0
   -2.7215    1.8290   -1.4203 H   0  0  0  0  0  0  0  0  0  0  0  0
   -3.2610    0.4813   -0.3945 H   0  0  0  0  0  0  0  0  0  0  0  0
   -3.4911    2.4316    0.5004 C   0  0  0  0  0  0  0  0  0  0  0  0
   -3.4958    2.0475    1.5233 H   0  0  0  0  0  0  0  0  0  0  0  0
   -2.9723    3.3921    0.4832 H   0  0  0  0  0  0  0  0  0  0  0  0
   -4.9337    2.6134    0.0121 C   0  0  0  0  0  0  0  0  0  0  0  0
   -4.9073    2.9908   -1.0154 H   0  0  0  0  0  0  0  0  0  0  0  0
   -5.4216    1.6341   -0.0030 H   0  0  0  0  0  0  0  0  0  0  0  0
   -5.6904    3.5495    0.8813 N   0  3  0  0  0  0  0  0  0  0  0  0
   -5.2494    4.4607    0.8910 H   0  0  0  0  0  0  0  0  0  0  0  0
   -6.6394    3.6582    0.5461 H   0  0  0  0  0  0  0  0  0  0  0  0
   -5.7252    3.2002    1.8319 H   0  0  0  0  0  0  0  0  0  0  0  0
   -0.5865    0.0771    2.2496 C   0  0  0  0  0  0  0  0  0  0  0  0
    0.5860   -0.1608    2.5143 O   0  0  0  0  0  0  0  0  0  0  0  0
   -1.4786    0.4656    3.1667 N   0  0  0  0  0  0  0  0  0  0  0  0
   -2.4139    0.6698    2.8558 H   0  0  0  0  0  0  0  0  0  0  0  0
   -1.1587    0.6908    4.5775 C   0  0  0  0  0  0  0  0  0  0  0  0
   -0.4270    1.4968    4.6656 H   0  0  0  0  0  0  0  0  0  0  0  0
   -2.0565    0.9649    5.1327 H   0  0  0  0  0  0  0  0  0  0  0  0
   -0.7281   -0.2137    5.0125 H   0  0  0  0  0  0  0  0  0  0  0  0
  5  6  2  0  0  0  0
  5  7  1  0  0  0  0
  2  3  1  0  0  0  0
  2  4  1  0  0  0  0
  2  5  1  0  0  0  0
  1  2  1  0  0  0  0
 27 28  2  0  0  0  0
 27 29  1  0  0  0  0
 23 24  1  0  0  0  0
 23 25  1  0  0  0  0
 23 26  1  0  0  0  0
 20 21  1  0  0  0  0
 20 22  1  0  0  0  0
 20 23  1  0  0  0  0
 17 18  1  0  0  0  0
 17 19  1  0  0  0  0
 17 20  1  0  0  0  0
 14 15  1  0  0  0  0
 14 16  1  0  0  0  0
 14 17  1  0  0  0  0
 11 12  1  0  0  0  0
 11 13  1  0  0  0  0
 11 14  1  0  0  0  0
  9 10  1  0  0  0  0
  9 11  1  0  0  0  0
  9 27  1  0  0  0  0
  7  8  1  0  0  0  0
  7  9  1  0  0  0  0
 31 32  1  0  0  0  0
 31 33  1  0  0  0  0
 31 34  1  0  0  0  0
 29 30  1  0  0  0  0
 29 31  1  0  0  0  0
M  CHG  1  23   1
M  END
$$$$
default_name
  -OEChem-02102213163D

 34 33  0     1  0  0  0  0  0999 V2000
   -3.8899   -3.6747    1.6490 H   0  0  0  0  0  0  0  0  0  0  0  0
   -3.9109   -2.6717    1.2250 C   0  0  0  0  0  0  0  0  0  0  0  0
   -4.6009   -2.0517    1.7950 H   0  0  0  0  0  0  0  0  0  0  0  0
   -4.2309   -2.7237    0.1860 H   0  0  0  0  0  0  0  0  0  0  0  0
   -2.5229   -2.0787    1.2980 C   0  0  0  0  0  0  0  0  0  0  0  0
   -1.5999   -2.7227    1.7810 O   0  0  0  0  0  0  0  0  0  0  0  0
   -2.3659   -0.8447    0.8120 N   0  0  0  0  0  0  0  0  0  0  0  0
   -3.1749   -0.3807    0.4220 H   0  0  0  0  0  0  0  0  0  0  0  0
   -1.0919   -0.1077    0.8170 C   0  0  1  0  0  0  0  0  0  0  0  0
   -0.3571   -0.6901    0.2581 H   0  0  0  0  0  0  0  0  0  0  0  0
   -1.3037    1.2411    0.1040 C   0  0  0  0  0  0  0  0  0  0  0  0
   -1.0713    2.0448    0.8044 H   0  0  0  0  0  0  0  0  0  0  0  0
   -0.6132    1.3138   -0.7385 H   0  0  0  0  0  0  0  0  0  0  0  0
   -2.7409    1.4412   -0.4009 C   0  0  0  0  0  0  0  0  0  0  0  0
   -2.7353    1.5690   -1.4842 H   0  0  0  0  0  0  0  0  0  0  0  0
   -3.3362    0.5614   -0.1489 H   0  0  0  0  0  0  0  0  0  0  0  0
   -3.3680    2.6822    0.2492 C   0  0  0  0  0  0  0  0  0  0  0  0
   -3.3585    2.5576    1.3347 H   0  0  0  0  0  0  0  0  0  0  0  0
   -2.7744    3.5602   -0.0135 H   0  0  0  0  0  0  0  0  0  0  0  0
   -4.8113    2.8691   -0.2350 C   0  0  0  0  0  0  0  0  0  0  0  0
   -4.7999    2.9843   -1.3238 H   0  0  0  0  0  0  0  0  0  0  0  0
   -5.3770    1.9625    0.0002 H   0  0  0  0  0  0  0  0  0  0  0  0
   -5.4506    4.0506    0.3974 N   0  3  0  0  0  0  0  0  0  0  0  0
   -4.9374    4.8943    0.1746 H   0  0  0  0  0  0  0  0  0  0  0  0
   -6.4016    4.1597    0.0679 H   0  0  0  0  0  0  0  0  0  0  0  0
   -5.4716    3.9449    1.4050 H   0  0  0  0  0  0  0  0  0  0  0  0
   -0.5865    0.0771    2.2496 C   0  0  0  0  0  0  0  0  0  0  0  0
    0.5860   -0.1608    2.5143 O   0  0  0  0  0  0  0  0  0  0  0  0
   -1.4786    0.4656    3.1667 N   0  0  0  0  0  0  0  0  0  0  0  0
   -2.4139    0.6698    2.8558 H   0  0  0  0  0  0  0  0  0  0  0  0
   -1.1587    0.6908    4.5775 C   0  0  0  0  0  0  0  0  0  0  0  0
   -0.4270    1.4968    4.6656 H   0  0  0  0  0  0  0  0  0  0  0  0
   -2.0565    0.9649    5.1327 H   0  0  0  0  0  0  0  0  0  0  0  0
   -0.7281   -0.2137    5.0125 H   0  0  0  0  0  0  0  0  0  0  0  0
  5  6  2  0  0  0  0
  5  7  1  0  0  0  0
  2  3  1  0  0  0  0
  2  4  1  0  0  0  0
  2  5  1  0  0  0  0
  1  2  1  0  0  0  0
 27 28  2  0  0  0  0
 27 29  1  0  0  0  0
 23 24  1  0  0  0  0
 23 25  1  0  0  0  0
 23 26  1  0  0  0  0
 20 21  1  0  0  0  0
 20 22  1  0  0  0  0
 20 23  1  0  0  0  0
 17 18  1  0  0  0  0
 17 19  1  0  0  0  0
 17 20  1  0  0  0  0
 14 15  1  0  0  0  0
 14 16  1  0  0  0  0
 14 17  1  0  0  0  0
 11 12  1  0  0  0  0
 11 13  1  0  0  0  0
 11 14  1  0  0  0  0
  9 10  1  0  0  0  0
  9 11  1  0  0  0  0
  9 27  1  0  0  0  0
  7  8  1  0  0  0  0
  7  9  1  0  0  0  0
 31 32  1  0  0  0  0
 31 33  1  0  0  0  0
 31 34  1  0  0  0  0
 29 30  1  0  0  0  0
 29 31  1  0  0  0  0
M  CHG  1  23   1
M  END
$$$$
default_name
  -OEChem-02102213163D

 34 33  0     1  0  0  0  0  0999 V2000
   -3.8899   -3.6747    1.6490 H   0  0  0  0  0  0  0  0  0  0  0  0
   -3.9109   -2.6717    1.2250 C   0  0  0  0  0  0  0  0  0  0  0  0
   -4.6009   -2.0517    1.7950 H   0  0  0  0  0  0  0  0  0  0  0  0
   -4.2309   -2.7237    0.1860 H   0  0  0  0  0  0  0  0  0  0  0  0
   -2.5229   -2.0787    1.2980 C   0  0  0  0  0  0  0  0  0  0  0  0
   -1.5999   -2.7227    1.7810 O   0  0  0  0  0  0  0  0  0  0  0  0
   -2.3659   -0.8447    0.8120 N   0  0  0  0  0  0  0  0  0  0  0  0
   -3.1749   -0.3807    0.4220 H   0  0  0  0  0  0  0  0  0  0  0  0
   -1.0919   -0.1077    0.8170 C   0  0  1  0  0  0  0  0  0  0  0  0
   -0.3571   -0.6901    0.2581 H   0  0  0  0  0  0  0  0  0  0  0  0
   -1.3037    1.2411    0.1040 C   0  0  0  0  0  0  0  0  0  0  0  0
   -1.0713    2.0448    0.8044 H   0  0  0  0  0  0  0  0  0  0  0  0
   -0.6132    1.3138   -0.7385 H   0  0  0  0  0  0  0  0  0  0  0  0
   -2.7409    1.4412   -0.4009 C   0  0  0  0  0  0  0  0  0  0  0  0
   -2.7728    1.3035   -1.4826 H   0  0  0  0  0  0  0  0  0  0  0  0
   -3.3937    0.7046    0.0716 H   0  0  0  0  0  0  0  0  0  0  0  0
   -3.2362    2.8530   -0.0583 C   0  0  0  0  0  0  0  0  0  0  0  0
   -3.1888    2.9930    1.0243 H   0  0  0  0  0  0  0  0  0  0  0  0
   -2.5857    3.5854   -0.5406 H   0  0  0  0  0  0  0  0  0  0  0  0
   -4.6796    3.0459   -0.5398 C   0  0  0  0  0  0  0  0  0  0  0  0
   -4.7070    2.8942   -1.6237 H   0  0  0  0  0  0  0  0  0  0  0  0
   -5.3059    2.2768   -0.0778 H   0  0  0  0  0  0  0  0  0  0  0  0
   -5.1926    4.3970   -0.1995 N   0  3  0  0  0  0  0  0  0  0  0  0
   -4.6232    5.1130   -0.6329 H   0  0  0  0  0  0  0  0  0  0  0  0
   -6.1454    4.5080   -0.5234 H   0  0  0  0  0  0  0  0  0  0  0  0
   -5.1776    4.5392    0.8037 H   0  0  0  0  0  0  0  0  0  0  0  0
   -0.5865    0.0771    2.2496 C   0  0  0  0  0  0  0  0  0  0  0  0
    0.5860   -0.1608    2.5143 O   0  0  0  0  0  0  0  0  0  0  0  0
   -1.4786    0.4656    3.1667 N   0  0  0  0  0  0  0  0  0  0  0  0
   -2.4139    0.6698    2.8558 H   0  0  0  0  0  0  0  0  0  0  0  0
   -1.1587    0.6908    4.5775 C   0  0  0  0  0  0  0  0  0  0  0  0
   -0.4270    1.4968    4.6656 H   0  0  0  0  0  0  0  0  0  0  0  0
   -2.0565    0.9649    5.1327 H   0  0  0  0  0  0  0  0  0  0  0  0
   -0.7281   -0.2137    5.0125 H   0  0  0  0  0  0  0  0  0  0  0  0
  5  6  2  0  0  0  0
  5  7  1  0  0  0  0
  2  3  1  0  0  0  0
  2  4  1  0  0  0  0
  2  5  1  0  0  0  0
  1  2  1  0  0  0  0
 27 28  2  0  0  0  0
 27 29  1  0  0  0  0
 23 24  1  0  0  0  0
 23 25  1  0  0  0  0
 23 26  1  0  0  0  0
 20 21  1  0  0  0  0
 20 22  1  0  0  0  0
 20 23  1  0  0  0  0
 17 18  1  0  0  0  0
 17 19  1  0  0  0  0
 17 20  1  0  0  0  0
 14 15  1  0  0  0  0
 14 16  1  0  0  0  0
 14 17  1  0  0  0  0
 11 12  1  0  0  0  0
 11 13  1  0  0  0  0
 11 14  1  0  0  0  0
  9 10  1  0  0  0  0
  9 11  1  0  0  0  0
  9 27  1  0  0  0  0
  7  8  1  0  0  0  0
  7  9  1  0  0  0  0
 31 32  1  0  0  0  0
 31 33  1  0  0  0  0
 31 34  1  0  0  0  0
 29 30  1  0  0  0  0
 29 31  1  0  0  0  0
M  CHG  1  23   1
M  END
$$$$
default_name
  -OEChem-02102213163D

 34 33  0     1  0  0  0  0  0999 V2000
   -3.8899   -3.6747    1.6490 H   0  0  0  0  0  0  0  0  0  0  0  0
   -3.9109   -2.6717    1.2250 C   0  0  0  0  0  0  0  0  0  0  0  0
   -4.6009   -2.0517    1.7950 H   0  0  0  0  0  0  0  0  0  0  0  0
   -4.2309   -2.7237    0.1860 H   0  0  0  0  0  0  0  0  0  0  0  0
   -2.5229   -2.0787    1.2980 C   0  0  0  0  0  0  0  0  0  0  0  0
   -1.5999   -2.7227    1.7810 O   0  0  0  0  0  0  0  0  0  0  0  0
   -2.3659   -0.8447    0.8120 N   0  0  0  0  0  0  0  0  0  0  0  0
   -3.1749   -0.3807    0.4220 H   0  0  0  0  0  0  0  0  0  0  0  0
   -1.0919   -0.1077    0.8170 C   0  0  1  0  0  0  0  0  0  0  0  0
   -0.3571   -0.6901    0.2581 H   0  0  0  0  0  0  0  0  0  0  0  0
   -1.3037    1.2411    0.1040 C   0  0  0  0  0  0  0  0  0  0  0  0
   -1.0713    2.0448    0.8044 H   0  0  0  0  0  0  0  0  0  0  0  0
   -0.6132    1.3138   -0.7385 H   0  0  0  0  0  0  0  0  0  0  0  0
   -2.7409    1.4412   -0.4009 C   0  0  0  0  0  0  0  0  0  0  0  0
   -2.8316    1.0507   -1.4154 H   0  0  0  0  0  0  0  0  0  0  0  0
   -3.4296    0.9013    0.2518 H   0  0  0  0  0  0  0  0  0  0  0  0
   -3.1047    2.9324   -0.4010 C   0  0  0  0  0  0  0  0  0  0  0  0
   -2.9984    3.3240    0.6135 H   0  0  0  0  0  0  0  0  0  0  0  0
   -2.4190    3.4661   -1.0622 H   0  0  0  0  0  0  0  0  0  0  0  0
   -4.5476    3.1317   -0.8814 C   0  0  0  0  0  0  0  0  0  0  0  0
   -4.6351    2.7266   -1.8948 H   0  0  0  0  0  0  0  0  0  0  0  0
   -5.2131    2.5554   -0.2315 H   0  0  0  0  0  0  0  0  0  0  0  0
   -4.9342    4.5652   -0.8686 N   0  3  0  0  0  0  0  0  0  0  0  0
   -4.3284    5.1021   -1.4765 H   0  0  0  0  0  0  0  0  0  0  0  0
   -5.8882    4.6795   -1.1876 H   0  0  0  0  0  0  0  0  0  0  0  0
   -4.8633    4.9427    0.0692 H   0  0  0  0  0  0  0  0  0  0  0  0
   -0.5865    0.0771    2.2496 C   0  0  0  0  0  0  0  0  0  0  0  0
    0.5860   -0.1608    2.5143 O   0  0  0  0  0  0  0  0  0  0  0  0
   -1.4786    0.4656    3.1667 N   0  0  0  0  0  0  0  0  0  0  0  0
   -2.4139    0.6698    2.8558 H   0  0  0  0  0  0  0  0  0  0  0  0
   -1.1587    0.6908    4.5775 C   0  0  0  0  0  0  0  0  0  0  0  0
   -0.4270    1.4968    4.6656 H   0  0  0  0  0  0  0  0  0  0  0  0
   -2.0565    0.9649    5.1327 H   0  0  0  0  0  0  0  0  0  0  0  0
   -0.7281   -0.2137    5.0125 H   0  0  0  0  0  0  0  0  0  0  0  0
  5  6  2  0  0  0  0
  5  7  1  0  0  0  0
  2  3  1  0  0  0  0
  2  4  1  0  0  0  0
  2  5  1  0  0  0  0
  1  2  1  0  0  0  0
 27 28  2  0  0  0  0
 27 29  1  0  0  0  0
 23 24  1  0  0  0  0
 23 25  1  0  0  0  0
 23 26  1  0  0  0  0
 20 21  1  0  0  0  0
 20 22  1  0  0  0  0
 20 23  1  0  0  0  0
 17 18  1  0  0  0  0
 17 19  1  0  0  0  0
 17 20  1  0  0  0  0
 14 15  1  0  0  0  0
 14 16  1  0  0  0  0
 14 17  1  0  0  0  0
 11 12  1  0  0  0  0
 11 13  1  0  0  0  0
 11 14  1  0  0  0  0
  9 10  1  0  0  0  0
  9 11  1  0  0  0  0
  9 27  1  0  0  0  0
  7  8  1  0  0  0  0
  7  9  1  0  0  0  0
 31 32  1  0  0  0  0
 31 33  1  0  0  0  0
 31 34  1  0  0  0  0
 29 30  1  0  0  0  0
 29 31  1  0  0  0  0
M  CHG  1  23   1
M  END
$$$$
default_name
  -OEChem-02102213163D

 34 33  0     1  0  0  0  0  0999 V2000
   -3.8899   -3.6747    1.6490 H   0  0  0  0  0  0  0  0  0  0  0  0
   -3.9109   -2.6717    1.2250 C   0  0  0  0  0  0  0  0  0  0  0  0
   -4.6009   -2.0517    1.7950 H   0  0  0  0  0  0  0  0  0  0  0  0
   -4.2309   -2.7237    0.1860 H   0  0  0  0  0  0  0  0  0  0  0  0
   -2.5229   -2.0787    1.2980 C   0  0  0  0  0  0  0  0  0  0  0  0
   -1.5999   -2.7227    1.7810 O   0  0  0  0  0  0  0  0  0  0  0  0
   -2.3659   -0.8447    0.8120 N   0  0  0  0  0  0  0  0  0  0  0  0
   -3.1749   -0.3807    0.4220 H   0  0  0  0  0  0  0  0  0  0  0  0
   -1.0919   -0.1077    0.8170 C   0  0  1  0  0  0  0  0  0  0  0  0
   -0.3571   -0.6901    0.2581 H   0  0  0  0  0  0  0  0  0  0  0  0
   -1.3037    1.2411    0.1040 C   0  0  0  0  0  0  0  0  0  0  0  0
   -1.0713    2.0448    0.8044 H   0  0  0  0  0  0  0  0  0  0  0  0
   -0.6132    1.3138   -0.7385 H   0  0  0  0  0  0  0  0  0  0  0  0
   -2.7409    1.4412   -0.4009 C   0  0  0  0  0  0  0  0  0  0  0  0
   -2.9076    0.8277   -1.2874 H   0  0  0  0  0  0  0  0  0  0  0  0
   -3.4415    1.1379    0.3795 H   0  0  0  0  0  0  0  0  0  0  0  0
   -2.9825    2.9149   -0.7558 C   0  0  0  0  0  0  0  0  0  0  0  0
   -2.8002    3.5280    0.1300 H   0  0  0  0  0  0  0  0  0  0  0  0
   -2.2858    3.2105   -1.5428 H   0  0  0  0  0  0  0  0  0  0  0  0
   -4.4244    3.1206   -1.2365 C   0  0  0  0  0  0  0  0  0  0  0  0
   -4.5891    2.4931   -2.1184 H   0  0  0  0  0  0  0  0  0  0  0  0
   -5.1049    2.7794   -0.4506 H   0  0  0  0  0  0  0  0  0  0  0  0
   -4.6927    4.5437   -1.5643 N   0  3  0  0  0  0  0  0  0  0  0  0
   -4.0729    4.8623   -2.2986 H   0  0  0  0  0  0  0  0  0  0  0  0
   -5.6475    4.6625   -1.8793 H   0  0  0  0  0  0  0  0  0  0  0  0
   -4.5502    5.1279   -0.7487 H   0  0  0  0  0  0  0  0  0  0  0  0
   -0.5865    0.0771    2.2496 C   0  0  0  0  0  0  0  0  0  0  0  0
    0.5860   -0.1608    2.5143 O   0  0  0  0  0  0  0  0  0  0  0  0
   -1.4786    0.4656    3.1667 N   0  0  0  0  0  0  0  0  0  0  0  0
   -2.4139    0.6698    2.8558 H   0  0  0  0  0  0  0  0  0  0  0  0
   -1.1587    0.6908    4.5775 C   0  0  0  0  0  0  0  0  0  0  0  0
   -0.4270    1.4968    4.6656 H   0  0  0  0  0  0  0  0  0  0  0  0
   -2.0565    0.9649    5.1327 H   0  0  0  0  0  0  0  0  0  0  0  0
   -0.7281   -0.2137    5.0125 H   0  0  0  0  0  0  0  0  0  0  0  0
  5  6  2  0  0  0  0
  5  7  1  0  0  0  0
  2  3  1  0  0  0  0
  2  4  1  0  0  0  0
  2  5  1  0  0  0  0
  1  2  1  0  0  0  0
 27 28  2  0  0  0  0
 27 29  1  0  0  0  0
 23 24  1  0  0  0  0
 23 25  1  0  0  0  0
 23 26  1  0  0  0  0
 20 21  1  0  0  0  0
 20 22  1  0  0  0  0
 20 23  1  0  0  0  0
 17 18  1  0  0  0  0
 17 19  1  0  0  0  0
 17 20  1  0  0  0  0
 14 15  1  0  0  0  0
 14 16  1  0  0  0  0
 14 17  1  0  0  0  0
 11 12  1  0  0  0  0
 11 13  1  0  0  0  0
 11 14  1  0  0  0  0
  9 10  1  0  0  0  0
  9 11  1  0  0  0  0
  9 27  1  0  0  0  0
  7  8  1  0  0  0  0
  7  9  1  0  0  0  0
 31 32  1  0  0  0  0
 31 33  1  0  0  0  0
 31 34  1  0  0  0  0
 29 30  1  0  0  0  0
 29 31  1  0  0  0  0
M  CHG  1  23   1
M  END
$$$$
default_name
  -OEChem-02102213163D

 34 33  0     1  0  0  0  0  0999 V2000
   -3.8899   -3.6747    1.6490 H   0  0  0  0  0  0  0  0  0  0  0  0
   -3.9109   -2.6717    1.2250 C   0  0  0  0  0  0  0  0  0  0  0  0
   -4.6009   -2.0517    1.7950 H   0  0  0  0  0  0  0  0  0  0  0  0
   -4.2309   -2.7237    0.1860 H   0  0  0  0  0  0  0  0  0  0  0  0
   -2.5229   -2.0787    1.2980 C   0  0  0  0  0  0  0  0  0  0  0  0
   -1.5999   -2.7227    1.7810 O   0  0  0  0  0  0  0  0  0  0  0  0
   -2.3659   -0.8447    0.8120 N   0  0  0  0  0  0  0  0  0  0  0  0
   -3.1749   -0.3807    0.4220 H   0  0  0  0  0  0  0  0  0  0  0  0
   -1.0919   -0.1077    0.8170 C   0  0  1  0  0  0  0  0  0  0  0  0
   -0.3571   -0.6901    0.2581 H   0  0  0  0  0  0  0  0  0  0  0  0
   -1.3037    1.2411    0.1040 C   0  0  0  0  0  0  0  0  0  0  0  0
   -0.8258    2.0248    0.6938 H   0  0  0  0  0  0  0  0  0  0  0  0
   -0.8206    1.2093   -0.8746 H   0  0  0  0  0  0  0  0  0  0  0  0
   -2.7852    1.6067   -0.0747 C   0  0  0  0  0  0  0  0  0  0  0  0
   -3.2847    0.8378   -0.6657 H   0  0  0  0  0  0  0  0  0  0  0  0
   -3.2612    1.6678    0.9060 H   0  0  0  0  0  0  0  0  0  0  0  0
   -2.9198    2.9581   -0.7899 C   0  0  0  0  0  0  0  0  0  0  0  0
   -2.4058    3.7232   -0.2031 H   0  0  0  0  0  0  0  0  0  0  0  0
   -2.4506    2.8889   -1.7733 H   0  0  0  0  0  0  0  0  0  0  0  0
   -4.3980    3.3362   -0.9468 C   0  0  0  0  0  0  0  0  0  0  0  0
   -4.8961    2.5548   -1.5299 H   0  0  0  0  0  0  0  0  0  0  0  0
   -4.8583    3.3587    0.0456 H   0  0  0  0  0  0  0  0  0  0  0  0
   -4.5568    4.6525   -1.6152 N   0  3  0  0  0  0  0  0  0  0  0  0
   -4.1418    4.6347   -2.5385 H   0  0  0  0  0  0  0  0  0  0  0  0
   -5.5369    4.8872   -1.7108 H   0  0  0  0  0  0  0  0  0  0  0  0
   -4.1049    5.3809   -1.0748 H   0  0  0  0  0  0  0  0  0  0  0  0
   -0.5865    0.0771    2.2496 C   0  0  0  0  0  0  0  0  0  0  0  0
    0.5860   -0.1608    2.5143 O   0  0  0  0  0  0  0  0  0  0  0  0
   -1.4786    0.4656    3.1667 N   0  0  0  0  0  0  0  0  0  0  0  0
   -2.4139    0.6698    2.8558 H   0  0  0  0  0  0  0  0  0  0  0  0
   -1.1587    0.6908    4.5775 C   0  0  0  0  0  0  0  0  0  0  0  0
   -0.4270    1.4968    4.6656 H   0  0  0  0  0  0  0  0  0  0  0  0
   -2.0565    0.9649    5.1327 H   0  0  0  0  0  0  0  0  0  0  0  0
   -0.7281   -0.2137    5.0125 H   0  0  0  0  0  0  0  0  0  0  0  0
  5  6  2  0  0  0  0
  5  7  1  0  0  0  0
  2  3  1  0  0  0  0
  2  4  1  0  0  0  0
  2  5  1  0  0  0  0
  1  2  1  0  0  0  0
 27 28  2  0  0  0  0
 27 29  1  0  0  0  0
 23 24  1  0  0  0  0
 23 25  1  0  0  0  0
 23 26  1  0  0  0  0
 20 21  1  0  0  0  0
 20 22  1  0  0  0  0
 20 23  1  0  0  0  0
 17 18  1  0  0  0  0
 17 19  1  0  0  0  0
 17 20  1  0  0  0  0
 14 15  1  0  0  0  0
 14 16  1  0  0  0  0
 14 17  1  0  0  0  0
 11 12  1  0  0  0  0
 11 13  1  0  0  0  0
 11 14  1  0  0  0  0
  9 10  1  0  0  0  0
  9 11  1  0  0  0  0
  9 27  1  0  0  0  0
  7  8  1  0  0  0  0
  7  9  1  0  0  0  0
 31 32  1  0  0  0  0
 31 33  1  0  0  0  0
 31 34  1  0  0  0  0
 29 30  1  0  0  0  0
 29 31  1  0  0  0  0
M  CHG  1  23   1
M  END
$$$$
default_name
  -OEChem-02102213163D

 34 33  0     1  0  0  0  0  0999 V2000
   -3.8899   -3.6747    1.6490 H   0  0  0  0  0  0  0  0  0  0  0  0
   -3.9109   -2.6717    1.2250 C   0  0  0  0  0  0  0  0  0  0  0  0
   -4.6009   -2.0517    1.7950 H   0  0  0  0  0  0  0  0  0  0  0  0
   -4.2309   -2.7237    0.1860 H   0  0  0  0  0  0  0  0  0  0  0  0
   -2.5229   -2.0787    1.2980 C   0  0  0  0  0  0  0  0  0  0  0  0
   -1.5999   -2.7227    1.7810 O   0  0  0  0  0  0  0  0  0  0  0  0
   -2.3659   -0.8447    0.8120 N   0  0  0  0  0  0  0  0  0  0  0  0
   -3.1749   -0.3807    0.4220 H   0  0  0  0  0  0  0  0  0  0  0  0
   -1.0919   -0.1077    0.8170 C   0  0  1  0  0  0  0  0  0  0  0  0
   -0.3571   -0.6901    0.2581 H   0  0  0  0  0  0  0  0  0  0  0  0
   -1.3037    1.2411    0.1040 C   0  0  0  0  0  0  0  0  0  0  0  0
   -0.8258    2.0248    0.6938 H   0  0  0  0  0  0  0  0  0  0  0  0
   -0.8206    1.2093   -0.8746 H   0  0  0  0  0  0  0  0  0  0  0  0
   -2.7852    1.6067   -0.0747 C   0  0  0  0  0  0  0  0  0  0  0  0
   -3.3393    0.7345   -0.4244 H   0  0  0  0  0  0  0  0  0  0  0  0
   -3.1945    1.9277    0.8852 H   0  0  0  0  0  0  0  0  0  0  0  0
   -2.9362    2.7420   -1.0966 C   0  0  0  0  0  0  0  0  0  0  0  0
   -2.3680    3.6089   -0.7509 H   0  0  0  0  0  0  0  0  0  0  0  0
   -2.5340    2.4126   -2.0568 H   0  0  0  0  0  0  0  0  0  0  0  0
   -4.4126    3.1249   -1.2576 C   0  0  0  0  0  0  0  0  0  0  0  0
   -4.9651    2.2425   -1.5966 H   0  0  0  0  0  0  0  0  0  0  0  0
   -4.8065    3.4109   -0.2776 H   0  0  0  0  0  0  0  0  0  0  0  0
   -4.5854    4.2387   -2.2241 N   0  3  0  0  0  0  0  0  0  0  0  0
   -4.2323    3.9762   -3.1359 H   0  0  0  0  0  0  0  0  0  0  0  0
   -5.5643    4.4793   -2.3187 H   0  0  0  0  0  0  0  0  0  0  0  0
   -4.0830    5.0609   -1.9104 H   0  0  0  0  0  0  0  0  0  0  0  0
   -0.5865    0.0771    2.2496 C   0  0  0  0  0  0  0  0  0  0  0  0
    0.5860   -0.1608    2.5143 O   0  0  0  0  0  0  0  0  0  0  0  0
   -1.4786    0.4656    3.1667 N   0  0  0  0  0  0  0  0  0  0  0  0
   -2.4139    0.6698    2.8558 H   0  0  0  0  0  0  0  0  0  0  0  0
   -1.1587    0.6908    4.5775 C   0  0  0  0  0  0  0  0  0  0  0  0
   -0.4270    1.4968    4.6656 H   0  0  0  0  0  0  0  0  0  0  0  0
   -2.0565    0.9649    5.1327 H   0  0  0  0  0  0  0  0  0  0  0  0
   -0.7281   -0.2137    5.0125 H   0  0  0  0  0  0  0  0  0  0  0  0
  5  6  2  0  0  0  0
  5  7  1  0  0  0  0
  2  3  1  0  0  0  0
  2  4  1  0  0  0  0
  2  5  1  0  0  0  0
  1  2  1  0  0  0  0
 27 28  2  0  0  0  0
 27 29  1  0  0  0  0
 23 24  1  0  0  0  0
 23 25  1  0  0  0  0
 23 26  1  0  0  0  0
 20 21  1  0  0  0  0
 20 22  1  0  0  0  0
 20 23  1  0  0  0  0
 17 18  1  0  0  0  0
 17 19  1  0  0  0  0
 17 20  1  0  0  0  0
 14 15  1  0  0  0  0
 14 16  1  0  0  0  0
 14 17  1  0  0  0  0
 11 12  1  0  0  0  0
 11 13  1  0  0  0  0
 11 14  1  0  0  0  0
  9 10  1  0  0  0  0
  9 11  1  0  0  0  0
  9 27  1  0  0  0  0
  7  8  1  0  0  0  0
  7  9  1  0  0  0  0
 31 32  1  0  0  0  0
 31 33  1  0  0  0  0
 31 34  1  0  0  0  0
 29 30  1  0  0  0  0
 29 31  1  0  0  0  0
M  CHG  1  23   1
M  END
$$$$
default_name
  -OEChem-02102213163D

 34 33  0     1  0  0  0  0  0999 V2000
   -3.8899   -3.6747    1.6490 H   0  0  0  0  0  0  0  0  0  0  0  0
   -3.9109   -2.6717    1.2250 C   0  0  0  0  0  0  0  0  0  0  0  0
   -4.6009   -2.0517    1.7950 H   0  0  0  0  0  0  0  0  0  0  0  0
   -4.2309   -2.7237    0.1860 H   0  0  0  0  0  0  0  0  0  0  0  0
   -2.5229   -2.0787    1.2980 C   0  0  0  0  0  0  0  0  0  0  0  0
   -1.5999   -2.7227    1.7810 O   0  0  0  0  0  0  0  0  0  0  0  0
   -2.3659   -0.8447    0.8120 N   0  0  0  0  0  0  0  0  0  0  0  0
   -3.1749   -0.3807    0.4220 H   0  0  0  0  0  0  0  0  0  0  0  0
   -1.0919   -0.1077    0.8170 C   0  0  1  0  0  0  0  0  0  0  0  0
   -0.3571   -0.6901    0.2581 H   0  0  0  0  0  0  0  0  0  0  0  0
   -1.3037    1.2411    0.1040 C   0  0  0  0  0  0  0  0  0  0  0  0
   -0.8258    2.0248    0.6938 H   0  0  0  0  0  0  0  0  0  0  0  0
   -0.8206    1.2093   -0.8746 H   0  0  0  0  0  0  0  0  0  0  0  0
   -2.7852    1.6067   -0.0747 C   0  0  0  0  0  0  0  0  0  0  0  0
   -3.3803    0.6966   -0.1621 H   0  0  0  0  0  0  0  0  0  0  0  0
   -3.1236    2.1716    0.7961 H   0  0  0  0  0  0  0  0  0  0  0  0
   -2.9774    2.4571   -1.3380 C   0  0  0  0  0  0  0  0  0  0  0  0
   -2.3686    3.3605   -1.2539 H   0  0  0  0  0  0  0  0  0  0  0  0
   -2.6462    1.8844   -2.2066 H   0  0  0  0  0  0  0  0  0  0  0  0
   -4.4523    2.8437   -1.5042 C   0  0  0  0  0  0  0  0  0  0  0  0
   -5.0452    1.9263   -1.5788 H   0  0  0  0  0  0  0  0  0  0  0  0
   -4.7747    3.3791   -0.6060 H   0  0  0  0  0  0  0  0  0  0  0  0
   -4.6631    3.6879   -2.7073 N   0  3  0  0  0  0  0  0  0  0  0  0
   -4.3763    3.1938   -3.5430 H   0  0  0  0  0  0  0  0  0  0  0  0
   -5.6404    3.9344   -2.8024 H   0  0  0  0  0  0  0  0  0  0  0  0
   -4.1231    4.5427   -2.6391 H   0  0  0  0  0  0  0  0  0  0  0  0
   -0.5865    0.0771    2.2496 C   0  0  0  0  0  0  0  0  0  0  0  0
    0.5860   -0.1608    2.5143 O   0  0  0  0  0  0  0  0  0  0  0  0
   -1.4786    0.4656    3.1667 N   0  0  0  0  0  0  0  0  0  0  0  0
   -2.4139    0.6698    2.8558 H   0  0  0  0  0  0  0  0  0  0  0  0
   -1.1587    0.6908    4.5775 C   0  0  0  0  0  0  0  0  0  0  0  0
   -0.4270    1.4968    4.6656 H   0  0  0  0  0  0  0  0  0  0  0  0
   -2.0565    0.9649    5.1327 H   0  0  0  0  0  0  0  0  0  0  0  0
   -0.7281   -0.2137    5.0125 H   0  0  0  0  0  0  0  0  0  0  0  0
  5  6  2  0  0  0  0
  5  7  1  0  0  0  0
  2  3  1  0  0  0  0
  2  4  1  0  0  0  0
  2  5  1  0  0  0  0
  1  2  1  0  0  0  0
 27 28  2  0  0  0  0
 27 29  1  0  0  0  0
 23 24  1  0  0  0  0
 23 25  1  0  0  0  0
 23 26  1  0  0  0  0
 20 21  1  0  0  0  0
 20 22  1  0  0  0  0
 20 23  1  0  0  0  0
 17 18  1  0  0  0  0
 17 19  1  0  0  0  0
 17 20  1  0  0  0  0
 14 15  1  0  0  0  0
 14 16  1  0  0  0  0
 14 17  1  0  0  0  0
 11 12  1  0  0  0  0
 11 13  1  0  0  0  0
 11 14  1  0  0  0  0
  9 10  1  0  0  0  0
  9 11  1  0  0  0  0
  9 27  1  0  0  0  0
  7  8  1  0  0  0  0
  7  9  1  0  0  0  0
 31 32  1  0  0  0  0
 31 33  1  0  0  0  0
 31 34  1  0  0  0  0
 29 30  1  0  0  0  0
 29 31  1  0  0  0  0
M  CHG  1  23   1
M  END
$$$$
default_name
  -OEChem-02102213163D

 34 33  0     1  0  0  0  0  0999 V2000
   -3.8899   -3.6747    1.6490 H   0  0  0  0  0  0  0  0  0  0  0  0
   -3.9109   -2.6717    1.2250 C   0  0  0  0  0  0  0  0  0  0  0  0
   -4.6009   -2.0517    1.7950 H   0  0  0  0  0  0  0  0  0  0  0  0
   -4.2309   -2.7237    0.1860 H   0  0  0  0  0  0  0  0  0  0  0  0
   -2.5229   -2.0787    1.2980 C   0  0  0  0  0  0  0  0  0  0  0  0
   -1.5999   -2.7227    1.7810 O   0  0  0  0  0  0  0  0  0  0  0  0
   -2.3659   -0.8447    0.8120 N   0  0  0  0  0  0  0  0  0  0  0  0
   -3.1749   -0.3807    0.4220 H   0  0  0  0  0  0  0  0  0  0  0  0
   -1.0919   -0.1077    0.8170 C   0  0  1  0  0  0  0  0  0  0  0  0
   -0.3571   -0.6901    0.2581 H   0  0  0  0  0  0  0  0  0  0  0  0
   -1.3037    1.2411    0.1040 C   0  0  0  0  0  0  0  0  0  0  0  0
   -0.8258    2.0248    0.6938 H   0  0  0  0  0  0  0  0  0  0  0  0
   -0.8206    1.2093   -0.8746 H   0  0  0  0  0  0  0  0  0  0  0  0
   -2.7852    1.6067   -0.0747 C   0  0  0  0  0  0  0  0  0  0  0  0
   -3.4048    0.7267    0.1032 H   0  0  0  0  0  0  0  0  0  0  0  0
   -3.0532    2.3828    0.6449 H   0  0  0  0  0  0  0  0  0  0  0  0
   -3.0406    2.1230   -1.4975 C   0  0  0  0  0  0  0  0  0  0  0  0
   -2.4076    2.9952   -1.6777 H   0  0  0  0  0  0  0  0  0  0  0  0
   -2.7798    1.3401   -2.2125 H   0  0  0  0  0  0  0  0  0  0  0  0
   -4.5143    2.5118   -1.6698 C   0  0  0  0  0  0  0  0  0  0  0  0
   -5.1311    1.6278   -1.4777 H   0  0  0  0  0  0  0  0  0  0  0  0
   -4.7652    3.2654   -0.9173 H   0  0  0  0  0  0  0  0  0  0  0  0
   -4.7844    3.0377   -3.0317 N   0  3  0  0  0  0  0  0  0  0  0  0
   -4.5640    2.3408   -3.7321 H   0  0  0  0  0  0  0  0  0  0  0  0
   -5.7601    3.2897   -3.1289 H   0  0  0  0  0  0  0  0  0  0  0  0
   -4.2222    3.8614   -3.2112 H   0  0  0  0  0  0  0  0  0  0  0  0
   -0.5865    0.0771    2.2496 C   0  0  0  0  0  0  0  0  0  0  0  0
    0.5860   -0.1608    2.5143 O   0  0  0  0  0  0  0  0  0  0  0  0
   -1.4786    0.4656    3.1667 N   0  0  0  0  0  0  0  0  0  0  0  0
   -2.4139    0.6698    2.8558 H   0  0  0  0  0  0  0  0  0  0  0  0
   -1.1587    0.6908    4.5775 C   0  0  0  0  0  0  0  0  0  0  0  0
   -0.4270    1.4968    4.6656 H   0  0  0  0  0  0  0  0  0  0  0  0
   -2.0565    0.9649    5.1327 H   0  0  0  0  0  0  0  0  0  0  0  0
   -0.7281   -0.2137    5.0125 H   0  0  0  0  0  0  0  0  0  0  0  0
  5  6  2  0  0  0  0
  5  7  1  0  0  0  0
  2  3  1  0  0  0  0
  2  4  1  0  0  0  0
  2  5  1  0  0  0  0
  1  2  1  0  0  0  0
 27 28  2  0  0  0  0
 27 29  1  0  0  0  0
 23 24  1  0  0  0  0
 23 25  1  0  0  0  0
 23 26  1  0  0  0  0
 20 21  1  0  0  0  0
 20 22  1  0  0  0  0
 20 23  1  0  0  0  0
 17 18  1  0  0  0  0
 17 19  1  0  0  0  0
 17 20  1  0  0  0  0
 14 15  1  0  0  0  0
 14 16  1  0  0  0  0
 14 17  1  0  0  0  0
 11 12  1  0  0  0  0
 11 13  1  0  0  0  0
 11 14  1  0  0  0  0
  9 10  1  0  0  0  0
  9 11  1  0  0  0  0
  9 27  1  0  0  0  0
  7  8  1  0  0  0  0
  7  9  1  0  0  0  0
 31 32  1  0  0  0  0
 31 33  1  0  0  0  0
 31 34  1  0  0  0  0
 29 30  1  0  0  0  0
 29 31  1  0  0  0  0
M  CHG  1  23   1
M  END
$$$$
default_name
  -OEChem-02102213163D

 34 33  0     1  0  0  0  0  0999 V2000
   -3.8899   -3.6747    1.6490 H   0  0  0  0  0  0  0  0  0  0  0  0
   -3.9109   -2.6717    1.2250 C   0  0  0  0  0  0  0  0  0  0  0  0
   -4.6009   -2.0517    1.7950 H   0  0  0  0  0  0  0  0  0  0  0  0
   -4.2309   -2.7237    0.1860 H   0  0  0  0  0  0  0  0  0  0  0  0
   -2.5229   -2.0787    1.2980 C   0  0  0  0  0  0  0  0  0  0  0  0
   -1.5999   -2.7227    1.7810 O   0  0  0  0  0  0  0  0  0  0  0  0
   -2.3659   -0.8447    0.8120 N   0  0  0  0  0  0  0  0  0  0  0  0
   -3.1749   -0.3807    0.4220 H   0  0  0  0  0  0  0  0  0  0  0  0
   -1.0919   -0.1077    0.8170 C   0  0  1  0  0  0  0  0  0  0  0  0
   -0.3571   -0.6901    0.2581 H   0  0  0  0  0  0  0  0  0  0  0  0
   -1.3037    1.2411    0.1040 C   0  0  0  0  0  0  0  0  0  0  0  0
   -0.8258    2.0248    0.6938 H   0  0  0  0  0  0  0  0  0  0  0  0
   -0.8206    1.2093   -0.8746 H   0  0  0  0  0  0  0  0  0  0  0  0
   -2.7852    1.6067   -0.0747 C   0  0  0  0  0  0  0  0  0  0  0  0
   -3.4113    0.8227    0.3535 H   0  0  0  0  0  0  0  0  0  0  0  0
   -2.9882    2.5469    0.4418 H   0  0  0  0  0  0  0  0  0  0  0  0
   -3.1215    1.7623   -1.5642 C   0  0  0  0  0  0  0  0  0  0  0  0
   -2.4825    2.5377   -1.9935 H   0  0  0  0  0  0  0  0  0  0  0  0
   -2.9256    0.8170   -2.0742 H   0  0  0  0  0  0  0  0  0  0  0  0
   -4.5943    2.1516   -1.7430 C   0  0  0  0  0  0  0  0  0  0  0  0
   -5.2168    1.3672   -1.3003 H   0  0  0  0  0  0  0  0  0  0  0  0
   -4.7786    3.0777   -1.1901 H   0  0  0  0  0  0  0  0  0  0  0  0
   -4.9412    2.3323   -3.1753 N   0  3  0  0  0  0  0  0  0  0  0  0
   -4.7826    1.4753   -3.6903 H   0  0  0  0  0  0  0  0  0  0  0  0
   -5.9153    2.5890   -3.2760 H   0  0  0  0  0  0  0  0  0  0  0  0
   -4.3737    3.0636   -3.5876 H   0  0  0  0  0  0  0  0  0  0  0  0
   -0.5865    0.0771    2.2496 C   0  0  0  0  0  0  0  0  0  0  0  0
    0.5860   -0.1608    2.5143 O   0  0  0  0  0  0  0  0  0  0  0  0
   -1.4786    0.4656    3.1667 N   0  0  0  0  0  0  0  0  0  0  0  0
   -2.4139    0.6698    2.8558 H   0  0  0  0  0  0  0  0  0  0  0  0
   -1.1587    0.6908    4.5775 C   0  0  0  0  0  0  0  0  0  0  0  0
   -0.4270    1.4968    4.6656 H   0  0  0  0  0  0  0  0  0  0  0  0
   -2.0565    0.9649    5.1327 H   0  0  0  0  0  0  0  0  0  0  0  0
   -0.7281   -0.2137    5.0125 H   0  0  0  0  0  0  0  0  0  0  0  0
  5  6  2  0  0  0  0
  5  7  1  0  0  0  0
  2  3  1  0  0  0  0
  2  4  1  0  0  0  0
  2  5  1  0  0  0  0
  1  2  1  0  0  0  0
 27 28  2  0  0  0  0
 27 29  1  0  0  0  0
 23 24  1  0  0  0  0
 23 25  1  0  0  0  0
 23 26  1  0  0  0  0
 20 21  1  0  0  0  0
 20 22  1  0  0  0  0
 20 23  1  0  0  0  0
 17 18  1  0  0  0  0
 17 19  1  0  0  0  0
 17 20  1  0  0  0  0
 14 15  1  0  0  0  0
 14 16  1  0  0  0  0
 14 17  1  0  0  0  0
 11 12  1  0  0  0  0
 11 13  1  0  0  0  0
 11 14  1  0  0  0  0
  9 10  1  0  0  0  0
  9 11  1  0  0  0  0
  9 27  1  0  0  0  0
  7  8  1  0  0  0  0
  7  9  1  0  0  0  0
 31 32  1  0  0  0  0
 31 33  1  0  0  0  0
 31 34  1  0  0  0  0
 29 30  1  0  0  0  0
 29 31  1  0  0  0  0
M  CHG  1  23   1
M  END
$$$$
default_name
  -OEChem-02102213163D

 34 33  0     1  0  0  0  0  0999 V2000
   -3.8899   -3.6747    1.6490 H   0  0  0  0  0  0  0  0  0  0  0  0
   -3.9109   -2.6717    1.2250 C   0  0  0  0  0  0  0  0  0  0  0  0
   -4.6009   -2.0517    1.7950 H   0  0  0  0  0  0  0  0  0  0  0  0
   -4.2309   -2.7237    0.1860 H   0  0  0  0  0  0  0  0  0  0  0  0
   -2.5229   -2.0787    1.2980 C   0  0  0  0  0  0  0  0  0  0  0  0
   -1.5999   -2.7227    1.7810 O   0  0  0  0  0  0  0  0  0  0  0  0
   -2.3659   -0.8447    0.8120 N   0  0  0  0  0  0  0  0  0  0  0  0
   -3.1749   -0.3807    0.4220 H   0  0  0  0  0  0  0  0  0  0  0  0
   -1.0919   -0.1077    0.8170 C   0  0  1  0  0  0  0  0  0  0  0  0
   -0.3571   -0.6901    0.2581 H   0  0  0  0  0  0  0  0  0  0  0  0
   -1.3037    1.2411    0.1040 C   0  0  0  0  0  0  0  0  0  0  0  0
   -0.8258    2.0248    0.6938 H   0  0  0  0  0  0  0  0  0  0  0  0
   -0.8206    1.2093   -0.8746 H   0  0  0  0  0  0  0  0  0  0  0  0
   -2.7852    1.6067   -0.0747 C   0  0  0  0  0  0  0  0  0  0  0  0
   -3.3993    0.9781    0.5716 H   0  0  0  0  0  0  0  0  0  0  0  0
   -2.9330    2.6528    0.2006 H   0  0  0  0  0  0  0  0  0  0  0  0
   -3.2147    1.3997   -1.5337 C   0  0  0  0  0  0  0  0  0  0  0  0
   -2.5880    2.0192   -2.1797 H   0  0  0  0  0  0  0  0  0  0  0  0
   -3.0737    0.3505   -1.8010 H   0  0  0  0  0  0  0  0  0  0  0  0
   -4.6870    1.7879   -1.7189 C   0  0  0  0  0  0  0  0  0  0  0  0
   -5.2965    1.1624   -1.0587 H   0  0  0  0  0  0  0  0  0  0  0  0
   -4.8141    2.8287   -1.4060 H   0  0  0  0  0  0  0  0  0  0  0  0
   -5.1227    1.6198   -3.1283 N   0  3  0  0  0  0  0  0  0  0  0  0
   -5.0173    0.6563   -3.4205 H   0  0  0  0  0  0  0  0  0  0  0  0
   -6.0953    1.8802   -3.2337 H   0  0  0  0  0  0  0  0  0  0  0  0
   -4.5672    2.2036   -3.7427 H   0  0  0  0  0  0  0  0  0  0  0  0
   -0.5865    0.0771    2.2496 C   0  0  0  0  0  0  0  0  0  0  0  0
    0.5860   -0.1608    2.5143 O   0  0  0  0  0  0  0  0  0  0  0  0
   -1.4786    0.4656    3.1667 N   0  0  0  0  0  0  0  0  0  0  0  0
   -2.4139    0.6698    2.8558 H   0  0  0  0  0  0  0  0  0  0  0  0
   -1.1587    0.6908    4.5775 C   0  0  0  0  0  0  0  0  0  0  0  0
   -0.4270    1.4968    4.6656 H   0  0  0  0  0  0  0  0  0  0  0  0
   -2.0565    0.9649    5.1327 H   0  0  0  0  0  0  0  0  0  0  0  0
   -0.7281   -0.2137    5.0125 H   0  0  0  0  0  0  0  0  0  0  0  0
  5  6  2  0  0  0  0
  5  7  1  0  0  0  0
  2  3  1  0  0  0  0
  2  4  1  0  0  0  0
  2  5  1  0  0  0  0
  1  2  1  0  0  0  0
 27 28  2  0  0  0  0
 27 29  1  0  0  0  0
 23 24  1  0  0  0  0
 23 25  1  0  0  0  0
 23 26  1  0  0  0  0
 20 21  1  0  0  0  0
 20 22  1  0  0  0  0
 20 23  1  0  0  0  0
 17 18  1  0  0  0  0
 17 19  1  0  0  0  0
 17 20  1  0  0  0  0
 14 15  1  0  0  0  0
 14 16  1  0  0  0  0
 14 17  1  0  0  0  0
 11 12  1  0  0  0  0
 11 13  1  0  0  0  0
 11 14  1  0  0  0  0
  9 10  1  0  0  0  0
  9 11  1  0  0  0  0
  9 27  1  0  0  0  0
  7  8  1  0  0  0  0
  7  9  1  0  0  0  0
 31 32  1  0  0  0  0
 31 33  1  0  0  0  0
 31 34  1  0  0  0  0
 29 30  1  0  0  0  0
 29 31  1  0  0  0  0
M  CHG  1  23   1
M  END
$$$$
default_name
  -OEChem-02102213163D

 34 33  0     1  0  0  0  0  0999 V2000
   -3.8899   -3.6747    1.6490 H   0  0  0  0  0  0  0  0  0  0  0  0
   -3.9109   -2.6717    1.2250 C   0  0  0  0  0  0  0  0  0  0  0  0
   -4.6009   -2.0517    1.7950 H   0  0  0  0  0  0  0  0  0  0  0  0
   -4.2309   -2.7237    0.1860 H   0  0  0  0  0  0  0  0  0  0  0  0
   -2.5229   -2.0787    1.2980 C   0  0  0  0  0  0  0  0  0  0  0  0
   -1.5999   -2.7227    1.7810 O   0  0  0  0  0  0  0  0  0  0  0  0
   -2.3659   -0.8447    0.8120 N   0  0  0  0  0  0  0  0  0  0  0  0
   -3.1749   -0.3807    0.4220 H   0  0  0  0  0  0  0  0  0  0  0  0
   -1.0919   -0.1077    0.8170 C   0  0  1  0  0  0  0  0  0  0  0  0
   -0.3571   -0.6901    0.2581 H   0  0  0  0  0  0  0  0  0  0  0  0
   -1.3037    1.2411    0.1040 C   0  0  0  0  0  0  0  0  0  0  0  0
   -0.8258    2.0248    0.6938 H   0  0  0  0  0  0  0  0  0  0  0  0
   -0.8206    1.2093   -0.8746 H   0  0  0  0  0  0  0  0  0  0  0  0
   -2.7852    1.6067   -0.0747 C   0  0  0  0  0  0  0  0  0  0  0  0
   -3.3696    1.1823    0.7428 H   0  0  0  0  0  0  0  0  0  0  0  0
   -2.8914    2.6932   -0.0622 H   0  0  0  0  0  0  0  0  0  0  0  0
   -3.3137    1.0599   -1.4080 C   0  0  0  0  0  0  0  0  0  0  0  0
   -2.7169    1.4751   -2.2237 H   0  0  0  0  0  0  0  0  0  0  0  0
   -3.2139   -0.0274   -1.4116 H   0  0  0  0  0  0  0  0  0  0  0  0
   -4.7859    1.4454   -1.5992 C   0  0  0  0  0  0  0  0  0  0  0  0
   -5.3648    1.0272   -0.7692 H   0  0  0  0  0  0  0  0  0  0  0  0
   -4.8691    2.5353   -1.5502 H   0  0  0  0  0  0  0  0  0  0  0  0
   -5.3165    0.9488   -2.8939 N   0  3  0  0  0  0  0  0  0  0  0  0
   -5.2519   -0.0604   -2.9410 H   0  0  0  0  0  0  0  0  0  0  0  0
   -6.2880    1.2115   -3.0048 H   0  0  0  0  0  0  0  0  0  0  0  0
   -4.7896    1.3400   -3.6660 H   0  0  0  0  0  0  0  0  0  0  0  0
   -0.5865    0.0771    2.2496 C   0  0  0  0  0  0  0  0  0  0  0  0
    0.5860   -0.1608    2.5143 O   0  0  0  0  0  0  0  0  0  0  0  0
   -1.4786    0.4656    3.1667 N   0  0  0  0  0  0  0  0  0  0  0  0
   -2.4139    0.6698    2.8558 H   0  0  0  0  0  0  0  0  0  0  0  0
   -1.1587    0.6908    4.5775 C   0  0  0  0  0  0  0  0  0  0  0  0
   -0.4270    1.4968    4.6656 H   0  0  0  0  0  0  0  0  0  0  0  0
   -2.0565    0.9649    5.1327 H   0  0  0  0  0  0  0  0  0  0  0  0
   -0.7281   -0.2137    5.0125 H   0  0  0  0  0  0  0  0  0  0  0  0
  5  6  2  0  0  0  0
  5  7  1  0  0  0  0
  2  3  1  0  0  0  0
  2  4  1  0  0  0  0
  2  5  1  0  0  0  0
  1  2  1  0  0  0  0
 27 28  2  0  0  0  0
 27 29  1  0  0  0  0
 23 24  1  0  0  0  0
 23 25  1  0  0  0  0
 23 26  1  0  0  0  0
 20 21  1  0  0  0  0
 20 22  1  0  0  0  0
 20 23  1  0  0  0  0
 17 18  1  0  0  0  0
 17 19  1  0  0  0  0
 17 20  1  0  0  0  0
 14 15  1  0  0  0  0
 14 16  1  0  0  0  0
 14 17  1  0  0  0  0
 11 12  1  0  0  0  0
 11 13  1  0  0  0  0
 11 14  1  0  0  0  0
  9 10  1  0  0  0  0
  9 11  1  0  0  0  0
  9 27  1  0  0  0  0
  7  8  1  0  0  0  0
  7  9  1  0  0  0  0
 31 32  1  0  0  0  0
 31 33  1  0  0  0  0
 31 34  1  0  0  0  0
 29 30  1  0  0  0  0
 29 31  1  0  0  0  0
M  CHG  1  23   1
M  END
$$$$
default_name
  -OEChem-02102213163D

 34 33  0     1  0  0  0  0  0999 V2000
   -3.8899   -3.6747    1.6490 H   0  0  0  0  0  0  0  0  0  0  0  0
   -3.9109   -2.6717    1.2250 C   0  0  0  0  0  0  0  0  0  0  0  0
   -4.6009   -2.0517    1.7950 H   0  0  0  0  0  0  0  0  0  0  0  0
   -4.2309   -2.7237    0.1860 H   0  0  0  0  0  0  0  0  0  0  0  0
   -2.5229   -2.0787    1.2980 C   0  0  0  0  0  0  0  0  0  0  0  0
   -1.5999   -2.7227    1.7810 O   0  0  0  0  0  0  0  0  0  0  0  0
   -2.3659   -0.8447    0.8120 N   0  0  0  0  0  0  0  0  0  0  0  0
   -3.1749   -0.3807    0.4220 H   0  0  0  0  0  0  0  0  0  0  0  0
   -1.0919   -0.1077    0.8170 C   0  0  1  0  0  0  0  0  0  0  0  0
   -0.3571   -0.6901    0.2581 H   0  0  0  0  0  0  0  0  0  0  0  0
   -1.3037    1.2411    0.1040 C   0  0  0  0  0  0  0  0  0  0  0  0
   -0.8258    2.0248    0.6938 H   0  0  0  0  0  0  0  0  0  0  0  0
   -0.8206    1.2093   -0.8746 H   0  0  0  0  0  0  0  0  0  0  0  0
   -2.7852    1.6067   -0.0747 C   0  0  0  0  0  0  0  0  0  0  0  0
   -3.3241    1.4214    0.8554 H   0  0  0  0  0  0  0  0  0  0  0  0
   -2.8661    2.6654   -0.3287 H   0  0  0  0  0  0  0  0  0  0  0  0
   -3.4119    0.7660   -1.1957 C   0  0  0  0  0  0  0  0  0  0  0  0
   -2.8606    0.9424   -2.1224 H   0  0  0  0  0  0  0  0  0  0  0  0
   -3.3367   -0.2910   -0.9326 H   0  0  0  0  0  0  0  0  0  0  0  0
   -4.8845    1.1474   -1.3920 C   0  0  0  0  0  0  0  0  0  0  0  0
   -5.4169    0.9710   -0.4517 H   0  0  0  0  0  0  0  0  0  0  0  0
   -4.9399    2.2176   -1.6128 H   0  0  0  0  0  0  0  0  0  0  0  0
   -5.5096    0.3650   -2.4881 N   0  3  0  0  0  0  0  0  0  0  0  0
   -5.4707   -0.6259   -2.2845 H   0  0  0  0  0  0  0  0  0  0  0  0
   -6.4801    0.6285   -2.6050 H   0  0  0  0  0  0  0  0  0  0  0  0
   -5.0256    0.5316   -3.3627 H   0  0  0  0  0  0  0  0  0  0  0  0
   -0.5865    0.0771    2.2496 C   0  0  0  0  0  0  0  0  0  0  0  0
    0.5860   -0.1608    2.5143 O   0  0  0  0  0  0  0  0  0  0  0  0
   -1.4786    0.4656    3.1667 N   0  0  0  0  0  0  0  0  0  0  0  0
   -2.4139    0.6698    2.8558 H   0  0  0  0  0  0  0  0  0  0  0  0
   -1.1587    0.6908    4.5775 C   0  0  0  0  0  0  0  0  0  0  0  0
   -0.4270    1.4968    4.6656 H   0  0  0  0  0  0  0  0  0  0  0  0
   -2.0565    0.9649    5.1327 H   0  0  0  0  0  0  0  0  0  0  0  0
   -0.7281   -0.2137    5.0125 H   0  0  0  0  0  0  0  0  0  0  0  0
  5  6  2  0  0  0  0
  5  7  1  0  0  0  0
  2  3  1  0  0  0  0
  2  4  1  0  0  0  0
  2  5  1  0  0  0  0
  1  2  1  0  0  0  0
 27 28  2  0  0  0  0
 27 29  1  0  0  0  0
 23 24  1  0  0  0  0
 23 25  1  0  0  0  0
 23 26  1  0  0  0  0
 20 21  1  0  0  0  0
 20 22  1  0  0  0  0
 20 23  1  0  0  0  0
 17 18  1  0  0  0  0
 17 19  1  0  0  0  0
 17 20  1  0  0  0  0
 14 15  1  0  0  0  0
 14 16  1  0  0  0  0
 14 17  1  0  0  0  0
 11 12  1  0  0  0  0
 11 13  1  0  0  0  0
 11 14  1  0  0  0  0
  9 10  1  0  0  0  0
  9 11  1  0  0  0  0
  9 27  1  0  0  0  0
  7  8  1  0  0  0  0
  7  9  1  0  0  0  0
 31 32  1  0  0  0  0
 31 33  1  0  0  0  0
 31 34  1  0  0  0  0
 29 30  1  0  0  0  0
 29 31  1  0  0  0  0
M  CHG  1  23   1
M  END
$$$$
default_name
  -OEChem-02102213163D

 34 33  0     1  0  0  0  0  0999 V2000
   -3.8899   -3.6747    1.6490 H   0  0  0  0  0  0  0  0  0  0  0  0
   -3.9109   -2.6717    1.2250 C   0  0  0  0  0  0  0  0  0  0  0  0
   -4.6009   -2.0517    1.7950 H   0  0  0  0  0  0  0  0  0  0  0  0
   -4.2309   -2.7237    0.1860 H   0  0  0  0  0  0  0  0  0  0  0  0
   -2.5229   -2.0787    1.2980 C   0  0  0  0  0  0  0  0  0  0  0  0
   -1.5999   -2.7227    1.7810 O   0  0  0  0  0  0  0  0  0  0  0  0
   -2.3659   -0.8447    0.8120 N   0  0  0  0  0  0  0  0  0  0  0  0
   -3.1749   -0.3807    0.4220 H   0  0  0  0  0  0  0  0  0  0  0  0
   -1.0919   -0.1077    0.8170 C   0  0  1  0  0  0  0  0  0  0  0  0
   -0.3571   -0.6901    0.2581 H   0  0  0  0  0  0  0  0  0  0  0  0
   -1.3037    1.2411    0.1040 C   0  0  0  0  0  0  0  0  0  0  0  0
   -0.8258    2.0248    0.6938 H   0  0  0  0  0  0  0  0  0  0  0  0
   -0.8206    1.2093   -0.8746 H   0  0  0  0  0  0  0  0  0  0  0  0
   -2.7852    1.6067   -0.0747 C   0  0  0  0  0  0  0  0  0  0  0  0
   -3.2661    1.6790    0.9017 H   0  0  0  0  0  0  0  0  0  0  0  0
   -2.8589    2.5713   -0.5807 H   0  0  0  0  0  0  0  0  0  0  0  0
   -3.5024    0.5381   -0.9112 C   0  0  0  0  0  0  0  0  0  0  0  0
   -3.0092    0.4575   -1.8828 H   0  0  0  0  0  0  0  0  0  0  0  0
   -3.4338   -0.4224   -0.3965 H   0  0  0  0  0  0  0  0  0  0  0  0
   -4.9758    0.9142   -1.1114 C   0  0  0  0  0  0  0  0  0  0  0  0
   -5.4495    0.9975   -0.1278 H   0  0  0  0  0  0  0  0  0  0  0  0
   -5.0218    1.8973   -1.5897 H   0  0  0  0  0  0  0  0  0  0  0  0
   -5.6886   -0.0919   -1.9386 N   0  3  0  0  0  0  0  0  0  0  0  0
   -5.6586   -1.0018   -1.4958 H   0  0  0  0  0  0  0  0  0  0  0  0
   -6.6585    0.1709   -2.0614 H   0  0  0  0  0  0  0  0  0  0  0  0
   -5.2593   -0.1664   -2.8534 H   0  0  0  0  0  0  0  0  0  0  0  0
   -0.5865    0.0771    2.2496 C   0  0  0  0  0  0  0  0  0  0  0  0
    0.5860   -0.1608    2.5143 O   0  0  0  0  0  0  0  0  0  0  0  0
   -1.4786    0.4656    3.1667 N   0  0  0  0  0  0  0  0  0  0  0  0
   -2.4139    0.6698    2.8558 H   0  0  0  0  0  0  0  0  0  0  0  0
   -1.1587    0.6908    4.5775 C   0  0  0  0  0  0  0  0  0  0  0  0
   -0.4270    1.4968    4.6656 H   0  0  0  0  0  0  0  0  0  0  0  0
   -2.0565    0.9649    5.1327 H   0  0  0  0  0  0  0  0  0  0  0  0
   -0.7281   -0.2137    5.0125 H   0  0  0  0  0  0  0  0  0  0  0  0
  5  6  2  0  0  0  0
  5  7  1  0  0  0  0
  2  3  1  0  0  0  0
  2  4  1  0  0  0  0
  2  5  1  0  0  0  0
  1  2  1  0  0  0  0
 27 28  2  0  0  0  0
 27 29  1  0  0  0  0
 23 24  1  0  0  0  0
 23 25  1  0  0  0  0
 23 26  1  0  0  0  0
 20 21  1  0  0  0  0
 20 22  1  0  0  0  0
 20 23  1  0  0  0  0
 17 18  1  0  0  0  0
 17 19  1  0  0  0  0
 17 20  1  0  0  0  0
 14 15  1  0  0  0  0
 14 16  1  0  0  0  0
 14 17  1  0  0  0  0
 11 12  1  0  0  0  0
 11 13  1  0  0  0  0
 11 14  1  0  0  0  0
  9 10  1  0  0  0  0
  9 11  1  0  0  0  0
  9 27  1  0  0  0  0
  7  8  1  0  0  0  0
  7  9  1  0  0  0  0
 31 32  1  0  0  0  0
 31 33  1  0  0  0  0
 31 34  1  0  0  0  0
 29 30  1  0  0  0  0
 29 31  1  0  0  0  0
M  CHG  1  23   1
M  END
$$$$
default_name
  -OEChem-02102213163D

 34 33  0     1  0  0  0  0  0999 V2000
   -3.8899   -3.6747    1.6490 H   0  0  0  0  0  0  0  0  0  0  0  0
   -3.9109   -2.6717    1.2250 C   0  0  0  0  0  0  0  0  0  0  0  0
   -4.6009   -2.0517    1.7950 H   0  0  0  0  0  0  0  0  0  0  0  0
   -4.2309   -2.7237    0.1860 H   0  0  0  0  0  0  0  0  0  0  0  0
   -2.5229   -2.0787    1.2980 C   0  0  0  0  0  0  0  0  0  0  0  0
   -1.5999   -2.7227    1.7810 O   0  0  0  0  0  0  0  0  0  0  0  0
   -2.3659   -0.8447    0.8120 N   0  0  0  0  0  0  0  0  0  0  0  0
   -3.1749   -0.3807    0.4220 H   0  0  0  0  0  0  0  0  0  0  0  0
   -1.0919   -0.1077    0.8170 C   0  0  1  0  0  0  0  0  0  0  0  0
   -0.3571   -0.6901    0.2581 H   0  0  0  0  0  0  0  0  0  0  0  0
   -1.3037    1.2411    0.1040 C   0  0  0  0  0  0  0  0  0  0  0  0
   -0.8258    2.0248    0.6938 H   0  0  0  0  0  0  0  0  0  0  0  0
   -0.8206    1.2093   -0.8746 H   0  0  0  0  0  0  0  0  0  0  0  0
   -2.7852    1.6067   -0.0747 C   0  0  0  0  0  0  0  0  0  0  0  0
   -3.1995    1.9377    0.8786 H   0  0  0  0  0  0  0  0  0  0  0  0
   -2.8703    2.4172   -0.8011 H   0  0  0  0  0  0  0  0  0  0  0  0
   -3.5792    0.3916   -0.5739 C   0  0  0  0  0  0  0  0  0  0  0  0
   -3.1525    0.0533   -1.5212 H   0  0  0  0  0  0  0  0  0  0  0  0
   -3.4985   -0.4126    0.1601 H   0  0  0  0  0  0  0  0  0  0  0  0
   -5.0538    0.7618   -0.7765 C   0  0  0  0  0  0  0  0  0  0  0  0
   -5.4601    1.1049    0.1805 H   0  0  0  0  0  0  0  0  0  0  0  0
   -5.1090    1.5960   -1.4824 H   0  0  0  0  0  0  0  0  0  0  0  0
   -5.8414   -0.3906   -1.2827 N   0  3  0  0  0  0  0  0  0  0  0  0
   -5.8028   -1.1623   -0.6286 H   0  0  0  0  0  0  0  0  0  0  0  0
   -6.8112   -0.1300   -1.4112 H   0  0  0  0  0  0  0  0  0  0  0  0
   -5.4747   -0.7065   -2.1729 H   0  0  0  0  0  0  0  0  0  0  0  0
   -0.5865    0.0771    2.2496 C   0  0  0  0  0  0  0  0  0  0  0  0
    0.5860   -0.1608    2.5143 O   0  0  0  0  0  0  0  0  0  0  0  0
   -1.4786    0.4656    3.1667 N   0  0  0  0  0  0  0  0  0  0  0  0
   -2.4139    0.6698    2.8558 H   0  0  0  0  0  0  0  0  0  0  0  0
   -1.1587    0.6908    4.5775 C   0  0  0  0  0  0  0  0  0  0  0  0
   -0.4270    1.4968    4.6656 H   0  0  0  0  0  0  0  0  0  0  0  0
   -2.0565    0.9649    5.1327 H   0  0  0  0  0  0  0  0  0  0  0  0
   -0.7281   -0.2137    5.0125 H   0  0  0  0  0  0  0  0  0  0  0  0
  5  6  2  0  0  0  0
  5  7  1  0  0  0  0
  2  3  1  0  0  0  0
  2  4  1  0  0  0  0
  2  5  1  0  0  0  0
  1  2  1  0  0  0  0
 27 28  2  0  0  0  0
 27 29  1  0  0  0  0
 23 24  1  0  0  0  0
 23 25  1  0  0  0  0
 23 26  1  0  0  0  0
 20 21  1  0  0  0  0
 20 22  1  0  0  0  0
 20 23  1  0  0  0  0
 17 18  1  0  0  0  0
 17 19  1  0  0  0  0
 17 20  1  0  0  0  0
 14 15  1  0  0  0  0
 14 16  1  0  0  0  0
 14 17  1  0  0  0  0
 11 12  1  0  0  0  0
 11 13  1  0  0  0  0
 11 14  1  0  0  0  0
  9 10  1  0  0  0  0
  9 11  1  0  0  0  0
  9 27  1  0  0  0  0
  7  8  1  0  0  0  0
  7  9  1  0  0  0  0
 31 32  1  0  0  0  0
 31 33  1  0  0  0  0
 31 34  1  0  0  0  0
 29 30  1  0  0  0  0
 29 31  1  0  0  0  0
M  CHG  1  23   1
M  END
$$$$
default_name
  -OEChem-02102213163D

 34 33  0     1  0  0  0  0  0999 V2000
   -3.8899   -3.6747    1.6490 H   0  0  0  0  0  0  0  0  0  0  0  0
   -3.9109   -2.6717    1.2250 C   0  0  0  0  0  0  0  0  0  0  0  0
   -4.6009   -2.0517    1.7950 H   0  0  0  0  0  0  0  0  0  0  0  0
   -4.2309   -2.7237    0.1860 H   0  0  0  0  0  0  0  0  0  0  0  0
   -2.5229   -2.0787    1.2980 C   0  0  0  0  0  0  0  0  0  0  0  0
   -1.5999   -2.7227    1.7810 O   0  0  0  0  0  0  0  0  0  0  0  0
   -2.3659   -0.8447    0.8120 N   0  0  0  0  0  0  0  0  0  0  0  0
   -3.1749   -0.3807    0.4220 H   0  0  0  0  0  0  0  0  0  0  0  0
   -1.0919   -0.1077    0.8170 C   0  0  1  0  0  0  0  0  0  0  0  0
   -0.3571   -0.6901    0.2581 H   0  0  0  0  0  0  0  0  0  0  0  0
   -1.3037    1.2411    0.1040 C   0  0  0  0  0  0  0  0  0  0  0  0
   -0.8258    2.0248    0.6938 H   0  0  0  0  0  0  0  0  0  0  0  0
   -0.8206    1.2093   -0.8746 H   0  0  0  0  0  0  0  0  0  0  0  0
   -2.7852    1.6067   -0.0747 C   0  0  0  0  0  0  0  0  0  0  0  0
   -3.1288    2.1798    0.7875 H   0  0  0  0  0  0  0  0  0  0  0  0
   -2.8996    2.2138   -0.9748 H   0  0  0  0  0  0  0  0  0  0  0  0
   -3.6371    0.3366   -0.2069 C   0  0  0  0  0  0  0  0  0  0  0  0
   -3.2808   -0.2425   -1.0622 H   0  0  0  0  0  0  0  0  0  0  0  0
   -3.5264   -0.2622    0.6993 H   0  0  0  0  0  0  0  0  0  0  0  0
   -5.1131    0.7005   -0.4102 C   0  0  0  0  0  0  0  0  0  0  0  0
   -5.4482    1.2859    0.4522 H   0  0  0  0  0  0  0  0  0  0  0  0
   -5.1958    1.3345   -1.2982 H   0  0  0  0  0  0  0  0  0  0  0  0
   -5.9576   -0.5109   -0.5651 N   0  3  0  0  0  0  0  0  0  0  0  0
   -5.8935   -1.0966    0.2580 H   0  0  0  0  0  0  0  0  0  0  0  0
   -6.9277   -0.2538   -0.6986 H   0  0  0  0  0  0  0  0  0  0  0  0
   -5.6570   -1.0518   -1.3676 H   0  0  0  0  0  0  0  0  0  0  0  0
   -0.5865    0.0771    2.2496 C   0  0  0  0  0  0  0  0  0  0  0  0
    0.5860   -0.1608    2.5143 O   0  0  0  0  0  0  0  0  0  0  0  0
   -1.4786    0.4656    3.1667 N   0  0  0  0  0  0  0  0  0  0  0  0
   -2.4139    0.6698    2.8558 H   0  0  0  0  0  0  0  0  0  0  0  0
   -1.1587    0.6908    4.5775 C   0  0  0  0  0  0  0  0  0  0  0  0
   -0.4270    1.4968    4.6656 H   0  0  0  0  0  0  0  0  0  0  0  0
   -2.0565    0.9649    5.1327 H   0  0  0  0  0  0  0  0  0  0  0  0
   -0.7281   -0.2137    5.0125 H   0  0  0  0  0  0  0  0  0  0  0  0
  5  6  2  0  0  0  0
  5  7  1  0  0  0  0
  2  3  1  0  0  0  0
  2  4  1  0  0  0  0
  2  5  1  0  0  0  0
  1  2  1  0  0  0  0
 27 28  2  0  0  0  0
 27 29  1  0  0  0  0
 23 24  1  0  0  0  0
 23 25  1  0  0  0  0
 23 26  1  0  0  0  0
 20 21  1  0  0  0  0
 20 22  1  0  0  0  0
 20 23  1  0  0  0  0
 17 18  1  0  0  0  0
 17 19  1  0  0  0  0
 17 20  1  0  0  0  0
 14 15  1  0  0  0  0
 14 16  1  0  0  0  0
 14 17  1  0  0  0  0
 11 12  1  0  0  0  0
 11 13  1  0  0  0  0
 11 14  1  0  0  0  0
  9 10  1  0  0  0  0
  9 11  1  0  0  0  0
  9 27  1  0  0  0  0
  7  8  1  0  0  0  0
  7  9  1  0  0  0  0
 31 32  1  0  0  0  0
 31 33  1  0  0  0  0
 31 34  1  0  0  0  0
 29 30  1  0  0  0  0
 29 31  1  0  0  0  0
M  CHG  1  23   1
M  END
$$$$
default_name
  -OEChem-02102213163D

 34 33  0     1  0  0  0  0  0999 V2000
   -3.8899   -3.6747    1.6490 H   0  0  0  0  0  0  0  0  0  0  0  0
   -3.9109   -2.6717    1.2250 C   0  0  0  0  0  0  0  0  0  0  0  0
   -4.6009   -2.0517    1.7950 H   0  0  0  0  0  0  0  0  0  0  0  0
   -4.2309   -2.7237    0.1860 H   0  0  0  0  0  0  0  0  0  0  0  0
   -2.5229   -2.0787    1.2980 C   0  0  0  0  0  0  0  0  0  0  0  0
   -1.5999   -2.7227    1.7810 O   0  0  0  0  0  0  0  0  0  0  0  0
   -2.3659   -0.8447    0.8120 N   0  0  0  0  0  0  0  0  0  0  0  0
   -3.1749   -0.3807    0.4220 H   0  0  0  0  0  0  0  0  0  0  0  0
   -1.0919   -0.1077    0.8170 C   0  0  1  0  0  0  0  0  0  0  0  0
   -0.3571   -0.6901    0.2581 H   0  0  0  0  0  0  0  0  0  0  0  0
   -1.3037    1.2411    0.1040 C   0  0  0  0  0  0  0  0  0  0  0  0
   -0.8258    2.0248    0.6938 H   0  0  0  0  0  0  0  0  0  0  0  0
   -0.8206    1.2093   -0.8746 H   0  0  0  0  0  0  0  0  0  0  0  0
   -2.7852    1.6067   -0.0747 C   0  0  0  0  0  0  0  0  0  0  0  0
   -3.0588    2.3887    0.6348 H   0  0  0  0  0  0  0  0  0  0  0  0
   -2.9447    1.9748   -1.0900 H   0  0  0  0  0  0  0  0  0  0  0  0
   -3.6720    0.3769    0.1649 C   0  0  0  0  0  0  0  0  0  0  0  0
   -3.3855   -0.4098   -0.5372 H   0  0  0  0  0  0  0  0  0  0  0  0
   -3.5157    0.0184    1.1843 H   0  0  0  0  0  0  0  0  0  0  0  0
   -5.1497    0.7345   -0.0374 C   0  0  0  0  0  0  0  0  0  0  0  0
   -5.4146    1.5282    0.6687 H   0  0  0  0  0  0  0  0  0  0  0  0
   -5.2761    1.1305   -1.0496 H   0  0  0  0  0  0  0  0  0  0  0  0
   -6.0293   -0.4444    0.1651 N   0  3  0  0  0  0  0  0  0  0  0  0
   -5.9245   -0.8091    1.1036 H   0  0  0  0  0  0  0  0  0  0  0  0
   -7.0001   -0.1921    0.0277 H   0  0  0  0  0  0  0  0  0  0  0  0
   -5.7940   -1.1789   -0.4922 H   0  0  0  0  0  0  0  0  0  0  0  0
   -0.5865    0.0771    2.2496 C   0  0  0  0  0  0  0  0  0  0  0  0
    0.5860   -0.1608    2.5143 O   0  0  0  0  0  0  0  0  0  0  0  0
   -1.4786    0.4656    3.1667 N   0  0  0  0  0  0  0  0  0  0  0  0
   -2.4139    0.6698    2.8558 H   0  0  0  0  0  0  0  0  0  0  0  0
   -1.1587    0.6908    4.5775 C   0  0  0  0  0  0  0  0  0  0  0  0
   -0.4270    1.4968    4.6656 H   0  0  0  0  0  0  0  0  0  0  0  0
   -2.0565    0.9649    5.1327 H   0  0  0  0  0  0  0  0  0  0  0  0
   -0.7281   -0.2137    5.0125 H   0  0  0  0  0  0  0  0  0  0  0  0
  5  6  2  0  0  0  0
  5  7  1  0  0  0  0
  2  3  1  0  0  0  0
  2  4  1  0  0  0  0
  2  5  1  0  0  0  0
  1  2  1  0  0  0  0
 27 28  2  0  0  0  0
 27 29  1  0  0  0  0
 23 24  1  0  0  0  0
 23 25  1  0  0  0  0
 23 26  1  0  0  0  0
 20 21  1  0  0  0  0
 20 22  1  0  0  0  0
 20 23  1  0  0  0  0
 17 18  1  0  0  0  0
 17 19  1  0  0  0  0
 17 20  1  0  0  0  0
 14 15  1  0  0  0  0
 14 16  1  0  0  0  0
 14 17  1  0  0  0  0
 11 12  1  0  0  0  0
 11 13  1  0  0  0  0
 11 14  1  0  0  0  0
  9 10  1  0  0  0  0
  9 11  1  0  0  0  0
  9 27  1  0  0  0  0
  7  8  1  0  0  0  0
  7  9  1  0  0  0  0
 31 32  1  0  0  0  0
 31 33  1  0  0  0  0
 31 34  1  0  0  0  0
 29 30  1  0  0  0  0
 29 31  1  0  0  0  0
M  CHG  1  23   1
M  END
$$$$
default_name
  -OEChem-02102213163D

 34 33  0     1  0  0  0  0  0999 V2000
   -3.8899   -3.6747    1.6490 H   0  0  0  0  0  0  0  0  0  0  0  0
   -3.9109   -2.6717    1.2250 C   0  0  0  0  0  0  0  0  0  0  0  0
   -4.6009   -2.0517    1.7950 H   0  0  0  0  0  0  0  0  0  0  0  0
   -4.2309   -2.7237    0.1860 H   0  0  0  0  0  0  0  0  0  0  0  0
   -2.5229   -2.0787    1.2980 C   0  0  0  0  0  0  0  0  0  0  0  0
   -1.5999   -2.7227    1.7810 O   0  0  0  0  0  0  0  0  0  0  0  0
   -2.3659   -0.8447    0.8120 N   0  0  0  0  0  0  0  0  0  0  0  0
   -3.1749   -0.3807    0.4220 H   0  0  0  0  0  0  0  0  0  0  0  0
   -1.0919   -0.1077    0.8170 C   0  0  1  0  0  0  0  0  0  0  0  0
   -0.3571   -0.6901    0.2581 H   0  0  0  0  0  0  0  0  0  0  0  0
   -1.3037    1.2411    0.1040 C   0  0  0  0  0  0  0  0  0  0  0  0
   -0.8258    2.0248    0.6938 H   0  0  0  0  0  0  0  0  0  0  0  0
   -0.8206    1.2093   -0.8746 H   0  0  0  0  0  0  0  0  0  0  0  0
   -2.7852    1.6067   -0.0747 C   0  0  0  0  0  0  0  0  0  0  0  0
   -2.9943    2.5504    0.4309 H   0  0  0  0  0  0  0  0  0  0  0  0
   -3.0025    1.7166   -1.1389 H   0  0  0  0  0  0  0  0  0  0  0  0
   -3.6816    0.5096    0.5162 C   0  0  0  0  0  0  0  0  0  0  0  0
   -3.4592   -0.4372    0.0182 H   0  0  0  0  0  0  0  0  0  0  0  0
   -3.4670    0.4101    1.5821 H   0  0  0  0  0  0  0  0  0  0  0  0
   -5.1611    0.8614    0.3164 C   0  0  0  0  0  0  0  0  0  0  0  0
   -5.3614    1.8152    0.8152 H   0  0  0  0  0  0  0  0  0  0  0  0
   -5.3446    0.9978   -0.7536 H   0  0  0  0  0  0  0  0  0  0  0  0
   -6.0516   -0.1959    0.8583 N   0  3  0  0  0  0  0  0  0  0  0  0
   -5.8938   -0.3194    1.8506 H   0  0  0  0  0  0  0  0  0  0  0  0
   -7.0234    0.0510    0.7184 H   0  0  0  0  0  0  0  0  0  0  0  0
   -5.8761   -1.0791    0.3935 H   0  0  0  0  0  0  0  0  0  0  0  0
   -0.5865    0.0771    2.2496 C   0  0  0  0  0  0  0  0  0  0  0  0
    0.5860   -0.1608    2.5143 O   0  0  0  0  0  0  0  0  0  0  0  0
   -1.4786    0.4656    3.1667 N   0  0  0  0  0  0  0  0  0  0  0  0
   -2.4139    0.6698    2.8558 H   0  0  0  0  0  0  0  0  0  0  0  0
   -1.1587    0.6908    4.5775 C   0  0  0  0  0  0  0  0  0  0  0  0
   -0.4270    1.4968    4.6656 H   0  0  0  0  0  0  0  0  0  0  0  0
   -2.0565    0.9649    5.1327 H   0  0  0  0  0  0  0  0  0  0  0  0
   -0.7281   -0.2137    5.0125 H   0  0  0  0  0  0  0  0  0  0  0  0
  5  6  2  0  0  0  0
  5  7  1  0  0  0  0
  2  3  1  0  0  0  0
  2  4  1  0  0  0  0
  2  5  1  0  0  0  0
  1  2  1  0  0  0  0
 27 28  2  0  0  0  0
 27 29  1  0  0  0  0
 23 24  1  0  0  0  0
 23 25  1  0  0  0  0
 23 26  1  0  0  0  0
 20 21  1  0  0  0  0
 20 22  1  0  0  0  0
 20 23  1  0  0  0  0
 17 18  1  0  0  0  0
 17 19  1  0  0  0  0
 17 20  1  0  0  0  0
 14 15  1  0  0  0  0
 14 16  1  0  0  0  0
 14 17  1  0  0  0  0
 11 12  1  0  0  0  0
 11 13  1  0  0  0  0
 11 14  1  0  0  0  0
  9 10  1  0  0  0  0
  9 11  1  0  0  0  0
  9 27  1  0  0  0  0
  7  8  1  0  0  0  0
  7  9  1  0  0  0  0
 31 32  1  0  0  0  0
 31 33  1  0  0  0  0
 31 34  1  0  0  0  0
 29 30  1  0  0  0  0
 29 31  1  0  0  0  0
M  CHG  1  23   1
M  END
$$$$
default_name
  -OEChem-02102213163D

 34 33  0     1  0  0  0  0  0999 V2000
   -3.8899   -3.6747    1.6490 H   0  0  0  0  0  0  0  0  0  0  0  0
   -3.9109   -2.6717    1.2250 C   0  0  0  0  0  0  0  0  0  0  0  0
   -4.6009   -2.0517    1.7950 H   0  0  0  0  0  0  0  0  0  0  0  0
   -4.2309   -2.7237    0.1860 H   0  0  0  0  0  0  0  0  0  0  0  0
   -2.5229   -2.0787    1.2980 C   0  0  0  0  0  0  0  0  0  0  0  0
   -1.5999   -2.7227    1.7810 O   0  0  0  0  0  0  0  0  0  0  0  0
   -2.3659   -0.8447    0.8120 N   0  0  0  0  0  0  0  0  0  0  0  0
   -3.1749   -0.3807    0.4220 H   0  0  0  0  0  0  0  0  0  0  0  0
   -1.0919   -0.1077    0.8170 C   0  0  1  0  0  0  0  0  0  0  0  0
   -0.3571   -0.6901    0.2581 H   0  0  0  0  0  0  0  0  0  0  0  0
   -1.3037    1.2411    0.1040 C   0  0  0  0  0  0  0  0  0  0  0  0
   -0.8258    2.0248    0.6938 H   0  0  0  0  0  0  0  0  0  0  0  0
   -0.8206    1.2093   -0.8746 H   0  0  0  0  0  0  0  0  0  0  0  0
   -2.7852    1.6067   -0.0747 C   0  0  0  0  0  0  0  0  0  0  0  0
   -2.9397    2.6537    0.1895 H   0  0  0  0  0  0  0  0  0  0  0  0
   -3.0691    1.4567   -1.1181 H   0  0  0  0  0  0  0  0  0  0  0  0
   -3.6652    0.7258    0.8229 C   0  0  0  0  0  0  0  0  0  0  0  0
   -3.4971   -0.3228    0.5660 H   0  0  0  0  0  0  0  0  0  0  0  0
   -3.3836    0.8864    1.8655 H   0  0  0  0  0  0  0  0  0  0  0  0
   -5.1464    1.0727    0.6272 C   0  0  0  0  0  0  0  0  0  0  0  0
   -5.2924    2.1275    0.8819 H   0  0  0  0  0  0  0  0  0  0  0  0
   -5.3964    0.9456   -0.4304 H   0  0  0  0  0  0  0  0  0  0  0  0
   -6.0229    0.2179    1.4672 N   0  3  0  0  0  0  0  0  0  0  0  0
   -5.8033    0.3390    2.4480 H   0  0  0  0  0  0  0  0  0  0  0  0
   -6.9960    0.4589    1.3263 H   0  0  0  0  0  0  0  0  0  0  0  0
   -5.8980   -0.7592    1.2291 H   0  0  0  0  0  0  0  0  0  0  0  0
   -0.5865    0.0771    2.2496 C   0  0  0  0  0  0  0  0  0  0  0  0
    0.5860   -0.1608    2.5143 O   0  0  0  0  0  0  0  0  0  0  0  0
   -1.4786    0.4656    3.1667 N   0  0  0  0  0  0  0  0  0  0  0  0
   -2.4139    0.6698    2.8558 H   0  0  0  0  0  0  0  0  0  0  0  0
   -1.1587    0.6908    4.5775 C   0  0  0  0  0  0  0  0  0  0  0  0
   -0.4270    1.4968    4.6656 H   0  0  0  0  0  0  0  0  0  0  0  0
   -2.0565    0.9649    5.1327 H   0  0  0  0  0  0  0  0  0  0  0  0
   -0.7281   -0.2137    5.0125 H   0  0  0  0  0  0  0  0  0  0  0  0
  5  6  2  0  0  0  0
  5  7  1  0  0  0  0
  2  3  1  0  0  0  0
  2  4  1  0  0  0  0
  2  5  1  0  0  0  0
  1  2  1  0  0  0  0
 27 28  2  0  0  0  0
 27 29  1  0  0  0  0
 23 24  1  0  0  0  0
 23 25  1  0  0  0  0
 23 26  1  0  0  0  0
 20 21  1  0  0  0  0
 20 22  1  0  0  0  0
 20 23  1  0  0  0  0
 17 18  1  0  0  0  0
 17 19  1  0  0  0  0
 17 20  1  0  0  0  0
 14 15  1  0  0  0  0
 14 16  1  0  0  0  0
 14 17  1  0  0  0  0
 11 12  1  0  0  0  0
 11 13  1  0  0  0  0
 11 14  1  0  0  0  0
  9 10  1  0  0  0  0
  9 11  1  0  0  0  0
  9 27  1  0  0  0  0
  7  8  1  0  0  0  0
  7  9  1  0  0  0  0
 31 32  1  0  0  0  0
 31 33  1  0  0  0  0
 31 34  1  0  0  0  0
 29 30  1  0  0  0  0
 29 31  1  0  0  0  0
M  CHG  1  23   1
M  END
$$$$
default_name
  -OEChem-02102213163D

 34 33  0     1  0  0  0  0  0999 V2000
   -3.8899   -3.6747    1.6490 H   0  0  0  0  0  0  0  0  0  0  0  0
   -3.9109   -2.6717    1.2250 C   0  0  0  0  0  0  0  0  0  0  0  0
   -4.6009   -2.0517    1.7950 H   0  0  0  0  0  0  0  0  0  0  0  0
   -4.2309   -2.7237    0.1860 H   0  0  0  0  0  0  0  0  0  0  0  0
   -2.5229   -2.0787    1.2980 C   0  0  0  0  0  0  0  0  0  0  0  0
   -1.5999   -2.7227    1.7810 O   0  0  0  0  0  0  0  0  0  0  0  0
   -2.3659   -0.8447    0.8120 N   0  0  0  0  0  0  0  0  0  0  0  0
   -3.1749   -0.3807    0.4220 H   0  0  0  0  0  0  0  0  0  0  0  0
   -1.0919   -0.1077    0.8170 C   0  0  1  0  0  0  0  0  0  0  0  0
   -0.3571   -0.6901    0.2581 H   0  0  0  0  0  0  0  0  0  0  0  0
   -1.3037    1.2411    0.1040 C   0  0  0  0  0  0  0  0  0  0  0  0
   -0.8258    2.0248    0.6938 H   0  0  0  0  0  0  0  0  0  0  0  0
   -0.8206    1.2093   -0.8746 H   0  0  0  0  0  0  0  0  0  0  0  0
   -2.7852    1.6067   -0.0747 C   0  0  0  0  0  0  0  0  0  0  0  0
   -2.8987    2.6916   -0.0727 H   0  0  0  0  0  0  0  0  0  0  0  0
   -3.1401    1.2128   -1.0291 H   0  0  0  0  0  0  0  0  0  0  0  0
   -3.6240    1.0106    1.0643 C   0  0  0  0  0  0  0  0  0  0  0  0
   -3.4964   -0.0745    1.0690 H   0  0  0  0  0  0  0  0  0  0  0  0
   -3.2714    1.4146    2.0153 H   0  0  0  0  0  0  0  0  0  0  0  0
   -5.1068    1.3539    0.8738 C   0  0  0  0  0  0  0  0  0  0  0  0
   -5.2122    2.4437    0.8641 H   0  0  0  0  0  0  0  0  0  0  0  0
   -5.4282    0.9774   -0.1020 H   0  0  0  0  0  0  0  0  0  0  0  0
   -5.9452    0.7686    1.9503 N   0  3  0  0  0  0  0  0  0  0  0  0
   -5.6593    1.1214    2.8551 H   0  0  0  0  0  0  0  0  0  0  0  0
   -6.9199    1.0038    1.8100 H   0  0  0  0  0  0  0  0  0  0  0  0
   -5.8580   -0.2409    1.9578 H   0  0  0  0  0  0  0  0  0  0  0  0
   -0.5865    0.0771    2.2496 C   0  0  0  0  0  0  0  0  0  0  0  0
    0.5860   -0.1608    2.5143 O   0  0  0  0  0  0  0  0  0  0  0  0
   -1.4786    0.4656    3.1667 N   0  0  0  0  0  0  0  0  0  0  0  0
   -2.4139    0.6698    2.8558 H   0  0  0  0  0  0  0  0  0  0  0  0
   -1.1587    0.6908    4.5775 C   0  0  0  0  0  0  0  0  0  0  0  0
   -0.4270    1.4968    4.6656 H   0  0  0  0  0  0  0  0  0  0  0  0
   -2.0565    0.9649    5.1327 H   0  0  0  0  0  0  0  0  0  0  0  0
   -0.7281   -0.2137    5.0125 H   0  0  0  0  0  0  0  0  0  0  0  0
  5  6  2  0  0  0  0
  5  7  1  0  0  0  0
  2  3  1  0  0  0  0
  2  4  1  0  0  0  0
  2  5  1  0  0  0  0
  1  2  1  0  0  0  0
 27 28  2  0  0  0  0
 27 29  1  0  0  0  0
 23 24  1  0  0  0  0
 23 25  1  0  0  0  0
 23 26  1  0  0  0  0
 20 21  1  0  0  0  0
 20 22  1  0  0  0  0
 20 23  1  0  0  0  0
 17 18  1  0  0  0  0
 17 19  1  0  0  0  0
 17 20  1  0  0  0  0
 14 15  1  0  0  0  0
 14 16  1  0  0  0  0
 14 17  1  0  0  0  0
 11 12  1  0  0  0  0
 11 13  1  0  0  0  0
 11 14  1  0  0  0  0
  9 10  1  0  0  0  0
  9 11  1  0  0  0  0
  9 27  1  0  0  0  0
  7  8  1  0  0  0  0
  7  9  1  0  0  0  0
 31 32  1  0  0  0  0
 31 33  1  0  0  0  0
 31 34  1  0  0  0  0
 29 30  1  0  0  0  0
 29 31  1  0  0  0  0
M  CHG  1  23   1
M  END
$$$$
default_name
  -OEChem-02102213163D

 34 33  0     1  0  0  0  0  0999 V2000
   -3.8899   -3.6747    1.6490 H   0  0  0  0  0  0  0  0  0  0  0  0
   -3.9109   -2.6717    1.2250 C   0  0  0  0  0  0  0  0  0  0  0  0
   -4.6009   -2.0517    1.7950 H   0  0  0  0  0  0  0  0  0  0  0  0
   -4.2309   -2.7237    0.1860 H   0  0  0  0  0  0  0  0  0  0  0  0
   -2.5229   -2.0787    1.2980 C   0  0  0  0  0  0  0  0  0  0  0  0
   -1.5999   -2.7227    1.7810 O   0  0  0  0  0  0  0  0  0  0  0  0
   -2.3659   -0.8447    0.8120 N   0  0  0  0  0  0  0  0  0  0  0  0
   -3.1749   -0.3807    0.4220 H   0  0  0  0  0  0  0  0  0  0  0  0
   -1.0919   -0.1077    0.8170 C   0  0  1  0  0  0  0  0  0  0  0  0
   -0.3571   -0.6901    0.2581 H   0  0  0  0  0  0  0  0  0  0  0  0
   -1.3037    1.2411    0.1040 C   0  0  0  0  0  0  0  0  0  0  0  0
   -0.8258    2.0248    0.6938 H   0  0  0  0  0  0  0  0  0  0  0  0
   -0.8206    1.2093   -0.8746 H   0  0  0  0  0  0  0  0  0  0  0  0
   -2.7852    1.6067   -0.0747 C   0  0  0  0  0  0  0  0  0  0  0  0
   -2.8742    2.6615   -0.3380 H   0  0  0  0  0  0  0  0  0  0  0  0
   -3.2104    1.0017   -0.8779 H   0  0  0  0  0  0  0  0  0  0  0  0
   -3.5608    1.3448    1.2238 C   0  0  0  0  0  0  0  0  0  0  0  0
   -3.4574    0.2909    1.4928 H   0  0  0  0  0  0  0  0  0  0  0  0
   -3.1378    1.9589    2.0213 H   0  0  0  0  0  0  0  0  0  0  0  0
   -5.0448    1.6859    1.0393 C   0  0  0  0  0  0  0  0  0  0  0  0
   -5.1263    2.7422    0.7631 H   0  0  0  0  0  0  0  0  0  0  0  0
   -5.4377    1.0911    0.2092 H   0  0  0  0  0  0  0  0  0  0  0  0
   -5.8239    1.4189    2.2747 N   0  3  0  0  0  0  0  0  0  0  0  0
   -5.4716    1.9745    3.0442 H   0  0  0  0  0  0  0  0  0  0  0  0
   -6.8002    1.6486    2.1365 H   0  0  0  0  0  0  0  0  0  0  0  0
   -5.7588    0.4403    2.5299 H   0  0  0  0  0  0  0  0  0  0  0  0
   -0.5865    0.0771    2.2496 C   0  0  0  0  0  0  0  0  0  0  0  0
    0.5860   -0.1608    2.5143 O   0  0  0  0  0  0  0  0  0  0  0  0
   -1.4786    0.4656    3.1667 N   0  0  0  0  0  0  0  0  0  0  0  0
   -2.4139    0.6698    2.8558 H   0  0  0  0  0  0  0  0  0  0  0  0
   -1.1587    0.6908    4.5775 C   0  0  0  0  0  0  0  0  0  0  0  0
   -0.4270    1.4968    4.6656 H   0  0  0  0  0  0  0  0  0  0  0  0
   -2.0565    0.9649    5.1327 H   0  0  0  0  0  0  0  0  0  0  0  0
   -0.7281   -0.2137    5.0125 H   0  0  0  0  0  0  0  0  0  0  0  0
  5  6  2  0  0  0  0
  5  7  1  0  0  0  0
  2  3  1  0  0  0  0
  2  4  1  0  0  0  0
  2  5  1  0  0  0  0
  1  2  1  0  0  0  0
 27 28  2  0  0  0  0
 27 29  1  0  0  0  0
 23 24  1  0  0  0  0
 23 25  1  0  0  0  0
 23 26  1  0  0  0  0
 20 21  1  0  0  0  0
 20 22  1  0  0  0  0
 20 23  1  0  0  0  0
 17 18  1  0  0  0  0
 17 19  1  0  0  0  0
 17 20  1  0  0  0  0
 14 15  1  0  0  0  0
 14 16  1  0  0  0  0
 14 17  1  0  0  0  0
 11 12  1  0  0  0  0
 11 13  1  0  0  0  0
 11 14  1  0  0  0  0
  9 10  1  0  0  0  0
  9 11  1  0  0  0  0
  9 27  1  0  0  0  0
  7  8  1  0  0  0  0
  7  9  1  0  0  0  0
 31 32  1  0  0  0  0
 31 33  1  0  0  0  0
 31 34  1  0  0  0  0
 29 30  1  0  0  0  0
 29 31  1  0  0  0  0
M  CHG  1  23   1
M  END
$$$$
default_name
  -OEChem-02102213163D

 34 33  0     1  0  0  0  0  0999 V2000
   -3.8899   -3.6747    1.6490 H   0  0  0  0  0  0  0  0  0  0  0  0
   -3.9109   -2.6717    1.2250 C   0  0  0  0  0  0  0  0  0  0  0  0
   -4.6009   -2.0517    1.7950 H   0  0  0  0  0  0  0  0  0  0  0  0
   -4.2309   -2.7237    0.1860 H   0  0  0  0  0  0  0  0  0  0  0  0
   -2.5229   -2.0787    1.2980 C   0  0  0  0  0  0  0  0  0  0  0  0
   -1.5999   -2.7227    1.7810 O   0  0  0  0  0  0  0  0  0  0  0  0
   -2.3659   -0.8447    0.8120 N   0  0  0  0  0  0  0  0  0  0  0  0
   -3.1749   -0.3807    0.4220 H   0  0  0  0  0  0  0  0  0  0  0  0
   -1.0919   -0.1077    0.8170 C   0  0  1  0  0  0  0  0  0  0  0  0
   -0.3571   -0.6901    0.2581 H   0  0  0  0  0  0  0  0  0  0  0  0
   -1.3037    1.2411    0.1040 C   0  0  0  0  0  0  0  0  0  0  0  0
   -0.8258    2.0248    0.6938 H   0  0  0  0  0  0  0  0  0  0  0  0
   -0.8206    1.2093   -0.8746 H   0  0  0  0  0  0  0  0  0  0  0  0
   -2.7852    1.6067   -0.0747 C   0  0  0  0  0  0  0  0  0  0  0  0
   -2.8677    2.5655   -0.5883 H   0  0  0  0  0  0  0  0  0  0  0  0
   -3.2754    0.8375   -0.6747 H   0  0  0  0  0  0  0  0  0  0  0  0
   -3.4799    1.7055    1.2905 C   0  0  0  0  0  0  0  0  0  0  0  0
   -3.3826    0.7484    1.8086 H   0  0  0  0  0  0  0  0  0  0  0  0
   -2.9920    2.4820    1.8829 H   0  0  0  0  0  0  0  0  0  0  0  0
   -4.9648    2.0460    1.1126 C   0  0  0  0  0  0  0  0  0  0  0  0
   -5.0407    3.0028    0.5857 H   0  0  0  0  0  0  0  0  0  0  0  0
   -5.4242    1.2788    0.4821 H   0  0  0  0  0  0  0  0  0  0  0  0
   -5.6671    2.1243    2.4183 N   0  3  0  0  0  0  0  0  0  0  0  0
   -5.2530    2.8400    3.0024 H   0  0  0  0  0  0  0  0  0  0  0  0
   -6.6450    2.3493    2.2836 H   0  0  0  0  0  0  0  0  0  0  0  0
   -5.6073    1.2382    2.9063 H   0  0  0  0  0  0  0  0  0  0  0  0
   -0.5865    0.0771    2.2496 C   0  0  0  0  0  0  0  0  0  0  0  0
    0.5860   -0.1608    2.5143 O   0  0  0  0  0  0  0  0  0  0  0  0
   -1.4786    0.4656    3.1667 N   0  0  0  0  0  0  0  0  0  0  0  0
   -2.4139    0.6698    2.8558 H   0  0  0  0  0  0  0  0  0  0  0  0
   -1.1587    0.6908    4.5775 C   0  0  0  0  0  0  0  0  0  0  0  0
   -0.4270    1.4968    4.6656 H   0  0  0  0  0  0  0  0  0  0  0  0
   -2.0565    0.9649    5.1327 H   0  0  0  0  0  0  0  0  0  0  0  0
   -0.7281   -0.2137    5.0125 H   0  0  0  0  0  0  0  0  0  0  0  0
  5  6  2  0  0  0  0
  5  7  1  0  0  0  0
  2  3  1  0  0  0  0
  2  4  1  0  0  0  0
  2  5  1  0  0  0  0
  1  2  1  0  0  0  0
 27 28  2  0  0  0  0
 27 29  1  0  0  0  0
 23 24  1  0  0  0  0
 23 25  1  0  0  0  0
 23 26  1  0  0  0  0
 20 21  1  0  0  0  0
 20 22  1  0  0  0  0
 20 23  1  0  0  0  0
 17 18  1  0  0  0  0
 17 19  1  0  0  0  0
 17 20  1  0  0  0  0
 14 15  1  0  0  0  0
 14 16  1  0  0  0  0
 14 17  1  0  0  0  0
 11 12  1  0  0  0  0
 11 13  1  0  0  0  0
 11 14  1  0  0  0  0
  9 10  1  0  0  0  0
  9 11  1  0  0  0  0
  9 27  1  0  0  0  0
  7  8  1  0  0  0  0
  7  9  1  0  0  0  0
 31 32  1  0  0  0  0
 31 33  1  0  0  0  0
 31 34  1  0  0  0  0
 29 30  1  0  0  0  0
 29 31  1  0  0  0  0
M  CHG  1  23   1
M  END
$$$$
default_name
  -OEChem-02102213163D

 34 33  0     1  0  0  0  0  0999 V2000
   -3.8899   -3.6747    1.6490 H   0  0  0  0  0  0  0  0  0  0  0  0
   -3.9109   -2.6717    1.2250 C   0  0  0  0  0  0  0  0  0  0  0  0
   -4.6009   -2.0517    1.7950 H   0  0  0  0  0  0  0  0  0  0  0  0
   -4.2309   -2.7237    0.1860 H   0  0  0  0  0  0  0  0  0  0  0  0
   -2.5229   -2.0787    1.2980 C   0  0  0  0  0  0  0  0  0  0  0  0
   -1.5999   -2.7227    1.7810 O   0  0  0  0  0  0  0  0  0  0  0  0
   -2.3659   -0.8447    0.8120 N   0  0  0  0  0  0  0  0  0  0  0  0
   -3.1749   -0.3807    0.4220 H   0  0  0  0  0  0  0  0  0  0  0  0
   -1.0919   -0.1077    0.8170 C   0  0  1  0  0  0  0  0  0  0  0  0
   -0.3571   -0.6901    0.2581 H   0  0  0  0  0  0  0  0  0  0  0  0
   -1.3037    1.2411    0.1040 C   0  0  0  0  0  0  0  0  0  0  0  0
   -0.8258    2.0248    0.6938 H   0  0  0  0  0  0  0  0  0  0  0  0
   -0.8206    1.2093   -0.8746 H   0  0  0  0  0  0  0  0  0  0  0  0
   -2.7852    1.6067   -0.0747 C   0  0  0  0  0  0  0  0  0  0  0  0
   -2.8797    2.4101   -0.8065 H   0  0  0  0  0  0  0  0  0  0  0  0
   -3.3306    0.7317   -0.4336 H   0  0  0  0  0  0  0  0  0  0  0  0
   -3.3867    2.0681    1.2600 C   0  0  0  0  0  0  0  0  0  0  0  0
   -3.2771    1.2669    1.9948 H   0  0  0  0  0  0  0  0  0  0  0  0
   -2.8439    2.9485    1.6098 H   0  0  0  0  0  0  0  0  0  0  0  0
   -4.8721    2.4097    1.0885 C   0  0  0  0  0  0  0  0  0  0  0  0
   -4.9610    3.2076    0.3440 H   0  0  0  0  0  0  0  0  0  0  0  0
   -5.3888    1.5279    0.6979 H   0  0  0  0  0  0  0  0  0  0  0  0
   -5.4856    2.8368    2.3714 N   0  3  0  0  0  0  0  0  0  0  0  0
   -5.0183    3.6590    2.7326 H   0  0  0  0  0  0  0  0  0  0  0  0
   -6.4650    3.0581    2.2413 H   0  0  0  0  0  0  0  0  0  0  0  0
   -5.4138    2.0982    3.0614 H   0  0  0  0  0  0  0  0  0  0  0  0
   -0.5865    0.0771    2.2496 C   0  0  0  0  0  0  0  0  0  0  0  0
    0.5860   -0.1608    2.5143 O   0  0  0  0  0  0  0  0  0  0  0  0
   -1.4786    0.4656    3.1667 N   0  0  0  0  0  0  0  0  0  0  0  0
   -2.4139    0.6698    2.8558 H   0  0  0  0  0  0  0  0  0  0  0  0
   -1.1587    0.6908    4.5775 C   0  0  0  0  0  0  0  0  0  0  0  0
   -0.4270    1.4968    4.6656 H   0  0  0  0  0  0  0  0  0  0  0  0
   -2.0565    0.9649    5.1327 H   0  0  0  0  0  0  0  0  0  0  0  0
   -0.7281   -0.2137    5.0125 H   0  0  0  0  0  0  0  0  0  0  0  0
  5  6  2  0  0  0  0
  5  7  1  0  0  0  0
  2  3  1  0  0  0  0
  2  4  1  0  0  0  0
  2  5  1  0  0  0  0
  1  2  1  0  0  0  0
 27 28  2  0  0  0  0
 27 29  1  0  0  0  0
 23 24  1  0  0  0  0
 23 25  1  0  0  0  0
 23 26  1  0  0  0  0
 20 21  1  0  0  0  0
 20 22  1  0  0  0  0
 20 23  1  0  0  0  0
 17 18  1  0  0  0  0
 17 19  1  0  0  0  0
 17 20  1  0  0  0  0
 14 15  1  0  0  0  0
 14 16  1  0  0  0  0
 14 17  1  0  0  0  0
 11 12  1  0  0  0  0
 11 13  1  0  0  0  0
 11 14  1  0  0  0  0
  9 10  1  0  0  0  0
  9 11  1  0  0  0  0
  9 27  1  0  0  0  0
  7  8  1  0  0  0  0
  7  9  1  0  0  0  0
 31 32  1  0  0  0  0
 31 33  1  0  0  0  0
 31 34  1  0  0  0  0
 29 30  1  0  0  0  0
 29 31  1  0  0  0  0
M  CHG  1  23   1
M  END
$$$$
default_name
  -OEChem-02102213163D

 34 33  0     1  0  0  0  0  0999 V2000
   -3.8899   -3.6747    1.6490 H   0  0  0  0  0  0  0  0  0  0  0  0
   -3.9109   -2.6717    1.2250 C   0  0  0  0  0  0  0  0  0  0  0  0
   -4.6009   -2.0517    1.7950 H   0  0  0  0  0  0  0  0  0  0  0  0
   -4.2309   -2.7237    0.1860 H   0  0  0  0  0  0  0  0  0  0  0  0
   -2.5229   -2.0787    1.2980 C   0  0  0  0  0  0  0  0  0  0  0  0
   -1.5999   -2.7227    1.7810 O   0  0  0  0  0  0  0  0  0  0  0  0
   -2.3659   -0.8447    0.8120 N   0  0  0  0  0  0  0  0  0  0  0  0
   -3.1749   -0.3807    0.4220 H   0  0  0  0  0  0  0  0  0  0  0  0
   -1.0919   -0.1077    0.8170 C   0  0  1  0  0  0  0  0  0  0  0  0
   -0.3571   -0.6901    0.2581 H   0  0  0  0  0  0  0  0  0  0  0  0
   -1.3037    1.2411    0.1040 C   0  0  0  0  0  0  0  0  0  0  0  0
   -0.8258    2.0248    0.6938 H   0  0  0  0  0  0  0  0  0  0  0  0
   -0.8206    1.2093   -0.8746 H   0  0  0  0  0  0  0  0  0  0  0  0
   -2.7852    1.6067   -0.0747 C   0  0  0  0  0  0  0  0  0  0  0  0
   -2.9095    2.2059   -0.9777 H   0  0  0  0  0  0  0  0  0  0  0  0
   -3.3723    0.6912   -0.1708 H   0  0  0  0  0  0  0  0  0  0  0  0
   -3.2877    2.4079    1.1343 C   0  0  0  0  0  0  0  0  0  0  0  0
   -3.1481    1.8110    2.0388 H   0  0  0  0  0  0  0  0  0  0  0  0
   -2.7037    3.3264    1.2204 H   0  0  0  0  0  0  0  0  0  0  0  0
   -4.7731    2.7522    0.9688 C   0  0  0  0  0  0  0  0  0  0  0  0
   -4.8927    3.3427    0.0546 H   0  0  0  0  0  0  0  0  0  0  0  0
   -5.3338    1.8212    0.8421 H   0  0  0  0  0  0  0  0  0  0  0  0
   -5.2918    3.5078    2.1370 N   0  3  0  0  0  0  0  0  0  0  0  0
   -4.7837    4.3756    2.2531 H   0  0  0  0  0  0  0  0  0  0  0  0
   -6.2723    3.7268    2.0124 H   0  0  0  0  0  0  0  0  0  0  0  0
   -5.1914    2.9618    2.9847 H   0  0  0  0  0  0  0  0  0  0  0  0
   -0.5865    0.0771    2.2496 C   0  0  0  0  0  0  0  0  0  0  0  0
    0.5860   -0.1608    2.5143 O   0  0  0  0  0  0  0  0  0  0  0  0
   -1.4786    0.4656    3.1667 N   0  0  0  0  0  0  0  0  0  0  0  0
   -2.4139    0.6698    2.8558 H   0  0  0  0  0  0  0  0  0  0  0  0
   -1.1587    0.6908    4.5775 C   0  0  0  0  0  0  0  0  0  0  0  0
   -0.4270    1.4968    4.6656 H   0  0  0  0  0  0  0  0  0  0  0  0
   -2.0565    0.9649    5.1327 H   0  0  0  0  0  0  0  0  0  0  0  0
   -0.7281   -0.2137    5.0125 H   0  0  0  0  0  0  0  0  0  0  0  0
  5  6  2  0  0  0  0
  5  7  1  0  0  0  0
  2  3  1  0  0  0  0
  2  4  1  0  0  0  0
  2  5  1  0  0  0  0
  1  2  1  0  0  0  0
 27 28  2  0  0  0  0
 27 29  1  0  0  0  0
 23 24  1  0  0  0  0
 23 25  1  0  0  0  0
 23 26  1  0  0  0  0
 20 21  1  0  0  0  0
 20 22  1  0  0  0  0
 20 23  1  0  0  0  0
 17 18  1  0  0  0  0
 17 19  1  0  0  0  0
 17 20  1  0  0  0  0
 14 15  1  0  0  0  0
 14 16  1  0  0  0  0
 14 17  1  0  0  0  0
 11 12  1  0  0  0  0
 11 13  1  0  0  0  0
 11 14  1  0  0  0  0
  9 10  1  0  0  0  0
  9 11  1  0  0  0  0
  9 27  1  0  0  0  0
  7  8  1  0  0  0  0
  7  9  1  0  0  0  0
 31 32  1  0  0  0  0
 31 33  1  0  0  0  0
 31 34  1  0  0  0  0
 29 30  1  0  0  0  0
 29 31  1  0  0  0  0
M  CHG  1  23   1
M  END
$$$$
default_name
  -OEChem-02102213163D

 34 33  0     1  0  0  0  0  0999 V2000
   -3.8899   -3.6747    1.6490 H   0  0  0  0  0  0  0  0  0  0  0  0
   -3.9109   -2.6717    1.2250 C   0  0  0  0  0  0  0  0  0  0  0  0
   -4.6009   -2.0517    1.7950 H   0  0  0  0  0  0  0  0  0  0  0  0
   -4.2309   -2.7237    0.1860 H   0  0  0  0  0  0  0  0  0  0  0  0
   -2.5229   -2.0787    1.2980 C   0  0  0  0  0  0  0  0  0  0  0  0
   -1.5999   -2.7227    1.7810 O   0  0  0  0  0  0  0  0  0  0  0  0
   -2.3659   -0.8447    0.8120 N   0  0  0  0  0  0  0  0  0  0  0  0
   -3.1749   -0.3807    0.4220 H   0  0  0  0  0  0  0  0  0  0  0  0
   -1.0919   -0.1077    0.8170 C   0  0  1  0  0  0  0  0  0  0  0  0
   -0.3571   -0.6901    0.2581 H   0  0  0  0  0  0  0  0  0  0  0  0
   -1.3037    1.2411    0.1040 C   0  0  0  0  0  0  0  0  0  0  0  0
   -0.8258    2.0248    0.6938 H   0  0  0  0  0  0  0  0  0  0  0  0
   -0.8206    1.2093   -0.8746 H   0  0  0  0  0  0  0  0  0  0  0  0
   -2.7852    1.6067   -0.0747 C   0  0  0  0  0  0  0  0  0  0  0  0
   -2.9549    1.9668   -1.0903 H   0  0  0  0  0  0  0  0  0  0  0  0
   -3.3976    0.7190    0.0957 H   0  0  0  0  0  0  0  0  0  0  0  0
   -3.1895    2.7018    0.9220 C   0  0  0  0  0  0  0  0  0  0  0  0
   -3.0044    2.3436    1.9375 H   0  0  0  0  0  0  0  0  0  0  0  0
   -2.5809    3.5900    0.7413 H   0  0  0  0  0  0  0  0  0  0  0  0
   -4.6746    3.0502    0.7616 C   0  0  0  0  0  0  0  0  0  0  0  0
   -4.8405    3.3990   -0.2629 H   0  0  0  0  0  0  0  0  0  0  0  0
   -5.2630    2.1389    0.9048 H   0  0  0  0  0  0  0  0  0  0  0  0
   -5.0988    4.0916    1.7312 N   0  3  0  0  0  0  0  0  0  0  0  0
   -4.5649    4.9412    1.5966 H   0  0  0  0  0  0  0  0  0  0  0  0
   -6.0802    4.3098    1.6126 H   0  0  0  0  0  0  0  0  0  0  0  0
   -4.9554    3.7702    2.6814 H   0  0  0  0  0  0  0  0  0  0  0  0
   -0.5865    0.0771    2.2496 C   0  0  0  0  0  0  0  0  0  0  0  0
    0.5860   -0.1608    2.5143 O   0  0  0  0  0  0  0  0  0  0  0  0
   -1.4786    0.4656    3.1667 N   0  0  0  0  0  0  0  0  0  0  0  0
   -2.4139    0.6698    2.8558 H   0  0  0  0  0  0  0  0  0  0  0  0
   -1.1587    0.6908    4.5775 C   0  0  0  0  0  0  0  0  0  0  0  0
   -0.4270    1.4968    4.6656 H   0  0  0  0  0  0  0  0  0  0  0  0
   -2.0565    0.9649    5.1327 H   0  0  0  0  0  0  0  0  0  0  0  0
   -0.7281   -0.2137    5.0125 H   0  0  0  0  0  0  0  0  0  0  0  0
  5  6  2  0  0  0  0
  5  7  1  0  0  0  0
  2  3  1  0  0  0  0
  2  4  1  0  0  0  0
  2  5  1  0  0  0  0
  1  2  1  0  0  0  0
 27 28  2  0  0  0  0
 27 29  1  0  0  0  0
 23 24  1  0  0  0  0
 23 25  1  0  0  0  0
 23 26  1  0  0  0  0
 20 21  1  0  0  0  0
 20 22  1  0  0  0  0
 20 23  1  0  0  0  0
 17 18  1  0  0  0  0
 17 19  1  0  0  0  0
 17 20  1  0  0  0  0
 14 15  1  0  0  0  0
 14 16  1  0  0  0  0
 14 17  1  0  0  0  0
 11 12  1  0  0  0  0
 11 13  1  0  0  0  0
 11 14  1  0  0  0  0
  9 10  1  0  0  0  0
  9 11  1  0  0  0  0
  9 27  1  0  0  0  0
  7  8  1  0  0  0  0
  7  9  1  0  0  0  0
 31 32  1  0  0  0  0
 31 33  1  0  0  0  0
 31 34  1  0  0  0  0
 29 30  1  0  0  0  0
 29 31  1  0  0  0  0
M  CHG  1  23   1
M  END
$$$$
default_name
  -OEChem-02102213163D

 34 33  0     1  0  0  0  0  0999 V2000
   -3.8899   -3.6747    1.6490 H   0  0  0  0  0  0  0  0  0  0  0  0
   -3.9109   -2.6717    1.2250 C   0  0  0  0  0  0  0  0  0  0  0  0
   -4.6009   -2.0517    1.7950 H   0  0  0  0  0  0  0  0  0  0  0  0
   -4.2309   -2.7237    0.1860 H   0  0  0  0  0  0  0  0  0  0  0  0
   -2.5229   -2.0787    1.2980 C   0  0  0  0  0  0  0  0  0  0  0  0
   -1.5999   -2.7227    1.7810 O   0  0  0  0  0  0  0  0  0  0  0  0
   -2.3659   -0.8447    0.8120 N   0  0  0  0  0  0  0  0  0  0  0  0
   -3.1749   -0.3807    0.4220 H   0  0  0  0  0  0  0  0  0  0  0  0
   -1.0919   -0.1077    0.8170 C   0  0  1  0  0  0  0  0  0  0  0  0
   -0.3571   -0.6901    0.2581 H   0  0  0  0  0  0  0  0  0  0  0  0
   -1.3037    1.2411    0.1040 C   0  0  0  0  0  0  0  0  0  0  0  0
   -0.8258    2.0248    0.6938 H   0  0  0  0  0  0  0  0  0  0  0  0
   -0.8206    1.2093   -0.8746 H   0  0  0  0  0  0  0  0  0  0  0  0
   -2.7852    1.6067   -0.0747 C   0  0  0  0  0  0  0  0  0  0  0  0
   -3.0129    1.7092   -1.1366 H   0  0  0  0  0  0  0  0  0  0  0  0
   -3.4048    0.8131    0.3477 H   0  0  0  0  0  0  0  0  0  0  0  0
   -3.0990    2.9297    0.6375 C   0  0  0  0  0  0  0  0  0  0  0  0
   -2.8559    2.8286    1.6979 H   0  0  0  0  0  0  0  0  0  0  0  0
   -2.4838    3.7214    0.2052 H   0  0  0  0  0  0  0  0  0  0  0  0
   -4.5832    3.2834    0.4810 C   0  0  0  0  0  0  0  0  0  0  0  0
   -4.8080    3.3725   -0.5869 H   0  0  0  0  0  0  0  0  0  0  0  0
   -5.1811    2.4593    0.8816 H   0  0  0  0  0  0  0  0  0  0  0  0
   -4.9197    4.5485    1.1816 N   0  3  0  0  0  0  0  0  0  0  0  0
   -4.3770    5.3170    0.8079 H   0  0  0  0  0  0  0  0  0  0  0  0
   -5.9018    4.7674    1.0690 H   0  0  0  0  0  0  0  0  0  0  0  0
   -4.7217    4.4681    2.1721 H   0  0  0  0  0  0  0  0  0  0  0  0
   -0.5865    0.0771    2.2496 C   0  0  0  0  0  0  0  0  0  0  0  0
    0.5860   -0.1608    2.5143 O   0  0  0  0  0  0  0  0  0  0  0  0
   -1.4786    0.4656    3.1667 N   0  0  0  0  0  0  0  0  0  0  0  0
   -2.4139    0.6698    2.8558 H   0  0  0  0  0  0  0  0  0  0  0  0
   -1.1587    0.6908    4.5775 C   0  0  0  0  0  0  0  0  0  0  0  0
   -0.4270    1.4968    4.6656 H   0  0  0  0  0  0  0  0  0  0  0  0
   -2.0565    0.9649    5.1327 H   0  0  0  0  0  0  0  0  0  0  0  0
   -0.7281   -0.2137    5.0125 H   0  0  0  0  0  0  0  0  0  0  0  0
  5  6  2  0  0  0  0
  5  7  1  0  0  0  0
  2  3  1  0  0  0  0
  2  4  1  0  0  0  0
  2  5  1  0  0  0  0
  1  2  1  0  0  0  0
 27 28  2  0  0  0  0
 27 29  1  0  0  0  0
 23 24  1  0  0  0  0
 23 25  1  0  0  0  0
 23 26  1  0  0  0  0
 20 21  1  0  0  0  0
 20 22  1  0  0  0  0
 20 23  1  0  0  0  0
 17 18  1  0  0  0  0
 17 19  1  0  0  0  0
 17 20  1  0  0  0  0
 14 15  1  0  0  0  0
 14 16  1  0  0  0  0
 14 17  1  0  0  0  0
 11 12  1  0  0  0  0
 11 13  1  0  0  0  0
 11 14  1  0  0  0  0
  9 10  1  0  0  0  0
  9 11  1  0  0  0  0
  9 27  1  0  0  0  0
  7  8  1  0  0  0  0
  7  9  1  0  0  0  0
 31 32  1  0  0  0  0
 31 33  1  0  0  0  0
 31 34  1  0  0  0  0
 29 30  1  0  0  0  0
 29 31  1  0  0  0  0
M  CHG  1  23   1
M  END
$$$$
default_name
  -OEChem-02102213163D

 34 33  0     1  0  0  0  0  0999 V2000
   -3.8899   -3.6747    1.6490 H   0  0  0  0  0  0  0  0  0  0  0  0
   -3.9109   -2.6717    1.2250 C   0  0  0  0  0  0  0  0  0  0  0  0
   -4.6009   -2.0517    1.7950 H   0  0  0  0  0  0  0  0  0  0  0  0
   -4.2309   -2.7237    0.1860 H   0  0  0  0  0  0  0  0  0  0  0  0
   -2.5229   -2.0787    1.2980 C   0  0  0  0  0  0  0  0  0  0  0  0
   -1.5999   -2.7227    1.7810 O   0  0  0  0  0  0  0  0  0  0  0  0
   -2.3659   -0.8447    0.8120 N   0  0  0  0  0  0  0  0  0  0  0  0
   -3.1749   -0.3807    0.4220 H   0  0  0  0  0  0  0  0  0  0  0  0
   -1.0919   -0.1077    0.8170 C   0  0  1  0  0  0  0  0  0  0  0  0
   -0.3571   -0.6901    0.2581 H   0  0  0  0  0  0  0  0  0  0  0  0
   -1.3037    1.2411    0.1040 C   0  0  0  0  0  0  0  0  0  0  0  0
   -0.8258    2.0248    0.6938 H   0  0  0  0  0  0  0  0  0  0  0  0
   -0.8206    1.2093   -0.8746 H   0  0  0  0  0  0  0  0  0  0  0  0
   -2.7852    1.6067   -0.0747 C   0  0  0  0  0  0  0  0  0  0  0  0
   -3.0795    1.4505   -1.1134 H   0  0  0  0  0  0  0  0  0  0  0  0
   -3.3933    0.9672    0.5681 H   0  0  0  0  0  0  0  0  0  0  0  0
   -3.0222    3.0761    0.3002 C   0  0  0  0  0  0  0  0  0  0  0  0
   -2.7125    3.2327    1.3363 H   0  0  0  0  0  0  0  0  0  0  0  0
   -2.4191    3.7116   -0.3514 H   0  0  0  0  0  0  0  0  0  0  0  0
   -4.5052    3.4358    0.1461 C   0  0  0  0  0  0  0  0  0  0  0  0
   -4.7973    3.2651   -0.8952 H   0  0  0  0  0  0  0  0  0  0  0  0
   -5.0938    2.7605    0.7743 H   0  0  0  0  0  0  0  0  0  0  0  0
   -4.7669    4.8472    0.5257 N   0  3  0  0  0  0  0  0  0  0  0  0
   -4.2328    5.4775   -0.0593 H   0  0  0  0  0  0  0  0  0  0  0  0
   -5.7491    5.0683    0.4188 H   0  0  0  0  0  0  0  0  0  0  0  0
   -4.5064    5.0082    1.4916 H   0  0  0  0  0  0  0  0  0  0  0  0
   -0.5865    0.0771    2.2496 C   0  0  0  0  0  0  0  0  0  0  0  0
    0.5860   -0.1608    2.5143 O   0  0  0  0  0  0  0  0  0  0  0  0
   -1.4786    0.4656    3.1667 N   0  0  0  0  0  0  0  0  0  0  0  0
   -2.4139    0.6698    2.8558 H   0  0  0  0  0  0  0  0  0  0  0  0
   -1.1587    0.6908    4.5775 C   0  0  0  0  0  0  0  0  0  0  0  0
   -0.4270    1.4968    4.6656 H   0  0  0  0  0  0  0  0  0  0  0  0
   -2.0565    0.9649    5.1327 H   0  0  0  0  0  0  0  0  0  0  0  0
   -0.7281   -0.2137    5.0125 H   0  0  0  0  0  0  0  0  0  0  0  0
  5  6  2  0  0  0  0
  5  7  1  0  0  0  0
  2  3  1  0  0  0  0
  2  4  1  0  0  0  0
  2  5  1  0  0  0  0
  1  2  1  0  0  0  0
 27 28  2  0  0  0  0
 27 29  1  0  0  0  0
 23 24  1  0  0  0  0
 23 25  1  0  0  0  0
 23 26  1  0  0  0  0
 20 21  1  0  0  0  0
 20 22  1  0  0  0  0
 20 23  1  0  0  0  0
 17 18  1  0  0  0  0
 17 19  1  0  0  0  0
 17 20  1  0  0  0  0
 14 15  1  0  0  0  0
 14 16  1  0  0  0  0
 14 17  1  0  0  0  0
 11 12  1  0  0  0  0
 11 13  1  0  0  0  0
 11 14  1  0  0  0  0
  9 10  1  0  0  0  0
  9 11  1  0  0  0  0
  9 27  1  0  0  0  0
  7  8  1  0  0  0  0
  7  9  1  0  0  0  0
 31 32  1  0  0  0  0
 31 33  1  0  0  0  0
 31 34  1  0  0  0  0
 29 30  1  0  0  0  0
 29 31  1  0  0  0  0
M  CHG  1  23   1
M  END
$$$$
default_name
  -OEChem-02102213163D

 34 33  0     1  0  0  0  0  0999 V2000
   -3.8899   -3.6747    1.6490 H   0  0  0  0  0  0  0  0  0  0  0  0
   -3.9109   -2.6717    1.2250 C   0  0  0  0  0  0  0  0  0  0  0  0
   -4.6009   -2.0517    1.7950 H   0  0  0  0  0  0  0  0  0  0  0  0
   -4.2309   -2.7237    0.1860 H   0  0  0  0  0  0  0  0  0  0  0  0
   -2.5229   -2.0787    1.2980 C   0  0  0  0  0  0  0  0  0  0  0  0
   -1.5999   -2.7227    1.7810 O   0  0  0  0  0  0  0  0  0  0  0  0
   -2.3659   -0.8447    0.8120 N   0  0  0  0  0  0  0  0  0  0  0  0
   -3.1749   -0.3807    0.4220 H   0  0  0  0  0  0  0  0  0  0  0  0
   -1.0919   -0.1077    0.8170 C   0  0  1  0  0  0  0  0  0  0  0  0
   -0.3571   -0.6901    0.2581 H   0  0  0  0  0  0  0  0  0  0  0  0
   -1.3037    1.2411    0.1040 C   0  0  0  0  0  0  0  0  0  0  0  0
   -0.8258    2.0248    0.6938 H   0  0  0  0  0  0  0  0  0  0  0  0
   -0.8206    1.2093   -0.8746 H   0  0  0  0  0  0  0  0  0  0  0  0
   -2.7852    1.6067   -0.0747 C   0  0  0  0  0  0  0  0  0  0  0  0
   -3.1502    1.2084   -1.0224 H   0  0  0  0  0  0  0  0  0  0  0  0
   -3.3641    1.1706    0.7418 H   0  0  0  0  0  0  0  0  0  0  0  0
   -2.9643    3.1311   -0.0668 C   0  0  0  0  0  0  0  0  0  0  0  0
   -2.5842    3.5285    0.8773 H   0  0  0  0  0  0  0  0  0  0  0  0
   -2.3911    3.5613   -0.8905 H   0  0  0  0  0  0  0  0  0  0  0  0
   -4.4459    3.4972   -0.2202 C   0  0  0  0  0  0  0  0  0  0  0  0
   -4.8092    3.0841   -1.1668 H   0  0  0  0  0  0  0  0  0  0  0  0
   -5.0071    3.0220    0.5901 H   0  0  0  0  0  0  0  0  0  0  0  0
   -4.6507    4.9674   -0.1918 N   0  3  0  0  0  0  0  0  0  0  0  0
   -4.1421    5.4118   -0.9459 H   0  0  0  0  0  0  0  0  0  0  0  0
   -5.6326    5.1921   -0.2938 H   0  0  0  0  0  0  0  0  0  0  0  0
   -4.3240    5.3536    0.6863 H   0  0  0  0  0  0  0  0  0  0  0  0
   -0.5865    0.0771    2.2496 C   0  0  0  0  0  0  0  0  0  0  0  0
    0.5860   -0.1608    2.5143 O   0  0  0  0  0  0  0  0  0  0  0  0
   -1.4786    0.4656    3.1667 N   0  0  0  0  0  0  0  0  0  0  0  0
   -2.4139    0.6698    2.8558 H   0  0  0  0  0  0  0  0  0  0  0  0
   -1.1587    0.6908    4.5775 C   0  0  0  0  0  0  0  0  0  0  0  0
   -0.4270    1.4968    4.6656 H   0  0  0  0  0  0  0  0  0  0  0  0
   -2.0565    0.9649    5.1327 H   0  0  0  0  0  0  0  0  0  0  0  0
   -0.7281   -0.2137    5.0125 H   0  0  0  0  0  0  0  0  0  0  0  0
  5  6  2  0  0  0  0
  5  7  1  0  0  0  0
  2  3  1  0  0  0  0
  2  4  1  0  0  0  0
  2  5  1  0  0  0  0
  1  2  1  0  0  0  0
 27 28  2  0  0  0  0
 27 29  1  0  0  0  0
 23 24  1  0  0  0  0
 23 25  1  0  0  0  0
 23 26  1  0  0  0  0
 20 21  1  0  0  0  0
 20 22  1  0  0  0  0
 20 23  1  0  0  0  0
 17 18  1  0  0  0  0
 17 19  1  0  0  0  0
 17 20  1  0  0  0  0
 14 15  1  0  0  0  0
 14 16  1  0  0  0  0
 14 17  1  0  0  0  0
 11 12  1  0  0  0  0
 11 13  1  0  0  0  0
 11 14  1  0  0  0  0
  9 10  1  0  0  0  0
  9 11  1  0  0  0  0
  9 27  1  0  0  0  0
  7  8  1  0  0  0  0
  7  9  1  0  0  0  0
 31 32  1  0  0  0  0
 31 33  1  0  0  0  0
 31 34  1  0  0  0  0
 29 30  1  0  0  0  0
 29 31  1  0  0  0  0
M  CHG  1  23   1
M  END
$$$$
default_name
  -OEChem-02102213163D

 34 33  0     1  0  0  0  0  0999 V2000
   -3.8899   -3.6747    1.6490 H   0  0  0  0  0  0  0  0  0  0  0  0
   -3.9109   -2.6717    1.2250 C   0  0  0  0  0  0  0  0  0  0  0  0
   -4.6009   -2.0517    1.7950 H   0  0  0  0  0  0  0  0  0  0  0  0
   -4.2309   -2.7237    0.1860 H   0  0  0  0  0  0  0  0  0  0  0  0
   -2.5229   -2.0787    1.2980 C   0  0  0  0  0  0  0  0  0  0  0  0
   -1.5999   -2.7227    1.7810 O   0  0  0  0  0  0  0  0  0  0  0  0
   -2.3659   -0.8447    0.8120 N   0  0  0  0  0  0  0  0  0  0  0  0
   -3.1749   -0.3807    0.4220 H   0  0  0  0  0  0  0  0  0  0  0  0
   -1.0919   -0.1077    0.8170 C   0  0  1  0  0  0  0  0  0  0  0  0
   -0.3571   -0.6901    0.2581 H   0  0  0  0  0  0  0  0  0  0  0  0
   -1.3037    1.2411    0.1040 C   0  0  0  0  0  0  0  0  0  0  0  0
   -0.8258    2.0248    0.6938 H   0  0  0  0  0  0  0  0  0  0  0  0
   -0.8206    1.2093   -0.8746 H   0  0  0  0  0  0  0  0  0  0  0  0
   -2.7852    1.6067   -0.0747 C   0  0  0  0  0  0  0  0  0  0  0  0
   -3.2202    0.9995   -0.8697 H   0  0  0  0  0  0  0  0  0  0  0  0
   -3.3190    1.4096    0.8571 H   0  0  0  0  0  0  0  0  0  0  0  0
   -2.9294    3.0909   -0.4386 C   0  0  0  0  0  0  0  0  0  0  0  0
   -2.4796    3.6958    0.3523 H   0  0  0  0  0  0  0  0  0  0  0  0
   -2.4019    3.2806   -1.3755 H   0  0  0  0  0  0  0  0  0  0  0  0
   -4.4093    3.4632   -0.5930 C   0  0  0  0  0  0  0  0  0  0  0  0
   -4.8429    2.8418   -1.3833 H   0  0  0  0  0  0  0  0  0  0  0  0
   -4.9268    3.2261    0.3415 H   0  0  0  0  0  0  0  0  0  0  0  0
   -4.5790    4.9010   -0.9221 N   0  3  0  0  0  0  0  0  0  0  0  0
   -4.1111    5.1243   -1.7915 H   0  0  0  0  0  0  0  0  0  0  0  0
   -5.5602    5.1304   -1.0201 H   0  0  0  0  0  0  0  0  0  0  0  0
   -4.1871    5.4807   -0.1891 H   0  0  0  0  0  0  0  0  0  0  0  0
   -0.5865    0.0771    2.2496 C   0  0  0  0  0  0  0  0  0  0  0  0
    0.5860   -0.1608    2.5143 O   0  0  0  0  0  0  0  0  0  0  0  0
   -1.4786    0.4656    3.1667 N   0  0  0  0  0  0  0  0  0  0  0  0
   -2.4139    0.6698    2.8558 H   0  0  0  0  0  0  0  0  0  0  0  0
   -1.1587    0.6908    4.5775 C   0  0  0  0  0  0  0  0  0  0  0  0
   -0.4270    1.4968    4.6656 H   0  0  0  0  0  0  0  0  0  0  0  0
   -2.0565    0.9649    5.1327 H   0  0  0  0  0  0  0  0  0  0  0  0
   -0.7281   -0.2137    5.0125 H   0  0  0  0  0  0  0  0  0  0  0  0
  5  6  2  0  0  0  0
  5  7  1  0  0  0  0
  2  3  1  0  0  0  0
  2  4  1  0  0  0  0
  2  5  1  0  0  0  0
  1  2  1  0  0  0  0
 27 28  2  0  0  0  0
 27 29  1  0  0  0  0
 23 24  1  0  0  0  0
 23 25  1  0  0  0  0
 23 26  1  0  0  0  0
 20 21  1  0  0  0  0
 20 22  1  0  0  0  0
 20 23  1  0  0  0  0
 17 18  1  0  0  0  0
 17 19  1  0  0  0  0
 17 20  1  0  0  0  0
 14 15  1  0  0  0  0
 14 16  1  0  0  0  0
 14 17  1  0  0  0  0
 11 12  1  0  0  0  0
 11 13  1  0  0  0  0
 11 14  1  0  0  0  0
  9 10  1  0  0  0  0
  9 11  1  0  0  0  0
  9 27  1  0  0  0  0
  7  8  1  0  0  0  0
  7  9  1  0  0  0  0
 31 32  1  0  0  0  0
 31 33  1  0  0  0  0
 31 34  1  0  0  0  0
 29 30  1  0  0  0  0
 29 31  1  0  0  0  0
M  CHG  1  23   1
M  END
$$$$
default_name
  -OEChem-02102213163D

 34 33  0     1  0  0  0  0  0999 V2000
   -3.8899   -3.6747    1.6490 H   0  0  0  0  0  0  0  0  0  0  0  0
   -3.9109   -2.6717    1.2250 C   0  0  0  0  0  0  0  0  0  0  0  0
   -4.6009   -2.0517    1.7950 H   0  0  0  0  0  0  0  0  0  0  0  0
   -4.2309   -2.7237    0.1860 H   0  0  0  0  0  0  0  0  0  0  0  0
   -2.5229   -2.0787    1.2980 C   0  0  0  0  0  0  0  0  0  0  0  0
   -1.5999   -2.7227    1.7810 O   0  0  0  0  0  0  0  0  0  0  0  0
   -2.3659   -0.8447    0.8120 N   0  0  0  0  0  0  0  0  0  0  0  0
   -3.1749   -0.3807    0.4220 H   0  0  0  0  0  0  0  0  0  0  0  0
   -1.0919   -0.1077    0.8170 C   0  0  1  0  0  0  0  0  0  0  0  0
   -0.3571   -0.6901    0.2581 H   0  0  0  0  0  0  0  0  0  0  0  0
   -1.3037    1.2411    0.1040 C   0  0  0  0  0  0  0  0  0  0  0  0
   -0.6161    1.9722    0.5320 H   0  0  0  0  0  0  0  0  0  0  0  0
   -1.0644    1.1284   -0.9552 H   0  0  0  0  0  0  0  0  0  0  0  0
   -2.7343    1.7834    0.2446 C   0  0  0  0  0  0  0  0  0  0  0  0
   -3.4412    1.0697   -0.1805 H   0  0  0  0  0  0  0  0  0  0  0  0
   -2.9629    1.9244    1.3028 H   0  0  0  0  0  0  0  0  0  0  0  0
   -2.8717    3.1253   -0.4880 C   0  0  0  0  0  0  0  0  0  0  0  0
   -2.1521    3.8334   -0.0701 H   0  0  0  0  0  0  0  0  0  0  0  0
   -2.6512    2.9770   -1.5470 H   0  0  0  0  0  0  0  0  0  0  0  0
   -4.2926    3.6801   -0.3276 C   0  0  0  0  0  0  0  0  0  0  0  0
   -4.9978    2.9539   -0.7447 H   0  0  0  0  0  0  0  0  0  0  0  0
   -4.5078    3.7811    0.7404 H   0  0  0  0  0  0  0  0  0  0  0  0
   -4.4467    4.9910   -1.0075 N   0  3  0  0  0  0  0  0  0  0  0  0
   -4.2589    4.9018   -1.9983 H   0  0  0  0  0  0  0  0  0  0  0  0
   -5.3888    5.3433   -0.8921 H   0  0  0  0  0  0  0  0  0  0  0  0
   -3.8020    5.6694   -0.6190 H   0  0  0  0  0  0  0  0  0  0  0  0
   -0.5865    0.0771    2.2496 C   0  0  0  0  0  0  0  0  0  0  0  0
    0.5860   -0.1608    2.5143 O   0  0  0  0  0  0  0  0  0  0  0  0
   -1.4786    0.4656    3.1667 N   0  0  0  0  0  0  0  0  0  0  0  0
   -2.4139    0.6698    2.8558 H   0  0  0  0  0  0  0  0  0  0  0  0
   -1.1587    0.6908    4.5775 C   0  0  0  0  0  0  0  0  0  0  0  0
   -0.4270    1.4968    4.6656 H   0  0  0  0  0  0  0  0  0  0  0  0
   -2.0565    0.9649    5.1327 H   0  0  0  0  0  0  0  0  0  0  0  0
   -0.7281   -0.2137    5.0125 H   0  0  0  0  0  0  0  0  0  0  0  0
  5  6  2  0  0  0  0
  5  7  1  0  0  0  0
  2  3  1  0  0  0  0
  2  4  1  0  0  0  0
  2  5  1  0  0  0  0
  1  2  1  0  0  0  0
 27 28  2  0  0  0  0
 27 29  1  0  0  0  0
 23 24  1  0  0  0  0
 23 25  1  0  0  0  0
 23 26  1  0  0  0  0
 20 21  1  0  0  0  0
 20 22  1  0  0  0  0
 20 23  1  0  0  0  0
 17 18  1  0  0  0  0
 17 19  1  0  0  0  0
 17 20  1  0  0  0  0
 14 15  1  0  0  0  0
 14 16  1  0  0  0  0
 14 17  1  0  0  0  0
 11 12  1  0  0  0  0
 11 13  1  0  0  0  0
 11 14  1  0  0  0  0
  9 10  1  0  0  0  0
  9 11  1  0  0  0  0
  9 27  1  0  0  0  0
  7  8  1  0  0  0  0
  7  9  1  0  0  0  0
 31 32  1  0  0  0  0
 31 33  1  0  0  0  0
 31 34  1  0  0  0  0
 29 30  1  0  0  0  0
 29 31  1  0  0  0  0
M  CHG  1  23   1
M  END
$$$$
default_name
  -OEChem-02102213163D

 34 33  0     1  0  0  0  0  0999 V2000
   -3.8899   -3.6747    1.6490 H   0  0  0  0  0  0  0  0  0  0  0  0
   -3.9109   -2.6717    1.2250 C   0  0  0  0  0  0  0  0  0  0  0  0
   -4.6009   -2.0517    1.7950 H   0  0  0  0  0  0  0  0  0  0  0  0
   -4.2309   -2.7237    0.1860 H   0  0  0  0  0  0  0  0  0  0  0  0
   -2.5229   -2.0787    1.2980 C   0  0  0  0  0  0  0  0  0  0  0  0
   -1.5999   -2.7227    1.7810 O   0  0  0  0  0  0  0  0  0  0  0  0
   -2.3659   -0.8447    0.8120 N   0  0  0  0  0  0  0  0  0  0  0  0
   -3.1749   -0.3807    0.4220 H   0  0  0  0  0  0  0  0  0  0  0  0
   -1.0919   -0.1077    0.8170 C   0  0  1  0  0  0  0  0  0  0  0  0
   -0.3571   -0.6901    0.2581 H   0  0  0  0  0  0  0  0  0  0  0  0
   -1.3037    1.2411    0.1040 C   0  0  0  0  0  0  0  0  0  0  0  0
   -0.6161    1.9722    0.5320 H   0  0  0  0  0  0  0  0  0  0  0  0
   -1.0644    1.1284   -0.9552 H   0  0  0  0  0  0  0  0  0  0  0  0
   -2.7343    1.7834    0.2446 C   0  0  0  0  0  0  0  0  0  0  0  0
   -3.4507    0.9793    0.0717 H   0  0  0  0  0  0  0  0  0  0  0  0
   -2.8731    2.1736    1.2548 H   0  0  0  0  0  0  0  0  0  0  0  0
   -2.9827    2.9062   -0.7722 C   0  0  0  0  0  0  0  0  0  0  0  0
   -2.2540    3.7033   -0.6061 H   0  0  0  0  0  0  0  0  0  0  0  0
   -2.8517    2.5087   -1.7806 H   0  0  0  0  0  0  0  0  0  0  0  0
   -4.4023    3.4655   -0.6164 C   0  0  0  0  0  0  0  0  0  0  0  0
   -5.1159    2.6512   -0.7786 H   0  0  0  0  0  0  0  0  0  0  0  0
   -4.5256    3.8194    0.4117 H   0  0  0  0  0  0  0  0  0  0  0  0
   -4.6616    4.5708   -1.5733 N   0  3  0  0  0  0  0  0  0  0  0  0
   -4.5592    4.2468   -2.5269 H   0  0  0  0  0  0  0  0  0  0  0  0
   -5.6015    4.9288   -1.4574 H   0  0  0  0  0  0  0  0  0  0  0  0
   -4.0091    5.3311   -1.4213 H   0  0  0  0  0  0  0  0  0  0  0  0
   -0.5865    0.0771    2.2496 C   0  0  0  0  0  0  0  0  0  0  0  0
    0.5860   -0.1608    2.5143 O   0  0  0  0  0  0  0  0  0  0  0  0
   -1.4786    0.4656    3.1667 N   0  0  0  0  0  0  0  0  0  0  0  0
   -2.4139    0.6698    2.8558 H   0  0  0  0  0  0  0  0  0  0  0  0
   -1.1587    0.6908    4.5775 C   0  0  0  0  0  0  0  0  0  0  0  0
   -0.4270    1.4968    4.6656 H   0  0  0  0  0  0  0  0  0  0  0  0
   -2.0565    0.9649    5.1327 H   0  0  0  0  0  0  0  0  0  0  0  0
   -0.7281   -0.2137    5.0125 H   0  0  0  0  0  0  0  0  0  0  0  0
  5  6  2  0  0  0  0
  5  7  1  0  0  0  0
  2  3  1  0  0  0  0
  2  4  1  0  0  0  0
  2  5  1  0  0  0  0
  1  2  1  0  0  0  0
 27 28  2  0  0  0  0
 27 29  1  0  0  0  0
 23 24  1  0  0  0  0
 23 25  1  0  0  0  0
 23 26  1  0  0  0  0
 20 21  1  0  0  0  0
 20 22  1  0  0  0  0
 20 23  1  0  0  0  0
 17 18  1  0  0  0  0
 17 19  1  0  0  0  0
 17 20  1  0  0  0  0
 14 15  1  0  0  0  0
 14 16  1  0  0  0  0
 14 17  1  0  0  0  0
 11 12  1  0  0  0  0
 11 13  1  0  0  0  0
 11 14  1  0  0  0  0
  9 10  1  0  0  0  0
  9 11  1  0  0  0  0
  9 27  1  0  0  0  0
  7  8  1  0  0  0  0
  7  9  1  0  0  0  0
 31 32  1  0  0  0  0
 31 33  1  0  0  0  0
 31 34  1  0  0  0  0
 29 30  1  0  0  0  0
 29 31  1  0  0  0  0
M  CHG  1  23   1
M  END
$$$$
default_name
  -OEChem-02102213163D

 34 33  0     1  0  0  0  0  0999 V2000
   -3.8899   -3.6747    1.6490 H   0  0  0  0  0  0  0  0  0  0  0  0
   -3.9109   -2.6717    1.2250 C   0  0  0  0  0  0  0  0  0  0  0  0
   -4.6009   -2.0517    1.7950 H   0  0  0  0  0  0  0  0  0  0  0  0
   -4.2309   -2.7237    0.1860 H   0  0  0  0  0  0  0  0  0  0  0  0
   -2.5229   -2.0787    1.2980 C   0  0  0  0  0  0  0  0  0  0  0  0
   -1.5999   -2.7227    1.7810 O   0  0  0  0  0  0  0  0  0  0  0  0
   -2.3659   -0.8447    0.8120 N   0  0  0  0  0  0  0  0  0  0  0  0
   -3.1749   -0.3807    0.4220 H   0  0  0  0  0  0  0  0  0  0  0  0
   -1.0919   -0.1077    0.8170 C   0  0  1  0  0  0  0  0  0  0  0  0
   -0.3571   -0.6901    0.2581 H   0  0  0  0  0  0  0  0  0  0  0  0
   -1.3037    1.2411    0.1040 C   0  0  0  0  0  0  0  0  0  0  0  0
   -0.6161    1.9722    0.5320 H   0  0  0  0  0  0  0  0  0  0  0  0
   -1.0644    1.1284   -0.9552 H   0  0  0  0  0  0  0  0  0  0  0  0
   -2.7343    1.7834    0.2446 C   0  0  0  0  0  0  0  0  0  0  0  0
   -3.4347    0.9525    0.3380 H   0  0  0  0  0  0  0  0  0  0  0  0
   -2.7967    2.4047    1.1401 H   0  0  0  0  0  0  0  0  0  0  0  0
   -3.1107    2.6234   -0.9838 C   0  0  0  0  0  0  0  0  0  0  0  0
   -2.3985    3.4461   -1.0832 H   0  0  0  0  0  0  0  0  0  0  0  0
   -3.0556    1.9953   -1.8751 H   0  0  0  0  0  0  0  0  0  0  0  0
   -4.5296    3.1861   -0.8336 C   0  0  0  0  0  0  0  0  0  0  0  0
   -5.2259    2.3479   -0.7277 H   0  0  0  0  0  0  0  0  0  0  0  0
   -4.5738    3.7767    0.0865 H   0  0  0  0  0  0  0  0  0  0  0  0
   -4.9109    4.0235   -1.9988 N   0  3  0  0  0  0  0  0  0  0  0  0
   -4.8821    3.4796   -2.8521 H   0  0  0  0  0  0  0  0  0  0  0  0
   -5.8488    4.3871   -1.8841 H   0  0  0  0  0  0  0  0  0  0  0  0
   -4.2745    4.8060   -2.0959 H   0  0  0  0  0  0  0  0  0  0  0  0
   -0.5865    0.0771    2.2496 C   0  0  0  0  0  0  0  0  0  0  0  0
    0.5860   -0.1608    2.5143 O   0  0  0  0  0  0  0  0  0  0  0  0
   -1.4786    0.4656    3.1667 N   0  0  0  0  0  0  0  0  0  0  0  0
   -2.4139    0.6698    2.8558 H   0  0  0  0  0  0  0  0  0  0  0  0
   -1.1587    0.6908    4.5775 C   0  0  0  0  0  0  0  0  0  0  0  0
   -0.4270    1.4968    4.6656 H   0  0  0  0  0  0  0  0  0  0  0  0
   -2.0565    0.9649    5.1327 H   0  0  0  0  0  0  0  0  0  0  0  0
   -0.7281   -0.2137    5.0125 H   0  0  0  0  0  0  0  0  0  0  0  0
  5  6  2  0  0  0  0
  5  7  1  0  0  0  0
  2  3  1  0  0  0  0
  2  4  1  0  0  0  0
  2  5  1  0  0  0  0
  1  2  1  0  0  0  0
 27 28  2  0  0  0  0
 27 29  1  0  0  0  0
 23 24  1  0  0  0  0
 23 25  1  0  0  0  0
 23 26  1  0  0  0  0
 20 21  1  0  0  0  0
 20 22  1  0  0  0  0
 20 23  1  0  0  0  0
 17 18  1  0  0  0  0
 17 19  1  0  0  0  0
 17 20  1  0  0  0  0
 14 15  1  0  0  0  0
 14 16  1  0  0  0  0
 14 17  1  0  0  0  0
 11 12  1  0  0  0  0
 11 13  1  0  0  0  0
 11 14  1  0  0  0  0
  9 10  1  0  0  0  0
  9 11  1  0  0  0  0
  9 27  1  0  0  0  0
  7  8  1  0  0  0  0
  7  9  1  0  0  0  0
 31 32  1  0  0  0  0
 31 33  1  0  0  0  0
 31 34  1  0  0  0  0
 29 30  1  0  0  0  0
 29 31  1  0  0  0  0
M  CHG  1  23   1
M  END
$$$$
default_name
  -OEChem-02102213163D

 34 33  0     1  0  0  0  0  0999 V2000
   -3.8899   -3.6747    1.6490 H   0  0  0  0  0  0  0  0  0  0  0  0
   -3.9109   -2.6717    1.2250 C   0  0  0  0  0  0  0  0  0  0  0  0
   -4.6009   -2.0517    1.7950 H   0  0  0  0  0  0  0  0  0  0  0  0
   -4.2309   -2.7237    0.1860 H   0  0  0  0  0  0  0  0  0  0  0  0
   -2.5229   -2.0787    1.2980 C   0  0  0  0  0  0  0  0  0  0  0  0
   -1.5999   -2.7227    1.7810 O   0  0  0  0  0  0  0  0  0  0  0  0
   -2.3659   -0.8447    0.8120 N   0  0  0  0  0  0  0  0  0  0  0  0
   -3.1749   -0.3807    0.4220 H   0  0  0  0  0  0  0  0  0  0  0  0
   -1.0919   -0.1077    0.8170 C   0  0  1  0  0  0  0  0  0  0  0  0
   -0.3571   -0.6901    0.2581 H   0  0  0  0  0  0  0  0  0  0  0  0
   -1.3037    1.2411    0.1040 C   0  0  0  0  0  0  0  0  0  0  0  0
   -0.6161    1.9722    0.5320 H   0  0  0  0  0  0  0  0  0  0  0  0
   -1.0644    1.1284   -0.9552 H   0  0  0  0  0  0  0  0  0  0  0  0
   -2.7343    1.7834    0.2446 C   0  0  0  0  0  0  0  0  0  0  0  0
   -3.3943    0.9911    0.6003 H   0  0  0  0  0  0  0  0  0  0  0  0
   -2.7389    2.6022    0.9667 H   0  0  0  0  0  0  0  0  0  0  0  0
   -3.2469    2.2963   -1.1083 C   0  0  0  0  0  0  0  0  0  0  0  0
   -2.5755    3.0792   -1.4689 H   0  0  0  0  0  0  0  0  0  0  0  0
   -3.2491    1.4718   -1.8240 H   0  0  0  0  0  0  0  0  0  0  0  0
   -4.6658    2.8608   -0.9644 C   0  0  0  0  0  0  0  0  0  0  0  0
   -5.3203    2.0645   -0.5953 H   0  0  0  0  0  0  0  0  0  0  0  0
   -4.6490    3.6560   -0.2129 H   0  0  0  0  0  0  0  0  0  0  0  0
   -5.1777    3.3864   -2.2552 N   0  3  0  0  0  0  0  0  0  0  0  0
   -5.2055    2.6525   -2.9519 H   0  0  0  0  0  0  0  0  0  0  0  0
   -6.1138    3.7552   -2.1432 H   0  0  0  0  0  0  0  0  0  0  0  0
   -4.5800    4.1300   -2.5967 H   0  0  0  0  0  0  0  0  0  0  0  0
   -0.5865    0.0771    2.2496 C   0  0  0  0  0  0  0  0  0  0  0  0
    0.5860   -0.1608    2.5143 O   0  0  0  0  0  0  0  0  0  0  0  0
   -1.4786    0.4656    3.1667 N   0  0  0  0  0  0  0  0  0  0  0  0
   -2.4139    0.6698    2.8558 H   0  0  0  0  0  0  0  0  0  0  0  0
   -1.1587    0.6908    4.5775 C   0  0  0  0  0  0  0  0  0  0  0  0
   -0.4270    1.4968    4.6656 H   0  0  0  0  0  0  0  0  0  0  0  0
   -2.0565    0.9649    5.1327 H   0  0  0  0  0  0  0  0  0  0  0  0
   -0.7281   -0.2137    5.0125 H   0  0  0  0  0  0  0  0  0  0  0  0
  5  6  2  0  0  0  0
  5  7  1  0  0  0  0
  2  3  1  0  0  0  0
  2  4  1  0  0  0  0
  2  5  1  0  0  0  0
  1  2  1  0  0  0  0
 27 28  2  0  0  0  0
 27 29  1  0  0  0  0
 23 24  1  0  0  0  0
 23 25  1  0  0  0  0
 23 26  1  0  0  0  0
 20 21  1  0  0  0  0
 20 22  1  0  0  0  0
 20 23  1  0  0  0  0
 17 18  1  0  0  0  0
 17 19  1  0  0  0  0
 17 20  1  0  0  0  0
 14 15  1  0  0  0  0
 14 16  1  0  0  0  0
 14 17  1  0  0  0  0
 11 12  1  0  0  0  0
 11 13  1  0  0  0  0
 11 14  1  0  0  0  0
  9 10  1  0  0  0  0
  9 11  1  0  0  0  0
  9 27  1  0  0  0  0
  7  8  1  0  0  0  0
  7  9  1  0  0  0  0
 31 32  1  0  0  0  0
 31 33  1  0  0  0  0
 31 34  1  0  0  0  0
 29 30  1  0  0  0  0
 29 31  1  0  0  0  0
M  CHG  1  23   1
M  END
$$$$
default_name
  -OEChem-02102213163D

 34 33  0     1  0  0  0  0  0999 V2000
   -3.8899   -3.6747    1.6490 H   0  0  0  0  0  0  0  0  0  0  0  0
   -3.9109   -2.6717    1.2250 C   0  0  0  0  0  0  0  0  0  0  0  0
   -4.6009   -2.0517    1.7950 H   0  0  0  0  0  0  0  0  0  0  0  0
   -4.2309   -2.7237    0.1860 H   0  0  0  0  0  0  0  0  0  0  0  0
   -2.5229   -2.0787    1.2980 C   0  0  0  0  0  0  0  0  0  0  0  0
   -1.5999   -2.7227    1.7810 O   0  0  0  0  0  0  0  0  0  0  0  0
   -2.3659   -0.8447    0.8120 N   0  0  0  0  0  0  0  0  0  0  0  0
   -3.1749   -0.3807    0.4220 H   0  0  0  0  0  0  0  0  0  0  0  0
   -1.0919   -0.1077    0.8170 C   0  0  1  0  0  0  0  0  0  0  0  0
   -0.3571   -0.6901    0.2581 H   0  0  0  0  0  0  0  0  0  0  0  0
   -1.3037    1.2411    0.1040 C   0  0  0  0  0  0  0  0  0  0  0  0
   -0.6161    1.9722    0.5320 H   0  0  0  0  0  0  0  0  0  0  0  0
   -1.0644    1.1284   -0.9552 H   0  0  0  0  0  0  0  0  0  0  0  0
   -2.7343    1.7834    0.2446 C   0  0  0  0  0  0  0  0  0  0  0  0
   -3.3322    1.0926    0.8405 H   0  0  0  0  0  0  0  0  0  0  0  0
   -2.7036    2.7526    0.7463 H   0  0  0  0  0  0  0  0  0  0  0  0
   -3.3822    1.9471   -1.1373 C   0  0  0  0  0  0  0  0  0  0  0  0
   -2.7730    2.6277   -1.7368 H   0  0  0  0  0  0  0  0  0  0  0  0
   -3.4189    0.9739   -1.6308 H   0  0  0  0  0  0  0  0  0  0  0  0
   -4.8015    2.5119   -0.9999 C   0  0  0  0  0  0  0  0  0  0  0  0
   -5.3927    1.8205   -0.3906 H   0  0  0  0  0  0  0  0  0  0  0  0
   -4.7461    3.4655   -0.4662 H   0  0  0  0  0  0  0  0  0  0  0  0
   -5.4437    2.7029   -2.3249 N   0  3  0  0  0  0  0  0  0  0  0  0
   -5.5074    1.8219   -2.8194 H   0  0  0  0  0  0  0  0  0  0  0  0
   -6.3786    3.0761   -2.2169 H   0  0  0  0  0  0  0  0  0  0  0  0
   -4.9048    3.3491   -2.8897 H   0  0  0  0  0  0  0  0  0  0  0  0
   -0.5865    0.0771    2.2496 C   0  0  0  0  0  0  0  0  0  0  0  0
    0.5860   -0.1608    2.5143 O   0  0  0  0  0  0  0  0  0  0  0  0
   -1.4786    0.4656    3.1667 N   0  0  0  0  0  0  0  0  0  0  0  0
   -2.4139    0.6698    2.8558 H   0  0  0  0  0  0  0  0  0  0  0  0
   -1.1587    0.6908    4.5775 C   0  0  0  0  0  0  0  0  0  0  0  0
   -0.4270    1.4968    4.6656 H   0  0  0  0  0  0  0  0  0  0  0  0
   -2.0565    0.9649    5.1327 H   0  0  0  0  0  0  0  0  0  0  0  0
   -0.7281   -0.2137    5.0125 H   0  0  0  0  0  0  0  0  0  0  0  0
  5  6  2  0  0  0  0
  5  7  1  0  0  0  0
  2  3  1  0  0  0  0
  2  4  1  0  0  0  0
  2  5  1  0  0  0  0
  1  2  1  0  0  0  0
 27 28  2  0  0  0  0
 27 29  1  0  0  0  0
 23 24  1  0  0  0  0
 23 25  1  0  0  0  0
 23 26  1  0  0  0  0
 20 21  1  0  0  0  0
 20 22  1  0  0  0  0
 20 23  1  0  0  0  0
 17 18  1  0  0  0  0
 17 19  1  0  0  0  0
 17 20  1  0  0  0  0
 14 15  1  0  0  0  0
 14 16  1  0  0  0  0
 14 17  1  0  0  0  0
 11 12  1  0  0  0  0
 11 13  1  0  0  0  0
 11 14  1  0  0  0  0
  9 10  1  0  0  0  0
  9 11  1  0  0  0  0
  9 27  1  0  0  0  0
  7  8  1  0  0  0  0
  7  9  1  0  0  0  0
 31 32  1  0  0  0  0
 31 33  1  0  0  0  0
 31 34  1  0  0  0  0
 29 30  1  0  0  0  0
 29 31  1  0  0  0  0
M  CHG  1  23   1
M  END
$$$$
default_name
  -OEChem-02102213163D

 34 33  0     1  0  0  0  0  0999 V2000
   -3.8899   -3.6747    1.6490 H   0  0  0  0  0  0  0  0  0  0  0  0
   -3.9109   -2.6717    1.2250 C   0  0  0  0  0  0  0  0  0  0  0  0
   -4.6009   -2.0517    1.7950 H   0  0  0  0  0  0  0  0  0  0  0  0
   -4.2309   -2.7237    0.1860 H   0  0  0  0  0  0  0  0  0  0  0  0
   -2.5229   -2.0787    1.2980 C   0  0  0  0  0  0  0  0  0  0  0  0
   -1.5999   -2.7227    1.7810 O   0  0  0  0  0  0  0  0  0  0  0  0
   -2.3659   -0.8447    0.8120 N   0  0  0  0  0  0  0  0  0  0  0  0
   -3.1749   -0.3807    0.4220 H   0  0  0  0  0  0  0  0  0  0  0  0
   -1.0919   -0.1077    0.8170 C   0  0  1  0  0  0  0  0  0  0  0  0
   -0.3571   -0.6901    0.2581 H   0  0  0  0  0  0  0  0  0  0  0  0
   -1.3037    1.2411    0.1040 C   0  0  0  0  0  0  0  0  0  0  0  0
   -0.6161    1.9722    0.5320 H   0  0  0  0  0  0  0  0  0  0  0  0
   -1.0644    1.1284   -0.9552 H   0  0  0  0  0  0  0  0  0  0  0  0
   -2.7343    1.7834    0.2446 C   0  0  0  0  0  0  0  0  0  0  0  0
   -3.2527    1.2500    1.0425 H   0  0  0  0  0  0  0  0  0  0  0  0
   -2.6931    2.8455    0.4940 H   0  0  0  0  0  0  0  0  0  0  0  0
   -3.5072    1.5996   -1.0688 C   0  0  0  0  0  0  0  0  0  0  0  0
   -2.9775    2.1224   -1.8687 H   0  0  0  0  0  0  0  0  0  0  0  0
   -3.5534    0.5354   -1.3087 H   0  0  0  0  0  0  0  0  0  0  0  0
   -4.9277    2.1631   -0.9377 C   0  0  0  0  0  0  0  0  0  0  0  0
   -5.4382    1.6324   -0.1274 H   0  0  0  0  0  0  0  0  0  0  0  0
   -4.8585    3.2181   -0.6560 H   0  0  0  0  0  0  0  0  0  0  0  0
   -5.6908    2.0196   -2.2032 N   0  3  0  0  0  0  0  0  0  0  0  0
   -5.7672    1.0443   -2.4636 H   0  0  0  0  0  0  0  0  0  0  0  0
   -6.6249    2.3961   -2.1003 H   0  0  0  0  0  0  0  0  0  0  0  0
   -5.2269    2.5165   -2.9547 H   0  0  0  0  0  0  0  0  0  0  0  0
   -0.5865    0.0771    2.2496 C   0  0  0  0  0  0  0  0  0  0  0  0
    0.5860   -0.1608    2.5143 O   0  0  0  0  0  0  0  0  0  0  0  0
   -1.4786    0.4656    3.1667 N   0  0  0  0  0  0  0  0  0  0  0  0
   -2.4139    0.6698    2.8558 H   0  0  0  0  0  0  0  0  0  0  0  0
   -1.1587    0.6908    4.5775 C   0  0  0  0  0  0  0  0  0  0  0  0
   -0.4270    1.4968    4.6656 H   0  0  0  0  0  0  0  0  0  0  0  0
   -2.0565    0.9649    5.1327 H   0  0  0  0  0  0  0  0  0  0  0  0
   -0.7281   -0.2137    5.0125 H   0  0  0  0  0  0  0  0  0  0  0  0
  5  6  2  0  0  0  0
  5  7  1  0  0  0  0
  2  3  1  0  0  0  0
  2  4  1  0  0  0  0
  2  5  1  0  0  0  0
  1  2  1  0  0  0  0
 27 28  2  0  0  0  0
 27 29  1  0  0  0  0
 23 24  1  0  0  0  0
 23 25  1  0  0  0  0
 23 26  1  0  0  0  0
 20 21  1  0  0  0  0
 20 22  1  0  0  0  0
 20 23  1  0  0  0  0
 17 18  1  0  0  0  0
 17 19  1  0  0  0  0
 17 20  1  0  0  0  0
 14 15  1  0  0  0  0
 14 16  1  0  0  0  0
 14 17  1  0  0  0  0
 11 12  1  0  0  0  0
 11 13  1  0  0  0  0
 11 14  1  0  0  0  0
  9 10  1  0  0  0  0
  9 11  1  0  0  0  0
  9 27  1  0  0  0  0
  7  8  1  0  0  0  0
  7  9  1  0  0  0  0
 31 32  1  0  0  0  0
 31 33  1  0  0  0  0
 31 34  1  0  0  0  0
 29 30  1  0  0  0  0
 29 31  1  0  0  0  0
M  CHG  1  23   1
M  END
$$$$
default_name
  -OEChem-02102213163D

 34 33  0     1  0  0  0  0  0999 V2000
   -3.8899   -3.6747    1.6490 H   0  0  0  0  0  0  0  0  0  0  0  0
   -3.9109   -2.6717    1.2250 C   0  0  0  0  0  0  0  0  0  0  0  0
   -4.6009   -2.0517    1.7950 H   0  0  0  0  0  0  0  0  0  0  0  0
   -4.2309   -2.7237    0.1860 H   0  0  0  0  0  0  0  0  0  0  0  0
   -2.5229   -2.0787    1.2980 C   0  0  0  0  0  0  0  0  0  0  0  0
   -1.5999   -2.7227    1.7810 O   0  0  0  0  0  0  0  0  0  0  0  0
   -2.3659   -0.8447    0.8120 N   0  0  0  0  0  0  0  0  0  0  0  0
   -3.1749   -0.3807    0.4220 H   0  0  0  0  0  0  0  0  0  0  0  0
   -1.0919   -0.1077    0.8170 C   0  0  1  0  0  0  0  0  0  0  0  0
   -0.3571   -0.6901    0.2581 H   0  0  0  0  0  0  0  0  0  0  0  0
   -1.3037    1.2411    0.1040 C   0  0  0  0  0  0  0  0  0  0  0  0
   -0.6161    1.9722    0.5320 H   0  0  0  0  0  0  0  0  0  0  0  0
   -1.0644    1.1284   -0.9552 H   0  0  0  0  0  0  0  0  0  0  0  0
   -2.7343    1.7834    0.2446 C   0  0  0  0  0  0  0  0  0  0  0  0
   -3.1611    1.4527    1.1924 H   0  0  0  0  0  0  0  0  0  0  0  0
   -2.7083    2.8747    0.2269 H   0  0  0  0  0  0  0  0  0  0  0  0
   -3.6135    1.2774   -0.9074 C   0  0  0  0  0  0  0  0  0  0  0  0
   -3.1752    1.5976   -1.8557 H   0  0  0  0  0  0  0  0  0  0  0  0
   -3.6436    0.1864   -0.8796 H   0  0  0  0  0  0  0  0  0  0  0  0
   -5.0356    1.8382   -0.7821 C   0  0  0  0  0  0  0  0  0  0  0  0
   -5.4535    1.5131    0.1763 H   0  0  0  0  0  0  0  0  0  0  0  0
   -4.9786    2.9308   -0.7695 H   0  0  0  0  0  0  0  0  0  0  0  0
   -5.9022    1.3830   -1.8985 N   0  3  0  0  0  0  0  0  0  0  0  0
   -5.9673    0.3729   -1.9089 H   0  0  0  0  0  0  0  0  0  0  0  0
   -6.8361    1.7616   -1.8013 H   0  0  0  0  0  0  0  0  0  0  0  0
   -5.5242    1.6890   -2.7875 H   0  0  0  0  0  0  0  0  0  0  0  0
   -0.5865    0.0771    2.2496 C   0  0  0  0  0  0  0  0  0  0  0  0
    0.5860   -0.1608    2.5143 O   0  0  0  0  0  0  0  0  0  0  0  0
   -1.4786    0.4656    3.1667 N   0  0  0  0  0  0  0  0  0  0  0  0
   -2.4139    0.6698    2.8558 H   0  0  0  0  0  0  0  0  0  0  0  0
   -1.1587    0.6908    4.5775 C   0  0  0  0  0  0  0  0  0  0  0  0
   -0.4270    1.4968    4.6656 H   0  0  0  0  0  0  0  0  0  0  0  0
   -2.0565    0.9649    5.1327 H   0  0  0  0  0  0  0  0  0  0  0  0
   -0.7281   -0.2137    5.0125 H   0  0  0  0  0  0  0  0  0  0  0  0
  5  6  2  0  0  0  0
  5  7  1  0  0  0  0
  2  3  1  0  0  0  0
  2  4  1  0  0  0  0
  2  5  1  0  0  0  0
  1  2  1  0  0  0  0
 27 28  2  0  0  0  0
 27 29  1  0  0  0  0
 23 24  1  0  0  0  0
 23 25  1  0  0  0  0
 23 26  1  0  0  0  0
 20 21  1  0  0  0  0
 20 22  1  0  0  0  0
 20 23  1  0  0  0  0
 17 18  1  0  0  0  0
 17 19  1  0  0  0  0
 17 20  1  0  0  0  0
 14 15  1  0  0  0  0
 14 16  1  0  0  0  0
 14 17  1  0  0  0  0
 11 12  1  0  0  0  0
 11 13  1  0  0  0  0
 11 14  1  0  0  0  0
  9 10  1  0  0  0  0
  9 11  1  0  0  0  0
  9 27  1  0  0  0  0
  7  8  1  0  0  0  0
  7  9  1  0  0  0  0
 31 32  1  0  0  0  0
 31 33  1  0  0  0  0
 31 34  1  0  0  0  0
 29 30  1  0  0  0  0
 29 31  1  0  0  0  0
M  CHG  1  23   1
M  END
$$$$
default_name
  -OEChem-02102213163D

 34 33  0     1  0  0  0  0  0999 V2000
   -3.8899   -3.6747    1.6490 H   0  0  0  0  0  0  0  0  0  0  0  0
   -3.9109   -2.6717    1.2250 C   0  0  0  0  0  0  0  0  0  0  0  0
   -4.6009   -2.0517    1.7950 H   0  0  0  0  0  0  0  0  0  0  0  0
   -4.2309   -2.7237    0.1860 H   0  0  0  0  0  0  0  0  0  0  0  0
   -2.5229   -2.0787    1.2980 C   0  0  0  0  0  0  0  0  0  0  0  0
   -1.5999   -2.7227    1.7810 O   0  0  0  0  0  0  0  0  0  0  0  0
   -2.3659   -0.8447    0.8120 N   0  0  0  0  0  0  0  0  0  0  0  0
   -3.1749   -0.3807    0.4220 H   0  0  0  0  0  0  0  0  0  0  0  0
   -1.0919   -0.1077    0.8170 C   0  0  1  0  0  0  0  0  0  0  0  0
   -0.3571   -0.6901    0.2581 H   0  0  0  0  0  0  0  0  0  0  0  0
   -1.3037    1.2411    0.1040 C   0  0  0  0  0  0  0  0  0  0  0  0
   -0.6161    1.9722    0.5320 H   0  0  0  0  0  0  0  0  0  0  0  0
   -1.0644    1.1284   -0.9552 H   0  0  0  0  0  0  0  0  0  0  0  0
   -2.7343    1.7834    0.2446 C   0  0  0  0  0  0  0  0  0  0  0  0
   -3.0638    1.6866    1.2799 H   0  0  0  0  0  0  0  0  0  0  0  0
   -2.7481    2.8382   -0.0367 H   0  0  0  0  0  0  0  0  0  0  0  0
   -3.6937    1.0027   -0.6642 C   0  0  0  0  0  0  0  0  0  0  0  0
   -3.3525    1.0892   -1.6986 H   0  0  0  0  0  0  0  0  0  0  0  0
   -3.6832   -0.0495   -0.3728 H   0  0  0  0  0  0  0  0  0  0  0  0
   -5.1179    1.5592   -0.5435 C   0  0  0  0  0  0  0  0  0  0  0  0
   -5.4378    1.4707    0.4998 H   0  0  0  0  0  0  0  0  0  0  0  0
   -5.0982    2.6230   -0.7989 H   0  0  0  0  0  0  0  0  0  0  0  0
   -6.0634    0.8366   -1.4314 N   0  3  0  0  0  0  0  0  0  0  0  0
   -6.0939   -0.1468   -1.1930 H   0  0  0  0  0  0  0  0  0  0  0  0
   -6.9977    1.2158   -1.3402 H   0  0  0  0  0  0  0  0  0  0  0  0
   -5.7765    0.9229   -2.3994 H   0  0  0  0  0  0  0  0  0  0  0  0
   -0.5865    0.0771    2.2496 C   0  0  0  0  0  0  0  0  0  0  0  0
    0.5860   -0.1608    2.5143 O   0  0  0  0  0  0  0  0  0  0  0  0
   -1.4786    0.4656    3.1667 N   0  0  0  0  0  0  0  0  0  0  0  0
   -2.4139    0.6698    2.8558 H   0  0  0  0  0  0  0  0  0  0  0  0
   -1.1587    0.6908    4.5775 C   0  0  0  0  0  0  0  0  0  0  0  0
   -0.4270    1.4968    4.6656 H   0  0  0  0  0  0  0  0  0  0  0  0
   -2.0565    0.9649    5.1327 H   0  0  0  0  0  0  0  0  0  0  0  0
   -0.7281   -0.2137    5.0125 H   0  0  0  0  0  0  0  0  0  0  0  0
  5  6  2  0  0  0  0
  5  7  1  0  0  0  0
  2  3  1  0  0  0  0
  2  4  1  0  0  0  0
  2  5  1  0  0  0  0
  1  2  1  0  0  0  0
 27 28  2  0  0  0  0
 27 29  1  0  0  0  0
 23 24  1  0  0  0  0
 23 25  1  0  0  0  0
 23 26  1  0  0  0  0
 20 21  1  0  0  0  0
 20 22  1  0  0  0  0
 20 23  1  0  0  0  0
 17 18  1  0  0  0  0
 17 19  1  0  0  0  0
 17 20  1  0  0  0  0
 14 15  1  0  0  0  0
 14 16  1  0  0  0  0
 14 17  1  0  0  0  0
 11 12  1  0  0  0  0
 11 13  1  0  0  0  0
 11 14  1  0  0  0  0
  9 10  1  0  0  0  0
  9 11  1  0  0  0  0
  9 27  1  0  0  0  0
  7  8  1  0  0  0  0
  7  9  1  0  0  0  0
 31 32  1  0  0  0  0
 31 33  1  0  0  0  0
 31 34  1  0  0  0  0
 29 30  1  0  0  0  0
 29 31  1  0  0  0  0
M  CHG  1  23   1
M  END
$$$$
default_name
  -OEChem-02102213163D

 34 33  0     1  0  0  0  0  0999 V2000
   -3.8899   -3.6747    1.6490 H   0  0  0  0  0  0  0  0  0  0  0  0
   -3.9109   -2.6717    1.2250 C   0  0  0  0  0  0  0  0  0  0  0  0
   -4.6009   -2.0517    1.7950 H   0  0  0  0  0  0  0  0  0  0  0  0
   -4.2309   -2.7237    0.1860 H   0  0  0  0  0  0  0  0  0  0  0  0
   -2.5229   -2.0787    1.2980 C   0  0  0  0  0  0  0  0  0  0  0  0
   -1.5999   -2.7227    1.7810 O   0  0  0  0  0  0  0  0  0  0  0  0
   -2.3659   -0.8447    0.8120 N   0  0  0  0  0  0  0  0  0  0  0  0
   -3.1749   -0.3807    0.4220 H   0  0  0  0  0  0  0  0  0  0  0  0
   -1.0919   -0.1077    0.8170 C   0  0  1  0  0  0  0  0  0  0  0  0
   -0.3571   -0.6901    0.2581 H   0  0  0  0  0  0  0  0  0  0  0  0
   -1.3037    1.2411    0.1040 C   0  0  0  0  0  0  0  0  0  0  0  0
   -0.6161    1.9722    0.5320 H   0  0  0  0  0  0  0  0  0  0  0  0
   -1.0644    1.1284   -0.9552 H   0  0  0  0  0  0  0  0  0  0  0  0
   -2.7343    1.7834    0.2446 C   0  0  0  0  0  0  0  0  0  0  0  0
   -2.9673    1.9361    1.2992 H   0  0  0  0  0  0  0  0  0  0  0  0
   -2.8097    2.7385   -0.2790 H   0  0  0  0  0  0  0  0  0  0  0  0
   -3.7425    0.7940   -0.3557 C   0  0  0  0  0  0  0  0  0  0  0  0
   -3.4974    0.6317   -1.4081 H   0  0  0  0  0  0  0  0  0  0  0  0
   -3.6696   -0.1561    0.1772 H   0  0  0  0  0  0  0  0  0  0  0  0
   -5.1690    1.3454   -0.2384 C   0  0  0  0  0  0  0  0  0  0  0  0
   -5.3921    1.5081    0.8211 H   0  0  0  0  0  0  0  0  0  0  0  0
   -5.2091    2.3159   -0.7422 H   0  0  0  0  0  0  0  0  0  0  0  0
   -6.1636    0.4175   -0.8337 N   0  3  0  0  0  0  0  0  0  0  0  0
   -6.1385   -0.4792   -0.3646 H   0  0  0  0  0  0  0  0  0  0  0  0
   -7.0988    0.7958   -0.7486 H   0  0  0  0  0  0  0  0  0  0  0  0
   -5.9666    0.2705   -1.8168 H   0  0  0  0  0  0  0  0  0  0  0  0
   -0.5865    0.0771    2.2496 C   0  0  0  0  0  0  0  0  0  0  0  0
    0.5860   -0.1608    2.5143 O   0  0  0  0  0  0  0  0  0  0  0  0
   -1.4786    0.4656    3.1667 N   0  0  0  0  0  0  0  0  0  0  0  0
   -2.4139    0.6698    2.8558 H   0  0  0  0  0  0  0  0  0  0  0  0
   -1.1587    0.6908    4.5775 C   0  0  0  0  0  0  0  0  0  0  0  0
   -0.4270    1.4968    4.6656 H   0  0  0  0  0  0  0  0  0  0  0  0
   -2.0565    0.9649    5.1327 H   0  0  0  0  0  0  0  0  0  0  0  0
   -0.7281   -0.2137    5.0125 H   0  0  0  0  0  0  0  0  0  0  0  0
  5  6  2  0  0  0  0
  5  7  1  0  0  0  0
  2  3  1  0  0  0  0
  2  4  1  0  0  0  0
  2  5  1  0  0  0  0
  1  2  1  0  0  0  0
 27 28  2  0  0  0  0
 27 29  1  0  0  0  0
 23 24  1  0  0  0  0
 23 25  1  0  0  0  0
 23 26  1  0  0  0  0
 20 21  1  0  0  0  0
 20 22  1  0  0  0  0
 20 23  1  0  0  0  0
 17 18  1  0  0  0  0
 17 19  1  0  0  0  0
 17 20  1  0  0  0  0
 14 15  1  0  0  0  0
 14 16  1  0  0  0  0
 14 17  1  0  0  0  0
 11 12  1  0  0  0  0
 11 13  1  0  0  0  0
 11 14  1  0  0  0  0
  9 10  1  0  0  0  0
  9 11  1  0  0  0  0
  9 27  1  0  0  0  0
  7  8  1  0  0  0  0
  7  9  1  0  0  0  0
 31 32  1  0  0  0  0
 31 33  1  0  0  0  0
 31 34  1  0  0  0  0
 29 30  1  0  0  0  0
 29 31  1  0  0  0  0
M  CHG  1  23   1
M  END
$$$$
default_name
  -OEChem-02102213163D

 34 33  0     1  0  0  0  0  0999 V2000
   -3.8899   -3.6747    1.6490 H   0  0  0  0  0  0  0  0  0  0  0  0
   -3.9109   -2.6717    1.2250 C   0  0  0  0  0  0  0  0  0  0  0  0
   -4.6009   -2.0517    1.7950 H   0  0  0  0  0  0  0  0  0  0  0  0
   -4.2309   -2.7237    0.1860 H   0  0  0  0  0  0  0  0  0  0  0  0
   -2.5229   -2.0787    1.2980 C   0  0  0  0  0  0  0  0  0  0  0  0
   -1.5999   -2.7227    1.7810 O   0  0  0  0  0  0  0  0  0  0  0  0
   -2.3659   -0.8447    0.8120 N   0  0  0  0  0  0  0  0  0  0  0  0
   -3.1749   -0.3807    0.4220 H   0  0  0  0  0  0  0  0  0  0  0  0
   -1.0919   -0.1077    0.8170 C   0  0  1  0  0  0  0  0  0  0  0  0
   -0.3571   -0.6901    0.2581 H   0  0  0  0  0  0  0  0  0  0  0  0
   -1.3037    1.2411    0.1040 C   0  0  0  0  0  0  0  0  0  0  0  0
   -0.6161    1.9722    0.5320 H   0  0  0  0  0  0  0  0  0  0  0  0
   -1.0644    1.1284   -0.9552 H   0  0  0  0  0  0  0  0  0  0  0  0
   -2.7343    1.7834    0.2446 C   0  0  0  0  0  0  0  0  0  0  0  0
   -2.8783    2.1839    1.2490 H   0  0  0  0  0  0  0  0  0  0  0  0
   -2.8890    2.5823   -0.4833 H   0  0  0  0  0  0  0  0  0  0  0  0
   -3.7566    0.6656   -0.0030 C   0  0  0  0  0  0  0  0  0  0  0  0
   -3.6000    0.2565   -1.0040 H   0  0  0  0  0  0  0  0  0  0  0  0
   -3.6036   -0.1263    0.7330 H   0  0  0  0  0  0  0  0  0  0  0  0
   -5.1854    1.2111    0.1125 C   0  0  0  0  0  0  0  0  0  0  0  0
   -5.3194    1.6227    1.1182 H   0  0  0  0  0  0  0  0  0  0  0  0
   -5.3037    2.0302   -0.6033 H   0  0  0  0  0  0  0  0  0  0  0  0
   -6.1958    0.1544   -0.1463 N   0  3  0  0  0  0  0  0  0  0  0  0
   -6.0981   -0.6017    0.5197 H   0  0  0  0  0  0  0  0  0  0  0  0
   -7.1324    0.5303   -0.0666 H   0  0  0  0  0  0  0  0  0  0  0  0
   -6.0815   -0.2238   -1.0795 H   0  0  0  0  0  0  0  0  0  0  0  0
   -0.5865    0.0771    2.2496 C   0  0  0  0  0  0  0  0  0  0  0  0
    0.5860   -0.1608    2.5143 O   0  0  0  0  0  0  0  0  0  0  0  0
   -1.4786    0.4656    3.1667 N   0  0  0  0  0  0  0  0  0  0  0  0
   -2.4139    0.6698    2.8558 H   0  0  0  0  0  0  0  0  0  0  0  0
   -1.1587    0.6908    4.5775 C   0  0  0  0  0  0  0  0  0  0  0  0
   -0.4270    1.4968    4.6656 H   0  0  0  0  0  0  0  0  0  0  0  0
   -2.0565    0.9649    5.1327 H   0  0  0  0  0  0  0  0  0  0  0  0
   -0.7281   -0.2137    5.0125 H   0  0  0  0  0  0  0  0  0  0  0  0
  5  6  2  0  0  0  0
  5  7  1  0  0  0  0
  2  3  1  0  0  0  0
  2  4  1  0  0  0  0
  2  5  1  0  0  0  0
  1  2  1  0  0  0  0
 27 28  2  0  0  0  0
 27 29  1  0  0  0  0
 23 24  1  0  0  0  0
 23 25  1  0  0  0  0
 23 26  1  0  0  0  0
 20 21  1  0  0  0  0
 20 22  1  0  0  0  0
 20 23  1  0  0  0  0
 17 18  1  0  0  0  0
 17 19  1  0  0  0  0
 17 20  1  0  0  0  0
 14 15  1  0  0  0  0
 14 16  1  0  0  0  0
 14 17  1  0  0  0  0
 11 12  1  0  0  0  0
 11 13  1  0  0  0  0
 11 14  1  0  0  0  0
  9 10  1  0  0  0  0
  9 11  1  0  0  0  0
  9 27  1  0  0  0  0
  7  8  1  0  0  0  0
  7  9  1  0  0  0  0
 31 32  1  0  0  0  0
 31 33  1  0  0  0  0
 31 34  1  0  0  0  0
 29 30  1  0  0  0  0
 29 31  1  0  0  0  0
M  CHG  1  23   1
M  END
$$$$
default_name
  -OEChem-02102213163D

 34 33  0     1  0  0  0  0  0999 V2000
   -3.8899   -3.6747    1.6490 H   0  0  0  0  0  0  0  0  0  0  0  0
   -3.9109   -2.6717    1.2250 C   0  0  0  0  0  0  0  0  0  0  0  0
   -4.6009   -2.0517    1.7950 H   0  0  0  0  0  0  0  0  0  0  0  0
   -4.2309   -2.7237    0.1860 H   0  0  0  0  0  0  0  0  0  0  0  0
   -2.5229   -2.0787    1.2980 C   0  0  0  0  0  0  0  0  0  0  0  0
   -1.5999   -2.7227    1.7810 O   0  0  0  0  0  0  0  0  0  0  0  0
   -2.3659   -0.8447    0.8120 N   0  0  0  0  0  0  0  0  0  0  0  0
   -3.1749   -0.3807    0.4220 H   0  0  0  0  0  0  0  0  0  0  0  0
   -1.0919   -0.1077    0.8170 C   0  0  1  0  0  0  0  0  0  0  0  0
   -0.3571   -0.6901    0.2581 H   0  0  0  0  0  0  0  0  0  0  0  0
   -1.3037    1.2411    0.1040 C   0  0  0  0  0  0  0  0  0  0  0  0
   -0.6161    1.9722    0.5320 H   0  0  0  0  0  0  0  0  0  0  0  0
   -1.0644    1.1284   -0.9552 H   0  0  0  0  0  0  0  0  0  0  0  0
   -2.7343    1.7834    0.2446 C   0  0  0  0  0  0  0  0  0  0  0  0
   -2.8028    2.4133    1.1325 H   0  0  0  0  0  0  0  0  0  0  0  0
   -2.9805    2.3803   -0.6357 H   0  0  0  0  0  0  0  0  0  0  0  0
   -3.7348    0.6262    0.3699 C   0  0  0  0  0  0  0  0  0  0  0  0
   -3.6532   -0.0111   -0.5139 H   0  0  0  0  0  0  0  0  0  0  0  0
   -3.4899    0.0381    1.2566 H   0  0  0  0  0  0  0  0  0  0  0  0
   -5.1660    1.1656    0.4854 C   0  0  0  0  0  0  0  0  0  0  0  0
   -5.2248    1.8067    1.3710 H   0  0  0  0  0  0  0  0  0  0  0  0
   -5.3757    1.7855   -0.3916 H   0  0  0  0  0  0  0  0  0  0  0  0
   -6.1579    0.0651    0.5840 N   0  3  0  0  0  0  0  0  0  0  0  0
   -5.9753   -0.5059    1.3997 H   0  0  0  0  0  0  0  0  0  0  0  0
   -7.0963    0.4374    0.6592 H   0  0  0  0  0  0  0  0  0  0  0  0
   -6.1135   -0.5262   -0.2377 H   0  0  0  0  0  0  0  0  0  0  0  0
   -0.5865    0.0771    2.2496 C   0  0  0  0  0  0  0  0  0  0  0  0
    0.5860   -0.1608    2.5143 O   0  0  0  0  0  0  0  0  0  0  0  0
   -1.4786    0.4656    3.1667 N   0  0  0  0  0  0  0  0  0  0  0  0
   -2.4139    0.6698    2.8558 H   0  0  0  0  0  0  0  0  0  0  0  0
   -1.1587    0.6908    4.5775 C   0  0  0  0  0  0  0  0  0  0  0  0
   -0.4270    1.4968    4.6656 H   0  0  0  0  0  0  0  0  0  0  0  0
   -2.0565    0.9649    5.1327 H   0  0  0  0  0  0  0  0  0  0  0  0
   -0.7281   -0.2137    5.0125 H   0  0  0  0  0  0  0  0  0  0  0  0
  5  6  2  0  0  0  0
  5  7  1  0  0  0  0
  2  3  1  0  0  0  0
  2  4  1  0  0  0  0
  2  5  1  0  0  0  0
  1  2  1  0  0  0  0
 27 28  2  0  0  0  0
 27 29  1  0  0  0  0
 23 24  1  0  0  0  0
 23 25  1  0  0  0  0
 23 26  1  0  0  0  0
 20 21  1  0  0  0  0
 20 22  1  0  0  0  0
 20 23  1  0  0  0  0
 17 18  1  0  0  0  0
 17 19  1  0  0  0  0
 17 20  1  0  0  0  0
 14 15  1  0  0  0  0
 14 16  1  0  0  0  0
 14 17  1  0  0  0  0
 11 12  1  0  0  0  0
 11 13  1  0  0  0  0
 11 14  1  0  0  0  0
  9 10  1  0  0  0  0
  9 11  1  0  0  0  0
  9 27  1  0  0  0  0
  7  8  1  0  0  0  0
  7  9  1  0  0  0  0
 31 32  1  0  0  0  0
 31 33  1  0  0  0  0
 31 34  1  0  0  0  0
 29 30  1  0  0  0  0
 29 31  1  0  0  0  0
M  CHG  1  23   1
M  END
$$$$
default_name
  -OEChem-02102213163D

 34 33  0     1  0  0  0  0  0999 V2000
   -3.8899   -3.6747    1.6490 H   0  0  0  0  0  0  0  0  0  0  0  0
   -3.9109   -2.6717    1.2250 C   0  0  0  0  0  0  0  0  0  0  0  0
   -4.6009   -2.0517    1.7950 H   0  0  0  0  0  0  0  0  0  0  0  0
   -4.2309   -2.7237    0.1860 H   0  0  0  0  0  0  0  0  0  0  0  0
   -2.5229   -2.0787    1.2980 C   0  0  0  0  0  0  0  0  0  0  0  0
   -1.5999   -2.7227    1.7810 O   0  0  0  0  0  0  0  0  0  0  0  0
   -2.3659   -0.8447    0.8120 N   0  0  0  0  0  0  0  0  0  0  0  0
   -3.1749   -0.3807    0.4220 H   0  0  0  0  0  0  0  0  0  0  0  0
   -1.0919   -0.1077    0.8170 C   0  0  1  0  0  0  0  0  0  0  0  0
   -0.3571   -0.6901    0.2581 H   0  0  0  0  0  0  0  0  0  0  0  0
   -1.3037    1.2411    0.1040 C   0  0  0  0  0  0  0  0  0  0  0  0
   -0.6161    1.9722    0.5320 H   0  0  0  0  0  0  0  0  0  0  0  0
   -1.0644    1.1284   -0.9552 H   0  0  0  0  0  0  0  0  0  0  0  0
   -2.7343    1.7834    0.2446 C   0  0  0  0  0  0  0  0  0  0  0  0
   -2.7459    2.6087    0.9579 H   0  0  0  0  0  0  0  0  0  0  0  0
   -3.0781    2.1463   -0.7260 H   0  0  0  0  0  0  0  0  0  0  0  0
   -3.6789    0.6785    0.7376 C   0  0  0  0  0  0  0  0  0  0  0  0
   -3.6536   -0.1527    0.0288 H   0  0  0  0  0  0  0  0  0  0  0  0
   -3.3360    0.3257    1.7123 H   0  0  0  0  0  0  0  0  0  0  0  0
   -5.1121    1.2120    0.8547 C   0  0  0  0  0  0  0  0  0  0  0  0
   -5.1147    2.0476    1.5621 H   0  0  0  0  0  0  0  0  0  0  0  0
   -5.4201    1.5984   -0.1215 H   0  0  0  0  0  0  0  0  0  0  0  0
   -6.0524    0.1558    1.3075 N   0  3  0  0  0  0  0  0  0  0  0  0
   -5.7785   -0.1985    2.2154 H   0  0  0  0  0  0  0  0  0  0  0  0
   -6.9929    0.5235    1.3793 H   0  0  0  0  0  0  0  0  0  0  0  0
   -6.0603   -0.6163    0.6512 H   0  0  0  0  0  0  0  0  0  0  0  0
   -0.5865    0.0771    2.2496 C   0  0  0  0  0  0  0  0  0  0  0  0
    0.5860   -0.1608    2.5143 O   0  0  0  0  0  0  0  0  0  0  0  0
   -1.4786    0.4656    3.1667 N   0  0  0  0  0  0  0  0  0  0  0  0
   -2.4139    0.6698    2.8558 H   0  0  0  0  0  0  0  0  0  0  0  0
   -1.1587    0.6908    4.5775 C   0  0  0  0  0  0  0  0  0  0  0  0
   -0.4270    1.4968    4.6656 H   0  0  0  0  0  0  0  0  0  0  0  0
   -2.0565    0.9649    5.1327 H   0  0  0  0  0  0  0  0  0  0  0  0
   -0.7281   -0.2137    5.0125 H   0  0  0  0  0  0  0  0  0  0  0  0
  5  6  2  0  0  0  0
  5  7  1  0  0  0  0
  2  3  1  0  0  0  0
  2  4  1  0  0  0  0
  2  5  1  0  0  0  0
  1  2  1  0  0  0  0
 27 28  2  0  0  0  0
 27 29  1  0  0  0  0
 23 24  1  0  0  0  0
 23 25  1  0  0  0  0
 23 26  1  0  0  0  0
 20 21  1  0  0  0  0
 20 22  1  0  0  0  0
 20 23  1  0  0  0  0
 17 18  1  0  0  0  0
 17 19  1  0  0  0  0
 17 20  1  0  0  0  0
 14 15  1  0  0  0  0
 14 16  1  0  0  0  0
 14 17  1  0  0  0  0
 11 12  1  0  0  0  0
 11 13  1  0  0  0  0
 11 14  1  0  0  0  0
  9 10  1  0  0  0  0
  9 11  1  0  0  0  0
  9 27  1  0  0  0  0
  7  8  1  0  0  0  0
  7  9  1  0  0  0  0
 31 32  1  0  0  0  0
 31 33  1  0  0  0  0
 31 34  1  0  0  0  0
 29 30  1  0  0  0  0
 29 31  1  0  0  0  0
M  CHG  1  23   1
M  END
$$$$
default_name
  -OEChem-02102213163D

 34 33  0     1  0  0  0  0  0999 V2000
   -3.8899   -3.6747    1.6490 H   0  0  0  0  0  0  0  0  0  0  0  0
   -3.9109   -2.6717    1.2250 C   0  0  0  0  0  0  0  0  0  0  0  0
   -4.6009   -2.0517    1.7950 H   0  0  0  0  0  0  0  0  0  0  0  0
   -4.2309   -2.7237    0.1860 H   0  0  0  0  0  0  0  0  0  0  0  0
   -2.5229   -2.0787    1.2980 C   0  0  0  0  0  0  0  0  0  0  0  0
   -1.5999   -2.7227    1.7810 O   0  0  0  0  0  0  0  0  0  0  0  0
   -2.3659   -0.8447    0.8120 N   0  0  0  0  0  0  0  0  0  0  0  0
   -3.1749   -0.3807    0.4220 H   0  0  0  0  0  0  0  0  0  0  0  0
   -1.0919   -0.1077    0.8170 C   0  0  1  0  0  0  0  0  0  0  0  0
   -0.3571   -0.6901    0.2581 H   0  0  0  0  0  0  0  0  0  0  0  0
   -1.3037    1.2411    0.1040 C   0  0  0  0  0  0  0  0  0  0  0  0
   -0.6161    1.9722    0.5320 H   0  0  0  0  0  0  0  0  0  0  0  0
   -1.0644    1.1284   -0.9552 H   0  0  0  0  0  0  0  0  0  0  0  0
   -2.7343    1.7834    0.2446 C   0  0  0  0  0  0  0  0  0  0  0  0
   -2.7115    2.7566    0.7369 H   0  0  0  0  0  0  0  0  0  0  0  0
   -3.1751    1.8962   -0.7478 H   0  0  0  0  0  0  0  0  0  0  0  0
   -3.5924    0.8191    1.0750 C   0  0  0  0  0  0  0  0  0  0  0  0
   -3.6010   -0.1586    0.5873 H   0  0  0  0  0  0  0  0  0  0  0  0
   -3.1526    0.7170    2.0691 H   0  0  0  0  0  0  0  0  0  0  0  0
   -5.0274    1.3470    1.1953 C   0  0  0  0  0  0  0  0  0  0  0  0
   -4.9966    2.3290    1.6787 H   0  0  0  0  0  0  0  0  0  0  0  0
   -5.4339    1.4818    0.1884 H   0  0  0  0  0  0  0  0  0  0  0  0
   -5.8865    0.4203    1.9748 N   0  3  0  0  0  0  0  0  0  0  0  0
   -5.5212    0.2998    2.9112 H   0  0  0  0  0  0  0  0  0  0  0  0
   -6.8293    0.7826    2.0447 H   0  0  0  0  0  0  0  0  0  0  0  0
   -5.9255   -0.4878    1.5267 H   0  0  0  0  0  0  0  0  0  0  0  0
   -0.5865    0.0771    2.2496 C   0  0  0  0  0  0  0  0  0  0  0  0
    0.5860   -0.1608    2.5143 O   0  0  0  0  0  0  0  0  0  0  0  0
   -1.4786    0.4656    3.1667 N   0  0  0  0  0  0  0  0  0  0  0  0
   -2.4139    0.6698    2.8558 H   0  0  0  0  0  0  0  0  0  0  0  0
   -1.1587    0.6908    4.5775 C   0  0  0  0  0  0  0  0  0  0  0  0
   -0.4270    1.4968    4.6656 H   0  0  0  0  0  0  0  0  0  0  0  0
   -2.0565    0.9649    5.1327 H   0  0  0  0  0  0  0  0  0  0  0  0
   -0.7281   -0.2137    5.0125 H   0  0  0  0  0  0  0  0  0  0  0  0
  5  6  2  0  0  0  0
  5  7  1  0  0  0  0
  2  3  1  0  0  0  0
  2  4  1  0  0  0  0
  2  5  1  0  0  0  0
  1  2  1  0  0  0  0
 27 28  2  0  0  0  0
 27 29  1  0  0  0  0
 23 24  1  0  0  0  0
 23 25  1  0  0  0  0
 23 26  1  0  0  0  0
 20 21  1  0  0  0  0
 20 22  1  0  0  0  0
 20 23  1  0  0  0  0
 17 18  1  0  0  0  0
 17 19  1  0  0  0  0
 17 20  1  0  0  0  0
 14 15  1  0  0  0  0
 14 16  1  0  0  0  0
 14 17  1  0  0  0  0
 11 12  1  0  0  0  0
 11 13  1  0  0  0  0
 11 14  1  0  0  0  0
  9 10  1  0  0  0  0
  9 11  1  0  0  0  0
  9 27  1  0  0  0  0
  7  8  1  0  0  0  0
  7  9  1  0  0  0  0
 31 32  1  0  0  0  0
 31 33  1  0  0  0  0
 31 34  1  0  0  0  0
 29 30  1  0  0  0  0
 29 31  1  0  0  0  0
M  CHG  1  23   1
M  END
$$$$
default_name
  -OEChem-02102213163D

 34 33  0     1  0  0  0  0  0999 V2000
   -3.8899   -3.6747    1.6490 H   0  0  0  0  0  0  0  0  0  0  0  0
   -3.9109   -2.6717    1.2250 C   0  0  0  0  0  0  0  0  0  0  0  0
   -4.6009   -2.0517    1.7950 H   0  0  0  0  0  0  0  0  0  0  0  0
   -4.2309   -2.7237    0.1860 H   0  0  0  0  0  0  0  0  0  0  0  0
   -2.5229   -2.0787    1.2980 C   0  0  0  0  0  0  0  0  0  0  0  0
   -1.5999   -2.7227    1.7810 O   0  0  0  0  0  0  0  0  0  0  0  0
   -2.3659   -0.8447    0.8120 N   0  0  0  0  0  0  0  0  0  0  0  0
   -3.1749   -0.3807    0.4220 H   0  0  0  0  0  0  0  0  0  0  0  0
   -1.0919   -0.1077    0.8170 C   0  0  1  0  0  0  0  0  0  0  0  0
   -0.3571   -0.6901    0.2581 H   0  0  0  0  0  0  0  0  0  0  0  0
   -1.3037    1.2411    0.1040 C   0  0  0  0  0  0  0  0  0  0  0  0
   -0.6161    1.9722    0.5320 H   0  0  0  0  0  0  0  0  0  0  0  0
   -1.0644    1.1284   -0.9552 H   0  0  0  0  0  0  0  0  0  0  0  0
   -2.7343    1.7834    0.2446 C   0  0  0  0  0  0  0  0  0  0  0  0
   -2.7020    2.8470    0.4847 H   0  0  0  0  0  0  0  0  0  0  0  0
   -3.2648    1.6471   -0.6998 H   0  0  0  0  0  0  0  0  0  0  0  0
   -3.4814    1.0381    1.3592 C   0  0  0  0  0  0  0  0  0  0  0  0
   -3.4990   -0.0286    1.1233 H   0  0  0  0  0  0  0  0  0  0  0  0
   -2.9521    1.1853    2.3028 H   0  0  0  0  0  0  0  0  0  0  0  0
   -4.9177    1.5616    1.4841 C   0  0  0  0  0  0  0  0  0  0  0  0
   -4.8785    2.6316    1.7126 H   0  0  0  0  0  0  0  0  0  0  0  0
   -5.4161    1.4435    0.5172 H   0  0  0  0  0  0  0  0  0  0  0  0
   -5.6716    0.8404    2.5406 N   0  3  0  0  0  0  0  0  0  0  0  0
   -5.2209    0.9548    3.4398 H   0  0  0  0  0  0  0  0  0  0  0  0
   -6.6165    1.1971    2.6100 H   0  0  0  0  0  0  0  0  0  0  0  0
   -5.7184   -0.1495    2.3291 H   0  0  0  0  0  0  0  0  0  0  0  0
   -0.5865    0.0771    2.2496 C   0  0  0  0  0  0  0  0  0  0  0  0
    0.5860   -0.1608    2.5143 O   0  0  0  0  0  0  0  0  0  0  0  0
   -1.4786    0.4656    3.1667 N   0  0  0  0  0  0  0  0  0  0  0  0
   -2.4139    0.6698    2.8558 H   0  0  0  0  0  0  0  0  0  0  0  0
   -1.1587    0.6908    4.5775 C   0  0  0  0  0  0  0  0  0  0  0  0
   -0.4270    1.4968    4.6656 H   0  0  0  0  0  0  0  0  0  0  0  0
   -2.0565    0.9649    5.1327 H   0  0  0  0  0  0  0  0  0  0  0  0
   -0.7281   -0.2137    5.0125 H   0  0  0  0  0  0  0  0  0  0  0  0
  5  6  2  0  0  0  0
  5  7  1  0  0  0  0
  2  3  1  0  0  0  0
  2  4  1  0  0  0  0
  2  5  1  0  0  0  0
  1  2  1  0  0  0  0
 27 28  2  0  0  0  0
 27 29  1  0  0  0  0
 23 24  1  0  0  0  0
 23 25  1  0  0  0  0
 23 26  1  0  0  0  0
 20 21  1  0  0  0  0
 20 22  1  0  0  0  0
 20 23  1  0  0  0  0
 17 18  1  0  0  0  0
 17 19  1  0  0  0  0
 17 20  1  0  0  0  0
 14 15  1  0  0  0  0
 14 16  1  0  0  0  0
 14 17  1  0  0  0  0
 11 12  1  0  0  0  0
 11 13  1  0  0  0  0
 11 14  1  0  0  0  0
  9 10  1  0  0  0  0
  9 11  1  0  0  0  0
  9 27  1  0  0  0  0
  7  8  1  0  0  0  0
  7  9  1  0  0  0  0
 31 32  1  0  0  0  0
 31 33  1  0  0  0  0
 31 34  1  0  0  0  0
 29 30  1  0  0  0  0
 29 31  1  0  0  0  0
M  CHG  1  23   1
M  END
$$$$
default_name
  -OEChem-02102213163D

 34 33  0     1  0  0  0  0  0999 V2000
   -3.8899   -3.6747    1.6490 H   0  0  0  0  0  0  0  0  0  0  0  0
   -3.9109   -2.6717    1.2250 C   0  0  0  0  0  0  0  0  0  0  0  0
   -4.6009   -2.0517    1.7950 H   0  0  0  0  0  0  0  0  0  0  0  0
   -4.2309   -2.7237    0.1860 H   0  0  0  0  0  0  0  0  0  0  0  0
   -2.5229   -2.0787    1.2980 C   0  0  0  0  0  0  0  0  0  0  0  0
   -1.5999   -2.7227    1.7810 O   0  0  0  0  0  0  0  0  0  0  0  0
   -2.3659   -0.8447    0.8120 N   0  0  0  0  0  0  0  0  0  0  0  0
   -3.1749   -0.3807    0.4220 H   0  0  0  0  0  0  0  0  0  0  0  0
   -1.0919   -0.1077    0.8170 C   0  0  1  0  0  0  0  0  0  0  0  0
   -0.3571   -0.6901    0.2581 H   0  0  0  0  0  0  0  0  0  0  0  0
   -1.3037    1.2411    0.1040 C   0  0  0  0  0  0  0  0  0  0  0  0
   -0.6161    1.9722    0.5320 H   0  0  0  0  0  0  0  0  0  0  0  0
   -1.0644    1.1284   -0.9552 H   0  0  0  0  0  0  0  0  0  0  0  0
   -2.7343    1.7834    0.2446 C   0  0  0  0  0  0  0  0  0  0  0  0
   -2.7180    2.8738    0.2184 H   0  0  0  0  0  0  0  0  0  0  0  0
   -3.3412    1.4159   -0.5852 H   0  0  0  0  0  0  0  0  0  0  0  0
   -3.3534    1.3209    1.5708 C   0  0  0  0  0  0  0  0  0  0  0  0
   -3.3545    0.2287    1.6004 H   0  0  0  0  0  0  0  0  0  0  0  0
   -2.7482    1.6987    2.3972 H   0  0  0  0  0  0  0  0  0  0  0  0
   -4.7904    1.8410    1.7013 C   0  0  0  0  0  0  0  0  0  0  0  0
   -4.7685    2.9350    1.6617 H   0  0  0  0  0  0  0  0  0  0  0  0
   -5.3679    1.4861    0.8423 H   0  0  0  0  0  0  0  0  0  0  0  0
   -5.4223    1.3877    2.9661 N   0  3  0  0  0  0  0  0  0  0  0  0
   -4.8981    1.7220    3.7651 H   0  0  0  0  0  0  0  0  0  0  0  0
   -6.3692    1.7388    3.0367 H   0  0  0  0  0  0  0  0  0  0  0  0
   -5.4530    0.3756    3.0037 H   0  0  0  0  0  0  0  0  0  0  0  0
   -0.5865    0.0771    2.2496 C   0  0  0  0  0  0  0  0  0  0  0  0
    0.5860   -0.1608    2.5143 O   0  0  0  0  0  0  0  0  0  0  0  0
   -1.4786    0.4656    3.1667 N   0  0  0  0  0  0  0  0  0  0  0  0
   -2.4139    0.6698    2.8558 H   0  0  0  0  0  0  0  0  0  0  0  0
   -1.1587    0.6908    4.5775 C   0  0  0  0  0  0  0  0  0  0  0  0
   -0.4270    1.4968    4.6656 H   0  0  0  0  0  0  0  0  0  0  0  0
   -2.0565    0.9649    5.1327 H   0  0  0  0  0  0  0  0  0  0  0  0
   -0.7281   -0.2137    5.0125 H   0  0  0  0  0  0  0  0  0  0  0  0
  5  6  2  0  0  0  0
  5  7  1  0  0  0  0
  2  3  1  0  0  0  0
  2  4  1  0  0  0  0
  2  5  1  0  0  0  0
  1  2  1  0  0  0  0
 27 28  2  0  0  0  0
 27 29  1  0  0  0  0
 23 24  1  0  0  0  0
 23 25  1  0  0  0  0
 23 26  1  0  0  0  0
 20 21  1  0  0  0  0
 20 22  1  0  0  0  0
 20 23  1  0  0  0  0
 17 18  1  0  0  0  0
 17 19  1  0  0  0  0
 17 20  1  0  0  0  0
 14 15  1  0  0  0  0
 14 16  1  0  0  0  0
 14 17  1  0  0  0  0
 11 12  1  0  0  0  0
 11 13  1  0  0  0  0
 11 14  1  0  0  0  0
  9 10  1  0  0  0  0
  9 11  1  0  0  0  0
  9 27  1  0  0  0  0
  7  8  1  0  0  0  0
  7  9  1  0  0  0  0
 31 32  1  0  0  0  0
 31 33  1  0  0  0  0
 31 34  1  0  0  0  0
 29 30  1  0  0  0  0
 29 31  1  0  0  0  0
M  CHG  1  23   1
M  END
$$$$
default_name
  -OEChem-02102213163D

 34 33  0     1  0  0  0  0  0999 V2000
   -3.8899   -3.6747    1.6490 H   0  0  0  0  0  0  0  0  0  0  0  0
   -3.9109   -2.6717    1.2250 C   0  0  0  0  0  0  0  0  0  0  0  0
   -4.6009   -2.0517    1.7950 H   0  0  0  0  0  0  0  0  0  0  0  0
   -4.2309   -2.7237    0.1860 H   0  0  0  0  0  0  0  0  0  0  0  0
   -2.5229   -2.0787    1.2980 C   0  0  0  0  0  0  0  0  0  0  0  0
   -1.5999   -2.7227    1.7810 O   0  0  0  0  0  0  0  0  0  0  0  0
   -2.3659   -0.8447    0.8120 N   0  0  0  0  0  0  0  0  0  0  0  0
   -3.1749   -0.3807    0.4220 H   0  0  0  0  0  0  0  0  0  0  0  0
   -1.0919   -0.1077    0.8170 C   0  0  1  0  0  0  0  0  0  0  0  0
   -0.3571   -0.6901    0.2581 H   0  0  0  0  0  0  0  0  0  0  0  0
   -1.3037    1.2411    0.1040 C   0  0  0  0  0  0  0  0  0  0  0  0
   -0.6161    1.9722    0.5320 H   0  0  0  0  0  0  0  0  0  0  0  0
   -1.0644    1.1284   -0.9552 H   0  0  0  0  0  0  0  0  0  0  0  0
   -2.7343    1.7834    0.2446 C   0  0  0  0  0  0  0  0  0  0  0  0
   -2.7585    2.8352   -0.0438 H   0  0  0  0  0  0  0  0  0  0  0  0
   -3.3990    1.2184   -0.4117 H   0  0  0  0  0  0  0  0  0  0  0  0
   -3.2171    1.6480    1.6953 C   0  0  0  0  0  0  0  0  0  0  0  0
   -3.1776    0.5955    1.9860 H   0  0  0  0  0  0  0  0  0  0  0  0
   -2.5547    2.2222    2.3462 H   0  0  0  0  0  0  0  0  0  0  0  0
   -4.6542    2.1663    1.8321 C   0  0  0  0  0  0  0  0  0  0  0  0
   -4.6741    3.2183    1.5293 H   0  0  0  0  0  0  0  0  0  0  0  0
   -5.2927    1.6068    1.1418 H   0  0  0  0  0  0  0  0  0  0  0  0
   -5.1555    2.0248    3.2225 N   0  3  0  0  0  0  0  0  0  0  0  0
   -4.5747    2.5491    3.8648 H   0  0  0  0  0  0  0  0  0  0  0  0
   -6.1042    2.3707    3.2958 H   0  0  0  0  0  0  0  0  0  0  0  0
   -5.1475    1.0516    3.5045 H   0  0  0  0  0  0  0  0  0  0  0  0
   -0.5865    0.0771    2.2496 C   0  0  0  0  0  0  0  0  0  0  0  0
    0.5860   -0.1608    2.5143 O   0  0  0  0  0  0  0  0  0  0  0  0
   -1.4786    0.4656    3.1667 N   0  0  0  0  0  0  0  0  0  0  0  0
   -2.4139    0.6698    2.8558 H   0  0  0  0  0  0  0  0  0  0  0  0
   -1.1587    0.6908    4.5775 C   0  0  0  0  0  0  0  0  0  0  0  0
   -0.4270    1.4968    4.6656 H   0  0  0  0  0  0  0  0  0  0  0  0
   -2.0565    0.9649    5.1327 H   0  0  0  0  0  0  0  0  0  0  0  0
   -0.7281   -0.2137    5.0125 H   0  0  0  0  0  0  0  0  0  0  0  0
  5  6  2  0  0  0  0
  5  7  1  0  0  0  0
  2  3  1  0  0  0  0
  2  4  1  0  0  0  0
  2  5  1  0  0  0  0
  1  2  1  0  0  0  0
 27 28  2  0  0  0  0
 27 29  1  0  0  0  0
 23 24  1  0  0  0  0
 23 25  1  0  0  0  0
 23 26  1  0  0  0  0
 20 21  1  0  0  0  0
 20 22  1  0  0  0  0
 20 23  1  0  0  0  0
 17 18  1  0  0  0  0
 17 19  1  0  0  0  0
 17 20  1  0  0  0  0
 14 15  1  0  0  0  0
 14 16  1  0  0  0  0
 14 17  1  0  0  0  0
 11 12  1  0  0  0  0
 11 13  1  0  0  0  0
 11 14  1  0  0  0  0
  9 10  1  0  0  0  0
  9 11  1  0  0  0  0
  9 27  1  0  0  0  0
  7  8  1  0  0  0  0
  7  9  1  0  0  0  0
 31 32  1  0  0  0  0
 31 33  1  0  0  0  0
 31 34  1  0  0  0  0
 29 30  1  0  0  0  0
 29 31  1  0  0  0  0
M  CHG  1  23   1
M  END
$$$$
default_name
  -OEChem-02102213163D

 34 33  0     1  0  0  0  0  0999 V2000
   -3.8899   -3.6747    1.6490 H   0  0  0  0  0  0  0  0  0  0  0  0
   -3.9109   -2.6717    1.2250 C   0  0  0  0  0  0  0  0  0  0  0  0
   -4.6009   -2.0517    1.7950 H   0  0  0  0  0  0  0  0  0  0  0  0
   -4.2309   -2.7237    0.1860 H   0  0  0  0  0  0  0  0  0  0  0  0
   -2.5229   -2.0787    1.2980 C   0  0  0  0  0  0  0  0  0  0  0  0
   -1.5999   -2.7227    1.7810 O   0  0  0  0  0  0  0  0  0  0  0  0
   -2.3659   -0.8447    0.8120 N   0  0  0  0  0  0  0  0  0  0  0  0
   -3.1749   -0.3807    0.4220 H   0  0  0  0  0  0  0  0  0  0  0  0
   -1.0919   -0.1077    0.8170 C   0  0  1  0  0  0  0  0  0  0  0  0
   -0.3571   -0.6901    0.2581 H   0  0  0  0  0  0  0  0  0  0  0  0
   -1.3037    1.2411    0.1040 C   0  0  0  0  0  0  0  0  0  0  0  0
   -0.6161    1.9722    0.5320 H   0  0  0  0  0  0  0  0  0  0  0  0
   -1.0644    1.1284   -0.9552 H   0  0  0  0  0  0  0  0  0  0  0  0
   -2.7343    1.7834    0.2446 C   0  0  0  0  0  0  0  0  0  0  0  0
   -2.8206    2.7337   -0.2841 H   0  0  0  0  0  0  0  0  0  0  0  0
   -3.4344    1.0681   -0.1914 H   0  0  0  0  0  0  0  0  0  0  0  0
   -3.0819    1.9972    1.7243 C   0  0  0  0  0  0  0  0  0  0  0  0
   -2.9801    1.0470    2.2539 H   0  0  0  0  0  0  0  0  0  0  0  0
   -2.3849    2.7201    2.1530 H   0  0  0  0  0  0  0  0  0  0  0  0
   -4.5185    2.5152    1.8676 C   0  0  0  0  0  0  0  0  0  0  0  0
   -4.6017    3.4623    1.3246 H   0  0  0  0  0  0  0  0  0  0  0  0
   -5.1956    1.7973    1.3950 H   0  0  0  0  0  0  0  0  0  0  0  0
   -4.8895    2.7083    3.2922 N   0  3  0  0  0  0  0  0  0  0  0  0
   -4.2728    3.3797    3.7323 H   0  0  0  0  0  0  0  0  0  0  0  0
   -5.8395    3.0498    3.3695 H   0  0  0  0  0  0  0  0  0  0  0  0
   -4.8226    1.8325    3.7974 H   0  0  0  0  0  0  0  0  0  0  0  0
   -0.5865    0.0771    2.2496 C   0  0  0  0  0  0  0  0  0  0  0  0
    0.5860   -0.1608    2.5143 O   0  0  0  0  0  0  0  0  0  0  0  0
   -1.4786    0.4656    3.1667 N   0  0  0  0  0  0  0  0  0  0  0  0
   -2.4139    0.6698    2.8558 H   0  0  0  0  0  0  0  0  0  0  0  0
   -1.1587    0.6908    4.5775 C   0  0  0  0  0  0  0  0  0  0  0  0
   -0.4270    1.4968    4.6656 H   0  0  0  0  0  0  0  0  0  0  0  0
   -2.0565    0.9649    5.1327 H   0  0  0  0  0  0  0  0  0  0  0  0
   -0.7281   -0.2137    5.0125 H   0  0  0  0  0  0  0  0  0  0  0  0
  5  6  2  0  0  0  0
  5  7  1  0  0  0  0
  2  3  1  0  0  0  0
  2  4  1  0  0  0  0
  2  5  1  0  0  0  0
  1  2  1  0  0  0  0
 27 28  2  0  0  0  0
 27 29  1  0  0  0  0
 23 24  1  0  0  0  0
 23 25  1  0  0  0  0
 23 26  1  0  0  0  0
 20 21  1  0  0  0  0
 20 22  1  0  0  0  0
 20 23  1  0  0  0  0
 17 18  1  0  0  0  0
 17 19  1  0  0  0  0
 17 20  1  0  0  0  0
 14 15  1  0  0  0  0
 14 16  1  0  0  0  0
 14 17  1  0  0  0  0
 11 12  1  0  0  0  0
 11 13  1  0  0  0  0
 11 14  1  0  0  0  0
  9 10  1  0  0  0  0
  9 11  1  0  0  0  0
  9 27  1  0  0  0  0
  7  8  1  0  0  0  0
  7  9  1  0  0  0  0
 31 32  1  0  0  0  0
 31 33  1  0  0  0  0
 31 34  1  0  0  0  0
 29 30  1  0  0  0  0
 29 31  1  0  0  0  0
M  CHG  1  23   1
M  END
$$$$
default_name
  -OEChem-02102213163D

 34 33  0     1  0  0  0  0  0999 V2000
   -3.8899   -3.6747    1.6490 H   0  0  0  0  0  0  0  0  0  0  0  0
   -3.9109   -2.6717    1.2250 C   0  0  0  0  0  0  0  0  0  0  0  0
   -4.6009   -2.0517    1.7950 H   0  0  0  0  0  0  0  0  0  0  0  0
   -4.2309   -2.7237    0.1860 H   0  0  0  0  0  0  0  0  0  0  0  0
   -2.5229   -2.0787    1.2980 C   0  0  0  0  0  0  0  0  0  0  0  0
   -1.5999   -2.7227    1.7810 O   0  0  0  0  0  0  0  0  0  0  0  0
   -2.3659   -0.8447    0.8120 N   0  0  0  0  0  0  0  0  0  0  0  0
   -3.1749   -0.3807    0.4220 H   0  0  0  0  0  0  0  0  0  0  0  0
   -1.0919   -0.1077    0.8170 C   0  0  1  0  0  0  0  0  0  0  0  0
   -0.3571   -0.6901    0.2581 H   0  0  0  0  0  0  0  0  0  0  0  0
   -1.3037    1.2411    0.1040 C   0  0  0  0  0  0  0  0  0  0  0  0
   -0.6161    1.9722    0.5320 H   0  0  0  0  0  0  0  0  0  0  0  0
   -1.0644    1.1284   -0.9552 H   0  0  0  0  0  0  0  0  0  0  0  0
   -2.7343    1.7834    0.2446 C   0  0  0  0  0  0  0  0  0  0  0  0
   -2.9001    2.5762   -0.4861 H   0  0  0  0  0  0  0  0  0  0  0  0
   -3.4448    0.9751    0.0610 H   0  0  0  0  0  0  0  0  0  0  0  0
   -2.9569    2.3448    1.6558 C   0  0  0  0  0  0  0  0  0  0  0  0
   -2.7755    1.5523    2.3859 H   0  0  0  0  0  0  0  0  0  0  0  0
   -2.2503    3.1585    1.8308 H   0  0  0  0  0  0  0  0  0  0  0  0
   -4.3923    2.8640    1.8054 C   0  0  0  0  0  0  0  0  0  0  0  0
   -4.5562    3.6504    1.0614 H   0  0  0  0  0  0  0  0  0  0  0  0
   -5.0832    2.0447    1.5848 H   0  0  0  0  0  0  0  0  0  0  0  0
   -4.6424    3.3917    3.1705 N   0  3  0  0  0  0  0  0  0  0  0  0
   -4.0130    4.1573    3.3766 H   0  0  0  0  0  0  0  0  0  0  0  0
   -5.5931    3.7297    3.2529 H   0  0  0  0  0  0  0  0  0  0  0  0
   -4.5006    2.6651    3.8625 H   0  0  0  0  0  0  0  0  0  0  0  0
   -0.5865    0.0771    2.2496 C   0  0  0  0  0  0  0  0  0  0  0  0
    0.5860   -0.1608    2.5143 O   0  0  0  0  0  0  0  0  0  0  0  0
   -1.4786    0.4656    3.1667 N   0  0  0  0  0  0  0  0  0  0  0  0
   -2.4139    0.6698    2.8558 H   0  0  0  0  0  0  0  0  0  0  0  0
   -1.1587    0.6908    4.5775 C   0  0  0  0  0  0  0  0  0  0  0  0
   -0.4270    1.4968    4.6656 H   0  0  0  0  0  0  0  0  0  0  0  0
   -2.0565    0.9649    5.1327 H   0  0  0  0  0  0  0  0  0  0  0  0
   -0.7281   -0.2137    5.0125 H   0  0  0  0  0  0  0  0  0  0  0  0
  5  6  2  0  0  0  0
  5  7  1  0  0  0  0
  2  3  1  0  0  0  0
  2  4  1  0  0  0  0
  2  5  1  0  0  0  0
  1  2  1  0  0  0  0
 27 28  2  0  0  0  0
 27 29  1  0  0  0  0
 23 24  1  0  0  0  0
 23 25  1  0  0  0  0
 23 26  1  0  0  0  0
 20 21  1  0  0  0  0
 20 22  1  0  0  0  0
 20 23  1  0  0  0  0
 17 18  1  0  0  0  0
 17 19  1  0  0  0  0
 17 20  1  0  0  0  0
 14 15  1  0  0  0  0
 14 16  1  0  0  0  0
 14 17  1  0  0  0  0
 11 12  1  0  0  0  0
 11 13  1  0  0  0  0
 11 14  1  0  0  0  0
  9 10  1  0  0  0  0
  9 11  1  0  0  0  0
  9 27  1  0  0  0  0
  7  8  1  0  0  0  0
  7  9  1  0  0  0  0
 31 32  1  0  0  0  0
 31 33  1  0  0  0  0
 31 34  1  0  0  0  0
 29 30  1  0  0  0  0
 29 31  1  0  0  0  0
M  CHG  1  23   1
M  END
$$$$
default_name
  -OEChem-02102213163D

 34 33  0     1  0  0  0  0  0999 V2000
   -3.8899   -3.6747    1.6490 H   0  0  0  0  0  0  0  0  0  0  0  0
   -3.9109   -2.6717    1.2250 C   0  0  0  0  0  0  0  0  0  0  0  0
   -4.6009   -2.0517    1.7950 H   0  0  0  0  0  0  0  0  0  0  0  0
   -4.2309   -2.7237    0.1860 H   0  0  0  0  0  0  0  0  0  0  0  0
   -2.5229   -2.0787    1.2980 C   0  0  0  0  0  0  0  0  0  0  0  0
   -1.5999   -2.7227    1.7810 O   0  0  0  0  0  0  0  0  0  0  0  0
   -2.3659   -0.8447    0.8120 N   0  0  0  0  0  0  0  0  0  0  0  0
   -3.1749   -0.3807    0.4220 H   0  0  0  0  0  0  0  0  0  0  0  0
   -1.0919   -0.1077    0.8170 C   0  0  1  0  0  0  0  0  0  0  0  0
   -0.3571   -0.6901    0.2581 H   0  0  0  0  0  0  0  0  0  0  0  0
   -1.3037    1.2411    0.1040 C   0  0  0  0  0  0  0  0  0  0  0  0
   -0.6161    1.9722    0.5320 H   0  0  0  0  0  0  0  0  0  0  0  0
   -1.0644    1.1284   -0.9552 H   0  0  0  0  0  0  0  0  0  0  0  0
   -2.7343    1.7834    0.2446 C   0  0  0  0  0  0  0  0  0  0  0  0
   -2.9916    2.3736   -0.6359 H   0  0  0  0  0  0  0  0  0  0  0  0
   -3.4296    0.9459    0.3281 H   0  0  0  0  0  0  0  0  0  0  0  0
   -2.8506    2.6669    1.4944 C   0  0  0  0  0  0  0  0  0  0  0  0
   -2.5778    2.0771    2.3728 H   0  0  0  0  0  0  0  0  0  0  0  0
   -2.1602    3.5076    1.4018 H   0  0  0  0  0  0  0  0  0  0  0  0
   -4.2844    3.1890    1.6498 C   0  0  0  0  0  0  0  0  0  0  0  0
   -4.5409    3.7697    0.7577 H   0  0  0  0  0  0  0  0  0  0  0  0
   -4.9631    2.3320    1.6983 H   0  0  0  0  0  0  0  0  0  0  0  0
   -4.4310    4.0282    2.8658 N   0  3  0  0  0  0  0  0  0  0  0  0
   -3.8129    4.8287    2.8218 H   0  0  0  0  0  0  0  0  0  0  0  0
   -5.3820    4.3643    2.9538 H   0  0  0  0  0  0  0  0  0  0  0  0
   -4.2032    3.4926    3.6953 H   0  0  0  0  0  0  0  0  0  0  0  0
   -0.5865    0.0771    2.2496 C   0  0  0  0  0  0  0  0  0  0  0  0
    0.5860   -0.1608    2.5143 O   0  0  0  0  0  0  0  0  0  0  0  0
   -1.4786    0.4656    3.1667 N   0  0  0  0  0  0  0  0  0  0  0  0
   -2.4139    0.6698    2.8558 H   0  0  0  0  0  0  0  0  0  0  0  0
   -1.1587    0.6908    4.5775 C   0  0  0  0  0  0  0  0  0  0  0  0
   -0.4270    1.4968    4.6656 H   0  0  0  0  0  0  0  0  0  0  0  0
   -2.0565    0.9649    5.1327 H   0  0  0  0  0  0  0  0  0  0  0  0
   -0.7281   -0.2137    5.0125 H   0  0  0  0  0  0  0  0  0  0  0  0
  5  6  2  0  0  0  0
  5  7  1  0  0  0  0
  2  3  1  0  0  0  0
  2  4  1  0  0  0  0
  2  5  1  0  0  0  0
  1  2  1  0  0  0  0
 27 28  2  0  0  0  0
 27 29  1  0  0  0  0
 23 24  1  0  0  0  0
 23 25  1  0  0  0  0
 23 26  1  0  0  0  0
 20 21  1  0  0  0  0
 20 22  1  0  0  0  0
 20 23  1  0  0  0  0
 17 18  1  0  0  0  0
 17 19  1  0  0  0  0
 17 20  1  0  0  0  0
 14 15  1  0  0  0  0
 14 16  1  0  0  0  0
 14 17  1  0  0  0  0
 11 12  1  0  0  0  0
 11 13  1  0  0  0  0
 11 14  1  0  0  0  0
  9 10  1  0  0  0  0
  9 11  1  0  0  0  0
  9 27  1  0  0  0  0
  7  8  1  0  0  0  0
  7  9  1  0  0  0  0
 31 32  1  0  0  0  0
 31 33  1  0  0  0  0
 31 34  1  0  0  0  0
 29 30  1  0  0  0  0
 29 31  1  0  0  0  0
M  CHG  1  23   1
M  END
$$$$
default_name
  -OEChem-02102213163D

 34 33  0     1  0  0  0  0  0999 V2000
   -3.8899   -3.6747    1.6490 H   0  0  0  0  0  0  0  0  0  0  0  0
   -3.9109   -2.6717    1.2250 C   0  0  0  0  0  0  0  0  0  0  0  0
   -4.6009   -2.0517    1.7950 H   0  0  0  0  0  0  0  0  0  0  0  0
   -4.2309   -2.7237    0.1860 H   0  0  0  0  0  0  0  0  0  0  0  0
   -2.5229   -2.0787    1.2980 C   0  0  0  0  0  0  0  0  0  0  0  0
   -1.5999   -2.7227    1.7810 O   0  0  0  0  0  0  0  0  0  0  0  0
   -2.3659   -0.8447    0.8120 N   0  0  0  0  0  0  0  0  0  0  0  0
   -3.1749   -0.3807    0.4220 H   0  0  0  0  0  0  0  0  0  0  0  0
   -1.0919   -0.1077    0.8170 C   0  0  1  0  0  0  0  0  0  0  0  0
   -0.3571   -0.6901    0.2581 H   0  0  0  0  0  0  0  0  0  0  0  0
   -1.3037    1.2411    0.1040 C   0  0  0  0  0  0  0  0  0  0  0  0
   -0.6161    1.9722    0.5320 H   0  0  0  0  0  0  0  0  0  0  0  0
   -1.0644    1.1284   -0.9552 H   0  0  0  0  0  0  0  0  0  0  0  0
   -2.7343    1.7834    0.2446 C   0  0  0  0  0  0  0  0  0  0  0  0
   -3.0890    2.1397   -0.7235 H   0  0  0  0  0  0  0  0  0  0  0  0
   -3.3899    0.9824    0.5917 H   0  0  0  0  0  0  0  0  0  0  0  0
   -2.7703    2.9417    1.2512 C   0  0  0  0  0  0  0  0  0  0  0  0
   -2.4005    2.5855    2.2157 H   0  0  0  0  0  0  0  0  0  0  0  0
   -2.1206    3.7435    0.8949 H   0  0  0  0  0  0  0  0  0  0  0  0
   -4.2021    3.4679    1.4113 C   0  0  0  0  0  0  0  0  0  0  0  0
   -4.5566    3.8121    0.4342 H   0  0  0  0  0  0  0  0  0  0  0  0
   -4.8435    2.6398    1.7277 H   0  0  0  0  0  0  0  0  0  0  0  0
   -4.2698    4.5747    2.3987 N   0  3  0  0  0  0  0  0  0  0  0  0
   -3.6863    5.3484    2.1059 H   0  0  0  0  0  0  0  0  0  0  0  0
   -5.2203    4.9101    2.4928 H   0  0  0  0  0  0  0  0  0  0  0  0
   -3.9509    4.2587    3.3072 H   0  0  0  0  0  0  0  0  0  0  0  0
   -0.5865    0.0771    2.2496 C   0  0  0  0  0  0  0  0  0  0  0  0
    0.5860   -0.1608    2.5143 O   0  0  0  0  0  0  0  0  0  0  0  0
   -1.4786    0.4656    3.1667 N   0  0  0  0  0  0  0  0  0  0  0  0
   -2.4139    0.6698    2.8558 H   0  0  0  0  0  0  0  0  0  0  0  0
   -1.1587    0.6908    4.5775 C   0  0  0  0  0  0  0  0  0  0  0  0
   -0.4270    1.4968    4.6656 H   0  0  0  0  0  0  0  0  0  0  0  0
   -2.0565    0.9649    5.1327 H   0  0  0  0  0  0  0  0  0  0  0  0
   -0.7281   -0.2137    5.0125 H   0  0  0  0  0  0  0  0  0  0  0  0
  5  6  2  0  0  0  0
  5  7  1  0  0  0  0
  2  3  1  0  0  0  0
  2  4  1  0  0  0  0
  2  5  1  0  0  0  0
  1  2  1  0  0  0  0
 27 28  2  0  0  0  0
 27 29  1  0  0  0  0
 23 24  1  0  0  0  0
 23 25  1  0  0  0  0
 23 26  1  0  0  0  0
 20 21  1  0  0  0  0
 20 22  1  0  0  0  0
 20 23  1  0  0  0  0
 17 18  1  0  0  0  0
 17 19  1  0  0  0  0
 17 20  1  0  0  0  0
 14 15  1  0  0  0  0
 14 16  1  0  0  0  0
 14 17  1  0  0  0  0
 11 12  1  0  0  0  0
 11 13  1  0  0  0  0
 11 14  1  0  0  0  0
  9 10  1  0  0  0  0
  9 11  1  0  0  0  0
  9 27  1  0  0  0  0
  7  8  1  0  0  0  0
  7  9  1  0  0  0  0
 31 32  1  0  0  0  0
 31 33  1  0  0  0  0
 31 34  1  0  0  0  0
 29 30  1  0  0  0  0
 29 31  1  0  0  0  0
M  CHG  1  23   1
M  END
$$$$
default_name
  -OEChem-02102213163D

 34 33  0     1  0  0  0  0  0999 V2000
   -3.8899   -3.6747    1.6490 H   0  0  0  0  0  0  0  0  0  0  0  0
   -3.9109   -2.6717    1.2250 C   0  0  0  0  0  0  0  0  0  0  0  0
   -4.6009   -2.0517    1.7950 H   0  0  0  0  0  0  0  0  0  0  0  0
   -4.2309   -2.7237    0.1860 H   0  0  0  0  0  0  0  0  0  0  0  0
   -2.5229   -2.0787    1.2980 C   0  0  0  0  0  0  0  0  0  0  0  0
   -1.5999   -2.7227    1.7810 O   0  0  0  0  0  0  0  0  0  0  0  0
   -2.3659   -0.8447    0.8120 N   0  0  0  0  0  0  0  0  0  0  0  0
   -3.1749   -0.3807    0.4220 H   0  0  0  0  0  0  0  0  0  0  0  0
   -1.0919   -0.1077    0.8170 C   0  0  1  0  0  0  0  0  0  0  0  0
   -0.3571   -0.6901    0.2581 H   0  0  0  0  0  0  0  0  0  0  0  0
   -1.3037    1.2411    0.1040 C   0  0  0  0  0  0  0  0  0  0  0  0
   -0.6161    1.9722    0.5320 H   0  0  0  0  0  0  0  0  0  0  0  0
   -1.0644    1.1284   -0.9552 H   0  0  0  0  0  0  0  0  0  0  0  0
   -2.7343    1.7834    0.2446 C   0  0  0  0  0  0  0  0  0  0  0  0
   -3.1854    1.8902   -0.7428 H   0  0  0  0  0  0  0  0  0  0  0  0
   -3.3283    1.0822    0.8339 H   0  0  0  0  0  0  0  0  0  0  0  0
   -2.7215    3.1504    0.9428 C   0  0  0  0  0  0  0  0  0  0  0  0
   -2.2556    3.0430    1.9252 H   0  0  0  0  0  0  0  0  0  0  0  0
   -2.1342    3.8501    0.3449 H   0  0  0  0  0  0  0  0  0  0  0  0
   -4.1510    3.6818    1.1061 C   0  0  0  0  0  0  0  0  0  0  0  0
   -4.6023    3.7747    0.1129 H   0  0  0  0  0  0  0  0  0  0  0  0
   -4.7326    2.9470    1.6710 H   0  0  0  0  0  0  0  0  0  0  0  0
   -4.1696    4.9937    1.8010 N   0  3  0  0  0  0  0  0  0  0  0  0
   -3.6416    5.6808    1.2776 H   0  0  0  0  0  0  0  0  0  0  0  0
   -5.1192    5.3301    1.9011 H   0  0  0  0  0  0  0  0  0  0  0  0
   -3.7608    4.9111    2.7246 H   0  0  0  0  0  0  0  0  0  0  0  0
   -0.5865    0.0771    2.2496 C   0  0  0  0  0  0  0  0  0  0  0  0
    0.5860   -0.1608    2.5143 O   0  0  0  0  0  0  0  0  0  0  0  0
   -1.4786    0.4656    3.1667 N   0  0  0  0  0  0  0  0  0  0  0  0
   -2.4139    0.6698    2.8558 H   0  0  0  0  0  0  0  0  0  0  0  0
   -1.1587    0.6908    4.5775 C   0  0  0  0  0  0  0  0  0  0  0  0
   -0.4270    1.4968    4.6656 H   0  0  0  0  0  0  0  0  0  0  0  0
   -2.0565    0.9649    5.1327 H   0  0  0  0  0  0  0  0  0  0  0  0
   -0.7281   -0.2137    5.0125 H   0  0  0  0  0  0  0  0  0  0  0  0
  5  6  2  0  0  0  0
  5  7  1  0  0  0  0
  2  3  1  0  0  0  0
  2  4  1  0  0  0  0
  2  5  1  0  0  0  0
  1  2  1  0  0  0  0
 27 28  2  0  0  0  0
 27 29  1  0  0  0  0
 23 24  1  0  0  0  0
 23 25  1  0  0  0  0
 23 26  1  0  0  0  0
 20 21  1  0  0  0  0
 20 22  1  0  0  0  0
 20 23  1  0  0  0  0
 17 18  1  0  0  0  0
 17 19  1  0  0  0  0
 17 20  1  0  0  0  0
 14 15  1  0  0  0  0
 14 16  1  0  0  0  0
 14 17  1  0  0  0  0
 11 12  1  0  0  0  0
 11 13  1  0  0  0  0
 11 14  1  0  0  0  0
  9 10  1  0  0  0  0
  9 11  1  0  0  0  0
  9 27  1  0  0  0  0
  7  8  1  0  0  0  0
  7  9  1  0  0  0  0
 31 32  1  0  0  0  0
 31 33  1  0  0  0  0
 31 34  1  0  0  0  0
 29 30  1  0  0  0  0
 29 31  1  0  0  0  0
M  CHG  1  23   1
M  END
$$$$
default_name
  -OEChem-02102213163D

 34 33  0     1  0  0  0  0  0999 V2000
   -3.8899   -3.6747    1.6490 H   0  0  0  0  0  0  0  0  0  0  0  0
   -3.9109   -2.6717    1.2250 C   0  0  0  0  0  0  0  0  0  0  0  0
   -4.6009   -2.0517    1.7950 H   0  0  0  0  0  0  0  0  0  0  0  0
   -4.2309   -2.7237    0.1860 H   0  0  0  0  0  0  0  0  0  0  0  0
   -2.5229   -2.0787    1.2980 C   0  0  0  0  0  0  0  0  0  0  0  0
   -1.5999   -2.7227    1.7810 O   0  0  0  0  0  0  0  0  0  0  0  0
   -2.3659   -0.8447    0.8120 N   0  0  0  0  0  0  0  0  0  0  0  0
   -3.1749   -0.3807    0.4220 H   0  0  0  0  0  0  0  0  0  0  0  0
   -1.0919   -0.1077    0.8170 C   0  0  1  0  0  0  0  0  0  0  0  0
   -0.3571   -0.6901    0.2581 H   0  0  0  0  0  0  0  0  0  0  0  0
   -1.3037    1.2411    0.1040 C   0  0  0  0  0  0  0  0  0  0  0  0
   -0.6161    1.9722    0.5320 H   0  0  0  0  0  0  0  0  0  0  0  0
   -1.0644    1.1284   -0.9552 H   0  0  0  0  0  0  0  0  0  0  0  0
   -2.7343    1.7834    0.2446 C   0  0  0  0  0  0  0  0  0  0  0  0
   -3.2745    1.6424   -0.6925 H   0  0  0  0  0  0  0  0  0  0  0  0
   -3.2490    1.2384    1.0383 H   0  0  0  0  0  0  0  0  0  0  0  0
   -2.7075    3.2788    0.5901 C   0  0  0  0  0  0  0  0  0  0  0  0
   -2.1530    3.4183    1.5212 H   0  0  0  0  0  0  0  0  0  0  0  0
   -2.2001    3.8202   -0.2108 H   0  0  0  0  0  0  0  0  0  0  0  0
   -4.1346    3.8160    0.7552 C   0  0  0  0  0  0  0  0  0  0  0  0
   -4.6750    3.6602   -0.1842 H   0  0  0  0  0  0  0  0  0  0  0  0
   -4.6380    3.2326    1.5321 H   0  0  0  0  0  0  0  0  0  0  0  0
   -4.1374    5.2568    1.1136 N   0  3  0  0  0  0  0  0  0  0  0  0
   -3.6821    5.8033    0.3933 H   0  0  0  0  0  0  0  0  0  0  0  0
   -5.0856    5.5956    1.2192 H   0  0  0  0  0  0  0  0  0  0  0  0
   -3.6459    5.4054    1.9873 H   0  0  0  0  0  0  0  0  0  0  0  0
   -0.5865    0.0771    2.2496 C   0  0  0  0  0  0  0  0  0  0  0  0
    0.5860   -0.1608    2.5143 O   0  0  0  0  0  0  0  0  0  0  0  0
   -1.4786    0.4656    3.1667 N   0  0  0  0  0  0  0  0  0  0  0  0
   -2.4139    0.6698    2.8558 H   0  0  0  0  0  0  0  0  0  0  0  0
   -1.1587    0.6908    4.5775 C   0  0  0  0  0  0  0  0  0  0  0  0
   -0.4270    1.4968    4.6656 H   0  0  0  0  0  0  0  0  0  0  0  0
   -2.0565    0.9649    5.1327 H   0  0  0  0  0  0  0  0  0  0  0  0
   -0.7281   -0.2137    5.0125 H   0  0  0  0  0  0  0  0  0  0  0  0
  5  6  2  0  0  0  0
  5  7  1  0  0  0  0
  2  3  1  0  0  0  0
  2  4  1  0  0  0  0
  2  5  1  0  0  0  0
  1  2  1  0  0  0  0
 27 28  2  0  0  0  0
 27 29  1  0  0  0  0
 23 24  1  0  0  0  0
 23 25  1  0  0  0  0
 23 26  1  0  0  0  0
 20 21  1  0  0  0  0
 20 22  1  0  0  0  0
 20 23  1  0  0  0  0
 17 18  1  0  0  0  0
 17 19  1  0  0  0  0
 17 20  1  0  0  0  0
 14 15  1  0  0  0  0
 14 16  1  0  0  0  0
 14 17  1  0  0  0  0
 11 12  1  0  0  0  0
 11 13  1  0  0  0  0
 11 14  1  0  0  0  0
  9 10  1  0  0  0  0
  9 11  1  0  0  0  0
  9 27  1  0  0  0  0
  7  8  1  0  0  0  0
  7  9  1  0  0  0  0
 31 32  1  0  0  0  0
 31 33  1  0  0  0  0
 31 34  1  0  0  0  0
 29 30  1  0  0  0  0
 29 31  1  0  0  0  0
M  CHG  1  23   1
M  END
$$$$
default_name
  -OEChem-02102213163D

 34 33  0     1  0  0  0  0  0999 V2000
   -3.8899   -3.6747    1.6490 H   0  0  0  0  0  0  0  0  0  0  0  0
   -3.9109   -2.6717    1.2250 C   0  0  0  0  0  0  0  0  0  0  0  0
   -4.6009   -2.0517    1.7950 H   0  0  0  0  0  0  0  0  0  0  0  0
   -4.2309   -2.7237    0.1860 H   0  0  0  0  0  0  0  0  0  0  0  0
   -2.5229   -2.0787    1.2980 C   0  0  0  0  0  0  0  0  0  0  0  0
   -1.5999   -2.7227    1.7810 O   0  0  0  0  0  0  0  0  0  0  0  0
   -2.3659   -0.8447    0.8120 N   0  0  0  0  0  0  0  0  0  0  0  0
   -3.1749   -0.3807    0.4220 H   0  0  0  0  0  0  0  0  0  0  0  0
   -1.0919   -0.1077    0.8170 C   0  0  1  0  0  0  0  0  0  0  0  0
   -0.3571   -0.6901    0.2581 H   0  0  0  0  0  0  0  0  0  0  0  0
   -1.3037    1.2411    0.1040 C   0  0  0  0  0  0  0  0  0  0  0  0
   -0.6161    1.9722    0.5320 H   0  0  0  0  0  0  0  0  0  0  0  0
   -1.0644    1.1284   -0.9552 H   0  0  0  0  0  0  0  0  0  0  0  0
   -2.7343    1.7834    0.2446 C   0  0  0  0  0  0  0  0  0  0  0  0
   -3.3500    1.4130   -0.5761 H   0  0  0  0  0  0  0  0  0  0  0  0
   -3.1574    1.4403    1.1907 H   0  0  0  0  0  0  0  0  0  0  0  0
   -2.7292    3.3181    0.2172 C   0  0  0  0  0  0  0  0  0  0  0  0
   -2.0998    3.6858    1.0311 H   0  0  0  0  0  0  0  0  0  0  0  0
   -2.3139    3.6559   -0.7344 H   0  0  0  0  0  0  0  0  0  0  0  0
   -4.1540    3.8615    0.3824 C   0  0  0  0  0  0  0  0  0  0  0  0
   -4.7696    3.4761   -0.4370 H   0  0  0  0  0  0  0  0  0  0  0  0
   -4.5660    3.4773    1.3204 H   0  0  0  0  0  0  0  0  0  0  0  0
   -4.1754    5.3461    0.3833 N   0  3  0  0  0  0  0  0  0  0  0  0
   -3.8049    5.7075   -0.4867 H   0  0  0  0  0  0  0  0  0  0  0  0
   -5.1217    5.6884    0.4934 H   0  0  0  0  0  0  0  0  0  0  0  0
   -3.6140    5.7078    1.1455 H   0  0  0  0  0  0  0  0  0  0  0  0
   -0.5865    0.0771    2.2496 C   0  0  0  0  0  0  0  0  0  0  0  0
    0.5860   -0.1608    2.5143 O   0  0  0  0  0  0  0  0  0  0  0  0
   -1.4786    0.4656    3.1667 N   0  0  0  0  0  0  0  0  0  0  0  0
   -2.4139    0.6698    2.8558 H   0  0  0  0  0  0  0  0  0  0  0  0
   -1.1587    0.6908    4.5775 C   0  0  0  0  0  0  0  0  0  0  0  0
   -0.4270    1.4968    4.6656 H   0  0  0  0  0  0  0  0  0  0  0  0
   -2.0565    0.9649    5.1327 H   0  0  0  0  0  0  0  0  0  0  0  0
   -0.7281   -0.2137    5.0125 H   0  0  0  0  0  0  0  0  0  0  0  0
  5  6  2  0  0  0  0
  5  7  1  0  0  0  0
  2  3  1  0  0  0  0
  2  4  1  0  0  0  0
  2  5  1  0  0  0  0
  1  2  1  0  0  0  0
 27 28  2  0  0  0  0
 27 29  1  0  0  0  0
 23 24  1  0  0  0  0
 23 25  1  0  0  0  0
 23 26  1  0  0  0  0
 20 21  1  0  0  0  0
 20 22  1  0  0  0  0
 20 23  1  0  0  0  0
 17 18  1  0  0  0  0
 17 19  1  0  0  0  0
 17 20  1  0  0  0  0
 14 15  1  0  0  0  0
 14 16  1  0  0  0  0
 14 17  1  0  0  0  0
 11 12  1  0  0  0  0
 11 13  1  0  0  0  0
 11 14  1  0  0  0  0
  9 10  1  0  0  0  0
  9 11  1  0  0  0  0
  9 27  1  0  0  0  0
  7  8  1  0  0  0  0
  7  9  1  0  0  0  0
 31 32  1  0  0  0  0
 31 33  1  0  0  0  0
 31 34  1  0  0  0  0
 29 30  1  0  0  0  0
 29 31  1  0  0  0  0
M  CHG  1  23   1
M  END
$$$$
default_name
  -OEChem-02102213163D

 34 33  0     1  0  0  0  0  0999 V2000
   -3.8899   -3.6747    1.6490 H   0  0  0  0  0  0  0  0  0  0  0  0
   -3.9109   -2.6717    1.2250 C   0  0  0  0  0  0  0  0  0  0  0  0
   -4.6009   -2.0517    1.7950 H   0  0  0  0  0  0  0  0  0  0  0  0
   -4.2309   -2.7237    0.1860 H   0  0  0  0  0  0  0  0  0  0  0  0
   -2.5229   -2.0787    1.2980 C   0  0  0  0  0  0  0  0  0  0  0  0
   -1.5999   -2.7227    1.7810 O   0  0  0  0  0  0  0  0  0  0  0  0
   -2.3659   -0.8447    0.8120 N   0  0  0  0  0  0  0  0  0  0  0  0
   -3.1749   -0.3807    0.4220 H   0  0  0  0  0  0  0  0  0  0  0  0
   -1.0919   -0.1077    0.8170 C   0  0  1  0  0  0  0  0  0  0  0  0
   -0.3571   -0.6901    0.2581 H   0  0  0  0  0  0  0  0  0  0  0  0
   -1.3037    1.2411    0.1040 C   0  0  0  0  0  0  0  0  0  0  0  0
   -0.6161    1.9722    0.5320 H   0  0  0  0  0  0  0  0  0  0  0  0
   -1.0644    1.1284   -0.9552 H   0  0  0  0  0  0  0  0  0  0  0  0
   -2.7343    1.7834    0.2446 C   0  0  0  0  0  0  0  0  0  0  0  0
   -3.4069    1.2176   -0.4015 H   0  0  0  0  0  0  0  0  0  0  0  0
   -3.0598    1.6743    1.2809 H   0  0  0  0  0  0  0  0  0  0  0  0
   -2.7852    3.2658   -0.1506 C   0  0  0  0  0  0  0  0  0  0  0  0
   -2.0994    3.8274    0.4883 H   0  0  0  0  0  0  0  0  0  0  0  0
   -2.4677    3.3683   -1.1902 H   0  0  0  0  0  0  0  0  0  0  0  0
   -4.2079    3.8152    0.0130 C   0  0  0  0  0  0  0  0  0  0  0  0
   -4.8797    3.2352   -0.6281 H   0  0  0  0  0  0  0  0  0  0  0  0
   -4.5216    3.6644    1.0504 H   0  0  0  0  0  0  0  0  0  0  0  0
   -4.2808    5.2554   -0.3402 N   0  3  0  0  0  0  0  0  0  0  0  0
   -4.0017    5.4001   -1.3024 H   0  0  0  0  0  0  0  0  0  0  0  0
   -5.2251    5.6024   -0.2267 H   0  0  0  0  0  0  0  0  0  0  0  0
   -3.6672    5.7979    0.2565 H   0  0  0  0  0  0  0  0  0  0  0  0
   -0.5865    0.0771    2.2496 C   0  0  0  0  0  0  0  0  0  0  0  0
    0.5860   -0.1608    2.5143 O   0  0  0  0  0  0  0  0  0  0  0  0
   -1.4786    0.4656    3.1667 N   0  0  0  0  0  0  0  0  0  0  0  0
   -2.4139    0.6698    2.8558 H   0  0  0  0  0  0  0  0  0  0  0  0
   -1.1587    0.6908    4.5775 C   0  0  0  0  0  0  0  0  0  0  0  0
   -0.4270    1.4968    4.6656 H   0  0  0  0  0  0  0  0  0  0  0  0
   -2.0565    0.9649    5.1327 H   0  0  0  0  0  0  0  0  0  0  0  0
   -0.7281   -0.2137    5.0125 H   0  0  0  0  0  0  0  0  0  0  0  0
  5  6  2  0  0  0  0
  5  7  1  0  0  0  0
  2  3  1  0  0  0  0
  2  4  1  0  0  0  0
  2  5  1  0  0  0  0
  1  2  1  0  0  0  0
 27 28  2  0  0  0  0
 27 29  1  0  0  0  0
 23 24  1  0  0  0  0
 23 25  1  0  0  0  0
 23 26  1  0  0  0  0
 20 21  1  0  0  0  0
 20 22  1  0  0  0  0
 20 23  1  0  0  0  0
 17 18  1  0  0  0  0
 17 19  1  0  0  0  0
 17 20  1  0  0  0  0
 14 15  1  0  0  0  0
 14 16  1  0  0  0  0
 14 17  1  0  0  0  0
 11 12  1  0  0  0  0
 11 13  1  0  0  0  0
 11 14  1  0  0  0  0
  9 10  1  0  0  0  0
  9 11  1  0  0  0  0
  9 27  1  0  0  0  0
  7  8  1  0  0  0  0
  7  9  1  0  0  0  0
 31 32  1  0  0  0  0
 31 33  1  0  0  0  0
 31 34  1  0  0  0  0
 29 30  1  0  0  0  0
 29 31  1  0  0  0  0
M  CHG  1  23   1
M  END
$$$$
default_name
  -OEChem-02102213163D

 34 33  0     1  0  0  0  0  0999 V2000
   -3.8899   -3.6747    1.6490 H   0  0  0  0  0  0  0  0  0  0  0  0
   -3.9109   -2.6717    1.2250 C   0  0  0  0  0  0  0  0  0  0  0  0
   -4.6009   -2.0517    1.7950 H   0  0  0  0  0  0  0  0  0  0  0  0
   -4.2309   -2.7237    0.1860 H   0  0  0  0  0  0  0  0  0  0  0  0
   -2.5229   -2.0787    1.2980 C   0  0  0  0  0  0  0  0  0  0  0  0
   -1.5999   -2.7227    1.7810 O   0  0  0  0  0  0  0  0  0  0  0  0
   -2.3659   -0.8447    0.8120 N   0  0  0  0  0  0  0  0  0  0  0  0
   -3.1749   -0.3807    0.4220 H   0  0  0  0  0  0  0  0  0  0  0  0
   -1.0919   -0.1077    0.8170 C   0  0  1  0  0  0  0  0  0  0  0  0
   -0.3571   -0.6901    0.2581 H   0  0  0  0  0  0  0  0  0  0  0  0
   -1.3037    1.2411    0.1040 C   0  0  0  0  0  0  0  0  0  0  0  0
   -0.4566    1.8905    0.3301 H   0  0  0  0  0  0  0  0  0  0  0  0
   -1.3278    1.0766   -0.9751 H   0  0  0  0  0  0  0  0  0  0  0  0
   -2.5915    1.9595    0.5352 C   0  0  0  0  0  0  0  0  0  0  0  0
   -3.4547    1.3297    0.3154 H   0  0  0  0  0  0  0  0  0  0  0  0
   -2.5540    2.1507    1.6094 H   0  0  0  0  0  0  0  0  0  0  0  0
   -2.7367    3.2917   -0.2133 C   0  0  0  0  0  0  0  0  0  0  0  0
   -1.8636    3.9141   -0.0031 H   0  0  0  0  0  0  0  0  0  0  0  0
   -2.7830    3.0942   -1.2861 H   0  0  0  0  0  0  0  0  0  0  0  0
   -4.0092    4.0217    0.2344 C   0  0  0  0  0  0  0  0  0  0  0  0
   -4.8703    3.3795    0.0227 H   0  0  0  0  0  0  0  0  0  0  0  0
   -3.9612    4.1718    1.3171 H   0  0  0  0  0  0  0  0  0  0  0  0
   -4.1621    5.3264   -0.4575 N   0  3  0  0  0  0  0  0  0  0  0  0
   -4.2176    5.1931   -1.4595 H   0  0  0  0  0  0  0  0  0  0  0  0
   -5.0055    5.7952   -0.1511 H   0  0  0  0  0  0  0  0  0  0  0  0
   -3.3715    5.9280   -0.2576 H   0  0  0  0  0  0  0  0  0  0  0  0
   -0.5865    0.0771    2.2496 C   0  0  0  0  0  0  0  0  0  0  0  0
    0.5860   -0.1608    2.5143 O   0  0  0  0  0  0  0  0  0  0  0  0
   -1.4786    0.4656    3.1667 N   0  0  0  0  0  0  0  0  0  0  0  0
   -2.4139    0.6698    2.8558 H   0  0  0  0  0  0  0  0  0  0  0  0
   -1.1587    0.6908    4.5775 C   0  0  0  0  0  0  0  0  0  0  0  0
   -0.4270    1.4968    4.6656 H   0  0  0  0  0  0  0  0  0  0  0  0
   -2.0565    0.9649    5.1327 H   0  0  0  0  0  0  0  0  0  0  0  0
   -0.7281   -0.2137    5.0125 H   0  0  0  0  0  0  0  0  0  0  0  0
  5  6  2  0  0  0  0
  5  7  1  0  0  0  0
  2  3  1  0  0  0  0
  2  4  1  0  0  0  0
  2  5  1  0  0  0  0
  1  2  1  0  0  0  0
 27 28  2  0  0  0  0
 27 29  1  0  0  0  0
 23 24  1  0  0  0  0
 23 25  1  0  0  0  0
 23 26  1  0  0  0  0
 20 21  1  0  0  0  0
 20 22  1  0  0  0  0
 20 23  1  0  0  0  0
 17 18  1  0  0  0  0
 17 19  1  0  0  0  0
 17 20  1  0  0  0  0
 14 15  1  0  0  0  0
 14 16  1  0  0  0  0
 14 17  1  0  0  0  0
 11 12  1  0  0  0  0
 11 13  1  0  0  0  0
 11 14  1  0  0  0  0
  9 10  1  0  0  0  0
  9 11  1  0  0  0  0
  9 27  1  0  0  0  0
  7  8  1  0  0  0  0
  7  9  1  0  0  0  0
 31 32  1  0  0  0  0
 31 33  1  0  0  0  0
 31 34  1  0  0  0  0
 29 30  1  0  0  0  0
 29 31  1  0  0  0  0
M  CHG  1  23   1
M  END
$$$$
default_name
  -OEChem-02102213163D

 34 33  0     1  0  0  0  0  0999 V2000
   -3.8899   -3.6747    1.6490 H   0  0  0  0  0  0  0  0  0  0  0  0
   -3.9109   -2.6717    1.2250 C   0  0  0  0  0  0  0  0  0  0  0  0
   -4.6009   -2.0517    1.7950 H   0  0  0  0  0  0  0  0  0  0  0  0
   -4.2309   -2.7237    0.1860 H   0  0  0  0  0  0  0  0  0  0  0  0
   -2.5229   -2.0787    1.2980 C   0  0  0  0  0  0  0  0  0  0  0  0
   -1.5999   -2.7227    1.7810 O   0  0  0  0  0  0  0  0  0  0  0  0
   -2.3659   -0.8447    0.8120 N   0  0  0  0  0  0  0  0  0  0  0  0
   -3.1749   -0.3807    0.4220 H   0  0  0  0  0  0  0  0  0  0  0  0
   -1.0919   -0.1077    0.8170 C   0  0  1  0  0  0  0  0  0  0  0  0
   -0.3571   -0.6901    0.2581 H   0  0  0  0  0  0  0  0  0  0  0  0
   -1.3037    1.2411    0.1040 C   0  0  0  0  0  0  0  0  0  0  0  0
   -0.4566    1.8905    0.3301 H   0  0  0  0  0  0  0  0  0  0  0  0
   -1.3278    1.0766   -0.9751 H   0  0  0  0  0  0  0  0  0  0  0  0
   -2.5915    1.9595    0.5352 C   0  0  0  0  0  0  0  0  0  0  0  0
   -3.4166    1.2467    0.5675 H   0  0  0  0  0  0  0  0  0  0  0  0
   -2.4495    2.3857    1.5302 H   0  0  0  0  0  0  0  0  0  0  0  0
   -2.9344    3.0819   -0.4541 C   0  0  0  0  0  0  0  0  0  0  0  0
   -2.0999    3.7860   -0.4954 H   0  0  0  0  0  0  0  0  0  0  0  0
   -3.0845    2.6494   -1.4453 H   0  0  0  0  0  0  0  0  0  0  0  0
   -4.2062    3.8161   -0.0114 C   0  0  0  0  0  0  0  0  0  0  0  0
   -5.0273    3.0931    0.0311 H   0  0  0  0  0  0  0  0  0  0  0  0
   -4.0492    4.2048    0.9993 H   0  0  0  0  0  0  0  0  0  0  0  0
   -4.5479    4.9239   -0.9391 N   0  3  0  0  0  0  0  0  0  0  0  0
   -4.7046    4.5690   -1.8741 H   0  0  0  0  0  0  0  0  0  0  0  0
   -5.3884    5.3980   -0.6331 H   0  0  0  0  0  0  0  0  0  0  0  0
   -3.7944    5.6006   -0.9753 H   0  0  0  0  0  0  0  0  0  0  0  0
   -0.5865    0.0771    2.2496 C   0  0  0  0  0  0  0  0  0  0  0  0
    0.5860   -0.1608    2.5143 O   0  0  0  0  0  0  0  0  0  0  0  0
   -1.4786    0.4656    3.1667 N   0  0  0  0  0  0  0  0  0  0  0  0
   -2.4139    0.6698    2.8558 H   0  0  0  0  0  0  0  0  0  0  0  0
   -1.1587    0.6908    4.5775 C   0  0  0  0  0  0  0  0  0  0  0  0
   -0.4270    1.4968    4.6656 H   0  0  0  0  0  0  0  0  0  0  0  0
   -2.0565    0.9649    5.1327 H   0  0  0  0  0  0  0  0  0  0  0  0
   -0.7281   -0.2137    5.0125 H   0  0  0  0  0  0  0  0  0  0  0  0
  5  6  2  0  0  0  0
  5  7  1  0  0  0  0
  2  3  1  0  0  0  0
  2  4  1  0  0  0  0
  2  5  1  0  0  0  0
  1  2  1  0  0  0  0
 27 28  2  0  0  0  0
 27 29  1  0  0  0  0
 23 24  1  0  0  0  0
 23 25  1  0  0  0  0
 23 26  1  0  0  0  0
 20 21  1  0  0  0  0
 20 22  1  0  0  0  0
 20 23  1  0  0  0  0
 17 18  1  0  0  0  0
 17 19  1  0  0  0  0
 17 20  1  0  0  0  0
 14 15  1  0  0  0  0
 14 16  1  0  0  0  0
 14 17  1  0  0  0  0
 11 12  1  0  0  0  0
 11 13  1  0  0  0  0
 11 14  1  0  0  0  0
  9 10  1  0  0  0  0
  9 11  1  0  0  0  0
  9 27  1  0  0  0  0
  7  8  1  0  0  0  0
  7  9  1  0  0  0  0
 31 32  1  0  0  0  0
 31 33  1  0  0  0  0
 31 34  1  0  0  0  0
 29 30  1  0  0  0  0
 29 31  1  0  0  0  0
M  CHG  1  23   1
M  END
$$$$
default_name
  -OEChem-02102213163D

 34 33  0     1  0  0  0  0  0999 V2000
   -3.8899   -3.6747    1.6490 H   0  0  0  0  0  0  0  0  0  0  0  0
   -3.9109   -2.6717    1.2250 C   0  0  0  0  0  0  0  0  0  0  0  0
   -4.6009   -2.0517    1.7950 H   0  0  0  0  0  0  0  0  0  0  0  0
   -4.2309   -2.7237    0.1860 H   0  0  0  0  0  0  0  0  0  0  0  0
   -2.5229   -2.0787    1.2980 C   0  0  0  0  0  0  0  0  0  0  0  0
   -1.5999   -2.7227    1.7810 O   0  0  0  0  0  0  0  0  0  0  0  0
   -2.3659   -0.8447    0.8120 N   0  0  0  0  0  0  0  0  0  0  0  0
   -3.1749   -0.3807    0.4220 H   0  0  0  0  0  0  0  0  0  0  0  0
   -1.0919   -0.1077    0.8170 C   0  0  1  0  0  0  0  0  0  0  0  0
   -0.3571   -0.6901    0.2581 H   0  0  0  0  0  0  0  0  0  0  0  0
   -1.3037    1.2411    0.1040 C   0  0  0  0  0  0  0  0  0  0  0  0
   -0.4566    1.8905    0.3301 H   0  0  0  0  0  0  0  0  0  0  0  0
   -1.3278    1.0766   -0.9751 H   0  0  0  0  0  0  0  0  0  0  0  0
   -2.5915    1.9595    0.5352 C   0  0  0  0  0  0  0  0  0  0  0  0
   -3.3433    1.2239    0.8244 H   0  0  0  0  0  0  0  0  0  0  0  0
   -2.3751    2.6031    1.3900 H   0  0  0  0  0  0  0  0  0  0  0  0
   -3.1392    2.8126   -0.6173 C   0  0  0  0  0  0  0  0  0  0  0  0
   -2.3784    3.5383   -0.9146 H   0  0  0  0  0  0  0  0  0  0  0  0
   -3.3626    2.1633   -1.4661 H   0  0  0  0  0  0  0  0  0  0  0  0
   -4.4112    3.5500   -0.1804 C   0  0  0  0  0  0  0  0  0  0  0  0
   -5.1570    2.8069    0.1203 H   0  0  0  0  0  0  0  0  0  0  0  0
   -4.1751    4.1614    0.6957 H   0  0  0  0  0  0  0  0  0  0  0  0
   -4.9495    4.4026   -1.2702 N   0  3  0  0  0  0  0  0  0  0  0  0
   -5.1799    3.8408   -2.0803 H   0  0  0  0  0  0  0  0  0  0  0  0
   -5.7878    4.8820   -0.9661 H   0  0  0  0  0  0  0  0  0  0  0  0
   -4.2660    5.0979   -1.5463 H   0  0  0  0  0  0  0  0  0  0  0  0
   -0.5865    0.0771    2.2496 C   0  0  0  0  0  0  0  0  0  0  0  0
    0.5860   -0.1608    2.5143 O   0  0  0  0  0  0  0  0  0  0  0  0
   -1.4786    0.4656    3.1667 N   0  0  0  0  0  0  0  0  0  0  0  0
   -2.4139    0.6698    2.8558 H   0  0  0  0  0  0  0  0  0  0  0  0
   -1.1587    0.6908    4.5775 C   0  0  0  0  0  0  0  0  0  0  0  0
   -0.4270    1.4968    4.6656 H   0  0  0  0  0  0  0  0  0  0  0  0
   -2.0565    0.9649    5.1327 H   0  0  0  0  0  0  0  0  0  0  0  0
   -0.7281   -0.2137    5.0125 H   0  0  0  0  0  0  0  0  0  0  0  0
  5  6  2  0  0  0  0
  5  7  1  0  0  0  0
  2  3  1  0  0  0  0
  2  4  1  0  0  0  0
  2  5  1  0  0  0  0
  1  2  1  0  0  0  0
 27 28  2  0  0  0  0
 27 29  1  0  0  0  0
 23 24  1  0  0  0  0
 23 25  1  0  0  0  0
 23 26  1  0  0  0  0
 20 21  1  0  0  0  0
 20 22  1  0  0  0  0
 20 23  1  0  0  0  0
 17 18  1  0  0  0  0
 17 19  1  0  0  0  0
 17 20  1  0  0  0  0
 14 15  1  0  0  0  0
 14 16  1  0  0  0  0
 14 17  1  0  0  0  0
 11 12  1  0  0  0  0
 11 13  1  0  0  0  0
 11 14  1  0  0  0  0
  9 10  1  0  0  0  0
  9 11  1  0  0  0  0
  9 27  1  0  0  0  0
  7  8  1  0  0  0  0
  7  9  1  0  0  0  0
 31 32  1  0  0  0  0
 31 33  1  0  0  0  0
 31 34  1  0  0  0  0
 29 30  1  0  0  0  0
 29 31  1  0  0  0  0
M  CHG  1  23   1
M  END
$$$$
default_name
  -OEChem-02102213163D

 34 33  0     1  0  0  0  0  0999 V2000
   -3.8899   -3.6747    1.6490 H   0  0  0  0  0  0  0  0  0  0  0  0
   -3.9109   -2.6717    1.2250 C   0  0  0  0  0  0  0  0  0  0  0  0
   -4.6009   -2.0517    1.7950 H   0  0  0  0  0  0  0  0  0  0  0  0
   -4.2309   -2.7237    0.1860 H   0  0  0  0  0  0  0  0  0  0  0  0
   -2.5229   -2.0787    1.2980 C   0  0  0  0  0  0  0  0  0  0  0  0
   -1.5999   -2.7227    1.7810 O   0  0  0  0  0  0  0  0  0  0  0  0
   -2.3659   -0.8447    0.8120 N   0  0  0  0  0  0  0  0  0  0  0  0
   -3.1749   -0.3807    0.4220 H   0  0  0  0  0  0  0  0  0  0  0  0
   -1.0919   -0.1077    0.8170 C   0  0  1  0  0  0  0  0  0  0  0  0
   -0.3571   -0.6901    0.2581 H   0  0  0  0  0  0  0  0  0  0  0  0
   -1.3037    1.2411    0.1040 C   0  0  0  0  0  0  0  0  0  0  0  0
   -0.4566    1.8905    0.3301 H   0  0  0  0  0  0  0  0  0  0  0  0
   -1.3278    1.0766   -0.9751 H   0  0  0  0  0  0  0  0  0  0  0  0
   -2.5915    1.9595    0.5352 C   0  0  0  0  0  0  0  0  0  0  0  0
   -3.2398    1.2630    1.0686 H   0  0  0  0  0  0  0  0  0  0  0  0
   -2.3360    2.7880    1.1985 H   0  0  0  0  0  0  0  0  0  0  0  0
   -3.3372    2.5023   -0.6918 C   0  0  0  0  0  0  0  0  0  0  0  0
   -2.6801    3.1879   -1.2321 H   0  0  0  0  0  0  0  0  0  0  0  0
   -3.5985    1.6690   -1.3471 H   0  0  0  0  0  0  0  0  0  0  0  0
   -4.6104    3.2413   -0.2611 C   0  0  0  0  0  0  0  0  0  0  0  0
   -5.2508    2.5404    0.2843 H   0  0  0  0  0  0  0  0  0  0  0  0
   -4.3302    4.0444    0.4272 H   0  0  0  0  0  0  0  0  0  0  0  0
   -5.3398    3.7980   -1.4284 N   0  3  0  0  0  0  0  0  0  0  0  0
   -5.6110    3.0582   -2.0640 H   0  0  0  0  0  0  0  0  0  0  0  0
   -6.1763    4.2823   -1.1275 H   0  0  0  0  0  0  0  0  0  0  0  0
   -4.7542    4.4542   -1.9317 H   0  0  0  0  0  0  0  0  0  0  0  0
   -0.5865    0.0771    2.2496 C   0  0  0  0  0  0  0  0  0  0  0  0
    0.5860   -0.1608    2.5143 O   0  0  0  0  0  0  0  0  0  0  0  0
   -1.4786    0.4656    3.1667 N   0  0  0  0  0  0  0  0  0  0  0  0
   -2.4139    0.6698    2.8558 H   0  0  0  0  0  0  0  0  0  0  0  0
   -1.1587    0.6908    4.5775 C   0  0  0  0  0  0  0  0  0  0  0  0
   -0.4270    1.4968    4.6656 H   0  0  0  0  0  0  0  0  0  0  0  0
   -2.0565    0.9649    5.1327 H   0  0  0  0  0  0  0  0  0  0  0  0
   -0.7281   -0.2137    5.0125 H   0  0  0  0  0  0  0  0  0  0  0  0
  5  6  2  0  0  0  0
  5  7  1  0  0  0  0
  2  3  1  0  0  0  0
  2  4  1  0  0  0  0
  2  5  1  0  0  0  0
  1  2  1  0  0  0  0
 27 28  2  0  0  0  0
 27 29  1  0  0  0  0
 23 24  1  0  0  0  0
 23 25  1  0  0  0  0
 23 26  1  0  0  0  0
 20 21  1  0  0  0  0
 20 22  1  0  0  0  0
 20 23  1  0  0  0  0
 17 18  1  0  0  0  0
 17 19  1  0  0  0  0
 17 20  1  0  0  0  0
 14 15  1  0  0  0  0
 14 16  1  0  0  0  0
 14 17  1  0  0  0  0
 11 12  1  0  0  0  0
 11 13  1  0  0  0  0
 11 14  1  0  0  0  0
  9 10  1  0  0  0  0
  9 11  1  0  0  0  0
  9 27  1  0  0  0  0
  7  8  1  0  0  0  0
  7  9  1  0  0  0  0
 31 32  1  0  0  0  0
 31 33  1  0  0  0  0
 31 34  1  0  0  0  0
 29 30  1  0  0  0  0
 29 31  1  0  0  0  0
M  CHG  1  23   1
M  END
$$$$
default_name
  -OEChem-02102213163D

 34 33  0     1  0  0  0  0  0999 V2000
   -3.8899   -3.6747    1.6490 H   0  0  0  0  0  0  0  0  0  0  0  0
   -3.9109   -2.6717    1.2250 C   0  0  0  0  0  0  0  0  0  0  0  0
   -4.6009   -2.0517    1.7950 H   0  0  0  0  0  0  0  0  0  0  0  0
   -4.2309   -2.7237    0.1860 H   0  0  0  0  0  0  0  0  0  0  0  0
   -2.5229   -2.0787    1.2980 C   0  0  0  0  0  0  0  0  0  0  0  0
   -1.5999   -2.7227    1.7810 O   0  0  0  0  0  0  0  0  0  0  0  0
   -2.3659   -0.8447    0.8120 N   0  0  0  0  0  0  0  0  0  0  0  0
   -3.1749   -0.3807    0.4220 H   0  0  0  0  0  0  0  0  0  0  0  0
   -1.0919   -0.1077    0.8170 C   0  0  1  0  0  0  0  0  0  0  0  0
   -0.3571   -0.6901    0.2581 H   0  0  0  0  0  0  0  0  0  0  0  0
   -1.3037    1.2411    0.1040 C   0  0  0  0  0  0  0  0  0  0  0  0
   -0.4566    1.8905    0.3301 H   0  0  0  0  0  0  0  0  0  0  0  0
   -1.3278    1.0766   -0.9751 H   0  0  0  0  0  0  0  0  0  0  0  0
   -2.5915    1.9595    0.5352 C   0  0  0  0  0  0  0  0  0  0  0  0
   -3.1130    1.3612    1.2835 H   0  0  0  0  0  0  0  0  0  0  0  0
   -2.3349    2.9280    0.9687 H   0  0  0  0  0  0  0  0  0  0  0  0
   -3.5150    2.1720   -0.6724 C   0  0  0  0  0  0  0  0  0  0  0  0
   -2.9846    2.7587   -1.4262 H   0  0  0  0  0  0  0  0  0  0  0  0
   -3.7760    1.2003   -1.0964 H   0  0  0  0  0  0  0  0  0  0  0  0
   -4.7902    2.9112   -0.2480 C   0  0  0  0  0  0  0  0  0  0  0  0
   -5.3021    2.3118    0.5119 H   0  0  0  0  0  0  0  0  0  0  0  0
   -4.5041    3.8619    0.2119 H   0  0  0  0  0  0  0  0  0  0  0  0
   -5.6919    3.1514   -1.4028 N   0  3  0  0  0  0  0  0  0  0  0  0
   -5.9686    2.2744   -1.8262 H   0  0  0  0  0  0  0  0  0  0  0  0
   -6.5276    3.6398   -1.1063 H   0  0  0  0  0  0  0  0  0  0  0  0
   -5.2255    3.7134   -2.1053 H   0  0  0  0  0  0  0  0  0  0  0  0
   -0.5865    0.0771    2.2496 C   0  0  0  0  0  0  0  0  0  0  0  0
    0.5860   -0.1608    2.5143 O   0  0  0  0  0  0  0  0  0  0  0  0
   -1.4786    0.4656    3.1667 N   0  0  0  0  0  0  0  0  0  0  0  0
   -2.4139    0.6698    2.8558 H   0  0  0  0  0  0  0  0  0  0  0  0
   -1.1587    0.6908    4.5775 C   0  0  0  0  0  0  0  0  0  0  0  0
   -0.4270    1.4968    4.6656 H   0  0  0  0  0  0  0  0  0  0  0  0
   -2.0565    0.9649    5.1327 H   0  0  0  0  0  0  0  0  0  0  0  0
   -0.7281   -0.2137    5.0125 H   0  0  0  0  0  0  0  0  0  0  0  0
  5  6  2  0  0  0  0
  5  7  1  0  0  0  0
  2  3  1  0  0  0  0
  2  4  1  0  0  0  0
  2  5  1  0  0  0  0
  1  2  1  0  0  0  0
 27 28  2  0  0  0  0
 27 29  1  0  0  0  0
 23 24  1  0  0  0  0
 23 25  1  0  0  0  0
 23 26  1  0  0  0  0
 20 21  1  0  0  0  0
 20 22  1  0  0  0  0
 20 23  1  0  0  0  0
 17 18  1  0  0  0  0
 17 19  1  0  0  0  0
 17 20  1  0  0  0  0
 14 15  1  0  0  0  0
 14 16  1  0  0  0  0
 14 17  1  0  0  0  0
 11 12  1  0  0  0  0
 11 13  1  0  0  0  0
 11 14  1  0  0  0  0
  9 10  1  0  0  0  0
  9 11  1  0  0  0  0
  9 27  1  0  0  0  0
  7  8  1  0  0  0  0
  7  9  1  0  0  0  0
 31 32  1  0  0  0  0
 31 33  1  0  0  0  0
 31 34  1  0  0  0  0
 29 30  1  0  0  0  0
 29 31  1  0  0  0  0
M  CHG  1  23   1
M  END
$$$$
default_name
  -OEChem-02102213163D

 34 33  0     1  0  0  0  0  0999 V2000
   -3.8899   -3.6747    1.6490 H   0  0  0  0  0  0  0  0  0  0  0  0
   -3.9109   -2.6717    1.2250 C   0  0  0  0  0  0  0  0  0  0  0  0
   -4.6009   -2.0517    1.7950 H   0  0  0  0  0  0  0  0  0  0  0  0
   -4.2309   -2.7237    0.1860 H   0  0  0  0  0  0  0  0  0  0  0  0
   -2.5229   -2.0787    1.2980 C   0  0  0  0  0  0  0  0  0  0  0  0
   -1.5999   -2.7227    1.7810 O   0  0  0  0  0  0  0  0  0  0  0  0
   -2.3659   -0.8447    0.8120 N   0  0  0  0  0  0  0  0  0  0  0  0
   -3.1749   -0.3807    0.4220 H   0  0  0  0  0  0  0  0  0  0  0  0
   -1.0919   -0.1077    0.8170 C   0  0  1  0  0  0  0  0  0  0  0  0
   -0.3571   -0.6901    0.2581 H   0  0  0  0  0  0  0  0  0  0  0  0
   -1.3037    1.2411    0.1040 C   0  0  0  0  0  0  0  0  0  0  0  0
   -0.4566    1.8905    0.3301 H   0  0  0  0  0  0  0  0  0  0  0  0
   -1.3278    1.0766   -0.9751 H   0  0  0  0  0  0  0  0  0  0  0  0
   -2.5915    1.9595    0.5352 C   0  0  0  0  0  0  0  0  0  0  0  0
   -2.9717    1.5119    1.4544 H   0  0  0  0  0  0  0  0  0  0  0  0
   -2.3718    3.0134    0.7162 H   0  0  0  0  0  0  0  0  0  0  0  0
   -3.6604    1.8442   -0.5604 C   0  0  0  0  0  0  0  0  0  0  0  0
   -3.2710    2.2798   -1.4837 H   0  0  0  0  0  0  0  0  0  0  0  0
   -3.8831    0.7890   -0.7310 H   0  0  0  0  0  0  0  0  0  0  0  0
   -4.9382    2.5821   -0.1419 C   0  0  0  0  0  0  0  0  0  0  0  0
   -5.3076    2.1366    0.7875 H   0  0  0  0  0  0  0  0  0  0  0  0
   -4.6848    3.6263    0.0646 H   0  0  0  0  0  0  0  0  0  0  0  0
   -5.9820    2.5068   -1.1952 N   0  3  0  0  0  0  0  0  0  0  0  0
   -6.2283    1.5430   -1.3832 H   0  0  0  0  0  0  0  0  0  0  0  0
   -6.8177    2.9983   -0.9039 H   0  0  0  0  0  0  0  0  0  0  0  0
   -5.6480    2.9259   -2.0552 H   0  0  0  0  0  0  0  0  0  0  0  0
   -0.5865    0.0771    2.2496 C   0  0  0  0  0  0  0  0  0  0  0  0
    0.5860   -0.1608    2.5143 O   0  0  0  0  0  0  0  0  0  0  0  0
   -1.4786    0.4656    3.1667 N   0  0  0  0  0  0  0  0  0  0  0  0
   -2.4139    0.6698    2.8558 H   0  0  0  0  0  0  0  0  0  0  0  0
   -1.1587    0.6908    4.5775 C   0  0  0  0  0  0  0  0  0  0  0  0
   -0.4270    1.4968    4.6656 H   0  0  0  0  0  0  0  0  0  0  0  0
   -2.0565    0.9649    5.1327 H   0  0  0  0  0  0  0  0  0  0  0  0
   -0.7281   -0.2137    5.0125 H   0  0  0  0  0  0  0  0  0  0  0  0
  5  6  2  0  0  0  0
  5  7  1  0  0  0  0
  2  3  1  0  0  0  0
  2  4  1  0  0  0  0
  2  5  1  0  0  0  0
  1  2  1  0  0  0  0
 27 28  2  0  0  0  0
 27 29  1  0  0  0  0
 23 24  1  0  0  0  0
 23 25  1  0  0  0  0
 23 26  1  0  0  0  0
 20 21  1  0  0  0  0
 20 22  1  0  0  0  0
 20 23  1  0  0  0  0
 17 18  1  0  0  0  0
 17 19  1  0  0  0  0
 17 20  1  0  0  0  0
 14 15  1  0  0  0  0
 14 16  1  0  0  0  0
 14 17  1  0  0  0  0
 11 12  1  0  0  0  0
 11 13  1  0  0  0  0
 11 14  1  0  0  0  0
  9 10  1  0  0  0  0
  9 11  1  0  0  0  0
  9 27  1  0  0  0  0
  7  8  1  0  0  0  0
  7  9  1  0  0  0  0
 31 32  1  0  0  0  0
 31 33  1  0  0  0  0
 31 34  1  0  0  0  0
 29 30  1  0  0  0  0
 29 31  1  0  0  0  0
M  CHG  1  23   1
M  END
$$$$
default_name
  -OEChem-02102213163D

 34 33  0     1  0  0  0  0  0999 V2000
   -3.8899   -3.6747    1.6490 H   0  0  0  0  0  0  0  0  0  0  0  0
   -3.9109   -2.6717    1.2250 C   0  0  0  0  0  0  0  0  0  0  0  0
   -4.6009   -2.0517    1.7950 H   0  0  0  0  0  0  0  0  0  0  0  0
   -4.2309   -2.7237    0.1860 H   0  0  0  0  0  0  0  0  0  0  0  0
   -2.5229   -2.0787    1.2980 C   0  0  0  0  0  0  0  0  0  0  0  0
   -1.5999   -2.7227    1.7810 O   0  0  0  0  0  0  0  0  0  0  0  0
   -2.3659   -0.8447    0.8120 N   0  0  0  0  0  0  0  0  0  0  0  0
   -3.1749   -0.3807    0.4220 H   0  0  0  0  0  0  0  0  0  0  0  0
   -1.0919   -0.1077    0.8170 C   0  0  1  0  0  0  0  0  0  0  0  0
   -0.3571   -0.6901    0.2581 H   0  0  0  0  0  0  0  0  0  0  0  0
   -1.3037    1.2411    0.1040 C   0  0  0  0  0  0  0  0  0  0  0  0
   -0.4566    1.8905    0.3301 H   0  0  0  0  0  0  0  0  0  0  0  0
   -1.3278    1.0766   -0.9751 H   0  0  0  0  0  0  0  0  0  0  0  0
   -2.5915    1.9595    0.5352 C   0  0  0  0  0  0  0  0  0  0  0  0
   -2.8255    1.7048    1.5697 H   0  0  0  0  0  0  0  0  0  0  0  0
   -2.4442    3.0385    0.4582 H   0  0  0  0  0  0  0  0  0  0  0  0
   -3.7635    1.5413   -0.3636 C   0  0  0  0  0  0  0  0  0  0  0  0
   -3.5198    1.7840   -1.4008 H   0  0  0  0  0  0  0  0  0  0  0  0
   -3.9125    0.4633   -0.2760 H   0  0  0  0  0  0  0  0  0  0  0  0
   -5.0445    2.2765    0.0499 C   0  0  0  0  0  0  0  0  0  0  0  0
   -5.2668    2.0267    1.0924 H   0  0  0  0  0  0  0  0  0  0  0  0
   -4.8601    3.3537   -0.0047 H   0  0  0  0  0  0  0  0  0  0  0  0
   -6.1902    1.9081   -0.8196 N   0  3  0  0  0  0  0  0  0  0  0  0
   -6.3724    0.9138   -0.7653 H   0  0  0  0  0  0  0  0  0  0  0  0
   -7.0269    2.4015   -0.5341 H   0  0  0  0  0  0  0  0  0  0  0  0
   -5.9929    2.1454   -1.7848 H   0  0  0  0  0  0  0  0  0  0  0  0
   -0.5865    0.0771    2.2496 C   0  0  0  0  0  0  0  0  0  0  0  0
    0.5860   -0.1608    2.5143 O   0  0  0  0  0  0  0  0  0  0  0  0
   -1.4786    0.4656    3.1667 N   0  0  0  0  0  0  0  0  0  0  0  0
   -2.4139    0.6698    2.8558 H   0  0  0  0  0  0  0  0  0  0  0  0
   -1.1587    0.6908    4.5775 C   0  0  0  0  0  0  0  0  0  0  0  0
   -0.4270    1.4968    4.6656 H   0  0  0  0  0  0  0  0  0  0  0  0
   -2.0565    0.9649    5.1327 H   0  0  0  0  0  0  0  0  0  0  0  0
   -0.7281   -0.2137    5.0125 H   0  0  0  0  0  0  0  0  0  0  0  0
  5  6  2  0  0  0  0
  5  7  1  0  0  0  0
  2  3  1  0  0  0  0
  2  4  1  0  0  0  0
  2  5  1  0  0  0  0
  1  2  1  0  0  0  0
 27 28  2  0  0  0  0
 27 29  1  0  0  0  0
 23 24  1  0  0  0  0
 23 25  1  0  0  0  0
 23 26  1  0  0  0  0
 20 21  1  0  0  0  0
 20 22  1  0  0  0  0
 20 23  1  0  0  0  0
 17 18  1  0  0  0  0
 17 19  1  0  0  0  0
 17 20  1  0  0  0  0
 14 15  1  0  0  0  0
 14 16  1  0  0  0  0
 14 17  1  0  0  0  0
 11 12  1  0  0  0  0
 11 13  1  0  0  0  0
 11 14  1  0  0  0  0
  9 10  1  0  0  0  0
  9 11  1  0  0  0  0
  9 27  1  0  0  0  0
  7  8  1  0  0  0  0
  7  9  1  0  0  0  0
 31 32  1  0  0  0  0
 31 33  1  0  0  0  0
 31 34  1  0  0  0  0
 29 30  1  0  0  0  0
 29 31  1  0  0  0  0
M  CHG  1  23   1
M  END
$$$$
default_name
  -OEChem-02102213163D

 34 33  0     1  0  0  0  0  0999 V2000
   -3.8899   -3.6747    1.6490 H   0  0  0  0  0  0  0  0  0  0  0  0
   -3.9109   -2.6717    1.2250 C   0  0  0  0  0  0  0  0  0  0  0  0
   -4.6009   -2.0517    1.7950 H   0  0  0  0  0  0  0  0  0  0  0  0
   -4.2309   -2.7237    0.1860 H   0  0  0  0  0  0  0  0  0  0  0  0
   -2.5229   -2.0787    1.2980 C   0  0  0  0  0  0  0  0  0  0  0  0
   -1.5999   -2.7227    1.7810 O   0  0  0  0  0  0  0  0  0  0  0  0
   -2.3659   -0.8447    0.8120 N   0  0  0  0  0  0  0  0  0  0  0  0
   -3.1749   -0.3807    0.4220 H   0  0  0  0  0  0  0  0  0  0  0  0
   -1.0919   -0.1077    0.8170 C   0  0  1  0  0  0  0  0  0  0  0  0
   -0.3571   -0.6901    0.2581 H   0  0  0  0  0  0  0  0  0  0  0  0
   -1.3037    1.2411    0.1040 C   0  0  0  0  0  0  0  0  0  0  0  0
   -0.4566    1.8905    0.3301 H   0  0  0  0  0  0  0  0  0  0  0  0
   -1.3278    1.0766   -0.9751 H   0  0  0  0  0  0  0  0  0  0  0  0
   -2.5915    1.9595    0.5352 C   0  0  0  0  0  0  0  0  0  0  0  0
   -2.6843    1.9268    1.6215 H   0  0  0  0  0  0  0  0  0  0  0  0
   -2.5472    3.0014    0.2123 H   0  0  0  0  0  0  0  0  0  0  0  0
   -3.8172    1.2840   -0.0954 C   0  0  0  0  0  0  0  0  0  0  0  0
   -3.7141    1.3050   -1.1829 H   0  0  0  0  0  0  0  0  0  0  0  0
   -3.8621    0.2452    0.2379 H   0  0  0  0  0  0  0  0  0  0  0  0
   -5.1017    2.0152    0.3143 C   0  0  0  0  0  0  0  0  0  0  0  0
   -5.1825    1.9898    1.4059 H   0  0  0  0  0  0  0  0  0  0  0  0
   -5.0180    3.0626    0.0088 H   0  0  0  0  0  0  0  0  0  0  0  0
   -6.3024    1.3962   -0.3018 N   0  3  0  0  0  0  0  0  0  0  0  0
   -6.3911    0.4295   -0.0144 H   0  0  0  0  0  0  0  0  0  0  0  0
   -7.1408    1.8900   -0.0221 H   0  0  0  0  0  0  0  0  0  0  0  0
   -6.2366    1.4252   -1.3126 H   0  0  0  0  0  0  0  0  0  0  0  0
   -0.5865    0.0771    2.2496 C   0  0  0  0  0  0  0  0  0  0  0  0
    0.5860   -0.1608    2.5143 O   0  0  0  0  0  0  0  0  0  0  0  0
   -1.4786    0.4656    3.1667 N   0  0  0  0  0  0  0  0  0  0  0  0
   -2.4139    0.6698    2.8558 H   0  0  0  0  0  0  0  0  0  0  0  0
   -1.1587    0.6908    4.5775 C   0  0  0  0  0  0  0  0  0  0  0  0
   -0.4270    1.4968    4.6656 H   0  0  0  0  0  0  0  0  0  0  0  0
   -2.0565    0.9649    5.1327 H   0  0  0  0  0  0  0  0  0  0  0  0
   -0.7281   -0.2137    5.0125 H   0  0  0  0  0  0  0  0  0  0  0  0
  5  6  2  0  0  0  0
  5  7  1  0  0  0  0
  2  3  1  0  0  0  0
  2  4  1  0  0  0  0
  2  5  1  0  0  0  0
  1  2  1  0  0  0  0
 27 28  2  0  0  0  0
 27 29  1  0  0  0  0
 23 24  1  0  0  0  0
 23 25  1  0  0  0  0
 23 26  1  0  0  0  0
 20 21  1  0  0  0  0
 20 22  1  0  0  0  0
 20 23  1  0  0  0  0
 17 18  1  0  0  0  0
 17 19  1  0  0  0  0
 17 20  1  0  0  0  0
 14 15  1  0  0  0  0
 14 16  1  0  0  0  0
 14 17  1  0  0  0  0
 11 12  1  0  0  0  0
 11 13  1  0  0  0  0
 11 14  1  0  0  0  0
  9 10  1  0  0  0  0
  9 11  1  0  0  0  0
  9 27  1  0  0  0  0
  7  8  1  0  0  0  0
  7  9  1  0  0  0  0
 31 32  1  0  0  0  0
 31 33  1  0  0  0  0
 31 34  1  0  0  0  0
 29 30  1  0  0  0  0
 29 31  1  0  0  0  0
M  CHG  1  23   1
M  END
$$$$
default_name
  -OEChem-02102213163D

 34 33  0     1  0  0  0  0  0999 V2000
   -3.8899   -3.6747    1.6490 H   0  0  0  0  0  0  0  0  0  0  0  0
   -3.9109   -2.6717    1.2250 C   0  0  0  0  0  0  0  0  0  0  0  0
   -4.6009   -2.0517    1.7950 H   0  0  0  0  0  0  0  0  0  0  0  0
   -4.2309   -2.7237    0.1860 H   0  0  0  0  0  0  0  0  0  0  0  0
   -2.5229   -2.0787    1.2980 C   0  0  0  0  0  0  0  0  0  0  0  0
   -1.5999   -2.7227    1.7810 O   0  0  0  0  0  0  0  0  0  0  0  0
   -2.3659   -0.8447    0.8120 N   0  0  0  0  0  0  0  0  0  0  0  0
   -3.1749   -0.3807    0.4220 H   0  0  0  0  0  0  0  0  0  0  0  0
   -1.0919   -0.1077    0.8170 C   0  0  1  0  0  0  0  0  0  0  0  0
   -0.3571   -0.6901    0.2581 H   0  0  0  0  0  0  0  0  0  0  0  0
   -1.3037    1.2411    0.1040 C   0  0  0  0  0  0  0  0  0  0  0  0
   -0.4566    1.8905    0.3301 H   0  0  0  0  0  0  0  0  0  0  0  0
   -1.3278    1.0766   -0.9751 H   0  0  0  0  0  0  0  0  0  0  0  0
   -2.5915    1.9595    0.5352 C   0  0  0  0  0  0  0  0  0  0  0  0
   -2.5578    2.1627    1.6063 H   0  0  0  0  0  0  0  0  0  0  0  0
   -2.6737    2.9048   -0.0047 H   0  0  0  0  0  0  0  0  0  0  0  0
   -3.8179    1.0897    0.2261 C   0  0  0  0  0  0  0  0  0  0  0  0
   -3.8406    0.8755   -0.8451 H   0  0  0  0  0  0  0  0  0  0  0  0
   -3.7354    0.1497    0.7754 H   0  0  0  0  0  0  0  0  0  0  0  0
   -5.1060    1.8160    0.6333 C   0  0  0  0  0  0  0  0  0  0  0  0
   -5.0604    2.0281    1.7064 H   0  0  0  0  0  0  0  0  0  0  0  0
   -5.1478    2.7728    0.1040 H   0  0  0  0  0  0  0  0  0  0  0  0
   -6.3110    1.0058    0.3230 N   0  3  0  0  0  0  0  0  0  0  0  0
   -6.2832    0.1234    0.8182 H   0  0  0  0  0  0  0  0  0  0  0  0
   -7.1517    1.4988    0.5971 H   0  0  0  0  0  0  0  0  0  0  0  0
   -6.3625    0.8142   -0.6708 H   0  0  0  0  0  0  0  0  0  0  0  0
   -0.5865    0.0771    2.2496 C   0  0  0  0  0  0  0  0  0  0  0  0
    0.5860   -0.1608    2.5143 O   0  0  0  0  0  0  0  0  0  0  0  0
   -1.4786    0.4656    3.1667 N   0  0  0  0  0  0  0  0  0  0  0  0
   -2.4139    0.6698    2.8558 H   0  0  0  0  0  0  0  0  0  0  0  0
   -1.1587    0.6908    4.5775 C   0  0  0  0  0  0  0  0  0  0  0  0
   -0.4270    1.4968    4.6656 H   0  0  0  0  0  0  0  0  0  0  0  0
   -2.0565    0.9649    5.1327 H   0  0  0  0  0  0  0  0  0  0  0  0
   -0.7281   -0.2137    5.0125 H   0  0  0  0  0  0  0  0  0  0  0  0
  5  6  2  0  0  0  0
  5  7  1  0  0  0  0
  2  3  1  0  0  0  0
  2  4  1  0  0  0  0
  2  5  1  0  0  0  0
  1  2  1  0  0  0  0
 27 28  2  0  0  0  0
 27 29  1  0  0  0  0
 23 24  1  0  0  0  0
 23 25  1  0  0  0  0
 23 26  1  0  0  0  0
 20 21  1  0  0  0  0
 20 22  1  0  0  0  0
 20 23  1  0  0  0  0
 17 18  1  0  0  0  0
 17 19  1  0  0  0  0
 17 20  1  0  0  0  0
 14 15  1  0  0  0  0
 14 16  1  0  0  0  0
 14 17  1  0  0  0  0
 11 12  1  0  0  0  0
 11 13  1  0  0  0  0
 11 14  1  0  0  0  0
  9 10  1  0  0  0  0
  9 11  1  0  0  0  0
  9 27  1  0  0  0  0
  7  8  1  0  0  0  0
  7  9  1  0  0  0  0
 31 32  1  0  0  0  0
 31 33  1  0  0  0  0
 31 34  1  0  0  0  0
 29 30  1  0  0  0  0
 29 31  1  0  0  0  0
M  CHG  1  23   1
M  END
$$$$
default_name
  -OEChem-02102213163D

 34 33  0     1  0  0  0  0  0999 V2000
   -3.8899   -3.6747    1.6490 H   0  0  0  0  0  0  0  0  0  0  0  0
   -3.9109   -2.6717    1.2250 C   0  0  0  0  0  0  0  0  0  0  0  0
   -4.6009   -2.0517    1.7950 H   0  0  0  0  0  0  0  0  0  0  0  0
   -4.2309   -2.7237    0.1860 H   0  0  0  0  0  0  0  0  0  0  0  0
   -2.5229   -2.0787    1.2980 C   0  0  0  0  0  0  0  0  0  0  0  0
   -1.5999   -2.7227    1.7810 O   0  0  0  0  0  0  0  0  0  0  0  0
   -2.3659   -0.8447    0.8120 N   0  0  0  0  0  0  0  0  0  0  0  0
   -3.1749   -0.3807    0.4220 H   0  0  0  0  0  0  0  0  0  0  0  0
   -1.0919   -0.1077    0.8170 C   0  0  1  0  0  0  0  0  0  0  0  0
   -0.3571   -0.6901    0.2581 H   0  0  0  0  0  0  0  0  0  0  0  0
   -1.3037    1.2411    0.1040 C   0  0  0  0  0  0  0  0  0  0  0  0
   -0.4566    1.8905    0.3301 H   0  0  0  0  0  0  0  0  0  0  0  0
   -1.3278    1.0766   -0.9751 H   0  0  0  0  0  0  0  0  0  0  0  0
   -2.5915    1.9595    0.5352 C   0  0  0  0  0  0  0  0  0  0  0  0
   -2.4546    2.3965    1.5252 H   0  0  0  0  0  0  0  0  0  0  0  0
   -2.8152    2.7553   -0.1780 H   0  0  0  0  0  0  0  0  0  0  0  0
   -3.7656    0.9717    0.5789 C   0  0  0  0  0  0  0  0  0  0  0  0
   -3.8907    0.5247   -0.4103 H   0  0  0  0  0  0  0  0  0  0  0  0
   -3.5410    0.1833    1.3000 H   0  0  0  0  0  0  0  0  0  0  0  0
   -5.0571    1.6925    0.9851 C   0  0  0  0  0  0  0  0  0  0  0  0
   -4.9090    2.1393    1.9736 H   0  0  0  0  0  0  0  0  0  0  0  0
   -5.2405    2.5041    0.2746 H   0  0  0  0  0  0  0  0  0  0  0  0
   -6.2153    0.7638    1.0122 N   0  3  0  0  0  0  0  0  0  0  0  0
   -6.0559    0.0161    1.6758 H   0  0  0  0  0  0  0  0  0  0  0  0
   -7.0588    1.2545    1.2815 H   0  0  0  0  0  0  0  0  0  0  0  0
   -6.3621    0.3541    0.0970 H   0  0  0  0  0  0  0  0  0  0  0  0
   -0.5865    0.0771    2.2496 C   0  0  0  0  0  0  0  0  0  0  0  0
    0.5860   -0.1608    2.5143 O   0  0  0  0  0  0  0  0  0  0  0  0
   -1.4786    0.4656    3.1667 N   0  0  0  0  0  0  0  0  0  0  0  0
   -2.4139    0.6698    2.8558 H   0  0  0  0  0  0  0  0  0  0  0  0
   -1.1587    0.6908    4.5775 C   0  0  0  0  0  0  0  0  0  0  0  0
   -0.4270    1.4968    4.6656 H   0  0  0  0  0  0  0  0  0  0  0  0
   -2.0565    0.9649    5.1327 H   0  0  0  0  0  0  0  0  0  0  0  0
   -0.7281   -0.2137    5.0125 H   0  0  0  0  0  0  0  0  0  0  0  0
  5  6  2  0  0  0  0
  5  7  1  0  0  0  0
  2  3  1  0  0  0  0
  2  4  1  0  0  0  0
  2  5  1  0  0  0  0
  1  2  1  0  0  0  0
 27 28  2  0  0  0  0
 27 29  1  0  0  0  0
 23 24  1  0  0  0  0
 23 25  1  0  0  0  0
 23 26  1  0  0  0  0
 20 21  1  0  0  0  0
 20 22  1  0  0  0  0
 20 23  1  0  0  0  0
 17 18  1  0  0  0  0
 17 19  1  0  0  0  0
 17 20  1  0  0  0  0
 14 15  1  0  0  0  0
 14 16  1  0  0  0  0
 14 17  1  0  0  0  0
 11 12  1  0  0  0  0
 11 13  1  0  0  0  0
 11 14  1  0  0  0  0
  9 10  1  0  0  0  0
  9 11  1  0  0  0  0
  9 27  1  0  0  0  0
  7  8  1  0  0  0  0
  7  9  1  0  0  0  0
 31 32  1  0  0  0  0
 31 33  1  0  0  0  0
 31 34  1  0  0  0  0
 29 30  1  0  0  0  0
 29 31  1  0  0  0  0
M  CHG  1  23   1
M  END
$$$$
default_name
  -OEChem-02102213163D

 34 33  0     1  0  0  0  0  0999 V2000
   -3.8899   -3.6747    1.6490 H   0  0  0  0  0  0  0  0  0  0  0  0
   -3.9109   -2.6717    1.2250 C   0  0  0  0  0  0  0  0  0  0  0  0
   -4.6009   -2.0517    1.7950 H   0  0  0  0  0  0  0  0  0  0  0  0
   -4.2309   -2.7237    0.1860 H   0  0  0  0  0  0  0  0  0  0  0  0
   -2.5229   -2.0787    1.2980 C   0  0  0  0  0  0  0  0  0  0  0  0
   -1.5999   -2.7227    1.7810 O   0  0  0  0  0  0  0  0  0  0  0  0
   -2.3659   -0.8447    0.8120 N   0  0  0  0  0  0  0  0  0  0  0  0
   -3.1749   -0.3807    0.4220 H   0  0  0  0  0  0  0  0  0  0  0  0
   -1.0919   -0.1077    0.8170 C   0  0  1  0  0  0  0  0  0  0  0  0
   -0.3571   -0.6901    0.2581 H   0  0  0  0  0  0  0  0  0  0  0  0
   -1.3037    1.2411    0.1040 C   0  0  0  0  0  0  0  0  0  0  0  0
   -0.4566    1.8905    0.3301 H   0  0  0  0  0  0  0  0  0  0  0  0
   -1.3278    1.0766   -0.9751 H   0  0  0  0  0  0  0  0  0  0  0  0
   -2.5915    1.9595    0.5352 C   0  0  0  0  0  0  0  0  0  0  0  0
   -2.3817    2.6122    1.3836 H   0  0  0  0  0  0  0  0  0  0  0  0
   -2.9619    2.5629   -0.2958 H   0  0  0  0  0  0  0  0  0  0  0  0
   -3.6639    0.9381    0.9388 C   0  0  0  0  0  0  0  0  0  0  0  0
   -3.8610    0.2765    0.0919 H   0  0  0  0  0  0  0  0  0  0  0  0
   -3.2923    0.3436    1.7759 H   0  0  0  0  0  0  0  0  0  0  0  0
   -4.9584    1.6531    1.3459 C   0  0  0  0  0  0  0  0  0  0  0  0
   -4.7384    2.3156    2.1893 H   0  0  0  0  0  0  0  0  0  0  0  0
   -5.2900    2.2749    0.5089 H   0  0  0  0  0  0  0  0  0  0  0  0
   -6.0218    0.6864    1.7189 N   0  3  0  0  0  0  0  0  0  0  0  0
   -5.7248    0.1150    2.4999 H   0  0  0  0  0  0  0  0  0  0  0  0
   -6.8686    1.1737    1.9843 H   0  0  0  0  0  0  0  0  0  0  0  0
   -6.2354    0.0763    0.9384 H   0  0  0  0  0  0  0  0  0  0  0  0
   -0.5865    0.0771    2.2496 C   0  0  0  0  0  0  0  0  0  0  0  0
    0.5860   -0.1608    2.5143 O   0  0  0  0  0  0  0  0  0  0  0  0
   -1.4786    0.4656    3.1667 N   0  0  0  0  0  0  0  0  0  0  0  0
   -2.4139    0.6698    2.8558 H   0  0  0  0  0  0  0  0  0  0  0  0
   -1.1587    0.6908    4.5775 C   0  0  0  0  0  0  0  0  0  0  0  0
   -0.4270    1.4968    4.6656 H   0  0  0  0  0  0  0  0  0  0  0  0
   -2.0565    0.9649    5.1327 H   0  0  0  0  0  0  0  0  0  0  0  0
   -0.7281   -0.2137    5.0125 H   0  0  0  0  0  0  0  0  0  0  0  0
  5  6  2  0  0  0  0
  5  7  1  0  0  0  0
  2  3  1  0  0  0  0
  2  4  1  0  0  0  0
  2  5  1  0  0  0  0
  1  2  1  0  0  0  0
 27 28  2  0  0  0  0
 27 29  1  0  0  0  0
 23 24  1  0  0  0  0
 23 25  1  0  0  0  0
 23 26  1  0  0  0  0
 20 21  1  0  0  0  0
 20 22  1  0  0  0  0
 20 23  1  0  0  0  0
 17 18  1  0  0  0  0
 17 19  1  0  0  0  0
 17 20  1  0  0  0  0
 14 15  1  0  0  0  0
 14 16  1  0  0  0  0
 14 17  1  0  0  0  0
 11 12  1  0  0  0  0
 11 13  1  0  0  0  0
 11 14  1  0  0  0  0
  9 10  1  0  0  0  0
  9 11  1  0  0  0  0
  9 27  1  0  0  0  0
  7  8  1  0  0  0  0
  7  9  1  0  0  0  0
 31 32  1  0  0  0  0
 31 33  1  0  0  0  0
 31 34  1  0  0  0  0
 29 30  1  0  0  0  0
 29 31  1  0  0  0  0
M  CHG  1  23   1
M  END
$$$$
default_name
  -OEChem-02102213163D

 34 33  0     1  0  0  0  0  0999 V2000
   -3.8899   -3.6747    1.6490 H   0  0  0  0  0  0  0  0  0  0  0  0
   -3.9109   -2.6717    1.2250 C   0  0  0  0  0  0  0  0  0  0  0  0
   -4.6009   -2.0517    1.7950 H   0  0  0  0  0  0  0  0  0  0  0  0
   -4.2309   -2.7237    0.1860 H   0  0  0  0  0  0  0  0  0  0  0  0
   -2.5229   -2.0787    1.2980 C   0  0  0  0  0  0  0  0  0  0  0  0
   -1.5999   -2.7227    1.7810 O   0  0  0  0  0  0  0  0  0  0  0  0
   -2.3659   -0.8447    0.8120 N   0  0  0  0  0  0  0  0  0  0  0  0
   -3.1749   -0.3807    0.4220 H   0  0  0  0  0  0  0  0  0  0  0  0
   -1.0919   -0.1077    0.8170 C   0  0  1  0  0  0  0  0  0  0  0  0
   -0.3571   -0.6901    0.2581 H   0  0  0  0  0  0  0  0  0  0  0  0
   -1.3037    1.2411    0.1040 C   0  0  0  0  0  0  0  0  0  0  0  0
   -0.4566    1.8905    0.3301 H   0  0  0  0  0  0  0  0  0  0  0  0
   -1.3278    1.0766   -0.9751 H   0  0  0  0  0  0  0  0  0  0  0  0
   -2.5915    1.9595    0.5352 C   0  0  0  0  0  0  0  0  0  0  0  0
   -2.3441    2.7951    1.1912 H   0  0  0  0  0  0  0  0  0  0  0  0
   -3.1040    2.3409   -0.3502 H   0  0  0  0  0  0  0  0  0  0  0  0
   -3.5196    0.9911    1.2816 C   0  0  0  0  0  0  0  0  0  0  0  0
   -3.7535    0.1479    0.6272 H   0  0  0  0  0  0  0  0  0  0  0  0
   -3.0060    0.6198    2.1707 H   0  0  0  0  0  0  0  0  0  0  0  0
   -4.8164    1.7004    1.6909 C   0  0  0  0  0  0  0  0  0  0  0  0
   -4.5603    2.5451    2.3387 H   0  0  0  0  0  0  0  0  0  0  0  0
   -5.2927    2.1007    0.7908 H   0  0  0  0  0  0  0  0  0  0  0  0
   -5.7438    0.7791    2.3948 N   0  3  0  0  0  0  0  0  0  0  0  0
   -5.3124    0.4134    3.2345 H   0  0  0  0  0  0  0  0  0  0  0  0
   -6.5939    1.2619    2.6576 H   0  0  0  0  0  0  0  0  0  0  0  0
   -5.9909   -0.0002    1.7961 H   0  0  0  0  0  0  0  0  0  0  0  0
   -0.5865    0.0771    2.2496 C   0  0  0  0  0  0  0  0  0  0  0  0
    0.5860   -0.1608    2.5143 O   0  0  0  0  0  0  0  0  0  0  0  0
   -1.4786    0.4656    3.1667 N   0  0  0  0  0  0  0  0  0  0  0  0
   -2.4139    0.6698    2.8558 H   0  0  0  0  0  0  0  0  0  0  0  0
   -1.1587    0.6908    4.5775 C   0  0  0  0  0  0  0  0  0  0  0  0
   -0.4270    1.4968    4.6656 H   0  0  0  0  0  0  0  0  0  0  0  0
   -2.0565    0.9649    5.1327 H   0  0  0  0  0  0  0  0  0  0  0  0
   -0.7281   -0.2137    5.0125 H   0  0  0  0  0  0  0  0  0  0  0  0
  5  6  2  0  0  0  0
  5  7  1  0  0  0  0
  2  3  1  0  0  0  0
  2  4  1  0  0  0  0
  2  5  1  0  0  0  0
  1  2  1  0  0  0  0
 27 28  2  0  0  0  0
 27 29  1  0  0  0  0
 23 24  1  0  0  0  0
 23 25  1  0  0  0  0
 23 26  1  0  0  0  0
 20 21  1  0  0  0  0
 20 22  1  0  0  0  0
 20 23  1  0  0  0  0
 17 18  1  0  0  0  0
 17 19  1  0  0  0  0
 17 20  1  0  0  0  0
 14 15  1  0  0  0  0
 14 16  1  0  0  0  0
 14 17  1  0  0  0  0
 11 12  1  0  0  0  0
 11 13  1  0  0  0  0
 11 14  1  0  0  0  0
  9 10  1  0  0  0  0
  9 11  1  0  0  0  0
  9 27  1  0  0  0  0
  7  8  1  0  0  0  0
  7  9  1  0  0  0  0
 31 32  1  0  0  0  0
 31 33  1  0  0  0  0
 31 34  1  0  0  0  0
 29 30  1  0  0  0  0
 29 31  1  0  0  0  0
M  CHG  1  23   1
M  END
$$$$
default_name
  -OEChem-02102213163D

 34 33  0     1  0  0  0  0  0999 V2000
   -3.8899   -3.6747    1.6490 H   0  0  0  0  0  0  0  0  0  0  0  0
   -3.9109   -2.6717    1.2250 C   0  0  0  0  0  0  0  0  0  0  0  0
   -4.6009   -2.0517    1.7950 H   0  0  0  0  0  0  0  0  0  0  0  0
   -4.2309   -2.7237    0.1860 H   0  0  0  0  0  0  0  0  0  0  0  0
   -2.5229   -2.0787    1.2980 C   0  0  0  0  0  0  0  0  0  0  0  0
   -1.5999   -2.7227    1.7810 O   0  0  0  0  0  0  0  0  0  0  0  0
   -2.3659   -0.8447    0.8120 N   0  0  0  0  0  0  0  0  0  0  0  0
   -3.1749   -0.3807    0.4220 H   0  0  0  0  0  0  0  0  0  0  0  0
   -1.0919   -0.1077    0.8170 C   0  0  1  0  0  0  0  0  0  0  0  0
   -0.3571   -0.6901    0.2581 H   0  0  0  0  0  0  0  0  0  0  0  0
   -1.3037    1.2411    0.1040 C   0  0  0  0  0  0  0  0  0  0  0  0
   -0.4566    1.8905    0.3301 H   0  0  0  0  0  0  0  0  0  0  0  0
   -1.3278    1.0766   -0.9751 H   0  0  0  0  0  0  0  0  0  0  0  0
   -2.5915    1.9595    0.5352 C   0  0  0  0  0  0  0  0  0  0  0  0
   -2.3443    2.9328    0.9611 H   0  0  0  0  0  0  0  0  0  0  0  0
   -3.2316    2.1044   -0.3373 H   0  0  0  0  0  0  0  0  0  0  0  0
   -3.3425    1.1271    1.5836 C   0  0  0  0  0  0  0  0  0  0  0  0
   -3.5755    0.1477    1.1591 H   0  0  0  0  0  0  0  0  0  0  0  0
   -2.7018    0.9930    2.4574 H   0  0  0  0  0  0  0  0  0  0  0  0
   -4.6410    1.8313    1.9968 C   0  0  0  0  0  0  0  0  0  0  0  0
   -4.3869    2.8122    2.4117 H   0  0  0  0  0  0  0  0  0  0  0  0
   -5.2486    1.9935    1.1014 H   0  0  0  0  0  0  0  0  0  0  0  0
   -5.4002    1.0354    2.9940 N   0  3  0  0  0  0  0  0  0  0  0  0
   -4.8468    0.8910    3.8293 H   0  0  0  0  0  0  0  0  0  0  0  0
   -6.2536    1.5132    3.2557 H   0  0  0  0  0  0  0  0  0  0  0  0
   -5.6455    0.1296    2.6115 H   0  0  0  0  0  0  0  0  0  0  0  0
   -0.5865    0.0771    2.2496 C   0  0  0  0  0  0  0  0  0  0  0  0
    0.5860   -0.1608    2.5143 O   0  0  0  0  0  0  0  0  0  0  0  0
   -1.4786    0.4656    3.1667 N   0  0  0  0  0  0  0  0  0  0  0  0
   -2.4139    0.6698    2.8558 H   0  0  0  0  0  0  0  0  0  0  0  0
   -1.1587    0.6908    4.5775 C   0  0  0  0  0  0  0  0  0  0  0  0
   -0.4270    1.4968    4.6656 H   0  0  0  0  0  0  0  0  0  0  0  0
   -2.0565    0.9649    5.1327 H   0  0  0  0  0  0  0  0  0  0  0  0
   -0.7281   -0.2137    5.0125 H   0  0  0  0  0  0  0  0  0  0  0  0
  5  6  2  0  0  0  0
  5  7  1  0  0  0  0
  2  3  1  0  0  0  0
  2  4  1  0  0  0  0
  2  5  1  0  0  0  0
  1  2  1  0  0  0  0
 27 28  2  0  0  0  0
 27 29  1  0  0  0  0
 23 24  1  0  0  0  0
 23 25  1  0  0  0  0
 23 26  1  0  0  0  0
 20 21  1  0  0  0  0
 20 22  1  0  0  0  0
 20 23  1  0  0  0  0
 17 18  1  0  0  0  0
 17 19  1  0  0  0  0
 17 20  1  0  0  0  0
 14 15  1  0  0  0  0
 14 16  1  0  0  0  0
 14 17  1  0  0  0  0
 11 12  1  0  0  0  0
 11 13  1  0  0  0  0
 11 14  1  0  0  0  0
  9 10  1  0  0  0  0
  9 11  1  0  0  0  0
  9 27  1  0  0  0  0
  7  8  1  0  0  0  0
  7  9  1  0  0  0  0
 31 32  1  0  0  0  0
 31 33  1  0  0  0  0
 31 34  1  0  0  0  0
 29 30  1  0  0  0  0
 29 31  1  0  0  0  0
M  CHG  1  23   1
M  END
$$$$
default_name
  -OEChem-02102213163D

 34 33  0     1  0  0  0  0  0999 V2000
   -3.8899   -3.6747    1.6490 H   0  0  0  0  0  0  0  0  0  0  0  0
   -3.9109   -2.6717    1.2250 C   0  0  0  0  0  0  0  0  0  0  0  0
   -4.6009   -2.0517    1.7950 H   0  0  0  0  0  0  0  0  0  0  0  0
   -4.2309   -2.7237    0.1860 H   0  0  0  0  0  0  0  0  0  0  0  0
   -2.5229   -2.0787    1.2980 C   0  0  0  0  0  0  0  0  0  0  0  0
   -1.5999   -2.7227    1.7810 O   0  0  0  0  0  0  0  0  0  0  0  0
   -2.3659   -0.8447    0.8120 N   0  0  0  0  0  0  0  0  0  0  0  0
   -3.1749   -0.3807    0.4220 H   0  0  0  0  0  0  0  0  0  0  0  0
   -1.0919   -0.1077    0.8170 C   0  0  1  0  0  0  0  0  0  0  0  0
   -0.3571   -0.6901    0.2581 H   0  0  0  0  0  0  0  0  0  0  0  0
   -1.3037    1.2411    0.1040 C   0  0  0  0  0  0  0  0  0  0  0  0
   -0.4566    1.8905    0.3301 H   0  0  0  0  0  0  0  0  0  0  0  0
   -1.3278    1.0766   -0.9751 H   0  0  0  0  0  0  0  0  0  0  0  0
   -2.5915    1.9595    0.5352 C   0  0  0  0  0  0  0  0  0  0  0  0
   -2.3824    3.0158    0.7090 H   0  0  0  0  0  0  0  0  0  0  0  0
   -3.3362    1.8694   -0.2581 H   0  0  0  0  0  0  0  0  0  0  0  0
   -3.1449    1.3369    1.8245 C   0  0  0  0  0  0  0  0  0  0  0  0
   -3.3393    0.2757    1.6515 H   0  0  0  0  0  0  0  0  0  0  0  0
   -2.4003    1.4379    2.6167 H   0  0  0  0  0  0  0  0  0  0  0  0
   -4.4440    2.0369    2.2426 C   0  0  0  0  0  0  0  0  0  0  0  0
   -4.2300    3.0985    2.4033 H   0  0  0  0  0  0  0  0  0  0  0  0
   -5.1606    1.9604    1.4192 H   0  0  0  0  0  0  0  0  0  0  0  0
   -5.0144    1.4379    3.4756 N   0  3  0  0  0  0  0  0  0  0  0  0
   -4.3598    1.5151    4.2439 H   0  0  0  0  0  0  0  0  0  0  0  0
   -5.8706    1.9103    3.7376 H   0  0  0  0  0  0  0  0  0  0  0  0
   -5.2225    0.4570    3.3292 H   0  0  0  0  0  0  0  0  0  0  0  0
   -0.5865    0.0771    2.2496 C   0  0  0  0  0  0  0  0  0  0  0  0
    0.5860   -0.1608    2.5143 O   0  0  0  0  0  0  0  0  0  0  0  0
   -1.4786    0.4656    3.1667 N   0  0  0  0  0  0  0  0  0  0  0  0
   -2.4139    0.6698    2.8558 H   0  0  0  0  0  0  0  0  0  0  0  0
   -1.1587    0.6908    4.5775 C   0  0  0  0  0  0  0  0  0  0  0  0
   -0.4270    1.4968    4.6656 H   0  0  0  0  0  0  0  0  0  0  0  0
   -2.0565    0.9649    5.1327 H   0  0  0  0  0  0  0  0  0  0  0  0
   -0.7281   -0.2137    5.0125 H   0  0  0  0  0  0  0  0  0  0  0  0
  5  6  2  0  0  0  0
  5  7  1  0  0  0  0
  2  3  1  0  0  0  0
  2  4  1  0  0  0  0
  2  5  1  0  0  0  0
  1  2  1  0  0  0  0
 27 28  2  0  0  0  0
 27 29  1  0  0  0  0
 23 24  1  0  0  0  0
 23 25  1  0  0  0  0
 23 26  1  0  0  0  0
 20 21  1  0  0  0  0
 20 22  1  0  0  0  0
 20 23  1  0  0  0  0
 17 18  1  0  0  0  0
 17 19  1  0  0  0  0
 17 20  1  0  0  0  0
 14 15  1  0  0  0  0
 14 16  1  0  0  0  0
 14 17  1  0  0  0  0
 11 12  1  0  0  0  0
 11 13  1  0  0  0  0
 11 14  1  0  0  0  0
  9 10  1  0  0  0  0
  9 11  1  0  0  0  0
  9 27  1  0  0  0  0
  7  8  1  0  0  0  0
  7  9  1  0  0  0  0
 31 32  1  0  0  0  0
 31 33  1  0  0  0  0
 31 34  1  0  0  0  0
 29 30  1  0  0  0  0
 29 31  1  0  0  0  0
M  CHG  1  23   1
M  END
$$$$
default_name
  -OEChem-02102213163D

 34 33  0     1  0  0  0  0  0999 V2000
   -3.8899   -3.6747    1.6490 H   0  0  0  0  0  0  0  0  0  0  0  0
   -3.9109   -2.6717    1.2250 C   0  0  0  0  0  0  0  0  0  0  0  0
   -4.6009   -2.0517    1.7950 H   0  0  0  0  0  0  0  0  0  0  0  0
   -4.2309   -2.7237    0.1860 H   0  0  0  0  0  0  0  0  0  0  0  0
   -2.5229   -2.0787    1.2980 C   0  0  0  0  0  0  0  0  0  0  0  0
   -1.5999   -2.7227    1.7810 O   0  0  0  0  0  0  0  0  0  0  0  0
   -2.3659   -0.8447    0.8120 N   0  0  0  0  0  0  0  0  0  0  0  0
   -3.1749   -0.3807    0.4220 H   0  0  0  0  0  0  0  0  0  0  0  0
   -1.0919   -0.1077    0.8170 C   0  0  1  0  0  0  0  0  0  0  0  0
   -0.3571   -0.6901    0.2581 H   0  0  0  0  0  0  0  0  0  0  0  0
   -1.3037    1.2411    0.1040 C   0  0  0  0  0  0  0  0  0  0  0  0
   -0.4566    1.8905    0.3301 H   0  0  0  0  0  0  0  0  0  0  0  0
   -1.3278    1.0766   -0.9751 H   0  0  0  0  0  0  0  0  0  0  0  0
   -2.5915    1.9595    0.5352 C   0  0  0  0  0  0  0  0  0  0  0  0
   -2.4557    3.0386    0.4521 H   0  0  0  0  0  0  0  0  0  0  0  0
   -3.4105    1.6520   -0.1180 H   0  0  0  0  0  0  0  0  0  0  0  0
   -2.9400    1.6062    1.9877 C   0  0  0  0  0  0  0  0  0  0  0  0
   -3.0607    0.5234    2.0707 H   0  0  0  0  0  0  0  0  0  0  0  0
   -2.1222    1.9240    2.6375 H   0  0  0  0  0  0  0  0  0  0  0  0
   -4.2390    2.3031    2.4115 C   0  0  0  0  0  0  0  0  0  0  0  0
   -4.1002    3.3847    2.3141 H   0  0  0  0  0  0  0  0  0  0  0  0
   -5.0348    2.0038    1.7228 H   0  0  0  0  0  0  0  0  0  0  0  0
   -4.6127    1.9592    3.8067 N   0  3  0  0  0  0  0  0  0  0  0  0
   -3.8846    2.2433    4.4501 H   0  0  0  0  0  0  0  0  0  0  0  0
   -5.4713    2.4263    4.0707 H   0  0  0  0  0  0  0  0  0  0  0  0
   -4.7509    0.9597    3.9002 H   0  0  0  0  0  0  0  0  0  0  0  0
   -0.5865    0.0771    2.2496 C   0  0  0  0  0  0  0  0  0  0  0  0
    0.5860   -0.1608    2.5143 O   0  0  0  0  0  0  0  0  0  0  0  0
   -1.4786    0.4656    3.1667 N   0  0  0  0  0  0  0  0  0  0  0  0
   -2.4139    0.6698    2.8558 H   0  0  0  0  0  0  0  0  0  0  0  0
   -1.1587    0.6908    4.5775 C   0  0  0  0  0  0  0  0  0  0  0  0
   -0.4270    1.4968    4.6656 H   0  0  0  0  0  0  0  0  0  0  0  0
   -2.0565    0.9649    5.1327 H   0  0  0  0  0  0  0  0  0  0  0  0
   -0.7281   -0.2137    5.0125 H   0  0  0  0  0  0  0  0  0  0  0  0
  5  6  2  0  0  0  0
  5  7  1  0  0  0  0
  2  3  1  0  0  0  0
  2  4  1  0  0  0  0
  2  5  1  0  0  0  0
  1  2  1  0  0  0  0
 27 28  2  0  0  0  0
 27 29  1  0  0  0  0
 23 24  1  0  0  0  0
 23 25  1  0  0  0  0
 23 26  1  0  0  0  0
 20 21  1  0  0  0  0
 20 22  1  0  0  0  0
 20 23  1  0  0  0  0
 17 18  1  0  0  0  0
 17 19  1  0  0  0  0
 17 20  1  0  0  0  0
 14 15  1  0  0  0  0
 14 16  1  0  0  0  0
 14 17  1  0  0  0  0
 11 12  1  0  0  0  0
 11 13  1  0  0  0  0
 11 14  1  0  0  0  0
  9 10  1  0  0  0  0
  9 11  1  0  0  0  0
  9 27  1  0  0  0  0
  7  8  1  0  0  0  0
  7  9  1  0  0  0  0
 31 32  1  0  0  0  0
 31 33  1  0  0  0  0
 31 34  1  0  0  0  0
 29 30  1  0  0  0  0
 29 31  1  0  0  0  0
M  CHG  1  23   1
M  END
$$$$
default_name
  -OEChem-02102213163D

 34 33  0     1  0  0  0  0  0999 V2000
   -3.8899   -3.6747    1.6490 H   0  0  0  0  0  0  0  0  0  0  0  0
   -3.9109   -2.6717    1.2250 C   0  0  0  0  0  0  0  0  0  0  0  0
   -4.6009   -2.0517    1.7950 H   0  0  0  0  0  0  0  0  0  0  0  0
   -4.2309   -2.7237    0.1860 H   0  0  0  0  0  0  0  0  0  0  0  0
   -2.5229   -2.0787    1.2980 C   0  0  0  0  0  0  0  0  0  0  0  0
   -1.5999   -2.7227    1.7810 O   0  0  0  0  0  0  0  0  0  0  0  0
   -2.3659   -0.8447    0.8120 N   0  0  0  0  0  0  0  0  0  0  0  0
   -3.1749   -0.3807    0.4220 H   0  0  0  0  0  0  0  0  0  0  0  0
   -1.0919   -0.1077    0.8170 C   0  0  1  0  0  0  0  0  0  0  0  0
   -0.3571   -0.6901    0.2581 H   0  0  0  0  0  0  0  0  0  0  0  0
   -1.3037    1.2411    0.1040 C   0  0  0  0  0  0  0  0  0  0  0  0
   -0.4566    1.8905    0.3301 H   0  0  0  0  0  0  0  0  0  0  0  0
   -1.3278    1.0766   -0.9751 H   0  0  0  0  0  0  0  0  0  0  0  0
   -2.5915    1.9595    0.5352 C   0  0  0  0  0  0  0  0  0  0  0  0
   -2.5592    2.9995    0.2079 H   0  0  0  0  0  0  0  0  0  0  0  0
   -3.4496    1.4670    0.0735 H   0  0  0  0  0  0  0  0  0  0  0  0
   -2.7420    1.9165    2.0621 C   0  0  0  0  0  0  0  0  0  0  0  0
   -2.7590    0.8738    2.3881 H   0  0  0  0  0  0  0  0  0  0  0  0
   -1.8863    2.4182    2.5185 H   0  0  0  0  0  0  0  0  0  0  0  0
   -4.0398    2.6117    2.4922 C   0  0  0  0  0  0  0  0  0  0  0  0
   -4.0065    3.6512    2.1501 H   0  0  0  0  0  0  0  0  0  0  0  0
   -4.8796    2.1208    1.9913 H   0  0  0  0  0  0  0  0  0  0  0  0
   -4.2225    2.5638    3.9649 N   0  3  0  0  0  0  0  0  0  0  0  0
   -3.4535    3.0259    4.4338 H   0  0  0  0  0  0  0  0  0  0  0  0
   -5.0827    3.0260    4.2321 H   0  0  0  0  0  0  0  0  0  0  0  0
   -4.2628    1.6034    4.2856 H   0  0  0  0  0  0  0  0  0  0  0  0
   -0.5865    0.0771    2.2496 C   0  0  0  0  0  0  0  0  0  0  0  0
    0.5860   -0.1608    2.5143 O   0  0  0  0  0  0  0  0  0  0  0  0
   -1.4786    0.4656    3.1667 N   0  0  0  0  0  0  0  0  0  0  0  0
   -2.4139    0.6698    2.8558 H   0  0  0  0  0  0  0  0  0  0  0  0
   -1.1587    0.6908    4.5775 C   0  0  0  0  0  0  0  0  0  0  0  0
   -0.4270    1.4968    4.6656 H   0  0  0  0  0  0  0  0  0  0  0  0
   -2.0565    0.9649    5.1327 H   0  0  0  0  0  0  0  0  0  0  0  0
   -0.7281   -0.2137    5.0125 H   0  0  0  0  0  0  0  0  0  0  0  0
  5  6  2  0  0  0  0
  5  7  1  0  0  0  0
  2  3  1  0  0  0  0
  2  4  1  0  0  0  0
  2  5  1  0  0  0  0
  1  2  1  0  0  0  0
 27 28  2  0  0  0  0
 27 29  1  0  0  0  0
 23 24  1  0  0  0  0
 23 25  1  0  0  0  0
 23 26  1  0  0  0  0
 20 21  1  0  0  0  0
 20 22  1  0  0  0  0
 20 23  1  0  0  0  0
 17 18  1  0  0  0  0
 17 19  1  0  0  0  0
 17 20  1  0  0  0  0
 14 15  1  0  0  0  0
 14 16  1  0  0  0  0
 14 17  1  0  0  0  0
 11 12  1  0  0  0  0
 11 13  1  0  0  0  0
 11 14  1  0  0  0  0
  9 10  1  0  0  0  0
  9 11  1  0  0  0  0
  9 27  1  0  0  0  0
  7  8  1  0  0  0  0
  7  9  1  0  0  0  0
 31 32  1  0  0  0  0
 31 33  1  0  0  0  0
 31 34  1  0  0  0  0
 29 30  1  0  0  0  0
 29 31  1  0  0  0  0
M  CHG  1  23   1
M  END
$$$$
default_name
  -OEChem-02102213163D

 34 33  0     1  0  0  0  0  0999 V2000
   -3.8899   -3.6747    1.6490 H   0  0  0  0  0  0  0  0  0  0  0  0
   -3.9109   -2.6717    1.2250 C   0  0  0  0  0  0  0  0  0  0  0  0
   -4.6009   -2.0517    1.7950 H   0  0  0  0  0  0  0  0  0  0  0  0
   -4.2309   -2.7237    0.1860 H   0  0  0  0  0  0  0  0  0  0  0  0
   -2.5229   -2.0787    1.2980 C   0  0  0  0  0  0  0  0  0  0  0  0
   -1.5999   -2.7227    1.7810 O   0  0  0  0  0  0  0  0  0  0  0  0
   -2.3659   -0.8447    0.8120 N   0  0  0  0  0  0  0  0  0  0  0  0
   -3.1749   -0.3807    0.4220 H   0  0  0  0  0  0  0  0  0  0  0  0
   -1.0919   -0.1077    0.8170 C   0  0  1  0  0  0  0  0  0  0  0  0
   -0.3571   -0.6901    0.2581 H   0  0  0  0  0  0  0  0  0  0  0  0
   -1.3037    1.2411    0.1040 C   0  0  0  0  0  0  0  0  0  0  0  0
   -0.4566    1.8905    0.3301 H   0  0  0  0  0  0  0  0  0  0  0  0
   -1.3278    1.0766   -0.9751 H   0  0  0  0  0  0  0  0  0  0  0  0
   -2.5915    1.9595    0.5352 C   0  0  0  0  0  0  0  0  0  0  0  0
   -2.6860    2.9013   -0.0070 H   0  0  0  0  0  0  0  0  0  0  0  0
   -3.4507    1.3270    0.3034 H   0  0  0  0  0  0  0  0  0  0  0  0
   -2.5642    2.2469    2.0427 C   0  0  0  0  0  0  0  0  0  0  0  0
   -2.4545    1.3031    2.5822 H   0  0  0  0  0  0  0  0  0  0  0  0
   -1.7088    2.8869    2.2677 H   0  0  0  0  0  0  0  0  0  0  0  0
   -3.8600    2.9418    2.4791 C   0  0  0  0  0  0  0  0  0  0  0  0
   -3.9551    3.8799    1.9225 H   0  0  0  0  0  0  0  0  0  0  0  0
   -4.7058    2.3033    2.2066 H   0  0  0  0  0  0  0  0  0  0  0  0
   -3.8704    3.2104    3.9393 N   0  3  0  0  0  0  0  0  0  0  0  0
   -3.0959    3.8096    4.1960 H   0  0  0  0  0  0  0  0  0  0  0  0
   -4.7314    3.6685    4.2109 H   0  0  0  0  0  0  0  0  0  0  0  0
   -3.7914    2.3442    4.4592 H   0  0  0  0  0  0  0  0  0  0  0  0
   -0.5865    0.0771    2.2496 C   0  0  0  0  0  0  0  0  0  0  0  0
    0.5860   -0.1608    2.5143 O   0  0  0  0  0  0  0  0  0  0  0  0
   -1.4786    0.4656    3.1667 N   0  0  0  0  0  0  0  0  0  0  0  0
   -2.4139    0.6698    2.8558 H   0  0  0  0  0  0  0  0  0  0  0  0
   -1.1587    0.6908    4.5775 C   0  0  0  0  0  0  0  0  0  0  0  0
   -0.4270    1.4968    4.6656 H   0  0  0  0  0  0  0  0  0  0  0  0
   -2.0565    0.9649    5.1327 H   0  0  0  0  0  0  0  0  0  0  0  0
   -0.7281   -0.2137    5.0125 H   0  0  0  0  0  0  0  0  0  0  0  0
  5  6  2  0  0  0  0
  5  7  1  0  0  0  0
  2  3  1  0  0  0  0
  2  4  1  0  0  0  0
  2  5  1  0  0  0  0
  1  2  1  0  0  0  0
 27 28  2  0  0  0  0
 27 29  1  0  0  0  0
 23 24  1  0  0  0  0
 23 25  1  0  0  0  0
 23 26  1  0  0  0  0
 20 21  1  0  0  0  0
 20 22  1  0  0  0  0
 20 23  1  0  0  0  0
 17 18  1  0  0  0  0
 17 19  1  0  0  0  0
 17 20  1  0  0  0  0
 14 15  1  0  0  0  0
 14 16  1  0  0  0  0
 14 17  1  0  0  0  0
 11 12  1  0  0  0  0
 11 13  1  0  0  0  0
 11 14  1  0  0  0  0
  9 10  1  0  0  0  0
  9 11  1  0  0  0  0
  9 27  1  0  0  0  0
  7  8  1  0  0  0  0
  7  9  1  0  0  0  0
 31 32  1  0  0  0  0
 31 33  1  0  0  0  0
 31 34  1  0  0  0  0
 29 30  1  0  0  0  0
 29 31  1  0  0  0  0
M  CHG  1  23   1
M  END
$$$$
default_name
  -OEChem-02102213163D

 34 33  0     1  0  0  0  0  0999 V2000
   -3.8899   -3.6747    1.6490 H   0  0  0  0  0  0  0  0  0  0  0  0
   -3.9109   -2.6717    1.2250 C   0  0  0  0  0  0  0  0  0  0  0  0
   -4.6009   -2.0517    1.7950 H   0  0  0  0  0  0  0  0  0  0  0  0
   -4.2309   -2.7237    0.1860 H   0  0  0  0  0  0  0  0  0  0  0  0
   -2.5229   -2.0787    1.2980 C   0  0  0  0  0  0  0  0  0  0  0  0
   -1.5999   -2.7227    1.7810 O   0  0  0  0  0  0  0  0  0  0  0  0
   -2.3659   -0.8447    0.8120 N   0  0  0  0  0  0  0  0  0  0  0  0
   -3.1749   -0.3807    0.4220 H   0  0  0  0  0  0  0  0  0  0  0  0
   -1.0919   -0.1077    0.8170 C   0  0  1  0  0  0  0  0  0  0  0  0
   -0.3571   -0.6901    0.2581 H   0  0  0  0  0  0  0  0  0  0  0  0
   -1.3037    1.2411    0.1040 C   0  0  0  0  0  0  0  0  0  0  0  0
   -0.4566    1.8905    0.3301 H   0  0  0  0  0  0  0  0  0  0  0  0
   -1.3278    1.0766   -0.9751 H   0  0  0  0  0  0  0  0  0  0  0  0
   -2.5915    1.9595    0.5352 C   0  0  0  0  0  0  0  0  0  0  0  0
   -2.8273    2.7506   -0.1779 H   0  0  0  0  0  0  0  0  0  0  0  0
   -3.4138    1.2416    0.5559 H   0  0  0  0  0  0  0  0  0  0  0  0
   -2.4188    2.5746    1.9308 C   0  0  0  0  0  0  0  0  0  0  0  0
   -2.1681    1.7819    2.6398 H   0  0  0  0  0  0  0  0  0  0  0  0
   -1.6017    3.2982    1.9024 H   0  0  0  0  0  0  0  0  0  0  0  0
   -3.7120    3.2709    2.3730 C   0  0  0  0  0  0  0  0  0  0  0  0
   -3.9497    4.0551    1.6469 H   0  0  0  0  0  0  0  0  0  0  0  0
   -4.5250    2.5389    2.3539 H   0  0  0  0  0  0  0  0  0  0  0  0
   -3.5803    3.8550    3.7316 N   0  3  0  0  0  0  0  0  0  0  0  0
   -2.8362    4.5411    3.7531 H   0  0  0  0  0  0  0  0  0  0  0  0
   -4.4413    4.3100    4.0085 H   0  0  0  0  0  0  0  0  0  0  0  0
   -3.3689    3.1317    4.4091 H   0  0  0  0  0  0  0  0  0  0  0  0
   -0.5865    0.0771    2.2496 C   0  0  0  0  0  0  0  0  0  0  0  0
    0.5860   -0.1608    2.5143 O   0  0  0  0  0  0  0  0  0  0  0  0
   -1.4786    0.4656    3.1667 N   0  0  0  0  0  0  0  0  0  0  0  0
   -2.4139    0.6698    2.8558 H   0  0  0  0  0  0  0  0  0  0  0  0
   -1.1587    0.6908    4.5775 C   0  0  0  0  0  0  0  0  0  0  0  0
   -0.4270    1.4968    4.6656 H   0  0  0  0  0  0  0  0  0  0  0  0
   -2.0565    0.9649    5.1327 H   0  0  0  0  0  0  0  0  0  0  0  0
   -0.7281   -0.2137    5.0125 H   0  0  0  0  0  0  0  0  0  0  0  0
  5  6  2  0  0  0  0
  5  7  1  0  0  0  0
  2  3  1  0  0  0  0
  2  4  1  0  0  0  0
  2  5  1  0  0  0  0
  1  2  1  0  0  0  0
 27 28  2  0  0  0  0
 27 29  1  0  0  0  0
 23 24  1  0  0  0  0
 23 25  1  0  0  0  0
 23 26  1  0  0  0  0
 20 21  1  0  0  0  0
 20 22  1  0  0  0  0
 20 23  1  0  0  0  0
 17 18  1  0  0  0  0
 17 19  1  0  0  0  0
 17 20  1  0  0  0  0
 14 15  1  0  0  0  0
 14 16  1  0  0  0  0
 14 17  1  0  0  0  0
 11 12  1  0  0  0  0
 11 13  1  0  0  0  0
 11 14  1  0  0  0  0
  9 10  1  0  0  0  0
  9 11  1  0  0  0  0
  9 27  1  0  0  0  0
  7  8  1  0  0  0  0
  7  9  1  0  0  0  0
 31 32  1  0  0  0  0
 31 33  1  0  0  0  0
 31 34  1  0  0  0  0
 29 30  1  0  0  0  0
 29 31  1  0  0  0  0
M  CHG  1  23   1
M  END
$$$$
default_name
  -OEChem-02102213163D

 34 33  0     1  0  0  0  0  0999 V2000
   -3.8899   -3.6747    1.6490 H   0  0  0  0  0  0  0  0  0  0  0  0
   -3.9109   -2.6717    1.2250 C   0  0  0  0  0  0  0  0  0  0  0  0
   -4.6009   -2.0517    1.7950 H   0  0  0  0  0  0  0  0  0  0  0  0
   -4.2309   -2.7237    0.1860 H   0  0  0  0  0  0  0  0  0  0  0  0
   -2.5229   -2.0787    1.2980 C   0  0  0  0  0  0  0  0  0  0  0  0
   -1.5999   -2.7227    1.7810 O   0  0  0  0  0  0  0  0  0  0  0  0
   -2.3659   -0.8447    0.8120 N   0  0  0  0  0  0  0  0  0  0  0  0
   -3.1749   -0.3807    0.4220 H   0  0  0  0  0  0  0  0  0  0  0  0
   -1.0919   -0.1077    0.8170 C   0  0  1  0  0  0  0  0  0  0  0  0
   -0.3571   -0.6901    0.2581 H   0  0  0  0  0  0  0  0  0  0  0  0
   -1.3037    1.2411    0.1040 C   0  0  0  0  0  0  0  0  0  0  0  0
   -0.4566    1.8905    0.3301 H   0  0  0  0  0  0  0  0  0  0  0  0
   -1.3278    1.0766   -0.9751 H   0  0  0  0  0  0  0  0  0  0  0  0
   -2.5915    1.9595    0.5352 C   0  0  0  0  0  0  0  0  0  0  0  0
   -2.9735    2.5577   -0.2932 H   0  0  0  0  0  0  0  0  0  0  0  0
   -3.3414    1.2166    0.8139 H   0  0  0  0  0  0  0  0  0  0  0  0
   -2.3158    2.8775    1.7340 C   0  0  0  0  0  0  0  0  0  0  0  0
   -1.9193    2.2778    2.5568 H   0  0  0  0  0  0  0  0  0  0  0  0
   -1.5724    3.6240    1.4473 H   0  0  0  0  0  0  0  0  0  0  0  0
   -3.6057    3.5765    2.1812 C   0  0  0  0  0  0  0  0  0  0  0  0
   -3.9905    4.1649    1.3419 H   0  0  0  0  0  0  0  0  0  0  0  0
   -4.3497    2.8115    2.4232 H   0  0  0  0  0  0  0  0  0  0  0  0
   -3.3721    4.4537    3.3561 N   0  3  0  0  0  0  0  0  0  0  0  0
   -2.6920    5.1703    3.1351 H   0  0  0  0  0  0  0  0  0  0  0  0
   -4.2322    4.9068    3.6387 H   0  0  0  0  0  0  0  0  0  0  0  0
   -3.0241    3.9122    4.1388 H   0  0  0  0  0  0  0  0  0  0  0  0
   -0.5865    0.0771    2.2496 C   0  0  0  0  0  0  0  0  0  0  0  0
    0.5860   -0.1608    2.5143 O   0  0  0  0  0  0  0  0  0  0  0  0
   -1.4786    0.4656    3.1667 N   0  0  0  0  0  0  0  0  0  0  0  0
   -2.4139    0.6698    2.8558 H   0  0  0  0  0  0  0  0  0  0  0  0
   -1.1587    0.6908    4.5775 C   0  0  0  0  0  0  0  0  0  0  0  0
   -0.4270    1.4968    4.6656 H   0  0  0  0  0  0  0  0  0  0  0  0
   -2.0565    0.9649    5.1327 H   0  0  0  0  0  0  0  0  0  0  0  0
   -0.7281   -0.2137    5.0125 H   0  0  0  0  0  0  0  0  0  0  0  0
  5  6  2  0  0  0  0
  5  7  1  0  0  0  0
  2  3  1  0  0  0  0
  2  4  1  0  0  0  0
  2  5  1  0  0  0  0
  1  2  1  0  0  0  0
 27 28  2  0  0  0  0
 27 29  1  0  0  0  0
 23 24  1  0  0  0  0
 23 25  1  0  0  0  0
 23 26  1  0  0  0  0
 20 21  1  0  0  0  0
 20 22  1  0  0  0  0
 20 23  1  0  0  0  0
 17 18  1  0  0  0  0
 17 19  1  0  0  0  0
 17 20  1  0  0  0  0
 14 15  1  0  0  0  0
 14 16  1  0  0  0  0
 14 17  1  0  0  0  0
 11 12  1  0  0  0  0
 11 13  1  0  0  0  0
 11 14  1  0  0  0  0
  9 10  1  0  0  0  0
  9 11  1  0  0  0  0
  9 27  1  0  0  0  0
  7  8  1  0  0  0  0
  7  9  1  0  0  0  0
 31 32  1  0  0  0  0
 31 33  1  0  0  0  0
 31 34  1  0  0  0  0
 29 30  1  0  0  0  0
 29 31  1  0  0  0  0
M  CHG  1  23   1
M  END
$$$$
default_name
  -OEChem-02102213163D

 34 33  0     1  0  0  0  0  0999 V2000
   -3.8899   -3.6747    1.6490 H   0  0  0  0  0  0  0  0  0  0  0  0
   -3.9109   -2.6717    1.2250 C   0  0  0  0  0  0  0  0  0  0  0  0
   -4.6009   -2.0517    1.7950 H   0  0  0  0  0  0  0  0  0  0  0  0
   -4.2309   -2.7237    0.1860 H   0  0  0  0  0  0  0  0  0  0  0  0
   -2.5229   -2.0787    1.2980 C   0  0  0  0  0  0  0  0  0  0  0  0
   -1.5999   -2.7227    1.7810 O   0  0  0  0  0  0  0  0  0  0  0  0
   -2.3659   -0.8447    0.8120 N   0  0  0  0  0  0  0  0  0  0  0  0
   -3.1749   -0.3807    0.4220 H   0  0  0  0  0  0  0  0  0  0  0  0
   -1.0919   -0.1077    0.8170 C   0  0  1  0  0  0  0  0  0  0  0  0
   -0.3571   -0.6901    0.2581 H   0  0  0  0  0  0  0  0  0  0  0  0
   -1.3037    1.2411    0.1040 C   0  0  0  0  0  0  0  0  0  0  0  0
   -0.4566    1.8905    0.3301 H   0  0  0  0  0  0  0  0  0  0  0  0
   -1.3278    1.0766   -0.9751 H   0  0  0  0  0  0  0  0  0  0  0  0
   -2.5915    1.9595    0.5352 C   0  0  0  0  0  0  0  0  0  0  0  0
   -3.1147    2.3357   -0.3450 H   0  0  0  0  0  0  0  0  0  0  0  0
   -3.2385    1.2536    1.0597 H   0  0  0  0  0  0  0  0  0  0  0  0
   -2.2620    3.1348    1.4657 C   0  0  0  0  0  0  0  0  0  0  0  0
   -1.7251    2.7567    2.3390 H   0  0  0  0  0  0  0  0  0  0  0  0
   -1.6227    3.8420    0.9335 H   0  0  0  0  0  0  0  0  0  0  0  0
   -3.5485    3.8378    1.9169 C   0  0  0  0  0  0  0  0  0  0  0  0
   -4.0748    4.2019    1.0285 H   0  0  0  0  0  0  0  0  0  0  0  0
   -4.1918    3.1027    2.4097 H   0  0  0  0  0  0  0  0  0  0  0  0
   -3.2599    4.9657    2.8383 N   0  3  0  0  0  0  0  0  0  0  0  0
   -2.6733    5.6546    2.3842 H   0  0  0  0  0  0  0  0  0  0  0  0
   -4.1183    5.4183    3.1267 H   0  0  0  0  0  0  0  0  0  0  0  0
   -2.7804    4.6325    3.6665 H   0  0  0  0  0  0  0  0  0  0  0  0
   -0.5865    0.0771    2.2496 C   0  0  0  0  0  0  0  0  0  0  0  0
    0.5860   -0.1608    2.5143 O   0  0  0  0  0  0  0  0  0  0  0  0
   -1.4786    0.4656    3.1667 N   0  0  0  0  0  0  0  0  0  0  0  0
   -2.4139    0.6698    2.8558 H   0  0  0  0  0  0  0  0  0  0  0  0
   -1.1587    0.6908    4.5775 C   0  0  0  0  0  0  0  0  0  0  0  0
   -0.4270    1.4968    4.6656 H   0  0  0  0  0  0  0  0  0  0  0  0
   -2.0565    0.9649    5.1327 H   0  0  0  0  0  0  0  0  0  0  0  0
   -0.7281   -0.2137    5.0125 H   0  0  0  0  0  0  0  0  0  0  0  0
  5  6  2  0  0  0  0
  5  7  1  0  0  0  0
  2  3  1  0  0  0  0
  2  4  1  0  0  0  0
  2  5  1  0  0  0  0
  1  2  1  0  0  0  0
 27 28  2  0  0  0  0
 27 29  1  0  0  0  0
 23 24  1  0  0  0  0
 23 25  1  0  0  0  0
 23 26  1  0  0  0  0
 20 21  1  0  0  0  0
 20 22  1  0  0  0  0
 20 23  1  0  0  0  0
 17 18  1  0  0  0  0
 17 19  1  0  0  0  0
 17 20  1  0  0  0  0
 14 15  1  0  0  0  0
 14 16  1  0  0  0  0
 14 17  1  0  0  0  0
 11 12  1  0  0  0  0
 11 13  1  0  0  0  0
 11 14  1  0  0  0  0
  9 10  1  0  0  0  0
  9 11  1  0  0  0  0
  9 27  1  0  0  0  0
  7  8  1  0  0  0  0
  7  9  1  0  0  0  0
 31 32  1  0  0  0  0
 31 33  1  0  0  0  0
 31 34  1  0  0  0  0
 29 30  1  0  0  0  0
 29 31  1  0  0  0  0
M  CHG  1  23   1
M  END
$$$$
default_name
  -OEChem-02102213163D

 34 33  0     1  0  0  0  0  0999 V2000
   -3.8899   -3.6747    1.6490 H   0  0  0  0  0  0  0  0  0  0  0  0
   -3.9109   -2.6717    1.2250 C   0  0  0  0  0  0  0  0  0  0  0  0
   -4.6009   -2.0517    1.7950 H   0  0  0  0  0  0  0  0  0  0  0  0
   -4.2309   -2.7237    0.1860 H   0  0  0  0  0  0  0  0  0  0  0  0
   -2.5229   -2.0787    1.2980 C   0  0  0  0  0  0  0  0  0  0  0  0
   -1.5999   -2.7227    1.7810 O   0  0  0  0  0  0  0  0  0  0  0  0
   -2.3659   -0.8447    0.8120 N   0  0  0  0  0  0  0  0  0  0  0  0
   -3.1749   -0.3807    0.4220 H   0  0  0  0  0  0  0  0  0  0  0  0
   -1.0919   -0.1077    0.8170 C   0  0  1  0  0  0  0  0  0  0  0  0
   -0.3571   -0.6901    0.2581 H   0  0  0  0  0  0  0  0  0  0  0  0
   -1.3037    1.2411    0.1040 C   0  0  0  0  0  0  0  0  0  0  0  0
   -0.4566    1.8905    0.3301 H   0  0  0  0  0  0  0  0  0  0  0  0
   -1.3278    1.0766   -0.9751 H   0  0  0  0  0  0  0  0  0  0  0  0
   -2.5915    1.9595    0.5352 C   0  0  0  0  0  0  0  0  0  0  0  0
   -3.2412    2.0998   -0.3298 H   0  0  0  0  0  0  0  0  0  0  0  0
   -3.1119    1.3502    1.2767 H   0  0  0  0  0  0  0  0  0  0  0  0
   -2.2613    3.3291    1.1442 C   0  0  0  0  0  0  0  0  0  0  0  0
   -1.5986    3.1863    2.0011 H   0  0  0  0  0  0  0  0  0  0  0  0
   -1.7494    3.9375    0.3960 H   0  0  0  0  0  0  0  0  0  0  0  0
   -3.5441    4.0370    1.5979 C   0  0  0  0  0  0  0  0  0  0  0  0
   -4.1968    4.1635    0.7280 H   0  0  0  0  0  0  0  0  0  0  0  0
   -4.0621    3.3924    2.3145 H   0  0  0  0  0  0  0  0  0  0  0  0
   -3.2513    5.3560    2.2135 N   0  3  0  0  0  0  0  0  0  0  0  0
   -2.7813    5.9607    1.5516 H   0  0  0  0  0  0  0  0  0  0  0  0
   -4.1074    5.8095    2.5075 H   0  0  0  0  0  0  0  0  0  0  0  0
   -2.6545    5.2434    3.0247 H   0  0  0  0  0  0  0  0  0  0  0  0
   -0.5865    0.0771    2.2496 C   0  0  0  0  0  0  0  0  0  0  0  0
    0.5860   -0.1608    2.5143 O   0  0  0  0  0  0  0  0  0  0  0  0
   -1.4786    0.4656    3.1667 N   0  0  0  0  0  0  0  0  0  0  0  0
   -2.4139    0.6698    2.8558 H   0  0  0  0  0  0  0  0  0  0  0  0
   -1.1587    0.6908    4.5775 C   0  0  0  0  0  0  0  0  0  0  0  0
   -0.4270    1.4968    4.6656 H   0  0  0  0  0  0  0  0  0  0  0  0
   -2.0565    0.9649    5.1327 H   0  0  0  0  0  0  0  0  0  0  0  0
   -0.7281   -0.2137    5.0125 H   0  0  0  0  0  0  0  0  0  0  0  0
  5  6  2  0  0  0  0
  5  7  1  0  0  0  0
  2  3  1  0  0  0  0
  2  4  1  0  0  0  0
  2  5  1  0  0  0  0
  1  2  1  0  0  0  0
 27 28  2  0  0  0  0
 27 29  1  0  0  0  0
 23 24  1  0  0  0  0
 23 25  1  0  0  0  0
 23 26  1  0  0  0  0
 20 21  1  0  0  0  0
 20 22  1  0  0  0  0
 20 23  1  0  0  0  0
 17 18  1  0  0  0  0
 17 19  1  0  0  0  0
 17 20  1  0  0  0  0
 14 15  1  0  0  0  0
 14 16  1  0  0  0  0
 14 17  1  0  0  0  0
 11 12  1  0  0  0  0
 11 13  1  0  0  0  0
 11 14  1  0  0  0  0
  9 10  1  0  0  0  0
  9 11  1  0  0  0  0
  9 27  1  0  0  0  0
  7  8  1  0  0  0  0
  7  9  1  0  0  0  0
 31 32  1  0  0  0  0
 31 33  1  0  0  0  0
 31 34  1  0  0  0  0
 29 30  1  0  0  0  0
 29 31  1  0  0  0  0
M  CHG  1  23   1
M  END
$$$$
default_name
  -OEChem-02102213163D

 34 33  0     1  0  0  0  0  0999 V2000
   -3.8899   -3.6747    1.6490 H   0  0  0  0  0  0  0  0  0  0  0  0
   -3.9109   -2.6717    1.2250 C   0  0  0  0  0  0  0  0  0  0  0  0
   -4.6009   -2.0517    1.7950 H   0  0  0  0  0  0  0  0  0  0  0  0
   -4.2309   -2.7237    0.1860 H   0  0  0  0  0  0  0  0  0  0  0  0
   -2.5229   -2.0787    1.2980 C   0  0  0  0  0  0  0  0  0  0  0  0
   -1.5999   -2.7227    1.7810 O   0  0  0  0  0  0  0  0  0  0  0  0
   -2.3659   -0.8447    0.8120 N   0  0  0  0  0  0  0  0  0  0  0  0
   -3.1749   -0.3807    0.4220 H   0  0  0  0  0  0  0  0  0  0  0  0
   -1.0919   -0.1077    0.8170 C   0  0  1  0  0  0  0  0  0  0  0  0
   -0.3571   -0.6901    0.2581 H   0  0  0  0  0  0  0  0  0  0  0  0
   -1.3037    1.2411    0.1040 C   0  0  0  0  0  0  0  0  0  0  0  0
   -0.4566    1.8905    0.3301 H   0  0  0  0  0  0  0  0  0  0  0  0
   -1.3278    1.0766   -0.9751 H   0  0  0  0  0  0  0  0  0  0  0  0
   -2.5915    1.9595    0.5352 C   0  0  0  0  0  0  0  0  0  0  0  0
   -3.3444    1.8660   -0.2487 H   0  0  0  0  0  0  0  0  0  0  0  0
   -2.9705    1.4998    1.4500 H   0  0  0  0  0  0  0  0  0  0  0  0
   -2.3136    3.4471    0.7915 C   0  0  0  0  0  0  0  0  0  0  0  0
   -1.5485    3.5371    1.5663 H   0  0  0  0  0  0  0  0  0  0  0  0
   -1.9438    3.9040   -0.1286 H   0  0  0  0  0  0  0  0  0  0  0  0
   -3.5930    4.1605    1.2460 C   0  0  0  0  0  0  0  0  0  0  0  0
   -4.3483    4.0524    0.4607 H   0  0  0  0  0  0  0  0  0  0  0  0
   -3.9693    3.6611    2.1439 H   0  0  0  0  0  0  0  0  0  0  0  0
   -3.3470    5.5980    1.5243 N   0  3  0  0  0  0  0  0  0  0  0  0
   -3.0086    6.0680    0.6940 H   0  0  0  0  0  0  0  0  0  0  0  0
   -4.2002    6.0539    1.8231 H   0  0  0  0  0  0  0  0  0  0  0  0
   -2.6549    5.7035    2.2569 H   0  0  0  0  0  0  0  0  0  0  0  0
   -0.5865    0.0771    2.2496 C   0  0  0  0  0  0  0  0  0  0  0  0
    0.5860   -0.1608    2.5143 O   0  0  0  0  0  0  0  0  0  0  0  0
   -1.4786    0.4656    3.1667 N   0  0  0  0  0  0  0  0  0  0  0  0
   -2.4139    0.6698    2.8558 H   0  0  0  0  0  0  0  0  0  0  0  0
   -1.1587    0.6908    4.5775 C   0  0  0  0  0  0  0  0  0  0  0  0
   -0.4270    1.4968    4.6656 H   0  0  0  0  0  0  0  0  0  0  0  0
   -2.0565    0.9649    5.1327 H   0  0  0  0  0  0  0  0  0  0  0  0
   -0.7281   -0.2137    5.0125 H   0  0  0  0  0  0  0  0  0  0  0  0
  5  6  2  0  0  0  0
  5  7  1  0  0  0  0
  2  3  1  0  0  0  0
  2  4  1  0  0  0  0
  2  5  1  0  0  0  0
  1  2  1  0  0  0  0
 27 28  2  0  0  0  0
 27 29  1  0  0  0  0
 23 24  1  0  0  0  0
 23 25  1  0  0  0  0
 23 26  1  0  0  0  0
 20 21  1  0  0  0  0
 20 22  1  0  0  0  0
 20 23  1  0  0  0  0
 17 18  1  0  0  0  0
 17 19  1  0  0  0  0
 17 20  1  0  0  0  0
 14 15  1  0  0  0  0
 14 16  1  0  0  0  0
 14 17  1  0  0  0  0
 11 12  1  0  0  0  0
 11 13  1  0  0  0  0
 11 14  1  0  0  0  0
  9 10  1  0  0  0  0
  9 11  1  0  0  0  0
  9 27  1  0  0  0  0
  7  8  1  0  0  0  0
  7  9  1  0  0  0  0
 31 32  1  0  0  0  0
 31 33  1  0  0  0  0
 31 34  1  0  0  0  0
 29 30  1  0  0  0  0
 29 31  1  0  0  0  0
M  CHG  1  23   1
M  END
$$$$
default_name
  -OEChem-02102213163D

 34 33  0     1  0  0  0  0  0999 V2000
   -3.8899   -3.6747    1.6490 H   0  0  0  0  0  0  0  0  0  0  0  0
   -3.9109   -2.6717    1.2250 C   0  0  0  0  0  0  0  0  0  0  0  0
   -4.6009   -2.0517    1.7950 H   0  0  0  0  0  0  0  0  0  0  0  0
   -4.2309   -2.7237    0.1860 H   0  0  0  0  0  0  0  0  0  0  0  0
   -2.5229   -2.0787    1.2980 C   0  0  0  0  0  0  0  0  0  0  0  0
   -1.5999   -2.7227    1.7810 O   0  0  0  0  0  0  0  0  0  0  0  0
   -2.3659   -0.8447    0.8120 N   0  0  0  0  0  0  0  0  0  0  0  0
   -3.1749   -0.3807    0.4220 H   0  0  0  0  0  0  0  0  0  0  0  0
   -1.0919   -0.1077    0.8170 C   0  0  1  0  0  0  0  0  0  0  0  0
   -0.3571   -0.6901    0.2581 H   0  0  0  0  0  0  0  0  0  0  0  0
   -1.3037    1.2411    0.1040 C   0  0  0  0  0  0  0  0  0  0  0  0
   -0.4566    1.8905    0.3301 H   0  0  0  0  0  0  0  0  0  0  0  0
   -1.3278    1.0766   -0.9751 H   0  0  0  0  0  0  0  0  0  0  0  0
   -2.5915    1.9595    0.5352 C   0  0  0  0  0  0  0  0  0  0  0  0
   -3.4173    1.6503   -0.1071 H   0  0  0  0  0  0  0  0  0  0  0  0
   -2.8237    1.6921    1.5679 H   0  0  0  0  0  0  0  0  0  0  0  0
   -2.4154    3.4807    0.4315 C   0  0  0  0  0  0  0  0  0  0  0  0
   -1.5782    3.7852    1.0641 H   0  0  0  0  0  0  0  0  0  0  0  0
   -2.1926    3.7436   -0.6045 H   0  0  0  0  0  0  0  0  0  0  0  0
   -3.6918    4.1999    0.8853 C   0  0  0  0  0  0  0  0  0  0  0  0
   -4.5189    3.8760    0.2451 H   0  0  0  0  0  0  0  0  0  0  0  0
   -3.9199    3.8903    1.9096 H   0  0  0  0  0  0  0  0  0  0  0  0
   -3.5405    5.6754    0.8176 N   0  3  0  0  0  0  0  0  0  0  0  0
   -3.3397    5.9691   -0.1301 H   0  0  0  0  0  0  0  0  0  0  0  0
   -4.3904    6.1347    1.1203 H   0  0  0  0  0  0  0  0  0  0  0  0
   -2.7816    5.9813    1.4155 H   0  0  0  0  0  0  0  0  0  0  0  0
   -0.5865    0.0771    2.2496 C   0  0  0  0  0  0  0  0  0  0  0  0
    0.5860   -0.1608    2.5143 O   0  0  0  0  0  0  0  0  0  0  0  0
   -1.4786    0.4656    3.1667 N   0  0  0  0  0  0  0  0  0  0  0  0
   -2.4139    0.6698    2.8558 H   0  0  0  0  0  0  0  0  0  0  0  0
   -1.1587    0.6908    4.5775 C   0  0  0  0  0  0  0  0  0  0  0  0
   -0.4270    1.4968    4.6656 H   0  0  0  0  0  0  0  0  0  0  0  0
   -2.0565    0.9649    5.1327 H   0  0  0  0  0  0  0  0  0  0  0  0
   -0.7281   -0.2137    5.0125 H   0  0  0  0  0  0  0  0  0  0  0  0
  5  6  2  0  0  0  0
  5  7  1  0  0  0  0
  2  3  1  0  0  0  0
  2  4  1  0  0  0  0
  2  5  1  0  0  0  0
  1  2  1  0  0  0  0
 27 28  2  0  0  0  0
 27 29  1  0  0  0  0
 23 24  1  0  0  0  0
 23 25  1  0  0  0  0
 23 26  1  0  0  0  0
 20 21  1  0  0  0  0
 20 22  1  0  0  0  0
 20 23  1  0  0  0  0
 17 18  1  0  0  0  0
 17 19  1  0  0  0  0
 17 20  1  0  0  0  0
 14 15  1  0  0  0  0
 14 16  1  0  0  0  0
 14 17  1  0  0  0  0
 11 12  1  0  0  0  0
 11 13  1  0  0  0  0
 11 14  1  0  0  0  0
  9 10  1  0  0  0  0
  9 11  1  0  0  0  0
  9 27  1  0  0  0  0
  7  8  1  0  0  0  0
  7  9  1  0  0  0  0
 31 32  1  0  0  0  0
 31 33  1  0  0  0  0
 31 34  1  0  0  0  0
 29 30  1  0  0  0  0
 29 31  1  0  0  0  0
M  CHG  1  23   1
M  END
$$$$
default_name
  -OEChem-02102213163D

 34 33  0     1  0  0  0  0  0999 V2000
   -3.8899   -3.6747    1.6490 H   0  0  0  0  0  0  0  0  0  0  0  0
   -3.9109   -2.6717    1.2250 C   0  0  0  0  0  0  0  0  0  0  0  0
   -4.6009   -2.0517    1.7950 H   0  0  0  0  0  0  0  0  0  0  0  0
   -4.2309   -2.7237    0.1860 H   0  0  0  0  0  0  0  0  0  0  0  0
   -2.5229   -2.0787    1.2980 C   0  0  0  0  0  0  0  0  0  0  0  0
   -1.5999   -2.7227    1.7810 O   0  0  0  0  0  0  0  0  0  0  0  0
   -2.3659   -0.8447    0.8120 N   0  0  0  0  0  0  0  0  0  0  0  0
   -3.1749   -0.3807    0.4220 H   0  0  0  0  0  0  0  0  0  0  0  0
   -1.0919   -0.1077    0.8170 C   0  0  1  0  0  0  0  0  0  0  0  0
   -0.3571   -0.6901    0.2581 H   0  0  0  0  0  0  0  0  0  0  0  0
   -1.3037    1.2411    0.1040 C   0  0  0  0  0  0  0  0  0  0  0  0
   -0.4566    1.8905    0.3301 H   0  0  0  0  0  0  0  0  0  0  0  0
   -1.3278    1.0766   -0.9751 H   0  0  0  0  0  0  0  0  0  0  0  0
   -2.5915    1.9595    0.5352 C   0  0  0  0  0  0  0  0  0  0  0  0
   -3.4549    1.4674    0.0853 H   0  0  0  0  0  0  0  0  0  0  0  0
   -2.6817    1.9141    1.6222 H   0  0  0  0  0  0  0  0  0  0  0  0
   -2.5597    3.4277    0.0888 C   0  0  0  0  0  0  0  0  0  0  0  0
   -1.6856    3.9138    0.5288 H   0  0  0  0  0  0  0  0  0  0  0  0
   -2.4788    3.4674   -0.9993 H   0  0  0  0  0  0  0  0  0  0  0  0
   -3.8338    4.1526    0.5402 C   0  0  0  0  0  0  0  0  0  0  0  0
   -4.6969    3.6465    0.0957 H   0  0  0  0  0  0  0  0  0  0  0  0
   -3.9171    4.0645    1.6276 H   0  0  0  0  0  0  0  0  0  0  0  0
   -3.8185    5.5828    0.1417 N   0  3  0  0  0  0  0  0  0  0  0  0
   -3.7521    5.6707   -0.8646 H   0  0  0  0  0  0  0  0  0  0  0  0
   -4.6651    6.0464    0.4469 H   0  0  0  0  0  0  0  0  0  0  0  0
   -3.0260    6.0579    0.5579 H   0  0  0  0  0  0  0  0  0  0  0  0
   -0.5865    0.0771    2.2496 C   0  0  0  0  0  0  0  0  0  0  0  0
    0.5860   -0.1608    2.5143 O   0  0  0  0  0  0  0  0  0  0  0  0
   -1.4786    0.4656    3.1667 N   0  0  0  0  0  0  0  0  0  0  0  0
   -2.4139    0.6698    2.8558 H   0  0  0  0  0  0  0  0  0  0  0  0
   -1.1587    0.6908    4.5775 C   0  0  0  0  0  0  0  0  0  0  0  0
   -0.4270    1.4968    4.6656 H   0  0  0  0  0  0  0  0  0  0  0  0
   -2.0565    0.9649    5.1327 H   0  0  0  0  0  0  0  0  0  0  0  0
   -0.7281   -0.2137    5.0125 H   0  0  0  0  0  0  0  0  0  0  0  0
  5  6  2  0  0  0  0
  5  7  1  0  0  0  0
  2  3  1  0  0  0  0
  2  4  1  0  0  0  0
  2  5  1  0  0  0  0
  1  2  1  0  0  0  0
 27 28  2  0  0  0  0
 27 29  1  0  0  0  0
 23 24  1  0  0  0  0
 23 25  1  0  0  0  0
 23 26  1  0  0  0  0
 20 21  1  0  0  0  0
 20 22  1  0  0  0  0
 20 23  1  0  0  0  0
 17 18  1  0  0  0  0
 17 19  1  0  0  0  0
 17 20  1  0  0  0  0
 14 15  1  0  0  0  0
 14 16  1  0  0  0  0
 14 17  1  0  0  0  0
 11 12  1  0  0  0  0
 11 13  1  0  0  0  0
 11 14  1  0  0  0  0
  9 10  1  0  0  0  0
  9 11  1  0  0  0  0
  9 27  1  0  0  0  0
  7  8  1  0  0  0  0
  7  9  1  0  0  0  0
 31 32  1  0  0  0  0
 31 33  1  0  0  0  0
 31 34  1  0  0  0  0
 29 30  1  0  0  0  0
 29 31  1  0  0  0  0
M  CHG  1  23   1
M  END
$$$$
default_name
  -OEChem-02102213163D

 34 33  0     1  0  0  0  0  0999 V2000
   -3.8899   -3.6747    1.6490 H   0  0  0  0  0  0  0  0  0  0  0  0
   -3.9109   -2.6717    1.2250 C   0  0  0  0  0  0  0  0  0  0  0  0
   -4.6009   -2.0517    1.7950 H   0  0  0  0  0  0  0  0  0  0  0  0
   -4.2309   -2.7237    0.1860 H   0  0  0  0  0  0  0  0  0  0  0  0
   -2.5229   -2.0787    1.2980 C   0  0  0  0  0  0  0  0  0  0  0  0
   -1.5999   -2.7227    1.7810 O   0  0  0  0  0  0  0  0  0  0  0  0
   -2.3659   -0.8447    0.8120 N   0  0  0  0  0  0  0  0  0  0  0  0
   -3.1749   -0.3807    0.4220 H   0  0  0  0  0  0  0  0  0  0  0  0
   -1.0919   -0.1077    0.8170 C   0  0  1  0  0  0  0  0  0  0  0  0
   -0.3571   -0.6901    0.2581 H   0  0  0  0  0  0  0  0  0  0  0  0
   -1.3037    1.2411    0.1040 C   0  0  0  0  0  0  0  0  0  0  0  0
   -0.3580    1.7853    0.1018 H   0  0  0  0  0  0  0  0  0  0  0  0
   -1.5929    1.0574   -0.9327 H   0  0  0  0  0  0  0  0  0  0  0  0
   -2.3667    2.1227    0.7772 C   0  0  0  0  0  0  0  0  0  0  0  0
   -3.3242    1.6002    0.7882 H   0  0  0  0  0  0  0  0  0  0  0  0
   -2.0625    2.3312    1.8048 H   0  0  0  0  0  0  0  0  0  0  0  0
   -2.5241    3.4460    0.0156 C   0  0  0  0  0  0  0  0  0  0  0  0
   -1.5601    3.9599   -0.0066 H   0  0  0  0  0  0  0  0  0  0  0  0
   -2.8372    3.2325   -1.0084 H   0  0  0  0  0  0  0  0  0  0  0  0
   -3.5672    4.3376    0.7008 C   0  0  0  0  0  0  0  0  0  0  0  0
   -4.5223    3.8027    0.7198 H   0  0  0  0  0  0  0  0  0  0  0  0
   -3.2557    4.5042    1.7364 H   0  0  0  0  0  0  0  0  0  0  0  0
   -3.7223    5.6359   -0.0027 N   0  3  0  0  0  0  0  0  0  0  0  0
   -4.0207    5.4887   -0.9588 H   0  0  0  0  0  0  0  0  0  0  0  0
   -4.4132    6.2121    0.4617 H   0  0  0  0  0  0  0  0  0  0  0  0
   -2.8428    6.1391   -0.0153 H   0  0  0  0  0  0  0  0  0  0  0  0
   -0.5865    0.0771    2.2496 C   0  0  0  0  0  0  0  0  0  0  0  0
    0.5860   -0.1608    2.5143 O   0  0  0  0  0  0  0  0  0  0  0  0
   -1.4786    0.4656    3.1667 N   0  0  0  0  0  0  0  0  0  0  0  0
   -2.4139    0.6698    2.8558 H   0  0  0  0  0  0  0  0  0  0  0  0
   -1.1587    0.6908    4.5775 C   0  0  0  0  0  0  0  0  0  0  0  0
   -0.4270    1.4968    4.6656 H   0  0  0  0  0  0  0  0  0  0  0  0
   -2.0565    0.9649    5.1327 H   0  0  0  0  0  0  0  0  0  0  0  0
   -0.7281   -0.2137    5.0125 H   0  0  0  0  0  0  0  0  0  0  0  0
  5  6  2  0  0  0  0
  5  7  1  0  0  0  0
  2  3  1  0  0  0  0
  2  4  1  0  0  0  0
  2  5  1  0  0  0  0
  1  2  1  0  0  0  0
 27 28  2  0  0  0  0
 27 29  1  0  0  0  0
 23 24  1  0  0  0  0
 23 25  1  0  0  0  0
 23 26  1  0  0  0  0
 20 21  1  0  0  0  0
 20 22  1  0  0  0  0
 20 23  1  0  0  0  0
 17 18  1  0  0  0  0
 17 19  1  0  0  0  0
 17 20  1  0  0  0  0
 14 15  1  0  0  0  0
 14 16  1  0  0  0  0
 14 17  1  0  0  0  0
 11 12  1  0  0  0  0
 11 13  1  0  0  0  0
 11 14  1  0  0  0  0
  9 10  1  0  0  0  0
  9 11  1  0  0  0  0
  9 27  1  0  0  0  0
  7  8  1  0  0  0  0
  7  9  1  0  0  0  0
 31 32  1  0  0  0  0
 31 33  1  0  0  0  0
 31 34  1  0  0  0  0
 29 30  1  0  0  0  0
 29 31  1  0  0  0  0
M  CHG  1  23   1
M  END
$$$$
default_name
  -OEChem-02102213163D

 34 33  0     1  0  0  0  0  0999 V2000
   -3.8899   -3.6747    1.6490 H   0  0  0  0  0  0  0  0  0  0  0  0
   -3.9109   -2.6717    1.2250 C   0  0  0  0  0  0  0  0  0  0  0  0
   -4.6009   -2.0517    1.7950 H   0  0  0  0  0  0  0  0  0  0  0  0
   -4.2309   -2.7237    0.1860 H   0  0  0  0  0  0  0  0  0  0  0  0
   -2.5229   -2.0787    1.2980 C   0  0  0  0  0  0  0  0  0  0  0  0
   -1.5999   -2.7227    1.7810 O   0  0  0  0  0  0  0  0  0  0  0  0
   -2.3659   -0.8447    0.8120 N   0  0  0  0  0  0  0  0  0  0  0  0
   -3.1749   -0.3807    0.4220 H   0  0  0  0  0  0  0  0  0  0  0  0
   -1.0919   -0.1077    0.8170 C   0  0  1  0  0  0  0  0  0  0  0  0
   -0.3571   -0.6901    0.2581 H   0  0  0  0  0  0  0  0  0  0  0  0
   -1.3037    1.2411    0.1040 C   0  0  0  0  0  0  0  0  0  0  0  0
   -0.3580    1.7853    0.1018 H   0  0  0  0  0  0  0  0  0  0  0  0
   -1.5929    1.0574   -0.9327 H   0  0  0  0  0  0  0  0  0  0  0  0
   -2.3667    2.1227    0.7772 C   0  0  0  0  0  0  0  0  0  0  0  0
   -3.2393    1.5185    1.0291 H   0  0  0  0  0  0  0  0  0  0  0  0
   -1.9524    2.5496    1.6926 H   0  0  0  0  0  0  0  0  0  0  0  0
   -2.7946    3.2572   -0.1641 C   0  0  0  0  0  0  0  0  0  0  0  0
   -1.9160    3.8514   -0.4264 H   0  0  0  0  0  0  0  0  0  0  0  0
   -3.2165    2.8251   -1.0737 H   0  0  0  0  0  0  0  0  0  0  0  0
   -3.8376    4.1528    0.5160 C   0  0  0  0  0  0  0  0  0  0  0  0
   -4.7052    3.5382    0.7774 H   0  0  0  0  0  0  0  0  0  0  0  0
   -3.4097    4.5409    1.4452 H   0  0  0  0  0  0  0  0  0  0  0  0
   -4.2520    5.2739   -0.3649 N   0  3  0  0  0  0  0  0  0  0  0  0
   -4.6585    4.9209   -1.2222 H   0  0  0  0  0  0  0  0  0  0  0  0
   -4.9395    5.8550    0.0982 H   0  0  0  0  0  0  0  0  0  0  0  0
   -3.4537    5.8511   -0.6027 H   0  0  0  0  0  0  0  0  0  0  0  0
   -0.5865    0.0771    2.2496 C   0  0  0  0  0  0  0  0  0  0  0  0
    0.5860   -0.1608    2.5143 O   0  0  0  0  0  0  0  0  0  0  0  0
   -1.4786    0.4656    3.1667 N   0  0  0  0  0  0  0  0  0  0  0  0
   -2.4139    0.6698    2.8558 H   0  0  0  0  0  0  0  0  0  0  0  0
   -1.1587    0.6908    4.5775 C   0  0  0  0  0  0  0  0  0  0  0  0
   -0.4270    1.4968    4.6656 H   0  0  0  0  0  0  0  0  0  0  0  0
   -2.0565    0.9649    5.1327 H   0  0  0  0  0  0  0  0  0  0  0  0
   -0.7281   -0.2137    5.0125 H   0  0  0  0  0  0  0  0  0  0  0  0
  5  6  2  0  0  0  0
  5  7  1  0  0  0  0
  2  3  1  0  0  0  0
  2  4  1  0  0  0  0
  2  5  1  0  0  0  0
  1  2  1  0  0  0  0
 27 28  2  0  0  0  0
 27 29  1  0  0  0  0
 23 24  1  0  0  0  0
 23 25  1  0  0  0  0
 23 26  1  0  0  0  0
 20 21  1  0  0  0  0
 20 22  1  0  0  0  0
 20 23  1  0  0  0  0
 17 18  1  0  0  0  0
 17 19  1  0  0  0  0
 17 20  1  0  0  0  0
 14 15  1  0  0  0  0
 14 16  1  0  0  0  0
 14 17  1  0  0  0  0
 11 12  1  0  0  0  0
 11 13  1  0  0  0  0
 11 14  1  0  0  0  0
  9 10  1  0  0  0  0
  9 11  1  0  0  0  0
  9 27  1  0  0  0  0
  7  8  1  0  0  0  0
  7  9  1  0  0  0  0
 31 32  1  0  0  0  0
 31 33  1  0  0  0  0
 31 34  1  0  0  0  0
 29 30  1  0  0  0  0
 29 31  1  0  0  0  0
M  CHG  1  23   1
M  END
$$$$
default_name
  -OEChem-02102213163D

 34 33  0     1  0  0  0  0  0999 V2000
   -3.8899   -3.6747    1.6490 H   0  0  0  0  0  0  0  0  0  0  0  0
   -3.9109   -2.6717    1.2250 C   0  0  0  0  0  0  0  0  0  0  0  0
   -4.6009   -2.0517    1.7950 H   0  0  0  0  0  0  0  0  0  0  0  0
   -4.2309   -2.7237    0.1860 H   0  0  0  0  0  0  0  0  0  0  0  0
   -2.5229   -2.0787    1.2980 C   0  0  0  0  0  0  0  0  0  0  0  0
   -1.5999   -2.7227    1.7810 O   0  0  0  0  0  0  0  0  0  0  0  0
   -2.3659   -0.8447    0.8120 N   0  0  0  0  0  0  0  0  0  0  0  0
   -3.1749   -0.3807    0.4220 H   0  0  0  0  0  0  0  0  0  0  0  0
   -1.0919   -0.1077    0.8170 C   0  0  1  0  0  0  0  0  0  0  0  0
   -0.3571   -0.6901    0.2581 H   0  0  0  0  0  0  0  0  0  0  0  0
   -1.3037    1.2411    0.1040 C   0  0  0  0  0  0  0  0  0  0  0  0
   -0.3580    1.7853    0.1018 H   0  0  0  0  0  0  0  0  0  0  0  0
   -1.5929    1.0574   -0.9327 H   0  0  0  0  0  0  0  0  0  0  0  0
   -2.3667    2.1227    0.7772 C   0  0  0  0  0  0  0  0  0  0  0  0
   -3.1123    1.4925    1.2638 H   0  0  0  0  0  0  0  0  0  0  0  0
   -1.8874    2.7530    1.5288 H   0  0  0  0  0  0  0  0  0  0  0  0
   -3.0610    3.0119   -0.2636 C   0  0  0  0  0  0  0  0  0  0  0  0
   -2.3097    3.6311   -0.7596 H   0  0  0  0  0  0  0  0  0  0  0  0
   -3.5464    2.3769   -1.0075 H   0  0  0  0  0  0  0  0  0  0  0  0
   -4.1053    3.9105    0.4107 C   0  0  0  0  0  0  0  0  0  0  0  0
   -4.8433    3.2723    0.9075 H   0  0  0  0  0  0  0  0  0  0  0  0
   -3.6058    4.5068    1.1801 H   0  0  0  0  0  0  0  0  0  0  0  0
   -4.7763    4.7993   -0.5713 N   0  3  0  0  0  0  0  0  0  0  0  0
   -5.2493    4.2529   -1.2802 H   0  0  0  0  0  0  0  0  0  0  0  0
   -5.4614    5.3854   -0.1108 H   0  0  0  0  0  0  0  0  0  0  0  0
   -4.0984    5.3984   -1.0277 H   0  0  0  0  0  0  0  0  0  0  0  0
   -0.5865    0.0771    2.2496 C   0  0  0  0  0  0  0  0  0  0  0  0
    0.5860   -0.1608    2.5143 O   0  0  0  0  0  0  0  0  0  0  0  0
   -1.4786    0.4656    3.1667 N   0  0  0  0  0  0  0  0  0  0  0  0
   -2.4139    0.6698    2.8558 H   0  0  0  0  0  0  0  0  0  0  0  0
   -1.1587    0.6908    4.5775 C   0  0  0  0  0  0  0  0  0  0  0  0
   -0.4270    1.4968    4.6656 H   0  0  0  0  0  0  0  0  0  0  0  0
   -2.0565    0.9649    5.1327 H   0  0  0  0  0  0  0  0  0  0  0  0
   -0.7281   -0.2137    5.0125 H   0  0  0  0  0  0  0  0  0  0  0  0
  5  6  2  0  0  0  0
  5  7  1  0  0  0  0
  2  3  1  0  0  0  0
  2  4  1  0  0  0  0
  2  5  1  0  0  0  0
  1  2  1  0  0  0  0
 27 28  2  0  0  0  0
 27 29  1  0  0  0  0
 23 24  1  0  0  0  0
 23 25  1  0  0  0  0
 23 26  1  0  0  0  0
 20 21  1  0  0  0  0
 20 22  1  0  0  0  0
 20 23  1  0  0  0  0
 17 18  1  0  0  0  0
 17 19  1  0  0  0  0
 17 20  1  0  0  0  0
 14 15  1  0  0  0  0
 14 16  1  0  0  0  0
 14 17  1  0  0  0  0
 11 12  1  0  0  0  0
 11 13  1  0  0  0  0
 11 14  1  0  0  0  0
  9 10  1  0  0  0  0
  9 11  1  0  0  0  0
  9 27  1  0  0  0  0
  7  8  1  0  0  0  0
  7  9  1  0  0  0  0
 31 32  1  0  0  0  0
 31 33  1  0  0  0  0
 31 34  1  0  0  0  0
 29 30  1  0  0  0  0
 29 31  1  0  0  0  0
M  CHG  1  23   1
M  END
$$$$
default_name
  -OEChem-02102213163D

 34 33  0     1  0  0  0  0  0999 V2000
   -3.8899   -3.6747    1.6490 H   0  0  0  0  0  0  0  0  0  0  0  0
   -3.9109   -2.6717    1.2250 C   0  0  0  0  0  0  0  0  0  0  0  0
   -4.6009   -2.0517    1.7950 H   0  0  0  0  0  0  0  0  0  0  0  0
   -4.2309   -2.7237    0.1860 H   0  0  0  0  0  0  0  0  0  0  0  0
   -2.5229   -2.0787    1.2980 C   0  0  0  0  0  0  0  0  0  0  0  0
   -1.5999   -2.7227    1.7810 O   0  0  0  0  0  0  0  0  0  0  0  0
   -2.3659   -0.8447    0.8120 N   0  0  0  0  0  0  0  0  0  0  0  0
   -3.1749   -0.3807    0.4220 H   0  0  0  0  0  0  0  0  0  0  0  0
   -1.0919   -0.1077    0.8170 C   0  0  1  0  0  0  0  0  0  0  0  0
   -0.3571   -0.6901    0.2581 H   0  0  0  0  0  0  0  0  0  0  0  0
   -1.3037    1.2411    0.1040 C   0  0  0  0  0  0  0  0  0  0  0  0
   -0.3580    1.7853    0.1018 H   0  0  0  0  0  0  0  0  0  0  0  0
   -1.5929    1.0574   -0.9327 H   0  0  0  0  0  0  0  0  0  0  0  0
   -2.3667    2.1227    0.7772 C   0  0  0  0  0  0  0  0  0  0  0  0
   -2.9518    1.5237    1.4763 H   0  0  0  0  0  0  0  0  0  0  0  0
   -1.8721    2.9275    1.3245 H   0  0  0  0  0  0  0  0  0  0  0  0
   -3.3054    2.7269   -0.2763 C   0  0  0  0  0  0  0  0  0  0  0  0
   -2.7146    3.3139   -0.9835 H   0  0  0  0  0  0  0  0  0  0  0  0
   -3.8043    1.9184   -0.8143 H   0  0  0  0  0  0  0  0  0  0  0  0
   -4.3520    3.6272    0.3921 C   0  0  0  0  0  0  0  0  0  0  0  0
   -4.9272    3.0231    1.1013 H   0  0  0  0  0  0  0  0  0  0  0  0
   -3.8307    4.4042    0.9594 H   0  0  0  0  0  0  0  0  0  0  0  0
   -5.2596    4.2444   -0.6077 N   0  3  0  0  0  0  0  0  0  0  0  0
   -5.7528    3.5302   -1.1288 H   0  0  0  0  0  0  0  0  0  0  0  0
   -5.9433    4.8351   -0.1510 H   0  0  0  0  0  0  0  0  0  0  0  0
   -4.7328    4.8119   -1.2614 H   0  0  0  0  0  0  0  0  0  0  0  0
   -0.5865    0.0771    2.2496 C   0  0  0  0  0  0  0  0  0  0  0  0
    0.5860   -0.1608    2.5143 O   0  0  0  0  0  0  0  0  0  0  0  0
   -1.4786    0.4656    3.1667 N   0  0  0  0  0  0  0  0  0  0  0  0
   -2.4139    0.6698    2.8558 H   0  0  0  0  0  0  0  0  0  0  0  0
   -1.1587    0.6908    4.5775 C   0  0  0  0  0  0  0  0  0  0  0  0
   -0.4270    1.4968    4.6656 H   0  0  0  0  0  0  0  0  0  0  0  0
   -2.0565    0.9649    5.1327 H   0  0  0  0  0  0  0  0  0  0  0  0
   -0.7281   -0.2137    5.0125 H   0  0  0  0  0  0  0  0  0  0  0  0
  5  6  2  0  0  0  0
  5  7  1  0  0  0  0
  2  3  1  0  0  0  0
  2  4  1  0  0  0  0
  2  5  1  0  0  0  0
  1  2  1  0  0  0  0
 27 28  2  0  0  0  0
 27 29  1  0  0  0  0
 23 24  1  0  0  0  0
 23 25  1  0  0  0  0
 23 26  1  0  0  0  0
 20 21  1  0  0  0  0
 20 22  1  0  0  0  0
 20 23  1  0  0  0  0
 17 18  1  0  0  0  0
 17 19  1  0  0  0  0
 17 20  1  0  0  0  0
 14 15  1  0  0  0  0
 14 16  1  0  0  0  0
 14 17  1  0  0  0  0
 11 12  1  0  0  0  0
 11 13  1  0  0  0  0
 11 14  1  0  0  0  0
  9 10  1  0  0  0  0
  9 11  1  0  0  0  0
  9 27  1  0  0  0  0
  7  8  1  0  0  0  0
  7  9  1  0  0  0  0
 31 32  1  0  0  0  0
 31 33  1  0  0  0  0
 31 34  1  0  0  0  0
 29 30  1  0  0  0  0
 29 31  1  0  0  0  0
M  CHG  1  23   1
M  END
$$$$
default_name
  -OEChem-02102213163D

 34 33  0     1  0  0  0  0  0999 V2000
   -3.8899   -3.6747    1.6490 H   0  0  0  0  0  0  0  0  0  0  0  0
   -3.9109   -2.6717    1.2250 C   0  0  0  0  0  0  0  0  0  0  0  0
   -4.6009   -2.0517    1.7950 H   0  0  0  0  0  0  0  0  0  0  0  0
   -4.2309   -2.7237    0.1860 H   0  0  0  0  0  0  0  0  0  0  0  0
   -2.5229   -2.0787    1.2980 C   0  0  0  0  0  0  0  0  0  0  0  0
   -1.5999   -2.7227    1.7810 O   0  0  0  0  0  0  0  0  0  0  0  0
   -2.3659   -0.8447    0.8120 N   0  0  0  0  0  0  0  0  0  0  0  0
   -3.1749   -0.3807    0.4220 H   0  0  0  0  0  0  0  0  0  0  0  0
   -1.0919   -0.1077    0.8170 C   0  0  1  0  0  0  0  0  0  0  0  0
   -0.3571   -0.6901    0.2581 H   0  0  0  0  0  0  0  0  0  0  0  0
   -1.3037    1.2411    0.1040 C   0  0  0  0  0  0  0  0  0  0  0  0
   -0.3580    1.7853    0.1018 H   0  0  0  0  0  0  0  0  0  0  0  0
   -1.5929    1.0574   -0.9327 H   0  0  0  0  0  0  0  0  0  0  0  0
   -2.3667    2.1227    0.7772 C   0  0  0  0  0  0  0  0  0  0  0  0
   -2.7688    1.6101    1.6521 H   0  0  0  0  0  0  0  0  0  0  0  0
   -1.9074    3.0612    1.0937 H   0  0  0  0  0  0  0  0  0  0  0  0
   -3.5110    2.4217   -0.2012 C   0  0  0  0  0  0  0  0  0  0  0  0
   -3.1029    2.9216   -1.0829 H   0  0  0  0  0  0  0  0  0  0  0  0
   -3.9728    1.4808   -0.5073 H   0  0  0  0  0  0  0  0  0  0  0  0
   -4.5609    3.3223    0.4616 C   0  0  0  0  0  0  0  0  0  0  0  0
   -4.9513    2.8076    1.3456 H   0  0  0  0  0  0  0  0  0  0  0  0
   -4.0692    4.2400    0.7979 H   0  0  0  0  0  0  0  0  0  0  0  0
   -5.6689    3.6471   -0.4718 N   0  3  0  0  0  0  0  0  0  0  0  0
   -6.1347    2.8022   -0.7784 H   0  0  0  0  0  0  0  0  0  0  0  0
   -6.3524    4.2417   -0.0198 H   0  0  0  0  0  0  0  0  0  0  0  0
   -5.3139    4.1316   -1.2880 H   0  0  0  0  0  0  0  0  0  0  0  0
   -0.5865    0.0771    2.2496 C   0  0  0  0  0  0  0  0  0  0  0  0
    0.5860   -0.1608    2.5143 O   0  0  0  0  0  0  0  0  0  0  0  0
   -1.4786    0.4656    3.1667 N   0  0  0  0  0  0  0  0  0  0  0  0
   -2.4139    0.6698    2.8558 H   0  0  0  0  0  0  0  0  0  0  0  0
   -1.1587    0.6908    4.5775 C   0  0  0  0  0  0  0  0  0  0  0  0
   -0.4270    1.4968    4.6656 H   0  0  0  0  0  0  0  0  0  0  0  0
   -2.0565    0.9649    5.1327 H   0  0  0  0  0  0  0  0  0  0  0  0
   -0.7281   -0.2137    5.0125 H   0  0  0  0  0  0  0  0  0  0  0  0
  5  6  2  0  0  0  0
  5  7  1  0  0  0  0
  2  3  1  0  0  0  0
  2  4  1  0  0  0  0
  2  5  1  0  0  0  0
  1  2  1  0  0  0  0
 27 28  2  0  0  0  0
 27 29  1  0  0  0  0
 23 24  1  0  0  0  0
 23 25  1  0  0  0  0
 23 26  1  0  0  0  0
 20 21  1  0  0  0  0
 20 22  1  0  0  0  0
 20 23  1  0  0  0  0
 17 18  1  0  0  0  0
 17 19  1  0  0  0  0
 17 20  1  0  0  0  0
 14 15  1  0  0  0  0
 14 16  1  0  0  0  0
 14 17  1  0  0  0  0
 11 12  1  0  0  0  0
 11 13  1  0  0  0  0
 11 14  1  0  0  0  0
  9 10  1  0  0  0  0
  9 11  1  0  0  0  0
  9 27  1  0  0  0  0
  7  8  1  0  0  0  0
  7  9  1  0  0  0  0
 31 32  1  0  0  0  0
 31 33  1  0  0  0  0
 31 34  1  0  0  0  0
 29 30  1  0  0  0  0
 29 31  1  0  0  0  0
M  CHG  1  23   1
M  END
$$$$
default_name
  -OEChem-02102213163D

 34 33  0     1  0  0  0  0  0999 V2000
   -3.8899   -3.6747    1.6490 H   0  0  0  0  0  0  0  0  0  0  0  0
   -3.9109   -2.6717    1.2250 C   0  0  0  0  0  0  0  0  0  0  0  0
   -4.6009   -2.0517    1.7950 H   0  0  0  0  0  0  0  0  0  0  0  0
   -4.2309   -2.7237    0.1860 H   0  0  0  0  0  0  0  0  0  0  0  0
   -2.5229   -2.0787    1.2980 C   0  0  0  0  0  0  0  0  0  0  0  0
   -1.5999   -2.7227    1.7810 O   0  0  0  0  0  0  0  0  0  0  0  0
   -2.3659   -0.8447    0.8120 N   0  0  0  0  0  0  0  0  0  0  0  0
   -3.1749   -0.3807    0.4220 H   0  0  0  0  0  0  0  0  0  0  0  0
   -1.0919   -0.1077    0.8170 C   0  0  1  0  0  0  0  0  0  0  0  0
   -0.3571   -0.6901    0.2581 H   0  0  0  0  0  0  0  0  0  0  0  0
   -1.3037    1.2411    0.1040 C   0  0  0  0  0  0  0  0  0  0  0  0
   -0.3580    1.7853    0.1018 H   0  0  0  0  0  0  0  0  0  0  0  0
   -1.5929    1.0574   -0.9327 H   0  0  0  0  0  0  0  0  0  0  0  0
   -2.3667    2.1227    0.7772 C   0  0  0  0  0  0  0  0  0  0  0  0
   -2.5756    1.7458    1.7793 H   0  0  0  0  0  0  0  0  0  0  0  0
   -1.9910    3.1450    0.8520 H   0  0  0  0  0  0  0  0  0  0  0  0
   -3.6639    2.1170   -0.0434 C   0  0  0  0  0  0  0  0  0  0  0  0
   -3.4483    2.4807   -1.0509 H   0  0  0  0  0  0  0  0  0  0  0  0
   -4.0403    1.0941   -0.1074 H   0  0  0  0  0  0  0  0  0  0  0  0
   -4.7178    3.0165    0.6143 C   0  0  0  0  0  0  0  0  0  0  0  0
   -4.9137    2.6405    1.6237 H   0  0  0  0  0  0  0  0  0  0  0  0
   -4.3048    4.0255    0.7068 H   0  0  0  0  0  0  0  0  0  0  0  0
   -5.9764    3.0481   -0.1728 N   0  3  0  0  0  0  0  0  0  0  0  0
   -6.3690    2.1184   -0.2529 H   0  0  0  0  0  0  0  0  0  0  0  0
   -6.6607    3.6456    0.2740 H   0  0  0  0  0  0  0  0  0  0  0  0
   -5.8019    3.4038   -1.1054 H   0  0  0  0  0  0  0  0  0  0  0  0
   -0.5865    0.0771    2.2496 C   0  0  0  0  0  0  0  0  0  0  0  0
    0.5860   -0.1608    2.5143 O   0  0  0  0  0  0  0  0  0  0  0  0
   -1.4786    0.4656    3.1667 N   0  0  0  0  0  0  0  0  0  0  0  0
   -2.4139    0.6698    2.8558 H   0  0  0  0  0  0  0  0  0  0  0  0
   -1.1587    0.6908    4.5775 C   0  0  0  0  0  0  0  0  0  0  0  0
   -0.4270    1.4968    4.6656 H   0  0  0  0  0  0  0  0  0  0  0  0
   -2.0565    0.9649    5.1327 H   0  0  0  0  0  0  0  0  0  0  0  0
   -0.7281   -0.2137    5.0125 H   0  0  0  0  0  0  0  0  0  0  0  0
  5  6  2  0  0  0  0
  5  7  1  0  0  0  0
  2  3  1  0  0  0  0
  2  4  1  0  0  0  0
  2  5  1  0  0  0  0
  1  2  1  0  0  0  0
 27 28  2  0  0  0  0
 27 29  1  0  0  0  0
 23 24  1  0  0  0  0
 23 25  1  0  0  0  0
 23 26  1  0  0  0  0
 20 21  1  0  0  0  0
 20 22  1  0  0  0  0
 20 23  1  0  0  0  0
 17 18  1  0  0  0  0
 17 19  1  0  0  0  0
 17 20  1  0  0  0  0
 14 15  1  0  0  0  0
 14 16  1  0  0  0  0
 14 17  1  0  0  0  0
 11 12  1  0  0  0  0
 11 13  1  0  0  0  0
 11 14  1  0  0  0  0
  9 10  1  0  0  0  0
  9 11  1  0  0  0  0
  9 27  1  0  0  0  0
  7  8  1  0  0  0  0
  7  9  1  0  0  0  0
 31 32  1  0  0  0  0
 31 33  1  0  0  0  0
 31 34  1  0  0  0  0
 29 30  1  0  0  0  0
 29 31  1  0  0  0  0
M  CHG  1  23   1
M  END
$$$$
default_name
  -OEChem-02102213163D

 34 33  0     1  0  0  0  0  0999 V2000
   -3.8899   -3.6747    1.6490 H   0  0  0  0  0  0  0  0  0  0  0  0
   -3.9109   -2.6717    1.2250 C   0  0  0  0  0  0  0  0  0  0  0  0
   -4.6009   -2.0517    1.7950 H   0  0  0  0  0  0  0  0  0  0  0  0
   -4.2309   -2.7237    0.1860 H   0  0  0  0  0  0  0  0  0  0  0  0
   -2.5229   -2.0787    1.2980 C   0  0  0  0  0  0  0  0  0  0  0  0
   -1.5999   -2.7227    1.7810 O   0  0  0  0  0  0  0  0  0  0  0  0
   -2.3659   -0.8447    0.8120 N   0  0  0  0  0  0  0  0  0  0  0  0
   -3.1749   -0.3807    0.4220 H   0  0  0  0  0  0  0  0  0  0  0  0
   -1.0919   -0.1077    0.8170 C   0  0  1  0  0  0  0  0  0  0  0  0
   -0.3571   -0.6901    0.2581 H   0  0  0  0  0  0  0  0  0  0  0  0
   -1.3037    1.2411    0.1040 C   0  0  0  0  0  0  0  0  0  0  0  0
   -0.3580    1.7853    0.1018 H   0  0  0  0  0  0  0  0  0  0  0  0
   -1.5929    1.0574   -0.9327 H   0  0  0  0  0  0  0  0  0  0  0  0
   -2.3667    2.1227    0.7772 C   0  0  0  0  0  0  0  0  0  0  0  0
   -2.3856    1.9216    1.8492 H   0  0  0  0  0  0  0  0  0  0  0  0
   -2.1171    3.1732    0.6159 H   0  0  0  0  0  0  0  0  0  0  0  0
   -3.7535    1.8335    0.1862 C   0  0  0  0  0  0  0  0  0  0  0  0
   -3.7272    2.0215   -0.8898 H   0  0  0  0  0  0  0  0  0  0  0  0
   -4.0022    0.7844    0.3582 H   0  0  0  0  0  0  0  0  0  0  0  0
   -4.8120    2.7306    0.8399 C   0  0  0  0  0  0  0  0  0  0  0  0
   -4.8172    2.5331    1.9168 H   0  0  0  0  0  0  0  0  0  0  0  0
   -4.5217    3.7752    0.6922 H   0  0  0  0  0  0  0  0  0  0  0  0
   -6.1610    2.4882    0.2690 N   0  3  0  0  0  0  0  0  0  0  0  0
   -6.4397    1.5255    0.4120 H   0  0  0  0  0  0  0  0  0  0  0  0
   -6.8473    3.0875    0.7103 H   0  0  0  0  0  0  0  0  0  0  0  0
   -6.1637    2.6781   -0.7263 H   0  0  0  0  0  0  0  0  0  0  0  0
   -0.5865    0.0771    2.2496 C   0  0  0  0  0  0  0  0  0  0  0  0
    0.5860   -0.1608    2.5143 O   0  0  0  0  0  0  0  0  0  0  0  0
   -1.4786    0.4656    3.1667 N   0  0  0  0  0  0  0  0  0  0  0  0
   -2.4139    0.6698    2.8558 H   0  0  0  0  0  0  0  0  0  0  0  0
   -1.1587    0.6908    4.5775 C   0  0  0  0  0  0  0  0  0  0  0  0
   -0.4270    1.4968    4.6656 H   0  0  0  0  0  0  0  0  0  0  0  0
   -2.0565    0.9649    5.1327 H   0  0  0  0  0  0  0  0  0  0  0  0
   -0.7281   -0.2137    5.0125 H   0  0  0  0  0  0  0  0  0  0  0  0
  5  6  2  0  0  0  0
  5  7  1  0  0  0  0
  2  3  1  0  0  0  0
  2  4  1  0  0  0  0
  2  5  1  0  0  0  0
  1  2  1  0  0  0  0
 27 28  2  0  0  0  0
 27 29  1  0  0  0  0
 23 24  1  0  0  0  0
 23 25  1  0  0  0  0
 23 26  1  0  0  0  0
 20 21  1  0  0  0  0
 20 22  1  0  0  0  0
 20 23  1  0  0  0  0
 17 18  1  0  0  0  0
 17 19  1  0  0  0  0
 17 20  1  0  0  0  0
 14 15  1  0  0  0  0
 14 16  1  0  0  0  0
 14 17  1  0  0  0  0
 11 12  1  0  0  0  0
 11 13  1  0  0  0  0
 11 14  1  0  0  0  0
  9 10  1  0  0  0  0
  9 11  1  0  0  0  0
  9 27  1  0  0  0  0
  7  8  1  0  0  0  0
  7  9  1  0  0  0  0
 31 32  1  0  0  0  0
 31 33  1  0  0  0  0
 31 34  1  0  0  0  0
 29 30  1  0  0  0  0
 29 31  1  0  0  0  0
M  CHG  1  23   1
M  END
$$$$
default_name
  -OEChem-02102213163D

 34 33  0     1  0  0  0  0  0999 V2000
   -3.8899   -3.6747    1.6490 H   0  0  0  0  0  0  0  0  0  0  0  0
   -3.9109   -2.6717    1.2250 C   0  0  0  0  0  0  0  0  0  0  0  0
   -4.6009   -2.0517    1.7950 H   0  0  0  0  0  0  0  0  0  0  0  0
   -4.2309   -2.7237    0.1860 H   0  0  0  0  0  0  0  0  0  0  0  0
   -2.5229   -2.0787    1.2980 C   0  0  0  0  0  0  0  0  0  0  0  0
   -1.5999   -2.7227    1.7810 O   0  0  0  0  0  0  0  0  0  0  0  0
   -2.3659   -0.8447    0.8120 N   0  0  0  0  0  0  0  0  0  0  0  0
   -3.1749   -0.3807    0.4220 H   0  0  0  0  0  0  0  0  0  0  0  0
   -1.0919   -0.1077    0.8170 C   0  0  1  0  0  0  0  0  0  0  0  0
   -0.3571   -0.6901    0.2581 H   0  0  0  0  0  0  0  0  0  0  0  0
   -1.3037    1.2411    0.1040 C   0  0  0  0  0  0  0  0  0  0  0  0
   -0.3580    1.7853    0.1018 H   0  0  0  0  0  0  0  0  0  0  0  0
   -1.5929    1.0574   -0.9327 H   0  0  0  0  0  0  0  0  0  0  0  0
   -2.3667    2.1227    0.7772 C   0  0  0  0  0  0  0  0  0  0  0  0
   -2.2116    2.1255    1.8569 H   0  0  0  0  0  0  0  0  0  0  0  0
   -2.2771    3.1439    0.4016 H   0  0  0  0  0  0  0  0  0  0  0  0
   -3.7738    1.5907    0.4721 C   0  0  0  0  0  0  0  0  0  0  0  0
   -3.9206    1.5751   -0.6106 H   0  0  0  0  0  0  0  0  0  0  0  0
   -3.8612    0.5731    0.8578 H   0  0  0  0  0  0  0  0  0  0  0  0
   -4.8371    2.4843    1.1229 C   0  0  0  0  0  0  0  0  0  0  0  0
   -4.6683    2.4928    2.2047 H   0  0  0  0  0  0  0  0  0  0  0  0
   -4.7049    3.5062    0.7551 H   0  0  0  0  0  0  0  0  0  0  0  0
   -6.2102    2.0055    0.8234 N   0  3  0  0  0  0  0  0  0  0  0  0
   -6.3420    1.0638    1.1708 H   0  0  0  0  0  0  0  0  0  0  0  0
   -6.8994    2.6054    1.2594 H   0  0  0  0  0  0  0  0  0  0  0  0
   -6.3745    2.0041   -0.1765 H   0  0  0  0  0  0  0  0  0  0  0  0
   -0.5865    0.0771    2.2496 C   0  0  0  0  0  0  0  0  0  0  0  0
    0.5860   -0.1608    2.5143 O   0  0  0  0  0  0  0  0  0  0  0  0
   -1.4786    0.4656    3.1667 N   0  0  0  0  0  0  0  0  0  0  0  0
   -2.4139    0.6698    2.8558 H   0  0  0  0  0  0  0  0  0  0  0  0
   -1.1587    0.6908    4.5775 C   0  0  0  0  0  0  0  0  0  0  0  0
   -0.4270    1.4968    4.6656 H   0  0  0  0  0  0  0  0  0  0  0  0
   -2.0565    0.9649    5.1327 H   0  0  0  0  0  0  0  0  0  0  0  0
   -0.7281   -0.2137    5.0125 H   0  0  0  0  0  0  0  0  0  0  0  0
  5  6  2  0  0  0  0
  5  7  1  0  0  0  0
  2  3  1  0  0  0  0
  2  4  1  0  0  0  0
  2  5  1  0  0  0  0
  1  2  1  0  0  0  0
 27 28  2  0  0  0  0
 27 29  1  0  0  0  0
 23 24  1  0  0  0  0
 23 25  1  0  0  0  0
 23 26  1  0  0  0  0
 20 21  1  0  0  0  0
 20 22  1  0  0  0  0
 20 23  1  0  0  0  0
 17 18  1  0  0  0  0
 17 19  1  0  0  0  0
 17 20  1  0  0  0  0
 14 15  1  0  0  0  0
 14 16  1  0  0  0  0
 14 17  1  0  0  0  0
 11 12  1  0  0  0  0
 11 13  1  0  0  0  0
 11 14  1  0  0  0  0
  9 10  1  0  0  0  0
  9 11  1  0  0  0  0
  9 27  1  0  0  0  0
  7  8  1  0  0  0  0
  7  9  1  0  0  0  0
 31 32  1  0  0  0  0
 31 33  1  0  0  0  0
 31 34  1  0  0  0  0
 29 30  1  0  0  0  0
 29 31  1  0  0  0  0
M  CHG  1  23   1
M  END
$$$$
default_name
  -OEChem-02102213163D

 34 33  0     1  0  0  0  0  0999 V2000
   -3.8899   -3.6747    1.6490 H   0  0  0  0  0  0  0  0  0  0  0  0
   -3.9109   -2.6717    1.2250 C   0  0  0  0  0  0  0  0  0  0  0  0
   -4.6009   -2.0517    1.7950 H   0  0  0  0  0  0  0  0  0  0  0  0
   -4.2309   -2.7237    0.1860 H   0  0  0  0  0  0  0  0  0  0  0  0
   -2.5229   -2.0787    1.2980 C   0  0  0  0  0  0  0  0  0  0  0  0
   -1.5999   -2.7227    1.7810 O   0  0  0  0  0  0  0  0  0  0  0  0
   -2.3659   -0.8447    0.8120 N   0  0  0  0  0  0  0  0  0  0  0  0
   -3.1749   -0.3807    0.4220 H   0  0  0  0  0  0  0  0  0  0  0  0
   -1.0919   -0.1077    0.8170 C   0  0  1  0  0  0  0  0  0  0  0  0
   -0.3571   -0.6901    0.2581 H   0  0  0  0  0  0  0  0  0  0  0  0
   -1.3037    1.2411    0.1040 C   0  0  0  0  0  0  0  0  0  0  0  0
   -0.3580    1.7853    0.1018 H   0  0  0  0  0  0  0  0  0  0  0  0
   -1.5929    1.0574   -0.9327 H   0  0  0  0  0  0  0  0  0  0  0  0
   -2.3667    2.1227    0.7772 C   0  0  0  0  0  0  0  0  0  0  0  0
   -2.0655    2.3435    1.8021 H   0  0  0  0  0  0  0  0  0  0  0  0
   -2.4603    3.0590    0.2236 H   0  0  0  0  0  0  0  0  0  0  0  0
   -3.7235    1.4051    0.7947 C   0  0  0  0  0  0  0  0  0  0  0  0
   -4.0152    1.1720   -0.2322 H   0  0  0  0  0  0  0  0  0  0  0  0
   -3.6268    0.4743    1.3572 H   0  0  0  0  0  0  0  0  0  0  0  0
   -4.7913    2.2941    1.4442 C   0  0  0  0  0  0  0  0  0  0  0  0
   -4.4771    2.5223    2.4679 H   0  0  0  0  0  0  0  0  0  0  0  0
   -4.8421    3.2369    0.8912 H   0  0  0  0  0  0  0  0  0  0  0  0
   -6.1207    1.6329    1.4527 N   0  3  0  0  0  0  0  0  0  0  0  0
   -6.0826    0.7648    1.9720 H   0  0  0  0  0  0  0  0  0  0  0  0
   -6.8135    2.2321    1.8839 H   0  0  0  0  0  0  0  0  0  0  0  0
   -6.4201    1.4275    0.5066 H   0  0  0  0  0  0  0  0  0  0  0  0
   -0.5865    0.0771    2.2496 C   0  0  0  0  0  0  0  0  0  0  0  0
    0.5860   -0.1608    2.5143 O   0  0  0  0  0  0  0  0  0  0  0  0
   -1.4786    0.4656    3.1667 N   0  0  0  0  0  0  0  0  0  0  0  0
   -2.4139    0.6698    2.8558 H   0  0  0  0  0  0  0  0  0  0  0  0
   -1.1587    0.6908    4.5775 C   0  0  0  0  0  0  0  0  0  0  0  0
   -0.4270    1.4968    4.6656 H   0  0  0  0  0  0  0  0  0  0  0  0
   -2.0565    0.9649    5.1327 H   0  0  0  0  0  0  0  0  0  0  0  0
   -0.7281   -0.2137    5.0125 H   0  0  0  0  0  0  0  0  0  0  0  0
  5  6  2  0  0  0  0
  5  7  1  0  0  0  0
  2  3  1  0  0  0  0
  2  4  1  0  0  0  0
  2  5  1  0  0  0  0
  1  2  1  0  0  0  0
 27 28  2  0  0  0  0
 27 29  1  0  0  0  0
 23 24  1  0  0  0  0
 23 25  1  0  0  0  0
 23 26  1  0  0  0  0
 20 21  1  0  0  0  0
 20 22  1  0  0  0  0
 20 23  1  0  0  0  0
 17 18  1  0  0  0  0
 17 19  1  0  0  0  0
 17 20  1  0  0  0  0
 14 15  1  0  0  0  0
 14 16  1  0  0  0  0
 14 17  1  0  0  0  0
 11 12  1  0  0  0  0
 11 13  1  0  0  0  0
 11 14  1  0  0  0  0
  9 10  1  0  0  0  0
  9 11  1  0  0  0  0
  9 27  1  0  0  0  0
  7  8  1  0  0  0  0
  7  9  1  0  0  0  0
 31 32  1  0  0  0  0
 31 33  1  0  0  0  0
 31 34  1  0  0  0  0
 29 30  1  0  0  0  0
 29 31  1  0  0  0  0
M  CHG  1  23   1
M  END
$$$$
default_name
  -OEChem-02102213163D

 34 33  0     1  0  0  0  0  0999 V2000
   -3.8899   -3.6747    1.6490 H   0  0  0  0  0  0  0  0  0  0  0  0
   -3.9109   -2.6717    1.2250 C   0  0  0  0  0  0  0  0  0  0  0  0
   -4.6009   -2.0517    1.7950 H   0  0  0  0  0  0  0  0  0  0  0  0
   -4.2309   -2.7237    0.1860 H   0  0  0  0  0  0  0  0  0  0  0  0
   -2.5229   -2.0787    1.2980 C   0  0  0  0  0  0  0  0  0  0  0  0
   -1.5999   -2.7227    1.7810 O   0  0  0  0  0  0  0  0  0  0  0  0
   -2.3659   -0.8447    0.8120 N   0  0  0  0  0  0  0  0  0  0  0  0
   -3.1749   -0.3807    0.4220 H   0  0  0  0  0  0  0  0  0  0  0  0
   -1.0919   -0.1077    0.8170 C   0  0  1  0  0  0  0  0  0  0  0  0
   -0.3571   -0.6901    0.2581 H   0  0  0  0  0  0  0  0  0  0  0  0
   -1.3037    1.2411    0.1040 C   0  0  0  0  0  0  0  0  0  0  0  0
   -0.3580    1.7853    0.1018 H   0  0  0  0  0  0  0  0  0  0  0  0
   -1.5929    1.0574   -0.9327 H   0  0  0  0  0  0  0  0  0  0  0  0
   -2.3667    2.1227    0.7772 C   0  0  0  0  0  0  0  0  0  0  0  0
   -1.9573    2.5608    1.6884 H   0  0  0  0  0  0  0  0  0  0  0  0
   -2.6540    2.9244    0.0940 H   0  0  0  0  0  0  0  0  0  0  0  0
   -3.6059    1.2893    1.1321 C   0  0  0  0  0  0  0  0  0  0  0  0
   -4.0047    0.8397    0.2196 H   0  0  0  0  0  0  0  0  0  0  0  0
   -3.3150    0.4950    1.8224 H   0  0  0  0  0  0  0  0  0  0  0  0
   -4.6778    2.1732    1.7818 C   0  0  0  0  0  0  0  0  0  0  0  0
   -4.2567    2.6196    2.6885 H   0  0  0  0  0  0  0  0  0  0  0  0
   -4.9238    2.9856    1.0913 H   0  0  0  0  0  0  0  0  0  0  0  0
   -5.8985    1.3959    2.1140 N   0  3  0  0  0  0  0  0  0  0  0  0
   -5.6791    0.6489    2.7610 H   0  0  0  0  0  0  0  0  0  0  0  0
   -6.5955    1.9931    2.5411 H   0  0  0  0  0  0  0  0  0  0  0  0
   -6.2972    0.9878    1.2765 H   0  0  0  0  0  0  0  0  0  0  0  0
   -0.5865    0.0771    2.2496 C   0  0  0  0  0  0  0  0  0  0  0  0
    0.5860   -0.1608    2.5143 O   0  0  0  0  0  0  0  0  0  0  0  0
   -1.4786    0.4656    3.1667 N   0  0  0  0  0  0  0  0  0  0  0  0
   -2.4139    0.6698    2.8558 H   0  0  0  0  0  0  0  0  0  0  0  0
   -1.1587    0.6908    4.5775 C   0  0  0  0  0  0  0  0  0  0  0  0
   -0.4270    1.4968    4.6656 H   0  0  0  0  0  0  0  0  0  0  0  0
   -2.0565    0.9649    5.1327 H   0  0  0  0  0  0  0  0  0  0  0  0
   -0.7281   -0.2137    5.0125 H   0  0  0  0  0  0  0  0  0  0  0  0
  5  6  2  0  0  0  0
  5  7  1  0  0  0  0
  2  3  1  0  0  0  0
  2  4  1  0  0  0  0
  2  5  1  0  0  0  0
  1  2  1  0  0  0  0
 27 28  2  0  0  0  0
 27 29  1  0  0  0  0
 23 24  1  0  0  0  0
 23 25  1  0  0  0  0
 23 26  1  0  0  0  0
 20 21  1  0  0  0  0
 20 22  1  0  0  0  0
 20 23  1  0  0  0  0
 17 18  1  0  0  0  0
 17 19  1  0  0  0  0
 17 20  1  0  0  0  0
 14 15  1  0  0  0  0
 14 16  1  0  0  0  0
 14 17  1  0  0  0  0
 11 12  1  0  0  0  0
 11 13  1  0  0  0  0
 11 14  1  0  0  0  0
  9 10  1  0  0  0  0
  9 11  1  0  0  0  0
  9 27  1  0  0  0  0
  7  8  1  0  0  0  0
  7  9  1  0  0  0  0
 31 32  1  0  0  0  0
 31 33  1  0  0  0  0
 31 34  1  0  0  0  0
 29 30  1  0  0  0  0
 29 31  1  0  0  0  0
M  CHG  1  23   1
M  END
$$$$
default_name
  -OEChem-02102213163D

 34 33  0     1  0  0  0  0  0999 V2000
   -3.8899   -3.6747    1.6490 H   0  0  0  0  0  0  0  0  0  0  0  0
   -3.9109   -2.6717    1.2250 C   0  0  0  0  0  0  0  0  0  0  0  0
   -4.6009   -2.0517    1.7950 H   0  0  0  0  0  0  0  0  0  0  0  0
   -4.2309   -2.7237    0.1860 H   0  0  0  0  0  0  0  0  0  0  0  0
   -2.5229   -2.0787    1.2980 C   0  0  0  0  0  0  0  0  0  0  0  0
   -1.5999   -2.7227    1.7810 O   0  0  0  0  0  0  0  0  0  0  0  0
   -2.3659   -0.8447    0.8120 N   0  0  0  0  0  0  0  0  0  0  0  0
   -3.1749   -0.3807    0.4220 H   0  0  0  0  0  0  0  0  0  0  0  0
   -1.0919   -0.1077    0.8170 C   0  0  1  0  0  0  0  0  0  0  0  0
   -0.3571   -0.6901    0.2581 H   0  0  0  0  0  0  0  0  0  0  0  0
   -1.3037    1.2411    0.1040 C   0  0  0  0  0  0  0  0  0  0  0  0
   -0.3580    1.7853    0.1018 H   0  0  0  0  0  0  0  0  0  0  0  0
   -1.5929    1.0574   -0.9327 H   0  0  0  0  0  0  0  0  0  0  0  0
   -2.3667    2.1227    0.7772 C   0  0  0  0  0  0  0  0  0  0  0  0
   -1.8942    2.7627    1.5236 H   0  0  0  0  0  0  0  0  0  0  0  0
   -2.8450    2.7492    0.0218 H   0  0  0  0  0  0  0  0  0  0  0  0
   -3.4290    1.2511    1.4613 C   0  0  0  0  0  0  0  0  0  0  0  0
   -3.8898    0.6008    0.7139 H   0  0  0  0  0  0  0  0  0  0  0  0
   -2.9471    0.6336    2.2218 H   0  0  0  0  0  0  0  0  0  0  0  0
   -4.5044    2.1297    2.1126 C   0  0  0  0  0  0  0  0  0  0  0  0
   -4.0221    2.7781    2.8514 H   0  0  0  0  0  0  0  0  0  0  0  0
   -4.9445    2.7695    1.3417 H   0  0  0  0  0  0  0  0  0  0  0  0
   -5.5588    1.3106    2.7621 N   0  3  0  0  0  0  0  0  0  0  0  0
   -5.1590    0.7239    3.4838 H   0  0  0  0  0  0  0  0  0  0  0  0
   -6.2601    1.9047    3.1864 H   0  0  0  0  0  0  0  0  0  0  0  0
   -6.0143    0.7148    2.0806 H   0  0  0  0  0  0  0  0  0  0  0  0
   -0.5865    0.0771    2.2496 C   0  0  0  0  0  0  0  0  0  0  0  0
    0.5860   -0.1608    2.5143 O   0  0  0  0  0  0  0  0  0  0  0  0
   -1.4786    0.4656    3.1667 N   0  0  0  0  0  0  0  0  0  0  0  0
   -2.4139    0.6698    2.8558 H   0  0  0  0  0  0  0  0  0  0  0  0
   -1.1587    0.6908    4.5775 C   0  0  0  0  0  0  0  0  0  0  0  0
   -0.4270    1.4968    4.6656 H   0  0  0  0  0  0  0  0  0  0  0  0
   -2.0565    0.9649    5.1327 H   0  0  0  0  0  0  0  0  0  0  0  0
   -0.7281   -0.2137    5.0125 H   0  0  0  0  0  0  0  0  0  0  0  0
  5  6  2  0  0  0  0
  5  7  1  0  0  0  0
  2  3  1  0  0  0  0
  2  4  1  0  0  0  0
  2  5  1  0  0  0  0
  1  2  1  0  0  0  0
 27 28  2  0  0  0  0
 27 29  1  0  0  0  0
 23 24  1  0  0  0  0
 23 25  1  0  0  0  0
 23 26  1  0  0  0  0
 20 21  1  0  0  0  0
 20 22  1  0  0  0  0
 20 23  1  0  0  0  0
 17 18  1  0  0  0  0
 17 19  1  0  0  0  0
 17 20  1  0  0  0  0
 14 15  1  0  0  0  0
 14 16  1  0  0  0  0
 14 17  1  0  0  0  0
 11 12  1  0  0  0  0
 11 13  1  0  0  0  0
 11 14  1  0  0  0  0
  9 10  1  0  0  0  0
  9 11  1  0  0  0  0
  9 27  1  0  0  0  0
  7  8  1  0  0  0  0
  7  9  1  0  0  0  0
 31 32  1  0  0  0  0
 31 33  1  0  0  0  0
 31 34  1  0  0  0  0
 29 30  1  0  0  0  0
 29 31  1  0  0  0  0
M  CHG  1  23   1
M  END
$$$$
default_name
  -OEChem-02102213163D

 34 33  0     1  0  0  0  0  0999 V2000
   -3.8899   -3.6747    1.6490 H   0  0  0  0  0  0  0  0  0  0  0  0
   -3.9109   -2.6717    1.2250 C   0  0  0  0  0  0  0  0  0  0  0  0
   -4.6009   -2.0517    1.7950 H   0  0  0  0  0  0  0  0  0  0  0  0
   -4.2309   -2.7237    0.1860 H   0  0  0  0  0  0  0  0  0  0  0  0
   -2.5229   -2.0787    1.2980 C   0  0  0  0  0  0  0  0  0  0  0  0
   -1.5999   -2.7227    1.7810 O   0  0  0  0  0  0  0  0  0  0  0  0
   -2.3659   -0.8447    0.8120 N   0  0  0  0  0  0  0  0  0  0  0  0
   -3.1749   -0.3807    0.4220 H   0  0  0  0  0  0  0  0  0  0  0  0
   -1.0919   -0.1077    0.8170 C   0  0  1  0  0  0  0  0  0  0  0  0
   -0.3571   -0.6901    0.2581 H   0  0  0  0  0  0  0  0  0  0  0  0
   -1.3037    1.2411    0.1040 C   0  0  0  0  0  0  0  0  0  0  0  0
   -0.3580    1.7853    0.1018 H   0  0  0  0  0  0  0  0  0  0  0  0
   -1.5929    1.0574   -0.9327 H   0  0  0  0  0  0  0  0  0  0  0  0
   -2.3667    2.1227    0.7772 C   0  0  0  0  0  0  0  0  0  0  0  0
   -1.8807    2.9353    1.3188 H   0  0  0  0  0  0  0  0  0  0  0  0
   -3.0205    2.5454    0.0118 H   0  0  0  0  0  0  0  0  0  0  0  0
   -3.2050    1.2933    1.7598 C   0  0  0  0  0  0  0  0  0  0  0  0
   -3.6784    0.4716    1.2171 H   0  0  0  0  0  0  0  0  0  0  0  0
   -2.5481    0.8807    2.5281 H   0  0  0  0  0  0  0  0  0  0  0  0
   -4.2827    2.1666    2.4142 C   0  0  0  0  0  0  0  0  0  0  0  0
   -3.7893    2.9870    2.9455 H   0  0  0  0  0  0  0  0  0  0  0  0
   -4.9028    2.6031    1.6254 H   0  0  0  0  0  0  0  0  0  0  0  0
   -5.1247    1.3828    3.3530 N   0  3  0  0  0  0  0  0  0  0  0  0
   -4.5578    0.9849    4.0914 H   0  0  0  0  0  0  0  0  0  0  0  0
   -5.8304    1.9729    3.7758 H   0  0  0  0  0  0  0  0  0  0  0  0
   -5.5907    0.6273    2.8642 H   0  0  0  0  0  0  0  0  0  0  0  0
   -0.5865    0.0771    2.2496 C   0  0  0  0  0  0  0  0  0  0  0  0
    0.5860   -0.1608    2.5143 O   0  0  0  0  0  0  0  0  0  0  0  0
   -1.4786    0.4656    3.1667 N   0  0  0  0  0  0  0  0  0  0  0  0
   -2.4139    0.6698    2.8558 H   0  0  0  0  0  0  0  0  0  0  0  0
   -1.1587    0.6908    4.5775 C   0  0  0  0  0  0  0  0  0  0  0  0
   -0.4270    1.4968    4.6656 H   0  0  0  0  0  0  0  0  0  0  0  0
   -2.0565    0.9649    5.1327 H   0  0  0  0  0  0  0  0  0  0  0  0
   -0.7281   -0.2137    5.0125 H   0  0  0  0  0  0  0  0  0  0  0  0
  5  6  2  0  0  0  0
  5  7  1  0  0  0  0
  2  3  1  0  0  0  0
  2  4  1  0  0  0  0
  2  5  1  0  0  0  0
  1  2  1  0  0  0  0
 27 28  2  0  0  0  0
 27 29  1  0  0  0  0
 23 24  1  0  0  0  0
 23 25  1  0  0  0  0
 23 26  1  0  0  0  0
 20 21  1  0  0  0  0
 20 22  1  0  0  0  0
 20 23  1  0  0  0  0
 17 18  1  0  0  0  0
 17 19  1  0  0  0  0
 17 20  1  0  0  0  0
 14 15  1  0  0  0  0
 14 16  1  0  0  0  0
 14 17  1  0  0  0  0
 11 12  1  0  0  0  0
 11 13  1  0  0  0  0
 11 14  1  0  0  0  0
  9 10  1  0  0  0  0
  9 11  1  0  0  0  0
  9 27  1  0  0  0  0
  7  8  1  0  0  0  0
  7  9  1  0  0  0  0
 31 32  1  0  0  0  0
 31 33  1  0  0  0  0
 31 34  1  0  0  0  0
 29 30  1  0  0  0  0
 29 31  1  0  0  0  0
M  CHG  1  23   1
M  END
$$$$
default_name
  -OEChem-02102213163D

 34 33  0     1  0  0  0  0  0999 V2000
   -3.8899   -3.6747    1.6490 H   0  0  0  0  0  0  0  0  0  0  0  0
   -3.9109   -2.6717    1.2250 C   0  0  0  0  0  0  0  0  0  0  0  0
   -4.6009   -2.0517    1.7950 H   0  0  0  0  0  0  0  0  0  0  0  0
   -4.2309   -2.7237    0.1860 H   0  0  0  0  0  0  0  0  0  0  0  0
   -2.5229   -2.0787    1.2980 C   0  0  0  0  0  0  0  0  0  0  0  0
   -1.5999   -2.7227    1.7810 O   0  0  0  0  0  0  0  0  0  0  0  0
   -2.3659   -0.8447    0.8120 N   0  0  0  0  0  0  0  0  0  0  0  0
   -3.1749   -0.3807    0.4220 H   0  0  0  0  0  0  0  0  0  0  0  0
   -1.0919   -0.1077    0.8170 C   0  0  1  0  0  0  0  0  0  0  0  0
   -0.3571   -0.6901    0.2581 H   0  0  0  0  0  0  0  0  0  0  0  0
   -1.3037    1.2411    0.1040 C   0  0  0  0  0  0  0  0  0  0  0  0
   -0.3580    1.7853    0.1018 H   0  0  0  0  0  0  0  0  0  0  0  0
   -1.5929    1.0574   -0.9327 H   0  0  0  0  0  0  0  0  0  0  0  0
   -2.3667    2.1227    0.7772 C   0  0  0  0  0  0  0  0  0  0  0  0
   -1.9176    3.0669    1.0882 H   0  0  0  0  0  0  0  0  0  0  0  0
   -3.1683    2.3268    0.0646 H   0  0  0  0  0  0  0  0  0  0  0  0
   -2.9490    1.4129    2.0073 C   0  0  0  0  0  0  0  0  0  0  0  0
   -3.3847    0.4608    1.6949 H   0  0  0  0  0  0  0  0  0  0  0  0
   -2.1453    1.2195    2.7205 H   0  0  0  0  0  0  0  0  0  0  0  0
   -4.0280    2.2814    2.6660 C   0  0  0  0  0  0  0  0  0  0  0  0
   -3.5741    3.2320    2.9644 H   0  0  0  0  0  0  0  0  0  0  0  0
   -4.8015    2.4980    1.9230 H   0  0  0  0  0  0  0  0  0  0  0  0
   -4.6258    1.6075    3.8463 N   0  3  0  0  0  0  0  0  0  0  0  0
   -3.9165    1.4139    4.5422 H   0  0  0  0  0  0  0  0  0  0  0  0
   -5.3355    2.1930    4.2690 H   0  0  0  0  0  0  0  0  0  0  0  0
   -5.0552    0.7310    3.5739 H   0  0  0  0  0  0  0  0  0  0  0  0
   -0.5865    0.0771    2.2496 C   0  0  0  0  0  0  0  0  0  0  0  0
    0.5860   -0.1608    2.5143 O   0  0  0  0  0  0  0  0  0  0  0  0
   -1.4786    0.4656    3.1667 N   0  0  0  0  0  0  0  0  0  0  0  0
   -2.4139    0.6698    2.8558 H   0  0  0  0  0  0  0  0  0  0  0  0
   -1.1587    0.6908    4.5775 C   0  0  0  0  0  0  0  0  0  0  0  0
   -0.4270    1.4968    4.6656 H   0  0  0  0  0  0  0  0  0  0  0  0
   -2.0565    0.9649    5.1327 H   0  0  0  0  0  0  0  0  0  0  0  0
   -0.7281   -0.2137    5.0125 H   0  0  0  0  0  0  0  0  0  0  0  0
  5  6  2  0  0  0  0
  5  7  1  0  0  0  0
  2  3  1  0  0  0  0
  2  4  1  0  0  0  0
  2  5  1  0  0  0  0
  1  2  1  0  0  0  0
 27 28  2  0  0  0  0
 27 29  1  0  0  0  0
 23 24  1  0  0  0  0
 23 25  1  0  0  0  0
 23 26  1  0  0  0  0
 20 21  1  0  0  0  0
 20 22  1  0  0  0  0
 20 23  1  0  0  0  0
 17 18  1  0  0  0  0
 17 19  1  0  0  0  0
 17 20  1  0  0  0  0
 14 15  1  0  0  0  0
 14 16  1  0  0  0  0
 14 17  1  0  0  0  0
 11 12  1  0  0  0  0
 11 13  1  0  0  0  0
 11 14  1  0  0  0  0
  9 10  1  0  0  0  0
  9 11  1  0  0  0  0
  9 27  1  0  0  0  0
  7  8  1  0  0  0  0
  7  9  1  0  0  0  0
 31 32  1  0  0  0  0
 31 33  1  0  0  0  0
 31 34  1  0  0  0  0
 29 30  1  0  0  0  0
 29 31  1  0  0  0  0
M  CHG  1  23   1
M  END
$$$$
default_name
  -OEChem-02102213163D

 34 33  0     1  0  0  0  0  0999 V2000
   -3.8899   -3.6747    1.6490 H   0  0  0  0  0  0  0  0  0  0  0  0
   -3.9109   -2.6717    1.2250 C   0  0  0  0  0  0  0  0  0  0  0  0
   -4.6009   -2.0517    1.7950 H   0  0  0  0  0  0  0  0  0  0  0  0
   -4.2309   -2.7237    0.1860 H   0  0  0  0  0  0  0  0  0  0  0  0
   -2.5229   -2.0787    1.2980 C   0  0  0  0  0  0  0  0  0  0  0  0
   -1.5999   -2.7227    1.7810 O   0  0  0  0  0  0  0  0  0  0  0  0
   -2.3659   -0.8447    0.8120 N   0  0  0  0  0  0  0  0  0  0  0  0
   -3.1749   -0.3807    0.4220 H   0  0  0  0  0  0  0  0  0  0  0  0
   -1.0919   -0.1077    0.8170 C   0  0  1  0  0  0  0  0  0  0  0  0
   -0.3571   -0.6901    0.2581 H   0  0  0  0  0  0  0  0  0  0  0  0
   -1.3037    1.2411    0.1040 C   0  0  0  0  0  0  0  0  0  0  0  0
   -0.3580    1.7853    0.1018 H   0  0  0  0  0  0  0  0  0  0  0  0
   -1.5929    1.0574   -0.9327 H   0  0  0  0  0  0  0  0  0  0  0  0
   -2.3667    2.1227    0.7772 C   0  0  0  0  0  0  0  0  0  0  0  0
   -2.0025    3.1485    0.8473 H   0  0  0  0  0  0  0  0  0  0  0  0
   -3.2784    2.1083    0.1768 H   0  0  0  0  0  0  0  0  0  0  0  0
   -2.6786    1.6018    2.1870 C   0  0  0  0  0  0  0  0  0  0  0  0
   -3.0288    0.5693    2.1146 H   0  0  0  0  0  0  0  0  0  0  0  0
   -1.7660    1.6269    2.7858 H   0  0  0  0  0  0  0  0  0  0  0  0
   -3.7576    2.4663    2.8509 C   0  0  0  0  0  0  0  0  0  0  0  0
   -3.3912    3.4965    2.9068 H   0  0  0  0  0  0  0  0  0  0  0  0
   -4.6475    2.4612    2.2142 H   0  0  0  0  0  0  0  0  0  0  0  0
   -4.0961    1.9696    4.2085 N   0  3  0  0  0  0  0  0  0  0  0  0
   -3.2787    1.9818    4.8056 H   0  0  0  0  0  0  0  0  0  0  0  0
   -4.8091    2.5500    4.6324 H   0  0  0  0  0  0  0  0  0  0  0  0
   -4.4443    1.0191    4.1613 H   0  0  0  0  0  0  0  0  0  0  0  0
   -0.5865    0.0771    2.2496 C   0  0  0  0  0  0  0  0  0  0  0  0
    0.5860   -0.1608    2.5143 O   0  0  0  0  0  0  0  0  0  0  0  0
   -1.4786    0.4656    3.1667 N   0  0  0  0  0  0  0  0  0  0  0  0
   -2.4139    0.6698    2.8558 H   0  0  0  0  0  0  0  0  0  0  0  0
   -1.1587    0.6908    4.5775 C   0  0  0  0  0  0  0  0  0  0  0  0
   -0.4270    1.4968    4.6656 H   0  0  0  0  0  0  0  0  0  0  0  0
   -2.0565    0.9649    5.1327 H   0  0  0  0  0  0  0  0  0  0  0  0
   -0.7281   -0.2137    5.0125 H   0  0  0  0  0  0  0  0  0  0  0  0
  5  6  2  0  0  0  0
  5  7  1  0  0  0  0
  2  3  1  0  0  0  0
  2  4  1  0  0  0  0
  2  5  1  0  0  0  0
  1  2  1  0  0  0  0
 27 28  2  0  0  0  0
 27 29  1  0  0  0  0
 23 24  1  0  0  0  0
 23 25  1  0  0  0  0
 23 26  1  0  0  0  0
 20 21  1  0  0  0  0
 20 22  1  0  0  0  0
 20 23  1  0  0  0  0
 17 18  1  0  0  0  0
 17 19  1  0  0  0  0
 17 20  1  0  0  0  0
 14 15  1  0  0  0  0
 14 16  1  0  0  0  0
 14 17  1  0  0  0  0
 11 12  1  0  0  0  0
 11 13  1  0  0  0  0
 11 14  1  0  0  0  0
  9 10  1  0  0  0  0
  9 11  1  0  0  0  0
  9 27  1  0  0  0  0
  7  8  1  0  0  0  0
  7  9  1  0  0  0  0
 31 32  1  0  0  0  0
 31 33  1  0  0  0  0
 31 34  1  0  0  0  0
 29 30  1  0  0  0  0
 29 31  1  0  0  0  0
M  CHG  1  23   1
M  END
$$$$
default_name
  -OEChem-02102213163D

 34 33  0     1  0  0  0  0  0999 V2000
   -3.8899   -3.6747    1.6490 H   0  0  0  0  0  0  0  0  0  0  0  0
   -3.9109   -2.6717    1.2250 C   0  0  0  0  0  0  0  0  0  0  0  0
   -4.6009   -2.0517    1.7950 H   0  0  0  0  0  0  0  0  0  0  0  0
   -4.2309   -2.7237    0.1860 H   0  0  0  0  0  0  0  0  0  0  0  0
   -2.5229   -2.0787    1.2980 C   0  0  0  0  0  0  0  0  0  0  0  0
   -1.5999   -2.7227    1.7810 O   0  0  0  0  0  0  0  0  0  0  0  0
   -2.3659   -0.8447    0.8120 N   0  0  0  0  0  0  0  0  0  0  0  0
   -3.1749   -0.3807    0.4220 H   0  0  0  0  0  0  0  0  0  0  0  0
   -1.0919   -0.1077    0.8170 C   0  0  1  0  0  0  0  0  0  0  0  0
   -0.3571   -0.6901    0.2581 H   0  0  0  0  0  0  0  0  0  0  0  0
   -1.3037    1.2411    0.1040 C   0  0  0  0  0  0  0  0  0  0  0  0
   -0.3580    1.7853    0.1018 H   0  0  0  0  0  0  0  0  0  0  0  0
   -1.5929    1.0574   -0.9327 H   0  0  0  0  0  0  0  0  0  0  0  0
   -2.3667    2.1227    0.7772 C   0  0  0  0  0  0  0  0  0  0  0  0
   -2.1295    3.1746    0.6126 H   0  0  0  0  0  0  0  0  0  0  0  0
   -3.3434    1.9049    0.3406 H   0  0  0  0  0  0  0  0  0  0  0  0
   -2.4121    1.8471    2.2865 C   0  0  0  0  0  0  0  0  0  0  0  0
   -2.6350    0.7897    2.4479 H   0  0  0  0  0  0  0  0  0  0  0  0
   -1.4361    2.0751    2.7196 H   0  0  0  0  0  0  0  0  0  0  0  0
   -3.4900    2.7086    2.9562 C   0  0  0  0  0  0  0  0  0  0  0  0
   -3.2530    3.7623    2.7767 H   0  0  0  0  0  0  0  0  0  0  0  0
   -4.4514    2.4953    2.4793 H   0  0  0  0  0  0  0  0  0  0  0  0
   -3.5718    2.4442    4.4149 N   0  3  0  0  0  0  0  0  0  0  0  0
   -2.6879    2.6498    4.8636 H   0  0  0  0  0  0  0  0  0  0  0  0
   -4.2872    3.0197    4.8414 H   0  0  0  0  0  0  0  0  0  0  0  0
   -3.7996    1.4718    4.5863 H   0  0  0  0  0  0  0  0  0  0  0  0
   -0.5865    0.0771    2.2496 C   0  0  0  0  0  0  0  0  0  0  0  0
    0.5860   -0.1608    2.5143 O   0  0  0  0  0  0  0  0  0  0  0  0
   -1.4786    0.4656    3.1667 N   0  0  0  0  0  0  0  0  0  0  0  0
   -2.4139    0.6698    2.8558 H   0  0  0  0  0  0  0  0  0  0  0  0
   -1.1587    0.6908    4.5775 C   0  0  0  0  0  0  0  0  0  0  0  0
   -0.4270    1.4968    4.6656 H   0  0  0  0  0  0  0  0  0  0  0  0
   -2.0565    0.9649    5.1327 H   0  0  0  0  0  0  0  0  0  0  0  0
   -0.7281   -0.2137    5.0125 H   0  0  0  0  0  0  0  0  0  0  0  0
  5  6  2  0  0  0  0
  5  7  1  0  0  0  0
  2  3  1  0  0  0  0
  2  4  1  0  0  0  0
  2  5  1  0  0  0  0
  1  2  1  0  0  0  0
 27 28  2  0  0  0  0
 27 29  1  0  0  0  0
 23 24  1  0  0  0  0
 23 25  1  0  0  0  0
 23 26  1  0  0  0  0
 20 21  1  0  0  0  0
 20 22  1  0  0  0  0
 20 23  1  0  0  0  0
 17 18  1  0  0  0  0
 17 19  1  0  0  0  0
 17 20  1  0  0  0  0
 14 15  1  0  0  0  0
 14 16  1  0  0  0  0
 14 17  1  0  0  0  0
 11 12  1  0  0  0  0
 11 13  1  0  0  0  0
 11 14  1  0  0  0  0
  9 10  1  0  0  0  0
  9 11  1  0  0  0  0
  9 27  1  0  0  0  0
  7  8  1  0  0  0  0
  7  9  1  0  0  0  0
 31 32  1  0  0  0  0
 31 33  1  0  0  0  0
 31 34  1  0  0  0  0
 29 30  1  0  0  0  0
 29 31  1  0  0  0  0
M  CHG  1  23   1
M  END
$$$$
default_name
  -OEChem-02102213163D

 34 33  0     1  0  0  0  0  0999 V2000
   -3.8899   -3.6747    1.6490 H   0  0  0  0  0  0  0  0  0  0  0  0
   -3.9109   -2.6717    1.2250 C   0  0  0  0  0  0  0  0  0  0  0  0
   -4.6009   -2.0517    1.7950 H   0  0  0  0  0  0  0  0  0  0  0  0
   -4.2309   -2.7237    0.1860 H   0  0  0  0  0  0  0  0  0  0  0  0
   -2.5229   -2.0787    1.2980 C   0  0  0  0  0  0  0  0  0  0  0  0
   -1.5999   -2.7227    1.7810 O   0  0  0  0  0  0  0  0  0  0  0  0
   -2.3659   -0.8447    0.8120 N   0  0  0  0  0  0  0  0  0  0  0  0
   -3.1749   -0.3807    0.4220 H   0  0  0  0  0  0  0  0  0  0  0  0
   -1.0919   -0.1077    0.8170 C   0  0  1  0  0  0  0  0  0  0  0  0
   -0.3571   -0.6901    0.2581 H   0  0  0  0  0  0  0  0  0  0  0  0
   -1.3037    1.2411    0.1040 C   0  0  0  0  0  0  0  0  0  0  0  0
   -0.3580    1.7853    0.1018 H   0  0  0  0  0  0  0  0  0  0  0  0
   -1.5929    1.0574   -0.9327 H   0  0  0  0  0  0  0  0  0  0  0  0
   -2.3667    2.1227    0.7772 C   0  0  0  0  0  0  0  0  0  0  0  0
   -2.2900    3.1434    0.4001 H   0  0  0  0  0  0  0  0  0  0  0  0
   -3.3587    1.7304    0.5449 H   0  0  0  0  0  0  0  0  0  0  0  0
   -2.1677    2.1320    2.2992 C   0  0  0  0  0  0  0  0  0  0  0  0
   -2.2302    1.1068    2.6718 H   0  0  0  0  0  0  0  0  0  0  0  0
   -1.1782    2.5336    2.5264 H   0  0  0  0  0  0  0  0  0  0  0  0
   -3.2433    2.9919    2.9747 C   0  0  0  0  0  0  0  0  0  0  0  0
   -3.1691    4.0115    2.5829 H   0  0  0  0  0  0  0  0  0  0  0  0
   -4.2265    2.5980    2.7000 H   0  0  0  0  0  0  0  0  0  0  0  0
   -3.0885    2.9990    4.4514 N   0  3  0  0  0  0  0  0  0  0  0  0
   -2.1844    3.3724    4.7122 H   0  0  0  0  0  0  0  0  0  0  0  0
   -3.8053    3.5700    4.8817 H   0  0  0  0  0  0  0  0  0  0  0  0
   -3.1652    2.0583    4.8200 H   0  0  0  0  0  0  0  0  0  0  0  0
   -0.5865    0.0771    2.2496 C   0  0  0  0  0  0  0  0  0  0  0  0
    0.5860   -0.1608    2.5143 O   0  0  0  0  0  0  0  0  0  0  0  0
   -1.4786    0.4656    3.1667 N   0  0  0  0  0  0  0  0  0  0  0  0
   -2.4139    0.6698    2.8558 H   0  0  0  0  0  0  0  0  0  0  0  0
   -1.1587    0.6908    4.5775 C   0  0  0  0  0  0  0  0  0  0  0  0
   -0.4270    1.4968    4.6656 H   0  0  0  0  0  0  0  0  0  0  0  0
   -2.0565    0.9649    5.1327 H   0  0  0  0  0  0  0  0  0  0  0  0
   -0.7281   -0.2137    5.0125 H   0  0  0  0  0  0  0  0  0  0  0  0
  5  6  2  0  0  0  0
  5  7  1  0  0  0  0
  2  3  1  0  0  0  0
  2  4  1  0  0  0  0
  2  5  1  0  0  0  0
  1  2  1  0  0  0  0
 27 28  2  0  0  0  0
 27 29  1  0  0  0  0
 23 24  1  0  0  0  0
 23 25  1  0  0  0  0
 23 26  1  0  0  0  0
 20 21  1  0  0  0  0
 20 22  1  0  0  0  0
 20 23  1  0  0  0  0
 17 18  1  0  0  0  0
 17 19  1  0  0  0  0
 17 20  1  0  0  0  0
 14 15  1  0  0  0  0
 14 16  1  0  0  0  0
 14 17  1  0  0  0  0
 11 12  1  0  0  0  0
 11 13  1  0  0  0  0
 11 14  1  0  0  0  0
  9 10  1  0  0  0  0
  9 11  1  0  0  0  0
  9 27  1  0  0  0  0
  7  8  1  0  0  0  0
  7  9  1  0  0  0  0
 31 32  1  0  0  0  0
 31 33  1  0  0  0  0
 31 34  1  0  0  0  0
 29 30  1  0  0  0  0
 29 31  1  0  0  0  0
M  CHG  1  23   1
M  END
$$$$
default_name
  -OEChem-02102213163D

 34 33  0     1  0  0  0  0  0999 V2000
   -3.8899   -3.6747    1.6490 H   0  0  0  0  0  0  0  0  0  0  0  0
   -3.9109   -2.6717    1.2250 C   0  0  0  0  0  0  0  0  0  0  0  0
   -4.6009   -2.0517    1.7950 H   0  0  0  0  0  0  0  0  0  0  0  0
   -4.2309   -2.7237    0.1860 H   0  0  0  0  0  0  0  0  0  0  0  0
   -2.5229   -2.0787    1.2980 C   0  0  0  0  0  0  0  0  0  0  0  0
   -1.5999   -2.7227    1.7810 O   0  0  0  0  0  0  0  0  0  0  0  0
   -2.3659   -0.8447    0.8120 N   0  0  0  0  0  0  0  0  0  0  0  0
   -3.1749   -0.3807    0.4220 H   0  0  0  0  0  0  0  0  0  0  0  0
   -1.0919   -0.1077    0.8170 C   0  0  1  0  0  0  0  0  0  0  0  0
   -0.3571   -0.6901    0.2581 H   0  0  0  0  0  0  0  0  0  0  0  0
   -1.3037    1.2411    0.1040 C   0  0  0  0  0  0  0  0  0  0  0  0
   -0.3580    1.7853    0.1018 H   0  0  0  0  0  0  0  0  0  0  0  0
   -1.5929    1.0574   -0.9327 H   0  0  0  0  0  0  0  0  0  0  0  0
   -2.3667    2.1227    0.7772 C   0  0  0  0  0  0  0  0  0  0  0  0
   -2.4730    3.0570    0.2242 H   0  0  0  0  0  0  0  0  0  0  0  0
   -3.3234    1.5967    0.7757 H   0  0  0  0  0  0  0  0  0  0  0  0
   -1.9621    2.4373    2.2241 C   0  0  0  0  0  0  0  0  0  0  0  0
   -1.8418    1.4991    2.7711 H   0  0  0  0  0  0  0  0  0  0  0  0
   -1.0097    2.9712    2.2194 H   0  0  0  0  0  0  0  0  0  0  0  0
   -3.0343    3.2968    2.9053 C   0  0  0  0  0  0  0  0  0  0  0  0
   -3.1451    4.2270    2.3386 H   0  0  0  0  0  0  0  0  0  0  0  0
   -3.9880    2.7622    2.8615 H   0  0  0  0  0  0  0  0  0  0  0  0
   -2.6792    3.5963    4.3155 N   0  3  0  0  0  0  0  0  0  0  0  0
   -1.8025    4.1004    4.3618 H   0  0  0  0  0  0  0  0  0  0  0  0
   -3.3963    4.1634    4.7504 H   0  0  0  0  0  0  0  0  0  0  0  0
   -2.5841    2.7386    4.8466 H   0  0  0  0  0  0  0  0  0  0  0  0
   -0.5865    0.0771    2.2496 C   0  0  0  0  0  0  0  0  0  0  0  0
    0.5860   -0.1608    2.5143 O   0  0  0  0  0  0  0  0  0  0  0  0
   -1.4786    0.4656    3.1667 N   0  0  0  0  0  0  0  0  0  0  0  0
   -2.4139    0.6698    2.8558 H   0  0  0  0  0  0  0  0  0  0  0  0
   -1.1587    0.6908    4.5775 C   0  0  0  0  0  0  0  0  0  0  0  0
   -0.4270    1.4968    4.6656 H   0  0  0  0  0  0  0  0  0  0  0  0
   -2.0565    0.9649    5.1327 H   0  0  0  0  0  0  0  0  0  0  0  0
   -0.7281   -0.2137    5.0125 H   0  0  0  0  0  0  0  0  0  0  0  0
  5  6  2  0  0  0  0
  5  7  1  0  0  0  0
  2  3  1  0  0  0  0
  2  4  1  0  0  0  0
  2  5  1  0  0  0  0
  1  2  1  0  0  0  0
 27 28  2  0  0  0  0
 27 29  1  0  0  0  0
 23 24  1  0  0  0  0
 23 25  1  0  0  0  0
 23 26  1  0  0  0  0
 20 21  1  0  0  0  0
 20 22  1  0  0  0  0
 20 23  1  0  0  0  0
 17 18  1  0  0  0  0
 17 19  1  0  0  0  0
 17 20  1  0  0  0  0
 14 15  1  0  0  0  0
 14 16  1  0  0  0  0
 14 17  1  0  0  0  0
 11 12  1  0  0  0  0
 11 13  1  0  0  0  0
 11 14  1  0  0  0  0
  9 10  1  0  0  0  0
  9 11  1  0  0  0  0
  9 27  1  0  0  0  0
  7  8  1  0  0  0  0
  7  9  1  0  0  0  0
 31 32  1  0  0  0  0
 31 33  1  0  0  0  0
 31 34  1  0  0  0  0
 29 30  1  0  0  0  0
 29 31  1  0  0  0  0
M  CHG  1  23   1
M  END
$$$$
default_name
  -OEChem-02102213163D

 34 33  0     1  0  0  0  0  0999 V2000
   -3.8899   -3.6747    1.6490 H   0  0  0  0  0  0  0  0  0  0  0  0
   -3.9109   -2.6717    1.2250 C   0  0  0  0  0  0  0  0  0  0  0  0
   -4.6009   -2.0517    1.7950 H   0  0  0  0  0  0  0  0  0  0  0  0
   -4.2309   -2.7237    0.1860 H   0  0  0  0  0  0  0  0  0  0  0  0
   -2.5229   -2.0787    1.2980 C   0  0  0  0  0  0  0  0  0  0  0  0
   -1.5999   -2.7227    1.7810 O   0  0  0  0  0  0  0  0  0  0  0  0
   -2.3659   -0.8447    0.8120 N   0  0  0  0  0  0  0  0  0  0  0  0
   -3.1749   -0.3807    0.4220 H   0  0  0  0  0  0  0  0  0  0  0  0
   -1.0919   -0.1077    0.8170 C   0  0  1  0  0  0  0  0  0  0  0  0
   -0.3571   -0.6901    0.2581 H   0  0  0  0  0  0  0  0  0  0  0  0
   -1.3037    1.2411    0.1040 C   0  0  0  0  0  0  0  0  0  0  0  0
   -0.3580    1.7853    0.1018 H   0  0  0  0  0  0  0  0  0  0  0  0
   -1.5929    1.0574   -0.9327 H   0  0  0  0  0  0  0  0  0  0  0  0
   -2.3667    2.1227    0.7772 C   0  0  0  0  0  0  0  0  0  0  0  0
   -2.6662    2.9212    0.0971 H   0  0  0  0  0  0  0  0  0  0  0  0
   -3.2398    1.5129    1.0174 H   0  0  0  0  0  0  0  0  0  0  0  0
   -1.8093    2.7420    2.0663 C   0  0  0  0  0  0  0  0  0  0  0  0
   -1.4965    1.9400    2.7392 H   0  0  0  0  0  0  0  0  0  0  0  0
   -0.9422    3.3579    1.8195 H   0  0  0  0  0  0  0  0  0  0  0  0
   -2.8774    3.6026    2.7526 C   0  0  0  0  0  0  0  0  0  0  0  0
   -3.1826    4.3942    2.0605 H   0  0  0  0  0  0  0  0  0  0  0  0
   -3.7524    2.9767    2.9526 H   0  0  0  0  0  0  0  0  0  0  0  0
   -2.3717    4.1954    4.0164 N   0  3  0  0  0  0  0  0  0  0  0  0
   -1.5682    4.7842    3.8363 H   0  0  0  0  0  0  0  0  0  0  0  0
   -3.0879    4.7595    4.4566 H   0  0  0  0  0  0  0  0  0  0  0  0
   -2.0961    3.4664    4.6640 H   0  0  0  0  0  0  0  0  0  0  0  0
   -0.5865    0.0771    2.2496 C   0  0  0  0  0  0  0  0  0  0  0  0
    0.5860   -0.1608    2.5143 O   0  0  0  0  0  0  0  0  0  0  0  0
   -1.4786    0.4656    3.1667 N   0  0  0  0  0  0  0  0  0  0  0  0
   -2.4139    0.6698    2.8558 H   0  0  0  0  0  0  0  0  0  0  0  0
   -1.1587    0.6908    4.5775 C   0  0  0  0  0  0  0  0  0  0  0  0
   -0.4270    1.4968    4.6656 H   0  0  0  0  0  0  0  0  0  0  0  0
   -2.0565    0.9649    5.1327 H   0  0  0  0  0  0  0  0  0  0  0  0
   -0.7281   -0.2137    5.0125 H   0  0  0  0  0  0  0  0  0  0  0  0
  5  6  2  0  0  0  0
  5  7  1  0  0  0  0
  2  3  1  0  0  0  0
  2  4  1  0  0  0  0
  2  5  1  0  0  0  0
  1  2  1  0  0  0  0
 27 28  2  0  0  0  0
 27 29  1  0  0  0  0
 23 24  1  0  0  0  0
 23 25  1  0  0  0  0
 23 26  1  0  0  0  0
 20 21  1  0  0  0  0
 20 22  1  0  0  0  0
 20 23  1  0  0  0  0
 17 18  1  0  0  0  0
 17 19  1  0  0  0  0
 17 20  1  0  0  0  0
 14 15  1  0  0  0  0
 14 16  1  0  0  0  0
 14 17  1  0  0  0  0
 11 12  1  0  0  0  0
 11 13  1  0  0  0  0
 11 14  1  0  0  0  0
  9 10  1  0  0  0  0
  9 11  1  0  0  0  0
  9 27  1  0  0  0  0
  7  8  1  0  0  0  0
  7  9  1  0  0  0  0
 31 32  1  0  0  0  0
 31 33  1  0  0  0  0
 31 34  1  0  0  0  0
 29 30  1  0  0  0  0
 29 31  1  0  0  0  0
M  CHG  1  23   1
M  END
$$$$
default_name
  -OEChem-02102213163D

 34 33  0     1  0  0  0  0  0999 V2000
   -3.8899   -3.6747    1.6490 H   0  0  0  0  0  0  0  0  0  0  0  0
   -3.9109   -2.6717    1.2250 C   0  0  0  0  0  0  0  0  0  0  0  0
   -4.6009   -2.0517    1.7950 H   0  0  0  0  0  0  0  0  0  0  0  0
   -4.2309   -2.7237    0.1860 H   0  0  0  0  0  0  0  0  0  0  0  0
   -2.5229   -2.0787    1.2980 C   0  0  0  0  0  0  0  0  0  0  0  0
   -1.5999   -2.7227    1.7810 O   0  0  0  0  0  0  0  0  0  0  0  0
   -2.3659   -0.8447    0.8120 N   0  0  0  0  0  0  0  0  0  0  0  0
   -3.1749   -0.3807    0.4220 H   0  0  0  0  0  0  0  0  0  0  0  0
   -1.0919   -0.1077    0.8170 C   0  0  1  0  0  0  0  0  0  0  0  0
   -0.3571   -0.6901    0.2581 H   0  0  0  0  0  0  0  0  0  0  0  0
   -1.3037    1.2411    0.1040 C   0  0  0  0  0  0  0  0  0  0  0  0
   -0.3580    1.7853    0.1018 H   0  0  0  0  0  0  0  0  0  0  0  0
   -1.5929    1.0574   -0.9327 H   0  0  0  0  0  0  0  0  0  0  0  0
   -2.3667    2.1227    0.7772 C   0  0  0  0  0  0  0  0  0  0  0  0
   -2.8562    2.7455    0.0272 H   0  0  0  0  0  0  0  0  0  0  0  0
   -3.1137    1.4847    1.2535 H   0  0  0  0  0  0  0  0  0  0  0  0
   -1.7196    3.0254    1.8367 C   0  0  0  0  0  0  0  0  0  0  0  0
   -1.2176    2.3992    2.5781 H   0  0  0  0  0  0  0  0  0  0  0  0
   -0.9803    3.6676    1.3539 H   0  0  0  0  0  0  0  0  0  0  0  0
   -2.7832    3.8884    2.5270 C   0  0  0  0  0  0  0  0  0  0  0  0
   -3.2791    4.5016    1.7675 H   0  0  0  0  0  0  0  0  0  0  0  0
   -3.5355    3.2270    2.9672 H   0  0  0  0  0  0  0  0  0  0  0  0
   -2.1871    4.7553    3.5746 N   0  3  0  0  0  0  0  0  0  0  0  0
   -1.4975    5.3771    3.1715 H   0  0  0  0  0  0  0  0  0  0  0  0
   -2.9014    5.3176    4.0203 H   0  0  0  0  0  0  0  0  0  0  0  0
   -1.7343    4.1920    4.2849 H   0  0  0  0  0  0  0  0  0  0  0  0
   -0.5865    0.0771    2.2496 C   0  0  0  0  0  0  0  0  0  0  0  0
    0.5860   -0.1608    2.5143 O   0  0  0  0  0  0  0  0  0  0  0  0
   -1.4786    0.4656    3.1667 N   0  0  0  0  0  0  0  0  0  0  0  0
   -2.4139    0.6698    2.8558 H   0  0  0  0  0  0  0  0  0  0  0  0
   -1.1587    0.6908    4.5775 C   0  0  0  0  0  0  0  0  0  0  0  0
   -0.4270    1.4968    4.6656 H   0  0  0  0  0  0  0  0  0  0  0  0
   -2.0565    0.9649    5.1327 H   0  0  0  0  0  0  0  0  0  0  0  0
   -0.7281   -0.2137    5.0125 H   0  0  0  0  0  0  0  0  0  0  0  0
  5  6  2  0  0  0  0
  5  7  1  0  0  0  0
  2  3  1  0  0  0  0
  2  4  1  0  0  0  0
  2  5  1  0  0  0  0
  1  2  1  0  0  0  0
 27 28  2  0  0  0  0
 27 29  1  0  0  0  0
 23 24  1  0  0  0  0
 23 25  1  0  0  0  0
 23 26  1  0  0  0  0
 20 21  1  0  0  0  0
 20 22  1  0  0  0  0
 20 23  1  0  0  0  0
 17 18  1  0  0  0  0
 17 19  1  0  0  0  0
 17 20  1  0  0  0  0
 14 15  1  0  0  0  0
 14 16  1  0  0  0  0
 14 17  1  0  0  0  0
 11 12  1  0  0  0  0
 11 13  1  0  0  0  0
 11 14  1  0  0  0  0
  9 10  1  0  0  0  0
  9 11  1  0  0  0  0
  9 27  1  0  0  0  0
  7  8  1  0  0  0  0
  7  9  1  0  0  0  0
 31 32  1  0  0  0  0
 31 33  1  0  0  0  0
 31 34  1  0  0  0  0
 29 30  1  0  0  0  0
 29 31  1  0  0  0  0
M  CHG  1  23   1
M  END
$$$$
default_name
  -OEChem-02102213163D

 34 33  0     1  0  0  0  0  0999 V2000
   -3.8899   -3.6747    1.6490 H   0  0  0  0  0  0  0  0  0  0  0  0
   -3.9109   -2.6717    1.2250 C   0  0  0  0  0  0  0  0  0  0  0  0
   -4.6009   -2.0517    1.7950 H   0  0  0  0  0  0  0  0  0  0  0  0
   -4.2309   -2.7237    0.1860 H   0  0  0  0  0  0  0  0  0  0  0  0
   -2.5229   -2.0787    1.2980 C   0  0  0  0  0  0  0  0  0  0  0  0
   -1.5999   -2.7227    1.7810 O   0  0  0  0  0  0  0  0  0  0  0  0
   -2.3659   -0.8447    0.8120 N   0  0  0  0  0  0  0  0  0  0  0  0
   -3.1749   -0.3807    0.4220 H   0  0  0  0  0  0  0  0  0  0  0  0
   -1.0919   -0.1077    0.8170 C   0  0  1  0  0  0  0  0  0  0  0  0
   -0.3571   -0.6901    0.2581 H   0  0  0  0  0  0  0  0  0  0  0  0
   -1.3037    1.2411    0.1040 C   0  0  0  0  0  0  0  0  0  0  0  0
   -0.3580    1.7853    0.1018 H   0  0  0  0  0  0  0  0  0  0  0  0
   -1.5929    1.0574   -0.9327 H   0  0  0  0  0  0  0  0  0  0  0  0
   -2.3667    2.1227    0.7772 C   0  0  0  0  0  0  0  0  0  0  0  0
   -3.0302    2.5416    0.0194 H   0  0  0  0  0  0  0  0  0  0  0  0
   -2.9537    1.5141    1.4678 H   0  0  0  0  0  0  0  0  0  0  0  0
   -1.6993    3.2682    1.5508 C   0  0  0  0  0  0  0  0  0  0  0  0
   -1.0242    2.8456    2.2988 H   0  0  0  0  0  0  0  0  0  0  0  0
   -1.1213    3.8789    0.8544 H   0  0  0  0  0  0  0  0  0  0  0  0
   -2.7582    4.1348    2.2439 C   0  0  0  0  0  0  0  0  0  0  0  0
   -3.4280    4.5419    1.4795 H   0  0  0  0  0  0  0  0  0  0  0  0
   -3.3523    3.4959    2.9043 H   0  0  0  0  0  0  0  0  0  0  0  0
   -2.1379    5.2380    3.0202 N   0  3  0  0  0  0  0  0  0  0  0  0
   -1.5951    5.8388    2.4126 H   0  0  0  0  0  0  0  0  0  0  0  0
   -2.8492    5.7997    3.4712 H   0  0  0  0  0  0  0  0  0  0  0  0
   -1.5235    4.8661    3.7351 H   0  0  0  0  0  0  0  0  0  0  0  0
   -0.5865    0.0771    2.2496 C   0  0  0  0  0  0  0  0  0  0  0  0
    0.5860   -0.1608    2.5143 O   0  0  0  0  0  0  0  0  0  0  0  0
   -1.4786    0.4656    3.1667 N   0  0  0  0  0  0  0  0  0  0  0  0
   -2.4139    0.6698    2.8558 H   0  0  0  0  0  0  0  0  0  0  0  0
   -1.1587    0.6908    4.5775 C   0  0  0  0  0  0  0  0  0  0  0  0
   -0.4270    1.4968    4.6656 H   0  0  0  0  0  0  0  0  0  0  0  0
   -2.0565    0.9649    5.1327 H   0  0  0  0  0  0  0  0  0  0  0  0
   -0.7281   -0.2137    5.0125 H   0  0  0  0  0  0  0  0  0  0  0  0
  5  6  2  0  0  0  0
  5  7  1  0  0  0  0
  2  3  1  0  0  0  0
  2  4  1  0  0  0  0
  2  5  1  0  0  0  0
  1  2  1  0  0  0  0
 27 28  2  0  0  0  0
 27 29  1  0  0  0  0
 23 24  1  0  0  0  0
 23 25  1  0  0  0  0
 23 26  1  0  0  0  0
 20 21  1  0  0  0  0
 20 22  1  0  0  0  0
 20 23  1  0  0  0  0
 17 18  1  0  0  0  0
 17 19  1  0  0  0  0
 17 20  1  0  0  0  0
 14 15  1  0  0  0  0
 14 16  1  0  0  0  0
 14 17  1  0  0  0  0
 11 12  1  0  0  0  0
 11 13  1  0  0  0  0
 11 14  1  0  0  0  0
  9 10  1  0  0  0  0
  9 11  1  0  0  0  0
  9 27  1  0  0  0  0
  7  8  1  0  0  0  0
  7  9  1  0  0  0  0
 31 32  1  0  0  0  0
 31 33  1  0  0  0  0
 31 34  1  0  0  0  0
 29 30  1  0  0  0  0
 29 31  1  0  0  0  0
M  CHG  1  23   1
M  END
$$$$
default_name
  -OEChem-02102213163D

 34 33  0     1  0  0  0  0  0999 V2000
   -3.8899   -3.6747    1.6490 H   0  0  0  0  0  0  0  0  0  0  0  0
   -3.9109   -2.6717    1.2250 C   0  0  0  0  0  0  0  0  0  0  0  0
   -4.6009   -2.0517    1.7950 H   0  0  0  0  0  0  0  0  0  0  0  0
   -4.2309   -2.7237    0.1860 H   0  0  0  0  0  0  0  0  0  0  0  0
   -2.5229   -2.0787    1.2980 C   0  0  0  0  0  0  0  0  0  0  0  0
   -1.5999   -2.7227    1.7810 O   0  0  0  0  0  0  0  0  0  0  0  0
   -2.3659   -0.8447    0.8120 N   0  0  0  0  0  0  0  0  0  0  0  0
   -3.1749   -0.3807    0.4220 H   0  0  0  0  0  0  0  0  0  0  0  0
   -1.0919   -0.1077    0.8170 C   0  0  1  0  0  0  0  0  0  0  0  0
   -0.3571   -0.6901    0.2581 H   0  0  0  0  0  0  0  0  0  0  0  0
   -1.3037    1.2411    0.1040 C   0  0  0  0  0  0  0  0  0  0  0  0
   -0.3580    1.7853    0.1018 H   0  0  0  0  0  0  0  0  0  0  0  0
   -1.5929    1.0574   -0.9327 H   0  0  0  0  0  0  0  0  0  0  0  0
   -2.3667    2.1227    0.7772 C   0  0  0  0  0  0  0  0  0  0  0  0
   -3.1763    2.3236    0.0743 H   0  0  0  0  0  0  0  0  0  0  0  0
   -2.7705    1.5989    1.6458 H   0  0  0  0  0  0  0  0  0  0  0  0
   -1.7497    3.4538    1.2282 C   0  0  0  0  0  0  0  0  0  0  0  0
   -0.9296    3.2487    1.9204 H   0  0  0  0  0  0  0  0  0  0  0  0
   -1.3557    3.9777    0.3550 H   0  0  0  0  0  0  0  0  0  0  0  0
   -2.8039    4.3249    1.9227 C   0  0  0  0  0  0  0  0  0  0  0  0
   -3.6192    4.5124    1.2163 H   0  0  0  0  0  0  0  0  0  0  0  0
   -3.2151    3.7652    2.7682 H   0  0  0  0  0  0  0  0  0  0  0  0
   -2.2274    5.6105    2.3909 N   0  3  0  0  0  0  0  0  0  0  0  0
   -1.8546    6.1378    1.6114 H   0  0  0  0  0  0  0  0  0  0  0  0
   -2.9351    6.1730    2.8468 H   0  0  0  0  0  0  0  0  0  0  0  0
   -1.4779    5.4426    3.0519 H   0  0  0  0  0  0  0  0  0  0  0  0
   -0.5865    0.0771    2.2496 C   0  0  0  0  0  0  0  0  0  0  0  0
    0.5860   -0.1608    2.5143 O   0  0  0  0  0  0  0  0  0  0  0  0
   -1.4786    0.4656    3.1667 N   0  0  0  0  0  0  0  0  0  0  0  0
   -2.4139    0.6698    2.8558 H   0  0  0  0  0  0  0  0  0  0  0  0
   -1.1587    0.6908    4.5775 C   0  0  0  0  0  0  0  0  0  0  0  0
   -0.4270    1.4968    4.6656 H   0  0  0  0  0  0  0  0  0  0  0  0
   -2.0565    0.9649    5.1327 H   0  0  0  0  0  0  0  0  0  0  0  0
   -0.7281   -0.2137    5.0125 H   0  0  0  0  0  0  0  0  0  0  0  0
  5  6  2  0  0  0  0
  5  7  1  0  0  0  0
  2  3  1  0  0  0  0
  2  4  1  0  0  0  0
  2  5  1  0  0  0  0
  1  2  1  0  0  0  0
 27 28  2  0  0  0  0
 27 29  1  0  0  0  0
 23 24  1  0  0  0  0
 23 25  1  0  0  0  0
 23 26  1  0  0  0  0
 20 21  1  0  0  0  0
 20 22  1  0  0  0  0
 20 23  1  0  0  0  0
 17 18  1  0  0  0  0
 17 19  1  0  0  0  0
 17 20  1  0  0  0  0
 14 15  1  0  0  0  0
 14 16  1  0  0  0  0
 14 17  1  0  0  0  0
 11 12  1  0  0  0  0
 11 13  1  0  0  0  0
 11 14  1  0  0  0  0
  9 10  1  0  0  0  0
  9 11  1  0  0  0  0
  9 27  1  0  0  0  0
  7  8  1  0  0  0  0
  7  9  1  0  0  0  0
 31 32  1  0  0  0  0
 31 33  1  0  0  0  0
 31 34  1  0  0  0  0
 29 30  1  0  0  0  0
 29 31  1  0  0  0  0
M  CHG  1  23   1
M  END
$$$$
default_name
  -OEChem-02102213163D

 34 33  0     1  0  0  0  0  0999 V2000
   -3.8899   -3.6747    1.6490 H   0  0  0  0  0  0  0  0  0  0  0  0
   -3.9109   -2.6717    1.2250 C   0  0  0  0  0  0  0  0  0  0  0  0
   -4.6009   -2.0517    1.7950 H   0  0  0  0  0  0  0  0  0  0  0  0
   -4.2309   -2.7237    0.1860 H   0  0  0  0  0  0  0  0  0  0  0  0
   -2.5229   -2.0787    1.2980 C   0  0  0  0  0  0  0  0  0  0  0  0
   -1.5999   -2.7227    1.7810 O   0  0  0  0  0  0  0  0  0  0  0  0
   -2.3659   -0.8447    0.8120 N   0  0  0  0  0  0  0  0  0  0  0  0
   -3.1749   -0.3807    0.4220 H   0  0  0  0  0  0  0  0  0  0  0  0
   -1.0919   -0.1077    0.8170 C   0  0  1  0  0  0  0  0  0  0  0  0
   -0.3571   -0.6901    0.2581 H   0  0  0  0  0  0  0  0  0  0  0  0
   -1.3037    1.2411    0.1040 C   0  0  0  0  0  0  0  0  0  0  0  0
   -0.3580    1.7853    0.1018 H   0  0  0  0  0  0  0  0  0  0  0  0
   -1.5929    1.0574   -0.9327 H   0  0  0  0  0  0  0  0  0  0  0  0
   -2.3667    2.1227    0.7772 C   0  0  0  0  0  0  0  0  0  0  0  0
   -3.2846    2.1062    0.1880 H   0  0  0  0  0  0  0  0  0  0  0  0
   -2.5768    1.7336    1.7753 H   0  0  0  0  0  0  0  0  0  0  0  0
   -1.8673    3.5697    0.8908 C   0  0  0  0  0  0  0  0  0  0  0  0
   -0.9400    3.5810    1.4687 H   0  0  0  0  0  0  0  0  0  0  0  0
   -1.6675    3.9570   -0.1103 H   0  0  0  0  0  0  0  0  0  0  0  0
   -2.9174    4.4458    1.5851 C   0  0  0  0  0  0  0  0  0  0  0  0
   -3.8396    4.4151    0.9957 H   0  0  0  0  0  0  0  0  0  0  0  0
   -3.1334    4.0166    2.5681 H   0  0  0  0  0  0  0  0  0  0  0  0
   -2.4496    5.8475    1.7297 N   0  3  0  0  0  0  0  0  0  0  0  0
   -2.2581    6.2538    0.8224 H   0  0  0  0  0  0  0  0  0  0  0  0
   -3.1532    6.4120    2.1895 H   0  0  0  0  0  0  0  0  0  0  0  0
   -1.6008    5.8823    2.2821 H   0  0  0  0  0  0  0  0  0  0  0  0
   -0.5865    0.0771    2.2496 C   0  0  0  0  0  0  0  0  0  0  0  0
    0.5860   -0.1608    2.5143 O   0  0  0  0  0  0  0  0  0  0  0  0
   -1.4786    0.4656    3.1667 N   0  0  0  0  0  0  0  0  0  0  0  0
   -2.4139    0.6698    2.8558 H   0  0  0  0  0  0  0  0  0  0  0  0
   -1.1587    0.6908    4.5775 C   0  0  0  0  0  0  0  0  0  0  0  0
   -0.4270    1.4968    4.6656 H   0  0  0  0  0  0  0  0  0  0  0  0
   -2.0565    0.9649    5.1327 H   0  0  0  0  0  0  0  0  0  0  0  0
   -0.7281   -0.2137    5.0125 H   0  0  0  0  0  0  0  0  0  0  0  0
  5  6  2  0  0  0  0
  5  7  1  0  0  0  0
  2  3  1  0  0  0  0
  2  4  1  0  0  0  0
  2  5  1  0  0  0  0
  1  2  1  0  0  0  0
 27 28  2  0  0  0  0
 27 29  1  0  0  0  0
 23 24  1  0  0  0  0
 23 25  1  0  0  0  0
 23 26  1  0  0  0  0
 20 21  1  0  0  0  0
 20 22  1  0  0  0  0
 20 23  1  0  0  0  0
 17 18  1  0  0  0  0
 17 19  1  0  0  0  0
 17 20  1  0  0  0  0
 14 15  1  0  0  0  0
 14 16  1  0  0  0  0
 14 17  1  0  0  0  0
 11 12  1  0  0  0  0
 11 13  1  0  0  0  0
 11 14  1  0  0  0  0
  9 10  1  0  0  0  0
  9 11  1  0  0  0  0
  9 27  1  0  0  0  0
  7  8  1  0  0  0  0
  7  9  1  0  0  0  0
 31 32  1  0  0  0  0
 31 33  1  0  0  0  0
 31 34  1  0  0  0  0
 29 30  1  0  0  0  0
 29 31  1  0  0  0  0
M  CHG  1  23   1
M  END
$$$$
default_name
  -OEChem-02102213163D

 34 33  0     1  0  0  0  0  0999 V2000
   -3.8899   -3.6747    1.6490 H   0  0  0  0  0  0  0  0  0  0  0  0
   -3.9109   -2.6717    1.2250 C   0  0  0  0  0  0  0  0  0  0  0  0
   -4.6009   -2.0517    1.7950 H   0  0  0  0  0  0  0  0  0  0  0  0
   -4.2309   -2.7237    0.1860 H   0  0  0  0  0  0  0  0  0  0  0  0
   -2.5229   -2.0787    1.2980 C   0  0  0  0  0  0  0  0  0  0  0  0
   -1.5999   -2.7227    1.7810 O   0  0  0  0  0  0  0  0  0  0  0  0
   -2.3659   -0.8447    0.8120 N   0  0  0  0  0  0  0  0  0  0  0  0
   -3.1749   -0.3807    0.4220 H   0  0  0  0  0  0  0  0  0  0  0  0
   -1.0919   -0.1077    0.8170 C   0  0  1  0  0  0  0  0  0  0  0  0
   -0.3571   -0.6901    0.2581 H   0  0  0  0  0  0  0  0  0  0  0  0
   -1.3037    1.2411    0.1040 C   0  0  0  0  0  0  0  0  0  0  0  0
   -0.3580    1.7853    0.1018 H   0  0  0  0  0  0  0  0  0  0  0  0
   -1.5929    1.0574   -0.9327 H   0  0  0  0  0  0  0  0  0  0  0  0
   -2.3667    2.1227    0.7772 C   0  0  0  0  0  0  0  0  0  0  0  0
   -3.3476    1.9044    0.3528 H   0  0  0  0  0  0  0  0  0  0  0  0
   -2.3858    1.9088    1.8476 H   0  0  0  0  0  0  0  0  0  0  0  0
   -2.0441    3.6078    0.5616 C   0  0  0  0  0  0  0  0  0  0  0  0
   -1.0549    3.8199    0.9744 H   0  0  0  0  0  0  0  0  0  0  0  0
   -2.0354    3.8184   -0.5097 H   0  0  0  0  0  0  0  0  0  0  0  0
   -3.0909    4.4893    1.2542 C   0  0  0  0  0  0  0  0  0  0  0  0
   -4.0742    4.2566    0.8328 H   0  0  0  0  0  0  0  0  0  0  0  0
   -3.1127    4.2327    2.3177 H   0  0  0  0  0  0  0  0  0  0  0  0
   -2.7893    5.9329    1.0816 N   0  3  0  0  0  0  0  0  0  0  0  0
   -2.7781    6.1787    0.0996 H   0  0  0  0  0  0  0  0  0  0  0  0
   -3.4885    6.5004    1.5442 H   0  0  0  0  0  0  0  0  0  0  0  0
   -1.8837    6.1553    1.4780 H   0  0  0  0  0  0  0  0  0  0  0  0
   -0.5865    0.0771    2.2496 C   0  0  0  0  0  0  0  0  0  0  0  0
    0.5860   -0.1608    2.5143 O   0  0  0  0  0  0  0  0  0  0  0  0
   -1.4786    0.4656    3.1667 N   0  0  0  0  0  0  0  0  0  0  0  0
   -2.4139    0.6698    2.8558 H   0  0  0  0  0  0  0  0  0  0  0  0
   -1.1587    0.6908    4.5775 C   0  0  0  0  0  0  0  0  0  0  0  0
   -0.4270    1.4968    4.6656 H   0  0  0  0  0  0  0  0  0  0  0  0
   -2.0565    0.9649    5.1327 H   0  0  0  0  0  0  0  0  0  0  0  0
   -0.7281   -0.2137    5.0125 H   0  0  0  0  0  0  0  0  0  0  0  0
  5  6  2  0  0  0  0
  5  7  1  0  0  0  0
  2  3  1  0  0  0  0
  2  4  1  0  0  0  0
  2  5  1  0  0  0  0
  1  2  1  0  0  0  0
 27 28  2  0  0  0  0
 27 29  1  0  0  0  0
 23 24  1  0  0  0  0
 23 25  1  0  0  0  0
 23 26  1  0  0  0  0
 20 21  1  0  0  0  0
 20 22  1  0  0  0  0
 20 23  1  0  0  0  0
 17 18  1  0  0  0  0
 17 19  1  0  0  0  0
 17 20  1  0  0  0  0
 14 15  1  0  0  0  0
 14 16  1  0  0  0  0
 14 17  1  0  0  0  0
 11 12  1  0  0  0  0
 11 13  1  0  0  0  0
 11 14  1  0  0  0  0
  9 10  1  0  0  0  0
  9 11  1  0  0  0  0
  9 27  1  0  0  0  0
  7  8  1  0  0  0  0
  7  9  1  0  0  0  0
 31 32  1  0  0  0  0
 31 33  1  0  0  0  0
 31 34  1  0  0  0  0
 29 30  1  0  0  0  0
 29 31  1  0  0  0  0
M  CHG  1  23   1
M  END
$$$$
default_name
  -OEChem-02102213163D

 34 33  0     1  0  0  0  0  0999 V2000
   -3.8899   -3.6747    1.6490 H   0  0  0  0  0  0  0  0  0  0  0  0
   -3.9109   -2.6717    1.2250 C   0  0  0  0  0  0  0  0  0  0  0  0
   -4.6009   -2.0517    1.7950 H   0  0  0  0  0  0  0  0  0  0  0  0
   -4.2309   -2.7237    0.1860 H   0  0  0  0  0  0  0  0  0  0  0  0
   -2.5229   -2.0787    1.2980 C   0  0  0  0  0  0  0  0  0  0  0  0
   -1.5999   -2.7227    1.7810 O   0  0  0  0  0  0  0  0  0  0  0  0
   -2.3659   -0.8447    0.8120 N   0  0  0  0  0  0  0  0  0  0  0  0
   -3.1749   -0.3807    0.4220 H   0  0  0  0  0  0  0  0  0  0  0  0
   -1.0919   -0.1077    0.8170 C   0  0  1  0  0  0  0  0  0  0  0  0
   -0.3571   -0.6901    0.2581 H   0  0  0  0  0  0  0  0  0  0  0  0
   -1.3037    1.2411    0.1040 C   0  0  0  0  0  0  0  0  0  0  0  0
   -0.3580    1.7853    0.1018 H   0  0  0  0  0  0  0  0  0  0  0  0
   -1.5929    1.0574   -0.9327 H   0  0  0  0  0  0  0  0  0  0  0  0
   -2.3667    2.1227    0.7772 C   0  0  0  0  0  0  0  0  0  0  0  0
   -3.3611    1.7318    0.5575 H   0  0  0  0  0  0  0  0  0  0  0  0
   -2.2103    2.1126    1.8576 H   0  0  0  0  0  0  0  0  0  0  0  0
   -2.2682    3.5656    0.2631 C   0  0  0  0  0  0  0  0  0  0  0  0
   -1.2664    3.9491    0.4712 H   0  0  0  0  0  0  0  0  0  0  0  0
   -2.4344    3.5713   -0.8160 H   0  0  0  0  0  0  0  0  0  0  0  0
   -3.3125    4.4524    0.9526 C   0  0  0  0  0  0  0  0  0  0  0  0
   -4.3071    4.0477    0.7387 H   0  0  0  0  0  0  0  0  0  0  0  0
   -3.1544    4.3991    2.0340 H   0  0  0  0  0  0  0  0  0  0  0  0
   -3.2234    5.8607    0.4907 N   0  3  0  0  0  0  0  0  0  0  0  0
   -3.3793    5.9178   -0.5080 H   0  0  0  0  0  0  0  0  0  0  0  0
   -3.9183    6.4322    0.9549 H   0  0  0  0  0  0  0  0  0  0  0  0
   -2.3073    6.2429    0.6944 H   0  0  0  0  0  0  0  0  0  0  0  0
   -0.5865    0.0771    2.2496 C   0  0  0  0  0  0  0  0  0  0  0  0
    0.5860   -0.1608    2.5143 O   0  0  0  0  0  0  0  0  0  0  0  0
   -1.4786    0.4656    3.1667 N   0  0  0  0  0  0  0  0  0  0  0  0
   -2.4139    0.6698    2.8558 H   0  0  0  0  0  0  0  0  0  0  0  0
   -1.1587    0.6908    4.5775 C   0  0  0  0  0  0  0  0  0  0  0  0
   -0.4270    1.4968    4.6656 H   0  0  0  0  0  0  0  0  0  0  0  0
   -2.0565    0.9649    5.1327 H   0  0  0  0  0  0  0  0  0  0  0  0
   -0.7281   -0.2137    5.0125 H   0  0  0  0  0  0  0  0  0  0  0  0
  5  6  2  0  0  0  0
  5  7  1  0  0  0  0
  2  3  1  0  0  0  0
  2  4  1  0  0  0  0
  2  5  1  0  0  0  0
  1  2  1  0  0  0  0
 27 28  2  0  0  0  0
 27 29  1  0  0  0  0
 23 24  1  0  0  0  0
 23 25  1  0  0  0  0
 23 26  1  0  0  0  0
 20 21  1  0  0  0  0
 20 22  1  0  0  0  0
 20 23  1  0  0  0  0
 17 18  1  0  0  0  0
 17 19  1  0  0  0  0
 17 20  1  0  0  0  0
 14 15  1  0  0  0  0
 14 16  1  0  0  0  0
 14 17  1  0  0  0  0
 11 12  1  0  0  0  0
 11 13  1  0  0  0  0
 11 14  1  0  0  0  0
  9 10  1  0  0  0  0
  9 11  1  0  0  0  0
  9 27  1  0  0  0  0
  7  8  1  0  0  0  0
  7  9  1  0  0  0  0
 31 32  1  0  0  0  0
 31 33  1  0  0  0  0
 31 34  1  0  0  0  0
 29 30  1  0  0  0  0
 29 31  1  0  0  0  0
M  CHG  1  23   1
M  END
$$$$
default_name
  -OEChem-02102213163D

 34 33  0     1  0  0  0  0  0999 V2000
   -3.8899   -3.6747    1.6490 H   0  0  0  0  0  0  0  0  0  0  0  0
   -3.9109   -2.6717    1.2250 C   0  0  0  0  0  0  0  0  0  0  0  0
   -4.6009   -2.0517    1.7950 H   0  0  0  0  0  0  0  0  0  0  0  0
   -4.2309   -2.7237    0.1860 H   0  0  0  0  0  0  0  0  0  0  0  0
   -2.5229   -2.0787    1.2980 C   0  0  0  0  0  0  0  0  0  0  0  0
   -1.5999   -2.7227    1.7810 O   0  0  0  0  0  0  0  0  0  0  0  0
   -2.3659   -0.8447    0.8120 N   0  0  0  0  0  0  0  0  0  0  0  0
   -3.1749   -0.3807    0.4220 H   0  0  0  0  0  0  0  0  0  0  0  0
   -1.0919   -0.1077    0.8170 C   0  0  1  0  0  0  0  0  0  0  0  0
   -0.3571   -0.6901    0.2581 H   0  0  0  0  0  0  0  0  0  0  0  0
   -1.3037    1.2411    0.1040 C   0  0  0  0  0  0  0  0  0  0  0  0
   -0.3272    1.6638   -0.1373 H   0  0  0  0  0  0  0  0  0  0  0  0
   -1.8417    1.0721   -0.8309 H   0  0  0  0  0  0  0  0  0  0  0  0
   -2.0751    2.2621    0.9542 C   0  0  0  0  0  0  0  0  0  0  0  0
   -3.0585    1.8626    1.2057 H   0  0  0  0  0  0  0  0  0  0  0  0
   -1.5219    2.4536    1.8757 H   0  0  0  0  0  0  0  0  0  0  0  0
   -2.2484    3.5778    0.1829 C   0  0  0  0  0  0  0  0  0  0  0  0
   -1.2623    3.9676   -0.0804 H   0  0  0  0  0  0  0  0  0  0  0  0
   -2.8101    3.3825   -0.7327 H   0  0  0  0  0  0  0  0  0  0  0  0
   -2.9967    4.6065    1.0399 C   0  0  0  0  0  0  0  0  0  0  0  0
   -3.9774    4.1945    1.2993 H   0  0  0  0  0  0  0  0  0  0  0  0
   -2.4394    4.7557    1.9697 H   0  0  0  0  0  0  0  0  0  0  0  0
   -3.1574    5.8984    0.3260 N   0  3  0  0  0  0  0  0  0  0  0  0
   -3.6816    5.7685   -0.5303 H   0  0  0  0  0  0  0  0  0  0  0  0
   -3.6522    6.5657    0.9045 H   0  0  0  0  0  0  0  0  0  0  0  0
   -2.2519    6.2883    0.0914 H   0  0  0  0  0  0  0  0  0  0  0  0
   -0.5865    0.0771    2.2496 C   0  0  0  0  0  0  0  0  0  0  0  0
    0.5860   -0.1608    2.5143 O   0  0  0  0  0  0  0  0  0  0  0  0
   -1.4786    0.4656    3.1667 N   0  0  0  0  0  0  0  0  0  0  0  0
   -2.4139    0.6698    2.8558 H   0  0  0  0  0  0  0  0  0  0  0  0
   -1.1587    0.6908    4.5775 C   0  0  0  0  0  0  0  0  0  0  0  0
   -0.4270    1.4968    4.6656 H   0  0  0  0  0  0  0  0  0  0  0  0
   -2.0565    0.9649    5.1327 H   0  0  0  0  0  0  0  0  0  0  0  0
   -0.7281   -0.2137    5.0125 H   0  0  0  0  0  0  0  0  0  0  0  0
  5  6  2  0  0  0  0
  5  7  1  0  0  0  0
  2  3  1  0  0  0  0
  2  4  1  0  0  0  0
  2  5  1  0  0  0  0
  1  2  1  0  0  0  0
 27 28  2  0  0  0  0
 27 29  1  0  0  0  0
 23 24  1  0  0  0  0
 23 25  1  0  0  0  0
 23 26  1  0  0  0  0
 20 21  1  0  0  0  0
 20 22  1  0  0  0  0
 20 23  1  0  0  0  0
 17 18  1  0  0  0  0
 17 19  1  0  0  0  0
 17 20  1  0  0  0  0
 14 15  1  0  0  0  0
 14 16  1  0  0  0  0
 14 17  1  0  0  0  0
 11 12  1  0  0  0  0
 11 13  1  0  0  0  0
 11 14  1  0  0  0  0
  9 10  1  0  0  0  0
  9 11  1  0  0  0  0
  9 27  1  0  0  0  0
  7  8  1  0  0  0  0
  7  9  1  0  0  0  0
 31 32  1  0  0  0  0
 31 33  1  0  0  0  0
 31 34  1  0  0  0  0
 29 30  1  0  0  0  0
 29 31  1  0  0  0  0
M  CHG  1  23   1
M  END
$$$$
default_name
  -OEChem-02102213163D

 34 33  0     1  0  0  0  0  0999 V2000
   -3.8899   -3.6747    1.6490 H   0  0  0  0  0  0  0  0  0  0  0  0
   -3.9109   -2.6717    1.2250 C   0  0  0  0  0  0  0  0  0  0  0  0
   -4.6009   -2.0517    1.7950 H   0  0  0  0  0  0  0  0  0  0  0  0
   -4.2309   -2.7237    0.1860 H   0  0  0  0  0  0  0  0  0  0  0  0
   -2.5229   -2.0787    1.2980 C   0  0  0  0  0  0  0  0  0  0  0  0
   -1.5999   -2.7227    1.7810 O   0  0  0  0  0  0  0  0  0  0  0  0
   -2.3659   -0.8447    0.8120 N   0  0  0  0  0  0  0  0  0  0  0  0
   -3.1749   -0.3807    0.4220 H   0  0  0  0  0  0  0  0  0  0  0  0
   -1.0919   -0.1077    0.8170 C   0  0  1  0  0  0  0  0  0  0  0  0
   -0.3571   -0.6901    0.2581 H   0  0  0  0  0  0  0  0  0  0  0  0
   -1.3037    1.2411    0.1040 C   0  0  0  0  0  0  0  0  0  0  0  0
   -0.3272    1.6638   -0.1373 H   0  0  0  0  0  0  0  0  0  0  0  0
   -1.8417    1.0721   -0.8309 H   0  0  0  0  0  0  0  0  0  0  0  0
   -2.0751    2.2621    0.9542 C   0  0  0  0  0  0  0  0  0  0  0  0
   -2.9308    1.7763    1.4251 H   0  0  0  0  0  0  0  0  0  0  0  0
   -1.4158    2.6542    1.7310 H   0  0  0  0  0  0  0  0  0  0  0  0
   -2.5728    3.4200    0.0781 C   0  0  0  0  0  0  0  0  0  0  0  0
   -1.7148    3.8950   -0.4037 H   0  0  0  0  0  0  0  0  0  0  0  0
   -3.2388    3.0239   -0.6910 H   0  0  0  0  0  0  0  0  0  0  0  0
   -3.3217    4.4526    0.9299 C   0  0  0  0  0  0  0  0  0  0  0  0
   -4.1716    3.9561    1.4094 H   0  0  0  0  0  0  0  0  0  0  0  0
   -2.6506    4.8049    1.7190 H   0  0  0  0  0  0  0  0  0  0  0  0
   -3.7941    5.5970    0.1102 N   0  3  0  0  0  0  0  0  0  0  0  0
   -4.4240    5.2784   -0.6154 H   0  0  0  0  0  0  0  0  0  0  0  0
   -4.2855    6.2688    0.6866 H   0  0  0  0  0  0  0  0  0  0  0  0
   -3.0101    6.0654   -0.3289 H   0  0  0  0  0  0  0  0  0  0  0  0
   -0.5865    0.0771    2.2496 C   0  0  0  0  0  0  0  0  0  0  0  0
    0.5860   -0.1608    2.5143 O   0  0  0  0  0  0  0  0  0  0  0  0
   -1.4786    0.4656    3.1667 N   0  0  0  0  0  0  0  0  0  0  0  0
   -2.4139    0.6698    2.8558 H   0  0  0  0  0  0  0  0  0  0  0  0
   -1.1587    0.6908    4.5775 C   0  0  0  0  0  0  0  0  0  0  0  0
   -0.4270    1.4968    4.6656 H   0  0  0  0  0  0  0  0  0  0  0  0
   -2.0565    0.9649    5.1327 H   0  0  0  0  0  0  0  0  0  0  0  0
   -0.7281   -0.2137    5.0125 H   0  0  0  0  0  0  0  0  0  0  0  0
  5  6  2  0  0  0  0
  5  7  1  0  0  0  0
  2  3  1  0  0  0  0
  2  4  1  0  0  0  0
  2  5  1  0  0  0  0
  1  2  1  0  0  0  0
 27 28  2  0  0  0  0
 27 29  1  0  0  0  0
 23 24  1  0  0  0  0
 23 25  1  0  0  0  0
 23 26  1  0  0  0  0
 20 21  1  0  0  0  0
 20 22  1  0  0  0  0
 20 23  1  0  0  0  0
 17 18  1  0  0  0  0
 17 19  1  0  0  0  0
 17 20  1  0  0  0  0
 14 15  1  0  0  0  0
 14 16  1  0  0  0  0
 14 17  1  0  0  0  0
 11 12  1  0  0  0  0
 11 13  1  0  0  0  0
 11 14  1  0  0  0  0
  9 10  1  0  0  0  0
  9 11  1  0  0  0  0
  9 27  1  0  0  0  0
  7  8  1  0  0  0  0
  7  9  1  0  0  0  0
 31 32  1  0  0  0  0
 31 33  1  0  0  0  0
 31 34  1  0  0  0  0
 29 30  1  0  0  0  0
 29 31  1  0  0  0  0
M  CHG  1  23   1
M  END
$$$$
default_name
  -OEChem-02102213163D

 34 33  0     1  0  0  0  0  0999 V2000
   -3.8899   -3.6747    1.6490 H   0  0  0  0  0  0  0  0  0  0  0  0
   -3.9109   -2.6717    1.2250 C   0  0  0  0  0  0  0  0  0  0  0  0
   -4.6009   -2.0517    1.7950 H   0  0  0  0  0  0  0  0  0  0  0  0
   -4.2309   -2.7237    0.1860 H   0  0  0  0  0  0  0  0  0  0  0  0
   -2.5229   -2.0787    1.2980 C   0  0  0  0  0  0  0  0  0  0  0  0
   -1.5999   -2.7227    1.7810 O   0  0  0  0  0  0  0  0  0  0  0  0
   -2.3659   -0.8447    0.8120 N   0  0  0  0  0  0  0  0  0  0  0  0
   -3.1749   -0.3807    0.4220 H   0  0  0  0  0  0  0  0  0  0  0  0
   -1.0919   -0.1077    0.8170 C   0  0  1  0  0  0  0  0  0  0  0  0
   -0.3571   -0.6901    0.2581 H   0  0  0  0  0  0  0  0  0  0  0  0
   -1.3037    1.2411    0.1040 C   0  0  0  0  0  0  0  0  0  0  0  0
   -0.3272    1.6638   -0.1373 H   0  0  0  0  0  0  0  0  0  0  0  0
   -1.8417    1.0721   -0.8309 H   0  0  0  0  0  0  0  0  0  0  0  0
   -2.0751    2.2621    0.9542 C   0  0  0  0  0  0  0  0  0  0  0  0
   -2.7574    1.7398    1.6263 H   0  0  0  0  0  0  0  0  0  0  0  0
   -1.3670    2.8443    1.5470 H   0  0  0  0  0  0  0  0  0  0  0  0
   -2.8815    3.2075    0.0532 C   0  0  0  0  0  0  0  0  0  0  0  0
   -2.1972    3.7179   -0.6287 H   0  0  0  0  0  0  0  0  0  0  0  0
   -3.5943    2.6215   -0.5304 H   0  0  0  0  0  0  0  0  0  0  0  0
   -3.6326    4.2431    0.8995 C   0  0  0  0  0  0  0  0  0  0  0  0
   -4.3061    3.7123    1.5802 H   0  0  0  0  0  0  0  0  0  0  0  0
   -2.9047    4.7896    1.5068 H   0  0  0  0  0  0  0  0  0  0  0  0
   -4.4030    5.1866    0.0505 N   0  3  0  0  0  0  0  0  0  0  0  0
   -5.0856    4.6877   -0.5062 H   0  0  0  0  0  0  0  0  0  0  0  0
   -4.8921    5.8629    0.6235 H   0  0  0  0  0  0  0  0  0  0  0  0
   -3.7829    5.6870   -0.5755 H   0  0  0  0  0  0  0  0  0  0  0  0
   -0.5865    0.0771    2.2496 C   0  0  0  0  0  0  0  0  0  0  0  0
    0.5860   -0.1608    2.5143 O   0  0  0  0  0  0  0  0  0  0  0  0
   -1.4786    0.4656    3.1667 N   0  0  0  0  0  0  0  0  0  0  0  0
   -2.4139    0.6698    2.8558 H   0  0  0  0  0  0  0  0  0  0  0  0
   -1.1587    0.6908    4.5775 C   0  0  0  0  0  0  0  0  0  0  0  0
   -0.4270    1.4968    4.6656 H   0  0  0  0  0  0  0  0  0  0  0  0
   -2.0565    0.9649    5.1327 H   0  0  0  0  0  0  0  0  0  0  0  0
   -0.7281   -0.2137    5.0125 H   0  0  0  0  0  0  0  0  0  0  0  0
  5  6  2  0  0  0  0
  5  7  1  0  0  0  0
  2  3  1  0  0  0  0
  2  4  1  0  0  0  0
  2  5  1  0  0  0  0
  1  2  1  0  0  0  0
 27 28  2  0  0  0  0
 27 29  1  0  0  0  0
 23 24  1  0  0  0  0
 23 25  1  0  0  0  0
 23 26  1  0  0  0  0
 20 21  1  0  0  0  0
 20 22  1  0  0  0  0
 20 23  1  0  0  0  0
 17 18  1  0  0  0  0
 17 19  1  0  0  0  0
 17 20  1  0  0  0  0
 14 15  1  0  0  0  0
 14 16  1  0  0  0  0
 14 17  1  0  0  0  0
 11 12  1  0  0  0  0
 11 13  1  0  0  0  0
 11 14  1  0  0  0  0
  9 10  1  0  0  0  0
  9 11  1  0  0  0  0
  9 27  1  0  0  0  0
  7  8  1  0  0  0  0
  7  9  1  0  0  0  0
 31 32  1  0  0  0  0
 31 33  1  0  0  0  0
 31 34  1  0  0  0  0
 29 30  1  0  0  0  0
 29 31  1  0  0  0  0
M  CHG  1  23   1
M  END
$$$$
default_name
  -OEChem-02102213163D

 34 33  0     1  0  0  0  0  0999 V2000
   -3.8899   -3.6747    1.6490 H   0  0  0  0  0  0  0  0  0  0  0  0
   -3.9109   -2.6717    1.2250 C   0  0  0  0  0  0  0  0  0  0  0  0
   -4.6009   -2.0517    1.7950 H   0  0  0  0  0  0  0  0  0  0  0  0
   -4.2309   -2.7237    0.1860 H   0  0  0  0  0  0  0  0  0  0  0  0
   -2.5229   -2.0787    1.2980 C   0  0  0  0  0  0  0  0  0  0  0  0
   -1.5999   -2.7227    1.7810 O   0  0  0  0  0  0  0  0  0  0  0  0
   -2.3659   -0.8447    0.8120 N   0  0  0  0  0  0  0  0  0  0  0  0
   -3.1749   -0.3807    0.4220 H   0  0  0  0  0  0  0  0  0  0  0  0
   -1.0919   -0.1077    0.8170 C   0  0  1  0  0  0  0  0  0  0  0  0
   -0.3571   -0.6901    0.2581 H   0  0  0  0  0  0  0  0  0  0  0  0
   -1.3037    1.2411    0.1040 C   0  0  0  0  0  0  0  0  0  0  0  0
   -0.3272    1.6638   -0.1373 H   0  0  0  0  0  0  0  0  0  0  0  0
   -1.8417    1.0721   -0.8309 H   0  0  0  0  0  0  0  0  0  0  0  0
   -2.0751    2.2621    0.9542 C   0  0  0  0  0  0  0  0  0  0  0  0
   -2.5500    1.7555    1.7955 H   0  0  0  0  0  0  0  0  0  0  0  0
   -1.3787    3.0111    1.3361 H   0  0  0  0  0  0  0  0  0  0  0  0
   -3.1536    2.9548    0.1098 C   0  0  0  0  0  0  0  0  0  0  0  0
   -2.6764    3.4486   -0.7401 H   0  0  0  0  0  0  0  0  0  0  0  0
   -3.8525    2.2028   -0.2619 H   0  0  0  0  0  0  0  0  0  0  0  0
   -3.9081    3.9922    0.9508 C   0  0  0  0  0  0  0  0  0  0  0  0
   -4.3717    3.4797    1.8000 H   0  0  0  0  0  0  0  0  0  0  0  0
   -3.1846    4.7108    1.3475 H   0  0  0  0  0  0  0  0  0  0  0  0
   -4.9427    4.6952    0.1510 N   0  3  0  0  0  0  0  0  0  0  0  0
   -5.6213    4.0365   -0.2102 H   0  0  0  0  0  0  0  0  0  0  0  0
   -5.4307    5.3759    0.7197 H   0  0  0  0  0  0  0  0  0  0  0  0
   -4.5175    5.1787   -0.6315 H   0  0  0  0  0  0  0  0  0  0  0  0
   -0.5865    0.0771    2.2496 C   0  0  0  0  0  0  0  0  0  0  0  0
    0.5860   -0.1608    2.5143 O   0  0  0  0  0  0  0  0  0  0  0  0
   -1.4786    0.4656    3.1667 N   0  0  0  0  0  0  0  0  0  0  0  0
   -2.4139    0.6698    2.8558 H   0  0  0  0  0  0  0  0  0  0  0  0
   -1.1587    0.6908    4.5775 C   0  0  0  0  0  0  0  0  0  0  0  0
   -0.4270    1.4968    4.6656 H   0  0  0  0  0  0  0  0  0  0  0  0
   -2.0565    0.9649    5.1327 H   0  0  0  0  0  0  0  0  0  0  0  0
   -0.7281   -0.2137    5.0125 H   0  0  0  0  0  0  0  0  0  0  0  0
  5  6  2  0  0  0  0
  5  7  1  0  0  0  0
  2  3  1  0  0  0  0
  2  4  1  0  0  0  0
  2  5  1  0  0  0  0
  1  2  1  0  0  0  0
 27 28  2  0  0  0  0
 27 29  1  0  0  0  0
 23 24  1  0  0  0  0
 23 25  1  0  0  0  0
 23 26  1  0  0  0  0
 20 21  1  0  0  0  0
 20 22  1  0  0  0  0
 20 23  1  0  0  0  0
 17 18  1  0  0  0  0
 17 19  1  0  0  0  0
 17 20  1  0  0  0  0
 14 15  1  0  0  0  0
 14 16  1  0  0  0  0
 14 17  1  0  0  0  0
 11 12  1  0  0  0  0
 11 13  1  0  0  0  0
 11 14  1  0  0  0  0
  9 10  1  0  0  0  0
  9 11  1  0  0  0  0
  9 27  1  0  0  0  0
  7  8  1  0  0  0  0
  7  9  1  0  0  0  0
 31 32  1  0  0  0  0
 31 33  1  0  0  0  0
 31 34  1  0  0  0  0
 29 30  1  0  0  0  0
 29 31  1  0  0  0  0
M  CHG  1  23   1
M  END
$$$$
default_name
  -OEChem-02102213163D

 34 33  0     1  0  0  0  0  0999 V2000
   -3.8899   -3.6747    1.6490 H   0  0  0  0  0  0  0  0  0  0  0  0
   -3.9109   -2.6717    1.2250 C   0  0  0  0  0  0  0  0  0  0  0  0
   -4.6009   -2.0517    1.7950 H   0  0  0  0  0  0  0  0  0  0  0  0
   -4.2309   -2.7237    0.1860 H   0  0  0  0  0  0  0  0  0  0  0  0
   -2.5229   -2.0787    1.2980 C   0  0  0  0  0  0  0  0  0  0  0  0
   -1.5999   -2.7227    1.7810 O   0  0  0  0  0  0  0  0  0  0  0  0
   -2.3659   -0.8447    0.8120 N   0  0  0  0  0  0  0  0  0  0  0  0
   -3.1749   -0.3807    0.4220 H   0  0  0  0  0  0  0  0  0  0  0  0
   -1.0919   -0.1077    0.8170 C   0  0  1  0  0  0  0  0  0  0  0  0
   -0.3571   -0.6901    0.2581 H   0  0  0  0  0  0  0  0  0  0  0  0
   -1.3037    1.2411    0.1040 C   0  0  0  0  0  0  0  0  0  0  0  0
   -0.3272    1.6638   -0.1373 H   0  0  0  0  0  0  0  0  0  0  0  0
   -1.8417    1.0721   -0.8309 H   0  0  0  0  0  0  0  0  0  0  0  0
   -2.0751    2.2621    0.9542 C   0  0  0  0  0  0  0  0  0  0  0  0
   -2.3229    1.8224    1.9213 H   0  0  0  0  0  0  0  0  0  0  0  0
   -1.4502    3.1431    1.1127 H   0  0  0  0  0  0  0  0  0  0  0  0
   -3.3705    2.6791    0.2441 C   0  0  0  0  0  0  0  0  0  0  0  0
   -3.1199    3.1053   -0.7303 H   0  0  0  0  0  0  0  0  0  0  0  0
   -3.9957    1.7963    0.0964 H   0  0  0  0  0  0  0  0  0  0  0  0
   -4.1294    3.7171    1.0803 C   0  0  0  0  0  0  0  0  0  0  0  0
   -4.3640    3.2742    2.0538 H   0  0  0  0  0  0  0  0  0  0  0  0
   -3.4710    4.5740    1.2520 H   0  0  0  0  0  0  0  0  0  0  0  0
   -5.3764    4.1564    0.4046 N   0  3  0  0  0  0  0  0  0  0  0  0
   -5.9945    3.3692    0.2525 H   0  0  0  0  0  0  0  0  0  0  0  0
   -5.8647    4.8407    0.9686 H   0  0  0  0  0  0  0  0  0  0  0  0
   -5.1639    4.5752   -0.4933 H   0  0  0  0  0  0  0  0  0  0  0  0
   -0.5865    0.0771    2.2496 C   0  0  0  0  0  0  0  0  0  0  0  0
    0.5860   -0.1608    2.5143 O   0  0  0  0  0  0  0  0  0  0  0  0
   -1.4786    0.4656    3.1667 N   0  0  0  0  0  0  0  0  0  0  0  0
   -2.4139    0.6698    2.8558 H   0  0  0  0  0  0  0  0  0  0  0  0
   -1.1587    0.6908    4.5775 C   0  0  0  0  0  0  0  0  0  0  0  0
   -0.4270    1.4968    4.6656 H   0  0  0  0  0  0  0  0  0  0  0  0
   -2.0565    0.9649    5.1327 H   0  0  0  0  0  0  0  0  0  0  0  0
   -0.7281   -0.2137    5.0125 H   0  0  0  0  0  0  0  0  0  0  0  0
  5  6  2  0  0  0  0
  5  7  1  0  0  0  0
  2  3  1  0  0  0  0
  2  4  1  0  0  0  0
  2  5  1  0  0  0  0
  1  2  1  0  0  0  0
 27 28  2  0  0  0  0
 27 29  1  0  0  0  0
 23 24  1  0  0  0  0
 23 25  1  0  0  0  0
 23 26  1  0  0  0  0
 20 21  1  0  0  0  0
 20 22  1  0  0  0  0
 20 23  1  0  0  0  0
 17 18  1  0  0  0  0
 17 19  1  0  0  0  0
 17 20  1  0  0  0  0
 14 15  1  0  0  0  0
 14 16  1  0  0  0  0
 14 17  1  0  0  0  0
 11 12  1  0  0  0  0
 11 13  1  0  0  0  0
 11 14  1  0  0  0  0
  9 10  1  0  0  0  0
  9 11  1  0  0  0  0
  9 27  1  0  0  0  0
  7  8  1  0  0  0  0
  7  9  1  0  0  0  0
 31 32  1  0  0  0  0
 31 33  1  0  0  0  0
 31 34  1  0  0  0  0
 29 30  1  0  0  0  0
 29 31  1  0  0  0  0
M  CHG  1  23   1
M  END
$$$$
default_name
  -OEChem-02102213163D

 34 33  0     1  0  0  0  0  0999 V2000
   -3.8899   -3.6747    1.6490 H   0  0  0  0  0  0  0  0  0  0  0  0
   -3.9109   -2.6717    1.2250 C   0  0  0  0  0  0  0  0  0  0  0  0
   -4.6009   -2.0517    1.7950 H   0  0  0  0  0  0  0  0  0  0  0  0
   -4.2309   -2.7237    0.1860 H   0  0  0  0  0  0  0  0  0  0  0  0
   -2.5229   -2.0787    1.2980 C   0  0  0  0  0  0  0  0  0  0  0  0
   -1.5999   -2.7227    1.7810 O   0  0  0  0  0  0  0  0  0  0  0  0
   -2.3659   -0.8447    0.8120 N   0  0  0  0  0  0  0  0  0  0  0  0
   -3.1749   -0.3807    0.4220 H   0  0  0  0  0  0  0  0  0  0  0  0
   -1.0919   -0.1077    0.8170 C   0  0  1  0  0  0  0  0  0  0  0  0
   -0.3571   -0.6901    0.2581 H   0  0  0  0  0  0  0  0  0  0  0  0
   -1.3037    1.2411    0.1040 C   0  0  0  0  0  0  0  0  0  0  0  0
   -0.3272    1.6638   -0.1373 H   0  0  0  0  0  0  0  0  0  0  0  0
   -1.8417    1.0721   -0.8309 H   0  0  0  0  0  0  0  0  0  0  0  0
   -2.0751    2.2621    0.9542 C   0  0  0  0  0  0  0  0  0  0  0  0
   -2.0914    1.9359    1.9950 H   0  0  0  0  0  0  0  0  0  0  0  0
   -1.5765    3.2313    0.8921 H   0  0  0  0  0  0  0  0  0  0  0  0
   -3.5173    2.3992    0.4470 C   0  0  0  0  0  0  0  0  0  0  0  0
   -3.4975    2.7115   -0.5999 H   0  0  0  0  0  0  0  0  0  0  0  0
   -4.0141    1.4297    0.5198 H   0  0  0  0  0  0  0  0  0  0  0  0
   -4.2815    3.4365    1.2793 C   0  0  0  0  0  0  0  0  0  0  0  0
   -4.2834    3.1098    2.3243 H   0  0  0  0  0  0  0  0  0  0  0  0
   -3.7444    4.3884    1.2268 H   0  0  0  0  0  0  0  0  0  0  0  0
   -5.6744    3.6067    0.7943 N   0  3  0  0  0  0  0  0  0  0  0  0
   -6.1798    2.7313    0.8503 H   0  0  0  0  0  0  0  0  0  0  0  0
   -6.1645    4.2940    1.3532 H   0  0  0  0  0  0  0  0  0  0  0  0
   -5.6781    3.9176   -0.1702 H   0  0  0  0  0  0  0  0  0  0  0  0
   -0.5865    0.0771    2.2496 C   0  0  0  0  0  0  0  0  0  0  0  0
    0.5860   -0.1608    2.5143 O   0  0  0  0  0  0  0  0  0  0  0  0
   -1.4786    0.4656    3.1667 N   0  0  0  0  0  0  0  0  0  0  0  0
   -2.4139    0.6698    2.8558 H   0  0  0  0  0  0  0  0  0  0  0  0
   -1.1587    0.6908    4.5775 C   0  0  0  0  0  0  0  0  0  0  0  0
   -0.4270    1.4968    4.6656 H   0  0  0  0  0  0  0  0  0  0  0  0
   -2.0565    0.9649    5.1327 H   0  0  0  0  0  0  0  0  0  0  0  0
   -0.7281   -0.2137    5.0125 H   0  0  0  0  0  0  0  0  0  0  0  0
  5  6  2  0  0  0  0
  5  7  1  0  0  0  0
  2  3  1  0  0  0  0
  2  4  1  0  0  0  0
  2  5  1  0  0  0  0
  1  2  1  0  0  0  0
 27 28  2  0  0  0  0
 27 29  1  0  0  0  0
 23 24  1  0  0  0  0
 23 25  1  0  0  0  0
 23 26  1  0  0  0  0
 20 21  1  0  0  0  0
 20 22  1  0  0  0  0
 20 23  1  0  0  0  0
 17 18  1  0  0  0  0
 17 19  1  0  0  0  0
 17 20  1  0  0  0  0
 14 15  1  0  0  0  0
 14 16  1  0  0  0  0
 14 17  1  0  0  0  0
 11 12  1  0  0  0  0
 11 13  1  0  0  0  0
 11 14  1  0  0  0  0
  9 10  1  0  0  0  0
  9 11  1  0  0  0  0
  9 27  1  0  0  0  0
  7  8  1  0  0  0  0
  7  9  1  0  0  0  0
 31 32  1  0  0  0  0
 31 33  1  0  0  0  0
 31 34  1  0  0  0  0
 29 30  1  0  0  0  0
 29 31  1  0  0  0  0
M  CHG  1  23   1
M  END
$$$$
default_name
  -OEChem-02102213163D

 34 33  0     1  0  0  0  0  0999 V2000
   -3.8899   -3.6747    1.6490 H   0  0  0  0  0  0  0  0  0  0  0  0
   -3.9109   -2.6717    1.2250 C   0  0  0  0  0  0  0  0  0  0  0  0
   -4.6009   -2.0517    1.7950 H   0  0  0  0  0  0  0  0  0  0  0  0
   -4.2309   -2.7237    0.1860 H   0  0  0  0  0  0  0  0  0  0  0  0
   -2.5229   -2.0787    1.2980 C   0  0  0  0  0  0  0  0  0  0  0  0
   -1.5999   -2.7227    1.7810 O   0  0  0  0  0  0  0  0  0  0  0  0
   -2.3659   -0.8447    0.8120 N   0  0  0  0  0  0  0  0  0  0  0  0
   -3.1749   -0.3807    0.4220 H   0  0  0  0  0  0  0  0  0  0  0  0
   -1.0919   -0.1077    0.8170 C   0  0  1  0  0  0  0  0  0  0  0  0
   -0.3571   -0.6901    0.2581 H   0  0  0  0  0  0  0  0  0  0  0  0
   -1.3037    1.2411    0.1040 C   0  0  0  0  0  0  0  0  0  0  0  0
   -0.3272    1.6638   -0.1373 H   0  0  0  0  0  0  0  0  0  0  0  0
   -1.8417    1.0721   -0.8309 H   0  0  0  0  0  0  0  0  0  0  0  0
   -2.0751    2.2621    0.9542 C   0  0  0  0  0  0  0  0  0  0  0  0
   -1.8714    2.0883    2.0117 H   0  0  0  0  0  0  0  0  0  0  0  0
   -1.7492    3.2698    0.6893 H   0  0  0  0  0  0  0  0  0  0  0  0
   -3.5842    2.1342    0.7046 C   0  0  0  0  0  0  0  0  0  0  0  0
   -3.7833    2.2939   -0.3578 H   0  0  0  0  0  0  0  0  0  0  0  0
   -3.9066    1.1280    0.9797 H   0  0  0  0  0  0  0  0  0  0  0  0
   -4.3540    3.1695    1.5341 C   0  0  0  0  0  0  0  0  0  0  0  0
   -4.1355    2.9977    2.5931 H   0  0  0  0  0  0  0  0  0  0  0  0
   -3.9863    4.1666    1.2736 H   0  0  0  0  0  0  0  0  0  0  0  0
   -5.8166    3.0837    1.2933 N   0  3  0  0  0  0  0  0  0  0  0  0
   -6.1646    2.1663    1.5425 H   0  0  0  0  0  0  0  0  0  0  0  0
   -6.3096    3.7730    1.8473 H   0  0  0  0  0  0  0  0  0  0  0  0
   -6.0249    3.2508    0.3158 H   0  0  0  0  0  0  0  0  0  0  0  0
   -0.5865    0.0771    2.2496 C   0  0  0  0  0  0  0  0  0  0  0  0
    0.5860   -0.1608    2.5143 O   0  0  0  0  0  0  0  0  0  0  0  0
   -1.4786    0.4656    3.1667 N   0  0  0  0  0  0  0  0  0  0  0  0
   -2.4139    0.6698    2.8558 H   0  0  0  0  0  0  0  0  0  0  0  0
   -1.1587    0.6908    4.5775 C   0  0  0  0  0  0  0  0  0  0  0  0
   -0.4270    1.4968    4.6656 H   0  0  0  0  0  0  0  0  0  0  0  0
   -2.0565    0.9649    5.1327 H   0  0  0  0  0  0  0  0  0  0  0  0
   -0.7281   -0.2137    5.0125 H   0  0  0  0  0  0  0  0  0  0  0  0
  5  6  2  0  0  0  0
  5  7  1  0  0  0  0
  2  3  1  0  0  0  0
  2  4  1  0  0  0  0
  2  5  1  0  0  0  0
  1  2  1  0  0  0  0
 27 28  2  0  0  0  0
 27 29  1  0  0  0  0
 23 24  1  0  0  0  0
 23 25  1  0  0  0  0
 23 26  1  0  0  0  0
 20 21  1  0  0  0  0
 20 22  1  0  0  0  0
 20 23  1  0  0  0  0
 17 18  1  0  0  0  0
 17 19  1  0  0  0  0
 17 20  1  0  0  0  0
 14 15  1  0  0  0  0
 14 16  1  0  0  0  0
 14 17  1  0  0  0  0
 11 12  1  0  0  0  0
 11 13  1  0  0  0  0
 11 14  1  0  0  0  0
  9 10  1  0  0  0  0
  9 11  1  0  0  0  0
  9 27  1  0  0  0  0
  7  8  1  0  0  0  0
  7  9  1  0  0  0  0
 31 32  1  0  0  0  0
 31 33  1  0  0  0  0
 31 34  1  0  0  0  0
 29 30  1  0  0  0  0
 29 31  1  0  0  0  0
M  CHG  1  23   1
M  END
$$$$
default_name
  -OEChem-02102213163D

 34 33  0     1  0  0  0  0  0999 V2000
   -3.8899   -3.6747    1.6490 H   0  0  0  0  0  0  0  0  0  0  0  0
   -3.9109   -2.6717    1.2250 C   0  0  0  0  0  0  0  0  0  0  0  0
   -4.6009   -2.0517    1.7950 H   0  0  0  0  0  0  0  0  0  0  0  0
   -4.2309   -2.7237    0.1860 H   0  0  0  0  0  0  0  0  0  0  0  0
   -2.5229   -2.0787    1.2980 C   0  0  0  0  0  0  0  0  0  0  0  0
   -1.5999   -2.7227    1.7810 O   0  0  0  0  0  0  0  0  0  0  0  0
   -2.3659   -0.8447    0.8120 N   0  0  0  0  0  0  0  0  0  0  0  0
   -3.1749   -0.3807    0.4220 H   0  0  0  0  0  0  0  0  0  0  0  0
   -1.0919   -0.1077    0.8170 C   0  0  1  0  0  0  0  0  0  0  0  0
   -0.3571   -0.6901    0.2581 H   0  0  0  0  0  0  0  0  0  0  0  0
   -1.3037    1.2411    0.1040 C   0  0  0  0  0  0  0  0  0  0  0  0
   -0.3272    1.6638   -0.1373 H   0  0  0  0  0  0  0  0  0  0  0  0
   -1.8417    1.0721   -0.8309 H   0  0  0  0  0  0  0  0  0  0  0  0
   -2.0751    2.2621    0.9542 C   0  0  0  0  0  0  0  0  0  0  0  0
   -1.6778    2.2691    1.9701 H   0  0  0  0  0  0  0  0  0  0  0  0
   -1.9563    3.2559    0.5181 H   0  0  0  0  0  0  0  0  0  0  0  0
   -3.5666    1.9020    0.9994 C   0  0  0  0  0  0  0  0  0  0  0  0
   -3.9579    1.8812   -0.0205 H   0  0  0  0  0  0  0  0  0  0  0  0
   -3.6805    0.9117    1.4446 H   0  0  0  0  0  0  0  0  0  0  0  0
   -4.3420    2.9344    1.8274 C   0  0  0  0  0  0  0  0  0  0  0  0
   -3.9304    2.9455    2.8419 H   0  0  0  0  0  0  0  0  0  0  0  0
   -4.1801    3.9239    1.3892 H   0  0  0  0  0  0  0  0  0  0  0  0
   -5.7931    2.6230    1.8678 N   0  3  0  0  0  0  0  0  0  0  0  0
   -5.9500    1.7127    2.2820 H   0  0  0  0  0  0  0  0  0  0  0  0
   -6.2901    3.3131    2.4172 H   0  0  0  0  0  0  0  0  0  0  0  0
   -6.1809    2.6202    0.9316 H   0  0  0  0  0  0  0  0  0  0  0  0
   -0.5865    0.0771    2.2496 C   0  0  0  0  0  0  0  0  0  0  0  0
    0.5860   -0.1608    2.5143 O   0  0  0  0  0  0  0  0  0  0  0  0
   -1.4786    0.4656    3.1667 N   0  0  0  0  0  0  0  0  0  0  0  0
   -2.4139    0.6698    2.8558 H   0  0  0  0  0  0  0  0  0  0  0  0
   -1.1587    0.6908    4.5775 C   0  0  0  0  0  0  0  0  0  0  0  0
   -0.4270    1.4968    4.6656 H   0  0  0  0  0  0  0  0  0  0  0  0
   -2.0565    0.9649    5.1327 H   0  0  0  0  0  0  0  0  0  0  0  0
   -0.7281   -0.2137    5.0125 H   0  0  0  0  0  0  0  0  0  0  0  0
  5  6  2  0  0  0  0
  5  7  1  0  0  0  0
  2  3  1  0  0  0  0
  2  4  1  0  0  0  0
  2  5  1  0  0  0  0
  1  2  1  0  0  0  0
 27 28  2  0  0  0  0
 27 29  1  0  0  0  0
 23 24  1  0  0  0  0
 23 25  1  0  0  0  0
 23 26  1  0  0  0  0
 20 21  1  0  0  0  0
 20 22  1  0  0  0  0
 20 23  1  0  0  0  0
 17 18  1  0  0  0  0
 17 19  1  0  0  0  0
 17 20  1  0  0  0  0
 14 15  1  0  0  0  0
 14 16  1  0  0  0  0
 14 17  1  0  0  0  0
 11 12  1  0  0  0  0
 11 13  1  0  0  0  0
 11 14  1  0  0  0  0
  9 10  1  0  0  0  0
  9 11  1  0  0  0  0
  9 27  1  0  0  0  0
  7  8  1  0  0  0  0
  7  9  1  0  0  0  0
 31 32  1  0  0  0  0
 31 33  1  0  0  0  0
 31 34  1  0  0  0  0
 29 30  1  0  0  0  0
 29 31  1  0  0  0  0
M  CHG  1  23   1
M  END
$$$$
default_name
  -OEChem-02102213163D

 34 33  0     1  0  0  0  0  0999 V2000
   -3.8899   -3.6747    1.6490 H   0  0  0  0  0  0  0  0  0  0  0  0
   -3.9109   -2.6717    1.2250 C   0  0  0  0  0  0  0  0  0  0  0  0
   -4.6009   -2.0517    1.7950 H   0  0  0  0  0  0  0  0  0  0  0  0
   -4.2309   -2.7237    0.1860 H   0  0  0  0  0  0  0  0  0  0  0  0
   -2.5229   -2.0787    1.2980 C   0  0  0  0  0  0  0  0  0  0  0  0
   -1.5999   -2.7227    1.7810 O   0  0  0  0  0  0  0  0  0  0  0  0
   -2.3659   -0.8447    0.8120 N   0  0  0  0  0  0  0  0  0  0  0  0
   -3.1749   -0.3807    0.4220 H   0  0  0  0  0  0  0  0  0  0  0  0
   -1.0919   -0.1077    0.8170 C   0  0  1  0  0  0  0  0  0  0  0  0
   -0.3571   -0.6901    0.2581 H   0  0  0  0  0  0  0  0  0  0  0  0
   -1.3037    1.2411    0.1040 C   0  0  0  0  0  0  0  0  0  0  0  0
   -0.3272    1.6638   -0.1373 H   0  0  0  0  0  0  0  0  0  0  0  0
   -1.8417    1.0721   -0.8309 H   0  0  0  0  0  0  0  0  0  0  0  0
   -2.0751    2.2621    0.9542 C   0  0  0  0  0  0  0  0  0  0  0  0
   -1.5239    2.4661    1.8732 H   0  0  0  0  0  0  0  0  0  0  0  0
   -2.1839    3.1905    0.3902 H   0  0  0  0  0  0  0  0  0  0  0  0
   -3.4656    1.7187    1.3112 C   0  0  0  0  0  0  0  0  0  0  0  0
   -4.0095    1.5012    0.3889 H   0  0  0  0  0  0  0  0  0  0  0  0
   -3.3511    0.7955    1.8829 H   0  0  0  0  0  0  0  0  0  0  0  0
   -4.2462    2.7471    2.1392 C   0  0  0  0  0  0  0  0  0  0  0  0
   -3.6819    2.9568    3.0537 H   0  0  0  0  0  0  0  0  0  0  0  0
   -4.3127    3.6767    1.5658 H   0  0  0  0  0  0  0  0  0  0  0  0
   -5.6057    2.2561    2.4785 N   0  3  0  0  0  0  0  0  0  0  0  0
   -5.5505    1.4014    3.0183 H   0  0  0  0  0  0  0  0  0  0  0  0
   -6.1074    2.9457    3.0241 H   0  0  0  0  0  0  0  0  0  0  0  0
   -6.1353    2.0688    1.6351 H   0  0  0  0  0  0  0  0  0  0  0  0
   -0.5865    0.0771    2.2496 C   0  0  0  0  0  0  0  0  0  0  0  0
    0.5860   -0.1608    2.5143 O   0  0  0  0  0  0  0  0  0  0  0  0
   -1.4786    0.4656    3.1667 N   0  0  0  0  0  0  0  0  0  0  0  0
   -2.4139    0.6698    2.8558 H   0  0  0  0  0  0  0  0  0  0  0  0
   -1.1587    0.6908    4.5775 C   0  0  0  0  0  0  0  0  0  0  0  0
   -0.4270    1.4968    4.6656 H   0  0  0  0  0  0  0  0  0  0  0  0
   -2.0565    0.9649    5.1327 H   0  0  0  0  0  0  0  0  0  0  0  0
   -0.7281   -0.2137    5.0125 H   0  0  0  0  0  0  0  0  0  0  0  0
  5  6  2  0  0  0  0
  5  7  1  0  0  0  0
  2  3  1  0  0  0  0
  2  4  1  0  0  0  0
  2  5  1  0  0  0  0
  1  2  1  0  0  0  0
 27 28  2  0  0  0  0
 27 29  1  0  0  0  0
 23 24  1  0  0  0  0
 23 25  1  0  0  0  0
 23 26  1  0  0  0  0
 20 21  1  0  0  0  0
 20 22  1  0  0  0  0
 20 23  1  0  0  0  0
 17 18  1  0  0  0  0
 17 19  1  0  0  0  0
 17 20  1  0  0  0  0
 14 15  1  0  0  0  0
 14 16  1  0  0  0  0
 14 17  1  0  0  0  0
 11 12  1  0  0  0  0
 11 13  1  0  0  0  0
 11 14  1  0  0  0  0
  9 10  1  0  0  0  0
  9 11  1  0  0  0  0
  9 27  1  0  0  0  0
  7  8  1  0  0  0  0
  7  9  1  0  0  0  0
 31 32  1  0  0  0  0
 31 33  1  0  0  0  0
 31 34  1  0  0  0  0
 29 30  1  0  0  0  0
 29 31  1  0  0  0  0
M  CHG  1  23   1
M  END
$$$$
default_name
  -OEChem-02102213163D

 34 33  0     1  0  0  0  0  0999 V2000
   -3.8899   -3.6747    1.6490 H   0  0  0  0  0  0  0  0  0  0  0  0
   -3.9109   -2.6717    1.2250 C   0  0  0  0  0  0  0  0  0  0  0  0
   -4.6009   -2.0517    1.7950 H   0  0  0  0  0  0  0  0  0  0  0  0
   -4.2309   -2.7237    0.1860 H   0  0  0  0  0  0  0  0  0  0  0  0
   -2.5229   -2.0787    1.2980 C   0  0  0  0  0  0  0  0  0  0  0  0
   -1.5999   -2.7227    1.7810 O   0  0  0  0  0  0  0  0  0  0  0  0
   -2.3659   -0.8447    0.8120 N   0  0  0  0  0  0  0  0  0  0  0  0
   -3.1749   -0.3807    0.4220 H   0  0  0  0  0  0  0  0  0  0  0  0
   -1.0919   -0.1077    0.8170 C   0  0  1  0  0  0  0  0  0  0  0  0
   -0.3571   -0.6901    0.2581 H   0  0  0  0  0  0  0  0  0  0  0  0
   -1.3037    1.2411    0.1040 C   0  0  0  0  0  0  0  0  0  0  0  0
   -0.3272    1.6638   -0.1373 H   0  0  0  0  0  0  0  0  0  0  0  0
   -1.8417    1.0721   -0.8309 H   0  0  0  0  0  0  0  0  0  0  0  0
   -2.0751    2.2621    0.9542 C   0  0  0  0  0  0  0  0  0  0  0  0
   -1.4202    2.6658    1.7275 H   0  0  0  0  0  0  0  0  0  0  0  0
   -2.4163    3.0781    0.3142 H   0  0  0  0  0  0  0  0  0  0  0  0
   -3.2881    1.5965    1.6189 C   0  0  0  0  0  0  0  0  0  0  0  0
   -3.9344    1.1801    0.8426 H   0  0  0  0  0  0  0  0  0  0  0  0
   -2.9409    0.7875    2.2647 H   0  0  0  0  0  0  0  0  0  0  0  0
   -4.0733    2.6204    2.4482 C   0  0  0  0  0  0  0  0  0  0  0  0
   -3.4071    3.0308    3.2141 H   0  0  0  0  0  0  0  0  0  0  0  0
   -4.3750    3.4418    1.7913 H   0  0  0  0  0  0  0  0  0  0  0  0
   -5.2671    2.0078    3.0839 N   0  3  0  0  0  0  0  0  0  0  0  0
   -4.9934    1.2536    3.7012 H   0  0  0  0  0  0  0  0  0  0  0  0
   -5.7739    2.6959    3.6266 H   0  0  0  0  0  0  0  0  0  0  0  0
   -5.8913    1.6341    2.3785 H   0  0  0  0  0  0  0  0  0  0  0  0
   -0.5865    0.0771    2.2496 C   0  0  0  0  0  0  0  0  0  0  0  0
    0.5860   -0.1608    2.5143 O   0  0  0  0  0  0  0  0  0  0  0  0
   -1.4786    0.4656    3.1667 N   0  0  0  0  0  0  0  0  0  0  0  0
   -2.4139    0.6698    2.8558 H   0  0  0  0  0  0  0  0  0  0  0  0
   -1.1587    0.6908    4.5775 C   0  0  0  0  0  0  0  0  0  0  0  0
   -0.4270    1.4968    4.6656 H   0  0  0  0  0  0  0  0  0  0  0  0
   -2.0565    0.9649    5.1327 H   0  0  0  0  0  0  0  0  0  0  0  0
   -0.7281   -0.2137    5.0125 H   0  0  0  0  0  0  0  0  0  0  0  0
  5  6  2  0  0  0  0
  5  7  1  0  0  0  0
  2  3  1  0  0  0  0
  2  4  1  0  0  0  0
  2  5  1  0  0  0  0
  1  2  1  0  0  0  0
 27 28  2  0  0  0  0
 27 29  1  0  0  0  0
 23 24  1  0  0  0  0
 23 25  1  0  0  0  0
 23 26  1  0  0  0  0
 20 21  1  0  0  0  0
 20 22  1  0  0  0  0
 20 23  1  0  0  0  0
 17 18  1  0  0  0  0
 17 19  1  0  0  0  0
 17 20  1  0  0  0  0
 14 15  1  0  0  0  0
 14 16  1  0  0  0  0
 14 17  1  0  0  0  0
 11 12  1  0  0  0  0
 11 13  1  0  0  0  0
 11 14  1  0  0  0  0
  9 10  1  0  0  0  0
  9 11  1  0  0  0  0
  9 27  1  0  0  0  0
  7  8  1  0  0  0  0
  7  9  1  0  0  0  0
 31 32  1  0  0  0  0
 31 33  1  0  0  0  0
 31 34  1  0  0  0  0
 29 30  1  0  0  0  0
 29 31  1  0  0  0  0
M  CHG  1  23   1
M  END
$$$$
default_name
  -OEChem-02102213163D

 34 33  0     1  0  0  0  0  0999 V2000
   -3.8899   -3.6747    1.6490 H   0  0  0  0  0  0  0  0  0  0  0  0
   -3.9109   -2.6717    1.2250 C   0  0  0  0  0  0  0  0  0  0  0  0
   -4.6009   -2.0517    1.7950 H   0  0  0  0  0  0  0  0  0  0  0  0
   -4.2309   -2.7237    0.1860 H   0  0  0  0  0  0  0  0  0  0  0  0
   -2.5229   -2.0787    1.2980 C   0  0  0  0  0  0  0  0  0  0  0  0
   -1.5999   -2.7227    1.7810 O   0  0  0  0  0  0  0  0  0  0  0  0
   -2.3659   -0.8447    0.8120 N   0  0  0  0  0  0  0  0  0  0  0  0
   -3.1749   -0.3807    0.4220 H   0  0  0  0  0  0  0  0  0  0  0  0
   -1.0919   -0.1077    0.8170 C   0  0  1  0  0  0  0  0  0  0  0  0
   -0.3571   -0.6901    0.2581 H   0  0  0  0  0  0  0  0  0  0  0  0
   -1.3037    1.2411    0.1040 C   0  0  0  0  0  0  0  0  0  0  0  0
   -0.3272    1.6638   -0.1373 H   0  0  0  0  0  0  0  0  0  0  0  0
   -1.8417    1.0721   -0.8309 H   0  0  0  0  0  0  0  0  0  0  0  0
   -2.0751    2.2621    0.9542 C   0  0  0  0  0  0  0  0  0  0  0  0
   -1.3736    2.8547    1.5429 H   0  0  0  0  0  0  0  0  0  0  0  0
   -2.6378    2.9264    0.2955 H   0  0  0  0  0  0  0  0  0  0  0  0
   -3.0462    1.5439    1.9015 C   0  0  0  0  0  0  0  0  0  0  0  0
   -3.7379    0.9396    1.3097 H   0  0  0  0  0  0  0  0  0  0  0  0
   -2.4779    0.8881    2.5640 H   0  0  0  0  0  0  0  0  0  0  0  0
   -3.8349    2.5630    2.7334 C   0  0  0  0  0  0  0  0  0  0  0  0
   -3.1248    3.1625    3.3121 H   0  0  0  0  0  0  0  0  0  0  0  0
   -4.3627    3.2354    2.0503 H   0  0  0  0  0  0  0  0  0  0  0  0
   -4.8003    1.8952    3.6426 N   0  3  0  0  0  0  0  0  0  0  0  0
   -4.3166    1.2794    4.2843 H   0  0  0  0  0  0  0  0  0  0  0  0
   -5.3124    2.5807    4.1837 H   0  0  0  0  0  0  0  0  0  0  0  0
   -5.4655    1.3458    3.1111 H   0  0  0  0  0  0  0  0  0  0  0  0
   -0.5865    0.0771    2.2496 C   0  0  0  0  0  0  0  0  0  0  0  0
    0.5860   -0.1608    2.5143 O   0  0  0  0  0  0  0  0  0  0  0  0
   -1.4786    0.4656    3.1667 N   0  0  0  0  0  0  0  0  0  0  0  0
   -2.4139    0.6698    2.8558 H   0  0  0  0  0  0  0  0  0  0  0  0
   -1.1587    0.6908    4.5775 C   0  0  0  0  0  0  0  0  0  0  0  0
   -0.4270    1.4968    4.6656 H   0  0  0  0  0  0  0  0  0  0  0  0
   -2.0565    0.9649    5.1327 H   0  0  0  0  0  0  0  0  0  0  0  0
   -0.7281   -0.2137    5.0125 H   0  0  0  0  0  0  0  0  0  0  0  0
  5  6  2  0  0  0  0
  5  7  1  0  0  0  0
  2  3  1  0  0  0  0
  2  4  1  0  0  0  0
  2  5  1  0  0  0  0
  1  2  1  0  0  0  0
 27 28  2  0  0  0  0
 27 29  1  0  0  0  0
 23 24  1  0  0  0  0
 23 25  1  0  0  0  0
 23 26  1  0  0  0  0
 20 21  1  0  0  0  0
 20 22  1  0  0  0  0
 20 23  1  0  0  0  0
 17 18  1  0  0  0  0
 17 19  1  0  0  0  0
 17 20  1  0  0  0  0
 14 15  1  0  0  0  0
 14 16  1  0  0  0  0
 14 17  1  0  0  0  0
 11 12  1  0  0  0  0
 11 13  1  0  0  0  0
 11 14  1  0  0  0  0
  9 10  1  0  0  0  0
  9 11  1  0  0  0  0
  9 27  1  0  0  0  0
  7  8  1  0  0  0  0
  7  9  1  0  0  0  0
 31 32  1  0  0  0  0
 31 33  1  0  0  0  0
 31 34  1  0  0  0  0
 29 30  1  0  0  0  0
 29 31  1  0  0  0  0
M  CHG  1  23   1
M  END
$$$$
default_name
  -OEChem-02102213163D

 34 33  0     1  0  0  0  0  0999 V2000
   -3.8899   -3.6747    1.6490 H   0  0  0  0  0  0  0  0  0  0  0  0
   -3.9109   -2.6717    1.2250 C   0  0  0  0  0  0  0  0  0  0  0  0
   -4.6009   -2.0517    1.7950 H   0  0  0  0  0  0  0  0  0  0  0  0
   -4.2309   -2.7237    0.1860 H   0  0  0  0  0  0  0  0  0  0  0  0
   -2.5229   -2.0787    1.2980 C   0  0  0  0  0  0  0  0  0  0  0  0
   -1.5999   -2.7227    1.7810 O   0  0  0  0  0  0  0  0  0  0  0  0
   -2.3659   -0.8447    0.8120 N   0  0  0  0  0  0  0  0  0  0  0  0
   -3.1749   -0.3807    0.4220 H   0  0  0  0  0  0  0  0  0  0  0  0
   -1.0919   -0.1077    0.8170 C   0  0  1  0  0  0  0  0  0  0  0  0
   -0.3571   -0.6901    0.2581 H   0  0  0  0  0  0  0  0  0  0  0  0
   -1.3037    1.2411    0.1040 C   0  0  0  0  0  0  0  0  0  0  0  0
   -0.3272    1.6638   -0.1373 H   0  0  0  0  0  0  0  0  0  0  0  0
   -1.8417    1.0721   -0.8309 H   0  0  0  0  0  0  0  0  0  0  0  0
   -2.0751    2.2621    0.9542 C   0  0  0  0  0  0  0  0  0  0  0  0
   -1.3874    3.0198    1.3321 H   0  0  0  0  0  0  0  0  0  0  0  0
   -2.8333    2.7457    0.3351 H   0  0  0  0  0  0  0  0  0  0  0  0
   -2.7565    1.5645    2.1396 C   0  0  0  0  0  0  0  0  0  0  0  0
   -3.4333    0.7962    1.7583 H   0  0  0  0  0  0  0  0  0  0  0  0
   -1.9935    1.0905    2.7604 H   0  0  0  0  0  0  0  0  0  0  0  0
   -3.5474    2.5787    2.9754 C   0  0  0  0  0  0  0  0  0  0  0  0
   -2.8540    3.3430    3.3411 H   0  0  0  0  0  0  0  0  0  0  0  0
   -4.2767    3.0714    2.3253 H   0  0  0  0  0  0  0  0  0  0  0  0
   -4.2371    1.9259    4.1167 N   0  3  0  0  0  0  0  0  0  0  0  0
   -3.5663    1.4770    4.7277 H   0  0  0  0  0  0  0  0  0  0  0  0
   -4.7542    2.6079    4.6574 H   0  0  0  0  0  0  0  0  0  0  0  0
   -4.8868    1.2235    3.7830 H   0  0  0  0  0  0  0  0  0  0  0  0
   -0.5865    0.0771    2.2496 C   0  0  0  0  0  0  0  0  0  0  0  0
    0.5860   -0.1608    2.5143 O   0  0  0  0  0  0  0  0  0  0  0  0
   -1.4786    0.4656    3.1667 N   0  0  0  0  0  0  0  0  0  0  0  0
   -2.4139    0.6698    2.8558 H   0  0  0  0  0  0  0  0  0  0  0  0
   -1.1587    0.6908    4.5775 C   0  0  0  0  0  0  0  0  0  0  0  0
   -0.4270    1.4968    4.6656 H   0  0  0  0  0  0  0  0  0  0  0  0
   -2.0565    0.9649    5.1327 H   0  0  0  0  0  0  0  0  0  0  0  0
   -0.7281   -0.2137    5.0125 H   0  0  0  0  0  0  0  0  0  0  0  0
  5  6  2  0  0  0  0
  5  7  1  0  0  0  0
  2  3  1  0  0  0  0
  2  4  1  0  0  0  0
  2  5  1  0  0  0  0
  1  2  1  0  0  0  0
 27 28  2  0  0  0  0
 27 29  1  0  0  0  0
 23 24  1  0  0  0  0
 23 25  1  0  0  0  0
 23 26  1  0  0  0  0
 20 21  1  0  0  0  0
 20 22  1  0  0  0  0
 20 23  1  0  0  0  0
 17 18  1  0  0  0  0
 17 19  1  0  0  0  0
 17 20  1  0  0  0  0
 14 15  1  0  0  0  0
 14 16  1  0  0  0  0
 14 17  1  0  0  0  0
 11 12  1  0  0  0  0
 11 13  1  0  0  0  0
 11 14  1  0  0  0  0
  9 10  1  0  0  0  0
  9 11  1  0  0  0  0
  9 27  1  0  0  0  0
  7  8  1  0  0  0  0
  7  9  1  0  0  0  0
 31 32  1  0  0  0  0
 31 33  1  0  0  0  0
 31 34  1  0  0  0  0
 29 30  1  0  0  0  0
 29 31  1  0  0  0  0
M  CHG  1  23   1
M  END
$$$$
default_name
  -OEChem-02102213163D

 34 33  0     1  0  0  0  0  0999 V2000
   -3.8899   -3.6747    1.6490 H   0  0  0  0  0  0  0  0  0  0  0  0
   -3.9109   -2.6717    1.2250 C   0  0  0  0  0  0  0  0  0  0  0  0
   -4.6009   -2.0517    1.7950 H   0  0  0  0  0  0  0  0  0  0  0  0
   -4.2309   -2.7237    0.1860 H   0  0  0  0  0  0  0  0  0  0  0  0
   -2.5229   -2.0787    1.2980 C   0  0  0  0  0  0  0  0  0  0  0  0
   -1.5999   -2.7227    1.7810 O   0  0  0  0  0  0  0  0  0  0  0  0
   -2.3659   -0.8447    0.8120 N   0  0  0  0  0  0  0  0  0  0  0  0
   -3.1749   -0.3807    0.4220 H   0  0  0  0  0  0  0  0  0  0  0  0
   -1.0919   -0.1077    0.8170 C   0  0  1  0  0  0  0  0  0  0  0  0
   -0.3571   -0.6901    0.2581 H   0  0  0  0  0  0  0  0  0  0  0  0
   -1.3037    1.2411    0.1040 C   0  0  0  0  0  0  0  0  0  0  0  0
   -0.3272    1.6638   -0.1373 H   0  0  0  0  0  0  0  0  0  0  0  0
   -1.8417    1.0721   -0.8309 H   0  0  0  0  0  0  0  0  0  0  0  0
   -2.0751    2.2621    0.9542 C   0  0  0  0  0  0  0  0  0  0  0  0
   -1.4607    3.1499    1.1094 H   0  0  0  0  0  0  0  0  0  0  0  0
   -2.9893    2.5483    0.4306 H   0  0  0  0  0  0  0  0  0  0  0  0
   -2.4386    1.6568    2.3172 C   0  0  0  0  0  0  0  0  0  0  0  0
   -3.0414    0.7595    2.1579 H   0  0  0  0  0  0  0  0  0  0  0  0
   -1.5209    1.3809    2.8404 H   0  0  0  0  0  0  0  0  0  0  0  0
   -3.2304    2.6665    3.1576 C   0  0  0  0  0  0  0  0  0  0  0  0
   -2.6133    3.5598    3.2991 H   0  0  0  0  0  0  0  0  0  0  0  0
   -4.1229    2.9610    2.5974 H   0  0  0  0  0  0  0  0  0  0  0  0
   -3.6160    2.0978    4.4738 N   0  3  0  0  0  0  0  0  0  0  0  0
   -2.7936    1.8329    5.0013 H   0  0  0  0  0  0  0  0  0  0  0  0
   -4.1375    2.7757    5.0154 H   0  0  0  0  0  0  0  0  0  0  0  0
   -4.1948    1.2755    4.3483 H   0  0  0  0  0  0  0  0  0  0  0  0
   -0.5865    0.0771    2.2496 C   0  0  0  0  0  0  0  0  0  0  0  0
    0.5860   -0.1608    2.5143 O   0  0  0  0  0  0  0  0  0  0  0  0
   -1.4786    0.4656    3.1667 N   0  0  0  0  0  0  0  0  0  0  0  0
   -2.4139    0.6698    2.8558 H   0  0  0  0  0  0  0  0  0  0  0  0
   -1.1587    0.6908    4.5775 C   0  0  0  0  0  0  0  0  0  0  0  0
   -0.4270    1.4968    4.6656 H   0  0  0  0  0  0  0  0  0  0  0  0
   -2.0565    0.9649    5.1327 H   0  0  0  0  0  0  0  0  0  0  0  0
   -0.7281   -0.2137    5.0125 H   0  0  0  0  0  0  0  0  0  0  0  0
  5  6  2  0  0  0  0
  5  7  1  0  0  0  0
  2  3  1  0  0  0  0
  2  4  1  0  0  0  0
  2  5  1  0  0  0  0
  1  2  1  0  0  0  0
 27 28  2  0  0  0  0
 27 29  1  0  0  0  0
 23 24  1  0  0  0  0
 23 25  1  0  0  0  0
 23 26  1  0  0  0  0
 20 21  1  0  0  0  0
 20 22  1  0  0  0  0
 20 23  1  0  0  0  0
 17 18  1  0  0  0  0
 17 19  1  0  0  0  0
 17 20  1  0  0  0  0
 14 15  1  0  0  0  0
 14 16  1  0  0  0  0
 14 17  1  0  0  0  0
 11 12  1  0  0  0  0
 11 13  1  0  0  0  0
 11 14  1  0  0  0  0
  9 10  1  0  0  0  0
  9 11  1  0  0  0  0
  9 27  1  0  0  0  0
  7  8  1  0  0  0  0
  7  9  1  0  0  0  0
 31 32  1  0  0  0  0
 31 33  1  0  0  0  0
 31 34  1  0  0  0  0
 29 30  1  0  0  0  0
 29 31  1  0  0  0  0
M  CHG  1  23   1
M  END
$$$$
default_name
  -OEChem-02102213163D

 34 33  0     1  0  0  0  0  0999 V2000
   -3.8899   -3.6747    1.6490 H   0  0  0  0  0  0  0  0  0  0  0  0
   -3.9109   -2.6717    1.2250 C   0  0  0  0  0  0  0  0  0  0  0  0
   -4.6009   -2.0517    1.7950 H   0  0  0  0  0  0  0  0  0  0  0  0
   -4.2309   -2.7237    0.1860 H   0  0  0  0  0  0  0  0  0  0  0  0
   -2.5229   -2.0787    1.2980 C   0  0  0  0  0  0  0  0  0  0  0  0
   -1.5999   -2.7227    1.7810 O   0  0  0  0  0  0  0  0  0  0  0  0
   -2.3659   -0.8447    0.8120 N   0  0  0  0  0  0  0  0  0  0  0  0
   -3.1749   -0.3807    0.4220 H   0  0  0  0  0  0  0  0  0  0  0  0
   -1.0919   -0.1077    0.8170 C   0  0  1  0  0  0  0  0  0  0  0  0
   -0.3571   -0.6901    0.2581 H   0  0  0  0  0  0  0  0  0  0  0  0
   -1.3037    1.2411    0.1040 C   0  0  0  0  0  0  0  0  0  0  0  0
   -0.3272    1.6638   -0.1373 H   0  0  0  0  0  0  0  0  0  0  0  0
   -1.8417    1.0721   -0.8309 H   0  0  0  0  0  0  0  0  0  0  0  0
   -2.0751    2.2621    0.9542 C   0  0  0  0  0  0  0  0  0  0  0  0
   -1.5884    3.2362    0.8900 H   0  0  0  0  0  0  0  0  0  0  0  0
   -3.0954    2.3477    0.5752 H   0  0  0  0  0  0  0  0  0  0  0  0
   -2.1143    1.8146    2.4220 C   0  0  0  0  0  0  0  0  0  0  0  0
   -2.5888    0.8322    2.4812 H   0  0  0  0  0  0  0  0  0  0  0  0
   -1.0923    1.7395    2.7987 H   0  0  0  0  0  0  0  0  0  0  0  0
   -2.9053    2.8204    3.2677 C   0  0  0  0  0  0  0  0  0  0  0  0
   -2.4191    3.7982    3.1890 H   0  0  0  0  0  0  0  0  0  0  0  0
   -3.9117    2.9118    2.8481 H   0  0  0  0  0  0  0  0  0  0  0  0
   -2.9793    2.3992    4.6895 N   0  3  0  0  0  0  0  0  0  0  0  0
   -2.0512    2.3230    5.0864 H   0  0  0  0  0  0  0  0  0  0  0  0
   -3.5043    3.0726    5.2334 H   0  0  0  0  0  0  0  0  0  0  0  0
   -3.4366    1.4983    4.7686 H   0  0  0  0  0  0  0  0  0  0  0  0
   -0.5865    0.0771    2.2496 C   0  0  0  0  0  0  0  0  0  0  0  0
    0.5860   -0.1608    2.5143 O   0  0  0  0  0  0  0  0  0  0  0  0
   -1.4786    0.4656    3.1667 N   0  0  0  0  0  0  0  0  0  0  0  0
   -2.4139    0.6698    2.8558 H   0  0  0  0  0  0  0  0  0  0  0  0
   -1.1587    0.6908    4.5775 C   0  0  0  0  0  0  0  0  0  0  0  0
   -0.4270    1.4968    4.6656 H   0  0  0  0  0  0  0  0  0  0  0  0
   -2.0565    0.9649    5.1327 H   0  0  0  0  0  0  0  0  0  0  0  0
   -0.7281   -0.2137    5.0125 H   0  0  0  0  0  0  0  0  0  0  0  0
  5  6  2  0  0  0  0
  5  7  1  0  0  0  0
  2  3  1  0  0  0  0
  2  4  1  0  0  0  0
  2  5  1  0  0  0  0
  1  2  1  0  0  0  0
 27 28  2  0  0  0  0
 27 29  1  0  0  0  0
 23 24  1  0  0  0  0
 23 25  1  0  0  0  0
 23 26  1  0  0  0  0
 20 21  1  0  0  0  0
 20 22  1  0  0  0  0
 20 23  1  0  0  0  0
 17 18  1  0  0  0  0
 17 19  1  0  0  0  0
 17 20  1  0  0  0  0
 14 15  1  0  0  0  0
 14 16  1  0  0  0  0
 14 17  1  0  0  0  0
 11 12  1  0  0  0  0
 11 13  1  0  0  0  0
 11 14  1  0  0  0  0
  9 10  1  0  0  0  0
  9 11  1  0  0  0  0
  9 27  1  0  0  0  0
  7  8  1  0  0  0  0
  7  9  1  0  0  0  0
 31 32  1  0  0  0  0
 31 33  1  0  0  0  0
 31 34  1  0  0  0  0
 29 30  1  0  0  0  0
 29 31  1  0  0  0  0
M  CHG  1  23   1
M  END
$$$$
default_name
  -OEChem-02102213163D

 34 33  0     1  0  0  0  0  0999 V2000
   -3.8899   -3.6747    1.6490 H   0  0  0  0  0  0  0  0  0  0  0  0
   -3.9109   -2.6717    1.2250 C   0  0  0  0  0  0  0  0  0  0  0  0
   -4.6009   -2.0517    1.7950 H   0  0  0  0  0  0  0  0  0  0  0  0
   -4.2309   -2.7237    0.1860 H   0  0  0  0  0  0  0  0  0  0  0  0
   -2.5229   -2.0787    1.2980 C   0  0  0  0  0  0  0  0  0  0  0  0
   -1.5999   -2.7227    1.7810 O   0  0  0  0  0  0  0  0  0  0  0  0
   -2.3659   -0.8447    0.8120 N   0  0  0  0  0  0  0  0  0  0  0  0
   -3.1749   -0.3807    0.4220 H   0  0  0  0  0  0  0  0  0  0  0  0
   -1.0919   -0.1077    0.8170 C   0  0  1  0  0  0  0  0  0  0  0  0
   -0.3571   -0.6901    0.2581 H   0  0  0  0  0  0  0  0  0  0  0  0
   -1.3037    1.2411    0.1040 C   0  0  0  0  0  0  0  0  0  0  0  0
   -0.3272    1.6638   -0.1373 H   0  0  0  0  0  0  0  0  0  0  0  0
   -1.8417    1.0721   -0.8309 H   0  0  0  0  0  0  0  0  0  0  0  0
   -2.0751    2.2621    0.9542 C   0  0  0  0  0  0  0  0  0  0  0  0
   -1.7618    3.2727    0.6888 H   0  0  0  0  0  0  0  0  0  0  0  0
   -3.1442    2.1576    0.7593 H   0  0  0  0  0  0  0  0  0  0  0  0
   -1.8055    2.0271    2.4469 C   0  0  0  0  0  0  0  0  0  0  0  0
   -2.1065    1.0092    2.7063 H   0  0  0  0  0  0  0  0  0  0  0  0
   -0.7367    2.1419    2.6381 H   0  0  0  0  0  0  0  0  0  0  0  0
   -2.5945    3.0299    3.2981 C   0  0  0  0  0  0  0  0  0  0  0  0
   -2.2846    4.0421    3.0182 H   0  0  0  0  0  0  0  0  0  0  0  0
   -3.6576    2.9271    3.0603 H   0  0  0  0  0  0  0  0  0  0  0  0
   -2.3704    2.8095    4.7492 N   0  3  0  0  0  0  0  0  0  0  0  0
   -1.3896    2.9137    4.9773 H   0  0  0  0  0  0  0  0  0  0  0  0
   -2.8977    3.4784    5.2964 H   0  0  0  0  0  0  0  0  0  0  0  0
   -2.6639    1.8768    5.0152 H   0  0  0  0  0  0  0  0  0  0  0  0
   -0.5865    0.0771    2.2496 C   0  0  0  0  0  0  0  0  0  0  0  0
    0.5860   -0.1608    2.5143 O   0  0  0  0  0  0  0  0  0  0  0  0
   -1.4786    0.4656    3.1667 N   0  0  0  0  0  0  0  0  0  0  0  0
   -2.4139    0.6698    2.8558 H   0  0  0  0  0  0  0  0  0  0  0  0
   -1.1587    0.6908    4.5775 C   0  0  0  0  0  0  0  0  0  0  0  0
   -0.4270    1.4968    4.6656 H   0  0  0  0  0  0  0  0  0  0  0  0
   -2.0565    0.9649    5.1327 H   0  0  0  0  0  0  0  0  0  0  0  0
   -0.7281   -0.2137    5.0125 H   0  0  0  0  0  0  0  0  0  0  0  0
  5  6  2  0  0  0  0
  5  7  1  0  0  0  0
  2  3  1  0  0  0  0
  2  4  1  0  0  0  0
  2  5  1  0  0  0  0
  1  2  1  0  0  0  0
 27 28  2  0  0  0  0
 27 29  1  0  0  0  0
 23 24  1  0  0  0  0
 23 25  1  0  0  0  0
 23 26  1  0  0  0  0
 20 21  1  0  0  0  0
 20 22  1  0  0  0  0
 20 23  1  0  0  0  0
 17 18  1  0  0  0  0
 17 19  1  0  0  0  0
 17 20  1  0  0  0  0
 14 15  1  0  0  0  0
 14 16  1  0  0  0  0
 14 17  1  0  0  0  0
 11 12  1  0  0  0  0
 11 13  1  0  0  0  0
 11 14  1  0  0  0  0
  9 10  1  0  0  0  0
  9 11  1  0  0  0  0
  9 27  1  0  0  0  0
  7  8  1  0  0  0  0
  7  9  1  0  0  0  0
 31 32  1  0  0  0  0
 31 33  1  0  0  0  0
 31 34  1  0  0  0  0
 29 30  1  0  0  0  0
 29 31  1  0  0  0  0
M  CHG  1  23   1
M  END
$$$$
default_name
  -OEChem-02102213163D

 34 33  0     1  0  0  0  0  0999 V2000
   -3.8899   -3.6747    1.6490 H   0  0  0  0  0  0  0  0  0  0  0  0
   -3.9109   -2.6717    1.2250 C   0  0  0  0  0  0  0  0  0  0  0  0
   -4.6009   -2.0517    1.7950 H   0  0  0  0  0  0  0  0  0  0  0  0
   -4.2309   -2.7237    0.1860 H   0  0  0  0  0  0  0  0  0  0  0  0
   -2.5229   -2.0787    1.2980 C   0  0  0  0  0  0  0  0  0  0  0  0
   -1.5999   -2.7227    1.7810 O   0  0  0  0  0  0  0  0  0  0  0  0
   -2.3659   -0.8447    0.8120 N   0  0  0  0  0  0  0  0  0  0  0  0
   -3.1749   -0.3807    0.4220 H   0  0  0  0  0  0  0  0  0  0  0  0
   -1.0919   -0.1077    0.8170 C   0  0  1  0  0  0  0  0  0  0  0  0
   -0.3571   -0.6901    0.2581 H   0  0  0  0  0  0  0  0  0  0  0  0
   -1.3037    1.2411    0.1040 C   0  0  0  0  0  0  0  0  0  0  0  0
   -0.3272    1.6638   -0.1373 H   0  0  0  0  0  0  0  0  0  0  0  0
   -1.8417    1.0721   -0.8309 H   0  0  0  0  0  0  0  0  0  0  0  0
   -2.0751    2.2621    0.9542 C   0  0  0  0  0  0  0  0  0  0  0  0
   -1.9692    3.2569    0.5196 H   0  0  0  0  0  0  0  0  0  0  0  0
   -3.1325    1.9908    0.9702 H   0  0  0  0  0  0  0  0  0  0  0  0
   -1.5335    2.2798    2.3903 C   0  0  0  0  0  0  0  0  0  0  0  0
   -1.6272    1.2786    2.8176 H   0  0  0  0  0  0  0  0  0  0  0  0
   -0.4786    2.5606    2.3695 H   0  0  0  0  0  0  0  0  0  0  0  0
   -2.3190    3.2808    3.2468 C   0  0  0  0  0  0  0  0  0  0  0  0
   -2.2190    4.2746    2.7984 H   0  0  0  0  0  0  0  0  0  0  0  0
   -3.3777    3.0059    3.2196 H   0  0  0  0  0  0  0  0  0  0  0  0
   -1.8307    3.3009    4.6488 N   0  3  0  0  0  0  0  0  0  0  0  0
   -0.8539    3.5650    4.6812 H   0  0  0  0  0  0  0  0  0  0  0  0
   -2.3590    3.9655    5.2002 H   0  0  0  0  0  0  0  0  0  0  0  0
   -1.9293    2.3851    5.0712 H   0  0  0  0  0  0  0  0  0  0  0  0
   -0.5865    0.0771    2.2496 C   0  0  0  0  0  0  0  0  0  0  0  0
    0.5860   -0.1608    2.5143 O   0  0  0  0  0  0  0  0  0  0  0  0
   -1.4786    0.4656    3.1667 N   0  0  0  0  0  0  0  0  0  0  0  0
   -2.4139    0.6698    2.8558 H   0  0  0  0  0  0  0  0  0  0  0  0
   -1.1587    0.6908    4.5775 C   0  0  0  0  0  0  0  0  0  0  0  0
   -0.4270    1.4968    4.6656 H   0  0  0  0  0  0  0  0  0  0  0  0
   -2.0565    0.9649    5.1327 H   0  0  0  0  0  0  0  0  0  0  0  0
   -0.7281   -0.2137    5.0125 H   0  0  0  0  0  0  0  0  0  0  0  0
  5  6  2  0  0  0  0
  5  7  1  0  0  0  0
  2  3  1  0  0  0  0
  2  4  1  0  0  0  0
  2  5  1  0  0  0  0
  1  2  1  0  0  0  0
 27 28  2  0  0  0  0
 27 29  1  0  0  0  0
 23 24  1  0  0  0  0
 23 25  1  0  0  0  0
 23 26  1  0  0  0  0
 20 21  1  0  0  0  0
 20 22  1  0  0  0  0
 20 23  1  0  0  0  0
 17 18  1  0  0  0  0
 17 19  1  0  0  0  0
 17 20  1  0  0  0  0
 14 15  1  0  0  0  0
 14 16  1  0  0  0  0
 14 17  1  0  0  0  0
 11 12  1  0  0  0  0
 11 13  1  0  0  0  0
 11 14  1  0  0  0  0
  9 10  1  0  0  0  0
  9 11  1  0  0  0  0
  9 27  1  0  0  0  0
  7  8  1  0  0  0  0
  7  9  1  0  0  0  0
 31 32  1  0  0  0  0
 31 33  1  0  0  0  0
 31 34  1  0  0  0  0
 29 30  1  0  0  0  0
 29 31  1  0  0  0  0
M  CHG  1  23   1
M  END
$$$$
default_name
  -OEChem-02102213163D

 34 33  0     1  0  0  0  0  0999 V2000
   -3.8899   -3.6747    1.6490 H   0  0  0  0  0  0  0  0  0  0  0  0
   -3.9109   -2.6717    1.2250 C   0  0  0  0  0  0  0  0  0  0  0  0
   -4.6009   -2.0517    1.7950 H   0  0  0  0  0  0  0  0  0  0  0  0
   -4.2309   -2.7237    0.1860 H   0  0  0  0  0  0  0  0  0  0  0  0
   -2.5229   -2.0787    1.2980 C   0  0  0  0  0  0  0  0  0  0  0  0
   -1.5999   -2.7227    1.7810 O   0  0  0  0  0  0  0  0  0  0  0  0
   -2.3659   -0.8447    0.8120 N   0  0  0  0  0  0  0  0  0  0  0  0
   -3.1749   -0.3807    0.4220 H   0  0  0  0  0  0  0  0  0  0  0  0
   -1.0919   -0.1077    0.8170 C   0  0  1  0  0  0  0  0  0  0  0  0
   -0.3571   -0.6901    0.2581 H   0  0  0  0  0  0  0  0  0  0  0  0
   -1.3037    1.2411    0.1040 C   0  0  0  0  0  0  0  0  0  0  0  0
   -0.3272    1.6638   -0.1373 H   0  0  0  0  0  0  0  0  0  0  0  0
   -1.8417    1.0721   -0.8309 H   0  0  0  0  0  0  0  0  0  0  0  0
   -2.0751    2.2621    0.9542 C   0  0  0  0  0  0  0  0  0  0  0  0
   -2.1963    3.1900    0.3938 H   0  0  0  0  0  0  0  0  0  0  0  0
   -3.0610    1.8588    1.1935 H   0  0  0  0  0  0  0  0  0  0  0  0
   -1.3166    2.5555    2.2560 C   0  0  0  0  0  0  0  0  0  0  0  0
   -1.1837    1.6219    2.8078 H   0  0  0  0  0  0  0  0  0  0  0  0
   -0.3354    2.9671    2.0113 H   0  0  0  0  0  0  0  0  0  0  0  0
   -2.0977    3.5559    3.1172 C   0  0  0  0  0  0  0  0  0  0  0  0
   -2.2267    4.4801    2.5446 H   0  0  0  0  0  0  0  0  0  0  0  0
   -3.0913    3.1427    3.3151 H   0  0  0  0  0  0  0  0  0  0  0  0
   -1.3970    3.8398    4.3951 N   0  3  0  0  0  0  0  0  0  0  0  0
   -0.4807    4.2322    4.2185 H   0  0  0  0  0  0  0  0  0  0  0  0
   -1.9250    4.5006    4.9514 H   0  0  0  0  0  0  0  0  0  0  0  0
   -1.2829    2.9886    4.9330 H   0  0  0  0  0  0  0  0  0  0  0  0
   -0.5865    0.0771    2.2496 C   0  0  0  0  0  0  0  0  0  0  0  0
    0.5860   -0.1608    2.5143 O   0  0  0  0  0  0  0  0  0  0  0  0
   -1.4786    0.4656    3.1667 N   0  0  0  0  0  0  0  0  0  0  0  0
   -2.4139    0.6698    2.8558 H   0  0  0  0  0  0  0  0  0  0  0  0
   -1.1587    0.6908    4.5775 C   0  0  0  0  0  0  0  0  0  0  0  0
   -0.4270    1.4968    4.6656 H   0  0  0  0  0  0  0  0  0  0  0  0
   -2.0565    0.9649    5.1327 H   0  0  0  0  0  0  0  0  0  0  0  0
   -0.7281   -0.2137    5.0125 H   0  0  0  0  0  0  0  0  0  0  0  0
  5  6  2  0  0  0  0
  5  7  1  0  0  0  0
  2  3  1  0  0  0  0
  2  4  1  0  0  0  0
  2  5  1  0  0  0  0
  1  2  1  0  0  0  0
 27 28  2  0  0  0  0
 27 29  1  0  0  0  0
 23 24  1  0  0  0  0
 23 25  1  0  0  0  0
 23 26  1  0  0  0  0
 20 21  1  0  0  0  0
 20 22  1  0  0  0  0
 20 23  1  0  0  0  0
 17 18  1  0  0  0  0
 17 19  1  0  0  0  0
 17 20  1  0  0  0  0
 14 15  1  0  0  0  0
 14 16  1  0  0  0  0
 14 17  1  0  0  0  0
 11 12  1  0  0  0  0
 11 13  1  0  0  0  0
 11 14  1  0  0  0  0
  9 10  1  0  0  0  0
  9 11  1  0  0  0  0
  9 27  1  0  0  0  0
  7  8  1  0  0  0  0
  7  9  1  0  0  0  0
 31 32  1  0  0  0  0
 31 33  1  0  0  0  0
 31 34  1  0  0  0  0
 29 30  1  0  0  0  0
 29 31  1  0  0  0  0
M  CHG  1  23   1
M  END
$$$$
default_name
  -OEChem-02102213163D

 34 33  0     1  0  0  0  0  0999 V2000
   -3.8899   -3.6747    1.6490 H   0  0  0  0  0  0  0  0  0  0  0  0
   -3.9109   -2.6717    1.2250 C   0  0  0  0  0  0  0  0  0  0  0  0
   -4.6009   -2.0517    1.7950 H   0  0  0  0  0  0  0  0  0  0  0  0
   -4.2309   -2.7237    0.1860 H   0  0  0  0  0  0  0  0  0  0  0  0
   -2.5229   -2.0787    1.2980 C   0  0  0  0  0  0  0  0  0  0  0  0
   -1.5999   -2.7227    1.7810 O   0  0  0  0  0  0  0  0  0  0  0  0
   -2.3659   -0.8447    0.8120 N   0  0  0  0  0  0  0  0  0  0  0  0
   -3.1749   -0.3807    0.4220 H   0  0  0  0  0  0  0  0  0  0  0  0
   -1.0919   -0.1077    0.8170 C   0  0  1  0  0  0  0  0  0  0  0  0
   -0.3571   -0.6901    0.2581 H   0  0  0  0  0  0  0  0  0  0  0  0
   -1.3037    1.2411    0.1040 C   0  0  0  0  0  0  0  0  0  0  0  0
   -0.3272    1.6638   -0.1373 H   0  0  0  0  0  0  0  0  0  0  0  0
   -1.8417    1.0721   -0.8309 H   0  0  0  0  0  0  0  0  0  0  0  0
   -2.0751    2.2621    0.9542 C   0  0  0  0  0  0  0  0  0  0  0  0
   -2.4278    3.0766    0.3201 H   0  0  0  0  0  0  0  0  0  0  0  0
   -2.9347    1.7706    1.4141 H   0  0  0  0  0  0  0  0  0  0  0  0
   -1.1697    2.8354    2.0531 C   0  0  0  0  0  0  0  0  0  0  0  0
   -0.8062    2.0157    2.6774 H   0  0  0  0  0  0  0  0  0  0  0  0
   -0.3169    3.3337    1.5878 H   0  0  0  0  0  0  0  0  0  0  0  0
   -1.9456    3.8365    2.9182 C   0  0  0  0  0  0  0  0  0  0  0  0
   -2.3073    4.6446    2.2741 H   0  0  0  0  0  0  0  0  0  0  0  0
   -2.8179    3.3284    3.3403 H   0  0  0  0  0  0  0  0  0  0  0  0
   -1.0990    4.3894    4.0055 N   0  3  0  0  0  0  0  0  0  0  0  0
   -0.2954    4.8701    3.6207 H   0  0  0  0  0  0  0  0  0  0  0  0
   -1.6253    5.0474    4.5668 H   0  0  0  0  0  0  0  0  0  0  0  0
   -0.7687    3.6462    4.6099 H   0  0  0  0  0  0  0  0  0  0  0  0
   -0.5865    0.0771    2.2496 C   0  0  0  0  0  0  0  0  0  0  0  0
    0.5860   -0.1608    2.5143 O   0  0  0  0  0  0  0  0  0  0  0  0
   -1.4786    0.4656    3.1667 N   0  0  0  0  0  0  0  0  0  0  0  0
   -2.4139    0.6698    2.8558 H   0  0  0  0  0  0  0  0  0  0  0  0
   -1.1587    0.6908    4.5775 C   0  0  0  0  0  0  0  0  0  0  0  0
   -0.4270    1.4968    4.6656 H   0  0  0  0  0  0  0  0  0  0  0  0
   -2.0565    0.9649    5.1327 H   0  0  0  0  0  0  0  0  0  0  0  0
   -0.7281   -0.2137    5.0125 H   0  0  0  0  0  0  0  0  0  0  0  0
  5  6  2  0  0  0  0
  5  7  1  0  0  0  0
  2  3  1  0  0  0  0
  2  4  1  0  0  0  0
  2  5  1  0  0  0  0
  1  2  1  0  0  0  0
 27 28  2  0  0  0  0
 27 29  1  0  0  0  0
 23 24  1  0  0  0  0
 23 25  1  0  0  0  0
 23 26  1  0  0  0  0
 20 21  1  0  0  0  0
 20 22  1  0  0  0  0
 20 23  1  0  0  0  0
 17 18  1  0  0  0  0
 17 19  1  0  0  0  0
 17 20  1  0  0  0  0
 14 15  1  0  0  0  0
 14 16  1  0  0  0  0
 14 17  1  0  0  0  0
 11 12  1  0  0  0  0
 11 13  1  0  0  0  0
 11 14  1  0  0  0  0
  9 10  1  0  0  0  0
  9 11  1  0  0  0  0
  9 27  1  0  0  0  0
  7  8  1  0  0  0  0
  7  9  1  0  0  0  0
 31 32  1  0  0  0  0
 31 33  1  0  0  0  0
 31 34  1  0  0  0  0
 29 30  1  0  0  0  0
 29 31  1  0  0  0  0
M  CHG  1  23   1
M  END
$$$$
default_name
  -OEChem-02102213163D

 34 33  0     1  0  0  0  0  0999 V2000
   -3.8899   -3.6747    1.6490 H   0  0  0  0  0  0  0  0  0  0  0  0
   -3.9109   -2.6717    1.2250 C   0  0  0  0  0  0  0  0  0  0  0  0
   -4.6009   -2.0517    1.7950 H   0  0  0  0  0  0  0  0  0  0  0  0
   -4.2309   -2.7237    0.1860 H   0  0  0  0  0  0  0  0  0  0  0  0
   -2.5229   -2.0787    1.2980 C   0  0  0  0  0  0  0  0  0  0  0  0
   -1.5999   -2.7227    1.7810 O   0  0  0  0  0  0  0  0  0  0  0  0
   -2.3659   -0.8447    0.8120 N   0  0  0  0  0  0  0  0  0  0  0  0
   -3.1749   -0.3807    0.4220 H   0  0  0  0  0  0  0  0  0  0  0  0
   -1.0919   -0.1077    0.8170 C   0  0  1  0  0  0  0  0  0  0  0  0
   -0.3571   -0.6901    0.2581 H   0  0  0  0  0  0  0  0  0  0  0  0
   -1.3037    1.2411    0.1040 C   0  0  0  0  0  0  0  0  0  0  0  0
   -0.3272    1.6638   -0.1373 H   0  0  0  0  0  0  0  0  0  0  0  0
   -1.8417    1.0721   -0.8309 H   0  0  0  0  0  0  0  0  0  0  0  0
   -2.0751    2.2621    0.9542 C   0  0  0  0  0  0  0  0  0  0  0  0
   -2.6478    2.9242    0.3034 H   0  0  0  0  0  0  0  0  0  0  0  0
   -2.7620    1.7321    1.6170 H   0  0  0  0  0  0  0  0  0  0  0  0
   -1.1028    3.1005    1.7955 C   0  0  0  0  0  0  0  0  0  0  0  0
   -0.5204    2.4332    2.4353 H   0  0  0  0  0  0  0  0  0  0  0  0
   -0.4244    3.6354    1.1280 H   0  0  0  0  0  0  0  0  0  0  0  0
   -1.8731    4.1035    2.6634 C   0  0  0  0  0  0  0  0  0  0  0  0
   -2.4552    4.7567    2.0053 H   0  0  0  0  0  0  0  0  0  0  0  0
   -2.5760    3.5501    3.2934 H   0  0  0  0  0  0  0  0  0  0  0  0
   -0.9568    4.9124    3.5064 N   0  3  0  0  0  0  0  0  0  0  0  0
   -0.3105    5.4351    2.9285 H   0  0  0  0  0  0  0  0  0  0  0  0
   -1.4802    5.5684    4.0727 H   0  0  0  0  0  0  0  0  0  0  0  0
   -0.4218    4.3130    4.1239 H   0  0  0  0  0  0  0  0  0  0  0  0
   -0.5865    0.0771    2.2496 C   0  0  0  0  0  0  0  0  0  0  0  0
    0.5860   -0.1608    2.5143 O   0  0  0  0  0  0  0  0  0  0  0  0
   -1.4786    0.4656    3.1667 N   0  0  0  0  0  0  0  0  0  0  0  0
   -2.4139    0.6698    2.8558 H   0  0  0  0  0  0  0  0  0  0  0  0
   -1.1587    0.6908    4.5775 C   0  0  0  0  0  0  0  0  0  0  0  0
   -0.4270    1.4968    4.6656 H   0  0  0  0  0  0  0  0  0  0  0  0
   -2.0565    0.9649    5.1327 H   0  0  0  0  0  0  0  0  0  0  0  0
   -0.7281   -0.2137    5.0125 H   0  0  0  0  0  0  0  0  0  0  0  0
  5  6  2  0  0  0  0
  5  7  1  0  0  0  0
  2  3  1  0  0  0  0
  2  4  1  0  0  0  0
  2  5  1  0  0  0  0
  1  2  1  0  0  0  0
 27 28  2  0  0  0  0
 27 29  1  0  0  0  0
 23 24  1  0  0  0  0
 23 25  1  0  0  0  0
 23 26  1  0  0  0  0
 20 21  1  0  0  0  0
 20 22  1  0  0  0  0
 20 23  1  0  0  0  0
 17 18  1  0  0  0  0
 17 19  1  0  0  0  0
 17 20  1  0  0  0  0
 14 15  1  0  0  0  0
 14 16  1  0  0  0  0
 14 17  1  0  0  0  0
 11 12  1  0  0  0  0
 11 13  1  0  0  0  0
 11 14  1  0  0  0  0
  9 10  1  0  0  0  0
  9 11  1  0  0  0  0
  9 27  1  0  0  0  0
  7  8  1  0  0  0  0
  7  9  1  0  0  0  0
 31 32  1  0  0  0  0
 31 33  1  0  0  0  0
 31 34  1  0  0  0  0
 29 30  1  0  0  0  0
 29 31  1  0  0  0  0
M  CHG  1  23   1
M  END
$$$$
default_name
  -OEChem-02102213163D

 34 33  0     1  0  0  0  0  0999 V2000
   -3.8899   -3.6747    1.6490 H   0  0  0  0  0  0  0  0  0  0  0  0
   -3.9109   -2.6717    1.2250 C   0  0  0  0  0  0  0  0  0  0  0  0
   -4.6009   -2.0517    1.7950 H   0  0  0  0  0  0  0  0  0  0  0  0
   -4.2309   -2.7237    0.1860 H   0  0  0  0  0  0  0  0  0  0  0  0
   -2.5229   -2.0787    1.2980 C   0  0  0  0  0  0  0  0  0  0  0  0
   -1.5999   -2.7227    1.7810 O   0  0  0  0  0  0  0  0  0  0  0  0
   -2.3659   -0.8447    0.8120 N   0  0  0  0  0  0  0  0  0  0  0  0
   -3.1749   -0.3807    0.4220 H   0  0  0  0  0  0  0  0  0  0  0  0
   -1.0919   -0.1077    0.8170 C   0  0  1  0  0  0  0  0  0  0  0  0
   -0.3571   -0.6901    0.2581 H   0  0  0  0  0  0  0  0  0  0  0  0
   -1.3037    1.2411    0.1040 C   0  0  0  0  0  0  0  0  0  0  0  0
   -0.3272    1.6638   -0.1373 H   0  0  0  0  0  0  0  0  0  0  0  0
   -1.8417    1.0721   -0.8309 H   0  0  0  0  0  0  0  0  0  0  0  0
   -2.0751    2.2621    0.9542 C   0  0  0  0  0  0  0  0  0  0  0  0
   -2.8414    2.7434    0.3450 H   0  0  0  0  0  0  0  0  0  0  0  0
   -2.5549    1.7460    1.7882 H   0  0  0  0  0  0  0  0  0  0  0  0
   -1.1205    3.3326    1.5007 C   0  0  0  0  0  0  0  0  0  0  0  0
   -0.3457    2.8460    2.0980 H   0  0  0  0  0  0  0  0  0  0  0  0
   -0.6505    3.8517    0.6630 H   0  0  0  0  0  0  0  0  0  0  0  0
   -1.8851    4.3386    2.3702 C   0  0  0  0  0  0  0  0  0  0  0  0
   -2.6604    4.8088    1.7565 H   0  0  0  0  0  0  0  0  0  0  0  0
   -2.3822    3.7928    3.1778 H   0  0  0  0  0  0  0  0  0  0  0  0
   -0.9803    5.3731    2.9319 N   0  3  0  0  0  0  0  0  0  0  0  0
   -0.5252    5.8887    2.1890 H   0  0  0  0  0  0  0  0  0  0  0  0
   -1.4997    6.0283    3.5028 H   0  0  0  0  0  0  0  0  0  0  0  0
   -0.2659    4.9436    3.5081 H   0  0  0  0  0  0  0  0  0  0  0  0
   -0.5865    0.0771    2.2496 C   0  0  0  0  0  0  0  0  0  0  0  0
    0.5860   -0.1608    2.5143 O   0  0  0  0  0  0  0  0  0  0  0  0
   -1.4786    0.4656    3.1667 N   0  0  0  0  0  0  0  0  0  0  0  0
   -2.4139    0.6698    2.8558 H   0  0  0  0  0  0  0  0  0  0  0  0
   -1.1587    0.6908    4.5775 C   0  0  0  0  0  0  0  0  0  0  0  0
   -0.4270    1.4968    4.6656 H   0  0  0  0  0  0  0  0  0  0  0  0
   -2.0565    0.9649    5.1327 H   0  0  0  0  0  0  0  0  0  0  0  0
   -0.7281   -0.2137    5.0125 H   0  0  0  0  0  0  0  0  0  0  0  0
  5  6  2  0  0  0  0
  5  7  1  0  0  0  0
  2  3  1  0  0  0  0
  2  4  1  0  0  0  0
  2  5  1  0  0  0  0
  1  2  1  0  0  0  0
 27 28  2  0  0  0  0
 27 29  1  0  0  0  0
 23 24  1  0  0  0  0
 23 25  1  0  0  0  0
 23 26  1  0  0  0  0
 20 21  1  0  0  0  0
 20 22  1  0  0  0  0
 20 23  1  0  0  0  0
 17 18  1  0  0  0  0
 17 19  1  0  0  0  0
 17 20  1  0  0  0  0
 14 15  1  0  0  0  0
 14 16  1  0  0  0  0
 14 17  1  0  0  0  0
 11 12  1  0  0  0  0
 11 13  1  0  0  0  0
 11 14  1  0  0  0  0
  9 10  1  0  0  0  0
  9 11  1  0  0  0  0
  9 27  1  0  0  0  0
  7  8  1  0  0  0  0
  7  9  1  0  0  0  0
 31 32  1  0  0  0  0
 31 33  1  0  0  0  0
 31 34  1  0  0  0  0
 29 30  1  0  0  0  0
 29 31  1  0  0  0  0
M  CHG  1  23   1
M  END
$$$$
default_name
  -OEChem-02102213163D

 34 33  0     1  0  0  0  0  0999 V2000
   -3.8899   -3.6747    1.6490 H   0  0  0  0  0  0  0  0  0  0  0  0
   -3.9109   -2.6717    1.2250 C   0  0  0  0  0  0  0  0  0  0  0  0
   -4.6009   -2.0517    1.7950 H   0  0  0  0  0  0  0  0  0  0  0  0
   -4.2309   -2.7237    0.1860 H   0  0  0  0  0  0  0  0  0  0  0  0
   -2.5229   -2.0787    1.2980 C   0  0  0  0  0  0  0  0  0  0  0  0
   -1.5999   -2.7227    1.7810 O   0  0  0  0  0  0  0  0  0  0  0  0
   -2.3659   -0.8447    0.8120 N   0  0  0  0  0  0  0  0  0  0  0  0
   -3.1749   -0.3807    0.4220 H   0  0  0  0  0  0  0  0  0  0  0  0
   -1.0919   -0.1077    0.8170 C   0  0  1  0  0  0  0  0  0  0  0  0
   -0.3571   -0.6901    0.2581 H   0  0  0  0  0  0  0  0  0  0  0  0
   -1.3037    1.2411    0.1040 C   0  0  0  0  0  0  0  0  0  0  0  0
   -0.3272    1.6638   -0.1373 H   0  0  0  0  0  0  0  0  0  0  0  0
   -1.8417    1.0721   -0.8309 H   0  0  0  0  0  0  0  0  0  0  0  0
   -2.0751    2.2621    0.9542 C   0  0  0  0  0  0  0  0  0  0  0  0
   -2.9953    2.5464    0.4419 H   0  0  0  0  0  0  0  0  0  0  0  0
   -2.3273    1.8114    1.9161 H   0  0  0  0  0  0  0  0  0  0  0  0
   -1.2215    3.5160    1.1889 C   0  0  0  0  0  0  0  0  0  0  0  0
   -0.2942    3.2259    1.6886 H   0  0  0  0  0  0  0  0  0  0  0  0
   -0.9799    3.9678    0.2247 H   0  0  0  0  0  0  0  0  0  0  0  0
   -1.9808    4.5259    2.0584 C   0  0  0  0  0  0  0  0  0  0  0  0
   -2.9088    4.7975    1.5447 H   0  0  0  0  0  0  0  0  0  0  0  0
   -2.2496    4.0401    3.0012 H   0  0  0  0  0  0  0  0  0  0  0  0
   -1.1677    5.7401    2.3212 N   0  3  0  0  0  0  0  0  0  0  0  0
   -0.9247    6.2000    1.4527 H   0  0  0  0  0  0  0  0  0  0  0  0
   -1.6824    6.3957    2.8959 H   0  0  0  0  0  0  0  0  0  0  0  0
   -0.3114    5.4950    2.8046 H   0  0  0  0  0  0  0  0  0  0  0  0
   -0.5865    0.0771    2.2496 C   0  0  0  0  0  0  0  0  0  0  0  0
    0.5860   -0.1608    2.5143 O   0  0  0  0  0  0  0  0  0  0  0  0
   -1.4786    0.4656    3.1667 N   0  0  0  0  0  0  0  0  0  0  0  0
   -2.4139    0.6698    2.8558 H   0  0  0  0  0  0  0  0  0  0  0  0
   -1.1587    0.6908    4.5775 C   0  0  0  0  0  0  0  0  0  0  0  0
   -0.4270    1.4968    4.6656 H   0  0  0  0  0  0  0  0  0  0  0  0
   -2.0565    0.9649    5.1327 H   0  0  0  0  0  0  0  0  0  0  0  0
   -0.7281   -0.2137    5.0125 H   0  0  0  0  0  0  0  0  0  0  0  0
  5  6  2  0  0  0  0
  5  7  1  0  0  0  0
  2  3  1  0  0  0  0
  2  4  1  0  0  0  0
  2  5  1  0  0  0  0
  1  2  1  0  0  0  0
 27 28  2  0  0  0  0
 27 29  1  0  0  0  0
 23 24  1  0  0  0  0
 23 25  1  0  0  0  0
 23 26  1  0  0  0  0
 20 21  1  0  0  0  0
 20 22  1  0  0  0  0
 20 23  1  0  0  0  0
 17 18  1  0  0  0  0
 17 19  1  0  0  0  0
 17 20  1  0  0  0  0
 14 15  1  0  0  0  0
 14 16  1  0  0  0  0
 14 17  1  0  0  0  0
 11 12  1  0  0  0  0
 11 13  1  0  0  0  0
 11 14  1  0  0  0  0
  9 10  1  0  0  0  0
  9 11  1  0  0  0  0
  9 27  1  0  0  0  0
  7  8  1  0  0  0  0
  7  9  1  0  0  0  0
 31 32  1  0  0  0  0
 31 33  1  0  0  0  0
 31 34  1  0  0  0  0
 29 30  1  0  0  0  0
 29 31  1  0  0  0  0
M  CHG  1  23   1
M  END
$$$$
default_name
  -OEChem-02102213163D

 34 33  0     1  0  0  0  0  0999 V2000
   -3.8899   -3.6747    1.6490 H   0  0  0  0  0  0  0  0  0  0  0  0
   -3.9109   -2.6717    1.2250 C   0  0  0  0  0  0  0  0  0  0  0  0
   -4.6009   -2.0517    1.7950 H   0  0  0  0  0  0  0  0  0  0  0  0
   -4.2309   -2.7237    0.1860 H   0  0  0  0  0  0  0  0  0  0  0  0
   -2.5229   -2.0787    1.2980 C   0  0  0  0  0  0  0  0  0  0  0  0
   -1.5999   -2.7227    1.7810 O   0  0  0  0  0  0  0  0  0  0  0  0
   -2.3659   -0.8447    0.8120 N   0  0  0  0  0  0  0  0  0  0  0  0
   -3.1749   -0.3807    0.4220 H   0  0  0  0  0  0  0  0  0  0  0  0
   -1.0919   -0.1077    0.8170 C   0  0  1  0  0  0  0  0  0  0  0  0
   -0.3571   -0.6901    0.2581 H   0  0  0  0  0  0  0  0  0  0  0  0
   -1.3037    1.2411    0.1040 C   0  0  0  0  0  0  0  0  0  0  0  0
   -0.3272    1.6638   -0.1373 H   0  0  0  0  0  0  0  0  0  0  0  0
   -1.8417    1.0721   -0.8309 H   0  0  0  0  0  0  0  0  0  0  0  0
   -2.0751    2.2621    0.9542 C   0  0  0  0  0  0  0  0  0  0  0  0
   -3.0990    2.3466    0.5876 H   0  0  0  0  0  0  0  0  0  0  0  0
   -2.0949    1.9238    1.9920 H   0  0  0  0  0  0  0  0  0  0  0  0
   -1.3990    3.6381    0.8812 C   0  0  0  0  0  0  0  0  0  0  0  0
   -0.3692    3.5471    1.2349 H   0  0  0  0  0  0  0  0  0  0  0  0
   -1.3901    3.9759   -0.1571 H   0  0  0  0  0  0  0  0  0  0  0  0
   -2.1538    4.6526    1.7493 C   0  0  0  0  0  0  0  0  0  0  0  0
   -3.1836    4.7235    1.3843 H   0  0  0  0  0  0  0  0  0  0  0  0
   -2.1873    4.2749    2.7757 H   0  0  0  0  0  0  0  0  0  0  0  0
   -1.5063    5.9883    1.7158 N   0  3  0  0  0  0  0  0  0  0  0  0
   -1.4818    6.3478    0.7698 H   0  0  0  0  0  0  0  0  0  0  0  0
   -2.0158    6.6455    2.2934 H   0  0  0  0  0  0  0  0  0  0  0  0
   -0.5555    5.9297    2.0612 H   0  0  0  0  0  0  0  0  0  0  0  0
   -0.5865    0.0771    2.2496 C   0  0  0  0  0  0  0  0  0  0  0  0
    0.5860   -0.1608    2.5143 O   0  0  0  0  0  0  0  0  0  0  0  0
   -1.4786    0.4656    3.1667 N   0  0  0  0  0  0  0  0  0  0  0  0
   -2.4139    0.6698    2.8558 H   0  0  0  0  0  0  0  0  0  0  0  0
   -1.1587    0.6908    4.5775 C   0  0  0  0  0  0  0  0  0  0  0  0
   -0.4270    1.4968    4.6656 H   0  0  0  0  0  0  0  0  0  0  0  0
   -2.0565    0.9649    5.1327 H   0  0  0  0  0  0  0  0  0  0  0  0
   -0.7281   -0.2137    5.0125 H   0  0  0  0  0  0  0  0  0  0  0  0
  5  6  2  0  0  0  0
  5  7  1  0  0  0  0
  2  3  1  0  0  0  0
  2  4  1  0  0  0  0
  2  5  1  0  0  0  0
  1  2  1  0  0  0  0
 27 28  2  0  0  0  0
 27 29  1  0  0  0  0
 23 24  1  0  0  0  0
 23 25  1  0  0  0  0
 23 26  1  0  0  0  0
 20 21  1  0  0  0  0
 20 22  1  0  0  0  0
 20 23  1  0  0  0  0
 17 18  1  0  0  0  0
 17 19  1  0  0  0  0
 17 20  1  0  0  0  0
 14 15  1  0  0  0  0
 14 16  1  0  0  0  0
 14 17  1  0  0  0  0
 11 12  1  0  0  0  0
 11 13  1  0  0  0  0
 11 14  1  0  0  0  0
  9 10  1  0  0  0  0
  9 11  1  0  0  0  0
  9 27  1  0  0  0  0
  7  8  1  0  0  0  0
  7  9  1  0  0  0  0
 31 32  1  0  0  0  0
 31 33  1  0  0  0  0
 31 34  1  0  0  0  0
 29 30  1  0  0  0  0
 29 31  1  0  0  0  0
M  CHG  1  23   1
M  END
$$$$
default_name
  -OEChem-02102213163D

 34 33  0     1  0  0  0  0  0999 V2000
   -3.8899   -3.6747    1.6490 H   0  0  0  0  0  0  0  0  0  0  0  0
   -3.9109   -2.6717    1.2250 C   0  0  0  0  0  0  0  0  0  0  0  0
   -4.6009   -2.0517    1.7950 H   0  0  0  0  0  0  0  0  0  0  0  0
   -4.2309   -2.7237    0.1860 H   0  0  0  0  0  0  0  0  0  0  0  0
   -2.5229   -2.0787    1.2980 C   0  0  0  0  0  0  0  0  0  0  0  0
   -1.5999   -2.7227    1.7810 O   0  0  0  0  0  0  0  0  0  0  0  0
   -2.3659   -0.8447    0.8120 N   0  0  0  0  0  0  0  0  0  0  0  0
   -3.1749   -0.3807    0.4220 H   0  0  0  0  0  0  0  0  0  0  0  0
   -1.0919   -0.1077    0.8170 C   0  0  1  0  0  0  0  0  0  0  0  0
   -0.3571   -0.6901    0.2581 H   0  0  0  0  0  0  0  0  0  0  0  0
   -1.3037    1.2411    0.1040 C   0  0  0  0  0  0  0  0  0  0  0  0
   -0.3272    1.6638   -0.1373 H   0  0  0  0  0  0  0  0  0  0  0  0
   -1.8417    1.0721   -0.8309 H   0  0  0  0  0  0  0  0  0  0  0  0
   -2.0751    2.2621    0.9542 C   0  0  0  0  0  0  0  0  0  0  0  0
   -3.1456    2.1578    0.7722 H   0  0  0  0  0  0  0  0  0  0  0  0
   -1.8734    2.0755    2.0108 H   0  0  0  0  0  0  0  0  0  0  0  0
   -1.6408    3.6907    0.5986 C   0  0  0  0  0  0  0  0  0  0  0  0
   -0.5657    3.7876    0.7678 H   0  0  0  0  0  0  0  0  0  0  0  0
   -1.8532    3.8753   -0.4563 H   0  0  0  0  0  0  0  0  0  0  0  0
   -2.3921    4.7100    1.4641 C   0  0  0  0  0  0  0  0  0  0  0  0
   -3.4660    4.5918    1.2863 H   0  0  0  0  0  0  0  0  0  0  0  0
   -2.1996    4.4813    2.5167 H   0  0  0  0  0  0  0  0  0  0  0  0
   -1.9731    6.1010    1.1571 N   0  3  0  0  0  0  0  0  0  0  0  0
   -2.1586    6.3221    0.1867 H   0  0  0  0  0  0  0  0  0  0  0  0
   -2.4774    6.7607    1.7363 H   0  0  0  0  0  0  0  0  0  0  0  0
   -0.9813    6.2180    1.3286 H   0  0  0  0  0  0  0  0  0  0  0  0
   -0.5865    0.0771    2.2496 C   0  0  0  0  0  0  0  0  0  0  0  0
    0.5860   -0.1608    2.5143 O   0  0  0  0  0  0  0  0  0  0  0  0
   -1.4786    0.4656    3.1667 N   0  0  0  0  0  0  0  0  0  0  0  0
   -2.4139    0.6698    2.8558 H   0  0  0  0  0  0  0  0  0  0  0  0
   -1.1587    0.6908    4.5775 C   0  0  0  0  0  0  0  0  0  0  0  0
   -0.4270    1.4968    4.6656 H   0  0  0  0  0  0  0  0  0  0  0  0
   -2.0565    0.9649    5.1327 H   0  0  0  0  0  0  0  0  0  0  0  0
   -0.7281   -0.2137    5.0125 H   0  0  0  0  0  0  0  0  0  0  0  0
  5  6  2  0  0  0  0
  5  7  1  0  0  0  0
  2  3  1  0  0  0  0
  2  4  1  0  0  0  0
  2  5  1  0  0  0  0
  1  2  1  0  0  0  0
 27 28  2  0  0  0  0
 27 29  1  0  0  0  0
 23 24  1  0  0  0  0
 23 25  1  0  0  0  0
 23 26  1  0  0  0  0
 20 21  1  0  0  0  0
 20 22  1  0  0  0  0
 20 23  1  0  0  0  0
 17 18  1  0  0  0  0
 17 19  1  0  0  0  0
 17 20  1  0  0  0  0
 14 15  1  0  0  0  0
 14 16  1  0  0  0  0
 14 17  1  0  0  0  0
 11 12  1  0  0  0  0
 11 13  1  0  0  0  0
 11 14  1  0  0  0  0
  9 10  1  0  0  0  0
  9 11  1  0  0  0  0
  9 27  1  0  0  0  0
  7  8  1  0  0  0  0
  7  9  1  0  0  0  0
 31 32  1  0  0  0  0
 31 33  1  0  0  0  0
 31 34  1  0  0  0  0
 29 30  1  0  0  0  0
 29 31  1  0  0  0  0
M  CHG  1  23   1
M  END
$$$$
default_name
  -OEChem-02102213163D

 34 33  0     1  0  0  0  0  0999 V2000
   -3.8899   -3.6747    1.6490 H   0  0  0  0  0  0  0  0  0  0  0  0
   -3.9109   -2.6717    1.2250 C   0  0  0  0  0  0  0  0  0  0  0  0
   -4.6009   -2.0517    1.7950 H   0  0  0  0  0  0  0  0  0  0  0  0
   -4.2309   -2.7237    0.1860 H   0  0  0  0  0  0  0  0  0  0  0  0
   -2.5229   -2.0787    1.2980 C   0  0  0  0  0  0  0  0  0  0  0  0
   -1.5999   -2.7227    1.7810 O   0  0  0  0  0  0  0  0  0  0  0  0
   -2.3659   -0.8447    0.8120 N   0  0  0  0  0  0  0  0  0  0  0  0
   -3.1749   -0.3807    0.4220 H   0  0  0  0  0  0  0  0  0  0  0  0
   -1.0919   -0.1077    0.8170 C   0  0  1  0  0  0  0  0  0  0  0  0
   -0.3571   -0.6901    0.2581 H   0  0  0  0  0  0  0  0  0  0  0  0
   -1.3037    1.2411    0.1040 C   0  0  0  0  0  0  0  0  0  0  0  0
   -0.3272    1.6638   -0.1373 H   0  0  0  0  0  0  0  0  0  0  0  0
   -1.8417    1.0721   -0.8309 H   0  0  0  0  0  0  0  0  0  0  0  0
   -2.0751    2.2621    0.9542 C   0  0  0  0  0  0  0  0  0  0  0  0
   -3.1318    1.9927    0.9830 H   0  0  0  0  0  0  0  0  0  0  0  0
   -1.6779    2.2562    1.9711 H   0  0  0  0  0  0  0  0  0  0  0  0
   -1.9306    3.6701    0.3605 C   0  0  0  0  0  0  0  0  0  0  0  0
   -0.8703    3.9310    0.3192 H   0  0  0  0  0  0  0  0  0  0  0  0
   -2.3375    3.6729   -0.6527 H   0  0  0  0  0  0  0  0  0  0  0  0
   -2.6796    4.6943    1.2222 C   0  0  0  0  0  0  0  0  0  0  0  0
   -3.7367    4.4114    1.2573 H   0  0  0  0  0  0  0  0  0  0  0  0
   -2.2856    4.6453    2.2418 H   0  0  0  0  0  0  0  0  0  0  0  0
   -2.5363    6.0703    0.6830 N   0  3  0  0  0  0  0  0  0  0  0  0
   -2.9089    6.1245   -0.2567 H   0  0  0  0  0  0  0  0  0  0  0  0
   -3.0355    6.7335    1.2626 H   0  0  0  0  0  0  0  0  0  0  0  0
   -1.5599    6.3403    0.6567 H   0  0  0  0  0  0  0  0  0  0  0  0
   -0.5865    0.0771    2.2496 C   0  0  0  0  0  0  0  0  0  0  0  0
    0.5860   -0.1608    2.5143 O   0  0  0  0  0  0  0  0  0  0  0  0
   -1.4786    0.4656    3.1667 N   0  0  0  0  0  0  0  0  0  0  0  0
   -2.4139    0.6698    2.8558 H   0  0  0  0  0  0  0  0  0  0  0  0
   -1.1587    0.6908    4.5775 C   0  0  0  0  0  0  0  0  0  0  0  0
   -0.4270    1.4968    4.6656 H   0  0  0  0  0  0  0  0  0  0  0  0
   -2.0565    0.9649    5.1327 H   0  0  0  0  0  0  0  0  0  0  0  0
   -0.7281   -0.2137    5.0125 H   0  0  0  0  0  0  0  0  0  0  0  0
  5  6  2  0  0  0  0
  5  7  1  0  0  0  0
  2  3  1  0  0  0  0
  2  4  1  0  0  0  0
  2  5  1  0  0  0  0
  1  2  1  0  0  0  0
 27 28  2  0  0  0  0
 27 29  1  0  0  0  0
 23 24  1  0  0  0  0
 23 25  1  0  0  0  0
 23 26  1  0  0  0  0
 20 21  1  0  0  0  0
 20 22  1  0  0  0  0
 20 23  1  0  0  0  0
 17 18  1  0  0  0  0
 17 19  1  0  0  0  0
 17 20  1  0  0  0  0
 14 15  1  0  0  0  0
 14 16  1  0  0  0  0
 14 17  1  0  0  0  0
 11 12  1  0  0  0  0
 11 13  1  0  0  0  0
 11 14  1  0  0  0  0
  9 10  1  0  0  0  0
  9 11  1  0  0  0  0
  9 27  1  0  0  0  0
  7  8  1  0  0  0  0
  7  9  1  0  0  0  0
 31 32  1  0  0  0  0
 31 33  1  0  0  0  0
 31 34  1  0  0  0  0
 29 30  1  0  0  0  0
 29 31  1  0  0  0  0
M  CHG  1  23   1
M  END
$$$$
default_name
  -OEChem-02102213163D

 34 33  0     1  0  0  0  0  0999 V2000
   -3.8899   -3.6747    1.6490 H   0  0  0  0  0  0  0  0  0  0  0  0
   -3.9109   -2.6717    1.2250 C   0  0  0  0  0  0  0  0  0  0  0  0
   -4.6009   -2.0517    1.7950 H   0  0  0  0  0  0  0  0  0  0  0  0
   -4.2309   -2.7237    0.1860 H   0  0  0  0  0  0  0  0  0  0  0  0
   -2.5229   -2.0787    1.2980 C   0  0  0  0  0  0  0  0  0  0  0  0
   -1.5999   -2.7227    1.7810 O   0  0  0  0  0  0  0  0  0  0  0  0
   -2.3659   -0.8447    0.8120 N   0  0  0  0  0  0  0  0  0  0  0  0
   -3.1749   -0.3807    0.4220 H   0  0  0  0  0  0  0  0  0  0  0  0
   -1.0919   -0.1077    0.8170 C   0  0  1  0  0  0  0  0  0  0  0  0
   -0.3571   -0.6901    0.2581 H   0  0  0  0  0  0  0  0  0  0  0  0
   -1.3037    1.2411    0.1040 C   0  0  0  0  0  0  0  0  0  0  0  0
   -0.3662    1.5341   -0.3710 H   0  0  0  0  0  0  0  0  0  0  0  0
   -2.0572    1.1197   -0.6768 H   0  0  0  0  0  0  0  0  0  0  0  0
   -1.7367    2.3681    1.0542 C   0  0  0  0  0  0  0  0  0  0  0  0
   -2.6759    2.0990    1.5394 H   0  0  0  0  0  0  0  0  0  0  0  0
   -0.9689    2.5096    1.8173 H   0  0  0  0  0  0  0  0  0  0  0  0
   -1.9284    3.6780    0.2774 C   0  0  0  0  0  0  0  0  0  0  0  0
   -0.9904    3.9368   -0.2195 H   0  0  0  0  0  0  0  0  0  0  0  0
   -2.7034    3.5339   -0.4780 H   0  0  0  0  0  0  0  0  0  0  0  0
   -2.3366    4.8099    1.2286 C   0  0  0  0  0  0  0  0  0  0  0  0
   -3.2728    4.5284    1.7215 H   0  0  0  0  0  0  0  0  0  0  0  0
   -1.5679    4.9091    2.0010 H   0  0  0  0  0  0  0  0  0  0  0  0
   -2.5057    6.0959    0.5060 N   0  3  0  0  0  0  0  0  0  0  0  0
   -3.2234    6.0134   -0.2032 H   0  0  0  0  0  0  0  0  0  0  0  0
   -2.7745    6.8318    1.1472 H   0  0  0  0  0  0  0  0  0  0  0  0
   -1.6391    6.3654    0.0552 H   0  0  0  0  0  0  0  0  0  0  0  0
   -0.5865    0.0771    2.2496 C   0  0  0  0  0  0  0  0  0  0  0  0
    0.5860   -0.1608    2.5143 O   0  0  0  0  0  0  0  0  0  0  0  0
   -1.4786    0.4656    3.1667 N   0  0  0  0  0  0  0  0  0  0  0  0
   -2.4139    0.6698    2.8558 H   0  0  0  0  0  0  0  0  0  0  0  0
   -1.1587    0.6908    4.5775 C   0  0  0  0  0  0  0  0  0  0  0  0
   -0.4270    1.4968    4.6656 H   0  0  0  0  0  0  0  0  0  0  0  0
   -2.0565    0.9649    5.1327 H   0  0  0  0  0  0  0  0  0  0  0  0
   -0.7281   -0.2137    5.0125 H   0  0  0  0  0  0  0  0  0  0  0  0
  5  6  2  0  0  0  0
  5  7  1  0  0  0  0
  2  3  1  0  0  0  0
  2  4  1  0  0  0  0
  2  5  1  0  0  0  0
  1  2  1  0  0  0  0
 27 28  2  0  0  0  0
 27 29  1  0  0  0  0
 23 24  1  0  0  0  0
 23 25  1  0  0  0  0
 23 26  1  0  0  0  0
 20 21  1  0  0  0  0
 20 22  1  0  0  0  0
 20 23  1  0  0  0  0
 17 18  1  0  0  0  0
 17 19  1  0  0  0  0
 17 20  1  0  0  0  0
 14 15  1  0  0  0  0
 14 16  1  0  0  0  0
 14 17  1  0  0  0  0
 11 12  1  0  0  0  0
 11 13  1  0  0  0  0
 11 14  1  0  0  0  0
  9 10  1  0  0  0  0
  9 11  1  0  0  0  0
  9 27  1  0  0  0  0
  7  8  1  0  0  0  0
  7  9  1  0  0  0  0
 31 32  1  0  0  0  0
 31 33  1  0  0  0  0
 31 34  1  0  0  0  0
 29 30  1  0  0  0  0
 29 31  1  0  0  0  0
M  CHG  1  23   1
M  END
$$$$
default_name
  -OEChem-02102213163D

 34 33  0     1  0  0  0  0  0999 V2000
   -3.8899   -3.6747    1.6490 H   0  0  0  0  0  0  0  0  0  0  0  0
   -3.9109   -2.6717    1.2250 C   0  0  0  0  0  0  0  0  0  0  0  0
   -4.6009   -2.0517    1.7950 H   0  0  0  0  0  0  0  0  0  0  0  0
   -4.2309   -2.7237    0.1860 H   0  0  0  0  0  0  0  0  0  0  0  0
   -2.5229   -2.0787    1.2980 C   0  0  0  0  0  0  0  0  0  0  0  0
   -1.5999   -2.7227    1.7810 O   0  0  0  0  0  0  0  0  0  0  0  0
   -2.3659   -0.8447    0.8120 N   0  0  0  0  0  0  0  0  0  0  0  0
   -3.1749   -0.3807    0.4220 H   0  0  0  0  0  0  0  0  0  0  0  0
   -1.0919   -0.1077    0.8170 C   0  0  1  0  0  0  0  0  0  0  0  0
   -0.3571   -0.6901    0.2581 H   0  0  0  0  0  0  0  0  0  0  0  0
   -1.3037    1.2411    0.1040 C   0  0  0  0  0  0  0  0  0  0  0  0
   -0.3662    1.5341   -0.3710 H   0  0  0  0  0  0  0  0  0  0  0  0
   -2.0572    1.1197   -0.6768 H   0  0  0  0  0  0  0  0  0  0  0  0
   -1.7367    2.3681    1.0542 C   0  0  0  0  0  0  0  0  0  0  0  0
   -2.5122    2.0024    1.7285 H   0  0  0  0  0  0  0  0  0  0  0  0
   -0.8763    2.6923    1.6428 H   0  0  0  0  0  0  0  0  0  0  0  0
   -2.2842    3.5594    0.2560 C   0  0  0  0  0  0  0  0  0  0  0  0
   -1.5102    3.9138   -0.4290 H   0  0  0  0  0  0  0  0  0  0  0  0
   -3.1497    3.2322   -0.3235 H   0  0  0  0  0  0  0  0  0  0  0  0
   -2.6937    4.6951    1.2021 C   0  0  0  0  0  0  0  0  0  0  0  0
   -3.4629    4.3183    1.8841 H   0  0  0  0  0  0  0  0  0  0  0  0
   -1.8237    4.9786    1.8020 H   0  0  0  0  0  0  0  0  0  0  0  0
   -3.2054    5.8711    0.4539 N   0  3  0  0  0  0  0  0  0  0  0  0
   -4.0172    5.6173   -0.0952 H   0  0  0  0  0  0  0  0  0  0  0  0
   -3.4708    6.6110    1.0919 H   0  0  0  0  0  0  0  0  0  0  0  0
   -2.4939    6.2291   -0.1726 H   0  0  0  0  0  0  0  0  0  0  0  0
   -0.5865    0.0771    2.2496 C   0  0  0  0  0  0  0  0  0  0  0  0
    0.5860   -0.1608    2.5143 O   0  0  0  0  0  0  0  0  0  0  0  0
   -1.4786    0.4656    3.1667 N   0  0  0  0  0  0  0  0  0  0  0  0
   -2.4139    0.6698    2.8558 H   0  0  0  0  0  0  0  0  0  0  0  0
   -1.1587    0.6908    4.5775 C   0  0  0  0  0  0  0  0  0  0  0  0
   -0.4270    1.4968    4.6656 H   0  0  0  0  0  0  0  0  0  0  0  0
   -2.0565    0.9649    5.1327 H   0  0  0  0  0  0  0  0  0  0  0  0
   -0.7281   -0.2137    5.0125 H   0  0  0  0  0  0  0  0  0  0  0  0
  5  6  2  0  0  0  0
  5  7  1  0  0  0  0
  2  3  1  0  0  0  0
  2  4  1  0  0  0  0
  2  5  1  0  0  0  0
  1  2  1  0  0  0  0
 27 28  2  0  0  0  0
 27 29  1  0  0  0  0
 23 24  1  0  0  0  0
 23 25  1  0  0  0  0
 23 26  1  0  0  0  0
 20 21  1  0  0  0  0
 20 22  1  0  0  0  0
 20 23  1  0  0  0  0
 17 18  1  0  0  0  0
 17 19  1  0  0  0  0
 17 20  1  0  0  0  0
 14 15  1  0  0  0  0
 14 16  1  0  0  0  0
 14 17  1  0  0  0  0
 11 12  1  0  0  0  0
 11 13  1  0  0  0  0
 11 14  1  0  0  0  0
  9 10  1  0  0  0  0
  9 11  1  0  0  0  0
  9 27  1  0  0  0  0
  7  8  1  0  0  0  0
  7  9  1  0  0  0  0
 31 32  1  0  0  0  0
 31 33  1  0  0  0  0
 31 34  1  0  0  0  0
 29 30  1  0  0  0  0
 29 31  1  0  0  0  0
M  CHG  1  23   1
M  END
$$$$
default_name
  -OEChem-02102213163D

 34 33  0     1  0  0  0  0  0999 V2000
   -3.8899   -3.6747    1.6490 H   0  0  0  0  0  0  0  0  0  0  0  0
   -3.9109   -2.6717    1.2250 C   0  0  0  0  0  0  0  0  0  0  0  0
   -4.6009   -2.0517    1.7950 H   0  0  0  0  0  0  0  0  0  0  0  0
   -4.2309   -2.7237    0.1860 H   0  0  0  0  0  0  0  0  0  0  0  0
   -2.5229   -2.0787    1.2980 C   0  0  0  0  0  0  0  0  0  0  0  0
   -1.5999   -2.7227    1.7810 O   0  0  0  0  0  0  0  0  0  0  0  0
   -2.3659   -0.8447    0.8120 N   0  0  0  0  0  0  0  0  0  0  0  0
   -3.1749   -0.3807    0.4220 H   0  0  0  0  0  0  0  0  0  0  0  0
   -1.0919   -0.1077    0.8170 C   0  0  1  0  0  0  0  0  0  0  0  0
   -0.3571   -0.6901    0.2581 H   0  0  0  0  0  0  0  0  0  0  0  0
   -1.3037    1.2411    0.1040 C   0  0  0  0  0  0  0  0  0  0  0  0
   -0.3662    1.5341   -0.3710 H   0  0  0  0  0  0  0  0  0  0  0  0
   -2.0572    1.1197   -0.6768 H   0  0  0  0  0  0  0  0  0  0  0  0
   -1.7367    2.3681    1.0542 C   0  0  0  0  0  0  0  0  0  0  0  0
   -2.3028    1.9491    1.8872 H   0  0  0  0  0  0  0  0  0  0  0  0
   -0.8492    2.8709    1.4434 H   0  0  0  0  0  0  0  0  0  0  0  0
   -2.6129    3.3863    0.3116 C   0  0  0  0  0  0  0  0  0  0  0  0
   -2.0484    3.7930   -0.5309 H   0  0  0  0  0  0  0  0  0  0  0  0
   -3.5032    2.8806   -0.0675 H   0  0  0  0  0  0  0  0  0  0  0  0
   -3.0254    4.5251    1.2526 C   0  0  0  0  0  0  0  0  0  0  0  0
   -3.5820    4.0968    2.0925 H   0  0  0  0  0  0  0  0  0  0  0  0
   -2.1197    4.9903    1.6533 H   0  0  0  0  0  0  0  0  0  0  0  0
   -3.8551    5.5381    0.5528 N   0  3  0  0  0  0  0  0  0  0  0  0
   -4.7000    5.1156    0.1888 H   0  0  0  0  0  0  0  0  0  0  0  0
   -4.1185    6.2822    1.1868 H   0  0  0  0  0  0  0  0  0  0  0  0
   -3.3410    5.9440   -0.2204 H   0  0  0  0  0  0  0  0  0  0  0  0
   -0.5865    0.0771    2.2496 C   0  0  0  0  0  0  0  0  0  0  0  0
    0.5860   -0.1608    2.5143 O   0  0  0  0  0  0  0  0  0  0  0  0
   -1.4786    0.4656    3.1667 N   0  0  0  0  0  0  0  0  0  0  0  0
   -2.4139    0.6698    2.8558 H   0  0  0  0  0  0  0  0  0  0  0  0
   -1.1587    0.6908    4.5775 C   0  0  0  0  0  0  0  0  0  0  0  0
   -0.4270    1.4968    4.6656 H   0  0  0  0  0  0  0  0  0  0  0  0
   -2.0565    0.9649    5.1327 H   0  0  0  0  0  0  0  0  0  0  0  0
   -0.7281   -0.2137    5.0125 H   0  0  0  0  0  0  0  0  0  0  0  0
  5  6  2  0  0  0  0
  5  7  1  0  0  0  0
  2  3  1  0  0  0  0
  2  4  1  0  0  0  0
  2  5  1  0  0  0  0
  1  2  1  0  0  0  0
 27 28  2  0  0  0  0
 27 29  1  0  0  0  0
 23 24  1  0  0  0  0
 23 25  1  0  0  0  0
 23 26  1  0  0  0  0
 20 21  1  0  0  0  0
 20 22  1  0  0  0  0
 20 23  1  0  0  0  0
 17 18  1  0  0  0  0
 17 19  1  0  0  0  0
 17 20  1  0  0  0  0
 14 15  1  0  0  0  0
 14 16  1  0  0  0  0
 14 17  1  0  0  0  0
 11 12  1  0  0  0  0
 11 13  1  0  0  0  0
 11 14  1  0  0  0  0
  9 10  1  0  0  0  0
  9 11  1  0  0  0  0
  9 27  1  0  0  0  0
  7  8  1  0  0  0  0
  7  9  1  0  0  0  0
 31 32  1  0  0  0  0
 31 33  1  0  0  0  0
 31 34  1  0  0  0  0
 29 30  1  0  0  0  0
 29 31  1  0  0  0  0
M  CHG  1  23   1
M  END
$$$$
default_name
  -OEChem-02102213163D

 34 33  0     1  0  0  0  0  0999 V2000
   -3.8899   -3.6747    1.6490 H   0  0  0  0  0  0  0  0  0  0  0  0
   -3.9109   -2.6717    1.2250 C   0  0  0  0  0  0  0  0  0  0  0  0
   -4.6009   -2.0517    1.7950 H   0  0  0  0  0  0  0  0  0  0  0  0
   -4.2309   -2.7237    0.1860 H   0  0  0  0  0  0  0  0  0  0  0  0
   -2.5229   -2.0787    1.2980 C   0  0  0  0  0  0  0  0  0  0  0  0
   -1.5999   -2.7227    1.7810 O   0  0  0  0  0  0  0  0  0  0  0  0
   -2.3659   -0.8447    0.8120 N   0  0  0  0  0  0  0  0  0  0  0  0
   -3.1749   -0.3807    0.4220 H   0  0  0  0  0  0  0  0  0  0  0  0
   -1.0919   -0.1077    0.8170 C   0  0  1  0  0  0  0  0  0  0  0  0
   -0.3571   -0.6901    0.2581 H   0  0  0  0  0  0  0  0  0  0  0  0
   -1.3037    1.2411    0.1040 C   0  0  0  0  0  0  0  0  0  0  0  0
   -0.3662    1.5341   -0.3710 H   0  0  0  0  0  0  0  0  0  0  0  0
   -2.0572    1.1197   -0.6768 H   0  0  0  0  0  0  0  0  0  0  0  0
   -1.7367    2.3681    1.0542 C   0  0  0  0  0  0  0  0  0  0  0  0
   -2.0618    1.9427    2.0046 H   0  0  0  0  0  0  0  0  0  0  0  0
   -0.8895    3.0332    1.2325 H   0  0  0  0  0  0  0  0  0  0  0  0
   -2.8921    3.1706    0.4402 C   0  0  0  0  0  0  0  0  0  0  0  0
   -2.5683    3.5827   -0.5184 H   0  0  0  0  0  0  0  0  0  0  0  0
   -3.7397    2.5030    0.2725 H   0  0  0  0  0  0  0  0  0  0  0  0
   -3.3089    4.3115    1.3768 C   0  0  0  0  0  0  0  0  0  0  0  0
   -3.6221    3.8790    2.3326 H   0  0  0  0  0  0  0  0  0  0  0  0
   -2.4357    4.9434    1.5650 H   0  0  0  0  0  0  0  0  0  0  0  0
   -4.4107    5.1197    0.7959 N   0  3  0  0  0  0  0  0  0  0  0  0
   -5.2254    4.5424    0.6293 H   0  0  0  0  0  0  0  0  0  0  0  0
   -4.6735    5.8678    1.4254 H   0  0  0  0  0  0  0  0  0  0  0  0
   -4.1227    5.5296   -0.0850 H   0  0  0  0  0  0  0  0  0  0  0  0
   -0.5865    0.0771    2.2496 C   0  0  0  0  0  0  0  0  0  0  0  0
    0.5860   -0.1608    2.5143 O   0  0  0  0  0  0  0  0  0  0  0  0
   -1.4786    0.4656    3.1667 N   0  0  0  0  0  0  0  0  0  0  0  0
   -2.4139    0.6698    2.8558 H   0  0  0  0  0  0  0  0  0  0  0  0
   -1.1587    0.6908    4.5775 C   0  0  0  0  0  0  0  0  0  0  0  0
   -0.4270    1.4968    4.6656 H   0  0  0  0  0  0  0  0  0  0  0  0
   -2.0565    0.9649    5.1327 H   0  0  0  0  0  0  0  0  0  0  0  0
   -0.7281   -0.2137    5.0125 H   0  0  0  0  0  0  0  0  0  0  0  0
  5  6  2  0  0  0  0
  5  7  1  0  0  0  0
  2  3  1  0  0  0  0
  2  4  1  0  0  0  0
  2  5  1  0  0  0  0
  1  2  1  0  0  0  0
 27 28  2  0  0  0  0
 27 29  1  0  0  0  0
 23 24  1  0  0  0  0
 23 25  1  0  0  0  0
 23 26  1  0  0  0  0
 20 21  1  0  0  0  0
 20 22  1  0  0  0  0
 20 23  1  0  0  0  0
 17 18  1  0  0  0  0
 17 19  1  0  0  0  0
 17 20  1  0  0  0  0
 14 15  1  0  0  0  0
 14 16  1  0  0  0  0
 14 17  1  0  0  0  0
 11 12  1  0  0  0  0
 11 13  1  0  0  0  0
 11 14  1  0  0  0  0
  9 10  1  0  0  0  0
  9 11  1  0  0  0  0
  9 27  1  0  0  0  0
  7  8  1  0  0  0  0
  7  9  1  0  0  0  0
 31 32  1  0  0  0  0
 31 33  1  0  0  0  0
 31 34  1  0  0  0  0
 29 30  1  0  0  0  0
 29 31  1  0  0  0  0
M  CHG  1  23   1
M  END
$$$$
default_name
  -OEChem-02102213163D

 34 33  0     1  0  0  0  0  0999 V2000
   -3.8899   -3.6747    1.6490 H   0  0  0  0  0  0  0  0  0  0  0  0
   -3.9109   -2.6717    1.2250 C   0  0  0  0  0  0  0  0  0  0  0  0
   -4.6009   -2.0517    1.7950 H   0  0  0  0  0  0  0  0  0  0  0  0
   -4.2309   -2.7237    0.1860 H   0  0  0  0  0  0  0  0  0  0  0  0
   -2.5229   -2.0787    1.2980 C   0  0  0  0  0  0  0  0  0  0  0  0
   -1.5999   -2.7227    1.7810 O   0  0  0  0  0  0  0  0  0  0  0  0
   -2.3659   -0.8447    0.8120 N   0  0  0  0  0  0  0  0  0  0  0  0
   -3.1749   -0.3807    0.4220 H   0  0  0  0  0  0  0  0  0  0  0  0
   -1.0919   -0.1077    0.8170 C   0  0  1  0  0  0  0  0  0  0  0  0
   -0.3571   -0.6901    0.2581 H   0  0  0  0  0  0  0  0  0  0  0  0
   -1.3037    1.2411    0.1040 C   0  0  0  0  0  0  0  0  0  0  0  0
   -0.3662    1.5341   -0.3710 H   0  0  0  0  0  0  0  0  0  0  0  0
   -2.0572    1.1197   -0.6768 H   0  0  0  0  0  0  0  0  0  0  0  0
   -1.7367    2.3681    1.0542 C   0  0  0  0  0  0  0  0  0  0  0  0
   -1.8057    1.9837    2.0727 H   0  0  0  0  0  0  0  0  0  0  0  0
   -0.9944    3.1681    1.0246 H   0  0  0  0  0  0  0  0  0  0  0  0
   -3.1029    2.9269    0.6333 C   0  0  0  0  0  0  0  0  0  0  0  0
   -3.0344    3.2974   -0.3923 H   0  0  0  0  0  0  0  0  0  0  0  0
   -3.8432    2.1253    0.6734 H   0  0  0  0  0  0  0  0  0  0  0  0
   -3.5250    4.0688    1.5662 C   0  0  0  0  0  0  0  0  0  0  0  0
   -3.5803    3.6797    2.5881 H   0  0  0  0  0  0  0  0  0  0  0  0
   -2.7502    4.8410    1.5431 H   0  0  0  0  0  0  0  0  0  0  0  0
   -4.8341    4.6444    1.1668 N   0  3  0  0  0  0  0  0  0  0  0  0
   -5.5575    3.9367    1.1963 H   0  0  0  0  0  0  0  0  0  0  0  0
   -5.0979    5.3961    1.7915 H   0  0  0  0  0  0  0  0  0  0  0  0
   -4.7857    5.0140    0.2245 H   0  0  0  0  0  0  0  0  0  0  0  0
   -0.5865    0.0771    2.2496 C   0  0  0  0  0  0  0  0  0  0  0  0
    0.5860   -0.1608    2.5143 O   0  0  0  0  0  0  0  0  0  0  0  0
   -1.4786    0.4656    3.1667 N   0  0  0  0  0  0  0  0  0  0  0  0
   -2.4139    0.6698    2.8558 H   0  0  0  0  0  0  0  0  0  0  0  0
   -1.1587    0.6908    4.5775 C   0  0  0  0  0  0  0  0  0  0  0  0
   -0.4270    1.4968    4.6656 H   0  0  0  0  0  0  0  0  0  0  0  0
   -2.0565    0.9649    5.1327 H   0  0  0  0  0  0  0  0  0  0  0  0
   -0.7281   -0.2137    5.0125 H   0  0  0  0  0  0  0  0  0  0  0  0
  5  6  2  0  0  0  0
  5  7  1  0  0  0  0
  2  3  1  0  0  0  0
  2  4  1  0  0  0  0
  2  5  1  0  0  0  0
  1  2  1  0  0  0  0
 27 28  2  0  0  0  0
 27 29  1  0  0  0  0
 23 24  1  0  0  0  0
 23 25  1  0  0  0  0
 23 26  1  0  0  0  0
 20 21  1  0  0  0  0
 20 22  1  0  0  0  0
 20 23  1  0  0  0  0
 17 18  1  0  0  0  0
 17 19  1  0  0  0  0
 17 20  1  0  0  0  0
 14 15  1  0  0  0  0
 14 16  1  0  0  0  0
 14 17  1  0  0  0  0
 11 12  1  0  0  0  0
 11 13  1  0  0  0  0
 11 14  1  0  0  0  0
  9 10  1  0  0  0  0
  9 11  1  0  0  0  0
  9 27  1  0  0  0  0
  7  8  1  0  0  0  0
  7  9  1  0  0  0  0
 31 32  1  0  0  0  0
 31 33  1  0  0  0  0
 31 34  1  0  0  0  0
 29 30  1  0  0  0  0
 29 31  1  0  0  0  0
M  CHG  1  23   1
M  END
$$$$
default_name
  -OEChem-02102213163D

 34 33  0     1  0  0  0  0  0999 V2000
   -3.8899   -3.6747    1.6490 H   0  0  0  0  0  0  0  0  0  0  0  0
   -3.9109   -2.6717    1.2250 C   0  0  0  0  0  0  0  0  0  0  0  0
   -4.6009   -2.0517    1.7950 H   0  0  0  0  0  0  0  0  0  0  0  0
   -4.2309   -2.7237    0.1860 H   0  0  0  0  0  0  0  0  0  0  0  0
   -2.5229   -2.0787    1.2980 C   0  0  0  0  0  0  0  0  0  0  0  0
   -1.5999   -2.7227    1.7810 O   0  0  0  0  0  0  0  0  0  0  0  0
   -2.3659   -0.8447    0.8120 N   0  0  0  0  0  0  0  0  0  0  0  0
   -3.1749   -0.3807    0.4220 H   0  0  0  0  0  0  0  0  0  0  0  0
   -1.0919   -0.1077    0.8170 C   0  0  1  0  0  0  0  0  0  0  0  0
   -0.3571   -0.6901    0.2581 H   0  0  0  0  0  0  0  0  0  0  0  0
   -1.3037    1.2411    0.1040 C   0  0  0  0  0  0  0  0  0  0  0  0
   -0.3662    1.5341   -0.3710 H   0  0  0  0  0  0  0  0  0  0  0  0
   -2.0572    1.1197   -0.6768 H   0  0  0  0  0  0  0  0  0  0  0  0
   -1.7367    2.3681    1.0542 C   0  0  0  0  0  0  0  0  0  0  0  0
   -1.5520    2.0692    2.0869 H   0  0  0  0  0  0  0  0  0  0  0  0
   -1.1568    3.2665    0.8340 H   0  0  0  0  0  0  0  0  0  0  0  0
   -3.2309    2.6718    0.8775 C   0  0  0  0  0  0  0  0  0  0  0  0
   -3.4150    2.9563   -0.1612 H   0  0  0  0  0  0  0  0  0  0  0  0
   -3.8066    1.7731    1.1078 H   0  0  0  0  0  0  0  0  0  0  0  0
   -3.6590    3.8136    1.8078 C   0  0  0  0  0  0  0  0  0  0  0  0
   -3.4596    3.5125    2.8414 H   0  0  0  0  0  0  0  0  0  0  0  0
   -3.0418    4.6902    1.5891 H   0  0  0  0  0  0  0  0  0  0  0  0
   -5.0967    4.1445    1.6400 N   0  3  0  0  0  0  0  0  0  0  0  0
   -5.6736    3.3399    1.8513 H   0  0  0  0  0  0  0  0  0  0  0  0
   -5.3629    4.8992    2.2600 H   0  0  0  0  0  0  0  0  0  0  0  0
   -5.2849    4.4324    0.6868 H   0  0  0  0  0  0  0  0  0  0  0  0
   -0.5865    0.0771    2.2496 C   0  0  0  0  0  0  0  0  0  0  0  0
    0.5860   -0.1608    2.5143 O   0  0  0  0  0  0  0  0  0  0  0  0
   -1.4786    0.4656    3.1667 N   0  0  0  0  0  0  0  0  0  0  0  0
   -2.4139    0.6698    2.8558 H   0  0  0  0  0  0  0  0  0  0  0  0
   -1.1587    0.6908    4.5775 C   0  0  0  0  0  0  0  0  0  0  0  0
   -0.4270    1.4968    4.6656 H   0  0  0  0  0  0  0  0  0  0  0  0
   -2.0565    0.9649    5.1327 H   0  0  0  0  0  0  0  0  0  0  0  0
   -0.7281   -0.2137    5.0125 H   0  0  0  0  0  0  0  0  0  0  0  0
  5  6  2  0  0  0  0
  5  7  1  0  0  0  0
  2  3  1  0  0  0  0
  2  4  1  0  0  0  0
  2  5  1  0  0  0  0
  1  2  1  0  0  0  0
 27 28  2  0  0  0  0
 27 29  1  0  0  0  0
 23 24  1  0  0  0  0
 23 25  1  0  0  0  0
 23 26  1  0  0  0  0
 20 21  1  0  0  0  0
 20 22  1  0  0  0  0
 20 23  1  0  0  0  0
 17 18  1  0  0  0  0
 17 19  1  0  0  0  0
 17 20  1  0  0  0  0
 14 15  1  0  0  0  0
 14 16  1  0  0  0  0
 14 17  1  0  0  0  0
 11 12  1  0  0  0  0
 11 13  1  0  0  0  0
 11 14  1  0  0  0  0
  9 10  1  0  0  0  0
  9 11  1  0  0  0  0
  9 27  1  0  0  0  0
  7  8  1  0  0  0  0
  7  9  1  0  0  0  0
 31 32  1  0  0  0  0
 31 33  1  0  0  0  0
 31 34  1  0  0  0  0
 29 30  1  0  0  0  0
 29 31  1  0  0  0  0
M  CHG  1  23   1
M  END
$$$$
default_name
  -OEChem-02102213163D

 34 33  0     1  0  0  0  0  0999 V2000
   -3.8899   -3.6747    1.6490 H   0  0  0  0  0  0  0  0  0  0  0  0
   -3.9109   -2.6717    1.2250 C   0  0  0  0  0  0  0  0  0  0  0  0
   -4.6009   -2.0517    1.7950 H   0  0  0  0  0  0  0  0  0  0  0  0
   -4.2309   -2.7237    0.1860 H   0  0  0  0  0  0  0  0  0  0  0  0
   -2.5229   -2.0787    1.2980 C   0  0  0  0  0  0  0  0  0  0  0  0
   -1.5999   -2.7227    1.7810 O   0  0  0  0  0  0  0  0  0  0  0  0
   -2.3659   -0.8447    0.8120 N   0  0  0  0  0  0  0  0  0  0  0  0
   -3.1749   -0.3807    0.4220 H   0  0  0  0  0  0  0  0  0  0  0  0
   -1.0919   -0.1077    0.8170 C   0  0  1  0  0  0  0  0  0  0  0  0
   -0.3571   -0.6901    0.2581 H   0  0  0  0  0  0  0  0  0  0  0  0
   -1.3037    1.2411    0.1040 C   0  0  0  0  0  0  0  0  0  0  0  0
   -0.3662    1.5341   -0.3710 H   0  0  0  0  0  0  0  0  0  0  0  0
   -2.0572    1.1197   -0.6768 H   0  0  0  0  0  0  0  0  0  0  0  0
   -1.7367    2.3681    1.0542 C   0  0  0  0  0  0  0  0  0  0  0  0
   -1.3179    2.1934    2.0462 H   0  0  0  0  0  0  0  0  0  0  0  0
   -1.3656    3.3216    0.6734 H   0  0  0  0  0  0  0  0  0  0  0  0
   -3.2672    2.4227    1.1563 C   0  0  0  0  0  0  0  0  0  0  0  0
   -3.6842    2.5828    0.1591 H   0  0  0  0  0  0  0  0  0  0  0  0
   -3.6323    1.4705    1.5461 H   0  0  0  0  0  0  0  0  0  0  0  0
   -3.7017    3.5633    2.0852 C   0  0  0  0  0  0  0  0  0  0  0  0
   -3.2681    3.3888    3.0753 H   0  0  0  0  0  0  0  0  0  0  0  0
   -3.2905    4.5012    1.6999 H   0  0  0  0  0  0  0  0  0  0  0  0
   -5.1804    3.6542    2.1835 N   0  3  0  0  0  0  0  0  0  0  0  0
   -5.5659    2.7926    2.5495 H   0  0  0  0  0  0  0  0  0  0  0  0
   -5.4504    4.4111    2.7992 H   0  0  0  0  0  0  0  0  0  0  0  0
   -5.5861    3.8245    1.2706 H   0  0  0  0  0  0  0  0  0  0  0  0
   -0.5865    0.0771    2.2496 C   0  0  0  0  0  0  0  0  0  0  0  0
    0.5860   -0.1608    2.5143 O   0  0  0  0  0  0  0  0  0  0  0  0
   -1.4786    0.4656    3.1667 N   0  0  0  0  0  0  0  0  0  0  0  0
   -2.4139    0.6698    2.8558 H   0  0  0  0  0  0  0  0  0  0  0  0
   -1.1587    0.6908    4.5775 C   0  0  0  0  0  0  0  0  0  0  0  0
   -0.4270    1.4968    4.6656 H   0  0  0  0  0  0  0  0  0  0  0  0
   -2.0565    0.9649    5.1327 H   0  0  0  0  0  0  0  0  0  0  0  0
   -0.7281   -0.2137    5.0125 H   0  0  0  0  0  0  0  0  0  0  0  0
  5  6  2  0  0  0  0
  5  7  1  0  0  0  0
  2  3  1  0  0  0  0
  2  4  1  0  0  0  0
  2  5  1  0  0  0  0
  1  2  1  0  0  0  0
 27 28  2  0  0  0  0
 27 29  1  0  0  0  0
 23 24  1  0  0  0  0
 23 25  1  0  0  0  0
 23 26  1  0  0  0  0
 20 21  1  0  0  0  0
 20 22  1  0  0  0  0
 20 23  1  0  0  0  0
 17 18  1  0  0  0  0
 17 19  1  0  0  0  0
 17 20  1  0  0  0  0
 14 15  1  0  0  0  0
 14 16  1  0  0  0  0
 14 17  1  0  0  0  0
 11 12  1  0  0  0  0
 11 13  1  0  0  0  0
 11 14  1  0  0  0  0
  9 10  1  0  0  0  0
  9 11  1  0  0  0  0
  9 27  1  0  0  0  0
  7  8  1  0  0  0  0
  7  9  1  0  0  0  0
 31 32  1  0  0  0  0
 31 33  1  0  0  0  0
 31 34  1  0  0  0  0
 29 30  1  0  0  0  0
 29 31  1  0  0  0  0
M  CHG  1  23   1
M  END
$$$$
default_name
  -OEChem-02102213163D

 34 33  0     1  0  0  0  0  0999 V2000
   -3.8899   -3.6747    1.6490 H   0  0  0  0  0  0  0  0  0  0  0  0
   -3.9109   -2.6717    1.2250 C   0  0  0  0  0  0  0  0  0  0  0  0
   -4.6009   -2.0517    1.7950 H   0  0  0  0  0  0  0  0  0  0  0  0
   -4.2309   -2.7237    0.1860 H   0  0  0  0  0  0  0  0  0  0  0  0
   -2.5229   -2.0787    1.2980 C   0  0  0  0  0  0  0  0  0  0  0  0
   -1.5999   -2.7227    1.7810 O   0  0  0  0  0  0  0  0  0  0  0  0
   -2.3659   -0.8447    0.8120 N   0  0  0  0  0  0  0  0  0  0  0  0
   -3.1749   -0.3807    0.4220 H   0  0  0  0  0  0  0  0  0  0  0  0
   -1.0919   -0.1077    0.8170 C   0  0  1  0  0  0  0  0  0  0  0  0
   -0.3571   -0.6901    0.2581 H   0  0  0  0  0  0  0  0  0  0  0  0
   -1.3037    1.2411    0.1040 C   0  0  0  0  0  0  0  0  0  0  0  0
   -0.3662    1.5341   -0.3710 H   0  0  0  0  0  0  0  0  0  0  0  0
   -2.0572    1.1197   -0.6768 H   0  0  0  0  0  0  0  0  0  0  0  0
   -1.7367    2.3681    1.0542 C   0  0  0  0  0  0  0  0  0  0  0  0
   -1.1194    2.3479    1.9533 H   0  0  0  0  0  0  0  0  0  0  0  0
   -1.6067    3.3297    0.5540 H   0  0  0  0  0  0  0  0  0  0  0  0
   -3.2096    2.1967    1.4507 C   0  0  0  0  0  0  0  0  0  0  0  0
   -3.8236    2.2022    0.5470 H   0  0  0  0  0  0  0  0  0  0  0  0
   -3.3324    1.2380    1.9585 H   0  0  0  0  0  0  0  0  0  0  0  0
   -3.6501    3.3349    2.3796 C   0  0  0  0  0  0  0  0  0  0  0  0
   -3.0189    3.3170    3.2740 H   0  0  0  0  0  0  0  0  0  0  0  0
   -3.4795    4.2870    1.8680 H   0  0  0  0  0  0  0  0  0  0  0  0
   -5.0796    3.2067    2.7601 N   0  3  0  0  0  0  0  0  0  0  0  0
   -5.2418    2.3321    3.2434 H   0  0  0  0  0  0  0  0  0  0  0  0
   -5.3544    3.9649    3.3722 H   0  0  0  0  0  0  0  0  0  0  0  0
   -5.6689    3.2316    1.9361 H   0  0  0  0  0  0  0  0  0  0  0  0
   -0.5865    0.0771    2.2496 C   0  0  0  0  0  0  0  0  0  0  0  0
    0.5860   -0.1608    2.5143 O   0  0  0  0  0  0  0  0  0  0  0  0
   -1.4786    0.4656    3.1667 N   0  0  0  0  0  0  0  0  0  0  0  0
   -2.4139    0.6698    2.8558 H   0  0  0  0  0  0  0  0  0  0  0  0
   -1.1587    0.6908    4.5775 C   0  0  0  0  0  0  0  0  0  0  0  0
   -0.4270    1.4968    4.6656 H   0  0  0  0  0  0  0  0  0  0  0  0
   -2.0565    0.9649    5.1327 H   0  0  0  0  0  0  0  0  0  0  0  0
   -0.7281   -0.2137    5.0125 H   0  0  0  0  0  0  0  0  0  0  0  0
  5  6  2  0  0  0  0
  5  7  1  0  0  0  0
  2  3  1  0  0  0  0
  2  4  1  0  0  0  0
  2  5  1  0  0  0  0
  1  2  1  0  0  0  0
 27 28  2  0  0  0  0
 27 29  1  0  0  0  0
 23 24  1  0  0  0  0
 23 25  1  0  0  0  0
 23 26  1  0  0  0  0
 20 21  1  0  0  0  0
 20 22  1  0  0  0  0
 20 23  1  0  0  0  0
 17 18  1  0  0  0  0
 17 19  1  0  0  0  0
 17 20  1  0  0  0  0
 14 15  1  0  0  0  0
 14 16  1  0  0  0  0
 14 17  1  0  0  0  0
 11 12  1  0  0  0  0
 11 13  1  0  0  0  0
 11 14  1  0  0  0  0
  9 10  1  0  0  0  0
  9 11  1  0  0  0  0
  9 27  1  0  0  0  0
  7  8  1  0  0  0  0
  7  9  1  0  0  0  0
 31 32  1  0  0  0  0
 31 33  1  0  0  0  0
 31 34  1  0  0  0  0
 29 30  1  0  0  0  0
 29 31  1  0  0  0  0
M  CHG  1  23   1
M  END
$$$$
default_name
  -OEChem-02102213163D

 34 33  0     1  0  0  0  0  0999 V2000
   -3.8899   -3.6747    1.6490 H   0  0  0  0  0  0  0  0  0  0  0  0
   -3.9109   -2.6717    1.2250 C   0  0  0  0  0  0  0  0  0  0  0  0
   -4.6009   -2.0517    1.7950 H   0  0  0  0  0  0  0  0  0  0  0  0
   -4.2309   -2.7237    0.1860 H   0  0  0  0  0  0  0  0  0  0  0  0
   -2.5229   -2.0787    1.2980 C   0  0  0  0  0  0  0  0  0  0  0  0
   -1.5999   -2.7227    1.7810 O   0  0  0  0  0  0  0  0  0  0  0  0
   -2.3659   -0.8447    0.8120 N   0  0  0  0  0  0  0  0  0  0  0  0
   -3.1749   -0.3807    0.4220 H   0  0  0  0  0  0  0  0  0  0  0  0
   -1.0919   -0.1077    0.8170 C   0  0  1  0  0  0  0  0  0  0  0  0
   -0.3571   -0.6901    0.2581 H   0  0  0  0  0  0  0  0  0  0  0  0
   -1.3037    1.2411    0.1040 C   0  0  0  0  0  0  0  0  0  0  0  0
   -0.3662    1.5341   -0.3710 H   0  0  0  0  0  0  0  0  0  0  0  0
   -2.0572    1.1197   -0.6768 H   0  0  0  0  0  0  0  0  0  0  0  0
   -1.7367    2.3681    1.0542 C   0  0  0  0  0  0  0  0  0  0  0  0
   -0.9700    2.5222    1.8147 H   0  0  0  0  0  0  0  0  0  0  0  0
   -1.8634    3.2903    0.4838 H   0  0  0  0  0  0  0  0  0  0  0  0
   -3.0618    2.0090    1.7406 C   0  0  0  0  0  0  0  0  0  0  0  0
   -3.8237    1.8407    0.9758 H   0  0  0  0  0  0  0  0  0  0  0  0
   -2.9271    1.0915    2.3169 H   0  0  0  0  0  0  0  0  0  0  0  0
   -3.5079    3.1440    2.6708 C   0  0  0  0  0  0  0  0  0  0  0  0
   -2.7290    3.3021    3.4238 H   0  0  0  0  0  0  0  0  0  0  0  0
   -3.5958    4.0620    2.0818 H   0  0  0  0  0  0  0  0  0  0  0  0
   -4.8011    2.8328    3.3305 N   0  3  0  0  0  0  0  0  0  0  0  0
   -4.7232    1.9898    3.8856 H   0  0  0  0  0  0  0  0  0  0  0  0
   -5.0814    3.5910    3.9400 H   0  0  0  0  0  0  0  0  0  0  0  0
   -5.5277    2.6942    2.6378 H   0  0  0  0  0  0  0  0  0  0  0  0
   -0.5865    0.0771    2.2496 C   0  0  0  0  0  0  0  0  0  0  0  0
    0.5860   -0.1608    2.5143 O   0  0  0  0  0  0  0  0  0  0  0  0
   -1.4786    0.4656    3.1667 N   0  0  0  0  0  0  0  0  0  0  0  0
   -2.4139    0.6698    2.8558 H   0  0  0  0  0  0  0  0  0  0  0  0
   -1.1587    0.6908    4.5775 C   0  0  0  0  0  0  0  0  0  0  0  0
   -0.4270    1.4968    4.6656 H   0  0  0  0  0  0  0  0  0  0  0  0
   -2.0565    0.9649    5.1327 H   0  0  0  0  0  0  0  0  0  0  0  0
   -0.7281   -0.2137    5.0125 H   0  0  0  0  0  0  0  0  0  0  0  0
  5  6  2  0  0  0  0
  5  7  1  0  0  0  0
  2  3  1  0  0  0  0
  2  4  1  0  0  0  0
  2  5  1  0  0  0  0
  1  2  1  0  0  0  0
 27 28  2  0  0  0  0
 27 29  1  0  0  0  0
 23 24  1  0  0  0  0
 23 25  1  0  0  0  0
 23 26  1  0  0  0  0
 20 21  1  0  0  0  0
 20 22  1  0  0  0  0
 20 23  1  0  0  0  0
 17 18  1  0  0  0  0
 17 19  1  0  0  0  0
 17 20  1  0  0  0  0
 14 15  1  0  0  0  0
 14 16  1  0  0  0  0
 14 17  1  0  0  0  0
 11 12  1  0  0  0  0
 11 13  1  0  0  0  0
 11 14  1  0  0  0  0
  9 10  1  0  0  0  0
  9 11  1  0  0  0  0
  9 27  1  0  0  0  0
  7  8  1  0  0  0  0
  7  9  1  0  0  0  0
 31 32  1  0  0  0  0
 31 33  1  0  0  0  0
 31 34  1  0  0  0  0
 29 30  1  0  0  0  0
 29 31  1  0  0  0  0
M  CHG  1  23   1
M  END
$$$$
default_name
  -OEChem-02102213163D

 34 33  0     1  0  0  0  0  0999 V2000
   -3.8899   -3.6747    1.6490 H   0  0  0  0  0  0  0  0  0  0  0  0
   -3.9109   -2.6717    1.2250 C   0  0  0  0  0  0  0  0  0  0  0  0
   -4.6009   -2.0517    1.7950 H   0  0  0  0  0  0  0  0  0  0  0  0
   -4.2309   -2.7237    0.1860 H   0  0  0  0  0  0  0  0  0  0  0  0
   -2.5229   -2.0787    1.2980 C   0  0  0  0  0  0  0  0  0  0  0  0
   -1.5999   -2.7227    1.7810 O   0  0  0  0  0  0  0  0  0  0  0  0
   -2.3659   -0.8447    0.8120 N   0  0  0  0  0  0  0  0  0  0  0  0
   -3.1749   -0.3807    0.4220 H   0  0  0  0  0  0  0  0  0  0  0  0
   -1.0919   -0.1077    0.8170 C   0  0  1  0  0  0  0  0  0  0  0  0
   -0.3571   -0.6901    0.2581 H   0  0  0  0  0  0  0  0  0  0  0  0
   -1.3037    1.2411    0.1040 C   0  0  0  0  0  0  0  0  0  0  0  0
   -0.3662    1.5341   -0.3710 H   0  0  0  0  0  0  0  0  0  0  0  0
   -2.0572    1.1197   -0.6768 H   0  0  0  0  0  0  0  0  0  0  0  0
   -1.7367    2.3681    1.0542 C   0  0  0  0  0  0  0  0  0  0  0  0
   -0.8800    2.7043    1.6397 H   0  0  0  0  0  0  0  0  0  0  0  0
   -2.1185    3.2059    0.4676 H   0  0  0  0  0  0  0  0  0  0  0  0
   -2.8340    1.8726    2.0062 C   0  0  0  0  0  0  0  0  0  0  0  0
   -3.6845    1.5226    1.4164 H   0  0  0  0  0  0  0  0  0  0  0  0
   -2.4442    1.0410    2.5968 H   0  0  0  0  0  0  0  0  0  0  0  0
   -3.2847    3.0037    2.9390 C   0  0  0  0  0  0  0  0  0  0  0  0
   -2.4181    3.3450    3.5145 H   0  0  0  0  0  0  0  0  0  0  0  0
   -3.6316    3.8416    2.3268 H   0  0  0  0  0  0  0  0  0  0  0  0
   -4.3640    2.5577    3.8559 N   0  3  0  0  0  0  0  0  0  0  0  0
   -4.0455    1.7890    4.4325 H   0  0  0  0  0  0  0  0  0  0  0  0
   -4.6501    3.3150    4.4639 H   0  0  0  0  0  0  0  0  0  0  0  0
   -5.1720    2.2489    3.3280 H   0  0  0  0  0  0  0  0  0  0  0  0
   -0.5865    0.0771    2.2496 C   0  0  0  0  0  0  0  0  0  0  0  0
    0.5860   -0.1608    2.5143 O   0  0  0  0  0  0  0  0  0  0  0  0
   -1.4786    0.4656    3.1667 N   0  0  0  0  0  0  0  0  0  0  0  0
   -2.4139    0.6698    2.8558 H   0  0  0  0  0  0  0  0  0  0  0  0
   -1.1587    0.6908    4.5775 C   0  0  0  0  0  0  0  0  0  0  0  0
   -0.4270    1.4968    4.6656 H   0  0  0  0  0  0  0  0  0  0  0  0
   -2.0565    0.9649    5.1327 H   0  0  0  0  0  0  0  0  0  0  0  0
   -0.7281   -0.2137    5.0125 H   0  0  0  0  0  0  0  0  0  0  0  0
  5  6  2  0  0  0  0
  5  7  1  0  0  0  0
  2  3  1  0  0  0  0
  2  4  1  0  0  0  0
  2  5  1  0  0  0  0
  1  2  1  0  0  0  0
 27 28  2  0  0  0  0
 27 29  1  0  0  0  0
 23 24  1  0  0  0  0
 23 25  1  0  0  0  0
 23 26  1  0  0  0  0
 20 21  1  0  0  0  0
 20 22  1  0  0  0  0
 20 23  1  0  0  0  0
 17 18  1  0  0  0  0
 17 19  1  0  0  0  0
 17 20  1  0  0  0  0
 14 15  1  0  0  0  0
 14 16  1  0  0  0  0
 14 17  1  0  0  0  0
 11 12  1  0  0  0  0
 11 13  1  0  0  0  0
 11 14  1  0  0  0  0
  9 10  1  0  0  0  0
  9 11  1  0  0  0  0
  9 27  1  0  0  0  0
  7  8  1  0  0  0  0
  7  9  1  0  0  0  0
 31 32  1  0  0  0  0
 31 33  1  0  0  0  0
 31 34  1  0  0  0  0
 29 30  1  0  0  0  0
 29 31  1  0  0  0  0
M  CHG  1  23   1
M  END
$$$$
default_name
  -OEChem-02102213163D

 34 33  0     1  0  0  0  0  0999 V2000
   -3.8899   -3.6747    1.6490 H   0  0  0  0  0  0  0  0  0  0  0  0
   -3.9109   -2.6717    1.2250 C   0  0  0  0  0  0  0  0  0  0  0  0
   -4.6009   -2.0517    1.7950 H   0  0  0  0  0  0  0  0  0  0  0  0
   -4.2309   -2.7237    0.1860 H   0  0  0  0  0  0  0  0  0  0  0  0
   -2.5229   -2.0787    1.2980 C   0  0  0  0  0  0  0  0  0  0  0  0
   -1.5999   -2.7227    1.7810 O   0  0  0  0  0  0  0  0  0  0  0  0
   -2.3659   -0.8447    0.8120 N   0  0  0  0  0  0  0  0  0  0  0  0
   -3.1749   -0.3807    0.4220 H   0  0  0  0  0  0  0  0  0  0  0  0
   -1.0919   -0.1077    0.8170 C   0  0  1  0  0  0  0  0  0  0  0  0
   -0.3571   -0.6901    0.2581 H   0  0  0  0  0  0  0  0  0  0  0  0
   -1.3037    1.2411    0.1040 C   0  0  0  0  0  0  0  0  0  0  0  0
   -0.3662    1.5341   -0.3710 H   0  0  0  0  0  0  0  0  0  0  0  0
   -2.0572    1.1197   -0.6768 H   0  0  0  0  0  0  0  0  0  0  0  0
   -1.7367    2.3681    1.0542 C   0  0  0  0  0  0  0  0  0  0  0  0
   -0.8553    2.8819    1.4404 H   0  0  0  0  0  0  0  0  0  0  0  0
   -2.3544    3.0825    0.5065 H   0  0  0  0  0  0  0  0  0  0  0  0
   -2.5417    1.7966    2.2295 C   0  0  0  0  0  0  0  0  0  0  0  0
   -3.4155    1.2699    1.8387 H   0  0  0  0  0  0  0  0  0  0  0  0
   -1.9166    1.0900    2.7791 H   0  0  0  0  0  0  0  0  0  0  0  0
   -2.9957    2.9234    3.1659 C   0  0  0  0  0  0  0  0  0  0  0  0
   -2.1075    3.4428    3.5400 H   0  0  0  0  0  0  0  0  0  0  0  0
   -3.5843    3.6410    2.5864 H   0  0  0  0  0  0  0  0  0  0  0  0
   -3.7980    2.4003    4.3005 N   0  3  0  0  0  0  0  0  0  0  0  0
   -3.2550    1.7434    4.8468 H   0  0  0  0  0  0  0  0  0  0  0  0
   -4.0899    3.1556    4.9081 H   0  0  0  0  0  0  0  0  0  0  0  0
   -4.6262    1.9261    3.9596 H   0  0  0  0  0  0  0  0  0  0  0  0
   -0.5865    0.0771    2.2496 C   0  0  0  0  0  0  0  0  0  0  0  0
    0.5860   -0.1608    2.5143 O   0  0  0  0  0  0  0  0  0  0  0  0
   -1.4786    0.4656    3.1667 N   0  0  0  0  0  0  0  0  0  0  0  0
   -2.4139    0.6698    2.8558 H   0  0  0  0  0  0  0  0  0  0  0  0
   -1.1587    0.6908    4.5775 C   0  0  0  0  0  0  0  0  0  0  0  0
   -0.4270    1.4968    4.6656 H   0  0  0  0  0  0  0  0  0  0  0  0
   -2.0565    0.9649    5.1327 H   0  0  0  0  0  0  0  0  0  0  0  0
   -0.7281   -0.2137    5.0125 H   0  0  0  0  0  0  0  0  0  0  0  0
  5  6  2  0  0  0  0
  5  7  1  0  0  0  0
  2  3  1  0  0  0  0
  2  4  1  0  0  0  0
  2  5  1  0  0  0  0
  1  2  1  0  0  0  0
 27 28  2  0  0  0  0
 27 29  1  0  0  0  0
 23 24  1  0  0  0  0
 23 25  1  0  0  0  0
 23 26  1  0  0  0  0
 20 21  1  0  0  0  0
 20 22  1  0  0  0  0
 20 23  1  0  0  0  0
 17 18  1  0  0  0  0
 17 19  1  0  0  0  0
 17 20  1  0  0  0  0
 14 15  1  0  0  0  0
 14 16  1  0  0  0  0
 14 17  1  0  0  0  0
 11 12  1  0  0  0  0
 11 13  1  0  0  0  0
 11 14  1  0  0  0  0
  9 10  1  0  0  0  0
  9 11  1  0  0  0  0
  9 27  1  0  0  0  0
  7  8  1  0  0  0  0
  7  9  1  0  0  0  0
 31 32  1  0  0  0  0
 31 33  1  0  0  0  0
 31 34  1  0  0  0  0
 29 30  1  0  0  0  0
 29 31  1  0  0  0  0
M  CHG  1  23   1
M  END
$$$$
default_name
  -OEChem-02102213163D

 34 33  0     1  0  0  0  0  0999 V2000
   -3.8899   -3.6747    1.6490 H   0  0  0  0  0  0  0  0  0  0  0  0
   -3.9109   -2.6717    1.2250 C   0  0  0  0  0  0  0  0  0  0  0  0
   -4.6009   -2.0517    1.7950 H   0  0  0  0  0  0  0  0  0  0  0  0
   -4.2309   -2.7237    0.1860 H   0  0  0  0  0  0  0  0  0  0  0  0
   -2.5229   -2.0787    1.2980 C   0  0  0  0  0  0  0  0  0  0  0  0
   -1.5999   -2.7227    1.7810 O   0  0  0  0  0  0  0  0  0  0  0  0
   -2.3659   -0.8447    0.8120 N   0  0  0  0  0  0  0  0  0  0  0  0
   -3.1749   -0.3807    0.4220 H   0  0  0  0  0  0  0  0  0  0  0  0
   -1.0919   -0.1077    0.8170 C   0  0  1  0  0  0  0  0  0  0  0  0
   -0.3571   -0.6901    0.2581 H   0  0  0  0  0  0  0  0  0  0  0  0
   -1.3037    1.2411    0.1040 C   0  0  0  0  0  0  0  0  0  0  0  0
   -0.3662    1.5341   -0.3710 H   0  0  0  0  0  0  0  0  0  0  0  0
   -2.0572    1.1197   -0.6768 H   0  0  0  0  0  0  0  0  0  0  0  0
   -1.7367    2.3681    1.0542 C   0  0  0  0  0  0  0  0  0  0  0  0
   -0.8978    3.0428    1.2301 H   0  0  0  0  0  0  0  0  0  0  0  0
   -2.5551    2.9283    0.5980 H   0  0  0  0  0  0  0  0  0  0  0  0
   -2.2047    1.7863    2.3953 C   0  0  0  0  0  0  0  0  0  0  0  0
   -3.0351    1.0996    2.2141 H   0  0  0  0  0  0  0  0  0  0  0  0
   -1.3801    1.2351    2.8515 H   0  0  0  0  0  0  0  0  0  0  0  0
   -2.6607    2.9086    3.3361 C   0  0  0  0  0  0  0  0  0  0  0  0
   -1.8183    3.5889    3.4986 H   0  0  0  0  0  0  0  0  0  0  0  0
   -3.4573    3.4736    2.8427 H   0  0  0  0  0  0  0  0  0  0  0  0
   -3.1417    2.3713    4.6339 N   0  3  0  0  0  0  0  0  0  0  0  0
   -2.4054    1.8561    5.1002 H   0  0  0  0  0  0  0  0  0  0  0  0
   -3.4389    3.1238    5.2425 H   0  0  0  0  0  0  0  0  0  0  0  0
   -3.9273    1.7477    4.4897 H   0  0  0  0  0  0  0  0  0  0  0  0
   -0.5865    0.0771    2.2496 C   0  0  0  0  0  0  0  0  0  0  0  0
    0.5860   -0.1608    2.5143 O   0  0  0  0  0  0  0  0  0  0  0  0
   -1.4786    0.4656    3.1667 N   0  0  0  0  0  0  0  0  0  0  0  0
   -2.4139    0.6698    2.8558 H   0  0  0  0  0  0  0  0  0  0  0  0
   -1.1587    0.6908    4.5775 C   0  0  0  0  0  0  0  0  0  0  0  0
   -0.4270    1.4968    4.6656 H   0  0  0  0  0  0  0  0  0  0  0  0
   -2.0565    0.9649    5.1327 H   0  0  0  0  0  0  0  0  0  0  0  0
   -0.7281   -0.2137    5.0125 H   0  0  0  0  0  0  0  0  0  0  0  0
  5  6  2  0  0  0  0
  5  7  1  0  0  0  0
  2  3  1  0  0  0  0
  2  4  1  0  0  0  0
  2  5  1  0  0  0  0
  1  2  1  0  0  0  0
 27 28  2  0  0  0  0
 27 29  1  0  0  0  0
 23 24  1  0  0  0  0
 23 25  1  0  0  0  0
 23 26  1  0  0  0  0
 20 21  1  0  0  0  0
 20 22  1  0  0  0  0
 20 23  1  0  0  0  0
 17 18  1  0  0  0  0
 17 19  1  0  0  0  0
 17 20  1  0  0  0  0
 14 15  1  0  0  0  0
 14 16  1  0  0  0  0
 14 17  1  0  0  0  0
 11 12  1  0  0  0  0
 11 13  1  0  0  0  0
 11 14  1  0  0  0  0
  9 10  1  0  0  0  0
  9 11  1  0  0  0  0
  9 27  1  0  0  0  0
  7  8  1  0  0  0  0
  7  9  1  0  0  0  0
 31 32  1  0  0  0  0
 31 33  1  0  0  0  0
 31 34  1  0  0  0  0
 29 30  1  0  0  0  0
 29 31  1  0  0  0  0
M  CHG  1  23   1
M  END
$$$$
default_name
  -OEChem-02102213163D

 34 33  0     1  0  0  0  0  0999 V2000
   -3.8899   -3.6747    1.6490 H   0  0  0  0  0  0  0  0  0  0  0  0
   -3.9109   -2.6717    1.2250 C   0  0  0  0  0  0  0  0  0  0  0  0
   -4.6009   -2.0517    1.7950 H   0  0  0  0  0  0  0  0  0  0  0  0
   -4.2309   -2.7237    0.1860 H   0  0  0  0  0  0  0  0  0  0  0  0
   -2.5229   -2.0787    1.2980 C   0  0  0  0  0  0  0  0  0  0  0  0
   -1.5999   -2.7227    1.7810 O   0  0  0  0  0  0  0  0  0  0  0  0
   -2.3659   -0.8447    0.8120 N   0  0  0  0  0  0  0  0  0  0  0  0
   -3.1749   -0.3807    0.4220 H   0  0  0  0  0  0  0  0  0  0  0  0
   -1.0919   -0.1077    0.8170 C   0  0  1  0  0  0  0  0  0  0  0  0
   -0.3571   -0.6901    0.2581 H   0  0  0  0  0  0  0  0  0  0  0  0
   -1.3037    1.2411    0.1040 C   0  0  0  0  0  0  0  0  0  0  0  0
   -0.3662    1.5341   -0.3710 H   0  0  0  0  0  0  0  0  0  0  0  0
   -2.0572    1.1197   -0.6768 H   0  0  0  0  0  0  0  0  0  0  0  0
   -1.7367    2.3681    1.0542 C   0  0  0  0  0  0  0  0  0  0  0  0
   -1.0045    3.1761    1.0234 H   0  0  0  0  0  0  0  0  0  0  0  0
   -2.7070    2.7539    0.7356 H   0  0  0  0  0  0  0  0  0  0  0  0
   -1.8462    1.8424    2.4921 C   0  0  0  0  0  0  0  0  0  0  0  0
   -2.5690    1.0234    2.5168 H   0  0  0  0  0  0  0  0  0  0  0  0
   -0.8714    1.4663    2.8090 H   0  0  0  0  0  0  0  0  0  0  0  0
   -2.3023    2.9604    3.4379 C   0  0  0  0  0  0  0  0  0  0  0  0
   -1.5702    3.7732    3.3930 H   0  0  0  0  0  0  0  0  0  0  0  0
   -3.2591    3.3510    3.0785 H   0  0  0  0  0  0  0  0  0  0  0  0
   -2.4398    2.4726    4.8335 N   0  3  0  0  0  0  0  0  0  0  0  0
   -1.5548    2.1195    5.1754 H   0  0  0  0  0  0  0  0  0  0  0  0
   -2.7414    3.2216    5.4442 H   0  0  0  0  0  0  0  0  0  0  0  0
   -3.1231    1.7259    4.8819 H   0  0  0  0  0  0  0  0  0  0  0  0
   -0.5865    0.0771    2.2496 C   0  0  0  0  0  0  0  0  0  0  0  0
    0.5860   -0.1608    2.5143 O   0  0  0  0  0  0  0  0  0  0  0  0
   -1.4786    0.4656    3.1667 N   0  0  0  0  0  0  0  0  0  0  0  0
   -2.4139    0.6698    2.8558 H   0  0  0  0  0  0  0  0  0  0  0  0
   -1.1587    0.6908    4.5775 C   0  0  0  0  0  0  0  0  0  0  0  0
   -0.4270    1.4968    4.6656 H   0  0  0  0  0  0  0  0  0  0  0  0
   -2.0565    0.9649    5.1327 H   0  0  0  0  0  0  0  0  0  0  0  0
   -0.7281   -0.2137    5.0125 H   0  0  0  0  0  0  0  0  0  0  0  0
  5  6  2  0  0  0  0
  5  7  1  0  0  0  0
  2  3  1  0  0  0  0
  2  4  1  0  0  0  0
  2  5  1  0  0  0  0
  1  2  1  0  0  0  0
 27 28  2  0  0  0  0
 27 29  1  0  0  0  0
 23 24  1  0  0  0  0
 23 25  1  0  0  0  0
 23 26  1  0  0  0  0
 20 21  1  0  0  0  0
 20 22  1  0  0  0  0
 20 23  1  0  0  0  0
 17 18  1  0  0  0  0
 17 19  1  0  0  0  0
 17 20  1  0  0  0  0
 14 15  1  0  0  0  0
 14 16  1  0  0  0  0
 14 17  1  0  0  0  0
 11 12  1  0  0  0  0
 11 13  1  0  0  0  0
 11 14  1  0  0  0  0
  9 10  1  0  0  0  0
  9 11  1  0  0  0  0
  9 27  1  0  0  0  0
  7  8  1  0  0  0  0
  7  9  1  0  0  0  0
 31 32  1  0  0  0  0
 31 33  1  0  0  0  0
 31 34  1  0  0  0  0
 29 30  1  0  0  0  0
 29 31  1  0  0  0  0
M  CHG  1  23   1
M  END
$$$$
default_name
  -OEChem-02102213163D

 34 33  0     1  0  0  0  0  0999 V2000
   -3.8899   -3.6747    1.6490 H   0  0  0  0  0  0  0  0  0  0  0  0
   -3.9109   -2.6717    1.2250 C   0  0  0  0  0  0  0  0  0  0  0  0
   -4.6009   -2.0517    1.7950 H   0  0  0  0  0  0  0  0  0  0  0  0
   -4.2309   -2.7237    0.1860 H   0  0  0  0  0  0  0  0  0  0  0  0
   -2.5229   -2.0787    1.2980 C   0  0  0  0  0  0  0  0  0  0  0  0
   -1.5999   -2.7227    1.7810 O   0  0  0  0  0  0  0  0  0  0  0  0
   -2.3659   -0.8447    0.8120 N   0  0  0  0  0  0  0  0  0  0  0  0
   -3.1749   -0.3807    0.4220 H   0  0  0  0  0  0  0  0  0  0  0  0
   -1.0919   -0.1077    0.8170 C   0  0  1  0  0  0  0  0  0  0  0  0
   -0.3571   -0.6901    0.2581 H   0  0  0  0  0  0  0  0  0  0  0  0
   -1.3037    1.2411    0.1040 C   0  0  0  0  0  0  0  0  0  0  0  0
   -0.3662    1.5341   -0.3710 H   0  0  0  0  0  0  0  0  0  0  0  0
   -2.0572    1.1197   -0.6768 H   0  0  0  0  0  0  0  0  0  0  0  0
   -1.7367    2.3681    1.0542 C   0  0  0  0  0  0  0  0  0  0  0  0
   -1.1682    3.2727    0.8343 H   0  0  0  0  0  0  0  0  0  0  0  0
   -2.7996    2.5712    0.9101 H   0  0  0  0  0  0  0  0  0  0  0  0
   -1.4904    1.9610    2.5135 C   0  0  0  0  0  0  0  0  0  0  0  0
   -2.0492    1.0465    2.7263 H   0  0  0  0  0  0  0  0  0  0  0  0
   -0.4251    1.7680    2.6545 H   0  0  0  0  0  0  0  0  0  0  0  0
   -1.9452    3.0752    3.4645 C   0  0  0  0  0  0  0  0  0  0  0  0
   -1.3801    3.9833    3.2304 H   0  0  0  0  0  0  0  0  0  0  0  0
   -3.0033    3.2815    3.2775 H   0  0  0  0  0  0  0  0  0  0  0  0
   -1.7401    2.6975    4.8856 N   0  3  0  0  0  0  0  0  0  0  0  0
   -0.7610    2.5155    5.0674 H   0  0  0  0  0  0  0  0  0  0  0  0
   -2.0452    3.4424    5.4996 H   0  0  0  0  0  0  0  0  0  0  0  0
   -2.2683    1.8622    5.1098 H   0  0  0  0  0  0  0  0  0  0  0  0
   -0.5865    0.0771    2.2496 C   0  0  0  0  0  0  0  0  0  0  0  0
    0.5860   -0.1608    2.5143 O   0  0  0  0  0  0  0  0  0  0  0  0
   -1.4786    0.4656    3.1667 N   0  0  0  0  0  0  0  0  0  0  0  0
   -2.4139    0.6698    2.8558 H   0  0  0  0  0  0  0  0  0  0  0  0
   -1.1587    0.6908    4.5775 C   0  0  0  0  0  0  0  0  0  0  0  0
   -0.4270    1.4968    4.6656 H   0  0  0  0  0  0  0  0  0  0  0  0
   -2.0565    0.9649    5.1327 H   0  0  0  0  0  0  0  0  0  0  0  0
   -0.7281   -0.2137    5.0125 H   0  0  0  0  0  0  0  0  0  0  0  0
  5  6  2  0  0  0  0
  5  7  1  0  0  0  0
  2  3  1  0  0  0  0
  2  4  1  0  0  0  0
  2  5  1  0  0  0  0
  1  2  1  0  0  0  0
 27 28  2  0  0  0  0
 27 29  1  0  0  0  0
 23 24  1  0  0  0  0
 23 25  1  0  0  0  0
 23 26  1  0  0  0  0
 20 21  1  0  0  0  0
 20 22  1  0  0  0  0
 20 23  1  0  0  0  0
 17 18  1  0  0  0  0
 17 19  1  0  0  0  0
 17 20  1  0  0  0  0
 14 15  1  0  0  0  0
 14 16  1  0  0  0  0
 14 17  1  0  0  0  0
 11 12  1  0  0  0  0
 11 13  1  0  0  0  0
 11 14  1  0  0  0  0
  9 10  1  0  0  0  0
  9 11  1  0  0  0  0
  9 27  1  0  0  0  0
  7  8  1  0  0  0  0
  7  9  1  0  0  0  0
 31 32  1  0  0  0  0
 31 33  1  0  0  0  0
 31 34  1  0  0  0  0
 29 30  1  0  0  0  0
 29 31  1  0  0  0  0
M  CHG  1  23   1
M  END
$$$$
default_name
  -OEChem-02102213163D

 34 33  0     1  0  0  0  0  0999 V2000
   -3.8899   -3.6747    1.6490 H   0  0  0  0  0  0  0  0  0  0  0  0
   -3.9109   -2.6717    1.2250 C   0  0  0  0  0  0  0  0  0  0  0  0
   -4.6009   -2.0517    1.7950 H   0  0  0  0  0  0  0  0  0  0  0  0
   -4.2309   -2.7237    0.1860 H   0  0  0  0  0  0  0  0  0  0  0  0
   -2.5229   -2.0787    1.2980 C   0  0  0  0  0  0  0  0  0  0  0  0
   -1.5999   -2.7227    1.7810 O   0  0  0  0  0  0  0  0  0  0  0  0
   -2.3659   -0.8447    0.8120 N   0  0  0  0  0  0  0  0  0  0  0  0
   -3.1749   -0.3807    0.4220 H   0  0  0  0  0  0  0  0  0  0  0  0
   -1.0919   -0.1077    0.8170 C   0  0  1  0  0  0  0  0  0  0  0  0
   -0.3571   -0.6901    0.2581 H   0  0  0  0  0  0  0  0  0  0  0  0
   -1.3037    1.2411    0.1040 C   0  0  0  0  0  0  0  0  0  0  0  0
   -0.3662    1.5341   -0.3710 H   0  0  0  0  0  0  0  0  0  0  0  0
   -2.0572    1.1197   -0.6768 H   0  0  0  0  0  0  0  0  0  0  0  0
   -1.7367    2.3681    1.0542 C   0  0  0  0  0  0  0  0  0  0  0  0
   -1.3776    3.3260    0.6756 H   0  0  0  0  0  0  0  0  0  0  0  0
   -2.8267    2.3926    1.1096 H   0  0  0  0  0  0  0  0  0  0  0  0
   -1.1617    2.1341    2.4580 C   0  0  0  0  0  0  0  0  0  0  0  0
   -1.5110    1.1672    2.8282 H   0  0  0  0  0  0  0  0  0  0  0  0
   -0.0716    2.1196    2.3985 H   0  0  0  0  0  0  0  0  0  0  0  0
   -1.6135    3.2452    3.4139 C   0  0  0  0  0  0  0  0  0  0  0  0
   -1.2609    4.2048    3.0220 H   0  0  0  0  0  0  0  0  0  0  0  0
   -2.7073    3.2698    3.4262 H   0  0  0  0  0  0  0  0  0  0  0  0
   -1.0904    3.0304    4.7868 N   0  3  0  0  0  0  0  0  0  0  0  0
   -0.0781    3.0172    4.7834 H   0  0  0  0  0  0  0  0  0  0  0  0
   -1.3974    3.7712    5.4047 H   0  0  0  0  0  0  0  0  0  0  0  0
   -1.4211    2.1473    5.1576 H   0  0  0  0  0  0  0  0  0  0  0  0
   -0.5865    0.0771    2.2496 C   0  0  0  0  0  0  0  0  0  0  0  0
    0.5860   -0.1608    2.5143 O   0  0  0  0  0  0  0  0  0  0  0  0
   -1.4786    0.4656    3.1667 N   0  0  0  0  0  0  0  0  0  0  0  0
   -2.4139    0.6698    2.8558 H   0  0  0  0  0  0  0  0  0  0  0  0
   -1.1587    0.6908    4.5775 C   0  0  0  0  0  0  0  0  0  0  0  0
   -0.4270    1.4968    4.6656 H   0  0  0  0  0  0  0  0  0  0  0  0
   -2.0565    0.9649    5.1327 H   0  0  0  0  0  0  0  0  0  0  0  0
   -0.7281   -0.2137    5.0125 H   0  0  0  0  0  0  0  0  0  0  0  0
  5  6  2  0  0  0  0
  5  7  1  0  0  0  0
  2  3  1  0  0  0  0
  2  4  1  0  0  0  0
  2  5  1  0  0  0  0
  1  2  1  0  0  0  0
 27 28  2  0  0  0  0
 27 29  1  0  0  0  0
 23 24  1  0  0  0  0
 23 25  1  0  0  0  0
 23 26  1  0  0  0  0
 20 21  1  0  0  0  0
 20 22  1  0  0  0  0
 20 23  1  0  0  0  0
 17 18  1  0  0  0  0
 17 19  1  0  0  0  0
 17 20  1  0  0  0  0
 14 15  1  0  0  0  0
 14 16  1  0  0  0  0
 14 17  1  0  0  0  0
 11 12  1  0  0  0  0
 11 13  1  0  0  0  0
 11 14  1  0  0  0  0
  9 10  1  0  0  0  0
  9 11  1  0  0  0  0
  9 27  1  0  0  0  0
  7  8  1  0  0  0  0
  7  9  1  0  0  0  0
 31 32  1  0  0  0  0
 31 33  1  0  0  0  0
 31 34  1  0  0  0  0
 29 30  1  0  0  0  0
 29 31  1  0  0  0  0
M  CHG  1  23   1
M  END
$$$$
default_name
  -OEChem-02102213163D

 34 33  0     1  0  0  0  0  0999 V2000
   -3.8899   -3.6747    1.6490 H   0  0  0  0  0  0  0  0  0  0  0  0
   -3.9109   -2.6717    1.2250 C   0  0  0  0  0  0  0  0  0  0  0  0
   -4.6009   -2.0517    1.7950 H   0  0  0  0  0  0  0  0  0  0  0  0
   -4.2309   -2.7237    0.1860 H   0  0  0  0  0  0  0  0  0  0  0  0
   -2.5229   -2.0787    1.2980 C   0  0  0  0  0  0  0  0  0  0  0  0
   -1.5999   -2.7227    1.7810 O   0  0  0  0  0  0  0  0  0  0  0  0
   -2.3659   -0.8447    0.8120 N   0  0  0  0  0  0  0  0  0  0  0  0
   -3.1749   -0.3807    0.4220 H   0  0  0  0  0  0  0  0  0  0  0  0
   -1.0919   -0.1077    0.8170 C   0  0  1  0  0  0  0  0  0  0  0  0
   -0.3571   -0.6901    0.2581 H   0  0  0  0  0  0  0  0  0  0  0  0
   -1.3037    1.2411    0.1040 C   0  0  0  0  0  0  0  0  0  0  0  0
   -0.3662    1.5341   -0.3710 H   0  0  0  0  0  0  0  0  0  0  0  0
   -2.0572    1.1197   -0.6768 H   0  0  0  0  0  0  0  0  0  0  0  0
   -1.7367    2.3681    1.0542 C   0  0  0  0  0  0  0  0  0  0  0  0
   -1.6186    3.3324    0.5582 H   0  0  0  0  0  0  0  0  0  0  0  0
   -2.7864    2.2303    1.3205 H   0  0  0  0  0  0  0  0  0  0  0  0
   -0.8825    2.3498    2.3293 C   0  0  0  0  0  0  0  0  0  0  0  0
   -0.9911    1.3775    2.8157 H   0  0  0  0  0  0  0  0  0  0  0  0
    0.1649    2.4972    2.0585 H   0  0  0  0  0  0  0  0  0  0  0  0
   -1.3300    3.4588    3.2897 C   0  0  0  0  0  0  0  0  0  0  0  0
   -1.2209    4.4226    2.7818 H   0  0  0  0  0  0  0  0  0  0  0  0
   -2.3913    3.3167    3.5145 H   0  0  0  0  0  0  0  0  0  0  0  0
   -0.5348    3.4488    4.5436 N   0  3  0  0  0  0  0  0  0  0  0  0
    0.4472    3.5904    4.3429 H   0  0  0  0  0  0  0  0  0  0  0  0
   -0.8424    4.1856    5.1661 H   0  0  0  0  0  0  0  0  0  0  0  0
   -0.6395    2.5617    5.0222 H   0  0  0  0  0  0  0  0  0  0  0  0
   -0.5865    0.0771    2.2496 C   0  0  0  0  0  0  0  0  0  0  0  0
    0.5860   -0.1608    2.5143 O   0  0  0  0  0  0  0  0  0  0  0  0
   -1.4786    0.4656    3.1667 N   0  0  0  0  0  0  0  0  0  0  0  0
   -2.4139    0.6698    2.8558 H   0  0  0  0  0  0  0  0  0  0  0  0
   -1.1587    0.6908    4.5775 C   0  0  0  0  0  0  0  0  0  0  0  0
   -0.4270    1.4968    4.6656 H   0  0  0  0  0  0  0  0  0  0  0  0
   -2.0565    0.9649    5.1327 H   0  0  0  0  0  0  0  0  0  0  0  0
   -0.7281   -0.2137    5.0125 H   0  0  0  0  0  0  0  0  0  0  0  0
  5  6  2  0  0  0  0
  5  7  1  0  0  0  0
  2  3  1  0  0  0  0
  2  4  1  0  0  0  0
  2  5  1  0  0  0  0
  1  2  1  0  0  0  0
 27 28  2  0  0  0  0
 27 29  1  0  0  0  0
 23 24  1  0  0  0  0
 23 25  1  0  0  0  0
 23 26  1  0  0  0  0
 20 21  1  0  0  0  0
 20 22  1  0  0  0  0
 20 23  1  0  0  0  0
 17 18  1  0  0  0  0
 17 19  1  0  0  0  0
 17 20  1  0  0  0  0
 14 15  1  0  0  0  0
 14 16  1  0  0  0  0
 14 17  1  0  0  0  0
 11 12  1  0  0  0  0
 11 13  1  0  0  0  0
 11 14  1  0  0  0  0
  9 10  1  0  0  0  0
  9 11  1  0  0  0  0
  9 27  1  0  0  0  0
  7  8  1  0  0  0  0
  7  9  1  0  0  0  0
 31 32  1  0  0  0  0
 31 33  1  0  0  0  0
 31 34  1  0  0  0  0
 29 30  1  0  0  0  0
 29 31  1  0  0  0  0
M  CHG  1  23   1
M  END
$$$$
default_name
  -OEChem-02102213163D

 34 33  0     1  0  0  0  0  0999 V2000
   -3.8899   -3.6747    1.6490 H   0  0  0  0  0  0  0  0  0  0  0  0
   -3.9109   -2.6717    1.2250 C   0  0  0  0  0  0  0  0  0  0  0  0
   -4.6009   -2.0517    1.7950 H   0  0  0  0  0  0  0  0  0  0  0  0
   -4.2309   -2.7237    0.1860 H   0  0  0  0  0  0  0  0  0  0  0  0
   -2.5229   -2.0787    1.2980 C   0  0  0  0  0  0  0  0  0  0  0  0
   -1.5999   -2.7227    1.7810 O   0  0  0  0  0  0  0  0  0  0  0  0
   -2.3659   -0.8447    0.8120 N   0  0  0  0  0  0  0  0  0  0  0  0
   -3.1749   -0.3807    0.4220 H   0  0  0  0  0  0  0  0  0  0  0  0
   -1.0919   -0.1077    0.8170 C   0  0  1  0  0  0  0  0  0  0  0  0
   -0.3571   -0.6901    0.2581 H   0  0  0  0  0  0  0  0  0  0  0  0
   -1.3037    1.2411    0.1040 C   0  0  0  0  0  0  0  0  0  0  0  0
   -0.3662    1.5341   -0.3710 H   0  0  0  0  0  0  0  0  0  0  0  0
   -2.0572    1.1197   -0.6768 H   0  0  0  0  0  0  0  0  0  0  0  0
   -1.7367    2.3681    1.0542 C   0  0  0  0  0  0  0  0  0  0  0  0
   -1.8747    3.2915    0.4901 H   0  0  0  0  0  0  0  0  0  0  0  0
   -2.6815    2.0954    1.5283 H   0  0  0  0  0  0  0  0  0  0  0  0
   -0.6717    2.5935    2.1363 C   0  0  0  0  0  0  0  0  0  0  0  0
   -0.5250    1.6628    2.6896 H   0  0  0  0  0  0  0  0  0  0  0  0
    0.2684    2.8749    1.6576 H   0  0  0  0  0  0  0  0  0  0  0  0
   -1.1138    3.7015    3.1004 C   0  0  0  0  0  0  0  0  0  0  0  0
   -1.2627    4.6219    2.5264 H   0  0  0  0  0  0  0  0  0  0  0  0
   -2.0768    3.4191    3.5364 H   0  0  0  0  0  0  0  0  0  0  0  0
   -0.1114    3.9241    4.1728 N   0  3  0  0  0  0  0  0  0  0  0  0
    0.7793    4.1961    3.7759 H   0  0  0  0  0  0  0  0  0  0  0  0
   -0.4180    4.6573    4.8000 H   0  0  0  0  0  0  0  0  0  0  0  0
    0.0235    3.0773    4.7127 H   0  0  0  0  0  0  0  0  0  0  0  0
   -0.5865    0.0771    2.2496 C   0  0  0  0  0  0  0  0  0  0  0  0
    0.5860   -0.1608    2.5143 O   0  0  0  0  0  0  0  0  0  0  0  0
   -1.4786    0.4656    3.1667 N   0  0  0  0  0  0  0  0  0  0  0  0
   -2.4139    0.6698    2.8558 H   0  0  0  0  0  0  0  0  0  0  0  0
   -1.1587    0.6908    4.5775 C   0  0  0  0  0  0  0  0  0  0  0  0
   -0.4270    1.4968    4.6656 H   0  0  0  0  0  0  0  0  0  0  0  0
   -2.0565    0.9649    5.1327 H   0  0  0  0  0  0  0  0  0  0  0  0
   -0.7281   -0.2137    5.0125 H   0  0  0  0  0  0  0  0  0  0  0  0
  5  6  2  0  0  0  0
  5  7  1  0  0  0  0
  2  3  1  0  0  0  0
  2  4  1  0  0  0  0
  2  5  1  0  0  0  0
  1  2  1  0  0  0  0
 27 28  2  0  0  0  0
 27 29  1  0  0  0  0
 23 24  1  0  0  0  0
 23 25  1  0  0  0  0
 23 26  1  0  0  0  0
 20 21  1  0  0  0  0
 20 22  1  0  0  0  0
 20 23  1  0  0  0  0
 17 18  1  0  0  0  0
 17 19  1  0  0  0  0
 17 20  1  0  0  0  0
 14 15  1  0  0  0  0
 14 16  1  0  0  0  0
 14 17  1  0  0  0  0
 11 12  1  0  0  0  0
 11 13  1  0  0  0  0
 11 14  1  0  0  0  0
  9 10  1  0  0  0  0
  9 11  1  0  0  0  0
  9 27  1  0  0  0  0
  7  8  1  0  0  0  0
  7  9  1  0  0  0  0
 31 32  1  0  0  0  0
 31 33  1  0  0  0  0
 31 34  1  0  0  0  0
 29 30  1  0  0  0  0
 29 31  1  0  0  0  0
M  CHG  1  23   1
M  END
$$$$
default_name
  -OEChem-02102213163D

 34 33  0     1  0  0  0  0  0999 V2000
   -3.8899   -3.6747    1.6490 H   0  0  0  0  0  0  0  0  0  0  0  0
   -3.9109   -2.6717    1.2250 C   0  0  0  0  0  0  0  0  0  0  0  0
   -4.6009   -2.0517    1.7950 H   0  0  0  0  0  0  0  0  0  0  0  0
   -4.2309   -2.7237    0.1860 H   0  0  0  0  0  0  0  0  0  0  0  0
   -2.5229   -2.0787    1.2980 C   0  0  0  0  0  0  0  0  0  0  0  0
   -1.5999   -2.7227    1.7810 O   0  0  0  0  0  0  0  0  0  0  0  0
   -2.3659   -0.8447    0.8120 N   0  0  0  0  0  0  0  0  0  0  0  0
   -3.1749   -0.3807    0.4220 H   0  0  0  0  0  0  0  0  0  0  0  0
   -1.0919   -0.1077    0.8170 C   0  0  1  0  0  0  0  0  0  0  0  0
   -0.3571   -0.6901    0.2581 H   0  0  0  0  0  0  0  0  0  0  0  0
   -1.3037    1.2411    0.1040 C   0  0  0  0  0  0  0  0  0  0  0  0
   -0.3662    1.5341   -0.3710 H   0  0  0  0  0  0  0  0  0  0  0  0
   -2.0572    1.1197   -0.6768 H   0  0  0  0  0  0  0  0  0  0  0  0
   -1.7367    2.3681    1.0542 C   0  0  0  0  0  0  0  0  0  0  0  0
   -2.1284    3.2060    0.4759 H   0  0  0  0  0  0  0  0  0  0  0  0
   -2.5191    1.9970    1.7190 H   0  0  0  0  0  0  0  0  0  0  0  0
   -0.5437    2.8486    1.8921 C   0  0  0  0  0  0  0  0  0  0  0  0
   -0.1444    2.0039    2.4585 H   0  0  0  0  0  0  0  0  0  0  0  0
    0.2318    3.2271    1.2232 H   0  0  0  0  0  0  0  0  0  0  0  0
   -0.9799    3.9567    2.8588 C   0  0  0  0  0  0  0  0  0  0  0  0
   -1.3834    4.7891    2.2731 H   0  0  0  0  0  0  0  0  0  0  0  0
   -1.7853    3.5699    3.4904 H   0  0  0  0  0  0  0  0  0  0  0  0
    0.1512    4.4240    3.6995 N   0  3  0  0  0  0  0  0  0  0  0  0
    0.8955    4.7929    3.1209 H   0  0  0  0  0  0  0  0  0  0  0  0
   -0.1530    5.1542    4.3314 H   0  0  0  0  0  0  0  0  0  0  0  0
    0.5227    3.6589    4.2503 H   0  0  0  0  0  0  0  0  0  0  0  0
   -0.5865    0.0771    2.2496 C   0  0  0  0  0  0  0  0  0  0  0  0
    0.5860   -0.1608    2.5143 O   0  0  0  0  0  0  0  0  0  0  0  0
   -1.4786    0.4656    3.1667 N   0  0  0  0  0  0  0  0  0  0  0  0
   -2.4139    0.6698    2.8558 H   0  0  0  0  0  0  0  0  0  0  0  0
   -1.1587    0.6908    4.5775 C   0  0  0  0  0  0  0  0  0  0  0  0
   -0.4270    1.4968    4.6656 H   0  0  0  0  0  0  0  0  0  0  0  0
   -2.0565    0.9649    5.1327 H   0  0  0  0  0  0  0  0  0  0  0  0
   -0.7281   -0.2137    5.0125 H   0  0  0  0  0  0  0  0  0  0  0  0
  5  6  2  0  0  0  0
  5  7  1  0  0  0  0
  2  3  1  0  0  0  0
  2  4  1  0  0  0  0
  2  5  1  0  0  0  0
  1  2  1  0  0  0  0
 27 28  2  0  0  0  0
 27 29  1  0  0  0  0
 23 24  1  0  0  0  0
 23 25  1  0  0  0  0
 23 26  1  0  0  0  0
 20 21  1  0  0  0  0
 20 22  1  0  0  0  0
 20 23  1  0  0  0  0
 17 18  1  0  0  0  0
 17 19  1  0  0  0  0
 17 20  1  0  0  0  0
 14 15  1  0  0  0  0
 14 16  1  0  0  0  0
 14 17  1  0  0  0  0
 11 12  1  0  0  0  0
 11 13  1  0  0  0  0
 11 14  1  0  0  0  0
  9 10  1  0  0  0  0
  9 11  1  0  0  0  0
  9 27  1  0  0  0  0
  7  8  1  0  0  0  0
  7  9  1  0  0  0  0
 31 32  1  0  0  0  0
 31 33  1  0  0  0  0
 31 34  1  0  0  0  0
 29 30  1  0  0  0  0
 29 31  1  0  0  0  0
M  CHG  1  23   1
M  END
$$$$
default_name
  -OEChem-02102213163D

 34 33  0     1  0  0  0  0  0999 V2000
   -3.8899   -3.6747    1.6490 H   0  0  0  0  0  0  0  0  0  0  0  0
   -3.9109   -2.6717    1.2250 C   0  0  0  0  0  0  0  0  0  0  0  0
   -4.6009   -2.0517    1.7950 H   0  0  0  0  0  0  0  0  0  0  0  0
   -4.2309   -2.7237    0.1860 H   0  0  0  0  0  0  0  0  0  0  0  0
   -2.5229   -2.0787    1.2980 C   0  0  0  0  0  0  0  0  0  0  0  0
   -1.5999   -2.7227    1.7810 O   0  0  0  0  0  0  0  0  0  0  0  0
   -2.3659   -0.8447    0.8120 N   0  0  0  0  0  0  0  0  0  0  0  0
   -3.1749   -0.3807    0.4220 H   0  0  0  0  0  0  0  0  0  0  0  0
   -1.0919   -0.1077    0.8170 C   0  0  1  0  0  0  0  0  0  0  0  0
   -0.3571   -0.6901    0.2581 H   0  0  0  0  0  0  0  0  0  0  0  0
   -1.3037    1.2411    0.1040 C   0  0  0  0  0  0  0  0  0  0  0  0
   -0.3662    1.5341   -0.3710 H   0  0  0  0  0  0  0  0  0  0  0  0
   -2.0572    1.1197   -0.6768 H   0  0  0  0  0  0  0  0  0  0  0  0
   -1.7367    2.3681    1.0542 C   0  0  0  0  0  0  0  0  0  0  0  0
   -2.3625    3.0817    0.5166 H   0  0  0  0  0  0  0  0  0  0  0  0
   -2.3103    1.9418    1.8795 H   0  0  0  0  0  0  0  0  0  0  0  0
   -0.5074    3.0977    1.6133 C   0  0  0  0  0  0  0  0  0  0  0  0
    0.1248    2.3774    2.1381 H   0  0  0  0  0  0  0  0  0  0  0  0
    0.0576    3.5297    0.7849 H   0  0  0  0  0  0  0  0  0  0  0  0
   -0.9372    4.2070    2.5813 C   0  0  0  0  0  0  0  0  0  0  0  0
   -1.5749    4.9128    2.0392 H   0  0  0  0  0  0  0  0  0  0  0  0
   -1.5365    3.7589    3.3796 H   0  0  0  0  0  0  0  0  0  0  0  0
    0.2349    4.9144    3.1561 N   0  3  0  0  0  0  0  0  0  0  0  0
    0.7878    5.3402    2.4227 H   0  0  0  0  0  0  0  0  0  0  0  0
   -0.0655    5.6423    3.7923 H   0  0  0  0  0  0  0  0  0  0  0  0
    0.8239    4.2668    3.6665 H   0  0  0  0  0  0  0  0  0  0  0  0
   -0.5865    0.0771    2.2496 C   0  0  0  0  0  0  0  0  0  0  0  0
    0.5860   -0.1608    2.5143 O   0  0  0  0  0  0  0  0  0  0  0  0
   -1.4786    0.4656    3.1667 N   0  0  0  0  0  0  0  0  0  0  0  0
   -2.4139    0.6698    2.8558 H   0  0  0  0  0  0  0  0  0  0  0  0
   -1.1587    0.6908    4.5775 C   0  0  0  0  0  0  0  0  0  0  0  0
   -0.4270    1.4968    4.6656 H   0  0  0  0  0  0  0  0  0  0  0  0
   -2.0565    0.9649    5.1327 H   0  0  0  0  0  0  0  0  0  0  0  0
   -0.7281   -0.2137    5.0125 H   0  0  0  0  0  0  0  0  0  0  0  0
  5  6  2  0  0  0  0
  5  7  1  0  0  0  0
  2  3  1  0  0  0  0
  2  4  1  0  0  0  0
  2  5  1  0  0  0  0
  1  2  1  0  0  0  0
 27 28  2  0  0  0  0
 27 29  1  0  0  0  0
 23 24  1  0  0  0  0
 23 25  1  0  0  0  0
 23 26  1  0  0  0  0
 20 21  1  0  0  0  0
 20 22  1  0  0  0  0
 20 23  1  0  0  0  0
 17 18  1  0  0  0  0
 17 19  1  0  0  0  0
 17 20  1  0  0  0  0
 14 15  1  0  0  0  0
 14 16  1  0  0  0  0
 14 17  1  0  0  0  0
 11 12  1  0  0  0  0
 11 13  1  0  0  0  0
 11 14  1  0  0  0  0
  9 10  1  0  0  0  0
  9 11  1  0  0  0  0
  9 27  1  0  0  0  0
  7  8  1  0  0  0  0
  7  9  1  0  0  0  0
 31 32  1  0  0  0  0
 31 33  1  0  0  0  0
 31 34  1  0  0  0  0
 29 30  1  0  0  0  0
 29 31  1  0  0  0  0
M  CHG  1  23   1
M  END
$$$$
default_name
  -OEChem-02102213163D

 34 33  0     1  0  0  0  0  0999 V2000
   -3.8899   -3.6747    1.6490 H   0  0  0  0  0  0  0  0  0  0  0  0
   -3.9109   -2.6717    1.2250 C   0  0  0  0  0  0  0  0  0  0  0  0
   -4.6009   -2.0517    1.7950 H   0  0  0  0  0  0  0  0  0  0  0  0
   -4.2309   -2.7237    0.1860 H   0  0  0  0  0  0  0  0  0  0  0  0
   -2.5229   -2.0787    1.2980 C   0  0  0  0  0  0  0  0  0  0  0  0
   -1.5999   -2.7227    1.7810 O   0  0  0  0  0  0  0  0  0  0  0  0
   -2.3659   -0.8447    0.8120 N   0  0  0  0  0  0  0  0  0  0  0  0
   -3.1749   -0.3807    0.4220 H   0  0  0  0  0  0  0  0  0  0  0  0
   -1.0919   -0.1077    0.8170 C   0  0  1  0  0  0  0  0  0  0  0  0
   -0.3571   -0.6901    0.2581 H   0  0  0  0  0  0  0  0  0  0  0  0
   -1.3037    1.2411    0.1040 C   0  0  0  0  0  0  0  0  0  0  0  0
   -0.3662    1.5341   -0.3710 H   0  0  0  0  0  0  0  0  0  0  0  0
   -2.0572    1.1197   -0.6768 H   0  0  0  0  0  0  0  0  0  0  0  0
   -1.7367    2.3681    1.0542 C   0  0  0  0  0  0  0  0  0  0  0  0
   -2.5610    2.9272    0.6095 H   0  0  0  0  0  0  0  0  0  0  0  0
   -2.0692    1.9337    1.9990 H   0  0  0  0  0  0  0  0  0  0  0  0
   -0.5650    3.3237    1.3189 C   0  0  0  0  0  0  0  0  0  0  0  0
    0.2642    2.7580    1.7503 H   0  0  0  0  0  0  0  0  0  0  0  0
   -0.2424    3.7622    0.3725 H   0  0  0  0  0  0  0  0  0  0  0  0
   -0.9887    4.4354    2.2870 C   0  0  0  0  0  0  0  0  0  0  0  0
   -1.8241    4.9846    1.8405 H   0  0  0  0  0  0  0  0  0  0  0  0
   -1.3475    3.9731    3.2115 H   0  0  0  0  0  0  0  0  0  0  0  0
    0.1341    5.3618    2.5795 N   0  3  0  0  0  0  0  0  0  0  0  0
    0.4636    5.8007    1.7288 H   0  0  0  0  0  0  0  0  0  0  0  0
   -0.1615    6.0886    3.2193 H   0  0  0  0  0  0  0  0  0  0  0  0
    0.9067    4.8597    3.0011 H   0  0  0  0  0  0  0  0  0  0  0  0
   -0.5865    0.0771    2.2496 C   0  0  0  0  0  0  0  0  0  0  0  0
    0.5860   -0.1608    2.5143 O   0  0  0  0  0  0  0  0  0  0  0  0
   -1.4786    0.4656    3.1667 N   0  0  0  0  0  0  0  0  0  0  0  0
   -2.4139    0.6698    2.8558 H   0  0  0  0  0  0  0  0  0  0  0  0
   -1.1587    0.6908    4.5775 C   0  0  0  0  0  0  0  0  0  0  0  0
   -0.4270    1.4968    4.6656 H   0  0  0  0  0  0  0  0  0  0  0  0
   -2.0565    0.9649    5.1327 H   0  0  0  0  0  0  0  0  0  0  0  0
   -0.7281   -0.2137    5.0125 H   0  0  0  0  0  0  0  0  0  0  0  0
  5  6  2  0  0  0  0
  5  7  1  0  0  0  0
  2  3  1  0  0  0  0
  2  4  1  0  0  0  0
  2  5  1  0  0  0  0
  1  2  1  0  0  0  0
 27 28  2  0  0  0  0
 27 29  1  0  0  0  0
 23 24  1  0  0  0  0
 23 25  1  0  0  0  0
 23 26  1  0  0  0  0
 20 21  1  0  0  0  0
 20 22  1  0  0  0  0
 20 23  1  0  0  0  0
 17 18  1  0  0  0  0
 17 19  1  0  0  0  0
 17 20  1  0  0  0  0
 14 15  1  0  0  0  0
 14 16  1  0  0  0  0
 14 17  1  0  0  0  0
 11 12  1  0  0  0  0
 11 13  1  0  0  0  0
 11 14  1  0  0  0  0
  9 10  1  0  0  0  0
  9 11  1  0  0  0  0
  9 27  1  0  0  0  0
  7  8  1  0  0  0  0
  7  9  1  0  0  0  0
 31 32  1  0  0  0  0
 31 33  1  0  0  0  0
 31 34  1  0  0  0  0
 29 30  1  0  0  0  0
 29 31  1  0  0  0  0
M  CHG  1  23   1
M  END
$$$$
default_name
  -OEChem-02102213163D

 34 33  0     1  0  0  0  0  0999 V2000
   -3.8899   -3.6747    1.6490 H   0  0  0  0  0  0  0  0  0  0  0  0
   -3.9109   -2.6717    1.2250 C   0  0  0  0  0  0  0  0  0  0  0  0
   -4.6009   -2.0517    1.7950 H   0  0  0  0  0  0  0  0  0  0  0  0
   -4.2309   -2.7237    0.1860 H   0  0  0  0  0  0  0  0  0  0  0  0
   -2.5229   -2.0787    1.2980 C   0  0  0  0  0  0  0  0  0  0  0  0
   -1.5999   -2.7227    1.7810 O   0  0  0  0  0  0  0  0  0  0  0  0
   -2.3659   -0.8447    0.8120 N   0  0  0  0  0  0  0  0  0  0  0  0
   -3.1749   -0.3807    0.4220 H   0  0  0  0  0  0  0  0  0  0  0  0
   -1.0919   -0.1077    0.8170 C   0  0  1  0  0  0  0  0  0  0  0  0
   -0.3571   -0.6901    0.2581 H   0  0  0  0  0  0  0  0  0  0  0  0
   -1.3037    1.2411    0.1040 C   0  0  0  0  0  0  0  0  0  0  0  0
   -0.3662    1.5341   -0.3710 H   0  0  0  0  0  0  0  0  0  0  0  0
   -2.0572    1.1197   -0.6768 H   0  0  0  0  0  0  0  0  0  0  0  0
   -1.7367    2.3681    1.0542 C   0  0  0  0  0  0  0  0  0  0  0  0
   -2.7104    2.7529    0.7481 H   0  0  0  0  0  0  0  0  0  0  0  0
   -1.8125    1.9732    2.0692 H   0  0  0  0  0  0  0  0  0  0  0  0
   -0.7128    3.5114    1.0290 C   0  0  0  0  0  0  0  0  0  0  0  0
    0.2643    3.1196    1.3215 H   0  0  0  0  0  0  0  0  0  0  0  0
   -0.6476    3.9087    0.0141 H   0  0  0  0  0  0  0  0  0  0  0  0
   -1.1309    4.6263    1.9958 C   0  0  0  0  0  0  0  0  0  0  0  0
   -2.1140    4.9995    1.6907 H   0  0  0  0  0  0  0  0  0  0  0  0
   -1.2312    4.1981    2.9977 H   0  0  0  0  0  0  0  0  0  0  0  0
   -0.1444    5.7358    2.0090 N   0  3  0  0  0  0  0  0  0  0  0  0
   -0.0550    6.1430    1.0865 H   0  0  0  0  0  0  0  0  0  0  0  0
   -0.4345    6.4624    2.6515 H   0  0  0  0  0  0  0  0  0  0  0  0
    0.7655    5.3971    2.2994 H   0  0  0  0  0  0  0  0  0  0  0  0
   -0.5865    0.0771    2.2496 C   0  0  0  0  0  0  0  0  0  0  0  0
    0.5860   -0.1608    2.5143 O   0  0  0  0  0  0  0  0  0  0  0  0
   -1.4786    0.4656    3.1667 N   0  0  0  0  0  0  0  0  0  0  0  0
   -2.4139    0.6698    2.8558 H   0  0  0  0  0  0  0  0  0  0  0  0
   -1.1587    0.6908    4.5775 C   0  0  0  0  0  0  0  0  0  0  0  0
   -0.4270    1.4968    4.6656 H   0  0  0  0  0  0  0  0  0  0  0  0
   -2.0565    0.9649    5.1327 H   0  0  0  0  0  0  0  0  0  0  0  0
   -0.7281   -0.2137    5.0125 H   0  0  0  0  0  0  0  0  0  0  0  0
  5  6  2  0  0  0  0
  5  7  1  0  0  0  0
  2  3  1  0  0  0  0
  2  4  1  0  0  0  0
  2  5  1  0  0  0  0
  1  2  1  0  0  0  0
 27 28  2  0  0  0  0
 27 29  1  0  0  0  0
 23 24  1  0  0  0  0
 23 25  1  0  0  0  0
 23 26  1  0  0  0  0
 20 21  1  0  0  0  0
 20 22  1  0  0  0  0
 20 23  1  0  0  0  0
 17 18  1  0  0  0  0
 17 19  1  0  0  0  0
 17 20  1  0  0  0  0
 14 15  1  0  0  0  0
 14 16  1  0  0  0  0
 14 17  1  0  0  0  0
 11 12  1  0  0  0  0
 11 13  1  0  0  0  0
 11 14  1  0  0  0  0
  9 10  1  0  0  0  0
  9 11  1  0  0  0  0
  9 27  1  0  0  0  0
  7  8  1  0  0  0  0
  7  9  1  0  0  0  0
 31 32  1  0  0  0  0
 31 33  1  0  0  0  0
 31 34  1  0  0  0  0
 29 30  1  0  0  0  0
 29 31  1  0  0  0  0
M  CHG  1  23   1
M  END
$$$$
default_name
  -OEChem-02102213163D

 34 33  0     1  0  0  0  0  0999 V2000
   -3.8899   -3.6747    1.6490 H   0  0  0  0  0  0  0  0  0  0  0  0
   -3.9109   -2.6717    1.2250 C   0  0  0  0  0  0  0  0  0  0  0  0
   -4.6009   -2.0517    1.7950 H   0  0  0  0  0  0  0  0  0  0  0  0
   -4.2309   -2.7237    0.1860 H   0  0  0  0  0  0  0  0  0  0  0  0
   -2.5229   -2.0787    1.2980 C   0  0  0  0  0  0  0  0  0  0  0  0
   -1.5999   -2.7227    1.7810 O   0  0  0  0  0  0  0  0  0  0  0  0
   -2.3659   -0.8447    0.8120 N   0  0  0  0  0  0  0  0  0  0  0  0
   -3.1749   -0.3807    0.4220 H   0  0  0  0  0  0  0  0  0  0  0  0
   -1.0919   -0.1077    0.8170 C   0  0  1  0  0  0  0  0  0  0  0  0
   -0.3571   -0.6901    0.2581 H   0  0  0  0  0  0  0  0  0  0  0  0
   -1.3037    1.2411    0.1040 C   0  0  0  0  0  0  0  0  0  0  0  0
   -0.3662    1.5341   -0.3710 H   0  0  0  0  0  0  0  0  0  0  0  0
   -2.0572    1.1197   -0.6768 H   0  0  0  0  0  0  0  0  0  0  0  0
   -1.7367    2.3681    1.0542 C   0  0  0  0  0  0  0  0  0  0  0  0
   -2.8004    2.5708    0.9231 H   0  0  0  0  0  0  0  0  0  0  0  0
   -1.5574    2.0575    2.0854 H   0  0  0  0  0  0  0  0  0  0  0  0
   -0.9406    3.6478    0.7633 C   0  0  0  0  0  0  0  0  0  0  0  0
    0.1251    3.4376    0.8809 H   0  0  0  0  0  0  0  0  0  0  0  0
   -1.1305    3.9592   -0.2658 H   0  0  0  0  0  0  0  0  0  0  0  0
   -1.3542    4.7666    1.7276 C   0  0  0  0  0  0  0  0  0  0  0  0
   -2.4248    4.9566    1.5999 H   0  0  0  0  0  0  0  0  0  0  0  0
   -1.1954    4.4184    2.7527 H   0  0  0  0  0  0  0  0  0  0  0  0
   -0.5815    6.0108    1.4836 N   0  3  0  0  0  0  0  0  0  0  0  0
   -0.7326    6.3438    0.5396 H   0  0  0  0  0  0  0  0  0  0  0  0
   -0.8658    6.7384    2.1276 H   0  0  0  0  0  0  0  0  0  0  0  0
    0.4098    5.8424    1.6092 H   0  0  0  0  0  0  0  0  0  0  0  0
   -0.5865    0.0771    2.2496 C   0  0  0  0  0  0  0  0  0  0  0  0
    0.5860   -0.1608    2.5143 O   0  0  0  0  0  0  0  0  0  0  0  0
   -1.4786    0.4656    3.1667 N   0  0  0  0  0  0  0  0  0  0  0  0
   -2.4139    0.6698    2.8558 H   0  0  0  0  0  0  0  0  0  0  0  0
   -1.1587    0.6908    4.5775 C   0  0  0  0  0  0  0  0  0  0  0  0
   -0.4270    1.4968    4.6656 H   0  0  0  0  0  0  0  0  0  0  0  0
   -2.0565    0.9649    5.1327 H   0  0  0  0  0  0  0  0  0  0  0  0
   -0.7281   -0.2137    5.0125 H   0  0  0  0  0  0  0  0  0  0  0  0
  5  6  2  0  0  0  0
  5  7  1  0  0  0  0
  2  3  1  0  0  0  0
  2  4  1  0  0  0  0
  2  5  1  0  0  0  0
  1  2  1  0  0  0  0
 27 28  2  0  0  0  0
 27 29  1  0  0  0  0
 23 24  1  0  0  0  0
 23 25  1  0  0  0  0
 23 26  1  0  0  0  0
 20 21  1  0  0  0  0
 20 22  1  0  0  0  0
 20 23  1  0  0  0  0
 17 18  1  0  0  0  0
 17 19  1  0  0  0  0
 17 20  1  0  0  0  0
 14 15  1  0  0  0  0
 14 16  1  0  0  0  0
 14 17  1  0  0  0  0
 11 12  1  0  0  0  0
 11 13  1  0  0  0  0
 11 14  1  0  0  0  0
  9 10  1  0  0  0  0
  9 11  1  0  0  0  0
  9 27  1  0  0  0  0
  7  8  1  0  0  0  0
  7  9  1  0  0  0  0
 31 32  1  0  0  0  0
 31 33  1  0  0  0  0
 31 34  1  0  0  0  0
 29 30  1  0  0  0  0
 29 31  1  0  0  0  0
M  CHG  1  23   1
M  END
$$$$
default_name
  -OEChem-02102213163D

 34 33  0     1  0  0  0  0  0999 V2000
   -3.8899   -3.6747    1.6490 H   0  0  0  0  0  0  0  0  0  0  0  0
   -3.9109   -2.6717    1.2250 C   0  0  0  0  0  0  0  0  0  0  0  0
   -4.6009   -2.0517    1.7950 H   0  0  0  0  0  0  0  0  0  0  0  0
   -4.2309   -2.7237    0.1860 H   0  0  0  0  0  0  0  0  0  0  0  0
   -2.5229   -2.0787    1.2980 C   0  0  0  0  0  0  0  0  0  0  0  0
   -1.5999   -2.7227    1.7810 O   0  0  0  0  0  0  0  0  0  0  0  0
   -2.3659   -0.8447    0.8120 N   0  0  0  0  0  0  0  0  0  0  0  0
   -3.1749   -0.3807    0.4220 H   0  0  0  0  0  0  0  0  0  0  0  0
   -1.0919   -0.1077    0.8170 C   0  0  1  0  0  0  0  0  0  0  0  0
   -0.3571   -0.6901    0.2581 H   0  0  0  0  0  0  0  0  0  0  0  0
   -1.3037    1.2411    0.1040 C   0  0  0  0  0  0  0  0  0  0  0  0
   -0.3662    1.5341   -0.3710 H   0  0  0  0  0  0  0  0  0  0  0  0
   -2.0572    1.1197   -0.6768 H   0  0  0  0  0  0  0  0  0  0  0  0
   -1.7367    2.3681    1.0542 C   0  0  0  0  0  0  0  0  0  0  0  0
   -2.8251    2.3933    1.1224 H   0  0  0  0  0  0  0  0  0  0  0  0
   -1.3215    2.1810    2.0464 H   0  0  0  0  0  0  0  0  0  0  0  0
   -1.2329    3.7238    0.5400 C   0  0  0  0  0  0  0  0  0  0  0  0
   -0.1439    3.6903    0.4586 H   0  0  0  0  0  0  0  0  0  0  0  0
   -1.6582    3.9102   -0.4481 H   0  0  0  0  0  0  0  0  0  0  0  0
   -1.6431    4.8469    1.5007 C   0  0  0  0  0  0  0  0  0  0  0  0
   -2.7355    4.8588    1.5744 H   0  0  0  0  0  0  0  0  0  0  0  0
   -1.2427    4.6191    2.4931 H   0  0  0  0  0  0  0  0  0  0  0  0
   -1.1475    6.1682    1.0391 N   0  3  0  0  0  0  0  0  0  0  0  0
   -1.5232    6.3894    0.1254 H   0  0  0  0  0  0  0  0  0  0  0  0
   -1.4260    6.8978    1.6833 H   0  0  0  0  0  0  0  0  0  0  0  0
   -0.1360    6.1652    0.9775 H   0  0  0  0  0  0  0  0  0  0  0  0
   -0.5865    0.0771    2.2496 C   0  0  0  0  0  0  0  0  0  0  0  0
    0.5860   -0.1608    2.5143 O   0  0  0  0  0  0  0  0  0  0  0  0
   -1.4786    0.4656    3.1667 N   0  0  0  0  0  0  0  0  0  0  0  0
   -2.4139    0.6698    2.8558 H   0  0  0  0  0  0  0  0  0  0  0  0
   -1.1587    0.6908    4.5775 C   0  0  0  0  0  0  0  0  0  0  0  0
   -0.4270    1.4968    4.6656 H   0  0  0  0  0  0  0  0  0  0  0  0
   -2.0565    0.9649    5.1327 H   0  0  0  0  0  0  0  0  0  0  0  0
   -0.7281   -0.2137    5.0125 H   0  0  0  0  0  0  0  0  0  0  0  0
  5  6  2  0  0  0  0
  5  7  1  0  0  0  0
  2  3  1  0  0  0  0
  2  4  1  0  0  0  0
  2  5  1  0  0  0  0
  1  2  1  0  0  0  0
 27 28  2  0  0  0  0
 27 29  1  0  0  0  0
 23 24  1  0  0  0  0
 23 25  1  0  0  0  0
 23 26  1  0  0  0  0
 20 21  1  0  0  0  0
 20 22  1  0  0  0  0
 20 23  1  0  0  0  0
 17 18  1  0  0  0  0
 17 19  1  0  0  0  0
 17 20  1  0  0  0  0
 14 15  1  0  0  0  0
 14 16  1  0  0  0  0
 14 17  1  0  0  0  0
 11 12  1  0  0  0  0
 11 13  1  0  0  0  0
 11 14  1  0  0  0  0
  9 10  1  0  0  0  0
  9 11  1  0  0  0  0
  9 27  1  0  0  0  0
  7  8  1  0  0  0  0
  7  9  1  0  0  0  0
 31 32  1  0  0  0  0
 31 33  1  0  0  0  0
 31 34  1  0  0  0  0
 29 30  1  0  0  0  0
 29 31  1  0  0  0  0
M  CHG  1  23   1
M  END
$$$$
default_name
  -OEChem-02102213163D

 34 33  0     1  0  0  0  0  0999 V2000
   -3.8899   -3.6747    1.6490 H   0  0  0  0  0  0  0  0  0  0  0  0
   -3.9109   -2.6717    1.2250 C   0  0  0  0  0  0  0  0  0  0  0  0
   -4.6009   -2.0517    1.7950 H   0  0  0  0  0  0  0  0  0  0  0  0
   -4.2309   -2.7237    0.1860 H   0  0  0  0  0  0  0  0  0  0  0  0
   -2.5229   -2.0787    1.2980 C   0  0  0  0  0  0  0  0  0  0  0  0
   -1.5999   -2.7227    1.7810 O   0  0  0  0  0  0  0  0  0  0  0  0
   -2.3659   -0.8447    0.8120 N   0  0  0  0  0  0  0  0  0  0  0  0
   -3.1749   -0.3807    0.4220 H   0  0  0  0  0  0  0  0  0  0  0  0
   -1.0919   -0.1077    0.8170 C   0  0  1  0  0  0  0  0  0  0  0  0
   -0.3571   -0.6901    0.2581 H   0  0  0  0  0  0  0  0  0  0  0  0
   -1.3037    1.2411    0.1040 C   0  0  0  0  0  0  0  0  0  0  0  0
   -0.3662    1.5341   -0.3710 H   0  0  0  0  0  0  0  0  0  0  0  0
   -2.0572    1.1197   -0.6768 H   0  0  0  0  0  0  0  0  0  0  0  0
   -1.7367    2.3681    1.0542 C   0  0  0  0  0  0  0  0  0  0  0  0
   -2.7826    2.2323    1.3327 H   0  0  0  0  0  0  0  0  0  0  0  0
   -1.1208    2.3352    1.9550 H   0  0  0  0  0  0  0  0  0  0  0  0
   -1.5699    3.7341    0.3743 C   0  0  0  0  0  0  0  0  0  0  0  0
   -0.5243    3.8606    0.0832 H   0  0  0  0  0  0  0  0  0  0  0  0
   -2.1947    3.7651   -0.5205 H   0  0  0  0  0  0  0  0  0  0  0  0
   -1.9782    4.8617    1.3305 C   0  0  0  0  0  0  0  0  0  0  0  0
   -3.0247    4.7127    1.6159 H   0  0  0  0  0  0  0  0  0  0  0  0
   -1.3697    4.7865    2.2367 H   0  0  0  0  0  0  0  0  0  0  0  0
   -1.8038    6.1972    0.7056 N   0  3  0  0  0  0  0  0  0  0  0  0
   -2.3727    6.2767   -0.1280 H   0  0  0  0  0  0  0  0  0  0  0  0
   -2.0770    6.9296    1.3489 H   0  0  0  0  0  0  0  0  0  0  0  0
   -0.8349    6.3436    0.4475 H   0  0  0  0  0  0  0  0  0  0  0  0
   -0.5865    0.0771    2.2496 C   0  0  0  0  0  0  0  0  0  0  0  0
    0.5860   -0.1608    2.5143 O   0  0  0  0  0  0  0  0  0  0  0  0
   -1.4786    0.4656    3.1667 N   0  0  0  0  0  0  0  0  0  0  0  0
   -2.4139    0.6698    2.8558 H   0  0  0  0  0  0  0  0  0  0  0  0
   -1.1587    0.6908    4.5775 C   0  0  0  0  0  0  0  0  0  0  0  0
   -0.4270    1.4968    4.6656 H   0  0  0  0  0  0  0  0  0  0  0  0
   -2.0565    0.9649    5.1327 H   0  0  0  0  0  0  0  0  0  0  0  0
   -0.7281   -0.2137    5.0125 H   0  0  0  0  0  0  0  0  0  0  0  0
  5  6  2  0  0  0  0
  5  7  1  0  0  0  0
  2  3  1  0  0  0  0
  2  4  1  0  0  0  0
  2  5  1  0  0  0  0
  1  2  1  0  0  0  0
 27 28  2  0  0  0  0
 27 29  1  0  0  0  0
 23 24  1  0  0  0  0
 23 25  1  0  0  0  0
 23 26  1  0  0  0  0
 20 21  1  0  0  0  0
 20 22  1  0  0  0  0
 20 23  1  0  0  0  0
 17 18  1  0  0  0  0
 17 19  1  0  0  0  0
 17 20  1  0  0  0  0
 14 15  1  0  0  0  0
 14 16  1  0  0  0  0
 14 17  1  0  0  0  0
 11 12  1  0  0  0  0
 11 13  1  0  0  0  0
 11 14  1  0  0  0  0
  9 10  1  0  0  0  0
  9 11  1  0  0  0  0
  9 27  1  0  0  0  0
  7  8  1  0  0  0  0
  7  9  1  0  0  0  0
 31 32  1  0  0  0  0
 31 33  1  0  0  0  0
 31 34  1  0  0  0  0
 29 30  1  0  0  0  0
 29 31  1  0  0  0  0
M  CHG  1  23   1
M  END
$$$$
default_name
  -OEChem-02102213163D

 34 33  0     1  0  0  0  0  0999 V2000
   -3.8899   -3.6747    1.6490 H   0  0  0  0  0  0  0  0  0  0  0  0
   -3.9109   -2.6717    1.2250 C   0  0  0  0  0  0  0  0  0  0  0  0
   -4.6009   -2.0517    1.7950 H   0  0  0  0  0  0  0  0  0  0  0  0
   -4.2309   -2.7237    0.1860 H   0  0  0  0  0  0  0  0  0  0  0  0
   -2.5229   -2.0787    1.2980 C   0  0  0  0  0  0  0  0  0  0  0  0
   -1.5999   -2.7227    1.7810 O   0  0  0  0  0  0  0  0  0  0  0  0
   -2.3659   -0.8447    0.8120 N   0  0  0  0  0  0  0  0  0  0  0  0
   -3.1749   -0.3807    0.4220 H   0  0  0  0  0  0  0  0  0  0  0  0
   -1.0919   -0.1077    0.8170 C   0  0  1  0  0  0  0  0  0  0  0  0
   -0.3571   -0.6901    0.2581 H   0  0  0  0  0  0  0  0  0  0  0  0
   -1.3037    1.2411    0.1040 C   0  0  0  0  0  0  0  0  0  0  0  0
   -0.4723    1.4053   -0.5832 H   0  0  0  0  0  0  0  0  0  0  0  0
   -2.2247    1.1970   -0.4808 H   0  0  0  0  0  0  0  0  0  0  0  0
   -1.3744    2.4334    1.0702 C   0  0  0  0  0  0  0  0  0  0  0  0
   -2.2023    2.2935    1.7666 H   0  0  0  0  0  0  0  0  0  0  0  0
   -0.4413    2.4953    1.6336 H   0  0  0  0  0  0  0  0  0  0  0  0
   -1.5859    3.7398    0.2926 C   0  0  0  0  0  0  0  0  0  0  0  0
   -0.7630    3.8695   -0.4143 H   0  0  0  0  0  0  0  0  0  0  0  0
   -2.5245    3.6764   -0.2615 H   0  0  0  0  0  0  0  0  0  0  0  0
   -1.6318    4.9340    1.2541 C   0  0  0  0  0  0  0  0  0  0  0  0
   -2.4565    4.7815    1.9578 H   0  0  0  0  0  0  0  0  0  0  0  0
   -0.7006    4.9540    1.8283 H   0  0  0  0  0  0  0  0  0  0  0  0
   -1.8118    6.2150    0.5252 N   0  3  0  0  0  0  0  0  0  0  0  0
   -2.6773    6.2066    0.0001 H   0  0  0  0  0  0  0  0  0  0  0  0
   -1.8397    6.9924    1.1732 H   0  0  0  0  0  0  0  0  0  0  0  0
   -1.0462    6.3652   -0.1213 H   0  0  0  0  0  0  0  0  0  0  0  0
   -0.5865    0.0771    2.2496 C   0  0  0  0  0  0  0  0  0  0  0  0
    0.5860   -0.1608    2.5143 O   0  0  0  0  0  0  0  0  0  0  0  0
   -1.4786    0.4656    3.1667 N   0  0  0  0  0  0  0  0  0  0  0  0
   -2.4139    0.6698    2.8558 H   0  0  0  0  0  0  0  0  0  0  0  0
   -1.1587    0.6908    4.5775 C   0  0  0  0  0  0  0  0  0  0  0  0
   -0.4270    1.4968    4.6656 H   0  0  0  0  0  0  0  0  0  0  0  0
   -2.0565    0.9649    5.1327 H   0  0  0  0  0  0  0  0  0  0  0  0
   -0.7281   -0.2137    5.0125 H   0  0  0  0  0  0  0  0  0  0  0  0
  5  6  2  0  0  0  0
  5  7  1  0  0  0  0
  2  3  1  0  0  0  0
  2  4  1  0  0  0  0
  2  5  1  0  0  0  0
  1  2  1  0  0  0  0
 27 28  2  0  0  0  0
 27 29  1  0  0  0  0
 23 24  1  0  0  0  0
 23 25  1  0  0  0  0
 23 26  1  0  0  0  0
 20 21  1  0  0  0  0
 20 22  1  0  0  0  0
 20 23  1  0  0  0  0
 17 18  1  0  0  0  0
 17 19  1  0  0  0  0
 17 20  1  0  0  0  0
 14 15  1  0  0  0  0
 14 16  1  0  0  0  0
 14 17  1  0  0  0  0
 11 12  1  0  0  0  0
 11 13  1  0  0  0  0
 11 14  1  0  0  0  0
  9 10  1  0  0  0  0
  9 11  1  0  0  0  0
  9 27  1  0  0  0  0
  7  8  1  0  0  0  0
  7  9  1  0  0  0  0
 31 32  1  0  0  0  0
 31 33  1  0  0  0  0
 31 34  1  0  0  0  0
 29 30  1  0  0  0  0
 29 31  1  0  0  0  0
M  CHG  1  23   1
M  END
$$$$
default_name
  -OEChem-02102213163D

 34 33  0     1  0  0  0  0  0999 V2000
   -3.8899   -3.6747    1.6490 H   0  0  0  0  0  0  0  0  0  0  0  0
   -3.9109   -2.6717    1.2250 C   0  0  0  0  0  0  0  0  0  0  0  0
   -4.6009   -2.0517    1.7950 H   0  0  0  0  0  0  0  0  0  0  0  0
   -4.2309   -2.7237    0.1860 H   0  0  0  0  0  0  0  0  0  0  0  0
   -2.5229   -2.0787    1.2980 C   0  0  0  0  0  0  0  0  0  0  0  0
   -1.5999   -2.7227    1.7810 O   0  0  0  0  0  0  0  0  0  0  0  0
   -2.3659   -0.8447    0.8120 N   0  0  0  0  0  0  0  0  0  0  0  0
   -3.1749   -0.3807    0.4220 H   0  0  0  0  0  0  0  0  0  0  0  0
   -1.0919   -0.1077    0.8170 C   0  0  1  0  0  0  0  0  0  0  0  0
   -0.3571   -0.6901    0.2581 H   0  0  0  0  0  0  0  0  0  0  0  0
   -1.3037    1.2411    0.1040 C   0  0  0  0  0  0  0  0  0  0  0  0
   -0.4723    1.4053   -0.5832 H   0  0  0  0  0  0  0  0  0  0  0  0
   -2.2247    1.1970   -0.4808 H   0  0  0  0  0  0  0  0  0  0  0  0
   -1.3744    2.4334    1.0702 C   0  0  0  0  0  0  0  0  0  0  0  0
   -2.0120    2.1815    1.9187 H   0  0  0  0  0  0  0  0  0  0  0  0
   -0.3705    2.6613    1.4340 H   0  0  0  0  0  0  0  0  0  0  0  0
   -1.9484    3.6658    0.3575 C   0  0  0  0  0  0  0  0  0  0  0  0
   -1.3160    3.9065   -0.5004 H   0  0  0  0  0  0  0  0  0  0  0  0
   -2.9554    3.4358    0.0040 H   0  0  0  0  0  0  0  0  0  0  0  0
   -1.9964    4.8638    1.3141 C   0  0  0  0  0  0  0  0  0  0  0  0
   -2.6274    4.6002    2.1691 H   0  0  0  0  0  0  0  0  0  0  0  0
   -0.9853    5.0503    1.6886 H   0  0  0  0  0  0  0  0  0  0  0  0
   -2.5261    6.0775    0.6427 N   0  3  0  0  0  0  0  0  0  0  0  0
   -3.4657    5.9144    0.3030 H   0  0  0  0  0  0  0  0  0  0  0  0
   -2.5510    6.8583    1.2866 H   0  0  0  0  0  0  0  0  0  0  0  0
   -1.9403    6.3309   -0.1444 H   0  0  0  0  0  0  0  0  0  0  0  0
   -0.5865    0.0771    2.2496 C   0  0  0  0  0  0  0  0  0  0  0  0
    0.5860   -0.1608    2.5143 O   0  0  0  0  0  0  0  0  0  0  0  0
   -1.4786    0.4656    3.1667 N   0  0  0  0  0  0  0  0  0  0  0  0
   -2.4139    0.6698    2.8558 H   0  0  0  0  0  0  0  0  0  0  0  0
   -1.1587    0.6908    4.5775 C   0  0  0  0  0  0  0  0  0  0  0  0
   -0.4270    1.4968    4.6656 H   0  0  0  0  0  0  0  0  0  0  0  0
   -2.0565    0.9649    5.1327 H   0  0  0  0  0  0  0  0  0  0  0  0
   -0.7281   -0.2137    5.0125 H   0  0  0  0  0  0  0  0  0  0  0  0
  5  6  2  0  0  0  0
  5  7  1  0  0  0  0
  2  3  1  0  0  0  0
  2  4  1  0  0  0  0
  2  5  1  0  0  0  0
  1  2  1  0  0  0  0
 27 28  2  0  0  0  0
 27 29  1  0  0  0  0
 23 24  1  0  0  0  0
 23 25  1  0  0  0  0
 23 26  1  0  0  0  0
 20 21  1  0  0  0  0
 20 22  1  0  0  0  0
 20 23  1  0  0  0  0
 17 18  1  0  0  0  0
 17 19  1  0  0  0  0
 17 20  1  0  0  0  0
 14 15  1  0  0  0  0
 14 16  1  0  0  0  0
 14 17  1  0  0  0  0
 11 12  1  0  0  0  0
 11 13  1  0  0  0  0
 11 14  1  0  0  0  0
  9 10  1  0  0  0  0
  9 11  1  0  0  0  0
  9 27  1  0  0  0  0
  7  8  1  0  0  0  0
  7  9  1  0  0  0  0
 31 32  1  0  0  0  0
 31 33  1  0  0  0  0
 31 34  1  0  0  0  0
 29 30  1  0  0  0  0
 29 31  1  0  0  0  0
M  CHG  1  23   1
M  END
$$$$
default_name
  -OEChem-02102213163D

 34 33  0     1  0  0  0  0  0999 V2000
   -3.8899   -3.6747    1.6490 H   0  0  0  0  0  0  0  0  0  0  0  0
   -3.9109   -2.6717    1.2250 C   0  0  0  0  0  0  0  0  0  0  0  0
   -4.6009   -2.0517    1.7950 H   0  0  0  0  0  0  0  0  0  0  0  0
   -4.2309   -2.7237    0.1860 H   0  0  0  0  0  0  0  0  0  0  0  0
   -2.5229   -2.0787    1.2980 C   0  0  0  0  0  0  0  0  0  0  0  0
   -1.5999   -2.7227    1.7810 O   0  0  0  0  0  0  0  0  0  0  0  0
   -2.3659   -0.8447    0.8120 N   0  0  0  0  0  0  0  0  0  0  0  0
   -3.1749   -0.3807    0.4220 H   0  0  0  0  0  0  0  0  0  0  0  0
   -1.0919   -0.1077    0.8170 C   0  0  1  0  0  0  0  0  0  0  0  0
   -0.3571   -0.6901    0.2581 H   0  0  0  0  0  0  0  0  0  0  0  0
   -1.3037    1.2411    0.1040 C   0  0  0  0  0  0  0  0  0  0  0  0
   -0.4723    1.4053   -0.5832 H   0  0  0  0  0  0  0  0  0  0  0  0
   -2.2247    1.1970   -0.4808 H   0  0  0  0  0  0  0  0  0  0  0  0
   -1.3744    2.4334    1.0702 C   0  0  0  0  0  0  0  0  0  0  0  0
   -1.7794    2.1061    2.0287 H   0  0  0  0  0  0  0  0  0  0  0  0
   -0.3693    2.8308    1.2249 H   0  0  0  0  0  0  0  0  0  0  0  0
   -2.2734    3.5360    0.4939 C   0  0  0  0  0  0  0  0  0  0  0  0
   -1.8735    3.8511   -0.4729 H   0  0  0  0  0  0  0  0  0  0  0  0
   -3.2792    3.1363    0.3498 H   0  0  0  0  0  0  0  0  0  0  0  0
   -2.3250    4.7373    1.4461 C   0  0  0  0  0  0  0  0  0  0  0  0
   -2.7205    4.3997    2.4096 H   0  0  0  0  0  0  0  0  0  0  0  0
   -1.3041    5.0954    1.6097 H   0  0  0  0  0  0  0  0  0  0  0  0
   -3.1700    5.8299    0.9012 N   0  3  0  0  0  0  0  0  0  0  0  0
   -4.1188    5.5075    0.7575 H   0  0  0  0  0  0  0  0  0  0  0  0
   -3.1934    6.6145    1.5406 H   0  0  0  0  0  0  0  0  0  0  0  0
   -2.8030    6.1520    0.0133 H   0  0  0  0  0  0  0  0  0  0  0  0
   -0.5865    0.0771    2.2496 C   0  0  0  0  0  0  0  0  0  0  0  0
    0.5860   -0.1608    2.5143 O   0  0  0  0  0  0  0  0  0  0  0  0
   -1.4786    0.4656    3.1667 N   0  0  0  0  0  0  0  0  0  0  0  0
   -2.4139    0.6698    2.8558 H   0  0  0  0  0  0  0  0  0  0  0  0
   -1.1587    0.6908    4.5775 C   0  0  0  0  0  0  0  0  0  0  0  0
   -0.4270    1.4968    4.6656 H   0  0  0  0  0  0  0  0  0  0  0  0
   -2.0565    0.9649    5.1327 H   0  0  0  0  0  0  0  0  0  0  0  0
   -0.7281   -0.2137    5.0125 H   0  0  0  0  0  0  0  0  0  0  0  0
  5  6  2  0  0  0  0
  5  7  1  0  0  0  0
  2  3  1  0  0  0  0
  2  4  1  0  0  0  0
  2  5  1  0  0  0  0
  1  2  1  0  0  0  0
 27 28  2  0  0  0  0
 27 29  1  0  0  0  0
 23 24  1  0  0  0  0
 23 25  1  0  0  0  0
 23 26  1  0  0  0  0
 20 21  1  0  0  0  0
 20 22  1  0  0  0  0
 20 23  1  0  0  0  0
 17 18  1  0  0  0  0
 17 19  1  0  0  0  0
 17 20  1  0  0  0  0
 14 15  1  0  0  0  0
 14 16  1  0  0  0  0
 14 17  1  0  0  0  0
 11 12  1  0  0  0  0
 11 13  1  0  0  0  0
 11 14  1  0  0  0  0
  9 10  1  0  0  0  0
  9 11  1  0  0  0  0
  9 27  1  0  0  0  0
  7  8  1  0  0  0  0
  7  9  1  0  0  0  0
 31 32  1  0  0  0  0
 31 33  1  0  0  0  0
 31 34  1  0  0  0  0
 29 30  1  0  0  0  0
 29 31  1  0  0  0  0
M  CHG  1  23   1
M  END
$$$$
default_name
  -OEChem-02102213163D

 34 33  0     1  0  0  0  0  0999 V2000
   -3.8899   -3.6747    1.6490 H   0  0  0  0  0  0  0  0  0  0  0  0
   -3.9109   -2.6717    1.2250 C   0  0  0  0  0  0  0  0  0  0  0  0
   -4.6009   -2.0517    1.7950 H   0  0  0  0  0  0  0  0  0  0  0  0
   -4.2309   -2.7237    0.1860 H   0  0  0  0  0  0  0  0  0  0  0  0
   -2.5229   -2.0787    1.2980 C   0  0  0  0  0  0  0  0  0  0  0  0
   -1.5999   -2.7227    1.7810 O   0  0  0  0  0  0  0  0  0  0  0  0
   -2.3659   -0.8447    0.8120 N   0  0  0  0  0  0  0  0  0  0  0  0
   -3.1749   -0.3807    0.4220 H   0  0  0  0  0  0  0  0  0  0  0  0
   -1.0919   -0.1077    0.8170 C   0  0  1  0  0  0  0  0  0  0  0  0
   -0.3571   -0.6901    0.2581 H   0  0  0  0  0  0  0  0  0  0  0  0
   -1.3037    1.2411    0.1040 C   0  0  0  0  0  0  0  0  0  0  0  0
   -0.4723    1.4053   -0.5832 H   0  0  0  0  0  0  0  0  0  0  0  0
   -2.2247    1.1970   -0.4808 H   0  0  0  0  0  0  0  0  0  0  0  0
   -1.3744    2.4334    1.0702 C   0  0  0  0  0  0  0  0  0  0  0  0
   -1.5204    2.0725    2.0892 H   0  0  0  0  0  0  0  0  0  0  0  0
   -0.4377    2.9922    1.0208 H   0  0  0  0  0  0  0  0  0  0  0  0
   -2.5389    3.3594    0.6925 C   0  0  0  0  0  0  0  0  0  0  0  0
   -2.3975    3.7073   -0.3336 H   0  0  0  0  0  0  0  0  0  0  0  0
   -3.4737    2.7985    0.7525 H   0  0  0  0  0  0  0  0  0  0  0  0
   -2.5954    4.5633    1.6411 C   0  0  0  0  0  0  0  0  0  0  0  0
   -2.7294    4.1938    2.6631 H   0  0  0  0  0  0  0  0  0  0  0  0
   -1.6352    5.0860    1.5970 H   0  0  0  0  0  0  0  0  0  0  0  0
   -3.6997    5.4889    1.2832 N   0  3  0  0  0  0  0  0  0  0  0  0
   -4.5921    5.0135    1.3324 H   0  0  0  0  0  0  0  0  0  0  0  0
   -3.7231    6.2774    1.9179 H   0  0  0  0  0  0  0  0  0  0  0  0
   -3.5755    5.8407    0.3410 H   0  0  0  0  0  0  0  0  0  0  0  0
   -0.5865    0.0771    2.2496 C   0  0  0  0  0  0  0  0  0  0  0  0
    0.5860   -0.1608    2.5143 O   0  0  0  0  0  0  0  0  0  0  0  0
   -1.4786    0.4656    3.1667 N   0  0  0  0  0  0  0  0  0  0  0  0
   -2.4139    0.6698    2.8558 H   0  0  0  0  0  0  0  0  0  0  0  0
   -1.1587    0.6908    4.5775 C   0  0  0  0  0  0  0  0  0  0  0  0
   -0.4270    1.4968    4.6656 H   0  0  0  0  0  0  0  0  0  0  0  0
   -2.0565    0.9649    5.1327 H   0  0  0  0  0  0  0  0  0  0  0  0
   -0.7281   -0.2137    5.0125 H   0  0  0  0  0  0  0  0  0  0  0  0
  5  6  2  0  0  0  0
  5  7  1  0  0  0  0
  2  3  1  0  0  0  0
  2  4  1  0  0  0  0
  2  5  1  0  0  0  0
  1  2  1  0  0  0  0
 27 28  2  0  0  0  0
 27 29  1  0  0  0  0
 23 24  1  0  0  0  0
 23 25  1  0  0  0  0
 23 26  1  0  0  0  0
 20 21  1  0  0  0  0
 20 22  1  0  0  0  0
 20 23  1  0  0  0  0
 17 18  1  0  0  0  0
 17 19  1  0  0  0  0
 17 20  1  0  0  0  0
 14 15  1  0  0  0  0
 14 16  1  0  0  0  0
 14 17  1  0  0  0  0
 11 12  1  0  0  0  0
 11 13  1  0  0  0  0
 11 14  1  0  0  0  0
  9 10  1  0  0  0  0
  9 11  1  0  0  0  0
  9 27  1  0  0  0  0
  7  8  1  0  0  0  0
  7  9  1  0  0  0  0
 31 32  1  0  0  0  0
 31 33  1  0  0  0  0
 31 34  1  0  0  0  0
 29 30  1  0  0  0  0
 29 31  1  0  0  0  0
M  CHG  1  23   1
M  END
$$$$
default_name
  -OEChem-02102213163D

 34 33  0     1  0  0  0  0  0999 V2000
   -3.8899   -3.6747    1.6490 H   0  0  0  0  0  0  0  0  0  0  0  0
   -3.9109   -2.6717    1.2250 C   0  0  0  0  0  0  0  0  0  0  0  0
   -4.6009   -2.0517    1.7950 H   0  0  0  0  0  0  0  0  0  0  0  0
   -4.2309   -2.7237    0.1860 H   0  0  0  0  0  0  0  0  0  0  0  0
   -2.5229   -2.0787    1.2980 C   0  0  0  0  0  0  0  0  0  0  0  0
   -1.5999   -2.7227    1.7810 O   0  0  0  0  0  0  0  0  0  0  0  0
   -2.3659   -0.8447    0.8120 N   0  0  0  0  0  0  0  0  0  0  0  0
   -3.1749   -0.3807    0.4220 H   0  0  0  0  0  0  0  0  0  0  0  0
   -1.0919   -0.1077    0.8170 C   0  0  1  0  0  0  0  0  0  0  0  0
   -0.3571   -0.6901    0.2581 H   0  0  0  0  0  0  0  0  0  0  0  0
   -1.3037    1.2411    0.1040 C   0  0  0  0  0  0  0  0  0  0  0  0
   -0.4723    1.4053   -0.5832 H   0  0  0  0  0  0  0  0  0  0  0  0
   -2.2247    1.1970   -0.4808 H   0  0  0  0  0  0  0  0  0  0  0  0
   -1.3744    2.4334    1.0702 C   0  0  0  0  0  0  0  0  0  0  0  0
   -1.2525    2.0828    2.0960 H   0  0  0  0  0  0  0  0  0  0  0  0
   -0.5711    3.1345    0.8354 H   0  0  0  0  0  0  0  0  0  0  0  0
   -2.7266    3.1479    0.9397 C   0  0  0  0  0  0  0  0  0  0  0  0
   -2.8522    3.4847   -0.0922 H   0  0  0  0  0  0  0  0  0  0  0  0
   -3.5257    2.4453    1.1845 H   0  0  0  0  0  0  0  0  0  0  0  0
   -2.7890    4.3534    1.8859 C   0  0  0  0  0  0  0  0  0  0  0  0
   -2.6537    3.9965    2.9121 H   0  0  0  0  0  0  0  0  0  0  0  0
   -1.9560    5.0230    1.6514 H   0  0  0  0  0  0  0  0  0  0  0  0
   -4.0792    5.0779    1.7626 N   0  3  0  0  0  0  0  0  0  0  0  0
   -4.8534    4.4662    1.9888 H   0  0  0  0  0  0  0  0  0  0  0  0
   -4.1042    5.8700    2.3927 H   0  0  0  0  0  0  0  0  0  0  0  0
   -4.2052    5.4181    0.8165 H   0  0  0  0  0  0  0  0  0  0  0  0
   -0.5865    0.0771    2.2496 C   0  0  0  0  0  0  0  0  0  0  0  0
    0.5860   -0.1608    2.5143 O   0  0  0  0  0  0  0  0  0  0  0  0
   -1.4786    0.4656    3.1667 N   0  0  0  0  0  0  0  0  0  0  0  0
   -2.4139    0.6698    2.8558 H   0  0  0  0  0  0  0  0  0  0  0  0
   -1.1587    0.6908    4.5775 C   0  0  0  0  0  0  0  0  0  0  0  0
   -0.4270    1.4968    4.6656 H   0  0  0  0  0  0  0  0  0  0  0  0
   -2.0565    0.9649    5.1327 H   0  0  0  0  0  0  0  0  0  0  0  0
   -0.7281   -0.2137    5.0125 H   0  0  0  0  0  0  0  0  0  0  0  0
  5  6  2  0  0  0  0
  5  7  1  0  0  0  0
  2  3  1  0  0  0  0
  2  4  1  0  0  0  0
  2  5  1  0  0  0  0
  1  2  1  0  0  0  0
 27 28  2  0  0  0  0
 27 29  1  0  0  0  0
 23 24  1  0  0  0  0
 23 25  1  0  0  0  0
 23 26  1  0  0  0  0
 20 21  1  0  0  0  0
 20 22  1  0  0  0  0
 20 23  1  0  0  0  0
 17 18  1  0  0  0  0
 17 19  1  0  0  0  0
 17 20  1  0  0  0  0
 14 15  1  0  0  0  0
 14 16  1  0  0  0  0
 14 17  1  0  0  0  0
 11 12  1  0  0  0  0
 11 13  1  0  0  0  0
 11 14  1  0  0  0  0
  9 10  1  0  0  0  0
  9 11  1  0  0  0  0
  9 27  1  0  0  0  0
  7  8  1  0  0  0  0
  7  9  1  0  0  0  0
 31 32  1  0  0  0  0
 31 33  1  0  0  0  0
 31 34  1  0  0  0  0
 29 30  1  0  0  0  0
 29 31  1  0  0  0  0
M  CHG  1  23   1
M  END
$$$$
default_name
  -OEChem-02102213163D

 34 33  0     1  0  0  0  0  0999 V2000
   -3.8899   -3.6747    1.6490 H   0  0  0  0  0  0  0  0  0  0  0  0
   -3.9109   -2.6717    1.2250 C   0  0  0  0  0  0  0  0  0  0  0  0
   -4.6009   -2.0517    1.7950 H   0  0  0  0  0  0  0  0  0  0  0  0
   -4.2309   -2.7237    0.1860 H   0  0  0  0  0  0  0  0  0  0  0  0
   -2.5229   -2.0787    1.2980 C   0  0  0  0  0  0  0  0  0  0  0  0
   -1.5999   -2.7227    1.7810 O   0  0  0  0  0  0  0  0  0  0  0  0
   -2.3659   -0.8447    0.8120 N   0  0  0  0  0  0  0  0  0  0  0  0
   -3.1749   -0.3807    0.4220 H   0  0  0  0  0  0  0  0  0  0  0  0
   -1.0919   -0.1077    0.8170 C   0  0  1  0  0  0  0  0  0  0  0  0
   -0.3571   -0.6901    0.2581 H   0  0  0  0  0  0  0  0  0  0  0  0
   -1.3037    1.2411    0.1040 C   0  0  0  0  0  0  0  0  0  0  0  0
   -0.4723    1.4053   -0.5832 H   0  0  0  0  0  0  0  0  0  0  0  0
   -2.2247    1.1970   -0.4808 H   0  0  0  0  0  0  0  0  0  0  0  0
   -1.3744    2.4334    1.0702 C   0  0  0  0  0  0  0  0  0  0  0  0
   -0.9942    2.1365    2.0486 H   0  0  0  0  0  0  0  0  0  0  0  0
   -0.7603    3.2481    0.6814 H   0  0  0  0  0  0  0  0  0  0  0  0
   -2.8239    2.9160    1.2187 C   0  0  0  0  0  0  0  0  0  0  0  0
   -3.2067    3.1985    0.2351 H   0  0  0  0  0  0  0  0  0  0  0  0
   -3.4316    2.1009    1.6165 H   0  0  0  0  0  0  0  0  0  0  0  0
   -2.8928    4.1221    2.1638 C   0  0  0  0  0  0  0  0  0  0  0  0
   -2.4983    3.8212    3.1398 H   0  0  0  0  0  0  0  0  0  0  0  0
   -2.2448    4.9105    1.7691 H   0  0  0  0  0  0  0  0  0  0  0  0
   -4.2825    4.6249    2.3069 N   0  3  0  0  0  0  0  0  0  0  0  0
   -4.8849    3.9028    2.6817 H   0  0  0  0  0  0  0  0  0  0  0  0
   -4.3106    5.4201    2.9328 H   0  0  0  0  0  0  0  0  0  0  0  0
   -4.6492    4.9131    1.4072 H   0  0  0  0  0  0  0  0  0  0  0  0
   -0.5865    0.0771    2.2496 C   0  0  0  0  0  0  0  0  0  0  0  0
    0.5860   -0.1608    2.5143 O   0  0  0  0  0  0  0  0  0  0  0  0
   -1.4786    0.4656    3.1667 N   0  0  0  0  0  0  0  0  0  0  0  0
   -2.4139    0.6698    2.8558 H   0  0  0  0  0  0  0  0  0  0  0  0
   -1.1587    0.6908    4.5775 C   0  0  0  0  0  0  0  0  0  0  0  0
   -0.4270    1.4968    4.6656 H   0  0  0  0  0  0  0  0  0  0  0  0
   -2.0565    0.9649    5.1327 H   0  0  0  0  0  0  0  0  0  0  0  0
   -0.7281   -0.2137    5.0125 H   0  0  0  0  0  0  0  0  0  0  0  0
  5  6  2  0  0  0  0
  5  7  1  0  0  0  0
  2  3  1  0  0  0  0
  2  4  1  0  0  0  0
  2  5  1  0  0  0  0
  1  2  1  0  0  0  0
 27 28  2  0  0  0  0
 27 29  1  0  0  0  0
 23 24  1  0  0  0  0
 23 25  1  0  0  0  0
 23 26  1  0  0  0  0
 20 21  1  0  0  0  0
 20 22  1  0  0  0  0
 20 23  1  0  0  0  0
 17 18  1  0  0  0  0
 17 19  1  0  0  0  0
 17 20  1  0  0  0  0
 14 15  1  0  0  0  0
 14 16  1  0  0  0  0
 14 17  1  0  0  0  0
 11 12  1  0  0  0  0
 11 13  1  0  0  0  0
 11 14  1  0  0  0  0
  9 10  1  0  0  0  0
  9 11  1  0  0  0  0
  9 27  1  0  0  0  0
  7  8  1  0  0  0  0
  7  9  1  0  0  0  0
 31 32  1  0  0  0  0
 31 33  1  0  0  0  0
 31 34  1  0  0  0  0
 29 30  1  0  0  0  0
 29 31  1  0  0  0  0
M  CHG  1  23   1
M  END
$$$$
default_name
  -OEChem-02102213163D

 34 33  0     1  0  0  0  0  0999 V2000
   -3.8899   -3.6747    1.6490 H   0  0  0  0  0  0  0  0  0  0  0  0
   -3.9109   -2.6717    1.2250 C   0  0  0  0  0  0  0  0  0  0  0  0
   -4.6009   -2.0517    1.7950 H   0  0  0  0  0  0  0  0  0  0  0  0
   -4.2309   -2.7237    0.1860 H   0  0  0  0  0  0  0  0  0  0  0  0
   -2.5229   -2.0787    1.2980 C   0  0  0  0  0  0  0  0  0  0  0  0
   -1.5999   -2.7227    1.7810 O   0  0  0  0  0  0  0  0  0  0  0  0
   -2.3659   -0.8447    0.8120 N   0  0  0  0  0  0  0  0  0  0  0  0
   -3.1749   -0.3807    0.4220 H   0  0  0  0  0  0  0  0  0  0  0  0
   -1.0919   -0.1077    0.8170 C   0  0  1  0  0  0  0  0  0  0  0  0
   -0.3571   -0.6901    0.2581 H   0  0  0  0  0  0  0  0  0  0  0  0
   -1.3037    1.2411    0.1040 C   0  0  0  0  0  0  0  0  0  0  0  0
   -0.4723    1.4053   -0.5832 H   0  0  0  0  0  0  0  0  0  0  0  0
   -2.2247    1.1970   -0.4808 H   0  0  0  0  0  0  0  0  0  0  0  0
   -1.3744    2.4334    1.0702 C   0  0  0  0  0  0  0  0  0  0  0  0
   -0.7628    2.2299    1.9503 H   0  0  0  0  0  0  0  0  0  0  0  0
   -0.9925    3.3252    0.5693 H   0  0  0  0  0  0  0  0  0  0  0  0
   -2.8241    2.6796    1.5105 C   0  0  0  0  0  0  0  0  0  0  0  0
   -3.4368    2.8683    0.6257 H   0  0  0  0  0  0  0  0  0  0  0  0
   -3.1980    1.7886    2.0189 H   0  0  0  0  0  0  0  0  0  0  0  0
   -2.8995    3.8851    2.4557 C   0  0  0  0  0  0  0  0  0  0  0  0
   -2.2740    3.6798    3.3306 H   0  0  0  0  0  0  0  0  0  0  0  0
   -2.4817    4.7563    1.9421 H   0  0  0  0  0  0  0  0  0  0  0  0
   -4.2958    4.1606    2.8788 N   0  3  0  0  0  0  0  0  0  0  0  0
   -4.6844    3.3617    3.3641 H   0  0  0  0  0  0  0  0  0  0  0  0
   -4.3283    4.9584    3.5012 H   0  0  0  0  0  0  0  0  0  0  0  0
   -4.8771    4.3600    2.0731 H   0  0  0  0  0  0  0  0  0  0  0  0
   -0.5865    0.0771    2.2496 C   0  0  0  0  0  0  0  0  0  0  0  0
    0.5860   -0.1608    2.5143 O   0  0  0  0  0  0  0  0  0  0  0  0
   -1.4786    0.4656    3.1667 N   0  0  0  0  0  0  0  0  0  0  0  0
   -2.4139    0.6698    2.8558 H   0  0  0  0  0  0  0  0  0  0  0  0
   -1.1587    0.6908    4.5775 C   0  0  0  0  0  0  0  0  0  0  0  0
   -0.4270    1.4968    4.6656 H   0  0  0  0  0  0  0  0  0  0  0  0
   -2.0565    0.9649    5.1327 H   0  0  0  0  0  0  0  0  0  0  0  0
   -0.7281   -0.2137    5.0125 H   0  0  0  0  0  0  0  0  0  0  0  0
  5  6  2  0  0  0  0
  5  7  1  0  0  0  0
  2  3  1  0  0  0  0
  2  4  1  0  0  0  0
  2  5  1  0  0  0  0
  1  2  1  0  0  0  0
 27 28  2  0  0  0  0
 27 29  1  0  0  0  0
 23 24  1  0  0  0  0
 23 25  1  0  0  0  0
 23 26  1  0  0  0  0
 20 21  1  0  0  0  0
 20 22  1  0  0  0  0
 20 23  1  0  0  0  0
 17 18  1  0  0  0  0
 17 19  1  0  0  0  0
 17 20  1  0  0  0  0
 14 15  1  0  0  0  0
 14 16  1  0  0  0  0
 14 17  1  0  0  0  0
 11 12  1  0  0  0  0
 11 13  1  0  0  0  0
 11 14  1  0  0  0  0
  9 10  1  0  0  0  0
  9 11  1  0  0  0  0
  9 27  1  0  0  0  0
  7  8  1  0  0  0  0
  7  9  1  0  0  0  0
 31 32  1  0  0  0  0
 31 33  1  0  0  0  0
 31 34  1  0  0  0  0
 29 30  1  0  0  0  0
 29 31  1  0  0  0  0
M  CHG  1  23   1
M  END
$$$$
default_name
  -OEChem-02102213163D

 34 33  0     1  0  0  0  0  0999 V2000
   -3.8899   -3.6747    1.6490 H   0  0  0  0  0  0  0  0  0  0  0  0
   -3.9109   -2.6717    1.2250 C   0  0  0  0  0  0  0  0  0  0  0  0
   -4.6009   -2.0517    1.7950 H   0  0  0  0  0  0  0  0  0  0  0  0
   -4.2309   -2.7237    0.1860 H   0  0  0  0  0  0  0  0  0  0  0  0
   -2.5229   -2.0787    1.2980 C   0  0  0  0  0  0  0  0  0  0  0  0
   -1.5999   -2.7227    1.7810 O   0  0  0  0  0  0  0  0  0  0  0  0
   -2.3659   -0.8447    0.8120 N   0  0  0  0  0  0  0  0  0  0  0  0
   -3.1749   -0.3807    0.4220 H   0  0  0  0  0  0  0  0  0  0  0  0
   -1.0919   -0.1077    0.8170 C   0  0  1  0  0  0  0  0  0  0  0  0
   -0.3571   -0.6901    0.2581 H   0  0  0  0  0  0  0  0  0  0  0  0
   -1.3037    1.2411    0.1040 C   0  0  0  0  0  0  0  0  0  0  0  0
   -0.4723    1.4053   -0.5832 H   0  0  0  0  0  0  0  0  0  0  0  0
   -2.2247    1.1970   -0.4808 H   0  0  0  0  0  0  0  0  0  0  0  0
   -1.3744    2.4334    1.0702 C   0  0  0  0  0  0  0  0  0  0  0  0
   -0.5743    2.3566    1.8078 H   0  0  0  0  0  0  0  0  0  0  0  0
   -1.2519    3.3605    0.5067 H   0  0  0  0  0  0  0  0  0  0  0  0
   -2.7271    2.4546    1.7953 C   0  0  0  0  0  0  0  0  0  0  0  0
   -3.5268    2.5165    1.0533 H   0  0  0  0  0  0  0  0  0  0  0  0
   -2.8406    1.5298    2.3644 H   0  0  0  0  0  0  0  0  0  0  0  0
   -2.8088    3.6586    2.7419 C   0  0  0  0  0  0  0  0  0  0  0  0
   -1.9960    3.5821    3.4716 H   0  0  0  0  0  0  0  0  0  0  0  0
   -2.6507    4.5708    2.1587 H   0  0  0  0  0  0  0  0  0  0  0  0
   -4.1182    3.7168    3.4394 N   0  3  0  0  0  0  0  0  0  0  0  0
   -4.2655    2.8798    3.9894 H   0  0  0  0  0  0  0  0  0  0  0  0
   -4.1560    4.5163    4.0594 H   0  0  0  0  0  0  0  0  0  0  0  0
   -4.8735    3.7966    2.7686 H   0  0  0  0  0  0  0  0  0  0  0  0
   -0.5865    0.0771    2.2496 C   0  0  0  0  0  0  0  0  0  0  0  0
    0.5860   -0.1608    2.5143 O   0  0  0  0  0  0  0  0  0  0  0  0
   -1.4786    0.4656    3.1667 N   0  0  0  0  0  0  0  0  0  0  0  0
   -2.4139    0.6698    2.8558 H   0  0  0  0  0  0  0  0  0  0  0  0
   -1.1587    0.6908    4.5775 C   0  0  0  0  0  0  0  0  0  0  0  0
   -0.4270    1.4968    4.6656 H   0  0  0  0  0  0  0  0  0  0  0  0
   -2.0565    0.9649    5.1327 H   0  0  0  0  0  0  0  0  0  0  0  0
   -0.7281   -0.2137    5.0125 H   0  0  0  0  0  0  0  0  0  0  0  0
  5  6  2  0  0  0  0
  5  7  1  0  0  0  0
  2  3  1  0  0  0  0
  2  4  1  0  0  0  0
  2  5  1  0  0  0  0
  1  2  1  0  0  0  0
 27 28  2  0  0  0  0
 27 29  1  0  0  0  0
 23 24  1  0  0  0  0
 23 25  1  0  0  0  0
 23 26  1  0  0  0  0
 20 21  1  0  0  0  0
 20 22  1  0  0  0  0
 20 23  1  0  0  0  0
 17 18  1  0  0  0  0
 17 19  1  0  0  0  0
 17 20  1  0  0  0  0
 14 15  1  0  0  0  0
 14 16  1  0  0  0  0
 14 17  1  0  0  0  0
 11 12  1  0  0  0  0
 11 13  1  0  0  0  0
 11 14  1  0  0  0  0
  9 10  1  0  0  0  0
  9 11  1  0  0  0  0
  9 27  1  0  0  0  0
  7  8  1  0  0  0  0
  7  9  1  0  0  0  0
 31 32  1  0  0  0  0
 31 33  1  0  0  0  0
 31 34  1  0  0  0  0
 29 30  1  0  0  0  0
 29 31  1  0  0  0  0
M  CHG  1  23   1
M  END
$$$$
default_name
  -OEChem-02102213163D

 34 33  0     1  0  0  0  0  0999 V2000
   -3.8899   -3.6747    1.6490 H   0  0  0  0  0  0  0  0  0  0  0  0
   -3.9109   -2.6717    1.2250 C   0  0  0  0  0  0  0  0  0  0  0  0
   -4.6009   -2.0517    1.7950 H   0  0  0  0  0  0  0  0  0  0  0  0
   -4.2309   -2.7237    0.1860 H   0  0  0  0  0  0  0  0  0  0  0  0
   -2.5229   -2.0787    1.2980 C   0  0  0  0  0  0  0  0  0  0  0  0
   -1.5999   -2.7227    1.7810 O   0  0  0  0  0  0  0  0  0  0  0  0
   -2.3659   -0.8447    0.8120 N   0  0  0  0  0  0  0  0  0  0  0  0
   -3.1749   -0.3807    0.4220 H   0  0  0  0  0  0  0  0  0  0  0  0
   -1.0919   -0.1077    0.8170 C   0  0  1  0  0  0  0  0  0  0  0  0
   -0.3571   -0.6901    0.2581 H   0  0  0  0  0  0  0  0  0  0  0  0
   -1.3037    1.2411    0.1040 C   0  0  0  0  0  0  0  0  0  0  0  0
   -0.4723    1.4053   -0.5832 H   0  0  0  0  0  0  0  0  0  0  0  0
   -2.2247    1.1970   -0.4808 H   0  0  0  0  0  0  0  0  0  0  0  0
   -1.3744    2.4334    1.0702 C   0  0  0  0  0  0  0  0  0  0  0  0
   -0.4415    2.5079    1.6307 H   0  0  0  0  0  0  0  0  0  0  0  0
   -1.5207    3.3516    0.4980 H   0  0  0  0  0  0  0  0  0  0  0  0
   -2.5397    2.2564    2.0535 C   0  0  0  0  0  0  0  0  0  0  0  0
   -3.4706    2.1671    1.4885 H   0  0  0  0  0  0  0  0  0  0  0  0
   -2.3838    1.3420    2.6294 H   0  0  0  0  0  0  0  0  0  0  0  0
   -2.6268    3.4579    3.0028 C   0  0  0  0  0  0  0  0  0  0  0  0
   -1.6833    3.5346    3.5530 H   0  0  0  0  0  0  0  0  0  0  0  0
   -2.7403    4.3666    2.4040 H   0  0  0  0  0  0  0  0  0  0  0  0
   -3.7618    3.3237    3.9505 N   0  3  0  0  0  0  0  0  0  0  0  0
   -3.6569    2.4899    4.5150 H   0  0  0  0  0  0  0  0  0  0  0  0
   -3.8055    4.1240    4.5692 H   0  0  0  0  0  0  0  0  0  0  0  0
   -4.6386    3.2613    3.4464 H   0  0  0  0  0  0  0  0  0  0  0  0
   -0.5865    0.0771    2.2496 C   0  0  0  0  0  0  0  0  0  0  0  0
    0.5860   -0.1608    2.5143 O   0  0  0  0  0  0  0  0  0  0  0  0
   -1.4786    0.4656    3.1667 N   0  0  0  0  0  0  0  0  0  0  0  0
   -2.4139    0.6698    2.8558 H   0  0  0  0  0  0  0  0  0  0  0  0
   -1.1587    0.6908    4.5775 C   0  0  0  0  0  0  0  0  0  0  0  0
   -0.4270    1.4968    4.6656 H   0  0  0  0  0  0  0  0  0  0  0  0
   -2.0565    0.9649    5.1327 H   0  0  0  0  0  0  0  0  0  0  0  0
   -0.7281   -0.2137    5.0125 H   0  0  0  0  0  0  0  0  0  0  0  0
  5  6  2  0  0  0  0
  5  7  1  0  0  0  0
  2  3  1  0  0  0  0
  2  4  1  0  0  0  0
  2  5  1  0  0  0  0
  1  2  1  0  0  0  0
 27 28  2  0  0  0  0
 27 29  1  0  0  0  0
 23 24  1  0  0  0  0
 23 25  1  0  0  0  0
 23 26  1  0  0  0  0
 20 21  1  0  0  0  0
 20 22  1  0  0  0  0
 20 23  1  0  0  0  0
 17 18  1  0  0  0  0
 17 19  1  0  0  0  0
 17 20  1  0  0  0  0
 14 15  1  0  0  0  0
 14 16  1  0  0  0  0
 14 17  1  0  0  0  0
 11 12  1  0  0  0  0
 11 13  1  0  0  0  0
 11 14  1  0  0  0  0
  9 10  1  0  0  0  0
  9 11  1  0  0  0  0
  9 27  1  0  0  0  0
  7  8  1  0  0  0  0
  7  9  1  0  0  0  0
 31 32  1  0  0  0  0
 31 33  1  0  0  0  0
 31 34  1  0  0  0  0
 29 30  1  0  0  0  0
 29 31  1  0  0  0  0
M  CHG  1  23   1
M  END
$$$$
default_name
  -OEChem-02102213163D

 34 33  0     1  0  0  0  0  0999 V2000
   -3.8899   -3.6747    1.6490 H   0  0  0  0  0  0  0  0  0  0  0  0
   -3.9109   -2.6717    1.2250 C   0  0  0  0  0  0  0  0  0  0  0  0
   -4.6009   -2.0517    1.7950 H   0  0  0  0  0  0  0  0  0  0  0  0
   -4.2309   -2.7237    0.1860 H   0  0  0  0  0  0  0  0  0  0  0  0
   -2.5229   -2.0787    1.2980 C   0  0  0  0  0  0  0  0  0  0  0  0
   -1.5999   -2.7227    1.7810 O   0  0  0  0  0  0  0  0  0  0  0  0
   -2.3659   -0.8447    0.8120 N   0  0  0  0  0  0  0  0  0  0  0  0
   -3.1749   -0.3807    0.4220 H   0  0  0  0  0  0  0  0  0  0  0  0
   -1.0919   -0.1077    0.8170 C   0  0  1  0  0  0  0  0  0  0  0  0
   -0.3571   -0.6901    0.2581 H   0  0  0  0  0  0  0  0  0  0  0  0
   -1.3037    1.2411    0.1040 C   0  0  0  0  0  0  0  0  0  0  0  0
   -0.4723    1.4053   -0.5832 H   0  0  0  0  0  0  0  0  0  0  0  0
   -2.2247    1.1970   -0.4808 H   0  0  0  0  0  0  0  0  0  0  0  0
   -1.3744    2.4334    1.0702 C   0  0  0  0  0  0  0  0  0  0  0  0
   -0.3734    2.6736    1.4312 H   0  0  0  0  0  0  0  0  0  0  0  0
   -1.7807    3.2992    0.5437 H   0  0  0  0  0  0  0  0  0  0  0  0
   -2.2745    2.0986    2.2676 C   0  0  0  0  0  0  0  0  0  0  0  0
   -3.2721    1.8440    1.9018 H   0  0  0  0  0  0  0  0  0  0  0  0
   -1.8589    1.2382    2.7959 H   0  0  0  0  0  0  0  0  0  0  0  0
   -2.3659    3.2969    3.2207 C   0  0  0  0  0  0  0  0  0  0  0  0
   -1.3571    3.5406    3.5694 H   0  0  0  0  0  0  0  0  0  0  0  0
   -2.7443    4.1578    2.6614 H   0  0  0  0  0  0  0  0  0  0  0  0
   -3.2509    3.0081    4.3774 N   0  3  0  0  0  0  0  0  0  0  0  0
   -2.9000    2.2187    4.9050 H   0  0  0  0  0  0  0  0  0  0  0  0
   -3.3007    3.8081    4.9958 H   0  0  0  0  0  0  0  0  0  0  0  0
   -4.1884    2.7905    4.0602 H   0  0  0  0  0  0  0  0  0  0  0  0
   -0.5865    0.0771    2.2496 C   0  0  0  0  0  0  0  0  0  0  0  0
    0.5860   -0.1608    2.5143 O   0  0  0  0  0  0  0  0  0  0  0  0
   -1.4786    0.4656    3.1667 N   0  0  0  0  0  0  0  0  0  0  0  0
   -2.4139    0.6698    2.8558 H   0  0  0  0  0  0  0  0  0  0  0  0
   -1.1587    0.6908    4.5775 C   0  0  0  0  0  0  0  0  0  0  0  0
   -0.4270    1.4968    4.6656 H   0  0  0  0  0  0  0  0  0  0  0  0
   -2.0565    0.9649    5.1327 H   0  0  0  0  0  0  0  0  0  0  0  0
   -0.7281   -0.2137    5.0125 H   0  0  0  0  0  0  0  0  0  0  0  0
  5  6  2  0  0  0  0
  5  7  1  0  0  0  0
  2  3  1  0  0  0  0
  2  4  1  0  0  0  0
  2  5  1  0  0  0  0
  1  2  1  0  0  0  0
 27 28  2  0  0  0  0
 27 29  1  0  0  0  0
 23 24  1  0  0  0  0
 23 25  1  0  0  0  0
 23 26  1  0  0  0  0
 20 21  1  0  0  0  0
 20 22  1  0  0  0  0
 20 23  1  0  0  0  0
 17 18  1  0  0  0  0
 17 19  1  0  0  0  0
 17 20  1  0  0  0  0
 14 15  1  0  0  0  0
 14 16  1  0  0  0  0
 14 17  1  0  0  0  0
 11 12  1  0  0  0  0
 11 13  1  0  0  0  0
 11 14  1  0  0  0  0
  9 10  1  0  0  0  0
  9 11  1  0  0  0  0
  9 27  1  0  0  0  0
  7  8  1  0  0  0  0
  7  9  1  0  0  0  0
 31 32  1  0  0  0  0
 31 33  1  0  0  0  0
 31 34  1  0  0  0  0
 29 30  1  0  0  0  0
 29 31  1  0  0  0  0
M  CHG  1  23   1
M  END
$$$$
default_name
  -OEChem-02102213163D

 34 33  0     1  0  0  0  0  0999 V2000
   -3.8899   -3.6747    1.6490 H   0  0  0  0  0  0  0  0  0  0  0  0
   -3.9109   -2.6717    1.2250 C   0  0  0  0  0  0  0  0  0  0  0  0
   -4.6009   -2.0517    1.7950 H   0  0  0  0  0  0  0  0  0  0  0  0
   -4.2309   -2.7237    0.1860 H   0  0  0  0  0  0  0  0  0  0  0  0
   -2.5229   -2.0787    1.2980 C   0  0  0  0  0  0  0  0  0  0  0  0
   -1.5999   -2.7227    1.7810 O   0  0  0  0  0  0  0  0  0  0  0  0
   -2.3659   -0.8447    0.8120 N   0  0  0  0  0  0  0  0  0  0  0  0
   -3.1749   -0.3807    0.4220 H   0  0  0  0  0  0  0  0  0  0  0  0
   -1.0919   -0.1077    0.8170 C   0  0  1  0  0  0  0  0  0  0  0  0
   -0.3571   -0.6901    0.2581 H   0  0  0  0  0  0  0  0  0  0  0  0
   -1.3037    1.2411    0.1040 C   0  0  0  0  0  0  0  0  0  0  0  0
   -0.4723    1.4053   -0.5832 H   0  0  0  0  0  0  0  0  0  0  0  0
   -2.2247    1.1970   -0.4808 H   0  0  0  0  0  0  0  0  0  0  0  0
   -1.3744    2.4334    1.0702 C   0  0  0  0  0  0  0  0  0  0  0  0
   -0.3747    2.8424    1.2229 H   0  0  0  0  0  0  0  0  0  0  0  0
   -2.0141    3.2068    0.6406 H   0  0  0  0  0  0  0  0  0  0  0  0
   -1.9496    1.9919    2.4231 C   0  0  0  0  0  0  0  0  0  0  0  0
   -2.9447    1.5691    2.2649 H   0  0  0  0  0  0  0  0  0  0  0  0
   -1.3014    1.2254    2.8525 H   0  0  0  0  0  0  0  0  0  0  0  0
   -2.0439    3.1863    3.3806 C   0  0  0  0  0  0  0  0  0  0  0  0
   -1.0397    3.5997    3.5197 H   0  0  0  0  0  0  0  0  0  0  0  0
   -2.6624    3.9585    2.9133 H   0  0  0  0  0  0  0  0  0  0  0  0
   -2.6203    2.7915    4.6907 N   0  3  0  0  0  0  0  0  0  0  0  0
   -2.0464    2.0845    5.1330 H   0  0  0  0  0  0  0  0  0  0  0  0
   -2.6760    3.5903    5.3103 H   0  0  0  0  0  0  0  0  0  0  0  0
   -3.5536    2.4163    4.5684 H   0  0  0  0  0  0  0  0  0  0  0  0
   -0.5865    0.0771    2.2496 C   0  0  0  0  0  0  0  0  0  0  0  0
    0.5860   -0.1608    2.5143 O   0  0  0  0  0  0  0  0  0  0  0  0
   -1.4786    0.4656    3.1667 N   0  0  0  0  0  0  0  0  0  0  0  0
   -2.4139    0.6698    2.8558 H   0  0  0  0  0  0  0  0  0  0  0  0
   -1.1587    0.6908    4.5775 C   0  0  0  0  0  0  0  0  0  0  0  0
   -0.4270    1.4968    4.6656 H   0  0  0  0  0  0  0  0  0  0  0  0
   -2.0565    0.9649    5.1327 H   0  0  0  0  0  0  0  0  0  0  0  0
   -0.7281   -0.2137    5.0125 H   0  0  0  0  0  0  0  0  0  0  0  0
  5  6  2  0  0  0  0
  5  7  1  0  0  0  0
  2  3  1  0  0  0  0
  2  4  1  0  0  0  0
  2  5  1  0  0  0  0
  1  2  1  0  0  0  0
 27 28  2  0  0  0  0
 27 29  1  0  0  0  0
 23 24  1  0  0  0  0
 23 25  1  0  0  0  0
 23 26  1  0  0  0  0
 20 21  1  0  0  0  0
 20 22  1  0  0  0  0
 20 23  1  0  0  0  0
 17 18  1  0  0  0  0
 17 19  1  0  0  0  0
 17 20  1  0  0  0  0
 14 15  1  0  0  0  0
 14 16  1  0  0  0  0
 14 17  1  0  0  0  0
 11 12  1  0  0  0  0
 11 13  1  0  0  0  0
 11 14  1  0  0  0  0
  9 10  1  0  0  0  0
  9 11  1  0  0  0  0
  9 27  1  0  0  0  0
  7  8  1  0  0  0  0
  7  9  1  0  0  0  0
 31 32  1  0  0  0  0
 31 33  1  0  0  0  0
 31 34  1  0  0  0  0
 29 30  1  0  0  0  0
 29 31  1  0  0  0  0
M  CHG  1  23   1
M  END
$$$$
default_name
  -OEChem-02102213163D

 34 33  0     1  0  0  0  0  0999 V2000
   -3.8899   -3.6747    1.6490 H   0  0  0  0  0  0  0  0  0  0  0  0
   -3.9109   -2.6717    1.2250 C   0  0  0  0  0  0  0  0  0  0  0  0
   -4.6009   -2.0517    1.7950 H   0  0  0  0  0  0  0  0  0  0  0  0
   -4.2309   -2.7237    0.1860 H   0  0  0  0  0  0  0  0  0  0  0  0
   -2.5229   -2.0787    1.2980 C   0  0  0  0  0  0  0  0  0  0  0  0
   -1.5999   -2.7227    1.7810 O   0  0  0  0  0  0  0  0  0  0  0  0
   -2.3659   -0.8447    0.8120 N   0  0  0  0  0  0  0  0  0  0  0  0
   -3.1749   -0.3807    0.4220 H   0  0  0  0  0  0  0  0  0  0  0  0
   -1.0919   -0.1077    0.8170 C   0  0  1  0  0  0  0  0  0  0  0  0
   -0.3571   -0.6901    0.2581 H   0  0  0  0  0  0  0  0  0  0  0  0
   -1.3037    1.2411    0.1040 C   0  0  0  0  0  0  0  0  0  0  0  0
   -0.4723    1.4053   -0.5832 H   0  0  0  0  0  0  0  0  0  0  0  0
   -2.2247    1.1970   -0.4808 H   0  0  0  0  0  0  0  0  0  0  0  0
   -1.3744    2.4334    1.0702 C   0  0  0  0  0  0  0  0  0  0  0  0
   -0.4452    3.0027    1.0199 H   0  0  0  0  0  0  0  0  0  0  0  0
   -2.2051    3.0807    0.7823 H   0  0  0  0  0  0  0  0  0  0  0  0
   -1.5873    1.9435    2.5092 C   0  0  0  0  0  0  0  0  0  0  0  0
   -2.5108    1.3612    2.5532 H   0  0  0  0  0  0  0  0  0  0  0  0
   -0.7496    1.3044    2.7954 H   0  0  0  0  0  0  0  0  0  0  0  0
   -1.6828    3.1339    3.4717 C   0  0  0  0  0  0  0  0  0  0  0  0
   -0.7527    3.7079    3.4072 H   0  0  0  0  0  0  0  0  0  0  0  0
   -2.5003    3.7824    3.1425 H   0  0  0  0  0  0  0  0  0  0  0  0
   -1.9130    2.6887    4.8694 N   0  3  0  0  0  0  0  0  0  0  0  0
   -1.1543    2.0966    5.1833 H   0  0  0  0  0  0  0  0  0  0  0  0
   -1.9739    3.4853    5.4912 H   0  0  0  0  0  0  0  0  0  0  0  0
   -2.7775    2.1643    4.9361 H   0  0  0  0  0  0  0  0  0  0  0  0
   -0.5865    0.0771    2.2496 C   0  0  0  0  0  0  0  0  0  0  0  0
    0.5860   -0.1608    2.5143 O   0  0  0  0  0  0  0  0  0  0  0  0
   -1.4786    0.4656    3.1667 N   0  0  0  0  0  0  0  0  0  0  0  0
   -2.4139    0.6698    2.8558 H   0  0  0  0  0  0  0  0  0  0  0  0
   -1.1587    0.6908    4.5775 C   0  0  0  0  0  0  0  0  0  0  0  0
   -0.4270    1.4968    4.6656 H   0  0  0  0  0  0  0  0  0  0  0  0
   -2.0565    0.9649    5.1327 H   0  0  0  0  0  0  0  0  0  0  0  0
   -0.7281   -0.2137    5.0125 H   0  0  0  0  0  0  0  0  0  0  0  0
  5  6  2  0  0  0  0
  5  7  1  0  0  0  0
  2  3  1  0  0  0  0
  2  4  1  0  0  0  0
  2  5  1  0  0  0  0
  1  2  1  0  0  0  0
 27 28  2  0  0  0  0
 27 29  1  0  0  0  0
 23 24  1  0  0  0  0
 23 25  1  0  0  0  0
 23 26  1  0  0  0  0
 20 21  1  0  0  0  0
 20 22  1  0  0  0  0
 20 23  1  0  0  0  0
 17 18  1  0  0  0  0
 17 19  1  0  0  0  0
 17 20  1  0  0  0  0
 14 15  1  0  0  0  0
 14 16  1  0  0  0  0
 14 17  1  0  0  0  0
 11 12  1  0  0  0  0
 11 13  1  0  0  0  0
 11 14  1  0  0  0  0
  9 10  1  0  0  0  0
  9 11  1  0  0  0  0
  9 27  1  0  0  0  0
  7  8  1  0  0  0  0
  7  9  1  0  0  0  0
 31 32  1  0  0  0  0
 31 33  1  0  0  0  0
 31 34  1  0  0  0  0
 29 30  1  0  0  0  0
 29 31  1  0  0  0  0
M  CHG  1  23   1
M  END
$$$$
default_name
  -OEChem-02102213163D

 34 33  0     1  0  0  0  0  0999 V2000
   -3.8899   -3.6747    1.6490 H   0  0  0  0  0  0  0  0  0  0  0  0
   -3.9109   -2.6717    1.2250 C   0  0  0  0  0  0  0  0  0  0  0  0
   -4.6009   -2.0517    1.7950 H   0  0  0  0  0  0  0  0  0  0  0  0
   -4.2309   -2.7237    0.1860 H   0  0  0  0  0  0  0  0  0  0  0  0
   -2.5229   -2.0787    1.2980 C   0  0  0  0  0  0  0  0  0  0  0  0
   -1.5999   -2.7227    1.7810 O   0  0  0  0  0  0  0  0  0  0  0  0
   -2.3659   -0.8447    0.8120 N   0  0  0  0  0  0  0  0  0  0  0  0
   -3.1749   -0.3807    0.4220 H   0  0  0  0  0  0  0  0  0  0  0  0
   -1.0919   -0.1077    0.8170 C   0  0  1  0  0  0  0  0  0  0  0  0
   -0.3571   -0.6901    0.2581 H   0  0  0  0  0  0  0  0  0  0  0  0
   -1.3037    1.2411    0.1040 C   0  0  0  0  0  0  0  0  0  0  0  0
   -0.4723    1.4053   -0.5832 H   0  0  0  0  0  0  0  0  0  0  0  0
   -2.2247    1.1970   -0.4808 H   0  0  0  0  0  0  0  0  0  0  0  0
   -1.3744    2.4334    1.0702 C   0  0  0  0  0  0  0  0  0  0  0  0
   -0.5803    3.1437    0.8360 H   0  0  0  0  0  0  0  0  0  0  0  0
   -2.3405    2.9295    0.9590 H   0  0  0  0  0  0  0  0  0  0  0  0
   -1.2120    1.9568    2.5203 C   0  0  0  0  0  0  0  0  0  0  0  0
   -1.9999    1.2345    2.7470 H   0  0  0  0  0  0  0  0  0  0  0  0
   -0.2408    1.4699    2.6284 H   0  0  0  0  0  0  0  0  0  0  0  0
   -1.3072    3.1431    3.4879 C   0  0  0  0  0  0  0  0  0  0  0  0
   -0.5157    3.8577    3.2396 H   0  0  0  0  0  0  0  0  0  0  0  0
   -2.2690    3.6413    3.3335 H   0  0  0  0  0  0  0  0  0  0  0  0
   -1.1771    2.7066    4.9010 N   0  3  0  0  0  0  0  0  0  0  0  0
   -0.2844    2.2541    5.0526 H   0  0  0  0  0  0  0  0  0  0  0  0
   -1.2423    3.5003    5.5262 H   0  0  0  0  0  0  0  0  0  0  0  0
   -1.9129    2.0515    5.1385 H   0  0  0  0  0  0  0  0  0  0  0  0
   -0.5865    0.0771    2.2496 C   0  0  0  0  0  0  0  0  0  0  0  0
    0.5860   -0.1608    2.5143 O   0  0  0  0  0  0  0  0  0  0  0  0
   -1.4786    0.4656    3.1667 N   0  0  0  0  0  0  0  0  0  0  0  0
   -2.4139    0.6698    2.8558 H   0  0  0  0  0  0  0  0  0  0  0  0
   -1.1587    0.6908    4.5775 C   0  0  0  0  0  0  0  0  0  0  0  0
   -0.4270    1.4968    4.6656 H   0  0  0  0  0  0  0  0  0  0  0  0
   -2.0565    0.9649    5.1327 H   0  0  0  0  0  0  0  0  0  0  0  0
   -0.7281   -0.2137    5.0125 H   0  0  0  0  0  0  0  0  0  0  0  0
  5  6  2  0  0  0  0
  5  7  1  0  0  0  0
  2  3  1  0  0  0  0
  2  4  1  0  0  0  0
  2  5  1  0  0  0  0
  1  2  1  0  0  0  0
 27 28  2  0  0  0  0
 27 29  1  0  0  0  0
 23 24  1  0  0  0  0
 23 25  1  0  0  0  0
 23 26  1  0  0  0  0
 20 21  1  0  0  0  0
 20 22  1  0  0  0  0
 20 23  1  0  0  0  0
 17 18  1  0  0  0  0
 17 19  1  0  0  0  0
 17 20  1  0  0  0  0
 14 15  1  0  0  0  0
 14 16  1  0  0  0  0
 14 17  1  0  0  0  0
 11 12  1  0  0  0  0
 11 13  1  0  0  0  0
 11 14  1  0  0  0  0
  9 10  1  0  0  0  0
  9 11  1  0  0  0  0
  9 27  1  0  0  0  0
  7  8  1  0  0  0  0
  7  9  1  0  0  0  0
 31 32  1  0  0  0  0
 31 33  1  0  0  0  0
 31 34  1  0  0  0  0
 29 30  1  0  0  0  0
 29 31  1  0  0  0  0
M  CHG  1  23   1
M  END
$$$$
default_name
  -OEChem-02102213163D

 34 33  0     1  0  0  0  0  0999 V2000
   -3.8899   -3.6747    1.6490 H   0  0  0  0  0  0  0  0  0  0  0  0
   -3.9109   -2.6717    1.2250 C   0  0  0  0  0  0  0  0  0  0  0  0
   -4.6009   -2.0517    1.7950 H   0  0  0  0  0  0  0  0  0  0  0  0
   -4.2309   -2.7237    0.1860 H   0  0  0  0  0  0  0  0  0  0  0  0
   -2.5229   -2.0787    1.2980 C   0  0  0  0  0  0  0  0  0  0  0  0
   -1.5999   -2.7227    1.7810 O   0  0  0  0  0  0  0  0  0  0  0  0
   -2.3659   -0.8447    0.8120 N   0  0  0  0  0  0  0  0  0  0  0  0
   -3.1749   -0.3807    0.4220 H   0  0  0  0  0  0  0  0  0  0  0  0
   -1.0919   -0.1077    0.8170 C   0  0  1  0  0  0  0  0  0  0  0  0
   -0.3571   -0.6901    0.2581 H   0  0  0  0  0  0  0  0  0  0  0  0
   -1.3037    1.2411    0.1040 C   0  0  0  0  0  0  0  0  0  0  0  0
   -0.4723    1.4053   -0.5832 H   0  0  0  0  0  0  0  0  0  0  0  0
   -2.2247    1.1970   -0.4808 H   0  0  0  0  0  0  0  0  0  0  0  0
   -1.3744    2.4334    1.0702 C   0  0  0  0  0  0  0  0  0  0  0  0
   -0.7705    3.2557    0.6839 H   0  0  0  0  0  0  0  0  0  0  0  0
   -2.4113    2.7635    1.1586 H   0  0  0  0  0  0  0  0  0  0  0  0
   -0.8496    2.0309    2.4554 C   0  0  0  0  0  0  0  0  0  0  0  0
   -1.4468    1.1975    2.8330 H   0  0  0  0  0  0  0  0  0  0  0  0
    0.1901    1.7105    2.3629 H   0  0  0  0  0  0  0  0  0  0  0  0
   -0.9426    3.2133    3.4279 C   0  0  0  0  0  0  0  0  0  0  0  0
   -0.3449    4.0391    3.0284 H   0  0  0  0  0  0  0  0  0  0  0  0
   -1.9843    3.5450    3.4732 H   0  0  0  0  0  0  0  0  0  0  0  0
   -0.4629    2.8441    4.7836 N   0  3  0  0  0  0  0  0  0  0  0  0
    0.5040    2.5462    4.7497 H   0  0  0  0  0  0  0  0  0  0  0  0
   -0.5311    3.6343    5.4128 H   0  0  0  0  0  0  0  0  0  0  0  0
   -1.0188    2.0858    5.1616 H   0  0  0  0  0  0  0  0  0  0  0  0
   -0.5865    0.0771    2.2496 C   0  0  0  0  0  0  0  0  0  0  0  0
    0.5860   -0.1608    2.5143 O   0  0  0  0  0  0  0  0  0  0  0  0
   -1.4786    0.4656    3.1667 N   0  0  0  0  0  0  0  0  0  0  0  0
   -2.4139    0.6698    2.8558 H   0  0  0  0  0  0  0  0  0  0  0  0
   -1.1587    0.6908    4.5775 C   0  0  0  0  0  0  0  0  0  0  0  0
   -0.4270    1.4968    4.6656 H   0  0  0  0  0  0  0  0  0  0  0  0
   -2.0565    0.9649    5.1327 H   0  0  0  0  0  0  0  0  0  0  0  0
   -0.7281   -0.2137    5.0125 H   0  0  0  0  0  0  0  0  0  0  0  0
  5  6  2  0  0  0  0
  5  7  1  0  0  0  0
  2  3  1  0  0  0  0
  2  4  1  0  0  0  0
  2  5  1  0  0  0  0
  1  2  1  0  0  0  0
 27 28  2  0  0  0  0
 27 29  1  0  0  0  0
 23 24  1  0  0  0  0
 23 25  1  0  0  0  0
 23 26  1  0  0  0  0
 20 21  1  0  0  0  0
 20 22  1  0  0  0  0
 20 23  1  0  0  0  0
 17 18  1  0  0  0  0
 17 19  1  0  0  0  0
 17 20  1  0  0  0  0
 14 15  1  0  0  0  0
 14 16  1  0  0  0  0
 14 17  1  0  0  0  0
 11 12  1  0  0  0  0
 11 13  1  0  0  0  0
 11 14  1  0  0  0  0
  9 10  1  0  0  0  0
  9 11  1  0  0  0  0
  9 27  1  0  0  0  0
  7  8  1  0  0  0  0
  7  9  1  0  0  0  0
 31 32  1  0  0  0  0
 31 33  1  0  0  0  0
 31 34  1  0  0  0  0
 29 30  1  0  0  0  0
 29 31  1  0  0  0  0
M  CHG  1  23   1
M  END
$$$$
default_name
  -OEChem-02102213163D

 34 33  0     1  0  0  0  0  0999 V2000
   -3.8899   -3.6747    1.6490 H   0  0  0  0  0  0  0  0  0  0  0  0
   -3.9109   -2.6717    1.2250 C   0  0  0  0  0  0  0  0  0  0  0  0
   -4.6009   -2.0517    1.7950 H   0  0  0  0  0  0  0  0  0  0  0  0
   -4.2309   -2.7237    0.1860 H   0  0  0  0  0  0  0  0  0  0  0  0
   -2.5229   -2.0787    1.2980 C   0  0  0  0  0  0  0  0  0  0  0  0
   -1.5999   -2.7227    1.7810 O   0  0  0  0  0  0  0  0  0  0  0  0
   -2.3659   -0.8447    0.8120 N   0  0  0  0  0  0  0  0  0  0  0  0
   -3.1749   -0.3807    0.4220 H   0  0  0  0  0  0  0  0  0  0  0  0
   -1.0919   -0.1077    0.8170 C   0  0  1  0  0  0  0  0  0  0  0  0
   -0.3571   -0.6901    0.2581 H   0  0  0  0  0  0  0  0  0  0  0  0
   -1.3037    1.2411    0.1040 C   0  0  0  0  0  0  0  0  0  0  0  0
   -0.4723    1.4053   -0.5832 H   0  0  0  0  0  0  0  0  0  0  0  0
   -2.2247    1.1970   -0.4808 H   0  0  0  0  0  0  0  0  0  0  0  0
   -1.3744    2.4334    1.0702 C   0  0  0  0  0  0  0  0  0  0  0  0
   -1.0031    3.3311    0.5739 H   0  0  0  0  0  0  0  0  0  0  0  0
   -2.4125    2.5941    1.3677 H   0  0  0  0  0  0  0  0  0  0  0  0
   -0.5245    2.1606    2.3190 C   0  0  0  0  0  0  0  0  0  0  0  0
   -0.8893    1.2528    2.8055 H   0  0  0  0  0  0  0  0  0  0  0  0
    0.5139    2.0100    2.0171 H   0  0  0  0  0  0  0  0  0  0  0  0
   -0.6139    3.3398    3.2958 C   0  0  0  0  0  0  0  0  0  0  0  0
   -0.2518    4.2395    2.7878 H   0  0  0  0  0  0  0  0  0  0  0  0
   -1.6655    3.4999    3.5521 H   0  0  0  0  0  0  0  0  0  0  0  0
    0.1810    3.0917    4.5251 N   0  3  0  0  0  0  0  0  0  0  0  0
    1.1571    2.9532    4.2953 H   0  0  0  0  0  0  0  0  0  0  0  0
    0.1113    3.8782    5.1588 H   0  0  0  0  0  0  0  0  0  0  0  0
   -0.1560    2.2647    5.0039 H   0  0  0  0  0  0  0  0  0  0  0  0
   -0.5865    0.0771    2.2496 C   0  0  0  0  0  0  0  0  0  0  0  0
    0.5860   -0.1608    2.5143 O   0  0  0  0  0  0  0  0  0  0  0  0
   -1.4786    0.4656    3.1667 N   0  0  0  0  0  0  0  0  0  0  0  0
   -2.4139    0.6698    2.8558 H   0  0  0  0  0  0  0  0  0  0  0  0
   -1.1587    0.6908    4.5775 C   0  0  0  0  0  0  0  0  0  0  0  0
   -0.4270    1.4968    4.6656 H   0  0  0  0  0  0  0  0  0  0  0  0
   -2.0565    0.9649    5.1327 H   0  0  0  0  0  0  0  0  0  0  0  0
   -0.7281   -0.2137    5.0125 H   0  0  0  0  0  0  0  0  0  0  0  0
  5  6  2  0  0  0  0
  5  7  1  0  0  0  0
  2  3  1  0  0  0  0
  2  4  1  0  0  0  0
  2  5  1  0  0  0  0
  1  2  1  0  0  0  0
 27 28  2  0  0  0  0
 27 29  1  0  0  0  0
 23 24  1  0  0  0  0
 23 25  1  0  0  0  0
 23 26  1  0  0  0  0
 20 21  1  0  0  0  0
 20 22  1  0  0  0  0
 20 23  1  0  0  0  0
 17 18  1  0  0  0  0
 17 19  1  0  0  0  0
 17 20  1  0  0  0  0
 14 15  1  0  0  0  0
 14 16  1  0  0  0  0
 14 17  1  0  0  0  0
 11 12  1  0  0  0  0
 11 13  1  0  0  0  0
 11 14  1  0  0  0  0
  9 10  1  0  0  0  0
  9 11  1  0  0  0  0
  9 27  1  0  0  0  0
  7  8  1  0  0  0  0
  7  9  1  0  0  0  0
 31 32  1  0  0  0  0
 31 33  1  0  0  0  0
 31 34  1  0  0  0  0
 29 30  1  0  0  0  0
 29 31  1  0  0  0  0
M  CHG  1  23   1
M  END
$$$$
default_name
  -OEChem-02102213163D

 34 33  0     1  0  0  0  0  0999 V2000
   -3.8899   -3.6747    1.6490 H   0  0  0  0  0  0  0  0  0  0  0  0
   -3.9109   -2.6717    1.2250 C   0  0  0  0  0  0  0  0  0  0  0  0
   -4.6009   -2.0517    1.7950 H   0  0  0  0  0  0  0  0  0  0  0  0
   -4.2309   -2.7237    0.1860 H   0  0  0  0  0  0  0  0  0  0  0  0
   -2.5229   -2.0787    1.2980 C   0  0  0  0  0  0  0  0  0  0  0  0
   -1.5999   -2.7227    1.7810 O   0  0  0  0  0  0  0  0  0  0  0  0
   -2.3659   -0.8447    0.8120 N   0  0  0  0  0  0  0  0  0  0  0  0
   -3.1749   -0.3807    0.4220 H   0  0  0  0  0  0  0  0  0  0  0  0
   -1.0919   -0.1077    0.8170 C   0  0  1  0  0  0  0  0  0  0  0  0
   -0.3571   -0.6901    0.2581 H   0  0  0  0  0  0  0  0  0  0  0  0
   -1.3037    1.2411    0.1040 C   0  0  0  0  0  0  0  0  0  0  0  0
   -0.4723    1.4053   -0.5832 H   0  0  0  0  0  0  0  0  0  0  0  0
   -2.2247    1.1970   -0.4808 H   0  0  0  0  0  0  0  0  0  0  0  0
   -1.3744    2.4334    1.0702 C   0  0  0  0  0  0  0  0  0  0  0  0
   -1.2622    3.3647    0.5134 H   0  0  0  0  0  0  0  0  0  0  0  0
   -2.3441    2.4327    1.5718 H   0  0  0  0  0  0  0  0  0  0  0  0
   -0.2591    2.3373    2.1204 C   0  0  0  0  0  0  0  0  0  0  0  0
   -0.3653    1.3967    2.6662 H   0  0  0  0  0  0  0  0  0  0  0  0
    0.7084    2.3478    1.6144 H   0  0  0  0  0  0  0  0  0  0  0  0
   -0.3435    3.5138    3.1008 C   0  0  0  0  0  0  0  0  0  0  0  0
   -0.2428    4.4454    2.5344 H   0  0  0  0  0  0  0  0  0  0  0  0
   -1.3344    3.5093    3.5648 H   0  0  0  0  0  0  0  0  0  0  0  0
    0.7107    3.4327    4.1431 N   0  3  0  0  0  0  0  0  0  0  0  0
    1.6305    3.4471    3.7203 H   0  0  0  0  0  0  0  0  0  0  0  0
    0.6411    4.2153    4.7815 H   0  0  0  0  0  0  0  0  0  0  0  0
    0.6165    2.5760    4.6761 H   0  0  0  0  0  0  0  0  0  0  0  0
   -0.5865    0.0771    2.2496 C   0  0  0  0  0  0  0  0  0  0  0  0
    0.5860   -0.1608    2.5143 O   0  0  0  0  0  0  0  0  0  0  0  0
   -1.4786    0.4656    3.1667 N   0  0  0  0  0  0  0  0  0  0  0  0
   -2.4139    0.6698    2.8558 H   0  0  0  0  0  0  0  0  0  0  0  0
   -1.1587    0.6908    4.5775 C   0  0  0  0  0  0  0  0  0  0  0  0
   -0.4270    1.4968    4.6656 H   0  0  0  0  0  0  0  0  0  0  0  0
   -2.0565    0.9649    5.1327 H   0  0  0  0  0  0  0  0  0  0  0  0
   -0.7281   -0.2137    5.0125 H   0  0  0  0  0  0  0  0  0  0  0  0
  5  6  2  0  0  0  0
  5  7  1  0  0  0  0
  2  3  1  0  0  0  0
  2  4  1  0  0  0  0
  2  5  1  0  0  0  0
  1  2  1  0  0  0  0
 27 28  2  0  0  0  0
 27 29  1  0  0  0  0
 23 24  1  0  0  0  0
 23 25  1  0  0  0  0
 23 26  1  0  0  0  0
 20 21  1  0  0  0  0
 20 22  1  0  0  0  0
 20 23  1  0  0  0  0
 17 18  1  0  0  0  0
 17 19  1  0  0  0  0
 17 20  1  0  0  0  0
 14 15  1  0  0  0  0
 14 16  1  0  0  0  0
 14 17  1  0  0  0  0
 11 12  1  0  0  0  0
 11 13  1  0  0  0  0
 11 14  1  0  0  0  0
  9 10  1  0  0  0  0
  9 11  1  0  0  0  0
  9 27  1  0  0  0  0
  7  8  1  0  0  0  0
  7  9  1  0  0  0  0
 31 32  1  0  0  0  0
 31 33  1  0  0  0  0
 31 34  1  0  0  0  0
 29 30  1  0  0  0  0
 29 31  1  0  0  0  0
M  CHG  1  23   1
M  END
$$$$
default_name
  -OEChem-02102213163D

 34 33  0     1  0  0  0  0  0999 V2000
   -3.8899   -3.6747    1.6490 H   0  0  0  0  0  0  0  0  0  0  0  0
   -3.9109   -2.6717    1.2250 C   0  0  0  0  0  0  0  0  0  0  0  0
   -4.6009   -2.0517    1.7950 H   0  0  0  0  0  0  0  0  0  0  0  0
   -4.2309   -2.7237    0.1860 H   0  0  0  0  0  0  0  0  0  0  0  0
   -2.5229   -2.0787    1.2980 C   0  0  0  0  0  0  0  0  0  0  0  0
   -1.5999   -2.7227    1.7810 O   0  0  0  0  0  0  0  0  0  0  0  0
   -2.3659   -0.8447    0.8120 N   0  0  0  0  0  0  0  0  0  0  0  0
   -3.1749   -0.3807    0.4220 H   0  0  0  0  0  0  0  0  0  0  0  0
   -1.0919   -0.1077    0.8170 C   0  0  1  0  0  0  0  0  0  0  0  0
   -0.3571   -0.6901    0.2581 H   0  0  0  0  0  0  0  0  0  0  0  0
   -1.3037    1.2411    0.1040 C   0  0  0  0  0  0  0  0  0  0  0  0
   -0.4723    1.4053   -0.5832 H   0  0  0  0  0  0  0  0  0  0  0  0
   -2.2247    1.1970   -0.4808 H   0  0  0  0  0  0  0  0  0  0  0  0
   -1.3744    2.4334    1.0702 C   0  0  0  0  0  0  0  0  0  0  0  0
   -1.5300    3.3543    0.5066 H   0  0  0  0  0  0  0  0  0  0  0  0
   -2.2107    2.2903    1.7572 H   0  0  0  0  0  0  0  0  0  0  0  0
   -0.0713    2.5487    1.8732 C   0  0  0  0  0  0  0  0  0  0  0  0
    0.0894    1.6193    2.4248 H   0  0  0  0  0  0  0  0  0  0  0  0
    0.7604    2.7010    1.1824 H   0  0  0  0  0  0  0  0  0  0  0  0
   -0.1499    3.7237    2.8560 C   0  0  0  0  0  0  0  0  0  0  0  0
   -0.3186    4.6427    2.2853 H   0  0  0  0  0  0  0  0  0  0  0  0
   -1.0136    3.5723    3.5105 H   0  0  0  0  0  0  0  0  0  0  0  0
    1.0902    3.8437    3.6636 N   0  3  0  0  0  0  0  0  0  0  0  0
    1.8918    3.9945    3.0640 H   0  0  0  0  0  0  0  0  0  0  0  0
    1.0222    4.6227    4.3067 H   0  0  0  0  0  0  0  0  0  0  0  0
    1.2462    2.9986    4.2007 H   0  0  0  0  0  0  0  0  0  0  0  0
   -0.5865    0.0771    2.2496 C   0  0  0  0  0  0  0  0  0  0  0  0
    0.5860   -0.1608    2.5143 O   0  0  0  0  0  0  0  0  0  0  0  0
   -1.4786    0.4656    3.1667 N   0  0  0  0  0  0  0  0  0  0  0  0
   -2.4139    0.6698    2.8558 H   0  0  0  0  0  0  0  0  0  0  0  0
   -1.1587    0.6908    4.5775 C   0  0  0  0  0  0  0  0  0  0  0  0
   -0.4270    1.4968    4.6656 H   0  0  0  0  0  0  0  0  0  0  0  0
   -2.0565    0.9649    5.1327 H   0  0  0  0  0  0  0  0  0  0  0  0
   -0.7281   -0.2137    5.0125 H   0  0  0  0  0  0  0  0  0  0  0  0
  5  6  2  0  0  0  0
  5  7  1  0  0  0  0
  2  3  1  0  0  0  0
  2  4  1  0  0  0  0
  2  5  1  0  0  0  0
  1  2  1  0  0  0  0
 27 28  2  0  0  0  0
 27 29  1  0  0  0  0
 23 24  1  0  0  0  0
 23 25  1  0  0  0  0
 23 26  1  0  0  0  0
 20 21  1  0  0  0  0
 20 22  1  0  0  0  0
 20 23  1  0  0  0  0
 17 18  1  0  0  0  0
 17 19  1  0  0  0  0
 17 20  1  0  0  0  0
 14 15  1  0  0  0  0
 14 16  1  0  0  0  0
 14 17  1  0  0  0  0
 11 12  1  0  0  0  0
 11 13  1  0  0  0  0
 11 14  1  0  0  0  0
  9 10  1  0  0  0  0
  9 11  1  0  0  0  0
  9 27  1  0  0  0  0
  7  8  1  0  0  0  0
  7  9  1  0  0  0  0
 31 32  1  0  0  0  0
 31 33  1  0  0  0  0
 31 34  1  0  0  0  0
 29 30  1  0  0  0  0
 29 31  1  0  0  0  0
M  CHG  1  23   1
M  END
$$$$
default_name
  -OEChem-02102213163D

 34 33  0     1  0  0  0  0  0999 V2000
   -3.8899   -3.6747    1.6490 H   0  0  0  0  0  0  0  0  0  0  0  0
   -3.9109   -2.6717    1.2250 C   0  0  0  0  0  0  0  0  0  0  0  0
   -4.6009   -2.0517    1.7950 H   0  0  0  0  0  0  0  0  0  0  0  0
   -4.2309   -2.7237    0.1860 H   0  0  0  0  0  0  0  0  0  0  0  0
   -2.5229   -2.0787    1.2980 C   0  0  0  0  0  0  0  0  0  0  0  0
   -1.5999   -2.7227    1.7810 O   0  0  0  0  0  0  0  0  0  0  0  0
   -2.3659   -0.8447    0.8120 N   0  0  0  0  0  0  0  0  0  0  0  0
   -3.1749   -0.3807    0.4220 H   0  0  0  0  0  0  0  0  0  0  0  0
   -1.0919   -0.1077    0.8170 C   0  0  1  0  0  0  0  0  0  0  0  0
   -0.3571   -0.6901    0.2581 H   0  0  0  0  0  0  0  0  0  0  0  0
   -1.3037    1.2411    0.1040 C   0  0  0  0  0  0  0  0  0  0  0  0
   -0.4723    1.4053   -0.5832 H   0  0  0  0  0  0  0  0  0  0  0  0
   -2.2247    1.1970   -0.4808 H   0  0  0  0  0  0  0  0  0  0  0  0
   -1.3744    2.4334    1.0702 C   0  0  0  0  0  0  0  0  0  0  0  0
   -1.7884    3.3006    0.5540 H   0  0  0  0  0  0  0  0  0  0  0  0
   -2.0215    2.1767    1.9112 H   0  0  0  0  0  0  0  0  0  0  0  0
    0.0260    2.7806    1.5942 C   0  0  0  0  0  0  0  0  0  0  0  0
    0.4439    1.9055    2.0975 H   0  0  0  0  0  0  0  0  0  0  0  0
    0.6663    3.0454    0.7504 H   0  0  0  0  0  0  0  0  0  0  0  0
   -0.0462    3.9550    2.5781 C   0  0  0  0  0  0  0  0  0  0  0  0
   -0.4739    4.8180    2.0576 H   0  0  0  0  0  0  0  0  0  0  0  0
   -0.7249    3.6848    3.3928 H   0  0  0  0  0  0  0  0  0  0  0  0
    1.2935    4.2968    3.1194 N   0  3  0  0  0  0  0  0  0  0  0  0
    1.9232    4.5579    2.3710 H   0  0  0  0  0  0  0  0  0  0  0  0
    1.2286    5.0725    3.7666 H   0  0  0  0  0  0  0  0  0  0  0  0
    1.6901    3.5037    3.6099 H   0  0  0  0  0  0  0  0  0  0  0  0
   -0.5865    0.0771    2.2496 C   0  0  0  0  0  0  0  0  0  0  0  0
    0.5860   -0.1608    2.5143 O   0  0  0  0  0  0  0  0  0  0  0  0
   -1.4786    0.4656    3.1667 N   0  0  0  0  0  0  0  0  0  0  0  0
   -2.4139    0.6698    2.8558 H   0  0  0  0  0  0  0  0  0  0  0  0
   -1.1587    0.6908    4.5775 C   0  0  0  0  0  0  0  0  0  0  0  0
   -0.4270    1.4968    4.6656 H   0  0  0  0  0  0  0  0  0  0  0  0
   -2.0565    0.9649    5.1327 H   0  0  0  0  0  0  0  0  0  0  0  0
   -0.7281   -0.2137    5.0125 H   0  0  0  0  0  0  0  0  0  0  0  0
  5  6  2  0  0  0  0
  5  7  1  0  0  0  0
  2  3  1  0  0  0  0
  2  4  1  0  0  0  0
  2  5  1  0  0  0  0
  1  2  1  0  0  0  0
 27 28  2  0  0  0  0
 27 29  1  0  0  0  0
 23 24  1  0  0  0  0
 23 25  1  0  0  0  0
 23 26  1  0  0  0  0
 20 21  1  0  0  0  0
 20 22  1  0  0  0  0
 20 23  1  0  0  0  0
 17 18  1  0  0  0  0
 17 19  1  0  0  0  0
 17 20  1  0  0  0  0
 14 15  1  0  0  0  0
 14 16  1  0  0  0  0
 14 17  1  0  0  0  0
 11 12  1  0  0  0  0
 11 13  1  0  0  0  0
 11 14  1  0  0  0  0
  9 10  1  0  0  0  0
  9 11  1  0  0  0  0
  9 27  1  0  0  0  0
  7  8  1  0  0  0  0
  7  9  1  0  0  0  0
 31 32  1  0  0  0  0
 31 33  1  0  0  0  0
 31 34  1  0  0  0  0
 29 30  1  0  0  0  0
 29 31  1  0  0  0  0
M  CHG  1  23   1
M  END
$$$$
default_name
  -OEChem-02102213163D

 34 33  0     1  0  0  0  0  0999 V2000
   -3.8899   -3.6747    1.6490 H   0  0  0  0  0  0  0  0  0  0  0  0
   -3.9109   -2.6717    1.2250 C   0  0  0  0  0  0  0  0  0  0  0  0
   -4.6009   -2.0517    1.7950 H   0  0  0  0  0  0  0  0  0  0  0  0
   -4.2309   -2.7237    0.1860 H   0  0  0  0  0  0  0  0  0  0  0  0
   -2.5229   -2.0787    1.2980 C   0  0  0  0  0  0  0  0  0  0  0  0
   -1.5999   -2.7227    1.7810 O   0  0  0  0  0  0  0  0  0  0  0  0
   -2.3659   -0.8447    0.8120 N   0  0  0  0  0  0  0  0  0  0  0  0
   -3.1749   -0.3807    0.4220 H   0  0  0  0  0  0  0  0  0  0  0  0
   -1.0919   -0.1077    0.8170 C   0  0  1  0  0  0  0  0  0  0  0  0
   -0.3571   -0.6901    0.2581 H   0  0  0  0  0  0  0  0  0  0  0  0
   -1.3037    1.2411    0.1040 C   0  0  0  0  0  0  0  0  0  0  0  0
   -0.4723    1.4053   -0.5832 H   0  0  0  0  0  0  0  0  0  0  0  0
   -2.2247    1.1970   -0.4808 H   0  0  0  0  0  0  0  0  0  0  0  0
   -1.3744    2.4334    1.0702 C   0  0  0  0  0  0  0  0  0  0  0  0
   -2.0197    3.2073    0.6523 H   0  0  0  0  0  0  0  0  0  0  0  0
   -1.7893    2.0997    2.0233 H   0  0  0  0  0  0  0  0  0  0  0  0
    0.0262    3.0171    1.3024 C   0  0  0  0  0  0  0  0  0  0  0  0
    0.6740    2.2357    1.7069 H   0  0  0  0  0  0  0  0  0  0  0  0
    0.4326    3.3577    0.3480 H   0  0  0  0  0  0  0  0  0  0  0  0
   -0.0395    4.1920    2.2862 C   0  0  0  0  0  0  0  0  0  0  0  0
   -0.6982    4.9594    1.8668 H   0  0  0  0  0  0  0  0  0  0  0  0
   -0.4879    3.8390    3.2197 H   0  0  0  0  0  0  0  0  0  0  0  0
    1.3068    4.7610    2.5475 N   0  3  0  0  0  0  0  0  0  0  0  0
    1.7227    5.0990    1.6886 H   0  0  0  0  0  0  0  0  0  0  0  0
    1.2463    5.5343    3.1981 H   0  0  0  0  0  0  0  0  0  0  0  0
    1.9180    4.0567    2.9441 H   0  0  0  0  0  0  0  0  0  0  0  0
   -0.5865    0.0771    2.2496 C   0  0  0  0  0  0  0  0  0  0  0  0
    0.5860   -0.1608    2.5143 O   0  0  0  0  0  0  0  0  0  0  0  0
   -1.4786    0.4656    3.1667 N   0  0  0  0  0  0  0  0  0  0  0  0
   -2.4139    0.6698    2.8558 H   0  0  0  0  0  0  0  0  0  0  0  0
   -1.1587    0.6908    4.5775 C   0  0  0  0  0  0  0  0  0  0  0  0
   -0.4270    1.4968    4.6656 H   0  0  0  0  0  0  0  0  0  0  0  0
   -2.0565    0.9649    5.1327 H   0  0  0  0  0  0  0  0  0  0  0  0
   -0.7281   -0.2137    5.0125 H   0  0  0  0  0  0  0  0  0  0  0  0
  5  6  2  0  0  0  0
  5  7  1  0  0  0  0
  2  3  1  0  0  0  0
  2  4  1  0  0  0  0
  2  5  1  0  0  0  0
  1  2  1  0  0  0  0
 27 28  2  0  0  0  0
 27 29  1  0  0  0  0
 23 24  1  0  0  0  0
 23 25  1  0  0  0  0
 23 26  1  0  0  0  0
 20 21  1  0  0  0  0
 20 22  1  0  0  0  0
 20 23  1  0  0  0  0
 17 18  1  0  0  0  0
 17 19  1  0  0  0  0
 17 20  1  0  0  0  0
 14 15  1  0  0  0  0
 14 16  1  0  0  0  0
 14 17  1  0  0  0  0
 11 12  1  0  0  0  0
 11 13  1  0  0  0  0
 11 14  1  0  0  0  0
  9 10  1  0  0  0  0
  9 11  1  0  0  0  0
  9 27  1  0  0  0  0
  7  8  1  0  0  0  0
  7  9  1  0  0  0  0
 31 32  1  0  0  0  0
 31 33  1  0  0  0  0
 31 34  1  0  0  0  0
 29 30  1  0  0  0  0
 29 31  1  0  0  0  0
M  CHG  1  23   1
M  END
$$$$
default_name
  -OEChem-02102213163D

 34 33  0     1  0  0  0  0  0999 V2000
   -3.8899   -3.6747    1.6490 H   0  0  0  0  0  0  0  0  0  0  0  0
   -3.9109   -2.6717    1.2250 C   0  0  0  0  0  0  0  0  0  0  0  0
   -4.6009   -2.0517    1.7950 H   0  0  0  0  0  0  0  0  0  0  0  0
   -4.2309   -2.7237    0.1860 H   0  0  0  0  0  0  0  0  0  0  0  0
   -2.5229   -2.0787    1.2980 C   0  0  0  0  0  0  0  0  0  0  0  0
   -1.5999   -2.7227    1.7810 O   0  0  0  0  0  0  0  0  0  0  0  0
   -2.3659   -0.8447    0.8120 N   0  0  0  0  0  0  0  0  0  0  0  0
   -3.1749   -0.3807    0.4220 H   0  0  0  0  0  0  0  0  0  0  0  0
   -1.0919   -0.1077    0.8170 C   0  0  1  0  0  0  0  0  0  0  0  0
   -0.3571   -0.6901    0.2581 H   0  0  0  0  0  0  0  0  0  0  0  0
   -1.3037    1.2411    0.1040 C   0  0  0  0  0  0  0  0  0  0  0  0
   -0.4723    1.4053   -0.5832 H   0  0  0  0  0  0  0  0  0  0  0  0
   -2.2247    1.1970   -0.4808 H   0  0  0  0  0  0  0  0  0  0  0  0
   -1.3744    2.4334    1.0702 C   0  0  0  0  0  0  0  0  0  0  0  0
   -2.2082    3.0806    0.7949 H   0  0  0  0  0  0  0  0  0  0  0  0
   -1.5299    2.0643    2.0859 H   0  0  0  0  0  0  0  0  0  0  0  0
   -0.0708    3.2421    1.0176 C   0  0  0  0  0  0  0  0  0  0  0  0
    0.7640    2.5875    1.2793 H   0  0  0  0  0  0  0  0  0  0  0  0
    0.0753    3.6165    0.0025 H   0  0  0  0  0  0  0  0  0  0  0  0
   -0.1302    4.4185    2.0000 C   0  0  0  0  0  0  0  0  0  0  0  0
   -0.9762    5.0571    1.7259 H   0  0  0  0  0  0  0  0  0  0  0  0
   -0.3189    4.0245    3.0032 H   0  0  0  0  0  0  0  0  0  0  0  0
    1.1292    5.2048    1.9869 N   0  3  0  0  0  0  0  0  0  0  0  0
    1.3039    5.5809    1.0633 H   0  0  0  0  0  0  0  0  0  0  0  0
    1.0740    5.9764    2.6400 H   0  0  0  0  0  0  0  0  0  0  0  0
    1.9144    4.6201    2.2486 H   0  0  0  0  0  0  0  0  0  0  0  0
   -0.5865    0.0771    2.2496 C   0  0  0  0  0  0  0  0  0  0  0  0
    0.5860   -0.1608    2.5143 O   0  0  0  0  0  0  0  0  0  0  0  0
   -1.4786    0.4656    3.1667 N   0  0  0  0  0  0  0  0  0  0  0  0
   -2.4139    0.6698    2.8558 H   0  0  0  0  0  0  0  0  0  0  0  0
   -1.1587    0.6908    4.5775 C   0  0  0  0  0  0  0  0  0  0  0  0
   -0.4270    1.4968    4.6656 H   0  0  0  0  0  0  0  0  0  0  0  0
   -2.0565    0.9649    5.1327 H   0  0  0  0  0  0  0  0  0  0  0  0
   -0.7281   -0.2137    5.0125 H   0  0  0  0  0  0  0  0  0  0  0  0
  5  6  2  0  0  0  0
  5  7  1  0  0  0  0
  2  3  1  0  0  0  0
  2  4  1  0  0  0  0
  2  5  1  0  0  0  0
  1  2  1  0  0  0  0
 27 28  2  0  0  0  0
 27 29  1  0  0  0  0
 23 24  1  0  0  0  0
 23 25  1  0  0  0  0
 23 26  1  0  0  0  0
 20 21  1  0  0  0  0
 20 22  1  0  0  0  0
 20 23  1  0  0  0  0
 17 18  1  0  0  0  0
 17 19  1  0  0  0  0
 17 20  1  0  0  0  0
 14 15  1  0  0  0  0
 14 16  1  0  0  0  0
 14 17  1  0  0  0  0
 11 12  1  0  0  0  0
 11 13  1  0  0  0  0
 11 14  1  0  0  0  0
  9 10  1  0  0  0  0
  9 11  1  0  0  0  0
  9 27  1  0  0  0  0
  7  8  1  0  0  0  0
  7  9  1  0  0  0  0
 31 32  1  0  0  0  0
 31 33  1  0  0  0  0
 31 34  1  0  0  0  0
 29 30  1  0  0  0  0
 29 31  1  0  0  0  0
M  CHG  1  23   1
M  END
$$$$
default_name
  -OEChem-02102213163D

 34 33  0     1  0  0  0  0  0999 V2000
   -3.8899   -3.6747    1.6490 H   0  0  0  0  0  0  0  0  0  0  0  0
   -3.9109   -2.6717    1.2250 C   0  0  0  0  0  0  0  0  0  0  0  0
   -4.6009   -2.0517    1.7950 H   0  0  0  0  0  0  0  0  0  0  0  0
   -4.2309   -2.7237    0.1860 H   0  0  0  0  0  0  0  0  0  0  0  0
   -2.5229   -2.0787    1.2980 C   0  0  0  0  0  0  0  0  0  0  0  0
   -1.5999   -2.7227    1.7810 O   0  0  0  0  0  0  0  0  0  0  0  0
   -2.3659   -0.8447    0.8120 N   0  0  0  0  0  0  0  0  0  0  0  0
   -3.1749   -0.3807    0.4220 H   0  0  0  0  0  0  0  0  0  0  0  0
   -1.0919   -0.1077    0.8170 C   0  0  1  0  0  0  0  0  0  0  0  0
   -0.3571   -0.6901    0.2581 H   0  0  0  0  0  0  0  0  0  0  0  0
   -1.3037    1.2411    0.1040 C   0  0  0  0  0  0  0  0  0  0  0  0
   -0.4723    1.4053   -0.5832 H   0  0  0  0  0  0  0  0  0  0  0  0
   -2.2247    1.1970   -0.4808 H   0  0  0  0  0  0  0  0  0  0  0  0
   -1.3744    2.4334    1.0702 C   0  0  0  0  0  0  0  0  0  0  0  0
   -2.3410    2.9293    0.9719 H   0  0  0  0  0  0  0  0  0  0  0  0
   -1.2611    2.0732    2.0946 H   0  0  0  0  0  0  0  0  0  0  0  0
   -0.2582    3.4402    0.7594 C   0  0  0  0  0  0  0  0  0  0  0  0
    0.7078    2.9368    0.8441 H   0  0  0  0  0  0  0  0  0  0  0  0
   -0.3815    3.8042   -0.2626 H   0  0  0  0  0  0  0  0  0  0  0  0
   -0.3122    4.6192    1.7391 C   0  0  0  0  0  0  0  0  0  0  0  0
   -1.2890    5.1046    1.6444 H   0  0  0  0  0  0  0  0  0  0  0  0
   -0.2294    4.2286    2.7579 H   0  0  0  0  0  0  0  0  0  0  0  0
    0.7728    5.5979    1.4757 N   0  3  0  0  0  0  0  0  0  0  0  0
    0.6953    5.9707    0.5378 H   0  0  0  0  0  0  0  0  0  0  0  0
    0.7235    6.3687    2.1302 H   0  0  0  0  0  0  0  0  0  0  0  0
    1.6795    5.1555    1.5708 H   0  0  0  0  0  0  0  0  0  0  0  0
   -0.5865    0.0771    2.2496 C   0  0  0  0  0  0  0  0  0  0  0  0
    0.5860   -0.1608    2.5143 O   0  0  0  0  0  0  0  0  0  0  0  0
   -1.4786    0.4656    3.1667 N   0  0  0  0  0  0  0  0  0  0  0  0
   -2.4139    0.6698    2.8558 H   0  0  0  0  0  0  0  0  0  0  0  0
   -1.1587    0.6908    4.5775 C   0  0  0  0  0  0  0  0  0  0  0  0
   -0.4270    1.4968    4.6656 H   0  0  0  0  0  0  0  0  0  0  0  0
   -2.0565    0.9649    5.1327 H   0  0  0  0  0  0  0  0  0  0  0  0
   -0.7281   -0.2137    5.0125 H   0  0  0  0  0  0  0  0  0  0  0  0
  5  6  2  0  0  0  0
  5  7  1  0  0  0  0
  2  3  1  0  0  0  0
  2  4  1  0  0  0  0
  2  5  1  0  0  0  0
  1  2  1  0  0  0  0
 27 28  2  0  0  0  0
 27 29  1  0  0  0  0
 23 24  1  0  0  0  0
 23 25  1  0  0  0  0
 23 26  1  0  0  0  0
 20 21  1  0  0  0  0
 20 22  1  0  0  0  0
 20 23  1  0  0  0  0
 17 18  1  0  0  0  0
 17 19  1  0  0  0  0
 17 20  1  0  0  0  0
 14 15  1  0  0  0  0
 14 16  1  0  0  0  0
 14 17  1  0  0  0  0
 11 12  1  0  0  0  0
 11 13  1  0  0  0  0
 11 14  1  0  0  0  0
  9 10  1  0  0  0  0
  9 11  1  0  0  0  0
  9 27  1  0  0  0  0
  7  8  1  0  0  0  0
  7  9  1  0  0  0  0
 31 32  1  0  0  0  0
 31 33  1  0  0  0  0
 31 34  1  0  0  0  0
 29 30  1  0  0  0  0
 29 31  1  0  0  0  0
M  CHG  1  23   1
M  END
$$$$
default_name
  -OEChem-02102213163D

 34 33  0     1  0  0  0  0  0999 V2000
   -3.8899   -3.6747    1.6490 H   0  0  0  0  0  0  0  0  0  0  0  0
   -3.9109   -2.6717    1.2250 C   0  0  0  0  0  0  0  0  0  0  0  0
   -4.6009   -2.0517    1.7950 H   0  0  0  0  0  0  0  0  0  0  0  0
   -4.2309   -2.7237    0.1860 H   0  0  0  0  0  0  0  0  0  0  0  0
   -2.5229   -2.0787    1.2980 C   0  0  0  0  0  0  0  0  0  0  0  0
   -1.5999   -2.7227    1.7810 O   0  0  0  0  0  0  0  0  0  0  0  0
   -2.3659   -0.8447    0.8120 N   0  0  0  0  0  0  0  0  0  0  0  0
   -3.1749   -0.3807    0.4220 H   0  0  0  0  0  0  0  0  0  0  0  0
   -1.0919   -0.1077    0.8170 C   0  0  1  0  0  0  0  0  0  0  0  0
   -0.3571   -0.6901    0.2581 H   0  0  0  0  0  0  0  0  0  0  0  0
   -1.3037    1.2411    0.1040 C   0  0  0  0  0  0  0  0  0  0  0  0
   -0.4723    1.4053   -0.5832 H   0  0  0  0  0  0  0  0  0  0  0  0
   -2.2247    1.1970   -0.4808 H   0  0  0  0  0  0  0  0  0  0  0  0
   -1.3744    2.4334    1.0702 C   0  0  0  0  0  0  0  0  0  0  0  0
   -2.4091    2.7636    1.1714 H   0  0  0  0  0  0  0  0  0  0  0  0
   -1.0011    2.1256    2.0489 H   0  0  0  0  0  0  0  0  0  0  0  0
   -0.5234    3.5981    0.5453 C   0  0  0  0  0  0  0  0  0  0  0  0
    0.5093    3.2600    0.4308 H   0  0  0  0  0  0  0  0  0  0  0  0
   -0.9064    3.9081   -0.4290 H   0  0  0  0  0  0  0  0  0  0  0  0
   -0.5731    4.7802    1.5212 C   0  0  0  0  0  0  0  0  0  0  0  0
   -1.6152    5.0986    1.6280 H   0  0  0  0  0  0  0  0  0  0  0  0
   -0.2254    4.4375    2.5005 H   0  0  0  0  0  0  0  0  0  0  0  0
    0.2619    5.9135    1.0489 N   0  3  0  0  0  0  0  0  0  0  0  0
   -0.0616    6.2420    0.1477 H   0  0  0  0  0  0  0  0  0  0  0  0
    0.2187    6.6846    1.7035 H   0  0  0  0  0  0  0  0  0  0  0  0
    1.2293    5.6263    0.9569 H   0  0  0  0  0  0  0  0  0  0  0  0
   -0.5865    0.0771    2.2496 C   0  0  0  0  0  0  0  0  0  0  0  0
    0.5860   -0.1608    2.5143 O   0  0  0  0  0  0  0  0  0  0  0  0
   -1.4786    0.4656    3.1667 N   0  0  0  0  0  0  0  0  0  0  0  0
   -2.4139    0.6698    2.8558 H   0  0  0  0  0  0  0  0  0  0  0  0
   -1.1587    0.6908    4.5775 C   0  0  0  0  0  0  0  0  0  0  0  0
   -0.4270    1.4968    4.6656 H   0  0  0  0  0  0  0  0  0  0  0  0
   -2.0565    0.9649    5.1327 H   0  0  0  0  0  0  0  0  0  0  0  0
   -0.7281   -0.2137    5.0125 H   0  0  0  0  0  0  0  0  0  0  0  0
  5  6  2  0  0  0  0
  5  7  1  0  0  0  0
  2  3  1  0  0  0  0
  2  4  1  0  0  0  0
  2  5  1  0  0  0  0
  1  2  1  0  0  0  0
 27 28  2  0  0  0  0
 27 29  1  0  0  0  0
 23 24  1  0  0  0  0
 23 25  1  0  0  0  0
 23 26  1  0  0  0  0
 20 21  1  0  0  0  0
 20 22  1  0  0  0  0
 20 23  1  0  0  0  0
 17 18  1  0  0  0  0
 17 19  1  0  0  0  0
 17 20  1  0  0  0  0
 14 15  1  0  0  0  0
 14 16  1  0  0  0  0
 14 17  1  0  0  0  0
 11 12  1  0  0  0  0
 11 13  1  0  0  0  0
 11 14  1  0  0  0  0
  9 10  1  0  0  0  0
  9 11  1  0  0  0  0
  9 27  1  0  0  0  0
  7  8  1  0  0  0  0
  7  9  1  0  0  0  0
 31 32  1  0  0  0  0
 31 33  1  0  0  0  0
 31 34  1  0  0  0  0
 29 30  1  0  0  0  0
 29 31  1  0  0  0  0
M  CHG  1  23   1
M  END
$$$$
default_name
  -OEChem-02102213163D

 34 33  0     1  0  0  0  0  0999 V2000
   -3.8899   -3.6747    1.6490 H   0  0  0  0  0  0  0  0  0  0  0  0
   -3.9109   -2.6717    1.2250 C   0  0  0  0  0  0  0  0  0  0  0  0
   -4.6009   -2.0517    1.7950 H   0  0  0  0  0  0  0  0  0  0  0  0
   -4.2309   -2.7237    0.1860 H   0  0  0  0  0  0  0  0  0  0  0  0
   -2.5229   -2.0787    1.2980 C   0  0  0  0  0  0  0  0  0  0  0  0
   -1.5999   -2.7227    1.7810 O   0  0  0  0  0  0  0  0  0  0  0  0
   -2.3659   -0.8447    0.8120 N   0  0  0  0  0  0  0  0  0  0  0  0
   -3.1749   -0.3807    0.4220 H   0  0  0  0  0  0  0  0  0  0  0  0
   -1.0919   -0.1077    0.8170 C   0  0  1  0  0  0  0  0  0  0  0  0
   -0.3571   -0.6901    0.2581 H   0  0  0  0  0  0  0  0  0  0  0  0
   -1.3037    1.2411    0.1040 C   0  0  0  0  0  0  0  0  0  0  0  0
   -0.4723    1.4053   -0.5832 H   0  0  0  0  0  0  0  0  0  0  0  0
   -2.2247    1.1970   -0.4808 H   0  0  0  0  0  0  0  0  0  0  0  0
   -1.3744    2.4334    1.0702 C   0  0  0  0  0  0  0  0  0  0  0  0
   -2.4079    2.5948    1.3798 H   0  0  0  0  0  0  0  0  0  0  0  0
   -0.7677    2.2180    1.9520 H   0  0  0  0  0  0  0  0  0  0  0  0
   -0.8483    3.7048    0.3898 C   0  0  0  0  0  0  0  0  0  0  0  0
    0.1819    3.5349    0.0677 H   0  0  0  0  0  0  0  0  0  0  0  0
   -1.4639    3.9209   -0.4856 H   0  0  0  0  0  0  0  0  0  0  0  0
   -0.8950    4.8908    1.3613 C   0  0  0  0  0  0  0  0  0  0  0  0
   -1.9326    5.0395    1.6777 H   0  0  0  0  0  0  0  0  0  0  0  0
   -0.3072    4.6367    2.2486 H   0  0  0  0  0  0  0  0  0  0  0  0
   -0.3687    6.1301    0.7355 N   0  3  0  0  0  0  0  0  0  0  0  0
   -0.9152    6.3762   -0.0803 H   0  0  0  0  0  0  0  0  0  0  0  0
   -0.4061    6.9024    1.3890 H   0  0  0  0  0  0  0  0  0  0  0  0
    0.5945    6.0004    0.4488 H   0  0  0  0  0  0  0  0  0  0  0  0
   -0.5865    0.0771    2.2496 C   0  0  0  0  0  0  0  0  0  0  0  0
    0.5860   -0.1608    2.5143 O   0  0  0  0  0  0  0  0  0  0  0  0
   -1.4786    0.4656    3.1667 N   0  0  0  0  0  0  0  0  0  0  0  0
   -2.4139    0.6698    2.8558 H   0  0  0  0  0  0  0  0  0  0  0  0
   -1.1587    0.6908    4.5775 C   0  0  0  0  0  0  0  0  0  0  0  0
   -0.4270    1.4968    4.6656 H   0  0  0  0  0  0  0  0  0  0  0  0
   -2.0565    0.9649    5.1327 H   0  0  0  0  0  0  0  0  0  0  0  0
   -0.7281   -0.2137    5.0125 H   0  0  0  0  0  0  0  0  0  0  0  0
  5  6  2  0  0  0  0
  5  7  1  0  0  0  0
  2  3  1  0  0  0  0
  2  4  1  0  0  0  0
  2  5  1  0  0  0  0
  1  2  1  0  0  0  0
 27 28  2  0  0  0  0
 27 29  1  0  0  0  0
 23 24  1  0  0  0  0
 23 25  1  0  0  0  0
 23 26  1  0  0  0  0
 20 21  1  0  0  0  0
 20 22  1  0  0  0  0
 20 23  1  0  0  0  0
 17 18  1  0  0  0  0
 17 19  1  0  0  0  0
 17 20  1  0  0  0  0
 14 15  1  0  0  0  0
 14 16  1  0  0  0  0
 14 17  1  0  0  0  0
 11 12  1  0  0  0  0
 11 13  1  0  0  0  0
 11 14  1  0  0  0  0
  9 10  1  0  0  0  0
  9 11  1  0  0  0  0
  9 27  1  0  0  0  0
  7  8  1  0  0  0  0
  7  9  1  0  0  0  0
 31 32  1  0  0  0  0
 31 33  1  0  0  0  0
 31 34  1  0  0  0  0
 29 30  1  0  0  0  0
 29 31  1  0  0  0  0
M  CHG  1  23   1
M  END
$$$$
default_name
  -OEChem-02102213163D

 34 33  0     1  0  0  0  0  0999 V2000
   -3.8899   -3.6747    1.6490 H   0  0  0  0  0  0  0  0  0  0  0  0
   -3.9109   -2.6717    1.2250 C   0  0  0  0  0  0  0  0  0  0  0  0
   -4.6009   -2.0517    1.7950 H   0  0  0  0  0  0  0  0  0  0  0  0
   -4.2309   -2.7237    0.1860 H   0  0  0  0  0  0  0  0  0  0  0  0
   -2.5229   -2.0787    1.2980 C   0  0  0  0  0  0  0  0  0  0  0  0
   -1.5999   -2.7227    1.7810 O   0  0  0  0  0  0  0  0  0  0  0  0
   -2.3659   -0.8447    0.8120 N   0  0  0  0  0  0  0  0  0  0  0  0
   -3.1749   -0.3807    0.4220 H   0  0  0  0  0  0  0  0  0  0  0  0
   -1.0919   -0.1077    0.8170 C   0  0  1  0  0  0  0  0  0  0  0  0
   -0.3571   -0.6901    0.2581 H   0  0  0  0  0  0  0  0  0  0  0  0
   -1.3037    1.2411    0.1040 C   0  0  0  0  0  0  0  0  0  0  0  0
   -0.4723    1.4053   -0.5832 H   0  0  0  0  0  0  0  0  0  0  0  0
   -2.2247    1.1970   -0.4808 H   0  0  0  0  0  0  0  0  0  0  0  0
   -1.3744    2.4334    1.0702 C   0  0  0  0  0  0  0  0  0  0  0  0
   -2.3373    2.4345    1.5828 H   0  0  0  0  0  0  0  0  0  0  0  0
   -0.5768    2.3441    1.8103 H   0  0  0  0  0  0  0  0  0  0  0  0
   -1.2107    3.7531    0.3037 C   0  0  0  0  0  0  0  0  0  0  0  0
   -0.2521    3.7428   -0.2206 H   0  0  0  0  0  0  0  0  0  0  0  0
   -2.0158    3.8419   -0.4285 H   0  0  0  0  0  0  0  0  0  0  0  0
   -1.2561    4.9432    1.2702 C   0  0  0  0  0  0  0  0  0  0  0  0
   -2.2195    4.9313    1.7902 H   0  0  0  0  0  0  0  0  0  0  0  0
   -0.4693    4.8129    2.0193 H   0  0  0  0  0  0  0  0  0  0  0  0
   -1.0760    6.2329    0.5569 N   0  3  0  0  0  0  0  0  0  0  0  0
   -1.8074    6.3641   -0.1306 H   0  0  0  0  0  0  0  0  0  0  0  0
   -1.1081    7.0074    1.2082 H   0  0  0  0  0  0  0  0  0  0  0  0
   -0.1816    6.2525    0.0810 H   0  0  0  0  0  0  0  0  0  0  0  0
   -0.5865    0.0771    2.2496 C   0  0  0  0  0  0  0  0  0  0  0  0
    0.5860   -0.1608    2.5143 O   0  0  0  0  0  0  0  0  0  0  0  0
   -1.4786    0.4656    3.1667 N   0  0  0  0  0  0  0  0  0  0  0  0
   -2.4139    0.6698    2.8558 H   0  0  0  0  0  0  0  0  0  0  0  0
   -1.1587    0.6908    4.5775 C   0  0  0  0  0  0  0  0  0  0  0  0
   -0.4270    1.4968    4.6656 H   0  0  0  0  0  0  0  0  0  0  0  0
   -2.0565    0.9649    5.1327 H   0  0  0  0  0  0  0  0  0  0  0  0
   -0.7281   -0.2137    5.0125 H   0  0  0  0  0  0  0  0  0  0  0  0
  5  6  2  0  0  0  0
  5  7  1  0  0  0  0
  2  3  1  0  0  0  0
  2  4  1  0  0  0  0
  2  5  1  0  0  0  0
  1  2  1  0  0  0  0
 27 28  2  0  0  0  0
 27 29  1  0  0  0  0
 23 24  1  0  0  0  0
 23 25  1  0  0  0  0
 23 26  1  0  0  0  0
 20 21  1  0  0  0  0
 20 22  1  0  0  0  0
 20 23  1  0  0  0  0
 17 18  1  0  0  0  0
 17 19  1  0  0  0  0
 17 20  1  0  0  0  0
 14 15  1  0  0  0  0
 14 16  1  0  0  0  0
 14 17  1  0  0  0  0
 11 12  1  0  0  0  0
 11 13  1  0  0  0  0
 11 14  1  0  0  0  0
  9 10  1  0  0  0  0
  9 11  1  0  0  0  0
  9 27  1  0  0  0  0
  7  8  1  0  0  0  0
  7  9  1  0  0  0  0
 31 32  1  0  0  0  0
 31 33  1  0  0  0  0
 31 34  1  0  0  0  0
 29 30  1  0  0  0  0
 29 31  1  0  0  0  0
M  CHG  1  23   1
M  END
$$$$
default_name
  -OEChem-02102213163D

 34 33  0     1  0  0  0  0  0999 V2000
   -3.8899   -3.6747    1.6490 H   0  0  0  0  0  0  0  0  0  0  0  0
   -3.9109   -2.6717    1.2250 C   0  0  0  0  0  0  0  0  0  0  0  0
   -4.6009   -2.0517    1.7950 H   0  0  0  0  0  0  0  0  0  0  0  0
   -4.2309   -2.7237    0.1860 H   0  0  0  0  0  0  0  0  0  0  0  0
   -2.5229   -2.0787    1.2980 C   0  0  0  0  0  0  0  0  0  0  0  0
   -1.5999   -2.7227    1.7810 O   0  0  0  0  0  0  0  0  0  0  0  0
   -2.3659   -0.8447    0.8120 N   0  0  0  0  0  0  0  0  0  0  0  0
   -3.1749   -0.3807    0.4220 H   0  0  0  0  0  0  0  0  0  0  0  0
   -1.0919   -0.1077    0.8170 C   0  0  1  0  0  0  0  0  0  0  0  0
   -0.3571   -0.6901    0.2581 H   0  0  0  0  0  0  0  0  0  0  0  0
   -1.3037    1.2411    0.1040 C   0  0  0  0  0  0  0  0  0  0  0  0
   -0.6383    1.2860   -0.7596 H   0  0  0  0  0  0  0  0  0  0  0  0
   -2.3328    1.2988   -0.2562 H   0  0  0  0  0  0  0  0  0  0  0  0
   -1.0130    2.4538    1.0013 C   0  0  0  0  0  0  0  0  0  0  0  0
   -1.6701    2.4327    1.8718 H   0  0  0  0  0  0  0  0  0  0  0  0
    0.0250    2.4118    1.3371 H   0  0  0  0  0  0  0  0  0  0  0  0
   -1.2442    3.7591    0.2275 C   0  0  0  0  0  0  0  0  0  0  0  0
   -0.5955    3.7703   -0.6517 H   0  0  0  0  0  0  0  0  0  0  0  0
   -2.2855    3.8004   -0.0980 H   0  0  0  0  0  0  0  0  0  0  0  0
   -0.9304    4.9704    1.1145 C   0  0  0  0  0  0  0  0  0  0  0  0
   -1.5842    4.9366    1.9920 H   0  0  0  0  0  0  0  0  0  0  0  0
    0.1034    4.8873    1.4633 H   0  0  0  0  0  0  0  0  0  0  0  0
   -1.1230    6.2476    0.3823 N   0  3  0  0  0  0  0  0  0  0  0  0
   -2.0806    6.3351    0.0659 H   0  0  0  0  0  0  0  0  0  0  0  0
   -0.9117    7.0364    0.9808 H   0  0  0  0  0  0  0  0  0  0  0  0
   -0.5135    6.2877   -0.4263 H   0  0  0  0  0  0  0  0  0  0  0  0
   -0.5865    0.0771    2.2496 C   0  0  0  0  0  0  0  0  0  0  0  0
    0.5860   -0.1608    2.5143 O   0  0  0  0  0  0  0  0  0  0  0  0
   -1.4786    0.4656    3.1667 N   0  0  0  0  0  0  0  0  0  0  0  0
   -2.4139    0.6698    2.8558 H   0  0  0  0  0  0  0  0  0  0  0  0
   -1.1587    0.6908    4.5775 C   0  0  0  0  0  0  0  0  0  0  0  0
   -0.4270    1.4968    4.6656 H   0  0  0  0  0  0  0  0  0  0  0  0
   -2.0565    0.9649    5.1327 H   0  0  0  0  0  0  0  0  0  0  0  0
   -0.7281   -0.2137    5.0125 H   0  0  0  0  0  0  0  0  0  0  0  0
  5  6  2  0  0  0  0
  5  7  1  0  0  0  0
  2  3  1  0  0  0  0
  2  4  1  0  0  0  0
  2  5  1  0  0  0  0
  1  2  1  0  0  0  0
 27 28  2  0  0  0  0
 27 29  1  0  0  0  0
 23 24  1  0  0  0  0
 23 25  1  0  0  0  0
 23 26  1  0  0  0  0
 20 21  1  0  0  0  0
 20 22  1  0  0  0  0
 20 23  1  0  0  0  0
 17 18  1  0  0  0  0
 17 19  1  0  0  0  0
 17 20  1  0  0  0  0
 14 15  1  0  0  0  0
 14 16  1  0  0  0  0
 14 17  1  0  0  0  0
 11 12  1  0  0  0  0
 11 13  1  0  0  0  0
 11 14  1  0  0  0  0
  9 10  1  0  0  0  0
  9 11  1  0  0  0  0
  9 27  1  0  0  0  0
  7  8  1  0  0  0  0
  7  9  1  0  0  0  0
 31 32  1  0  0  0  0
 31 33  1  0  0  0  0
 31 34  1  0  0  0  0
 29 30  1  0  0  0  0
 29 31  1  0  0  0  0
M  CHG  1  23   1
M  END
$$$$
default_name
  -OEChem-02102213163D

 34 33  0     1  0  0  0  0  0999 V2000
   -3.8899   -3.6747    1.6490 H   0  0  0  0  0  0  0  0  0  0  0  0
   -3.9109   -2.6717    1.2250 C   0  0  0  0  0  0  0  0  0  0  0  0
   -4.6009   -2.0517    1.7950 H   0  0  0  0  0  0  0  0  0  0  0  0
   -4.2309   -2.7237    0.1860 H   0  0  0  0  0  0  0  0  0  0  0  0
   -2.5229   -2.0787    1.2980 C   0  0  0  0  0  0  0  0  0  0  0  0
   -1.5999   -2.7227    1.7810 O   0  0  0  0  0  0  0  0  0  0  0  0
   -2.3659   -0.8447    0.8120 N   0  0  0  0  0  0  0  0  0  0  0  0
   -3.1749   -0.3807    0.4220 H   0  0  0  0  0  0  0  0  0  0  0  0
   -1.0919   -0.1077    0.8170 C   0  0  1  0  0  0  0  0  0  0  0  0
   -0.3571   -0.6901    0.2581 H   0  0  0  0  0  0  0  0  0  0  0  0
   -1.3037    1.2411    0.1040 C   0  0  0  0  0  0  0  0  0  0  0  0
   -0.6383    1.2860   -0.7596 H   0  0  0  0  0  0  0  0  0  0  0  0
   -2.3328    1.2988   -0.2562 H   0  0  0  0  0  0  0  0  0  0  0  0
   -1.0130    2.4538    1.0013 C   0  0  0  0  0  0  0  0  0  0  0  0
   -1.4643    2.3013    1.9826 H   0  0  0  0  0  0  0  0  0  0  0  0
    0.0669    2.5633    1.1187 H   0  0  0  0  0  0  0  0  0  0  0  0
   -1.5883    3.7319    0.3757 C   0  0  0  0  0  0  0  0  0  0  0  0
   -1.1455    3.8737   -0.6131 H   0  0  0  0  0  0  0  0  0  0  0  0
   -2.6692    3.6208    0.2690 H   0  0  0  0  0  0  0  0  0  0  0  0
   -1.2772    4.9472    1.2582 C   0  0  0  0  0  0  0  0  0  0  0  0
   -1.7220    4.7825    2.2450 H   0  0  0  0  0  0  0  0  0  0  0  0
   -0.1926    5.0151    1.3865 H   0  0  0  0  0  0  0  0  0  0  0  0
   -1.8023    6.2023    0.6637 N   0  3  0  0  0  0  0  0  0  0  0  0
   -2.8071    6.1495    0.5521 H   0  0  0  0  0  0  0  0  0  0  0  0
   -1.5887    6.9940    1.2574 H   0  0  0  0  0  0  0  0  0  0  0  0
   -1.3869    6.3640   -0.2463 H   0  0  0  0  0  0  0  0  0  0  0  0
   -0.5865    0.0771    2.2496 C   0  0  0  0  0  0  0  0  0  0  0  0
    0.5860   -0.1608    2.5143 O   0  0  0  0  0  0  0  0  0  0  0  0
   -1.4786    0.4656    3.1667 N   0  0  0  0  0  0  0  0  0  0  0  0
   -2.4139    0.6698    2.8558 H   0  0  0  0  0  0  0  0  0  0  0  0
   -1.1587    0.6908    4.5775 C   0  0  0  0  0  0  0  0  0  0  0  0
   -0.4270    1.4968    4.6656 H   0  0  0  0  0  0  0  0  0  0  0  0
   -2.0565    0.9649    5.1327 H   0  0  0  0  0  0  0  0  0  0  0  0
   -0.7281   -0.2137    5.0125 H   0  0  0  0  0  0  0  0  0  0  0  0
  5  6  2  0  0  0  0
  5  7  1  0  0  0  0
  2  3  1  0  0  0  0
  2  4  1  0  0  0  0
  2  5  1  0  0  0  0
  1  2  1  0  0  0  0
 27 28  2  0  0  0  0
 27 29  1  0  0  0  0
 23 24  1  0  0  0  0
 23 25  1  0  0  0  0
 23 26  1  0  0  0  0
 20 21  1  0  0  0  0
 20 22  1  0  0  0  0
 20 23  1  0  0  0  0
 17 18  1  0  0  0  0
 17 19  1  0  0  0  0
 17 20  1  0  0  0  0
 14 15  1  0  0  0  0
 14 16  1  0  0  0  0
 14 17  1  0  0  0  0
 11 12  1  0  0  0  0
 11 13  1  0  0  0  0
 11 14  1  0  0  0  0
  9 10  1  0  0  0  0
  9 11  1  0  0  0  0
  9 27  1  0  0  0  0
  7  8  1  0  0  0  0
  7  9  1  0  0  0  0
 31 32  1  0  0  0  0
 31 33  1  0  0  0  0
 31 34  1  0  0  0  0
 29 30  1  0  0  0  0
 29 31  1  0  0  0  0
M  CHG  1  23   1
M  END
$$$$
default_name
  -OEChem-02102213163D

 34 33  0     1  0  0  0  0  0999 V2000
   -3.8899   -3.6747    1.6490 H   0  0  0  0  0  0  0  0  0  0  0  0
   -3.9109   -2.6717    1.2250 C   0  0  0  0  0  0  0  0  0  0  0  0
   -4.6009   -2.0517    1.7950 H   0  0  0  0  0  0  0  0  0  0  0  0
   -4.2309   -2.7237    0.1860 H   0  0  0  0  0  0  0  0  0  0  0  0
   -2.5229   -2.0787    1.2980 C   0  0  0  0  0  0  0  0  0  0  0  0
   -1.5999   -2.7227    1.7810 O   0  0  0  0  0  0  0  0  0  0  0  0
   -2.3659   -0.8447    0.8120 N   0  0  0  0  0  0  0  0  0  0  0  0
   -3.1749   -0.3807    0.4220 H   0  0  0  0  0  0  0  0  0  0  0  0
   -1.0919   -0.1077    0.8170 C   0  0  1  0  0  0  0  0  0  0  0  0
   -0.3571   -0.6901    0.2581 H   0  0  0  0  0  0  0  0  0  0  0  0
   -1.3037    1.2411    0.1040 C   0  0  0  0  0  0  0  0  0  0  0  0
   -0.6383    1.2860   -0.7596 H   0  0  0  0  0  0  0  0  0  0  0  0
   -2.3328    1.2988   -0.2562 H   0  0  0  0  0  0  0  0  0  0  0  0
   -1.0130    2.4538    1.0013 C   0  0  0  0  0  0  0  0  0  0  0  0
   -1.2230    2.2001    2.0412 H   0  0  0  0  0  0  0  0  0  0  0  0
    0.0398    2.7268    0.9066 H   0  0  0  0  0  0  0  0  0  0  0  0
   -1.8862    3.6464    0.5877 C   0  0  0  0  0  0  0  0  0  0  0  0
   -1.6845    3.8884   -0.4585 H   0  0  0  0  0  0  0  0  0  0  0  0
   -2.9376    3.3714    0.6930 H   0  0  0  0  0  0  0  0  0  0  0  0
   -1.5793    4.8653    1.4667 C   0  0  0  0  0  0  0  0  0  0  0  0
   -1.7801    4.6004    2.5099 H   0  0  0  0  0  0  0  0  0  0  0  0
   -0.5136    5.0976    1.3791 H   0  0  0  0  0  0  0  0  0  0  0  0
   -2.3942    6.0420    1.0721 N   0  3  0  0  0  0  0  0  0  0  0  0
   -3.3815    5.8366    1.1611 H   0  0  0  0  0  0  0  0  0  0  0  0
   -2.1798    6.8372    1.6608 H   0  0  0  0  0  0  0  0  0  0  0  0
   -2.2054    6.2968    0.1096 H   0  0  0  0  0  0  0  0  0  0  0  0
   -0.5865    0.0771    2.2496 C   0  0  0  0  0  0  0  0  0  0  0  0
    0.5860   -0.1608    2.5143 O   0  0  0  0  0  0  0  0  0  0  0  0
   -1.4786    0.4656    3.1667 N   0  0  0  0  0  0  0  0  0  0  0  0
   -2.4139    0.6698    2.8558 H   0  0  0  0  0  0  0  0  0  0  0  0
   -1.1587    0.6908    4.5775 C   0  0  0  0  0  0  0  0  0  0  0  0
   -0.4270    1.4968    4.6656 H   0  0  0  0  0  0  0  0  0  0  0  0
   -2.0565    0.9649    5.1327 H   0  0  0  0  0  0  0  0  0  0  0  0
   -0.7281   -0.2137    5.0125 H   0  0  0  0  0  0  0  0  0  0  0  0
  5  6  2  0  0  0  0
  5  7  1  0  0  0  0
  2  3  1  0  0  0  0
  2  4  1  0  0  0  0
  2  5  1  0  0  0  0
  1  2  1  0  0  0  0
 27 28  2  0  0  0  0
 27 29  1  0  0  0  0
 23 24  1  0  0  0  0
 23 25  1  0  0  0  0
 23 26  1  0  0  0  0
 20 21  1  0  0  0  0
 20 22  1  0  0  0  0
 20 23  1  0  0  0  0
 17 18  1  0  0  0  0
 17 19  1  0  0  0  0
 17 20  1  0  0  0  0
 14 15  1  0  0  0  0
 14 16  1  0  0  0  0
 14 17  1  0  0  0  0
 11 12  1  0  0  0  0
 11 13  1  0  0  0  0
 11 14  1  0  0  0  0
  9 10  1  0  0  0  0
  9 11  1  0  0  0  0
  9 27  1  0  0  0  0
  7  8  1  0  0  0  0
  7  9  1  0  0  0  0
 31 32  1  0  0  0  0
 31 33  1  0  0  0  0
 31 34  1  0  0  0  0
 29 30  1  0  0  0  0
 29 31  1  0  0  0  0
M  CHG  1  23   1
M  END
$$$$
default_name
  -OEChem-02102213163D

 34 33  0     1  0  0  0  0  0999 V2000
   -3.8899   -3.6747    1.6490 H   0  0  0  0  0  0  0  0  0  0  0  0
   -3.9109   -2.6717    1.2250 C   0  0  0  0  0  0  0  0  0  0  0  0
   -4.6009   -2.0517    1.7950 H   0  0  0  0  0  0  0  0  0  0  0  0
   -4.2309   -2.7237    0.1860 H   0  0  0  0  0  0  0  0  0  0  0  0
   -2.5229   -2.0787    1.2980 C   0  0  0  0  0  0  0  0  0  0  0  0
   -1.5999   -2.7227    1.7810 O   0  0  0  0  0  0  0  0  0  0  0  0
   -2.3659   -0.8447    0.8120 N   0  0  0  0  0  0  0  0  0  0  0  0
   -3.1749   -0.3807    0.4220 H   0  0  0  0  0  0  0  0  0  0  0  0
   -1.0919   -0.1077    0.8170 C   0  0  1  0  0  0  0  0  0  0  0  0
   -0.3571   -0.6901    0.2581 H   0  0  0  0  0  0  0  0  0  0  0  0
   -1.3037    1.2411    0.1040 C   0  0  0  0  0  0  0  0  0  0  0  0
   -0.6383    1.2860   -0.7596 H   0  0  0  0  0  0  0  0  0  0  0  0
   -2.3328    1.2988   -0.2562 H   0  0  0  0  0  0  0  0  0  0  0  0
   -1.0130    2.4538    1.0013 C   0  0  0  0  0  0  0  0  0  0  0  0
   -0.9627    2.1359    2.0436 H   0  0  0  0  0  0  0  0  0  0  0  0
   -0.0543    2.8909    0.7153 H   0  0  0  0  0  0  0  0  0  0  0  0
   -2.1178    3.5084    0.8493 C   0  0  0  0  0  0  0  0  0  0  0  0
   -2.1757    3.8137   -0.1982 H   0  0  0  0  0  0  0  0  0  0  0  0
   -3.0726    3.0691    1.1453 H   0  0  0  0  0  0  0  0  0  0  0  0
   -1.8161    4.7304    1.7258 C   0  0  0  0  0  0  0  0  0  0  0  0
   -1.7546    4.4027    2.7687 H   0  0  0  0  0  0  0  0  0  0  0  0
   -0.8376    5.1291    1.4415 H   0  0  0  0  0  0  0  0  0  0  0  0
   -2.8583    5.7778    1.5796 N   0  3  0  0  0  0  0  0  0  0  0  0
   -3.7646    5.4178    1.8513 H   0  0  0  0  0  0  0  0  0  0  0  0
   -2.6445    6.5766    2.1636 H   0  0  0  0  0  0  0  0  0  0  0  0
   -2.9132    6.0908    0.6174 H   0  0  0  0  0  0  0  0  0  0  0  0
   -0.5865    0.0771    2.2496 C   0  0  0  0  0  0  0  0  0  0  0  0
    0.5860   -0.1608    2.5143 O   0  0  0  0  0  0  0  0  0  0  0  0
   -1.4786    0.4656    3.1667 N   0  0  0  0  0  0  0  0  0  0  0  0
   -2.4139    0.6698    2.8558 H   0  0  0  0  0  0  0  0  0  0  0  0
   -1.1587    0.6908    4.5775 C   0  0  0  0  0  0  0  0  0  0  0  0
   -0.4270    1.4968    4.6656 H   0  0  0  0  0  0  0  0  0  0  0  0
   -2.0565    0.9649    5.1327 H   0  0  0  0  0  0  0  0  0  0  0  0
   -0.7281   -0.2137    5.0125 H   0  0  0  0  0  0  0  0  0  0  0  0
  5  6  2  0  0  0  0
  5  7  1  0  0  0  0
  2  3  1  0  0  0  0
  2  4  1  0  0  0  0
  2  5  1  0  0  0  0
  1  2  1  0  0  0  0
 27 28  2  0  0  0  0
 27 29  1  0  0  0  0
 23 24  1  0  0  0  0
 23 25  1  0  0  0  0
 23 26  1  0  0  0  0
 20 21  1  0  0  0  0
 20 22  1  0  0  0  0
 20 23  1  0  0  0  0
 17 18  1  0  0  0  0
 17 19  1  0  0  0  0
 17 20  1  0  0  0  0
 14 15  1  0  0  0  0
 14 16  1  0  0  0  0
 14 17  1  0  0  0  0
 11 12  1  0  0  0  0
 11 13  1  0  0  0  0
 11 14  1  0  0  0  0
  9 10  1  0  0  0  0
  9 11  1  0  0  0  0
  9 27  1  0  0  0  0
  7  8  1  0  0  0  0
  7  9  1  0  0  0  0
 31 32  1  0  0  0  0
 31 33  1  0  0  0  0
 31 34  1  0  0  0  0
 29 30  1  0  0  0  0
 29 31  1  0  0  0  0
M  CHG  1  23   1
M  END
$$$$
default_name
  -OEChem-02102213163D

 34 33  0     1  0  0  0  0  0999 V2000
   -3.8899   -3.6747    1.6490 H   0  0  0  0  0  0  0  0  0  0  0  0
   -3.9109   -2.6717    1.2250 C   0  0  0  0  0  0  0  0  0  0  0  0
   -4.6009   -2.0517    1.7950 H   0  0  0  0  0  0  0  0  0  0  0  0
   -4.2309   -2.7237    0.1860 H   0  0  0  0  0  0  0  0  0  0  0  0
   -2.5229   -2.0787    1.2980 C   0  0  0  0  0  0  0  0  0  0  0  0
   -1.5999   -2.7227    1.7810 O   0  0  0  0  0  0  0  0  0  0  0  0
   -2.3659   -0.8447    0.8120 N   0  0  0  0  0  0  0  0  0  0  0  0
   -3.1749   -0.3807    0.4220 H   0  0  0  0  0  0  0  0  0  0  0  0
   -1.0919   -0.1077    0.8170 C   0  0  1  0  0  0  0  0  0  0  0  0
   -0.3571   -0.6901    0.2581 H   0  0  0  0  0  0  0  0  0  0  0  0
   -1.3037    1.2411    0.1040 C   0  0  0  0  0  0  0  0  0  0  0  0
   -0.6383    1.2860   -0.7596 H   0  0  0  0  0  0  0  0  0  0  0  0
   -2.3328    1.2988   -0.2562 H   0  0  0  0  0  0  0  0  0  0  0  0
   -1.0130    2.4538    1.0013 C   0  0  0  0  0  0  0  0  0  0  0  0
   -0.7011    2.1132    1.9896 H   0  0  0  0  0  0  0  0  0  0  0  0
   -0.2092    3.0446    0.5578 H   0  0  0  0  0  0  0  0  0  0  0  0
   -2.2672    3.3273    1.1425 C   0  0  0  0  0  0  0  0  0  0  0  0
   -2.5857    3.6544    0.1498 H   0  0  0  0  0  0  0  0  0  0  0  0
   -3.0648    2.7346    1.5949 H   0  0  0  0  0  0  0  0  0  0  0  0
   -1.9716    4.5515    2.0179 C   0  0  0  0  0  0  0  0  0  0  0  0
   -1.6472    4.2030    3.0038 H   0  0  0  0  0  0  0  0  0  0  0  0
   -1.1426    5.1075    1.5695 H   0  0  0  0  0  0  0  0  0  0  0  0
   -3.1629    5.4275    2.1517 N   0  3  0  0  0  0  0  0  0  0  0  0
   -3.9303    4.9215    2.5758 H   0  0  0  0  0  0  0  0  0  0  0  0
   -2.9513    6.2301    2.7314 H   0  0  0  0  0  0  0  0  0  0  0  0
   -3.4619    5.7599    1.2423 H   0  0  0  0  0  0  0  0  0  0  0  0
   -0.5865    0.0771    2.2496 C   0  0  0  0  0  0  0  0  0  0  0  0
    0.5860   -0.1608    2.5143 O   0  0  0  0  0  0  0  0  0  0  0  0
   -1.4786    0.4656    3.1667 N   0  0  0  0  0  0  0  0  0  0  0  0
   -2.4139    0.6698    2.8558 H   0  0  0  0  0  0  0  0  0  0  0  0
   -1.1587    0.6908    4.5775 C   0  0  0  0  0  0  0  0  0  0  0  0
   -0.4270    1.4968    4.6656 H   0  0  0  0  0  0  0  0  0  0  0  0
   -2.0565    0.9649    5.1327 H   0  0  0  0  0  0  0  0  0  0  0  0
   -0.7281   -0.2137    5.0125 H   0  0  0  0  0  0  0  0  0  0  0  0
  5  6  2  0  0  0  0
  5  7  1  0  0  0  0
  2  3  1  0  0  0  0
  2  4  1  0  0  0  0
  2  5  1  0  0  0  0
  1  2  1  0  0  0  0
 27 28  2  0  0  0  0
 27 29  1  0  0  0  0
 23 24  1  0  0  0  0
 23 25  1  0  0  0  0
 23 26  1  0  0  0  0
 20 21  1  0  0  0  0
 20 22  1  0  0  0  0
 20 23  1  0  0  0  0
 17 18  1  0  0  0  0
 17 19  1  0  0  0  0
 17 20  1  0  0  0  0
 14 15  1  0  0  0  0
 14 16  1  0  0  0  0
 14 17  1  0  0  0  0
 11 12  1  0  0  0  0
 11 13  1  0  0  0  0
 11 14  1  0  0  0  0
  9 10  1  0  0  0  0
  9 11  1  0  0  0  0
  9 27  1  0  0  0  0
  7  8  1  0  0  0  0
  7  9  1  0  0  0  0
 31 32  1  0  0  0  0
 31 33  1  0  0  0  0
 31 34  1  0  0  0  0
 29 30  1  0  0  0  0
 29 31  1  0  0  0  0
M  CHG  1  23   1
M  END
$$$$
default_name
  -OEChem-02102213163D

 34 33  0     1  0  0  0  0  0999 V2000
   -3.8899   -3.6747    1.6490 H   0  0  0  0  0  0  0  0  0  0  0  0
   -3.9109   -2.6717    1.2250 C   0  0  0  0  0  0  0  0  0  0  0  0
   -4.6009   -2.0517    1.7950 H   0  0  0  0  0  0  0  0  0  0  0  0
   -4.2309   -2.7237    0.1860 H   0  0  0  0  0  0  0  0  0  0  0  0
   -2.5229   -2.0787    1.2980 C   0  0  0  0  0  0  0  0  0  0  0  0
   -1.5999   -2.7227    1.7810 O   0  0  0  0  0  0  0  0  0  0  0  0
   -2.3659   -0.8447    0.8120 N   0  0  0  0  0  0  0  0  0  0  0  0
   -3.1749   -0.3807    0.4220 H   0  0  0  0  0  0  0  0  0  0  0  0
   -1.0919   -0.1077    0.8170 C   0  0  1  0  0  0  0  0  0  0  0  0
   -0.3571   -0.6901    0.2581 H   0  0  0  0  0  0  0  0  0  0  0  0
   -1.3037    1.2411    0.1040 C   0  0  0  0  0  0  0  0  0  0  0  0
   -0.6383    1.2860   -0.7596 H   0  0  0  0  0  0  0  0  0  0  0  0
   -2.3328    1.2988   -0.2562 H   0  0  0  0  0  0  0  0  0  0  0  0
   -1.0130    2.4538    1.0013 C   0  0  0  0  0  0  0  0  0  0  0  0
   -0.4559    2.1334    1.8828 H   0  0  0  0  0  0  0  0  0  0  0  0
   -0.4142    3.1774    0.4448 H   0  0  0  0  0  0  0  0  0  0  0  0
   -2.3242    3.1154    1.4474 C   0  0  0  0  0  0  0  0  0  0  0  0
   -2.8866    3.4216    0.5620 H   0  0  0  0  0  0  0  0  0  0  0  0
   -2.9150    2.3906    2.0112 H   0  0  0  0  0  0  0  0  0  0  0  0
   -2.0350    4.3410    2.3230 C   0  0  0  0  0  0  0  0  0  0  0  0
   -1.4652    4.0148    3.1992 H   0  0  0  0  0  0  0  0  0  0  0  0
   -1.4078    5.0342    1.7545 H   0  0  0  0  0  0  0  0  0  0  0  0
   -3.2873    5.0150    2.7494 N   0  3  0  0  0  0  0  0  0  0  0  0
   -3.8674    4.3815    3.2851 H   0  0  0  0  0  0  0  0  0  0  0  0
   -3.0793    5.8211    3.3255 H   0  0  0  0  0  0  0  0  0  0  0  0
   -3.8143    5.3268    1.9419 H   0  0  0  0  0  0  0  0  0  0  0  0
   -0.5865    0.0771    2.2496 C   0  0  0  0  0  0  0  0  0  0  0  0
    0.5860   -0.1608    2.5143 O   0  0  0  0  0  0  0  0  0  0  0  0
   -1.4786    0.4656    3.1667 N   0  0  0  0  0  0  0  0  0  0  0  0
   -2.4139    0.6698    2.8558 H   0  0  0  0  0  0  0  0  0  0  0  0
   -1.1587    0.6908    4.5775 C   0  0  0  0  0  0  0  0  0  0  0  0
   -0.4270    1.4968    4.6656 H   0  0  0  0  0  0  0  0  0  0  0  0
   -2.0565    0.9649    5.1327 H   0  0  0  0  0  0  0  0  0  0  0  0
   -0.7281   -0.2137    5.0125 H   0  0  0  0  0  0  0  0  0  0  0  0
  5  6  2  0  0  0  0
  5  7  1  0  0  0  0
  2  3  1  0  0  0  0
  2  4  1  0  0  0  0
  2  5  1  0  0  0  0
  1  2  1  0  0  0  0
 27 28  2  0  0  0  0
 27 29  1  0  0  0  0
 23 24  1  0  0  0  0
 23 25  1  0  0  0  0
 23 26  1  0  0  0  0
 20 21  1  0  0  0  0
 20 22  1  0  0  0  0
 20 23  1  0  0  0  0
 17 18  1  0  0  0  0
 17 19  1  0  0  0  0
 17 20  1  0  0  0  0
 14 15  1  0  0  0  0
 14 16  1  0  0  0  0
 14 17  1  0  0  0  0
 11 12  1  0  0  0  0
 11 13  1  0  0  0  0
 11 14  1  0  0  0  0
  9 10  1  0  0  0  0
  9 11  1  0  0  0  0
  9 27  1  0  0  0  0
  7  8  1  0  0  0  0
  7  9  1  0  0  0  0
 31 32  1  0  0  0  0
 31 33  1  0  0  0  0
 31 34  1  0  0  0  0
 29 30  1  0  0  0  0
 29 31  1  0  0  0  0
M  CHG  1  23   1
M  END
$$$$
default_name
  -OEChem-02102213163D

 34 33  0     1  0  0  0  0  0999 V2000
   -3.8899   -3.6747    1.6490 H   0  0  0  0  0  0  0  0  0  0  0  0
   -3.9109   -2.6717    1.2250 C   0  0  0  0  0  0  0  0  0  0  0  0
   -4.6009   -2.0517    1.7950 H   0  0  0  0  0  0  0  0  0  0  0  0
   -4.2309   -2.7237    0.1860 H   0  0  0  0  0  0  0  0  0  0  0  0
   -2.5229   -2.0787    1.2980 C   0  0  0  0  0  0  0  0  0  0  0  0
   -1.5999   -2.7227    1.7810 O   0  0  0  0  0  0  0  0  0  0  0  0
   -2.3659   -0.8447    0.8120 N   0  0  0  0  0  0  0  0  0  0  0  0
   -3.1749   -0.3807    0.4220 H   0  0  0  0  0  0  0  0  0  0  0  0
   -1.0919   -0.1077    0.8170 C   0  0  1  0  0  0  0  0  0  0  0  0
   -0.3571   -0.6901    0.2581 H   0  0  0  0  0  0  0  0  0  0  0  0
   -1.3037    1.2411    0.1040 C   0  0  0  0  0  0  0  0  0  0  0  0
   -0.6383    1.2860   -0.7596 H   0  0  0  0  0  0  0  0  0  0  0  0
   -2.3328    1.2988   -0.2562 H   0  0  0  0  0  0  0  0  0  0  0  0
   -1.0130    2.4538    1.0013 C   0  0  0  0  0  0  0  0  0  0  0  0
   -0.2441    2.1952    1.7306 H   0  0  0  0  0  0  0  0  0  0  0  0
   -0.6554    3.2802    0.3840 H   0  0  0  0  0  0  0  0  0  0  0  0
   -2.2850    2.8871    1.7431 C   0  0  0  0  0  0  0  0  0  0  0  0
   -3.0578    3.1310    1.0102 H   0  0  0  0  0  0  0  0  0  0  0  0
   -2.6331    2.0606    2.3658 H   0  0  0  0  0  0  0  0  0  0  0  0
   -2.0021    4.1131    2.6204 C   0  0  0  0  0  0  0  0  0  0  0  0
   -1.2211    3.8509    3.3415 H   0  0  0  0  0  0  0  0  0  0  0  0
   -1.6150    4.9143    1.9837 H   0  0  0  0  0  0  0  0  0  0  0  0
   -3.2230    4.5686    3.3319 N   0  3  0  0  0  0  0  0  0  0  0  0
   -3.5800    3.8347    3.9309 H   0  0  0  0  0  0  0  0  0  0  0  0
   -3.0198    5.3776    3.9056 H   0  0  0  0  0  0  0  0  0  0  0  0
   -3.9462    4.8209    2.6684 H   0  0  0  0  0  0  0  0  0  0  0  0
   -0.5865    0.0771    2.2496 C   0  0  0  0  0  0  0  0  0  0  0  0
    0.5860   -0.1608    2.5143 O   0  0  0  0  0  0  0  0  0  0  0  0
   -1.4786    0.4656    3.1667 N   0  0  0  0  0  0  0  0  0  0  0  0
   -2.4139    0.6698    2.8558 H   0  0  0  0  0  0  0  0  0  0  0  0
   -1.1587    0.6908    4.5775 C   0  0  0  0  0  0  0  0  0  0  0  0
   -0.4270    1.4968    4.6656 H   0  0  0  0  0  0  0  0  0  0  0  0
   -2.0565    0.9649    5.1327 H   0  0  0  0  0  0  0  0  0  0  0  0
   -0.7281   -0.2137    5.0125 H   0  0  0  0  0  0  0  0  0  0  0  0
  5  6  2  0  0  0  0
  5  7  1  0  0  0  0
  2  3  1  0  0  0  0
  2  4  1  0  0  0  0
  2  5  1  0  0  0  0
  1  2  1  0  0  0  0
 27 28  2  0  0  0  0
 27 29  1  0  0  0  0
 23 24  1  0  0  0  0
 23 25  1  0  0  0  0
 23 26  1  0  0  0  0
 20 21  1  0  0  0  0
 20 22  1  0  0  0  0
 20 23  1  0  0  0  0
 17 18  1  0  0  0  0
 17 19  1  0  0  0  0
 17 20  1  0  0  0  0
 14 15  1  0  0  0  0
 14 16  1  0  0  0  0
 14 17  1  0  0  0  0
 11 12  1  0  0  0  0
 11 13  1  0  0  0  0
 11 14  1  0  0  0  0
  9 10  1  0  0  0  0
  9 11  1  0  0  0  0
  9 27  1  0  0  0  0
  7  8  1  0  0  0  0
  7  9  1  0  0  0  0
 31 32  1  0  0  0  0
 31 33  1  0  0  0  0
 31 34  1  0  0  0  0
 29 30  1  0  0  0  0
 29 31  1  0  0  0  0
M  CHG  1  23   1
M  END
$$$$
default_name
  -OEChem-02102213163D

 34 33  0     1  0  0  0  0  0999 V2000
   -3.8899   -3.6747    1.6490 H   0  0  0  0  0  0  0  0  0  0  0  0
   -3.9109   -2.6717    1.2250 C   0  0  0  0  0  0  0  0  0  0  0  0
   -4.6009   -2.0517    1.7950 H   0  0  0  0  0  0  0  0  0  0  0  0
   -4.2309   -2.7237    0.1860 H   0  0  0  0  0  0  0  0  0  0  0  0
   -2.5229   -2.0787    1.2980 C   0  0  0  0  0  0  0  0  0  0  0  0
   -1.5999   -2.7227    1.7810 O   0  0  0  0  0  0  0  0  0  0  0  0
   -2.3659   -0.8447    0.8120 N   0  0  0  0  0  0  0  0  0  0  0  0
   -3.1749   -0.3807    0.4220 H   0  0  0  0  0  0  0  0  0  0  0  0
   -1.0919   -0.1077    0.8170 C   0  0  1  0  0  0  0  0  0  0  0  0
   -0.3571   -0.6901    0.2581 H   0  0  0  0  0  0  0  0  0  0  0  0
   -1.3037    1.2411    0.1040 C   0  0  0  0  0  0  0  0  0  0  0  0
   -0.6383    1.2860   -0.7596 H   0  0  0  0  0  0  0  0  0  0  0  0
   -2.3328    1.2988   -0.2562 H   0  0  0  0  0  0  0  0  0  0  0  0
   -1.0130    2.4538    1.0013 C   0  0  0  0  0  0  0  0  0  0  0  0
   -0.0798    2.2944    1.5433 H   0  0  0  0  0  0  0  0  0  0  0  0
   -0.9163    3.3460    0.3796 H   0  0  0  0  0  0  0  0  0  0  0  0
   -2.1522    2.6581    2.0095 C   0  0  0  0  0  0  0  0  0  0  0  0
   -3.0877    2.8025    1.4639 H   0  0  0  0  0  0  0  0  0  0  0  0
   -2.2386    1.7671    2.6346 H   0  0  0  0  0  0  0  0  0  0  0  0
   -1.8751    3.8833    2.8897 C   0  0  0  0  0  0  0  0  0  0  0  0
   -0.9315    3.7226    3.4211 H   0  0  0  0  0  0  0  0  0  0  0  0
   -1.7503    4.7560    2.2415 H   0  0  0  0  0  0  0  0  0  0  0  0
   -2.9745    4.1185    3.8596 N   0  3  0  0  0  0  0  0  0  0  0  0
   -3.0879    3.3184    4.4693 H   0  0  0  0  0  0  0  0  0  0  0  0
   -2.7767    4.9298    4.4319 H   0  0  0  0  0  0  0  0  0  0  0  0
   -3.8488    4.2766    3.3723 H   0  0  0  0  0  0  0  0  0  0  0  0
   -0.5865    0.0771    2.2496 C   0  0  0  0  0  0  0  0  0  0  0  0
    0.5860   -0.1608    2.5143 O   0  0  0  0  0  0  0  0  0  0  0  0
   -1.4786    0.4656    3.1667 N   0  0  0  0  0  0  0  0  0  0  0  0
   -2.4139    0.6698    2.8558 H   0  0  0  0  0  0  0  0  0  0  0  0
   -1.1587    0.6908    4.5775 C   0  0  0  0  0  0  0  0  0  0  0  0
   -0.4270    1.4968    4.6656 H   0  0  0  0  0  0  0  0  0  0  0  0
   -2.0565    0.9649    5.1327 H   0  0  0  0  0  0  0  0  0  0  0  0
   -0.7281   -0.2137    5.0125 H   0  0  0  0  0  0  0  0  0  0  0  0
  5  6  2  0  0  0  0
  5  7  1  0  0  0  0
  2  3  1  0  0  0  0
  2  4  1  0  0  0  0
  2  5  1  0  0  0  0
  1  2  1  0  0  0  0
 27 28  2  0  0  0  0
 27 29  1  0  0  0  0
 23 24  1  0  0  0  0
 23 25  1  0  0  0  0
 23 26  1  0  0  0  0
 20 21  1  0  0  0  0
 20 22  1  0  0  0  0
 20 23  1  0  0  0  0
 17 18  1  0  0  0  0
 17 19  1  0  0  0  0
 17 20  1  0  0  0  0
 14 15  1  0  0  0  0
 14 16  1  0  0  0  0
 14 17  1  0  0  0  0
 11 12  1  0  0  0  0
 11 13  1  0  0  0  0
 11 14  1  0  0  0  0
  9 10  1  0  0  0  0
  9 11  1  0  0  0  0
  9 27  1  0  0  0  0
  7  8  1  0  0  0  0
  7  9  1  0  0  0  0
 31 32  1  0  0  0  0
 31 33  1  0  0  0  0
 31 34  1  0  0  0  0
 29 30  1  0  0  0  0
 29 31  1  0  0  0  0
M  CHG  1  23   1
M  END
$$$$
default_name
  -OEChem-02102213163D

 34 33  0     1  0  0  0  0  0999 V2000
   -3.8899   -3.6747    1.6490 H   0  0  0  0  0  0  0  0  0  0  0  0
   -3.9109   -2.6717    1.2250 C   0  0  0  0  0  0  0  0  0  0  0  0
   -4.6009   -2.0517    1.7950 H   0  0  0  0  0  0  0  0  0  0  0  0
   -4.2309   -2.7237    0.1860 H   0  0  0  0  0  0  0  0  0  0  0  0
   -2.5229   -2.0787    1.2980 C   0  0  0  0  0  0  0  0  0  0  0  0
   -1.5999   -2.7227    1.7810 O   0  0  0  0  0  0  0  0  0  0  0  0
   -2.3659   -0.8447    0.8120 N   0  0  0  0  0  0  0  0  0  0  0  0
   -3.1749   -0.3807    0.4220 H   0  0  0  0  0  0  0  0  0  0  0  0
   -1.0919   -0.1077    0.8170 C   0  0  1  0  0  0  0  0  0  0  0  0
   -0.3571   -0.6901    0.2581 H   0  0  0  0  0  0  0  0  0  0  0  0
   -1.3037    1.2411    0.1040 C   0  0  0  0  0  0  0  0  0  0  0  0
   -0.6383    1.2860   -0.7596 H   0  0  0  0  0  0  0  0  0  0  0  0
   -2.3328    1.2988   -0.2562 H   0  0  0  0  0  0  0  0  0  0  0  0
   -1.0130    2.4538    1.0013 C   0  0  0  0  0  0  0  0  0  0  0  0
    0.0256    2.4243    1.3337 H   0  0  0  0  0  0  0  0  0  0  0  0
   -1.1791    3.3703    0.4319 H   0  0  0  0  0  0  0  0  0  0  0  0
   -1.9348    2.4439    2.2286 C   0  0  0  0  0  0  0  0  0  0  0  0
   -2.9743    2.4584    1.8921 H   0  0  0  0  0  0  0  0  0  0  0  0
   -1.7582    1.5301    2.7993 H   0  0  0  0  0  0  0  0  0  0  0  0
   -1.6627    3.6674    3.1127 C   0  0  0  0  0  0  0  0  0  0  0  0
   -0.6160    3.6385    3.4326 H   0  0  0  0  0  0  0  0  0  0  0  0
   -1.8043    4.5699    2.5105 H   0  0  0  0  0  0  0  0  0  0  0  0
   -2.5585    3.6955    4.2964 N   0  3  0  0  0  0  0  0  0  0  0  0
   -2.4245    2.8676    4.8634 H   0  0  0  0  0  0  0  0  0  0  0  0
   -2.3666    4.5083    4.8688 H   0  0  0  0  0  0  0  0  0  0  0  0
   -3.5286    3.7312    4.0057 H   0  0  0  0  0  0  0  0  0  0  0  0
   -0.5865    0.0771    2.2496 C   0  0  0  0  0  0  0  0  0  0  0  0
    0.5860   -0.1608    2.5143 O   0  0  0  0  0  0  0  0  0  0  0  0
   -1.4786    0.4656    3.1667 N   0  0  0  0  0  0  0  0  0  0  0  0
   -2.4139    0.6698    2.8558 H   0  0  0  0  0  0  0  0  0  0  0  0
   -1.1587    0.6908    4.5775 C   0  0  0  0  0  0  0  0  0  0  0  0
   -0.4270    1.4968    4.6656 H   0  0  0  0  0  0  0  0  0  0  0  0
   -2.0565    0.9649    5.1327 H   0  0  0  0  0  0  0  0  0  0  0  0
   -0.7281   -0.2137    5.0125 H   0  0  0  0  0  0  0  0  0  0  0  0
  5  6  2  0  0  0  0
  5  7  1  0  0  0  0
  2  3  1  0  0  0  0
  2  4  1  0  0  0  0
  2  5  1  0  0  0  0
  1  2  1  0  0  0  0
 27 28  2  0  0  0  0
 27 29  1  0  0  0  0
 23 24  1  0  0  0  0
 23 25  1  0  0  0  0
 23 26  1  0  0  0  0
 20 21  1  0  0  0  0
 20 22  1  0  0  0  0
 20 23  1  0  0  0  0
 17 18  1  0  0  0  0
 17 19  1  0  0  0  0
 17 20  1  0  0  0  0
 14 15  1  0  0  0  0
 14 16  1  0  0  0  0
 14 17  1  0  0  0  0
 11 12  1  0  0  0  0
 11 13  1  0  0  0  0
 11 14  1  0  0  0  0
  9 10  1  0  0  0  0
  9 11  1  0  0  0  0
  9 27  1  0  0  0  0
  7  8  1  0  0  0  0
  7  9  1  0  0  0  0
 31 32  1  0  0  0  0
 31 33  1  0  0  0  0
 31 34  1  0  0  0  0
 29 30  1  0  0  0  0
 29 31  1  0  0  0  0
M  CHG  1  23   1
M  END
$$$$
default_name
  -OEChem-02102213163D

 34 33  0     1  0  0  0  0  0999 V2000
   -3.8899   -3.6747    1.6490 H   0  0  0  0  0  0  0  0  0  0  0  0
   -3.9109   -2.6717    1.2250 C   0  0  0  0  0  0  0  0  0  0  0  0
   -4.6009   -2.0517    1.7950 H   0  0  0  0  0  0  0  0  0  0  0  0
   -4.2309   -2.7237    0.1860 H   0  0  0  0  0  0  0  0  0  0  0  0
   -2.5229   -2.0787    1.2980 C   0  0  0  0  0  0  0  0  0  0  0  0
   -1.5999   -2.7227    1.7810 O   0  0  0  0  0  0  0  0  0  0  0  0
   -2.3659   -0.8447    0.8120 N   0  0  0  0  0  0  0  0  0  0  0  0
   -3.1749   -0.3807    0.4220 H   0  0  0  0  0  0  0  0  0  0  0  0
   -1.0919   -0.1077    0.8170 C   0  0  1  0  0  0  0  0  0  0  0  0
   -0.3571   -0.6901    0.2581 H   0  0  0  0  0  0  0  0  0  0  0  0
   -1.3037    1.2411    0.1040 C   0  0  0  0  0  0  0  0  0  0  0  0
   -0.6383    1.2860   -0.7596 H   0  0  0  0  0  0  0  0  0  0  0  0
   -2.3328    1.2988   -0.2562 H   0  0  0  0  0  0  0  0  0  0  0  0
   -1.0130    2.4538    1.0013 C   0  0  0  0  0  0  0  0  0  0  0  0
    0.0649    2.5759    1.1161 H   0  0  0  0  0  0  0  0  0  0  0  0
   -1.4260    3.3515    0.5373 H   0  0  0  0  0  0  0  0  0  0  0  0
   -1.6478    2.2592    2.3852 C   0  0  0  0  0  0  0  0  0  0  0  0
   -2.7252    2.1223    2.2657 H   0  0  0  0  0  0  0  0  0  0  0  0
   -1.2247    1.3657    2.8486 H   0  0  0  0  0  0  0  0  0  0  0  0
   -1.3794    3.4800    3.2741 C   0  0  0  0  0  0  0  0  0  0  0  0
   -0.2963    3.6044    3.3750 H   0  0  0  0  0  0  0  0  0  0  0  0
   -1.7735    4.3688    2.7722 H   0  0  0  0  0  0  0  0  0  0  0  0
   -2.0035    3.3284    4.6127 N   0  3  0  0  0  0  0  0  0  0  0  0
   -1.6350    2.5133    5.0865 H   0  0  0  0  0  0  0  0  0  0  0  0
   -1.8176    4.1417    5.1863 H   0  0  0  0  0  0  0  0  0  0  0  0
   -3.0075    3.2218    4.5253 H   0  0  0  0  0  0  0  0  0  0  0  0
   -0.5865    0.0771    2.2496 C   0  0  0  0  0  0  0  0  0  0  0  0
    0.5860   -0.1608    2.5143 O   0  0  0  0  0  0  0  0  0  0  0  0
   -1.4786    0.4656    3.1667 N   0  0  0  0  0  0  0  0  0  0  0  0
   -2.4139    0.6698    2.8558 H   0  0  0  0  0  0  0  0  0  0  0  0
   -1.1587    0.6908    4.5775 C   0  0  0  0  0  0  0  0  0  0  0  0
   -0.4270    1.4968    4.6656 H   0  0  0  0  0  0  0  0  0  0  0  0
   -2.0565    0.9649    5.1327 H   0  0  0  0  0  0  0  0  0  0  0  0
   -0.7281   -0.2137    5.0125 H   0  0  0  0  0  0  0  0  0  0  0  0
  5  6  2  0  0  0  0
  5  7  1  0  0  0  0
  2  3  1  0  0  0  0
  2  4  1  0  0  0  0
  2  5  1  0  0  0  0
  1  2  1  0  0  0  0
 27 28  2  0  0  0  0
 27 29  1  0  0  0  0
 23 24  1  0  0  0  0
 23 25  1  0  0  0  0
 23 26  1  0  0  0  0
 20 21  1  0  0  0  0
 20 22  1  0  0  0  0
 20 23  1  0  0  0  0
 17 18  1  0  0  0  0
 17 19  1  0  0  0  0
 17 20  1  0  0  0  0
 14 15  1  0  0  0  0
 14 16  1  0  0  0  0
 14 17  1  0  0  0  0
 11 12  1  0  0  0  0
 11 13  1  0  0  0  0
 11 14  1  0  0  0  0
  9 10  1  0  0  0  0
  9 11  1  0  0  0  0
  9 27  1  0  0  0  0
  7  8  1  0  0  0  0
  7  9  1  0  0  0  0
 31 32  1  0  0  0  0
 31 33  1  0  0  0  0
 31 34  1  0  0  0  0
 29 30  1  0  0  0  0
 29 31  1  0  0  0  0
M  CHG  1  23   1
M  END
$$$$
default_name
  -OEChem-02102213163D

 34 33  0     1  0  0  0  0  0999 V2000
   -3.8899   -3.6747    1.6490 H   0  0  0  0  0  0  0  0  0  0  0  0
   -3.9109   -2.6717    1.2250 C   0  0  0  0  0  0  0  0  0  0  0  0
   -4.6009   -2.0517    1.7950 H   0  0  0  0  0  0  0  0  0  0  0  0
   -4.2309   -2.7237    0.1860 H   0  0  0  0  0  0  0  0  0  0  0  0
   -2.5229   -2.0787    1.2980 C   0  0  0  0  0  0  0  0  0  0  0  0
   -1.5999   -2.7227    1.7810 O   0  0  0  0  0  0  0  0  0  0  0  0
   -2.3659   -0.8447    0.8120 N   0  0  0  0  0  0  0  0  0  0  0  0
   -3.1749   -0.3807    0.4220 H   0  0  0  0  0  0  0  0  0  0  0  0
   -1.0919   -0.1077    0.8170 C   0  0  1  0  0  0  0  0  0  0  0  0
   -0.3571   -0.6901    0.2581 H   0  0  0  0  0  0  0  0  0  0  0  0
   -1.3037    1.2411    0.1040 C   0  0  0  0  0  0  0  0  0  0  0  0
   -0.6383    1.2860   -0.7596 H   0  0  0  0  0  0  0  0  0  0  0  0
   -2.3328    1.2988   -0.2562 H   0  0  0  0  0  0  0  0  0  0  0  0
   -1.0130    2.4538    1.0013 C   0  0  0  0  0  0  0  0  0  0  0  0
    0.0355    2.7389    0.9053 H   0  0  0  0  0  0  0  0  0  0  0  0
   -1.6401    3.2909    0.6886 H   0  0  0  0  0  0  0  0  0  0  0  0
   -1.3105    2.1164    2.4689 C   0  0  0  0  0  0  0  0  0  0  0  0
   -2.3574    1.8169    2.5592 H   0  0  0  0  0  0  0  0  0  0  0  0
   -0.6744    1.2851    2.7792 H   0  0  0  0  0  0  0  0  0  0  0  0
   -1.0444    3.3340    3.3629 C   0  0  0  0  0  0  0  0  0  0  0  0
    0.0060    3.6226    3.2525 H   0  0  0  0  0  0  0  0  0  0  0  0
   -1.6598    4.1665    3.0088 H   0  0  0  0  0  0  0  0  0  0  0  0
   -1.3474    3.0422    4.7869 N   0  3  0  0  0  0  0  0  0  0  0  0
   -0.7733    2.2794    5.1234 H   0  0  0  0  0  0  0  0  0  0  0  0
   -1.1670    3.8550    5.3629 H   0  0  0  0  0  0  0  0  0  0  0  0
   -2.3209    2.7830    4.8958 H   0  0  0  0  0  0  0  0  0  0  0  0
   -0.5865    0.0771    2.2496 C   0  0  0  0  0  0  0  0  0  0  0  0
    0.5860   -0.1608    2.5143 O   0  0  0  0  0  0  0  0  0  0  0  0
   -1.4786    0.4656    3.1667 N   0  0  0  0  0  0  0  0  0  0  0  0
   -2.4139    0.6698    2.8558 H   0  0  0  0  0  0  0  0  0  0  0  0
   -1.1587    0.6908    4.5775 C   0  0  0  0  0  0  0  0  0  0  0  0
   -0.4270    1.4968    4.6656 H   0  0  0  0  0  0  0  0  0  0  0  0
   -2.0565    0.9649    5.1327 H   0  0  0  0  0  0  0  0  0  0  0  0
   -0.7281   -0.2137    5.0125 H   0  0  0  0  0  0  0  0  0  0  0  0
  5  6  2  0  0  0  0
  5  7  1  0  0  0  0
  2  3  1  0  0  0  0
  2  4  1  0  0  0  0
  2  5  1  0  0  0  0
  1  2  1  0  0  0  0
 27 28  2  0  0  0  0
 27 29  1  0  0  0  0
 23 24  1  0  0  0  0
 23 25  1  0  0  0  0
 23 26  1  0  0  0  0
 20 21  1  0  0  0  0
 20 22  1  0  0  0  0
 20 23  1  0  0  0  0
 17 18  1  0  0  0  0
 17 19  1  0  0  0  0
 17 20  1  0  0  0  0
 14 15  1  0  0  0  0
 14 16  1  0  0  0  0
 14 17  1  0  0  0  0
 11 12  1  0  0  0  0
 11 13  1  0  0  0  0
 11 14  1  0  0  0  0
  9 10  1  0  0  0  0
  9 11  1  0  0  0  0
  9 27  1  0  0  0  0
  7  8  1  0  0  0  0
  7  9  1  0  0  0  0
 31 32  1  0  0  0  0
 31 33  1  0  0  0  0
 31 34  1  0  0  0  0
 29 30  1  0  0  0  0
 29 31  1  0  0  0  0
M  CHG  1  23   1
M  END
$$$$
default_name
  -OEChem-02102213163D

 34 33  0     1  0  0  0  0  0999 V2000
   -3.8899   -3.6747    1.6490 H   0  0  0  0  0  0  0  0  0  0  0  0
   -3.9109   -2.6717    1.2250 C   0  0  0  0  0  0  0  0  0  0  0  0
   -4.6009   -2.0517    1.7950 H   0  0  0  0  0  0  0  0  0  0  0  0
   -4.2309   -2.7237    0.1860 H   0  0  0  0  0  0  0  0  0  0  0  0
   -2.5229   -2.0787    1.2980 C   0  0  0  0  0  0  0  0  0  0  0  0
   -1.5999   -2.7227    1.7810 O   0  0  0  0  0  0  0  0  0  0  0  0
   -2.3659   -0.8447    0.8120 N   0  0  0  0  0  0  0  0  0  0  0  0
   -3.1749   -0.3807    0.4220 H   0  0  0  0  0  0  0  0  0  0  0  0
   -1.0919   -0.1077    0.8170 C   0  0  1  0  0  0  0  0  0  0  0  0
   -0.3571   -0.6901    0.2581 H   0  0  0  0  0  0  0  0  0  0  0  0
   -1.3037    1.2411    0.1040 C   0  0  0  0  0  0  0  0  0  0  0  0
   -0.6383    1.2860   -0.7596 H   0  0  0  0  0  0  0  0  0  0  0  0
   -2.3328    1.2988   -0.2562 H   0  0  0  0  0  0  0  0  0  0  0  0
   -1.0130    2.4538    1.0013 C   0  0  0  0  0  0  0  0  0  0  0  0
   -0.0606    2.9023    0.7156 H   0  0  0  0  0  0  0  0  0  0  0  0
   -1.8069    3.1925    0.8756 H   0  0  0  0  0  0  0  0  0  0  0  0
   -0.9462    2.0254    2.4738 C   0  0  0  0  0  0  0  0  0  0  0  0
   -1.8961    1.5631    2.7526 H   0  0  0  0  0  0  0  0  0  0  0  0
   -0.1449    1.2938    2.5958 H   0  0  0  0  0  0  0  0  0  0  0  0
   -0.6806    3.2392    3.3732 C   0  0  0  0  0  0  0  0  0  0  0  0
    0.2701    3.6919    3.0732 H   0  0  0  0  0  0  0  0  0  0  0  0
   -1.4710    3.9766    3.2043 H   0  0  0  0  0  0  0  0  0  0  0  0
   -0.6347    2.8565    4.8070 N   0  3  0  0  0  0  0  0  0  0  0  0
    0.1019    2.1819    4.9715 H   0  0  0  0  0  0  0  0  0  0  0  0
   -0.4592    3.6678    5.3865 H   0  0  0  0  0  0  0  0  0  0  0  0
   -1.5157    2.4448    5.0920 H   0  0  0  0  0  0  0  0  0  0  0  0
   -0.5865    0.0771    2.2496 C   0  0  0  0  0  0  0  0  0  0  0  0
    0.5860   -0.1608    2.5143 O   0  0  0  0  0  0  0  0  0  0  0  0
   -1.4786    0.4656    3.1667 N   0  0  0  0  0  0  0  0  0  0  0  0
   -2.4139    0.6698    2.8558 H   0  0  0  0  0  0  0  0  0  0  0  0
   -1.1587    0.6908    4.5775 C   0  0  0  0  0  0  0  0  0  0  0  0
   -0.4270    1.4968    4.6656 H   0  0  0  0  0  0  0  0  0  0  0  0
   -2.0565    0.9649    5.1327 H   0  0  0  0  0  0  0  0  0  0  0  0
   -0.7281   -0.2137    5.0125 H   0  0  0  0  0  0  0  0  0  0  0  0
  5  6  2  0  0  0  0
  5  7  1  0  0  0  0
  2  3  1  0  0  0  0
  2  4  1  0  0  0  0
  2  5  1  0  0  0  0
  1  2  1  0  0  0  0
 27 28  2  0  0  0  0
 27 29  1  0  0  0  0
 23 24  1  0  0  0  0
 23 25  1  0  0  0  0
 23 26  1  0  0  0  0
 20 21  1  0  0  0  0
 20 22  1  0  0  0  0
 20 23  1  0  0  0  0
 17 18  1  0  0  0  0
 17 19  1  0  0  0  0
 17 20  1  0  0  0  0
 14 15  1  0  0  0  0
 14 16  1  0  0  0  0
 14 17  1  0  0  0  0
 11 12  1  0  0  0  0
 11 13  1  0  0  0  0
 11 14  1  0  0  0  0
  9 10  1  0  0  0  0
  9 11  1  0  0  0  0
  9 27  1  0  0  0  0
  7  8  1  0  0  0  0
  7  9  1  0  0  0  0
 31 32  1  0  0  0  0
 31 33  1  0  0  0  0
 31 34  1  0  0  0  0
 29 30  1  0  0  0  0
 29 31  1  0  0  0  0
M  CHG  1  23   1
M  END
$$$$
default_name
  -OEChem-02102213163D

 34 33  0     1  0  0  0  0  0999 V2000
   -3.8899   -3.6747    1.6490 H   0  0  0  0  0  0  0  0  0  0  0  0
   -3.9109   -2.6717    1.2250 C   0  0  0  0  0  0  0  0  0  0  0  0
   -4.6009   -2.0517    1.7950 H   0  0  0  0  0  0  0  0  0  0  0  0
   -4.2309   -2.7237    0.1860 H   0  0  0  0  0  0  0  0  0  0  0  0
   -2.5229   -2.0787    1.2980 C   0  0  0  0  0  0  0  0  0  0  0  0
   -1.5999   -2.7227    1.7810 O   0  0  0  0  0  0  0  0  0  0  0  0
   -2.3659   -0.8447    0.8120 N   0  0  0  0  0  0  0  0  0  0  0  0
   -3.1749   -0.3807    0.4220 H   0  0  0  0  0  0  0  0  0  0  0  0
   -1.0919   -0.1077    0.8170 C   0  0  1  0  0  0  0  0  0  0  0  0
   -0.3571   -0.6901    0.2581 H   0  0  0  0  0  0  0  0  0  0  0  0
   -1.3037    1.2411    0.1040 C   0  0  0  0  0  0  0  0  0  0  0  0
   -0.6383    1.2860   -0.7596 H   0  0  0  0  0  0  0  0  0  0  0  0
   -2.3328    1.2988   -0.2562 H   0  0  0  0  0  0  0  0  0  0  0  0
   -1.0130    2.4538    1.0013 C   0  0  0  0  0  0  0  0  0  0  0  0
   -0.2168    3.0548    0.5600 H   0  0  0  0  0  0  0  0  0  0  0  0
   -1.9149    3.0632    1.0854 H   0  0  0  0  0  0  0  0  0  0  0  0
   -0.5794    1.9924    2.3996 C   0  0  0  0  0  0  0  0  0  0  0  0
   -1.3726    1.3783    2.8328 H   0  0  0  0  0  0  0  0  0  0  0  0
    0.3277    1.3913    2.3109 H   0  0  0  0  0  0  0  0  0  0  0  0
   -0.3127    3.2021    3.3041 C   0  0  0  0  0  0  0  0  0  0  0  0
    0.4782    3.8076    2.8495 H   0  0  0  0  0  0  0  0  0  0  0  0
   -1.2201    3.8122    3.3452 H   0  0  0  0  0  0  0  0  0  0  0  0
    0.0858    2.7838    4.6718 N   0  3  0  0  0  0  0  0  0  0  0  0
    0.9311    2.2275    4.6412 H   0  0  0  0  0  0  0  0  0  0  0  0
    0.2577    3.5928    5.2556 H   0  0  0  0  0  0  0  0  0  0  0  0
   -0.6468    2.2302    5.1004 H   0  0  0  0  0  0  0  0  0  0  0  0
   -0.5865    0.0771    2.2496 C   0  0  0  0  0  0  0  0  0  0  0  0
    0.5860   -0.1608    2.5143 O   0  0  0  0  0  0  0  0  0  0  0  0
   -1.4786    0.4656    3.1667 N   0  0  0  0  0  0  0  0  0  0  0  0
   -2.4139    0.6698    2.8558 H   0  0  0  0  0  0  0  0  0  0  0  0
   -1.1587    0.6908    4.5775 C   0  0  0  0  0  0  0  0  0  0  0  0
   -0.4270    1.4968    4.6656 H   0  0  0  0  0  0  0  0  0  0  0  0
   -2.0565    0.9649    5.1327 H   0  0  0  0  0  0  0  0  0  0  0  0
   -0.7281   -0.2137    5.0125 H   0  0  0  0  0  0  0  0  0  0  0  0
  5  6  2  0  0  0  0
  5  7  1  0  0  0  0
  2  3  1  0  0  0  0
  2  4  1  0  0  0  0
  2  5  1  0  0  0  0
  1  2  1  0  0  0  0
 27 28  2  0  0  0  0
 27 29  1  0  0  0  0
 23 24  1  0  0  0  0
 23 25  1  0  0  0  0
 23 26  1  0  0  0  0
 20 21  1  0  0  0  0
 20 22  1  0  0  0  0
 20 23  1  0  0  0  0
 17 18  1  0  0  0  0
 17 19  1  0  0  0  0
 17 20  1  0  0  0  0
 14 15  1  0  0  0  0
 14 16  1  0  0  0  0
 14 17  1  0  0  0  0
 11 12  1  0  0  0  0
 11 13  1  0  0  0  0
 11 14  1  0  0  0  0
  9 10  1  0  0  0  0
  9 11  1  0  0  0  0
  9 27  1  0  0  0  0
  7  8  1  0  0  0  0
  7  9  1  0  0  0  0
 31 32  1  0  0  0  0
 31 33  1  0  0  0  0
 31 34  1  0  0  0  0
 29 30  1  0  0  0  0
 29 31  1  0  0  0  0
M  CHG  1  23   1
M  END
$$$$
default_name
  -OEChem-02102213163D

 34 33  0     1  0  0  0  0  0999 V2000
   -3.8899   -3.6747    1.6490 H   0  0  0  0  0  0  0  0  0  0  0  0
   -3.9109   -2.6717    1.2250 C   0  0  0  0  0  0  0  0  0  0  0  0
   -4.6009   -2.0517    1.7950 H   0  0  0  0  0  0  0  0  0  0  0  0
   -4.2309   -2.7237    0.1860 H   0  0  0  0  0  0  0  0  0  0  0  0
   -2.5229   -2.0787    1.2980 C   0  0  0  0  0  0  0  0  0  0  0  0
   -1.5999   -2.7227    1.7810 O   0  0  0  0  0  0  0  0  0  0  0  0
   -2.3659   -0.8447    0.8120 N   0  0  0  0  0  0  0  0  0  0  0  0
   -3.1749   -0.3807    0.4220 H   0  0  0  0  0  0  0  0  0  0  0  0
   -1.0919   -0.1077    0.8170 C   0  0  1  0  0  0  0  0  0  0  0  0
   -0.3571   -0.6901    0.2581 H   0  0  0  0  0  0  0  0  0  0  0  0
   -1.3037    1.2411    0.1040 C   0  0  0  0  0  0  0  0  0  0  0  0
   -0.6383    1.2860   -0.7596 H   0  0  0  0  0  0  0  0  0  0  0  0
   -2.3328    1.2988   -0.2562 H   0  0  0  0  0  0  0  0  0  0  0  0
   -1.0130    2.4538    1.0013 C   0  0  0  0  0  0  0  0  0  0  0  0
   -0.4226    3.1862    0.4492 H   0  0  0  0  0  0  0  0  0  0  0  0
   -1.9568    2.9116    1.3038 H   0  0  0  0  0  0  0  0  0  0  0  0
   -0.2353    2.0195    2.2514 C   0  0  0  0  0  0  0  0  0  0  0  0
   -0.8226    1.2750    2.7942 H   0  0  0  0  0  0  0  0  0  0  0  0
    0.7114    1.5709    1.9439 H   0  0  0  0  0  0  0  0  0  0  0  0
    0.0341    3.2253    3.1604 C   0  0  0  0  0  0  0  0  0  0  0  0
    0.6159    3.9617    2.5966 H   0  0  0  0  0  0  0  0  0  0  0  0
   -0.9241    3.6844    3.4220 H   0  0  0  0  0  0  0  0  0  0  0  0
    0.7652    2.8291    4.3904 N   0  3  0  0  0  0  0  0  0  0  0  0
    1.6576    2.4130    4.1550 H   0  0  0  0  0  0  0  0  0  0  0  0
    0.9347    3.6352    4.9790 H   0  0  0  0  0  0  0  0  0  0  0  0
    0.2267    2.1539    4.9205 H   0  0  0  0  0  0  0  0  0  0  0  0
   -0.5865    0.0771    2.2496 C   0  0  0  0  0  0  0  0  0  0  0  0
    0.5860   -0.1608    2.5143 O   0  0  0  0  0  0  0  0  0  0  0  0
   -1.4786    0.4656    3.1667 N   0  0  0  0  0  0  0  0  0  0  0  0
   -2.4139    0.6698    2.8558 H   0  0  0  0  0  0  0  0  0  0  0  0
   -1.1587    0.6908    4.5775 C   0  0  0  0  0  0  0  0  0  0  0  0
   -0.4270    1.4968    4.6656 H   0  0  0  0  0  0  0  0  0  0  0  0
   -2.0565    0.9649    5.1327 H   0  0  0  0  0  0  0  0  0  0  0  0
   -0.7281   -0.2137    5.0125 H   0  0  0  0  0  0  0  0  0  0  0  0
  5  6  2  0  0  0  0
  5  7  1  0  0  0  0
  2  3  1  0  0  0  0
  2  4  1  0  0  0  0
  2  5  1  0  0  0  0
  1  2  1  0  0  0  0
 27 28  2  0  0  0  0
 27 29  1  0  0  0  0
 23 24  1  0  0  0  0
 23 25  1  0  0  0  0
 23 26  1  0  0  0  0
 20 21  1  0  0  0  0
 20 22  1  0  0  0  0
 20 23  1  0  0  0  0
 17 18  1  0  0  0  0
 17 19  1  0  0  0  0
 17 20  1  0  0  0  0
 14 15  1  0  0  0  0
 14 16  1  0  0  0  0
 14 17  1  0  0  0  0
 11 12  1  0  0  0  0
 11 13  1  0  0  0  0
 11 14  1  0  0  0  0
  9 10  1  0  0  0  0
  9 11  1  0  0  0  0
  9 27  1  0  0  0  0
  7  8  1  0  0  0  0
  7  9  1  0  0  0  0
 31 32  1  0  0  0  0
 31 33  1  0  0  0  0
 31 34  1  0  0  0  0
 29 30  1  0  0  0  0
 29 31  1  0  0  0  0
M  CHG  1  23   1
M  END
$$$$
default_name
  -OEChem-02102213163D

 34 33  0     1  0  0  0  0  0999 V2000
   -3.8899   -3.6747    1.6490 H   0  0  0  0  0  0  0  0  0  0  0  0
   -3.9109   -2.6717    1.2250 C   0  0  0  0  0  0  0  0  0  0  0  0
   -4.6009   -2.0517    1.7950 H   0  0  0  0  0  0  0  0  0  0  0  0
   -4.2309   -2.7237    0.1860 H   0  0  0  0  0  0  0  0  0  0  0  0
   -2.5229   -2.0787    1.2980 C   0  0  0  0  0  0  0  0  0  0  0  0
   -1.5999   -2.7227    1.7810 O   0  0  0  0  0  0  0  0  0  0  0  0
   -2.3659   -0.8447    0.8120 N   0  0  0  0  0  0  0  0  0  0  0  0
   -3.1749   -0.3807    0.4220 H   0  0  0  0  0  0  0  0  0  0  0  0
   -1.0919   -0.1077    0.8170 C   0  0  1  0  0  0  0  0  0  0  0  0
   -0.3571   -0.6901    0.2581 H   0  0  0  0  0  0  0  0  0  0  0  0
   -1.3037    1.2411    0.1040 C   0  0  0  0  0  0  0  0  0  0  0  0
   -0.6383    1.2860   -0.7596 H   0  0  0  0  0  0  0  0  0  0  0  0
   -2.3328    1.2988   -0.2562 H   0  0  0  0  0  0  0  0  0  0  0  0
   -1.0130    2.4538    1.0013 C   0  0  0  0  0  0  0  0  0  0  0  0
   -0.6638    3.2874    0.3906 H   0  0  0  0  0  0  0  0  0  0  0  0
   -1.9297    2.7482    1.5159 H   0  0  0  0  0  0  0  0  0  0  0  0
    0.0626    2.1050    2.0393 C   0  0  0  0  0  0  0  0  0  0  0  0
   -0.2837    1.2602    2.6395 H   0  0  0  0  0  0  0  0  0  0  0  0
    0.9798    1.8203    1.5199 H   0  0  0  0  0  0  0  0  0  0  0  0
    0.3362    3.3071    2.9518 C   0  0  0  0  0  0  0  0  0  0  0  0
    0.6741    4.1438    2.3317 H   0  0  0  0  0  0  0  0  0  0  0  0
   -0.6031    3.6019    3.4294 H   0  0  0  0  0  0  0  0  0  0  0  0
    1.3571    2.9893    3.9820 N   0  3  0  0  0  0  0  0  0  0  0  0
    2.2320    2.7259    3.5461 H   0  0  0  0  0  0  0  0  0  0  0  0
    1.5257    3.7920    4.5755 H   0  0  0  0  0  0  0  0  0  0  0  0
    1.0452    2.2210    4.5645 H   0  0  0  0  0  0  0  0  0  0  0  0
   -0.5865    0.0771    2.2496 C   0  0  0  0  0  0  0  0  0  0  0  0
    0.5860   -0.1608    2.5143 O   0  0  0  0  0  0  0  0  0  0  0  0
   -1.4786    0.4656    3.1667 N   0  0  0  0  0  0  0  0  0  0  0  0
   -2.4139    0.6698    2.8558 H   0  0  0  0  0  0  0  0  0  0  0  0
   -1.1587    0.6908    4.5775 C   0  0  0  0  0  0  0  0  0  0  0  0
   -0.4270    1.4968    4.6656 H   0  0  0  0  0  0  0  0  0  0  0  0
   -2.0565    0.9649    5.1327 H   0  0  0  0  0  0  0  0  0  0  0  0
   -0.7281   -0.2137    5.0125 H   0  0  0  0  0  0  0  0  0  0  0  0
  5  6  2  0  0  0  0
  5  7  1  0  0  0  0
  2  3  1  0  0  0  0
  2  4  1  0  0  0  0
  2  5  1  0  0  0  0
  1  2  1  0  0  0  0
 27 28  2  0  0  0  0
 27 29  1  0  0  0  0
 23 24  1  0  0  0  0
 23 25  1  0  0  0  0
 23 26  1  0  0  0  0
 20 21  1  0  0  0  0
 20 22  1  0  0  0  0
 20 23  1  0  0  0  0
 17 18  1  0  0  0  0
 17 19  1  0  0  0  0
 17 20  1  0  0  0  0
 14 15  1  0  0  0  0
 14 16  1  0  0  0  0
 14 17  1  0  0  0  0
 11 12  1  0  0  0  0
 11 13  1  0  0  0  0
 11 14  1  0  0  0  0
  9 10  1  0  0  0  0
  9 11  1  0  0  0  0
  9 27  1  0  0  0  0
  7  8  1  0  0  0  0
  7  9  1  0  0  0  0
 31 32  1  0  0  0  0
 31 33  1  0  0  0  0
 31 34  1  0  0  0  0
 29 30  1  0  0  0  0
 29 31  1  0  0  0  0
M  CHG  1  23   1
M  END
$$$$
default_name
  -OEChem-02102213163D

 34 33  0     1  0  0  0  0  0999 V2000
   -3.8899   -3.6747    1.6490 H   0  0  0  0  0  0  0  0  0  0  0  0
   -3.9109   -2.6717    1.2250 C   0  0  0  0  0  0  0  0  0  0  0  0
   -4.6009   -2.0517    1.7950 H   0  0  0  0  0  0  0  0  0  0  0  0
   -4.2309   -2.7237    0.1860 H   0  0  0  0  0  0  0  0  0  0  0  0
   -2.5229   -2.0787    1.2980 C   0  0  0  0  0  0  0  0  0  0  0  0
   -1.5999   -2.7227    1.7810 O   0  0  0  0  0  0  0  0  0  0  0  0
   -2.3659   -0.8447    0.8120 N   0  0  0  0  0  0  0  0  0  0  0  0
   -3.1749   -0.3807    0.4220 H   0  0  0  0  0  0  0  0  0  0  0  0
   -1.0919   -0.1077    0.8170 C   0  0  1  0  0  0  0  0  0  0  0  0
   -0.3571   -0.6901    0.2581 H   0  0  0  0  0  0  0  0  0  0  0  0
   -1.3037    1.2411    0.1040 C   0  0  0  0  0  0  0  0  0  0  0  0
   -0.6383    1.2860   -0.7596 H   0  0  0  0  0  0  0  0  0  0  0  0
   -2.3328    1.2988   -0.2562 H   0  0  0  0  0  0  0  0  0  0  0  0
   -1.0130    2.4538    1.0013 C   0  0  0  0  0  0  0  0  0  0  0  0
   -0.9242    3.3516    0.3882 H   0  0  0  0  0  0  0  0  0  0  0  0
   -1.8356    2.5841    1.7072 H   0  0  0  0  0  0  0  0  0  0  0  0
    0.2942    2.2430    1.7778 C   0  0  0  0  0  0  0  0  0  0  0  0
    0.2076    1.3350    2.3793 H   0  0  0  0  0  0  0  0  0  0  0  0
    1.1147    2.1226    1.0676 H   0  0  0  0  0  0  0  0  0  0  0  0
    0.5730    3.4421    2.6927 C   0  0  0  0  0  0  0  0  0  0  0  0
    0.6486    4.3414    2.0729 H   0  0  0  0  0  0  0  0  0  0  0  0
   -0.2791    3.5704    3.3670 H   0  0  0  0  0  0  0  0  0  0  0  0
    1.8212    3.2536    3.4745 N   0  3  0  0  0  0  0  0  0  0  0  0
    2.6151    3.1448    2.8559 H   0  0  0  0  0  0  0  0  0  0  0  0
    1.9905    4.0526    4.0728 H   0  0  0  0  0  0  0  0  0  0  0  0
    1.7529    2.4271    4.0567 H   0  0  0  0  0  0  0  0  0  0  0  0
   -0.5865    0.0771    2.2496 C   0  0  0  0  0  0  0  0  0  0  0  0
    0.5860   -0.1608    2.5143 O   0  0  0  0  0  0  0  0  0  0  0  0
   -1.4786    0.4656    3.1667 N   0  0  0  0  0  0  0  0  0  0  0  0
   -2.4139    0.6698    2.8558 H   0  0  0  0  0  0  0  0  0  0  0  0
   -1.1587    0.6908    4.5775 C   0  0  0  0  0  0  0  0  0  0  0  0
   -0.4270    1.4968    4.6656 H   0  0  0  0  0  0  0  0  0  0  0  0
   -2.0565    0.9649    5.1327 H   0  0  0  0  0  0  0  0  0  0  0  0
   -0.7281   -0.2137    5.0125 H   0  0  0  0  0  0  0  0  0  0  0  0
  5  6  2  0  0  0  0
  5  7  1  0  0  0  0
  2  3  1  0  0  0  0
  2  4  1  0  0  0  0
  2  5  1  0  0  0  0
  1  2  1  0  0  0  0
 27 28  2  0  0  0  0
 27 29  1  0  0  0  0
 23 24  1  0  0  0  0
 23 25  1  0  0  0  0
 23 26  1  0  0  0  0
 20 21  1  0  0  0  0
 20 22  1  0  0  0  0
 20 23  1  0  0  0  0
 17 18  1  0  0  0  0
 17 19  1  0  0  0  0
 17 20  1  0  0  0  0
 14 15  1  0  0  0  0
 14 16  1  0  0  0  0
 14 17  1  0  0  0  0
 11 12  1  0  0  0  0
 11 13  1  0  0  0  0
 11 14  1  0  0  0  0
  9 10  1  0  0  0  0
  9 11  1  0  0  0  0
  9 27  1  0  0  0  0
  7  8  1  0  0  0  0
  7  9  1  0  0  0  0
 31 32  1  0  0  0  0
 31 33  1  0  0  0  0
 31 34  1  0  0  0  0
 29 30  1  0  0  0  0
 29 31  1  0  0  0  0
M  CHG  1  23   1
M  END
$$$$
default_name
  -OEChem-02102213163D

 34 33  0     1  0  0  0  0  0999 V2000
   -3.8899   -3.6747    1.6490 H   0  0  0  0  0  0  0  0  0  0  0  0
   -3.9109   -2.6717    1.2250 C   0  0  0  0  0  0  0  0  0  0  0  0
   -4.6009   -2.0517    1.7950 H   0  0  0  0  0  0  0  0  0  0  0  0
   -4.2309   -2.7237    0.1860 H   0  0  0  0  0  0  0  0  0  0  0  0
   -2.5229   -2.0787    1.2980 C   0  0  0  0  0  0  0  0  0  0  0  0
   -1.5999   -2.7227    1.7810 O   0  0  0  0  0  0  0  0  0  0  0  0
   -2.3659   -0.8447    0.8120 N   0  0  0  0  0  0  0  0  0  0  0  0
   -3.1749   -0.3807    0.4220 H   0  0  0  0  0  0  0  0  0  0  0  0
   -1.0919   -0.1077    0.8170 C   0  0  1  0  0  0  0  0  0  0  0  0
   -0.3571   -0.6901    0.2581 H   0  0  0  0  0  0  0  0  0  0  0  0
   -1.3037    1.2411    0.1040 C   0  0  0  0  0  0  0  0  0  0  0  0
   -0.6383    1.2860   -0.7596 H   0  0  0  0  0  0  0  0  0  0  0  0
   -2.3328    1.2988   -0.2562 H   0  0  0  0  0  0  0  0  0  0  0  0
   -1.0130    2.4538    1.0013 C   0  0  0  0  0  0  0  0  0  0  0  0
   -1.1858    3.3743    0.4423 H   0  0  0  0  0  0  0  0  0  0  0  0
   -1.6807    2.4304    1.8647 H   0  0  0  0  0  0  0  0  0  0  0  0
    0.4436    2.4242    1.4846 C   0  0  0  0  0  0  0  0  0  0  0  0
    0.6176    1.4942    2.0312 H   0  0  0  0  0  0  0  0  0  0  0  0
    1.1070    2.4571    0.6181 H   0  0  0  0  0  0  0  0  0  0  0  0
    0.7285    3.6209    2.4007 C   0  0  0  0  0  0  0  0  0  0  0  0
    0.5412    4.5411    1.8377 H   0  0  0  0  0  0  0  0  0  0  0  0
    0.0259    3.5920    3.2390 H   0  0  0  0  0  0  0  0  0  0  0  0
    2.1258    3.6039    2.9024 N   0  3  0  0  0  0  0  0  0  0  0  0
    2.7808    3.6411    2.1314 H   0  0  0  0  0  0  0  0  0  0  0  0
    2.2973    4.3991    3.5050 H   0  0  0  0  0  0  0  0  0  0  0  0
    2.3016    2.7579    3.4318 H   0  0  0  0  0  0  0  0  0  0  0  0
   -0.5865    0.0771    2.2496 C   0  0  0  0  0  0  0  0  0  0  0  0
    0.5860   -0.1608    2.5143 O   0  0  0  0  0  0  0  0  0  0  0  0
   -1.4786    0.4656    3.1667 N   0  0  0  0  0  0  0  0  0  0  0  0
   -2.4139    0.6698    2.8558 H   0  0  0  0  0  0  0  0  0  0  0  0
   -1.1587    0.6908    4.5775 C   0  0  0  0  0  0  0  0  0  0  0  0
   -0.4270    1.4968    4.6656 H   0  0  0  0  0  0  0  0  0  0  0  0
   -2.0565    0.9649    5.1327 H   0  0  0  0  0  0  0  0  0  0  0  0
   -0.7281   -0.2137    5.0125 H   0  0  0  0  0  0  0  0  0  0  0  0
  5  6  2  0  0  0  0
  5  7  1  0  0  0  0
  2  3  1  0  0  0  0
  2  4  1  0  0  0  0
  2  5  1  0  0  0  0
  1  2  1  0  0  0  0
 27 28  2  0  0  0  0
 27 29  1  0  0  0  0
 23 24  1  0  0  0  0
 23 25  1  0  0  0  0
 23 26  1  0  0  0  0
 20 21  1  0  0  0  0
 20 22  1  0  0  0  0
 20 23  1  0  0  0  0
 17 18  1  0  0  0  0
 17 19  1  0  0  0  0
 17 20  1  0  0  0  0
 14 15  1  0  0  0  0
 14 16  1  0  0  0  0
 14 17  1  0  0  0  0
 11 12  1  0  0  0  0
 11 13  1  0  0  0  0
 11 14  1  0  0  0  0
  9 10  1  0  0  0  0
  9 11  1  0  0  0  0
  9 27  1  0  0  0  0
  7  8  1  0  0  0  0
  7  9  1  0  0  0  0
 31 32  1  0  0  0  0
 31 33  1  0  0  0  0
 31 34  1  0  0  0  0
 29 30  1  0  0  0  0
 29 31  1  0  0  0  0
M  CHG  1  23   1
M  END
$$$$
default_name
  -OEChem-02102213163D

 34 33  0     1  0  0  0  0  0999 V2000
   -3.8899   -3.6747    1.6490 H   0  0  0  0  0  0  0  0  0  0  0  0
   -3.9109   -2.6717    1.2250 C   0  0  0  0  0  0  0  0  0  0  0  0
   -4.6009   -2.0517    1.7950 H   0  0  0  0  0  0  0  0  0  0  0  0
   -4.2309   -2.7237    0.1860 H   0  0  0  0  0  0  0  0  0  0  0  0
   -2.5229   -2.0787    1.2980 C   0  0  0  0  0  0  0  0  0  0  0  0
   -1.5999   -2.7227    1.7810 O   0  0  0  0  0  0  0  0  0  0  0  0
   -2.3659   -0.8447    0.8120 N   0  0  0  0  0  0  0  0  0  0  0  0
   -3.1749   -0.3807    0.4220 H   0  0  0  0  0  0  0  0  0  0  0  0
   -1.0919   -0.1077    0.8170 C   0  0  1  0  0  0  0  0  0  0  0  0
   -0.3571   -0.6901    0.2581 H   0  0  0  0  0  0  0  0  0  0  0  0
   -1.3037    1.2411    0.1040 C   0  0  0  0  0  0  0  0  0  0  0  0
   -0.6383    1.2860   -0.7596 H   0  0  0  0  0  0  0  0  0  0  0  0
   -2.3328    1.2988   -0.2562 H   0  0  0  0  0  0  0  0  0  0  0  0
   -1.0130    2.4538    1.0013 C   0  0  0  0  0  0  0  0  0  0  0  0
   -1.4309    3.3541    0.5490 H   0  0  0  0  0  0  0  0  0  0  0  0
   -1.4757    2.2976    1.9777 H   0  0  0  0  0  0  0  0  0  0  0  0
    0.5006    2.6361    1.1797 C   0  0  0  0  0  0  0  0  0  0  0  0
    0.9185    1.7271    1.6191 H   0  0  0  0  0  0  0  0  0  0  0  0
    0.9571    2.8011    0.2018 H   0  0  0  0  0  0  0  0  0  0  0  0
    0.7919    3.8315    2.0955 C   0  0  0  0  0  0  0  0  0  0  0  0
    0.3592    4.7293    1.6423 H   0  0  0  0  0  0  0  0  0  0  0  0
    0.2910    3.6653    3.0540 H   0  0  0  0  0  0  0  0  0  0  0  0
    2.2502    4.0163    2.3047 N   0  3  0  0  0  0  0  0  0  0  0  0
    2.7178    4.1811    1.4221 H   0  0  0  0  0  0  0  0  0  0  0  0
    2.4253    4.8081    2.9108 H   0  0  0  0  0  0  0  0  0  0  0  0
    2.6540    3.1911    2.7322 H   0  0  0  0  0  0  0  0  0  0  0  0
   -0.5865    0.0771    2.2496 C   0  0  0  0  0  0  0  0  0  0  0  0
    0.5860   -0.1608    2.5143 O   0  0  0  0  0  0  0  0  0  0  0  0
   -1.4786    0.4656    3.1667 N   0  0  0  0  0  0  0  0  0  0  0  0
   -2.4139    0.6698    2.8558 H   0  0  0  0  0  0  0  0  0  0  0  0
   -1.1587    0.6908    4.5775 C   0  0  0  0  0  0  0  0  0  0  0  0
   -0.4270    1.4968    4.6656 H   0  0  0  0  0  0  0  0  0  0  0  0
   -2.0565    0.9649    5.1327 H   0  0  0  0  0  0  0  0  0  0  0  0
   -0.7281   -0.2137    5.0125 H   0  0  0  0  0  0  0  0  0  0  0  0
  5  6  2  0  0  0  0
  5  7  1  0  0  0  0
  2  3  1  0  0  0  0
  2  4  1  0  0  0  0
  2  5  1  0  0  0  0
  1  2  1  0  0  0  0
 27 28  2  0  0  0  0
 27 29  1  0  0  0  0
 23 24  1  0  0  0  0
 23 25  1  0  0  0  0
 23 26  1  0  0  0  0
 20 21  1  0  0  0  0
 20 22  1  0  0  0  0
 20 23  1  0  0  0  0
 17 18  1  0  0  0  0
 17 19  1  0  0  0  0
 17 20  1  0  0  0  0
 14 15  1  0  0  0  0
 14 16  1  0  0  0  0
 14 17  1  0  0  0  0
 11 12  1  0  0  0  0
 11 13  1  0  0  0  0
 11 14  1  0  0  0  0
  9 10  1  0  0  0  0
  9 11  1  0  0  0  0
  9 27  1  0  0  0  0
  7  8  1  0  0  0  0
  7  9  1  0  0  0  0
 31 32  1  0  0  0  0
 31 33  1  0  0  0  0
 31 34  1  0  0  0  0
 29 30  1  0  0  0  0
 29 31  1  0  0  0  0
M  CHG  1  23   1
M  END
$$$$
default_name
  -OEChem-02102213163D

 34 33  0     1  0  0  0  0  0999 V2000
   -3.8899   -3.6747    1.6490 H   0  0  0  0  0  0  0  0  0  0  0  0
   -3.9109   -2.6717    1.2250 C   0  0  0  0  0  0  0  0  0  0  0  0
   -4.6009   -2.0517    1.7950 H   0  0  0  0  0  0  0  0  0  0  0  0
   -4.2309   -2.7237    0.1860 H   0  0  0  0  0  0  0  0  0  0  0  0
   -2.5229   -2.0787    1.2980 C   0  0  0  0  0  0  0  0  0  0  0  0
   -1.5999   -2.7227    1.7810 O   0  0  0  0  0  0  0  0  0  0  0  0
   -2.3659   -0.8447    0.8120 N   0  0  0  0  0  0  0  0  0  0  0  0
   -3.1749   -0.3807    0.4220 H   0  0  0  0  0  0  0  0  0  0  0  0
   -1.0919   -0.1077    0.8170 C   0  0  1  0  0  0  0  0  0  0  0  0
   -0.3571   -0.6901    0.2581 H   0  0  0  0  0  0  0  0  0  0  0  0
   -1.3037    1.2411    0.1040 C   0  0  0  0  0  0  0  0  0  0  0  0
   -0.6383    1.2860   -0.7596 H   0  0  0  0  0  0  0  0  0  0  0  0
   -2.3328    1.2988   -0.2562 H   0  0  0  0  0  0  0  0  0  0  0  0
   -1.0130    2.4538    1.0013 C   0  0  0  0  0  0  0  0  0  0  0  0
   -1.6428    3.2923    0.7012 H   0  0  0  0  0  0  0  0  0  0  0  0
   -1.2345    2.1948    2.0385 H   0  0  0  0  0  0  0  0  0  0  0  0
    0.4614    2.8643    0.8840 C   0  0  0  0  0  0  0  0  0  0  0  0
    1.0897    2.0177    1.1709 H   0  0  0  0  0  0  0  0  0  0  0  0
    0.6753    3.1310   -0.1529 H   0  0  0  0  0  0  0  0  0  0  0  0
    0.7590    4.0594    1.7982 C   0  0  0  0  0  0  0  0  0  0  0  0
    0.1151    4.8932    1.5000 H   0  0  0  0  0  0  0  0  0  0  0  0
    0.4983    3.7852    2.8248 H   0  0  0  0  0  0  0  0  0  0  0  0
    2.1859    4.4628    1.7222 N   0  3  0  0  0  0  0  0  0  0  0  0
    2.4305    4.7278    0.7763 H   0  0  0  0  0  0  0  0  0  0  0  0
    2.3657    5.2516    2.3308 H   0  0  0  0  0  0  0  0  0  0  0  0
    2.7859    3.6970    2.0057 H   0  0  0  0  0  0  0  0  0  0  0  0
   -0.5865    0.0771    2.2496 C   0  0  0  0  0  0  0  0  0  0  0  0
    0.5860   -0.1608    2.5143 O   0  0  0  0  0  0  0  0  0  0  0  0
   -1.4786    0.4656    3.1667 N   0  0  0  0  0  0  0  0  0  0  0  0
   -2.4139    0.6698    2.8558 H   0  0  0  0  0  0  0  0  0  0  0  0
   -1.1587    0.6908    4.5775 C   0  0  0  0  0  0  0  0  0  0  0  0
   -0.4270    1.4968    4.6656 H   0  0  0  0  0  0  0  0  0  0  0  0
   -2.0565    0.9649    5.1327 H   0  0  0  0  0  0  0  0  0  0  0  0
   -0.7281   -0.2137    5.0125 H   0  0  0  0  0  0  0  0  0  0  0  0
  5  6  2  0  0  0  0
  5  7  1  0  0  0  0
  2  3  1  0  0  0  0
  2  4  1  0  0  0  0
  2  5  1  0  0  0  0
  1  2  1  0  0  0  0
 27 28  2  0  0  0  0
 27 29  1  0  0  0  0
 23 24  1  0  0  0  0
 23 25  1  0  0  0  0
 23 26  1  0  0  0  0
 20 21  1  0  0  0  0
 20 22  1  0  0  0  0
 20 23  1  0  0  0  0
 17 18  1  0  0  0  0
 17 19  1  0  0  0  0
 17 20  1  0  0  0  0
 14 15  1  0  0  0  0
 14 16  1  0  0  0  0
 14 17  1  0  0  0  0
 11 12  1  0  0  0  0
 11 13  1  0  0  0  0
 11 14  1  0  0  0  0
  9 10  1  0  0  0  0
  9 11  1  0  0  0  0
  9 27  1  0  0  0  0
  7  8  1  0  0  0  0
  7  9  1  0  0  0  0
 31 32  1  0  0  0  0
 31 33  1  0  0  0  0
 31 34  1  0  0  0  0
 29 30  1  0  0  0  0
 29 31  1  0  0  0  0
M  CHG  1  23   1
M  END
$$$$
default_name
  -OEChem-02102213163D

 34 33  0     1  0  0  0  0  0999 V2000
   -3.8899   -3.6747    1.6490 H   0  0  0  0  0  0  0  0  0  0  0  0
   -3.9109   -2.6717    1.2250 C   0  0  0  0  0  0  0  0  0  0  0  0
   -4.6009   -2.0517    1.7950 H   0  0  0  0  0  0  0  0  0  0  0  0
   -4.2309   -2.7237    0.1860 H   0  0  0  0  0  0  0  0  0  0  0  0
   -2.5229   -2.0787    1.2980 C   0  0  0  0  0  0  0  0  0  0  0  0
   -1.5999   -2.7227    1.7810 O   0  0  0  0  0  0  0  0  0  0  0  0
   -2.3659   -0.8447    0.8120 N   0  0  0  0  0  0  0  0  0  0  0  0
   -3.1749   -0.3807    0.4220 H   0  0  0  0  0  0  0  0  0  0  0  0
   -1.0919   -0.1077    0.8170 C   0  0  1  0  0  0  0  0  0  0  0  0
   -0.3571   -0.6901    0.2581 H   0  0  0  0  0  0  0  0  0  0  0  0
   -1.3037    1.2411    0.1040 C   0  0  0  0  0  0  0  0  0  0  0  0
   -0.6383    1.2860   -0.7596 H   0  0  0  0  0  0  0  0  0  0  0  0
   -2.3328    1.2988   -0.2562 H   0  0  0  0  0  0  0  0  0  0  0  0
   -1.0130    2.4538    1.0013 C   0  0  0  0  0  0  0  0  0  0  0  0
   -1.8070    3.1931    0.8885 H   0  0  0  0  0  0  0  0  0  0  0  0
   -0.9736    2.1290    2.0429 H   0  0  0  0  0  0  0  0  0  0  0  0
    0.3286    3.0933    0.6175 C   0  0  0  0  0  0  0  0  0  0  0  0
    1.1196    2.3462    0.7172 H   0  0  0  0  0  0  0  0  0  0  0  0
    0.2808    3.4246   -0.4217 H   0  0  0  0  0  0  0  0  0  0  0  0
    0.6321    4.2891    1.5288 C   0  0  0  0  0  0  0  0  0  0  0  0
   -0.1745    5.0215    1.4204 H   0  0  0  0  0  0  0  0  0  0  0  0
    0.6336    3.9435    2.5670 H   0  0  0  0  0  0  0  0  0  0  0  0
    1.9373    4.9128    1.1945 N   0  3  0  0  0  0  0  0  0  0  0  0
    1.9383    5.2442    0.2379 H   0  0  0  0  0  0  0  0  0  0  0  0
    2.1226    5.6993    1.8044 H   0  0  0  0  0  0  0  0  0  0  0  0
    2.6885    4.2412    1.3018 H   0  0  0  0  0  0  0  0  0  0  0  0
   -0.5865    0.0771    2.2496 C   0  0  0  0  0  0  0  0  0  0  0  0
    0.5860   -0.1608    2.5143 O   0  0  0  0  0  0  0  0  0  0  0  0
   -1.4786    0.4656    3.1667 N   0  0  0  0  0  0  0  0  0  0  0  0
   -2.4139    0.6698    2.8558 H   0  0  0  0  0  0  0  0  0  0  0  0
   -1.1587    0.6908    4.5775 C   0  0  0  0  0  0  0  0  0  0  0  0
   -0.4270    1.4968    4.6656 H   0  0  0  0  0  0  0  0  0  0  0  0
   -2.0565    0.9649    5.1327 H   0  0  0  0  0  0  0  0  0  0  0  0
   -0.7281   -0.2137    5.0125 H   0  0  0  0  0  0  0  0  0  0  0  0
  5  6  2  0  0  0  0
  5  7  1  0  0  0  0
  2  3  1  0  0  0  0
  2  4  1  0  0  0  0
  2  5  1  0  0  0  0
  1  2  1  0  0  0  0
 27 28  2  0  0  0  0
 27 29  1  0  0  0  0
 23 24  1  0  0  0  0
 23 25  1  0  0  0  0
 23 26  1  0  0  0  0
 20 21  1  0  0  0  0
 20 22  1  0  0  0  0
 20 23  1  0  0  0  0
 17 18  1  0  0  0  0
 17 19  1  0  0  0  0
 17 20  1  0  0  0  0
 14 15  1  0  0  0  0
 14 16  1  0  0  0  0
 14 17  1  0  0  0  0
 11 12  1  0  0  0  0
 11 13  1  0  0  0  0
 11 14  1  0  0  0  0
  9 10  1  0  0  0  0
  9 11  1  0  0  0  0
  9 27  1  0  0  0  0
  7  8  1  0  0  0  0
  7  9  1  0  0  0  0
 31 32  1  0  0  0  0
 31 33  1  0  0  0  0
 31 34  1  0  0  0  0
 29 30  1  0  0  0  0
 29 31  1  0  0  0  0
M  CHG  1  23   1
M  END
$$$$
default_name
  -OEChem-02102213163D

 34 33  0     1  0  0  0  0  0999 V2000
   -3.8899   -3.6747    1.6490 H   0  0  0  0  0  0  0  0  0  0  0  0
   -3.9109   -2.6717    1.2250 C   0  0  0  0  0  0  0  0  0  0  0  0
   -4.6009   -2.0517    1.7950 H   0  0  0  0  0  0  0  0  0  0  0  0
   -4.2309   -2.7237    0.1860 H   0  0  0  0  0  0  0  0  0  0  0  0
   -2.5229   -2.0787    1.2980 C   0  0  0  0  0  0  0  0  0  0  0  0
   -1.5999   -2.7227    1.7810 O   0  0  0  0  0  0  0  0  0  0  0  0
   -2.3659   -0.8447    0.8120 N   0  0  0  0  0  0  0  0  0  0  0  0
   -3.1749   -0.3807    0.4220 H   0  0  0  0  0  0  0  0  0  0  0  0
   -1.0919   -0.1077    0.8170 C   0  0  1  0  0  0  0  0  0  0  0  0
   -0.3571   -0.6901    0.2581 H   0  0  0  0  0  0  0  0  0  0  0  0
   -1.3037    1.2411    0.1040 C   0  0  0  0  0  0  0  0  0  0  0  0
   -0.6383    1.2860   -0.7596 H   0  0  0  0  0  0  0  0  0  0  0  0
   -2.3328    1.2988   -0.2562 H   0  0  0  0  0  0  0  0  0  0  0  0
   -1.0130    2.4538    1.0013 C   0  0  0  0  0  0  0  0  0  0  0  0
   -1.9124    3.0633    1.0981 H   0  0  0  0  0  0  0  0  0  0  0  0
   -0.7108    2.1047    1.9906 H   0  0  0  0  0  0  0  0  0  0  0  0
    0.1112    3.3075    0.3985 C   0  0  0  0  0  0  0  0  0  0  0  0
    1.0061    2.6902    0.2890 H   0  0  0  0  0  0  0  0  0  0  0  0
   -0.1996    3.6616   -0.5864 H   0  0  0  0  0  0  0  0  0  0  0  0
    0.4197    4.5051    1.3058 C   0  0  0  0  0  0  0  0  0  0  0  0
   -0.4900    5.1056    1.4090 H   0  0  0  0  0  0  0  0  0  0  0  0
    0.6876    4.1296    2.2980 H   0  0  0  0  0  0  0  0  0  0  0  0
    1.5214    5.3358    0.7576 N   0  3  0  0  0  0  0  0  0  0  0  0
    1.2749    5.6949   -0.1562 H   0  0  0  0  0  0  0  0  0  0  0  0
    1.7126    6.1209    1.3676 H   0  0  0  0  0  0  0  0  0  0  0  0
    2.3683    4.7866    0.6685 H   0  0  0  0  0  0  0  0  0  0  0  0
   -0.5865    0.0771    2.2496 C   0  0  0  0  0  0  0  0  0  0  0  0
    0.5860   -0.1608    2.5143 O   0  0  0  0  0  0  0  0  0  0  0  0
   -1.4786    0.4656    3.1667 N   0  0  0  0  0  0  0  0  0  0  0  0
   -2.4139    0.6698    2.8558 H   0  0  0  0  0  0  0  0  0  0  0  0
   -1.1587    0.6908    4.5775 C   0  0  0  0  0  0  0  0  0  0  0  0
   -0.4270    1.4968    4.6656 H   0  0  0  0  0  0  0  0  0  0  0  0
   -2.0565    0.9649    5.1327 H   0  0  0  0  0  0  0  0  0  0  0  0
   -0.7281   -0.2137    5.0125 H   0  0  0  0  0  0  0  0  0  0  0  0
  5  6  2  0  0  0  0
  5  7  1  0  0  0  0
  2  3  1  0  0  0  0
  2  4  1  0  0  0  0
  2  5  1  0  0  0  0
  1  2  1  0  0  0  0
 27 28  2  0  0  0  0
 27 29  1  0  0  0  0
 23 24  1  0  0  0  0
 23 25  1  0  0  0  0
 23 26  1  0  0  0  0
 20 21  1  0  0  0  0
 20 22  1  0  0  0  0
 20 23  1  0  0  0  0
 17 18  1  0  0  0  0
 17 19  1  0  0  0  0
 17 20  1  0  0  0  0
 14 15  1  0  0  0  0
 14 16  1  0  0  0  0
 14 17  1  0  0  0  0
 11 12  1  0  0  0  0
 11 13  1  0  0  0  0
 11 14  1  0  0  0  0
  9 10  1  0  0  0  0
  9 11  1  0  0  0  0
  9 27  1  0  0  0  0
  7  8  1  0  0  0  0
  7  9  1  0  0  0  0
 31 32  1  0  0  0  0
 31 33  1  0  0  0  0
 31 34  1  0  0  0  0
 29 30  1  0  0  0  0
 29 31  1  0  0  0  0
M  CHG  1  23   1
M  END
$$$$
default_name
  -OEChem-02102213163D

 34 33  0     1  0  0  0  0  0999 V2000
   -3.8899   -3.6747    1.6490 H   0  0  0  0  0  0  0  0  0  0  0  0
   -3.9109   -2.6717    1.2250 C   0  0  0  0  0  0  0  0  0  0  0  0
   -4.6009   -2.0517    1.7950 H   0  0  0  0  0  0  0  0  0  0  0  0
   -4.2309   -2.7237    0.1860 H   0  0  0  0  0  0  0  0  0  0  0  0
   -2.5229   -2.0787    1.2980 C   0  0  0  0  0  0  0  0  0  0  0  0
   -1.5999   -2.7227    1.7810 O   0  0  0  0  0  0  0  0  0  0  0  0
   -2.3659   -0.8447    0.8120 N   0  0  0  0  0  0  0  0  0  0  0  0
   -3.1749   -0.3807    0.4220 H   0  0  0  0  0  0  0  0  0  0  0  0
   -1.0919   -0.1077    0.8170 C   0  0  1  0  0  0  0  0  0  0  0  0
   -0.3571   -0.6901    0.2581 H   0  0  0  0  0  0  0  0  0  0  0  0
   -1.3037    1.2411    0.1040 C   0  0  0  0  0  0  0  0  0  0  0  0
   -0.6383    1.2860   -0.7596 H   0  0  0  0  0  0  0  0  0  0  0  0
   -2.3328    1.2988   -0.2562 H   0  0  0  0  0  0  0  0  0  0  0  0
   -1.0130    2.4538    1.0013 C   0  0  0  0  0  0  0  0  0  0  0  0
   -1.9518    2.9117    1.3157 H   0  0  0  0  0  0  0  0  0  0  0  0
   -0.4639    2.1234    1.8852 H   0  0  0  0  0  0  0  0  0  0  0  0
   -0.1758    3.4923    0.2418 C   0  0  0  0  0  0  0  0  0  0  0  0
    0.7571    3.0264   -0.0846 H   0  0  0  0  0  0  0  0  0  0  0  0
   -0.7331    3.8260   -0.6357 H   0  0  0  0  0  0  0  0  0  0  0  0
    0.1363    4.6924    1.1444 C   0  0  0  0  0  0  0  0  0  0  0  0
   -0.8097    5.1397    1.4665 H   0  0  0  0  0  0  0  0  0  0  0  0
    0.6567    4.3306    2.0363 H   0  0  0  0  0  0  0  0  0  0  0  0
    0.9664    5.7029    0.4414 N   0  3  0  0  0  0  0  0  0  0  0  0
    0.4855    6.0493   -0.3794 H   0  0  0  0  0  0  0  0  0  0  0  0
    1.1636    6.4875    1.0501 H   0  0  0  0  0  0  0  0  0  0  0  0
    1.8472    5.2961    0.1488 H   0  0  0  0  0  0  0  0  0  0  0  0
   -0.5865    0.0771    2.2496 C   0  0  0  0  0  0  0  0  0  0  0  0
    0.5860   -0.1608    2.5143 O   0  0  0  0  0  0  0  0  0  0  0  0
   -1.4786    0.4656    3.1667 N   0  0  0  0  0  0  0  0  0  0  0  0
   -2.4139    0.6698    2.8558 H   0  0  0  0  0  0  0  0  0  0  0  0
   -1.1587    0.6908    4.5775 C   0  0  0  0  0  0  0  0  0  0  0  0
   -0.4270    1.4968    4.6656 H   0  0  0  0  0  0  0  0  0  0  0  0
   -2.0565    0.9649    5.1327 H   0  0  0  0  0  0  0  0  0  0  0  0
   -0.7281   -0.2137    5.0125 H   0  0  0  0  0  0  0  0  0  0  0  0
  5  6  2  0  0  0  0
  5  7  1  0  0  0  0
  2  3  1  0  0  0  0
  2  4  1  0  0  0  0
  2  5  1  0  0  0  0
  1  2  1  0  0  0  0
 27 28  2  0  0  0  0
 27 29  1  0  0  0  0
 23 24  1  0  0  0  0
 23 25  1  0  0  0  0
 23 26  1  0  0  0  0
 20 21  1  0  0  0  0
 20 22  1  0  0  0  0
 20 23  1  0  0  0  0
 17 18  1  0  0  0  0
 17 19  1  0  0  0  0
 17 20  1  0  0  0  0
 14 15  1  0  0  0  0
 14 16  1  0  0  0  0
 14 17  1  0  0  0  0
 11 12  1  0  0  0  0
 11 13  1  0  0  0  0
 11 14  1  0  0  0  0
  9 10  1  0  0  0  0
  9 11  1  0  0  0  0
  9 27  1  0  0  0  0
  7  8  1  0  0  0  0
  7  9  1  0  0  0  0
 31 32  1  0  0  0  0
 31 33  1  0  0  0  0
 31 34  1  0  0  0  0
 29 30  1  0  0  0  0
 29 31  1  0  0  0  0
M  CHG  1  23   1
M  END
$$$$
default_name
  -OEChem-02102213163D

 34 33  0     1  0  0  0  0  0999 V2000
   -3.8899   -3.6747    1.6490 H   0  0  0  0  0  0  0  0  0  0  0  0
   -3.9109   -2.6717    1.2250 C   0  0  0  0  0  0  0  0  0  0  0  0
   -4.6009   -2.0517    1.7950 H   0  0  0  0  0  0  0  0  0  0  0  0
   -4.2309   -2.7237    0.1860 H   0  0  0  0  0  0  0  0  0  0  0  0
   -2.5229   -2.0787    1.2980 C   0  0  0  0  0  0  0  0  0  0  0  0
   -1.5999   -2.7227    1.7810 O   0  0  0  0  0  0  0  0  0  0  0  0
   -2.3659   -0.8447    0.8120 N   0  0  0  0  0  0  0  0  0  0  0  0
   -3.1749   -0.3807    0.4220 H   0  0  0  0  0  0  0  0  0  0  0  0
   -1.0919   -0.1077    0.8170 C   0  0  1  0  0  0  0  0  0  0  0  0
   -0.3571   -0.6901    0.2581 H   0  0  0  0  0  0  0  0  0  0  0  0
   -1.3037    1.2411    0.1040 C   0  0  0  0  0  0  0  0  0  0  0  0
   -0.6383    1.2860   -0.7596 H   0  0  0  0  0  0  0  0  0  0  0  0
   -2.3328    1.2988   -0.2562 H   0  0  0  0  0  0  0  0  0  0  0  0
   -1.0130    2.4538    1.0013 C   0  0  0  0  0  0  0  0  0  0  0  0
   -1.9224    2.7486    1.5266 H   0  0  0  0  0  0  0  0  0  0  0  0
   -0.2497    2.1841    1.7339 H   0  0  0  0  0  0  0  0  0  0  0  0
   -0.5130    3.6350    0.1582 C   0  0  0  0  0  0  0  0  0  0  0  0
    0.3893    3.3318   -0.3781 H   0  0  0  0  0  0  0  0  0  0  0  0
   -1.2834    3.9066   -0.5663 H   0  0  0  0  0  0  0  0  0  0  0  0
   -0.1987    4.8385    1.0556 C   0  0  0  0  0  0  0  0  0  0  0  0
   -1.1120    5.1215    1.5891 H   0  0  0  0  0  0  0  0  0  0  0  0
    0.5431    4.5330    1.7997 H   0  0  0  0  0  0  0  0  0  0  0  0
    0.3102    5.9891    0.2672 N   0  3  0  0  0  0  0  0  0  0  0  0
   -0.3762    6.2832   -0.4162 H   0  0  0  0  0  0  0  0  0  0  0  0
    0.5130    6.7742    0.8735 H   0  0  0  0  0  0  0  0  0  0  0  0
    1.1606    5.7349   -0.2217 H   0  0  0  0  0  0  0  0  0  0  0  0
   -0.5865    0.0771    2.2496 C   0  0  0  0  0  0  0  0  0  0  0  0
    0.5860   -0.1608    2.5143 O   0  0  0  0  0  0  0  0  0  0  0  0
   -1.4786    0.4656    3.1667 N   0  0  0  0  0  0  0  0  0  0  0  0
   -2.4139    0.6698    2.8558 H   0  0  0  0  0  0  0  0  0  0  0  0
   -1.1587    0.6908    4.5775 C   0  0  0  0  0  0  0  0  0  0  0  0
   -0.4270    1.4968    4.6656 H   0  0  0  0  0  0  0  0  0  0  0  0
   -2.0565    0.9649    5.1327 H   0  0  0  0  0  0  0  0  0  0  0  0
   -0.7281   -0.2137    5.0125 H   0  0  0  0  0  0  0  0  0  0  0  0
  5  6  2  0  0  0  0
  5  7  1  0  0  0  0
  2  3  1  0  0  0  0
  2  4  1  0  0  0  0
  2  5  1  0  0  0  0
  1  2  1  0  0  0  0
 27 28  2  0  0  0  0
 27 29  1  0  0  0  0
 23 24  1  0  0  0  0
 23 25  1  0  0  0  0
 23 26  1  0  0  0  0
 20 21  1  0  0  0  0
 20 22  1  0  0  0  0
 20 23  1  0  0  0  0
 17 18  1  0  0  0  0
 17 19  1  0  0  0  0
 17 20  1  0  0  0  0
 14 15  1  0  0  0  0
 14 16  1  0  0  0  0
 14 17  1  0  0  0  0
 11 12  1  0  0  0  0
 11 13  1  0  0  0  0
 11 14  1  0  0  0  0
  9 10  1  0  0  0  0
  9 11  1  0  0  0  0
  9 27  1  0  0  0  0
  7  8  1  0  0  0  0
  7  9  1  0  0  0  0
 31 32  1  0  0  0  0
 31 33  1  0  0  0  0
 31 34  1  0  0  0  0
 29 30  1  0  0  0  0
 29 31  1  0  0  0  0
M  CHG  1  23   1
M  END
$$$$
default_name
  -OEChem-02102213163D

 34 33  0     1  0  0  0  0  0999 V2000
   -3.8899   -3.6747    1.6490 H   0  0  0  0  0  0  0  0  0  0  0  0
   -3.9109   -2.6717    1.2250 C   0  0  0  0  0  0  0  0  0  0  0  0
   -4.6009   -2.0517    1.7950 H   0  0  0  0  0  0  0  0  0  0  0  0
   -4.2309   -2.7237    0.1860 H   0  0  0  0  0  0  0  0  0  0  0  0
   -2.5229   -2.0787    1.2980 C   0  0  0  0  0  0  0  0  0  0  0  0
   -1.5999   -2.7227    1.7810 O   0  0  0  0  0  0  0  0  0  0  0  0
   -2.3659   -0.8447    0.8120 N   0  0  0  0  0  0  0  0  0  0  0  0
   -3.1749   -0.3807    0.4220 H   0  0  0  0  0  0  0  0  0  0  0  0
   -1.0919   -0.1077    0.8170 C   0  0  1  0  0  0  0  0  0  0  0  0
   -0.3571   -0.6901    0.2581 H   0  0  0  0  0  0  0  0  0  0  0  0
   -1.3037    1.2411    0.1040 C   0  0  0  0  0  0  0  0  0  0  0  0
   -0.6383    1.2860   -0.7596 H   0  0  0  0  0  0  0  0  0  0  0  0
   -2.3328    1.2988   -0.2562 H   0  0  0  0  0  0  0  0  0  0  0  0
   -1.0130    2.4538    1.0013 C   0  0  0  0  0  0  0  0  0  0  0  0
   -1.8263    2.5853    1.7162 H   0  0  0  0  0  0  0  0  0  0  0  0
   -0.0830    2.2824    1.5470 H   0  0  0  0  0  0  0  0  0  0  0  0
   -0.8774    3.7260    0.1533 C   0  0  0  0  0  0  0  0  0  0  0  0
   -0.0720    3.5855   -0.5716 H   0  0  0  0  0  0  0  0  0  0  0  0
   -1.8129    3.8979   -0.3829 H   0  0  0  0  0  0  0  0  0  0  0  0
   -0.5625    4.9333    1.0454 C   0  0  0  0  0  0  0  0  0  0  0  0
   -1.3761    5.0522    1.7683 H   0  0  0  0  0  0  0  0  0  0  0  0
    0.3543    4.7229    1.6042 H   0  0  0  0  0  0  0  0  0  0  0  0
   -0.4024    6.1749    0.2471 N   0  3  0  0  0  0  0  0  0  0  0  0
   -1.2515    6.3807   -0.2643 H   0  0  0  0  0  0  0  0  0  0  0  0
   -0.1949    6.9614    0.8498 H   0  0  0  0  0  0  0  0  0  0  0  0
    0.3555    6.0731   -0.4179 H   0  0  0  0  0  0  0  0  0  0  0  0
   -0.5865    0.0771    2.2496 C   0  0  0  0  0  0  0  0  0  0  0  0
    0.5860   -0.1608    2.5143 O   0  0  0  0  0  0  0  0  0  0  0  0
   -1.4786    0.4656    3.1667 N   0  0  0  0  0  0  0  0  0  0  0  0
   -2.4139    0.6698    2.8558 H   0  0  0  0  0  0  0  0  0  0  0  0
   -1.1587    0.6908    4.5775 C   0  0  0  0  0  0  0  0  0  0  0  0
   -0.4270    1.4968    4.6656 H   0  0  0  0  0  0  0  0  0  0  0  0
   -2.0565    0.9649    5.1327 H   0  0  0  0  0  0  0  0  0  0  0  0
   -0.7281   -0.2137    5.0125 H   0  0  0  0  0  0  0  0  0  0  0  0
  5  6  2  0  0  0  0
  5  7  1  0  0  0  0
  2  3  1  0  0  0  0
  2  4  1  0  0  0  0
  2  5  1  0  0  0  0
  1  2  1  0  0  0  0
 27 28  2  0  0  0  0
 27 29  1  0  0  0  0
 23 24  1  0  0  0  0
 23 25  1  0  0  0  0
 23 26  1  0  0  0  0
 20 21  1  0  0  0  0
 20 22  1  0  0  0  0
 20 23  1  0  0  0  0
 17 18  1  0  0  0  0
 17 19  1  0  0  0  0
 17 20  1  0  0  0  0
 14 15  1  0  0  0  0
 14 16  1  0  0  0  0
 14 17  1  0  0  0  0
 11 12  1  0  0  0  0
 11 13  1  0  0  0  0
 11 14  1  0  0  0  0
  9 10  1  0  0  0  0
  9 11  1  0  0  0  0
  9 27  1  0  0  0  0
  7  8  1  0  0  0  0
  7  9  1  0  0  0  0
 31 32  1  0  0  0  0
 31 33  1  0  0  0  0
 31 34  1  0  0  0  0
 29 30  1  0  0  0  0
 29 31  1  0  0  0  0
M  CHG  1  23   1
M  END
$$$$
default_name
  -OEChem-02102213163D

 34 33  0     1  0  0  0  0  0999 V2000
   -3.8899   -3.6747    1.6490 H   0  0  0  0  0  0  0  0  0  0  0  0
   -3.9109   -2.6717    1.2250 C   0  0  0  0  0  0  0  0  0  0  0  0
   -4.6009   -2.0517    1.7950 H   0  0  0  0  0  0  0  0  0  0  0  0
   -4.2309   -2.7237    0.1860 H   0  0  0  0  0  0  0  0  0  0  0  0
   -2.5229   -2.0787    1.2980 C   0  0  0  0  0  0  0  0  0  0  0  0
   -1.5999   -2.7227    1.7810 O   0  0  0  0  0  0  0  0  0  0  0  0
   -2.3659   -0.8447    0.8120 N   0  0  0  0  0  0  0  0  0  0  0  0
   -3.1749   -0.3807    0.4220 H   0  0  0  0  0  0  0  0  0  0  0  0
   -1.0919   -0.1077    0.8170 C   0  0  1  0  0  0  0  0  0  0  0  0
   -0.3571   -0.6901    0.2581 H   0  0  0  0  0  0  0  0  0  0  0  0
   -1.3037    1.2411    0.1040 C   0  0  0  0  0  0  0  0  0  0  0  0
   -0.8529    1.1844   -0.8880 H   0  0  0  0  0  0  0  0  0  0  0  0
   -2.3741    1.4180   -0.0184 H   0  0  0  0  0  0  0  0  0  0  0  0
   -0.6771    2.4276    0.8521 C   0  0  0  0  0  0  0  0  0  0  0  0
   -1.1155    2.5071    1.8478 H   0  0  0  0  0  0  0  0  0  0  0  0
    0.3982    2.2647    0.9480 H   0  0  0  0  0  0  0  0  0  0  0  0
   -0.9266    3.7344    0.0864 C   0  0  0  0  0  0  0  0  0  0  0  0
   -0.4995    3.6460   -0.9154 H   0  0  0  0  0  0  0  0  0  0  0  0
   -2.0028    3.8973    0.0014 H   0  0  0  0  0  0  0  0  0  0  0  0
   -0.2801    4.9165    0.8194 C   0  0  0  0  0  0  0  0  0  0  0  0
   -0.7152    4.9831    1.8219 H   0  0  0  0  0  0  0  0  0  0  0  0
    0.7893    4.7136    0.9309 H   0  0  0  0  0  0  0  0  0  0  0  0
   -0.4861    6.1915    0.0869 N   0  3  0  0  0  0  0  0  0  0  0  0
   -1.4740    6.3900   -0.0103 H   0  0  0  0  0  0  0  0  0  0  0  0
   -0.0537    6.9608    0.5830 H   0  0  0  0  0  0  0  0  0  0  0  0
   -0.0773    6.1381   -0.8388 H   0  0  0  0  0  0  0  0  0  0  0  0
   -0.5865    0.0771    2.2496 C   0  0  0  0  0  0  0  0  0  0  0  0
    0.5860   -0.1608    2.5143 O   0  0  0  0  0  0  0  0  0  0  0  0
   -1.4786    0.4656    3.1667 N   0  0  0  0  0  0  0  0  0  0  0  0
   -2.4139    0.6698    2.8558 H   0  0  0  0  0  0  0  0  0  0  0  0
   -1.1587    0.6908    4.5775 C   0  0  0  0  0  0  0  0  0  0  0  0
   -0.4270    1.4968    4.6656 H   0  0  0  0  0  0  0  0  0  0  0  0
   -2.0565    0.9649    5.1327 H   0  0  0  0  0  0  0  0  0  0  0  0
   -0.7281   -0.2137    5.0125 H   0  0  0  0  0  0  0  0  0  0  0  0
  5  6  2  0  0  0  0
  5  7  1  0  0  0  0
  2  3  1  0  0  0  0
  2  4  1  0  0  0  0
  2  5  1  0  0  0  0
  1  2  1  0  0  0  0
 27 28  2  0  0  0  0
 27 29  1  0  0  0  0
 23 24  1  0  0  0  0
 23 25  1  0  0  0  0
 23 26  1  0  0  0  0
 20 21  1  0  0  0  0
 20 22  1  0  0  0  0
 20 23  1  0  0  0  0
 17 18  1  0  0  0  0
 17 19  1  0  0  0  0
 17 20  1  0  0  0  0
 14 15  1  0  0  0  0
 14 16  1  0  0  0  0
 14 17  1  0  0  0  0
 11 12  1  0  0  0  0
 11 13  1  0  0  0  0
 11 14  1  0  0  0  0
  9 10  1  0  0  0  0
  9 11  1  0  0  0  0
  9 27  1  0  0  0  0
  7  8  1  0  0  0  0
  7  9  1  0  0  0  0
 31 32  1  0  0  0  0
 31 33  1  0  0  0  0
 31 34  1  0  0  0  0
 29 30  1  0  0  0  0
 29 31  1  0  0  0  0
M  CHG  1  23   1
M  END
$$$$
default_name
  -OEChem-02102213163D

 34 33  0     1  0  0  0  0  0999 V2000
   -3.8899   -3.6747    1.6490 H   0  0  0  0  0  0  0  0  0  0  0  0
   -3.9109   -2.6717    1.2250 C   0  0  0  0  0  0  0  0  0  0  0  0
   -4.6009   -2.0517    1.7950 H   0  0  0  0  0  0  0  0  0  0  0  0
   -4.2309   -2.7237    0.1860 H   0  0  0  0  0  0  0  0  0  0  0  0
   -2.5229   -2.0787    1.2980 C   0  0  0  0  0  0  0  0  0  0  0  0
   -1.5999   -2.7227    1.7810 O   0  0  0  0  0  0  0  0  0  0  0  0
   -2.3659   -0.8447    0.8120 N   0  0  0  0  0  0  0  0  0  0  0  0
   -3.1749   -0.3807    0.4220 H   0  0  0  0  0  0  0  0  0  0  0  0
   -1.0919   -0.1077    0.8170 C   0  0  1  0  0  0  0  0  0  0  0  0
   -0.3571   -0.6901    0.2581 H   0  0  0  0  0  0  0  0  0  0  0  0
   -1.3037    1.2411    0.1040 C   0  0  0  0  0  0  0  0  0  0  0  0
   -0.8529    1.1844   -0.8880 H   0  0  0  0  0  0  0  0  0  0  0  0
   -2.3741    1.4180   -0.0184 H   0  0  0  0  0  0  0  0  0  0  0  0
   -0.6771    2.4276    0.8521 C   0  0  0  0  0  0  0  0  0  0  0  0
   -0.9064    2.3537    1.9160 H   0  0  0  0  0  0  0  0  0  0  0  0
    0.4063    2.4051    0.7186 H   0  0  0  0  0  0  0  0  0  0  0  0
   -1.2284    3.7533    0.3092 C   0  0  0  0  0  0  0  0  0  0  0  0
   -1.0103    3.8175   -0.7595 H   0  0  0  0  0  0  0  0  0  0  0  0
   -2.3104    3.7747    0.4535 H   0  0  0  0  0  0  0  0  0  0  0  0
   -0.5851    4.9396    1.0382 C   0  0  0  0  0  0  0  0  0  0  0  0
   -0.8083    4.8528    2.1066 H   0  0  0  0  0  0  0  0  0  0  0  0
    0.5003    4.8754    0.9163 H   0  0  0  0  0  0  0  0  0  0  0  0
   -1.0836    6.2368    0.5155 N   0  3  0  0  0  0  0  0  0  0  0  0
   -2.0864    6.3066    0.6351 H   0  0  0  0  0  0  0  0  0  0  0  0
   -0.6496    7.0087    1.0063 H   0  0  0  0  0  0  0  0  0  0  0  0
   -0.8716    6.3259   -0.4714 H   0  0  0  0  0  0  0  0  0  0  0  0
   -0.5865    0.0771    2.2496 C   0  0  0  0  0  0  0  0  0  0  0  0
    0.5860   -0.1608    2.5143 O   0  0  0  0  0  0  0  0  0  0  0  0
   -1.4786    0.4656    3.1667 N   0  0  0  0  0  0  0  0  0  0  0  0
   -2.4139    0.6698    2.8558 H   0  0  0  0  0  0  0  0  0  0  0  0
   -1.1587    0.6908    4.5775 C   0  0  0  0  0  0  0  0  0  0  0  0
   -0.4270    1.4968    4.6656 H   0  0  0  0  0  0  0  0  0  0  0  0
   -2.0565    0.9649    5.1327 H   0  0  0  0  0  0  0  0  0  0  0  0
   -0.7281   -0.2137    5.0125 H   0  0  0  0  0  0  0  0  0  0  0  0
  5  6  2  0  0  0  0
  5  7  1  0  0  0  0
  2  3  1  0  0  0  0
  2  4  1  0  0  0  0
  2  5  1  0  0  0  0
  1  2  1  0  0  0  0
 27 28  2  0  0  0  0
 27 29  1  0  0  0  0
 23 24  1  0  0  0  0
 23 25  1  0  0  0  0
 23 26  1  0  0  0  0
 20 21  1  0  0  0  0
 20 22  1  0  0  0  0
 20 23  1  0  0  0  0
 17 18  1  0  0  0  0
 17 19  1  0  0  0  0
 17 20  1  0  0  0  0
 14 15  1  0  0  0  0
 14 16  1  0  0  0  0
 14 17  1  0  0  0  0
 11 12  1  0  0  0  0
 11 13  1  0  0  0  0
 11 14  1  0  0  0  0
  9 10  1  0  0  0  0
  9 11  1  0  0  0  0
  9 27  1  0  0  0  0
  7  8  1  0  0  0  0
  7  9  1  0  0  0  0
 31 32  1  0  0  0  0
 31 33  1  0  0  0  0
 31 34  1  0  0  0  0
 29 30  1  0  0  0  0
 29 31  1  0  0  0  0
M  CHG  1  23   1
M  END
$$$$
default_name
  -OEChem-02102213163D

 34 33  0     1  0  0  0  0  0999 V2000
   -3.8899   -3.6747    1.6490 H   0  0  0  0  0  0  0  0  0  0  0  0
   -3.9109   -2.6717    1.2250 C   0  0  0  0  0  0  0  0  0  0  0  0
   -4.6009   -2.0517    1.7950 H   0  0  0  0  0  0  0  0  0  0  0  0
   -4.2309   -2.7237    0.1860 H   0  0  0  0  0  0  0  0  0  0  0  0
   -2.5229   -2.0787    1.2980 C   0  0  0  0  0  0  0  0  0  0  0  0
   -1.5999   -2.7227    1.7810 O   0  0  0  0  0  0  0  0  0  0  0  0
   -2.3659   -0.8447    0.8120 N   0  0  0  0  0  0  0  0  0  0  0  0
   -3.1749   -0.3807    0.4220 H   0  0  0  0  0  0  0  0  0  0  0  0
   -1.0919   -0.1077    0.8170 C   0  0  1  0  0  0  0  0  0  0  0  0
   -0.3571   -0.6901    0.2581 H   0  0  0  0  0  0  0  0  0  0  0  0
   -1.3037    1.2411    0.1040 C   0  0  0  0  0  0  0  0  0  0  0  0
   -0.8529    1.1844   -0.8880 H   0  0  0  0  0  0  0  0  0  0  0  0
   -2.3741    1.4180   -0.0184 H   0  0  0  0  0  0  0  0  0  0  0  0
   -0.6771    2.4276    0.8521 C   0  0  0  0  0  0  0  0  0  0  0  0
   -0.6715    2.2247    1.9239 H   0  0  0  0  0  0  0  0  0  0  0  0
    0.3505    2.5659    0.5102 H   0  0  0  0  0  0  0  0  0  0  0  0
   -1.4778    3.7100    0.5867 C   0  0  0  0  0  0  0  0  0  0  0  0
   -1.4941    3.9023   -0.4887 H   0  0  0  0  0  0  0  0  0  0  0  0
   -2.5017    3.5697    0.9388 H   0  0  0  0  0  0  0  0  0  0  0  0
   -0.8389    4.9004    1.3130 C   0  0  0  0  0  0  0  0  0  0  0  0
   -0.8250    4.6851    2.3864 H   0  0  0  0  0  0  0  0  0  0  0  0
    0.1979    4.9968    0.9771 H   0  0  0  0  0  0  0  0  0  0  0  0
   -1.5808    6.1601    1.0538 N   0  3  0  0  0  0  0  0  0  0  0  0
   -2.5385    6.0806    1.3722 H   0  0  0  0  0  0  0  0  0  0  0  0
   -1.1467    6.9352    1.5393 H   0  0  0  0  0  0  0  0  0  0  0  0
   -1.5890    6.3685    0.0621 H   0  0  0  0  0  0  0  0  0  0  0  0
   -0.5865    0.0771    2.2496 C   0  0  0  0  0  0  0  0  0  0  0  0
    0.5860   -0.1608    2.5143 O   0  0  0  0  0  0  0  0  0  0  0  0
   -1.4786    0.4656    3.1667 N   0  0  0  0  0  0  0  0  0  0  0  0
   -2.4139    0.6698    2.8558 H   0  0  0  0  0  0  0  0  0  0  0  0
   -1.1587    0.6908    4.5775 C   0  0  0  0  0  0  0  0  0  0  0  0
   -0.4270    1.4968    4.6656 H   0  0  0  0  0  0  0  0  0  0  0  0
   -2.0565    0.9649    5.1327 H   0  0  0  0  0  0  0  0  0  0  0  0
   -0.7281   -0.2137    5.0125 H   0  0  0  0  0  0  0  0  0  0  0  0
  5  6  2  0  0  0  0
  5  7  1  0  0  0  0
  2  3  1  0  0  0  0
  2  4  1  0  0  0  0
  2  5  1  0  0  0  0
  1  2  1  0  0  0  0
 27 28  2  0  0  0  0
 27 29  1  0  0  0  0
 23 24  1  0  0  0  0
 23 25  1  0  0  0  0
 23 26  1  0  0  0  0
 20 21  1  0  0  0  0
 20 22  1  0  0  0  0
 20 23  1  0  0  0  0
 17 18  1  0  0  0  0
 17 19  1  0  0  0  0
 17 20  1  0  0  0  0
 14 15  1  0  0  0  0
 14 16  1  0  0  0  0
 14 17  1  0  0  0  0
 11 12  1  0  0  0  0
 11 13  1  0  0  0  0
 11 14  1  0  0  0  0
  9 10  1  0  0  0  0
  9 11  1  0  0  0  0
  9 27  1  0  0  0  0
  7  8  1  0  0  0  0
  7  9  1  0  0  0  0
 31 32  1  0  0  0  0
 31 33  1  0  0  0  0
 31 34  1  0  0  0  0
 29 30  1  0  0  0  0
 29 31  1  0  0  0  0
M  CHG  1  23   1
M  END
$$$$
default_name
  -OEChem-02102213163D

 34 33  0     1  0  0  0  0  0999 V2000
   -3.8899   -3.6747    1.6490 H   0  0  0  0  0  0  0  0  0  0  0  0
   -3.9109   -2.6717    1.2250 C   0  0  0  0  0  0  0  0  0  0  0  0
   -4.6009   -2.0517    1.7950 H   0  0  0  0  0  0  0  0  0  0  0  0
   -4.2309   -2.7237    0.1860 H   0  0  0  0  0  0  0  0  0  0  0  0
   -2.5229   -2.0787    1.2980 C   0  0  0  0  0  0  0  0  0  0  0  0
   -1.5999   -2.7227    1.7810 O   0  0  0  0  0  0  0  0  0  0  0  0
   -2.3659   -0.8447    0.8120 N   0  0  0  0  0  0  0  0  0  0  0  0
   -3.1749   -0.3807    0.4220 H   0  0  0  0  0  0  0  0  0  0  0  0
   -1.0919   -0.1077    0.8170 C   0  0  1  0  0  0  0  0  0  0  0  0
   -0.3571   -0.6901    0.2581 H   0  0  0  0  0  0  0  0  0  0  0  0
   -1.3037    1.2411    0.1040 C   0  0  0  0  0  0  0  0  0  0  0  0
   -0.8529    1.1844   -0.8880 H   0  0  0  0  0  0  0  0  0  0  0  0
   -2.3741    1.4180   -0.0184 H   0  0  0  0  0  0  0  0  0  0  0  0
   -0.6771    2.4276    0.8521 C   0  0  0  0  0  0  0  0  0  0  0  0
   -0.4268    2.1288    1.8709 H   0  0  0  0  0  0  0  0  0  0  0  0
    0.2347    2.7363    0.3370 H   0  0  0  0  0  0  0  0  0  0  0  0
   -1.6577    3.6075    0.9001 C   0  0  0  0  0  0  0  0  0  0  0  0
   -1.9180    3.8947   -0.1215 H   0  0  0  0  0  0  0  0  0  0  0  0
   -2.5637    3.2965    1.4241 H   0  0  0  0  0  0  0  0  0  0  0  0
   -1.0242    4.8015    1.6250 C   0  0  0  0  0  0  0  0  0  0  0  0
   -0.7640    4.4915    2.6424 H   0  0  0  0  0  0  0  0  0  0  0  0
   -0.0973    5.0696    1.1090 H   0  0  0  0  0  0  0  0  0  0  0  0
   -1.9438    5.9665    1.6649 N   0  3  0  0  0  0  0  0  0  0  0  0
   -2.7993    5.7276    2.1506 H   0  0  0  0  0  0  0  0  0  0  0  0
   -1.5111    6.7452    2.1458 H   0  0  0  0  0  0  0  0  0  0  0  0
   -2.1808    6.2629    0.7253 H   0  0  0  0  0  0  0  0  0  0  0  0
   -0.5865    0.0771    2.2496 C   0  0  0  0  0  0  0  0  0  0  0  0
    0.5860   -0.1608    2.5143 O   0  0  0  0  0  0  0  0  0  0  0  0
   -1.4786    0.4656    3.1667 N   0  0  0  0  0  0  0  0  0  0  0  0
   -2.4139    0.6698    2.8558 H   0  0  0  0  0  0  0  0  0  0  0  0
   -1.1587    0.6908    4.5775 C   0  0  0  0  0  0  0  0  0  0  0  0
   -0.4270    1.4968    4.6656 H   0  0  0  0  0  0  0  0  0  0  0  0
   -2.0565    0.9649    5.1327 H   0  0  0  0  0  0  0  0  0  0  0  0
   -0.7281   -0.2137    5.0125 H   0  0  0  0  0  0  0  0  0  0  0  0
  5  6  2  0  0  0  0
  5  7  1  0  0  0  0
  2  3  1  0  0  0  0
  2  4  1  0  0  0  0
  2  5  1  0  0  0  0
  1  2  1  0  0  0  0
 27 28  2  0  0  0  0
 27 29  1  0  0  0  0
 23 24  1  0  0  0  0
 23 25  1  0  0  0  0
 23 26  1  0  0  0  0
 20 21  1  0  0  0  0
 20 22  1  0  0  0  0
 20 23  1  0  0  0  0
 17 18  1  0  0  0  0
 17 19  1  0  0  0  0
 17 20  1  0  0  0  0
 14 15  1  0  0  0  0
 14 16  1  0  0  0  0
 14 17  1  0  0  0  0
 11 12  1  0  0  0  0
 11 13  1  0  0  0  0
 11 14  1  0  0  0  0
  9 10  1  0  0  0  0
  9 11  1  0  0  0  0
  9 27  1  0  0  0  0
  7  8  1  0  0  0  0
  7  9  1  0  0  0  0
 31 32  1  0  0  0  0
 31 33  1  0  0  0  0
 31 34  1  0  0  0  0
 29 30  1  0  0  0  0
 29 31  1  0  0  0  0
M  CHG  1  23   1
M  END
$$$$
default_name
  -OEChem-02102213163D

 34 33  0     1  0  0  0  0  0999 V2000
   -3.8899   -3.6747    1.6490 H   0  0  0  0  0  0  0  0  0  0  0  0
   -3.9109   -2.6717    1.2250 C   0  0  0  0  0  0  0  0  0  0  0  0
   -4.6009   -2.0517    1.7950 H   0  0  0  0  0  0  0  0  0  0  0  0
   -4.2309   -2.7237    0.1860 H   0  0  0  0  0  0  0  0  0  0  0  0
   -2.5229   -2.0787    1.2980 C   0  0  0  0  0  0  0  0  0  0  0  0
   -1.5999   -2.7227    1.7810 O   0  0  0  0  0  0  0  0  0  0  0  0
   -2.3659   -0.8447    0.8120 N   0  0  0  0  0  0  0  0  0  0  0  0
   -3.1749   -0.3807    0.4220 H   0  0  0  0  0  0  0  0  0  0  0  0
   -1.0919   -0.1077    0.8170 C   0  0  1  0  0  0  0  0  0  0  0  0
   -0.3571   -0.6901    0.2581 H   0  0  0  0  0  0  0  0  0  0  0  0
   -1.3037    1.2411    0.1040 C   0  0  0  0  0  0  0  0  0  0  0  0
   -0.8529    1.1844   -0.8880 H   0  0  0  0  0  0  0  0  0  0  0  0
   -2.3741    1.4180   -0.0184 H   0  0  0  0  0  0  0  0  0  0  0  0
   -0.6771    2.4276    0.8521 C   0  0  0  0  0  0  0  0  0  0  0  0
   -0.1889    2.0726    1.7607 H   0  0  0  0  0  0  0  0  0  0  0  0
    0.0667    2.9045    0.2108 H   0  0  0  0  0  0  0  0  0  0  0  0
   -1.7560    3.4527    1.2279 C   0  0  0  0  0  0  0  0  0  0  0  0
   -2.2531    3.7951    0.3172 H   0  0  0  0  0  0  0  0  0  0  0  0
   -2.4920    2.9734    1.8765 H   0  0  0  0  0  0  0  0  0  0  0  0
   -1.1283    4.6497    1.9530 C   0  0  0  0  0  0  0  0  0  0  0  0
   -0.6295    4.2852    2.8570 H   0  0  0  0  0  0  0  0  0  0  0  0
   -0.3653    5.0887    1.3031 H   0  0  0  0  0  0  0  0  0  0  0  0
   -2.1478    5.6692    2.3074 N   0  3  0  0  0  0  0  0  0  0  0  0
   -2.8511    5.2715    2.9174 H   0  0  0  0  0  0  0  0  0  0  0  0
   -1.7178    6.4518    2.7844 H   0  0  0  0  0  0  0  0  0  0  0  0
   -2.6064    6.0162    1.4731 H   0  0  0  0  0  0  0  0  0  0  0  0
   -0.5865    0.0771    2.2496 C   0  0  0  0  0  0  0  0  0  0  0  0
    0.5860   -0.1608    2.5143 O   0  0  0  0  0  0  0  0  0  0  0  0
   -1.4786    0.4656    3.1667 N   0  0  0  0  0  0  0  0  0  0  0  0
   -2.4139    0.6698    2.8558 H   0  0  0  0  0  0  0  0  0  0  0  0
   -1.1587    0.6908    4.5775 C   0  0  0  0  0  0  0  0  0  0  0  0
   -0.4270    1.4968    4.6656 H   0  0  0  0  0  0  0  0  0  0  0  0
   -2.0565    0.9649    5.1327 H   0  0  0  0  0  0  0  0  0  0  0  0
   -0.7281   -0.2137    5.0125 H   0  0  0  0  0  0  0  0  0  0  0  0
  5  6  2  0  0  0  0
  5  7  1  0  0  0  0
  2  3  1  0  0  0  0
  2  4  1  0  0  0  0
  2  5  1  0  0  0  0
  1  2  1  0  0  0  0
 27 28  2  0  0  0  0
 27 29  1  0  0  0  0
 23 24  1  0  0  0  0
 23 25  1  0  0  0  0
 23 26  1  0  0  0  0
 20 21  1  0  0  0  0
 20 22  1  0  0  0  0
 20 23  1  0  0  0  0
 17 18  1  0  0  0  0
 17 19  1  0  0  0  0
 17 20  1  0  0  0  0
 14 15  1  0  0  0  0
 14 16  1  0  0  0  0
 14 17  1  0  0  0  0
 11 12  1  0  0  0  0
 11 13  1  0  0  0  0
 11 14  1  0  0  0  0
  9 10  1  0  0  0  0
  9 11  1  0  0  0  0
  9 27  1  0  0  0  0
  7  8  1  0  0  0  0
  7  9  1  0  0  0  0
 31 32  1  0  0  0  0
 31 33  1  0  0  0  0
 31 34  1  0  0  0  0
 29 30  1  0  0  0  0
 29 31  1  0  0  0  0
M  CHG  1  23   1
M  END
$$$$
default_name
  -OEChem-02102213163D

 34 33  0     1  0  0  0  0  0999 V2000
   -3.8899   -3.6747    1.6490 H   0  0  0  0  0  0  0  0  0  0  0  0
   -3.9109   -2.6717    1.2250 C   0  0  0  0  0  0  0  0  0  0  0  0
   -4.6009   -2.0517    1.7950 H   0  0  0  0  0  0  0  0  0  0  0  0
   -4.2309   -2.7237    0.1860 H   0  0  0  0  0  0  0  0  0  0  0  0
   -2.5229   -2.0787    1.2980 C   0  0  0  0  0  0  0  0  0  0  0  0
   -1.5999   -2.7227    1.7810 O   0  0  0  0  0  0  0  0  0  0  0  0
   -2.3659   -0.8447    0.8120 N   0  0  0  0  0  0  0  0  0  0  0  0
   -3.1749   -0.3807    0.4220 H   0  0  0  0  0  0  0  0  0  0  0  0
   -1.0919   -0.1077    0.8170 C   0  0  1  0  0  0  0  0  0  0  0  0
   -0.3571   -0.6901    0.2581 H   0  0  0  0  0  0  0  0  0  0  0  0
   -1.3037    1.2411    0.1040 C   0  0  0  0  0  0  0  0  0  0  0  0
   -0.8529    1.1844   -0.8880 H   0  0  0  0  0  0  0  0  0  0  0  0
   -2.3741    1.4180   -0.0184 H   0  0  0  0  0  0  0  0  0  0  0  0
   -0.6771    2.4276    0.8521 C   0  0  0  0  0  0  0  0  0  0  0  0
    0.0260    2.0600    1.6008 H   0  0  0  0  0  0  0  0  0  0  0  0
   -0.1419    3.0592    0.1403 H   0  0  0  0  0  0  0  0  0  0  0  0
   -1.7659    3.2562    1.5479 C   0  0  0  0  0  0  0  0  0  0  0  0
   -2.4766    3.6104    0.7973 H   0  0  0  0  0  0  0  0  0  0  0  0
   -2.2917    2.6227    2.2650 H   0  0  0  0  0  0  0  0  0  0  0  0
   -1.1441    4.4553    2.2746 C   0  0  0  0  0  0  0  0  0  0  0  0
   -0.4307    4.0802    3.0156 H   0  0  0  0  0  0  0  0  0  0  0  0
   -0.5878    5.0529    1.5462 H   0  0  0  0  0  0  0  0  0  0  0  0
   -2.1791    5.2885    2.9374 N   0  3  0  0  0  0  0  0  0  0  0  0
   -2.6905    4.7435    3.6202 H   0  0  0  0  0  0  0  0  0  0  0  0
   -1.7529    6.0749    3.4116 H   0  0  0  0  0  0  0  0  0  0  0  0
   -2.8371    5.6454    2.2544 H   0  0  0  0  0  0  0  0  0  0  0  0
   -0.5865    0.0771    2.2496 C   0  0  0  0  0  0  0  0  0  0  0  0
    0.5860   -0.1608    2.5143 O   0  0  0  0  0  0  0  0  0  0  0  0
   -1.4786    0.4656    3.1667 N   0  0  0  0  0  0  0  0  0  0  0  0
   -2.4139    0.6698    2.8558 H   0  0  0  0  0  0  0  0  0  0  0  0
   -1.1587    0.6908    4.5775 C   0  0  0  0  0  0  0  0  0  0  0  0
   -0.4270    1.4968    4.6656 H   0  0  0  0  0  0  0  0  0  0  0  0
   -2.0565    0.9649    5.1327 H   0  0  0  0  0  0  0  0  0  0  0  0
   -0.7281   -0.2137    5.0125 H   0  0  0  0  0  0  0  0  0  0  0  0
  5  6  2  0  0  0  0
  5  7  1  0  0  0  0
  2  3  1  0  0  0  0
  2  4  1  0  0  0  0
  2  5  1  0  0  0  0
  1  2  1  0  0  0  0
 27 28  2  0  0  0  0
 27 29  1  0  0  0  0
 23 24  1  0  0  0  0
 23 25  1  0  0  0  0
 23 26  1  0  0  0  0
 20 21  1  0  0  0  0
 20 22  1  0  0  0  0
 20 23  1  0  0  0  0
 17 18  1  0  0  0  0
 17 19  1  0  0  0  0
 17 20  1  0  0  0  0
 14 15  1  0  0  0  0
 14 16  1  0  0  0  0
 14 17  1  0  0  0  0
 11 12  1  0  0  0  0
 11 13  1  0  0  0  0
 11 14  1  0  0  0  0
  9 10  1  0  0  0  0
  9 11  1  0  0  0  0
  9 27  1  0  0  0  0
  7  8  1  0  0  0  0
  7  9  1  0  0  0  0
 31 32  1  0  0  0  0
 31 33  1  0  0  0  0
 31 34  1  0  0  0  0
 29 30  1  0  0  0  0
 29 31  1  0  0  0  0
M  CHG  1  23   1
M  END
$$$$
default_name
  -OEChem-02102213163D

 34 33  0     1  0  0  0  0  0999 V2000
   -3.8899   -3.6747    1.6490 H   0  0  0  0  0  0  0  0  0  0  0  0
   -3.9109   -2.6717    1.2250 C   0  0  0  0  0  0  0  0  0  0  0  0
   -4.6009   -2.0517    1.7950 H   0  0  0  0  0  0  0  0  0  0  0  0
   -4.2309   -2.7237    0.1860 H   0  0  0  0  0  0  0  0  0  0  0  0
   -2.5229   -2.0787    1.2980 C   0  0  0  0  0  0  0  0  0  0  0  0
   -1.5999   -2.7227    1.7810 O   0  0  0  0  0  0  0  0  0  0  0  0
   -2.3659   -0.8447    0.8120 N   0  0  0  0  0  0  0  0  0  0  0  0
   -3.1749   -0.3807    0.4220 H   0  0  0  0  0  0  0  0  0  0  0  0
   -1.0919   -0.1077    0.8170 C   0  0  1  0  0  0  0  0  0  0  0  0
   -0.3571   -0.6901    0.2581 H   0  0  0  0  0  0  0  0  0  0  0  0
   -1.3037    1.2411    0.1040 C   0  0  0  0  0  0  0  0  0  0  0  0
   -0.8529    1.1844   -0.8880 H   0  0  0  0  0  0  0  0  0  0  0  0
   -2.3741    1.4180   -0.0184 H   0  0  0  0  0  0  0  0  0  0  0  0
   -0.6771    2.4276    0.8521 C   0  0  0  0  0  0  0  0  0  0  0  0
    0.2031    2.0918    1.4020 H   0  0  0  0  0  0  0  0  0  0  0  0
   -0.3770    3.1897    0.1302 H   0  0  0  0  0  0  0  0  0  0  0  0
   -1.6867    3.0313    1.8381 C   0  0  0  0  0  0  0  0  0  0  0  0
   -2.5732    3.3531    1.2863 H   0  0  0  0  0  0  0  0  0  0  0  0
   -1.9763    2.2681    2.5632 H   0  0  0  0  0  0  0  0  0  0  0  0
   -1.0707    4.2316    2.5679 C   0  0  0  0  0  0  0  0  0  0  0  0
   -0.1811    3.8905    3.1074 H   0  0  0  0  0  0  0  0  0  0  0  0
   -0.7495    4.9646    1.8217 H   0  0  0  0  0  0  0  0  0  0  0  0
   -2.0353    4.8503    3.5119 N   0  3  0  0  0  0  0  0  0  0  0  0
   -2.3282    4.1795    4.2113 H   0  0  0  0  0  0  0  0  0  0  0  0
   -1.6139    5.6402    3.9846 H   0  0  0  0  0  0  0  0  0  0  0  0
   -2.8569    5.1757    3.0161 H   0  0  0  0  0  0  0  0  0  0  0  0
   -0.5865    0.0771    2.2496 C   0  0  0  0  0  0  0  0  0  0  0  0
    0.5860   -0.1608    2.5143 O   0  0  0  0  0  0  0  0  0  0  0  0
   -1.4786    0.4656    3.1667 N   0  0  0  0  0  0  0  0  0  0  0  0
   -2.4139    0.6698    2.8558 H   0  0  0  0  0  0  0  0  0  0  0  0
   -1.1587    0.6908    4.5775 C   0  0  0  0  0  0  0  0  0  0  0  0
   -0.4270    1.4968    4.6656 H   0  0  0  0  0  0  0  0  0  0  0  0
   -2.0565    0.9649    5.1327 H   0  0  0  0  0  0  0  0  0  0  0  0
   -0.7281   -0.2137    5.0125 H   0  0  0  0  0  0  0  0  0  0  0  0
  5  6  2  0  0  0  0
  5  7  1  0  0  0  0
  2  3  1  0  0  0  0
  2  4  1  0  0  0  0
  2  5  1  0  0  0  0
  1  2  1  0  0  0  0
 27 28  2  0  0  0  0
 27 29  1  0  0  0  0
 23 24  1  0  0  0  0
 23 25  1  0  0  0  0
 23 26  1  0  0  0  0
 20 21  1  0  0  0  0
 20 22  1  0  0  0  0
 20 23  1  0  0  0  0
 17 18  1  0  0  0  0
 17 19  1  0  0  0  0
 17 20  1  0  0  0  0
 14 15  1  0  0  0  0
 14 16  1  0  0  0  0
 14 17  1  0  0  0  0
 11 12  1  0  0  0  0
 11 13  1  0  0  0  0
 11 14  1  0  0  0  0
  9 10  1  0  0  0  0
  9 11  1  0  0  0  0
  9 27  1  0  0  0  0
  7  8  1  0  0  0  0
  7  9  1  0  0  0  0
 31 32  1  0  0  0  0
 31 33  1  0  0  0  0
 31 34  1  0  0  0  0
 29 30  1  0  0  0  0
 29 31  1  0  0  0  0
M  CHG  1  23   1
M  END
$$$$
default_name
  -OEChem-02102213163D

 34 33  0     1  0  0  0  0  0999 V2000
   -3.8899   -3.6747    1.6490 H   0  0  0  0  0  0  0  0  0  0  0  0
   -3.9109   -2.6717    1.2250 C   0  0  0  0  0  0  0  0  0  0  0  0
   -4.6009   -2.0517    1.7950 H   0  0  0  0  0  0  0  0  0  0  0  0
   -4.2309   -2.7237    0.1860 H   0  0  0  0  0  0  0  0  0  0  0  0
   -2.5229   -2.0787    1.2980 C   0  0  0  0  0  0  0  0  0  0  0  0
   -1.5999   -2.7227    1.7810 O   0  0  0  0  0  0  0  0  0  0  0  0
   -2.3659   -0.8447    0.8120 N   0  0  0  0  0  0  0  0  0  0  0  0
   -3.1749   -0.3807    0.4220 H   0  0  0  0  0  0  0  0  0  0  0  0
   -1.0919   -0.1077    0.8170 C   0  0  1  0  0  0  0  0  0  0  0  0
   -0.3571   -0.6901    0.2581 H   0  0  0  0  0  0  0  0  0  0  0  0
   -1.3037    1.2411    0.1040 C   0  0  0  0  0  0  0  0  0  0  0  0
   -0.8529    1.1844   -0.8880 H   0  0  0  0  0  0  0  0  0  0  0  0
   -2.3741    1.4180   -0.0184 H   0  0  0  0  0  0  0  0  0  0  0  0
   -0.6771    2.4276    0.8521 C   0  0  0  0  0  0  0  0  0  0  0  0
    0.3305    2.1658    1.1780 H   0  0  0  0  0  0  0  0  0  0  0  0
   -0.6226    3.2872    0.1813 H   0  0  0  0  0  0  0  0  0  0  0  0
   -1.5238    2.7935    2.0790 C   0  0  0  0  0  0  0  0  0  0  0  0
   -2.5363    3.0407    1.7508 H   0  0  0  0  0  0  0  0  0  0  0  0
   -1.5674    1.9339    2.7507 H   0  0  0  0  0  0  0  0  0  0  0  0
   -0.9129    3.9938    2.8129 C   0  0  0  0  0  0  0  0  0  0  0  0
    0.1022    3.7290    3.1262 H   0  0  0  0  0  0  0  0  0  0  0  0
   -0.8396    4.8299    2.1109 H   0  0  0  0  0  0  0  0  0  0  0  0
   -1.7264    4.3845    3.9919 N   0  3  0  0  0  0  0  0  0  0  0  0
   -1.7891    3.6180    4.6503 H   0  0  0  0  0  0  0  0  0  0  0  0
   -1.3103    5.1773    4.4645 H   0  0  0  0  0  0  0  0  0  0  0  0
   -2.6646    4.6391    3.7061 H   0  0  0  0  0  0  0  0  0  0  0  0
   -0.5865    0.0771    2.2496 C   0  0  0  0  0  0  0  0  0  0  0  0
    0.5860   -0.1608    2.5143 O   0  0  0  0  0  0  0  0  0  0  0  0
   -1.4786    0.4656    3.1667 N   0  0  0  0  0  0  0  0  0  0  0  0
   -2.4139    0.6698    2.8558 H   0  0  0  0  0  0  0  0  0  0  0  0
   -1.1587    0.6908    4.5775 C   0  0  0  0  0  0  0  0  0  0  0  0
   -0.4270    1.4968    4.6656 H   0  0  0  0  0  0  0  0  0  0  0  0
   -2.0565    0.9649    5.1327 H   0  0  0  0  0  0  0  0  0  0  0  0
   -0.7281   -0.2137    5.0125 H   0  0  0  0  0  0  0  0  0  0  0  0
  5  6  2  0  0  0  0
  5  7  1  0  0  0  0
  2  3  1  0  0  0  0
  2  4  1  0  0  0  0
  2  5  1  0  0  0  0
  1  2  1  0  0  0  0
 27 28  2  0  0  0  0
 27 29  1  0  0  0  0
 23 24  1  0  0  0  0
 23 25  1  0  0  0  0
 23 26  1  0  0  0  0
 20 21  1  0  0  0  0
 20 22  1  0  0  0  0
 20 23  1  0  0  0  0
 17 18  1  0  0  0  0
 17 19  1  0  0  0  0
 17 20  1  0  0  0  0
 14 15  1  0  0  0  0
 14 16  1  0  0  0  0
 14 17  1  0  0  0  0
 11 12  1  0  0  0  0
 11 13  1  0  0  0  0
 11 14  1  0  0  0  0
  9 10  1  0  0  0  0
  9 11  1  0  0  0  0
  9 27  1  0  0  0  0
  7  8  1  0  0  0  0
  7  9  1  0  0  0  0
 31 32  1  0  0  0  0
 31 33  1  0  0  0  0
 31 34  1  0  0  0  0
 29 30  1  0  0  0  0
 29 31  1  0  0  0  0
M  CHG  1  23   1
M  END
$$$$
default_name
  -OEChem-02102213163D

 34 33  0     1  0  0  0  0  0999 V2000
   -3.8899   -3.6747    1.6490 H   0  0  0  0  0  0  0  0  0  0  0  0
   -3.9109   -2.6717    1.2250 C   0  0  0  0  0  0  0  0  0  0  0  0
   -4.6009   -2.0517    1.7950 H   0  0  0  0  0  0  0  0  0  0  0  0
   -4.2309   -2.7237    0.1860 H   0  0  0  0  0  0  0  0  0  0  0  0
   -2.5229   -2.0787    1.2980 C   0  0  0  0  0  0  0  0  0  0  0  0
   -1.5999   -2.7227    1.7810 O   0  0  0  0  0  0  0  0  0  0  0  0
   -2.3659   -0.8447    0.8120 N   0  0  0  0  0  0  0  0  0  0  0  0
   -3.1749   -0.3807    0.4220 H   0  0  0  0  0  0  0  0  0  0  0  0
   -1.0919   -0.1077    0.8170 C   0  0  1  0  0  0  0  0  0  0  0  0
   -0.3571   -0.6901    0.2581 H   0  0  0  0  0  0  0  0  0  0  0  0
   -1.3037    1.2411    0.1040 C   0  0  0  0  0  0  0  0  0  0  0  0
   -0.8529    1.1844   -0.8880 H   0  0  0  0  0  0  0  0  0  0  0  0
   -2.3741    1.4180   -0.0184 H   0  0  0  0  0  0  0  0  0  0  0  0
   -0.6771    2.4276    0.8521 C   0  0  0  0  0  0  0  0  0  0  0  0
    0.3994    2.2769    0.9439 H   0  0  0  0  0  0  0  0  0  0  0  0
   -0.8619    3.3451    0.2900 H   0  0  0  0  0  0  0  0  0  0  0  0
   -1.2884    2.5589    2.2539 C   0  0  0  0  0  0  0  0  0  0  0  0
   -2.3684    2.6947    2.1591 H   0  0  0  0  0  0  0  0  0  0  0  0
   -1.0928    1.6428    2.8149 H   0  0  0  0  0  0  0  0  0  0  0  0
   -0.6816    3.7581    2.9929 C   0  0  0  0  0  0  0  0  0  0  0  0
    0.4000    3.6067    3.0706 H   0  0  0  0  0  0  0  0  0  0  0  0
   -0.8518    4.6579    2.3940 H   0  0  0  0  0  0  0  0  0  0  0  0
   -1.2733    3.9228    4.3446 N   0  3  0  0  0  0  0  0  0  0  0  0
   -1.1098    3.0972    4.9072 H   0  0  0  0  0  0  0  0  0  0  0  0
   -0.8628    4.7178    4.8184 H   0  0  0  0  0  0  0  0  0  0  0  0
   -2.2733    4.0721    4.2776 H   0  0  0  0  0  0  0  0  0  0  0  0
   -0.5865    0.0771    2.2496 C   0  0  0  0  0  0  0  0  0  0  0  0
    0.5860   -0.1608    2.5143 O   0  0  0  0  0  0  0  0  0  0  0  0
   -1.4786    0.4656    3.1667 N   0  0  0  0  0  0  0  0  0  0  0  0
   -2.4139    0.6698    2.8558 H   0  0  0  0  0  0  0  0  0  0  0  0
   -1.1587    0.6908    4.5775 C   0  0  0  0  0  0  0  0  0  0  0  0
   -0.4270    1.4968    4.6656 H   0  0  0  0  0  0  0  0  0  0  0  0
   -2.0565    0.9649    5.1327 H   0  0  0  0  0  0  0  0  0  0  0  0
   -0.7281   -0.2137    5.0125 H   0  0  0  0  0  0  0  0  0  0  0  0
  5  6  2  0  0  0  0
  5  7  1  0  0  0  0
  2  3  1  0  0  0  0
  2  4  1  0  0  0  0
  2  5  1  0  0  0  0
  1  2  1  0  0  0  0
 27 28  2  0  0  0  0
 27 29  1  0  0  0  0
 23 24  1  0  0  0  0
 23 25  1  0  0  0  0
 23 26  1  0  0  0  0
 20 21  1  0  0  0  0
 20 22  1  0  0  0  0
 20 23  1  0  0  0  0
 17 18  1  0  0  0  0
 17 19  1  0  0  0  0
 17 20  1  0  0  0  0
 14 15  1  0  0  0  0
 14 16  1  0  0  0  0
 14 17  1  0  0  0  0
 11 12  1  0  0  0  0
 11 13  1  0  0  0  0
 11 14  1  0  0  0  0
  9 10  1  0  0  0  0
  9 11  1  0  0  0  0
  9 27  1  0  0  0  0
  7  8  1  0  0  0  0
  7  9  1  0  0  0  0
 31 32  1  0  0  0  0
 31 33  1  0  0  0  0
 31 34  1  0  0  0  0
 29 30  1  0  0  0  0
 29 31  1  0  0  0  0
M  CHG  1  23   1
M  END
$$$$
default_name
  -OEChem-02102213163D

 34 33  0     1  0  0  0  0  0999 V2000
   -3.8899   -3.6747    1.6490 H   0  0  0  0  0  0  0  0  0  0  0  0
   -3.9109   -2.6717    1.2250 C   0  0  0  0  0  0  0  0  0  0  0  0
   -4.6009   -2.0517    1.7950 H   0  0  0  0  0  0  0  0  0  0  0  0
   -4.2309   -2.7237    0.1860 H   0  0  0  0  0  0  0  0  0  0  0  0
   -2.5229   -2.0787    1.2980 C   0  0  0  0  0  0  0  0  0  0  0  0
   -1.5999   -2.7227    1.7810 O   0  0  0  0  0  0  0  0  0  0  0  0
   -2.3659   -0.8447    0.8120 N   0  0  0  0  0  0  0  0  0  0  0  0
   -3.1749   -0.3807    0.4220 H   0  0  0  0  0  0  0  0  0  0  0  0
   -1.0919   -0.1077    0.8170 C   0  0  1  0  0  0  0  0  0  0  0  0
   -0.3571   -0.6901    0.2581 H   0  0  0  0  0  0  0  0  0  0  0  0
   -1.3037    1.2411    0.1040 C   0  0  0  0  0  0  0  0  0  0  0  0
   -0.8529    1.1844   -0.8880 H   0  0  0  0  0  0  0  0  0  0  0  0
   -2.3741    1.4180   -0.0184 H   0  0  0  0  0  0  0  0  0  0  0  0
   -0.6771    2.4276    0.8521 C   0  0  0  0  0  0  0  0  0  0  0  0
    0.4052    2.4177    0.7158 H   0  0  0  0  0  0  0  0  0  0  0  0
   -1.0786    3.3593    0.4489 H   0  0  0  0  0  0  0  0  0  0  0  0
   -0.9965    2.3434    2.3511 C   0  0  0  0  0  0  0  0  0  0  0  0
   -2.0811    2.3385    2.4834 H   0  0  0  0  0  0  0  0  0  0  0  0
   -0.5849    1.4147    2.7512 H   0  0  0  0  0  0  0  0  0  0  0  0
   -0.3924    3.5406    3.0956 C   0  0  0  0  0  0  0  0  0  0  0  0
    0.6919    3.5321    2.9445 H   0  0  0  0  0  0  0  0  0  0  0  0
   -0.7854    4.4603    2.6517 H   0  0  0  0  0  0  0  0  0  0  0  0
   -0.7070    3.4968    4.5460 N   0  3  0  0  0  0  0  0  0  0  0  0
   -0.3367    2.6527    4.9647 H   0  0  0  0  0  0  0  0  0  0  0  0
   -0.3019    4.2930    5.0223 H   0  0  0  0  0  0  0  0  0  0  0  0
   -1.7097    3.5134    4.6915 H   0  0  0  0  0  0  0  0  0  0  0  0
   -0.5865    0.0771    2.2496 C   0  0  0  0  0  0  0  0  0  0  0  0
    0.5860   -0.1608    2.5143 O   0  0  0  0  0  0  0  0  0  0  0  0
   -1.4786    0.4656    3.1667 N   0  0  0  0  0  0  0  0  0  0  0  0
   -2.4139    0.6698    2.8558 H   0  0  0  0  0  0  0  0  0  0  0  0
   -1.1587    0.6908    4.5775 C   0  0  0  0  0  0  0  0  0  0  0  0
   -0.4270    1.4968    4.6656 H   0  0  0  0  0  0  0  0  0  0  0  0
   -2.0565    0.9649    5.1327 H   0  0  0  0  0  0  0  0  0  0  0  0
   -0.7281   -0.2137    5.0125 H   0  0  0  0  0  0  0  0  0  0  0  0
  5  6  2  0  0  0  0
  5  7  1  0  0  0  0
  2  3  1  0  0  0  0
  2  4  1  0  0  0  0
  2  5  1  0  0  0  0
  1  2  1  0  0  0  0
 27 28  2  0  0  0  0
 27 29  1  0  0  0  0
 23 24  1  0  0  0  0
 23 25  1  0  0  0  0
 23 26  1  0  0  0  0
 20 21  1  0  0  0  0
 20 22  1  0  0  0  0
 20 23  1  0  0  0  0
 17 18  1  0  0  0  0
 17 19  1  0  0  0  0
 17 20  1  0  0  0  0
 14 15  1  0  0  0  0
 14 16  1  0  0  0  0
 14 17  1  0  0  0  0
 11 12  1  0  0  0  0
 11 13  1  0  0  0  0
 11 14  1  0  0  0  0
  9 10  1  0  0  0  0
  9 11  1  0  0  0  0
  9 27  1  0  0  0  0
  7  8  1  0  0  0  0
  7  9  1  0  0  0  0
 31 32  1  0  0  0  0
 31 33  1  0  0  0  0
 31 34  1  0  0  0  0
 29 30  1  0  0  0  0
 29 31  1  0  0  0  0
M  CHG  1  23   1
M  END
$$$$
default_name
  -OEChem-02102213163D

 34 33  0     1  0  0  0  0  0999 V2000
   -3.8899   -3.6747    1.6490 H   0  0  0  0  0  0  0  0  0  0  0  0
   -3.9109   -2.6717    1.2250 C   0  0  0  0  0  0  0  0  0  0  0  0
   -4.6009   -2.0517    1.7950 H   0  0  0  0  0  0  0  0  0  0  0  0
   -4.2309   -2.7237    0.1860 H   0  0  0  0  0  0  0  0  0  0  0  0
   -2.5229   -2.0787    1.2980 C   0  0  0  0  0  0  0  0  0  0  0  0
   -1.5999   -2.7227    1.7810 O   0  0  0  0  0  0  0  0  0  0  0  0
   -2.3659   -0.8447    0.8120 N   0  0  0  0  0  0  0  0  0  0  0  0
   -3.1749   -0.3807    0.4220 H   0  0  0  0  0  0  0  0  0  0  0  0
   -1.0919   -0.1077    0.8170 C   0  0  1  0  0  0  0  0  0  0  0  0
   -0.3571   -0.6901    0.2581 H   0  0  0  0  0  0  0  0  0  0  0  0
   -1.3037    1.2411    0.1040 C   0  0  0  0  0  0  0  0  0  0  0  0
   -0.8529    1.1844   -0.8880 H   0  0  0  0  0  0  0  0  0  0  0  0
   -2.3741    1.4180   -0.0184 H   0  0  0  0  0  0  0  0  0  0  0  0
   -0.6771    2.4276    0.8521 C   0  0  0  0  0  0  0  0  0  0  0  0
    0.3474    2.5785    0.5092 H   0  0  0  0  0  0  0  0  0  0  0  0
   -1.2579    3.3290    0.6472 H   0  0  0  0  0  0  0  0  0  0  0  0
   -0.6679    2.1618    2.3638 C   0  0  0  0  0  0  0  0  0  0  0  0
   -1.6938    1.9963    2.7015 H   0  0  0  0  0  0  0  0  0  0  0  0
   -0.0783    1.2650    2.5641 H   0  0  0  0  0  0  0  0  0  0  0  0
   -0.0652    3.3562    3.1141 C   0  0  0  0  0  0  0  0  0  0  0  0
    0.9581    3.5100    2.7565 H   0  0  0  0  0  0  0  0  0  0  0  0
   -0.6447    4.2506    2.8664 H   0  0  0  0  0  0  0  0  0  0  0  0
   -0.0660    3.1353    4.5823 N   0  3  0  0  0  0  0  0  0  0  0  0
    0.4776    2.3147    4.8187 H   0  0  0  0  0  0  0  0  0  0  0  0
    0.3342    3.9318    5.0623 H   0  0  0  0  0  0  0  0  0  0  0  0
   -1.0121    3.0011    4.9197 H   0  0  0  0  0  0  0  0  0  0  0  0
   -0.5865    0.0771    2.2496 C   0  0  0  0  0  0  0  0  0  0  0  0
    0.5860   -0.1608    2.5143 O   0  0  0  0  0  0  0  0  0  0  0  0
   -1.4786    0.4656    3.1667 N   0  0  0  0  0  0  0  0  0  0  0  0
   -2.4139    0.6698    2.8558 H   0  0  0  0  0  0  0  0  0  0  0  0
   -1.1587    0.6908    4.5775 C   0  0  0  0  0  0  0  0  0  0  0  0
   -0.4270    1.4968    4.6656 H   0  0  0  0  0  0  0  0  0  0  0  0
   -2.0565    0.9649    5.1327 H   0  0  0  0  0  0  0  0  0  0  0  0
   -0.7281   -0.2137    5.0125 H   0  0  0  0  0  0  0  0  0  0  0  0
  5  6  2  0  0  0  0
  5  7  1  0  0  0  0
  2  3  1  0  0  0  0
  2  4  1  0  0  0  0
  2  5  1  0  0  0  0
  1  2  1  0  0  0  0
 27 28  2  0  0  0  0
 27 29  1  0  0  0  0
 23 24  1  0  0  0  0
 23 25  1  0  0  0  0
 23 26  1  0  0  0  0
 20 21  1  0  0  0  0
 20 22  1  0  0  0  0
 20 23  1  0  0  0  0
 17 18  1  0  0  0  0
 17 19  1  0  0  0  0
 17 20  1  0  0  0  0
 14 15  1  0  0  0  0
 14 16  1  0  0  0  0
 14 17  1  0  0  0  0
 11 12  1  0  0  0  0
 11 13  1  0  0  0  0
 11 14  1  0  0  0  0
  9 10  1  0  0  0  0
  9 11  1  0  0  0  0
  9 27  1  0  0  0  0
  7  8  1  0  0  0  0
  7  9  1  0  0  0  0
 31 32  1  0  0  0  0
 31 33  1  0  0  0  0
 31 34  1  0  0  0  0
 29 30  1  0  0  0  0
 29 31  1  0  0  0  0
M  CHG  1  23   1
M  END
$$$$
default_name
  -OEChem-02102213163D

 34 33  0     1  0  0  0  0  0999 V2000
   -3.8899   -3.6747    1.6490 H   0  0  0  0  0  0  0  0  0  0  0  0
   -3.9109   -2.6717    1.2250 C   0  0  0  0  0  0  0  0  0  0  0  0
   -4.6009   -2.0517    1.7950 H   0  0  0  0  0  0  0  0  0  0  0  0
   -4.2309   -2.7237    0.1860 H   0  0  0  0  0  0  0  0  0  0  0  0
   -2.5229   -2.0787    1.2980 C   0  0  0  0  0  0  0  0  0  0  0  0
   -1.5999   -2.7227    1.7810 O   0  0  0  0  0  0  0  0  0  0  0  0
   -2.3659   -0.8447    0.8120 N   0  0  0  0  0  0  0  0  0  0  0  0
   -3.1749   -0.3807    0.4220 H   0  0  0  0  0  0  0  0  0  0  0  0
   -1.0919   -0.1077    0.8170 C   0  0  1  0  0  0  0  0  0  0  0  0
   -0.3571   -0.6901    0.2581 H   0  0  0  0  0  0  0  0  0  0  0  0
   -1.3037    1.2411    0.1040 C   0  0  0  0  0  0  0  0  0  0  0  0
   -0.8529    1.1844   -0.8880 H   0  0  0  0  0  0  0  0  0  0  0  0
   -2.3741    1.4180   -0.0184 H   0  0  0  0  0  0  0  0  0  0  0  0
   -0.6771    2.4276    0.8521 C   0  0  0  0  0  0  0  0  0  0  0  0
    0.2300    2.7484    0.3381 H   0  0  0  0  0  0  0  0  0  0  0  0
   -1.3877    3.2562    0.8714 H   0  0  0  0  0  0  0  0  0  0  0  0
   -0.3251    2.0265    2.2913 C   0  0  0  0  0  0  0  0  0  0  0  0
   -1.2330    1.6917    2.7988 H   0  0  0  0  0  0  0  0  0  0  0  0
    0.3926    1.2041    2.2664 H   0  0  0  0  0  0  0  0  0  0  0  0
    0.2778    3.2173    3.0470 C   0  0  0  0  0  0  0  0  0  0  0  0
    1.1805    3.5421    2.5194 H   0  0  0  0  0  0  0  0  0  0  0  0
   -0.4396    4.0431    3.0237 H   0  0  0  0  0  0  0  0  0  0  0  0
    0.6059    2.8632    4.4511 N   0  3  0  0  0  0  0  0  0  0  0  0
    1.2776    2.1062    4.4792 H   0  0  0  0  0  0  0  0  0  0  0  0
    1.0021    3.6589    4.9356 H   0  0  0  0  0  0  0  0  0  0  0  0
   -0.2281    2.5701    4.9465 H   0  0  0  0  0  0  0  0  0  0  0  0
   -0.5865    0.0771    2.2496 C   0  0  0  0  0  0  0  0  0  0  0  0
    0.5860   -0.1608    2.5143 O   0  0  0  0  0  0  0  0  0  0  0  0
   -1.4786    0.4656    3.1667 N   0  0  0  0  0  0  0  0  0  0  0  0
   -2.4139    0.6698    2.8558 H   0  0  0  0  0  0  0  0  0  0  0  0
   -1.1587    0.6908    4.5775 C   0  0  0  0  0  0  0  0  0  0  0  0
   -0.4270    1.4968    4.6656 H   0  0  0  0  0  0  0  0  0  0  0  0
   -2.0565    0.9649    5.1327 H   0  0  0  0  0  0  0  0  0  0  0  0
   -0.7281   -0.2137    5.0125 H   0  0  0  0  0  0  0  0  0  0  0  0
  5  6  2  0  0  0  0
  5  7  1  0  0  0  0
  2  3  1  0  0  0  0
  2  4  1  0  0  0  0
  2  5  1  0  0  0  0
  1  2  1  0  0  0  0
 27 28  2  0  0  0  0
 27 29  1  0  0  0  0
 23 24  1  0  0  0  0
 23 25  1  0  0  0  0
 23 26  1  0  0  0  0
 20 21  1  0  0  0  0
 20 22  1  0  0  0  0
 20 23  1  0  0  0  0
 17 18  1  0  0  0  0
 17 19  1  0  0  0  0
 17 20  1  0  0  0  0
 14 15  1  0  0  0  0
 14 16  1  0  0  0  0
 14 17  1  0  0  0  0
 11 12  1  0  0  0  0
 11 13  1  0  0  0  0
 11 14  1  0  0  0  0
  9 10  1  0  0  0  0
  9 11  1  0  0  0  0
  9 27  1  0  0  0  0
  7  8  1  0  0  0  0
  7  9  1  0  0  0  0
 31 32  1  0  0  0  0
 31 33  1  0  0  0  0
 31 34  1  0  0  0  0
 29 30  1  0  0  0  0
 29 31  1  0  0  0  0
M  CHG  1  23   1
M  END
$$$$
default_name
  -OEChem-02102213163D

 34 33  0     1  0  0  0  0  0999 V2000
   -3.8899   -3.6747    1.6490 H   0  0  0  0  0  0  0  0  0  0  0  0
   -3.9109   -2.6717    1.2250 C   0  0  0  0  0  0  0  0  0  0  0  0
   -4.6009   -2.0517    1.7950 H   0  0  0  0  0  0  0  0  0  0  0  0
   -4.2309   -2.7237    0.1860 H   0  0  0  0  0  0  0  0  0  0  0  0
   -2.5229   -2.0787    1.2980 C   0  0  0  0  0  0  0  0  0  0  0  0
   -1.5999   -2.7227    1.7810 O   0  0  0  0  0  0  0  0  0  0  0  0
   -2.3659   -0.8447    0.8120 N   0  0  0  0  0  0  0  0  0  0  0  0
   -3.1749   -0.3807    0.4220 H   0  0  0  0  0  0  0  0  0  0  0  0
   -1.0919   -0.1077    0.8170 C   0  0  1  0  0  0  0  0  0  0  0  0
   -0.3571   -0.6901    0.2581 H   0  0  0  0  0  0  0  0  0  0  0  0
   -1.3037    1.2411    0.1040 C   0  0  0  0  0  0  0  0  0  0  0  0
   -0.8529    1.1844   -0.8880 H   0  0  0  0  0  0  0  0  0  0  0  0
   -2.3741    1.4180   -0.0184 H   0  0  0  0  0  0  0  0  0  0  0  0
   -0.6771    2.4276    0.8521 C   0  0  0  0  0  0  0  0  0  0  0  0
    0.0611    2.9157    0.2142 H   0  0  0  0  0  0  0  0  0  0  0  0
   -1.4591    3.1458    1.1063 H   0  0  0  0  0  0  0  0  0  0  0  0
    0.0086    1.9467    2.1384 C   0  0  0  0  0  0  0  0  0  0  0  0
   -0.7300    1.4452    2.7684 H   0  0  0  0  0  0  0  0  0  0  0  0
    0.7955    1.2360    1.8782 H   0  0  0  0  0  0  0  0  0  0  0  0
    0.6133    3.1334    2.8991 C   0  0  0  0  0  0  0  0  0  0  0  0
    1.3438    3.6262    2.2492 H   0  0  0  0  0  0  0  0  0  0  0  0
   -0.1838    3.8520    3.1126 H   0  0  0  0  0  0  0  0  0  0  0  0
    1.2630    2.6988    4.1614 N   0  3  0  0  0  0  0  0  0  0  0  0
    2.0087    2.0415    3.9694 H   0  0  0  0  0  0  0  0  0  0  0  0
    1.6563    3.4929    4.6510 H   0  0  0  0  0  0  0  0  0  0  0  0
    0.5889    2.2498    4.7703 H   0  0  0  0  0  0  0  0  0  0  0  0
   -0.5865    0.0771    2.2496 C   0  0  0  0  0  0  0  0  0  0  0  0
    0.5860   -0.1608    2.5143 O   0  0  0  0  0  0  0  0  0  0  0  0
   -1.4786    0.4656    3.1667 N   0  0  0  0  0  0  0  0  0  0  0  0
   -2.4139    0.6698    2.8558 H   0  0  0  0  0  0  0  0  0  0  0  0
   -1.1587    0.6908    4.5775 C   0  0  0  0  0  0  0  0  0  0  0  0
   -0.4270    1.4968    4.6656 H   0  0  0  0  0  0  0  0  0  0  0  0
   -2.0565    0.9649    5.1327 H   0  0  0  0  0  0  0  0  0  0  0  0
   -0.7281   -0.2137    5.0125 H   0  0  0  0  0  0  0  0  0  0  0  0
  5  6  2  0  0  0  0
  5  7  1  0  0  0  0
  2  3  1  0  0  0  0
  2  4  1  0  0  0  0
  2  5  1  0  0  0  0
  1  2  1  0  0  0  0
 27 28  2  0  0  0  0
 27 29  1  0  0  0  0
 23 24  1  0  0  0  0
 23 25  1  0  0  0  0
 23 26  1  0  0  0  0
 20 21  1  0  0  0  0
 20 22  1  0  0  0  0
 20 23  1  0  0  0  0
 17 18  1  0  0  0  0
 17 19  1  0  0  0  0
 17 20  1  0  0  0  0
 14 15  1  0  0  0  0
 14 16  1  0  0  0  0
 14 17  1  0  0  0  0
 11 12  1  0  0  0  0
 11 13  1  0  0  0  0
 11 14  1  0  0  0  0
  9 10  1  0  0  0  0
  9 11  1  0  0  0  0
  9 27  1  0  0  0  0
  7  8  1  0  0  0  0
  7  9  1  0  0  0  0
 31 32  1  0  0  0  0
 31 33  1  0  0  0  0
 31 34  1  0  0  0  0
 29 30  1  0  0  0  0
 29 31  1  0  0  0  0
M  CHG  1  23   1
M  END
$$$$
default_name
  -OEChem-02102213163D

 34 33  0     1  0  0  0  0  0999 V2000
   -3.8899   -3.6747    1.6490 H   0  0  0  0  0  0  0  0  0  0  0  0
   -3.9109   -2.6717    1.2250 C   0  0  0  0  0  0  0  0  0  0  0  0
   -4.6009   -2.0517    1.7950 H   0  0  0  0  0  0  0  0  0  0  0  0
   -4.2309   -2.7237    0.1860 H   0  0  0  0  0  0  0  0  0  0  0  0
   -2.5229   -2.0787    1.2980 C   0  0  0  0  0  0  0  0  0  0  0  0
   -1.5999   -2.7227    1.7810 O   0  0  0  0  0  0  0  0  0  0  0  0
   -2.3659   -0.8447    0.8120 N   0  0  0  0  0  0  0  0  0  0  0  0
   -3.1749   -0.3807    0.4220 H   0  0  0  0  0  0  0  0  0  0  0  0
   -1.0919   -0.1077    0.8170 C   0  0  1  0  0  0  0  0  0  0  0  0
   -0.3571   -0.6901    0.2581 H   0  0  0  0  0  0  0  0  0  0  0  0
   -1.3037    1.2411    0.1040 C   0  0  0  0  0  0  0  0  0  0  0  0
   -0.8529    1.1844   -0.8880 H   0  0  0  0  0  0  0  0  0  0  0  0
   -2.3741    1.4180   -0.0184 H   0  0  0  0  0  0  0  0  0  0  0  0
   -0.6771    2.4276    0.8521 C   0  0  0  0  0  0  0  0  0  0  0  0
   -0.1480    3.0691    0.1461 H   0  0  0  0  0  0  0  0  0  0  0  0
   -1.4671    3.0054    1.3357 H   0  0  0  0  0  0  0  0  0  0  0  0
    0.3104    1.9277    1.9157 C   0  0  0  0  0  0  0  0  0  0  0  0
   -0.2192    1.2737    2.6125 H   0  0  0  0  0  0  0  0  0  0  0  0
    1.1032    1.3586    1.4260 H   0  0  0  0  0  0  0  0  0  0  0  0
    0.9183    3.1103    2.6802 C   0  0  0  0  0  0  0  0  0  0  0  0
    1.4369    3.7565    1.9645 H   0  0  0  0  0  0  0  0  0  0  0  0
    0.1051    3.6902    3.1272 H   0  0  0  0  0  0  0  0  0  0  0  0
    1.8606    2.6534    3.7328 N   0  3  0  0  0  0  0  0  0  0  0  0
    2.6211    2.1250    3.3239 H   0  0  0  0  0  0  0  0  0  0  0  0
    2.2523    3.4450    4.2277 H   0  0  0  0  0  0  0  0  0  0  0  0
    1.3832    2.0619    4.4029 H   0  0  0  0  0  0  0  0  0  0  0  0
   -0.5865    0.0771    2.2496 C   0  0  0  0  0  0  0  0  0  0  0  0
    0.5860   -0.1608    2.5143 O   0  0  0  0  0  0  0  0  0  0  0  0
   -1.4786    0.4656    3.1667 N   0  0  0  0  0  0  0  0  0  0  0  0
   -2.4139    0.6698    2.8558 H   0  0  0  0  0  0  0  0  0  0  0  0
   -1.1587    0.6908    4.5775 C   0  0  0  0  0  0  0  0  0  0  0  0
   -0.4270    1.4968    4.6656 H   0  0  0  0  0  0  0  0  0  0  0  0
   -2.0565    0.9649    5.1327 H   0  0  0  0  0  0  0  0  0  0  0  0
   -0.7281   -0.2137    5.0125 H   0  0  0  0  0  0  0  0  0  0  0  0
  5  6  2  0  0  0  0
  5  7  1  0  0  0  0
  2  3  1  0  0  0  0
  2  4  1  0  0  0  0
  2  5  1  0  0  0  0
  1  2  1  0  0  0  0
 27 28  2  0  0  0  0
 27 29  1  0  0  0  0
 23 24  1  0  0  0  0
 23 25  1  0  0  0  0
 23 26  1  0  0  0  0
 20 21  1  0  0  0  0
 20 22  1  0  0  0  0
 20 23  1  0  0  0  0
 17 18  1  0  0  0  0
 17 19  1  0  0  0  0
 17 20  1  0  0  0  0
 14 15  1  0  0  0  0
 14 16  1  0  0  0  0
 14 17  1  0  0  0  0
 11 12  1  0  0  0  0
 11 13  1  0  0  0  0
 11 14  1  0  0  0  0
  9 10  1  0  0  0  0
  9 11  1  0  0  0  0
  9 27  1  0  0  0  0
  7  8  1  0  0  0  0
  7  9  1  0  0  0  0
 31 32  1  0  0  0  0
 31 33  1  0  0  0  0
 31 34  1  0  0  0  0
 29 30  1  0  0  0  0
 29 31  1  0  0  0  0
M  CHG  1  23   1
M  END
$$$$
default_name
  -OEChem-02102213163D

 34 33  0     1  0  0  0  0  0999 V2000
   -3.8899   -3.6747    1.6490 H   0  0  0  0  0  0  0  0  0  0  0  0
   -3.9109   -2.6717    1.2250 C   0  0  0  0  0  0  0  0  0  0  0  0
   -4.6009   -2.0517    1.7950 H   0  0  0  0  0  0  0  0  0  0  0  0
   -4.2309   -2.7237    0.1860 H   0  0  0  0  0  0  0  0  0  0  0  0
   -2.5229   -2.0787    1.2980 C   0  0  0  0  0  0  0  0  0  0  0  0
   -1.5999   -2.7227    1.7810 O   0  0  0  0  0  0  0  0  0  0  0  0
   -2.3659   -0.8447    0.8120 N   0  0  0  0  0  0  0  0  0  0  0  0
   -3.1749   -0.3807    0.4220 H   0  0  0  0  0  0  0  0  0  0  0  0
   -1.0919   -0.1077    0.8170 C   0  0  1  0  0  0  0  0  0  0  0  0
   -0.3571   -0.6901    0.2581 H   0  0  0  0  0  0  0  0  0  0  0  0
   -1.3037    1.2411    0.1040 C   0  0  0  0  0  0  0  0  0  0  0  0
   -0.8529    1.1844   -0.8880 H   0  0  0  0  0  0  0  0  0  0  0  0
   -2.3741    1.4180   -0.0184 H   0  0  0  0  0  0  0  0  0  0  0  0
   -0.6771    2.4276    0.8521 C   0  0  0  0  0  0  0  0  0  0  0  0
   -0.3829    3.1981    0.1382 H   0  0  0  0  0  0  0  0  0  0  0  0
   -1.4114    2.8445    1.5441 H   0  0  0  0  0  0  0  0  0  0  0  0
    0.5598    1.9710    1.6381 C   0  0  0  0  0  0  0  0  0  0  0  0
    0.2646    1.1889    2.3417 H   0  0  0  0  0  0  0  0  0  0  0  0
    1.2944    1.5636    0.9407 H   0  0  0  0  0  0  0  0  0  0  0  0
    1.1720    3.1495    2.4054 C   0  0  0  0  0  0  0  0  0  0  0  0
    1.4535    3.9242    1.6847 H   0  0  0  0  0  0  0  0  0  0  0  0
    0.4075    3.5688    3.0665 H   0  0  0  0  0  0  0  0  0  0  0  0
    2.3578    2.7302    3.1945 N   0  3  0  0  0  0  0  0  0  0  0  0
    3.0732    2.3510    2.5869 H   0  0  0  0  0  0  0  0  0  0  0  0
    2.7494    3.5185    3.6947 H   0  0  0  0  0  0  0  0  0  0  0  0
    2.1006    2.0193    3.8694 H   0  0  0  0  0  0  0  0  0  0  0  0
   -0.5865    0.0771    2.2496 C   0  0  0  0  0  0  0  0  0  0  0  0
    0.5860   -0.1608    2.5143 O   0  0  0  0  0  0  0  0  0  0  0  0
   -1.4786    0.4656    3.1667 N   0  0  0  0  0  0  0  0  0  0  0  0
   -2.4139    0.6698    2.8558 H   0  0  0  0  0  0  0  0  0  0  0  0
   -1.1587    0.6908    4.5775 C   0  0  0  0  0  0  0  0  0  0  0  0
   -0.4270    1.4968    4.6656 H   0  0  0  0  0  0  0  0  0  0  0  0
   -2.0565    0.9649    5.1327 H   0  0  0  0  0  0  0  0  0  0  0  0
   -0.7281   -0.2137    5.0125 H   0  0  0  0  0  0  0  0  0  0  0  0
  5  6  2  0  0  0  0
  5  7  1  0  0  0  0
  2  3  1  0  0  0  0
  2  4  1  0  0  0  0
  2  5  1  0  0  0  0
  1  2  1  0  0  0  0
 27 28  2  0  0  0  0
 27 29  1  0  0  0  0
 23 24  1  0  0  0  0
 23 25  1  0  0  0  0
 23 26  1  0  0  0  0
 20 21  1  0  0  0  0
 20 22  1  0  0  0  0
 20 23  1  0  0  0  0
 17 18  1  0  0  0  0
 17 19  1  0  0  0  0
 17 20  1  0  0  0  0
 14 15  1  0  0  0  0
 14 16  1  0  0  0  0
 14 17  1  0  0  0  0
 11 12  1  0  0  0  0
 11 13  1  0  0  0  0
 11 14  1  0  0  0  0
  9 10  1  0  0  0  0
  9 11  1  0  0  0  0
  9 27  1  0  0  0  0
  7  8  1  0  0  0  0
  7  9  1  0  0  0  0
 31 32  1  0  0  0  0
 31 33  1  0  0  0  0
 31 34  1  0  0  0  0
 29 30  1  0  0  0  0
 29 31  1  0  0  0  0
M  CHG  1  23   1
M  END
$$$$
default_name
  -OEChem-02102213163D

 34 33  0     1  0  0  0  0  0999 V2000
   -3.8899   -3.6747    1.6490 H   0  0  0  0  0  0  0  0  0  0  0  0
   -3.9109   -2.6717    1.2250 C   0  0  0  0  0  0  0  0  0  0  0  0
   -4.6009   -2.0517    1.7950 H   0  0  0  0  0  0  0  0  0  0  0  0
   -4.2309   -2.7237    0.1860 H   0  0  0  0  0  0  0  0  0  0  0  0
   -2.5229   -2.0787    1.2980 C   0  0  0  0  0  0  0  0  0  0  0  0
   -1.5999   -2.7227    1.7810 O   0  0  0  0  0  0  0  0  0  0  0  0
   -2.3659   -0.8447    0.8120 N   0  0  0  0  0  0  0  0  0  0  0  0
   -3.1749   -0.3807    0.4220 H   0  0  0  0  0  0  0  0  0  0  0  0
   -1.0919   -0.1077    0.8170 C   0  0  1  0  0  0  0  0  0  0  0  0
   -0.3571   -0.6901    0.2581 H   0  0  0  0  0  0  0  0  0  0  0  0
   -1.3037    1.2411    0.1040 C   0  0  0  0  0  0  0  0  0  0  0  0
   -0.8529    1.1844   -0.8880 H   0  0  0  0  0  0  0  0  0  0  0  0
   -2.3741    1.4180   -0.0184 H   0  0  0  0  0  0  0  0  0  0  0  0
   -0.6771    2.4276    0.8521 C   0  0  0  0  0  0  0  0  0  0  0  0
   -0.6276    3.2940    0.1911 H   0  0  0  0  0  0  0  0  0  0  0  0
   -1.2956    2.6742    1.7173 H   0  0  0  0  0  0  0  0  0  0  0  0
    0.7397    2.0735    1.3248 C   0  0  0  0  0  0  0  0  0  0  0  0
    0.6885    1.1965    1.9745 H   0  0  0  0  0  0  0  0  0  0  0  0
    1.3564    1.8369    0.4554 H   0  0  0  0  0  0  0  0  0  0  0  0
    1.3573    3.2484    2.0934 C   0  0  0  0  0  0  0  0  0  0  0  0
    1.3925    4.1177    1.4287 H   0  0  0  0  0  0  0  0  0  0  0  0
    0.7028    3.4960    2.9346 H   0  0  0  0  0  0  0  0  0  0  0  0
    2.7208    2.9238    2.5834 N   0  3  0  0  0  0  0  0  0  0  0  0
    3.3340    2.7040    1.8085 H   0  0  0  0  0  0  0  0  0  0  0  0
    3.1138    3.7085    3.0882 H   0  0  0  0  0  0  0  0  0  0  0  0
    2.6924    2.1250    3.2062 H   0  0  0  0  0  0  0  0  0  0  0  0
   -0.5865    0.0771    2.2496 C   0  0  0  0  0  0  0  0  0  0  0  0
    0.5860   -0.1608    2.5143 O   0  0  0  0  0  0  0  0  0  0  0  0
   -1.4786    0.4656    3.1667 N   0  0  0  0  0  0  0  0  0  0  0  0
   -2.4139    0.6698    2.8558 H   0  0  0  0  0  0  0  0  0  0  0  0
   -1.1587    0.6908    4.5775 C   0  0  0  0  0  0  0  0  0  0  0  0
   -0.4270    1.4968    4.6656 H   0  0  0  0  0  0  0  0  0  0  0  0
   -2.0565    0.9649    5.1327 H   0  0  0  0  0  0  0  0  0  0  0  0
   -0.7281   -0.2137    5.0125 H   0  0  0  0  0  0  0  0  0  0  0  0
  5  6  2  0  0  0  0
  5  7  1  0  0  0  0
  2  3  1  0  0  0  0
  2  4  1  0  0  0  0
  2  5  1  0  0  0  0
  1  2  1  0  0  0  0
 27 28  2  0  0  0  0
 27 29  1  0  0  0  0
 23 24  1  0  0  0  0
 23 25  1  0  0  0  0
 23 26  1  0  0  0  0
 20 21  1  0  0  0  0
 20 22  1  0  0  0  0
 20 23  1  0  0  0  0
 17 18  1  0  0  0  0
 17 19  1  0  0  0  0
 17 20  1  0  0  0  0
 14 15  1  0  0  0  0
 14 16  1  0  0  0  0
 14 17  1  0  0  0  0
 11 12  1  0  0  0  0
 11 13  1  0  0  0  0
 11 14  1  0  0  0  0
  9 10  1  0  0  0  0
  9 11  1  0  0  0  0
  9 27  1  0  0  0  0
  7  8  1  0  0  0  0
  7  9  1  0  0  0  0
 31 32  1  0  0  0  0
 31 33  1  0  0  0  0
 31 34  1  0  0  0  0
 29 30  1  0  0  0  0
 29 31  1  0  0  0  0
M  CHG  1  23   1
M  END
$$$$
default_name
  -OEChem-02102213163D

 34 33  0     1  0  0  0  0  0999 V2000
   -3.8899   -3.6747    1.6490 H   0  0  0  0  0  0  0  0  0  0  0  0
   -3.9109   -2.6717    1.2250 C   0  0  0  0  0  0  0  0  0  0  0  0
   -4.6009   -2.0517    1.7950 H   0  0  0  0  0  0  0  0  0  0  0  0
   -4.2309   -2.7237    0.1860 H   0  0  0  0  0  0  0  0  0  0  0  0
   -2.5229   -2.0787    1.2980 C   0  0  0  0  0  0  0  0  0  0  0  0
   -1.5999   -2.7227    1.7810 O   0  0  0  0  0  0  0  0  0  0  0  0
   -2.3659   -0.8447    0.8120 N   0  0  0  0  0  0  0  0  0  0  0  0
   -3.1749   -0.3807    0.4220 H   0  0  0  0  0  0  0  0  0  0  0  0
   -1.0919   -0.1077    0.8170 C   0  0  1  0  0  0  0  0  0  0  0  0
   -0.3571   -0.6901    0.2581 H   0  0  0  0  0  0  0  0  0  0  0  0
   -1.3037    1.2411    0.1040 C   0  0  0  0  0  0  0  0  0  0  0  0
   -0.8529    1.1844   -0.8880 H   0  0  0  0  0  0  0  0  0  0  0  0
   -2.3741    1.4180   -0.0184 H   0  0  0  0  0  0  0  0  0  0  0  0
   -0.6771    2.4276    0.8521 C   0  0  0  0  0  0  0  0  0  0  0  0
   -0.8655    3.3501    0.3013 H   0  0  0  0  0  0  0  0  0  0  0  0
   -1.1276    2.5060    1.8435 H   0  0  0  0  0  0  0  0  0  0  0  0
    0.8380    2.2283    0.9969 C   0  0  0  0  0  0  0  0  0  0  0  0
    1.0236    1.2961    1.5358 H   0  0  0  0  0  0  0  0  0  0  0  0
    1.2848    2.1599    0.0031 H   0  0  0  0  0  0  0  0  0  0  0  0
    1.4614    3.4002    1.7654 C   0  0  0  0  0  0  0  0  0  0  0  0
    1.2580    4.3241    1.2141 H   0  0  0  0  0  0  0  0  0  0  0  0
    0.9708    3.4769    2.7404 H   0  0  0  0  0  0  0  0  0  0  0  0
    2.9248    3.2211    1.9409 N   0  3  0  0  0  0  0  0  0  0  0  0
    3.3858    3.1601    1.0417 H   0  0  0  0  0  0  0  0  0  0  0  0
    3.3205    4.0019    2.4496 H   0  0  0  0  0  0  0  0  0  0  0  0
    3.1181    2.3716    2.4584 H   0  0  0  0  0  0  0  0  0  0  0  0
   -0.5865    0.0771    2.2496 C   0  0  0  0  0  0  0  0  0  0  0  0
    0.5860   -0.1608    2.5143 O   0  0  0  0  0  0  0  0  0  0  0  0
   -1.4786    0.4656    3.1667 N   0  0  0  0  0  0  0  0  0  0  0  0
   -2.4139    0.6698    2.8558 H   0  0  0  0  0  0  0  0  0  0  0  0
   -1.1587    0.6908    4.5775 C   0  0  0  0  0  0  0  0  0  0  0  0
   -0.4270    1.4968    4.6656 H   0  0  0  0  0  0  0  0  0  0  0  0
   -2.0565    0.9649    5.1327 H   0  0  0  0  0  0  0  0  0  0  0  0
   -0.7281   -0.2137    5.0125 H   0  0  0  0  0  0  0  0  0  0  0  0
  5  6  2  0  0  0  0
  5  7  1  0  0  0  0
  2  3  1  0  0  0  0
  2  4  1  0  0  0  0
  2  5  1  0  0  0  0
  1  2  1  0  0  0  0
 27 28  2  0  0  0  0
 27 29  1  0  0  0  0
 23 24  1  0  0  0  0
 23 25  1  0  0  0  0
 23 26  1  0  0  0  0
 20 21  1  0  0  0  0
 20 22  1  0  0  0  0
 20 23  1  0  0  0  0
 17 18  1  0  0  0  0
 17 19  1  0  0  0  0
 17 20  1  0  0  0  0
 14 15  1  0  0  0  0
 14 16  1  0  0  0  0
 14 17  1  0  0  0  0
 11 12  1  0  0  0  0
 11 13  1  0  0  0  0
 11 14  1  0  0  0  0
  9 10  1  0  0  0  0
  9 11  1  0  0  0  0
  9 27  1  0  0  0  0
  7  8  1  0  0  0  0
  7  9  1  0  0  0  0
 31 32  1  0  0  0  0
 31 33  1  0  0  0  0
 31 34  1  0  0  0  0
 29 30  1  0  0  0  0
 29 31  1  0  0  0  0
M  CHG  1  23   1
M  END
$$$$
default_name
  -OEChem-02102213163D

 34 33  0     1  0  0  0  0  0999 V2000
   -3.8899   -3.6747    1.6490 H   0  0  0  0  0  0  0  0  0  0  0  0
   -3.9109   -2.6717    1.2250 C   0  0  0  0  0  0  0  0  0  0  0  0
   -4.6009   -2.0517    1.7950 H   0  0  0  0  0  0  0  0  0  0  0  0
   -4.2309   -2.7237    0.1860 H   0  0  0  0  0  0  0  0  0  0  0  0
   -2.5229   -2.0787    1.2980 C   0  0  0  0  0  0  0  0  0  0  0  0
   -1.5999   -2.7227    1.7810 O   0  0  0  0  0  0  0  0  0  0  0  0
   -2.3659   -0.8447    0.8120 N   0  0  0  0  0  0  0  0  0  0  0  0
   -3.1749   -0.3807    0.4220 H   0  0  0  0  0  0  0  0  0  0  0  0
   -1.0919   -0.1077    0.8170 C   0  0  1  0  0  0  0  0  0  0  0  0
   -0.3571   -0.6901    0.2581 H   0  0  0  0  0  0  0  0  0  0  0  0
   -1.3037    1.2411    0.1040 C   0  0  0  0  0  0  0  0  0  0  0  0
   -0.8529    1.1844   -0.8880 H   0  0  0  0  0  0  0  0  0  0  0  0
   -2.3741    1.4180   -0.0184 H   0  0  0  0  0  0  0  0  0  0  0  0
   -0.6771    2.4276    0.8521 C   0  0  0  0  0  0  0  0  0  0  0  0
   -1.0804    3.3628    0.4613 H   0  0  0  0  0  0  0  0  0  0  0  0
   -0.9190    2.3513    1.9140 H   0  0  0  0  0  0  0  0  0  0  0  0
    0.8479    2.4248    0.6770 C   0  0  0  0  0  0  0  0  0  0  0  0
    1.2471    1.4808    1.0556 H   0  0  0  0  0  0  0  0  0  0  0  0
    1.0844    2.5106   -0.3854 H   0  0  0  0  0  0  0  0  0  0  0  0
    1.4773    3.5946    1.4438 C   0  0  0  0  0  0  0  0  0  0  0  0
    1.0592    4.5291    1.0555 H   0  0  0  0  0  0  0  0  0  0  0  0
    1.1932    3.5126    2.4973 H   0  0  0  0  0  0  0  0  0  0  0  0
    2.9560    3.6018    1.3109 N   0  3  0  0  0  0  0  0  0  0  0  0
    3.2252    3.6881    0.3388 H   0  0  0  0  0  0  0  0  0  0  0  0
    3.3556    4.3788    1.8224 H   0  0  0  0  0  0  0  0  0  0  0  0
    3.3487    2.7424    1.6771 H   0  0  0  0  0  0  0  0  0  0  0  0
   -0.5865    0.0771    2.2496 C   0  0  0  0  0  0  0  0  0  0  0  0
    0.5860   -0.1608    2.5143 O   0  0  0  0  0  0  0  0  0  0  0  0
   -1.4786    0.4656    3.1667 N   0  0  0  0  0  0  0  0  0  0  0  0
   -2.4139    0.6698    2.8558 H   0  0  0  0  0  0  0  0  0  0  0  0
   -1.1587    0.6908    4.5775 C   0  0  0  0  0  0  0  0  0  0  0  0
   -0.4270    1.4968    4.6656 H   0  0  0  0  0  0  0  0  0  0  0  0
   -2.0565    0.9649    5.1327 H   0  0  0  0  0  0  0  0  0  0  0  0
   -0.7281   -0.2137    5.0125 H   0  0  0  0  0  0  0  0  0  0  0  0
  5  6  2  0  0  0  0
  5  7  1  0  0  0  0
  2  3  1  0  0  0  0
  2  4  1  0  0  0  0
  2  5  1  0  0  0  0
  1  2  1  0  0  0  0
 27 28  2  0  0  0  0
 27 29  1  0  0  0  0
 23 24  1  0  0  0  0
 23 25  1  0  0  0  0
 23 26  1  0  0  0  0
 20 21  1  0  0  0  0
 20 22  1  0  0  0  0
 20 23  1  0  0  0  0
 17 18  1  0  0  0  0
 17 19  1  0  0  0  0
 17 20  1  0  0  0  0
 14 15  1  0  0  0  0
 14 16  1  0  0  0  0
 14 17  1  0  0  0  0
 11 12  1  0  0  0  0
 11 13  1  0  0  0  0
 11 14  1  0  0  0  0
  9 10  1  0  0  0  0
  9 11  1  0  0  0  0
  9 27  1  0  0  0  0
  7  8  1  0  0  0  0
  7  9  1  0  0  0  0
 31 32  1  0  0  0  0
 31 33  1  0  0  0  0
 31 34  1  0  0  0  0
 29 30  1  0  0  0  0
 29 31  1  0  0  0  0
M  CHG  1  23   1
M  END
$$$$
default_name
  -OEChem-02102213163D

 34 33  0     1  0  0  0  0  0999 V2000
   -3.8899   -3.6747    1.6490 H   0  0  0  0  0  0  0  0  0  0  0  0
   -3.9109   -2.6717    1.2250 C   0  0  0  0  0  0  0  0  0  0  0  0
   -4.6009   -2.0517    1.7950 H   0  0  0  0  0  0  0  0  0  0  0  0
   -4.2309   -2.7237    0.1860 H   0  0  0  0  0  0  0  0  0  0  0  0
   -2.5229   -2.0787    1.2980 C   0  0  0  0  0  0  0  0  0  0  0  0
   -1.5999   -2.7227    1.7810 O   0  0  0  0  0  0  0  0  0  0  0  0
   -2.3659   -0.8447    0.8120 N   0  0  0  0  0  0  0  0  0  0  0  0
   -3.1749   -0.3807    0.4220 H   0  0  0  0  0  0  0  0  0  0  0  0
   -1.0919   -0.1077    0.8170 C   0  0  1  0  0  0  0  0  0  0  0  0
   -0.3571   -0.6901    0.2581 H   0  0  0  0  0  0  0  0  0  0  0  0
   -1.3037    1.2411    0.1040 C   0  0  0  0  0  0  0  0  0  0  0  0
   -0.8529    1.1844   -0.8880 H   0  0  0  0  0  0  0  0  0  0  0  0
   -2.3741    1.4180   -0.0184 H   0  0  0  0  0  0  0  0  0  0  0  0
   -0.6771    2.4276    0.8521 C   0  0  0  0  0  0  0  0  0  0  0  0
   -1.2575    3.3310    0.6600 H   0  0  0  0  0  0  0  0  0  0  0  0
   -0.6839    2.2208    1.9241 H   0  0  0  0  0  0  0  0  0  0  0  0
    0.7687    2.6497    0.3867 C   0  0  0  0  0  0  0  0  0  0  0  0
    1.3437    1.7381    0.5667 H   0  0  0  0  0  0  0  0  0  0  0  0
    0.7691    2.8652   -0.6836 H   0  0  0  0  0  0  0  0  0  0  0  0
    1.4038    3.8183    1.1505 C   0  0  0  0  0  0  0  0  0  0  0  0
    0.8097    4.7188    0.9637 H   0  0  0  0  0  0  0  0  0  0  0  0
    1.3550    3.6009    2.2218 H   0  0  0  0  0  0  0  0  0  0  0  0
    2.8123    4.0400    0.7364 N   0  3  0  0  0  0  0  0  0  0  0  0
    2.8629    4.2521   -0.2522 H   0  0  0  0  0  0  0  0  0  0  0  0
    3.2166    4.8135    1.2494 H   0  0  0  0  0  0  0  0  0  0  0  0
    3.3685    3.2122    0.9154 H   0  0  0  0  0  0  0  0  0  0  0  0
   -0.5865    0.0771    2.2496 C   0  0  0  0  0  0  0  0  0  0  0  0
    0.5860   -0.1608    2.5143 O   0  0  0  0  0  0  0  0  0  0  0  0
   -1.4786    0.4656    3.1667 N   0  0  0  0  0  0  0  0  0  0  0  0
   -2.4139    0.6698    2.8558 H   0  0  0  0  0  0  0  0  0  0  0  0
   -1.1587    0.6908    4.5775 C   0  0  0  0  0  0  0  0  0  0  0  0
   -0.4270    1.4968    4.6656 H   0  0  0  0  0  0  0  0  0  0  0  0
   -2.0565    0.9649    5.1327 H   0  0  0  0  0  0  0  0  0  0  0  0
   -0.7281   -0.2137    5.0125 H   0  0  0  0  0  0  0  0  0  0  0  0
  5  6  2  0  0  0  0
  5  7  1  0  0  0  0
  2  3  1  0  0  0  0
  2  4  1  0  0  0  0
  2  5  1  0  0  0  0
  1  2  1  0  0  0  0
 27 28  2  0  0  0  0
 27 29  1  0  0  0  0
 23 24  1  0  0  0  0
 23 25  1  0  0  0  0
 23 26  1  0  0  0  0
 20 21  1  0  0  0  0
 20 22  1  0  0  0  0
 20 23  1  0  0  0  0
 17 18  1  0  0  0  0
 17 19  1  0  0  0  0
 17 20  1  0  0  0  0
 14 15  1  0  0  0  0
 14 16  1  0  0  0  0
 14 17  1  0  0  0  0
 11 12  1  0  0  0  0
 11 13  1  0  0  0  0
 11 14  1  0  0  0  0
  9 10  1  0  0  0  0
  9 11  1  0  0  0  0
  9 27  1  0  0  0  0
  7  8  1  0  0  0  0
  7  9  1  0  0  0  0
 31 32  1  0  0  0  0
 31 33  1  0  0  0  0
 31 34  1  0  0  0  0
 29 30  1  0  0  0  0
 29 31  1  0  0  0  0
M  CHG  1  23   1
M  END
$$$$
default_name
  -OEChem-02102213163D

 34 33  0     1  0  0  0  0  0999 V2000
   -3.8899   -3.6747    1.6490 H   0  0  0  0  0  0  0  0  0  0  0  0
   -3.9109   -2.6717    1.2250 C   0  0  0  0  0  0  0  0  0  0  0  0
   -4.6009   -2.0517    1.7950 H   0  0  0  0  0  0  0  0  0  0  0  0
   -4.2309   -2.7237    0.1860 H   0  0  0  0  0  0  0  0  0  0  0  0
   -2.5229   -2.0787    1.2980 C   0  0  0  0  0  0  0  0  0  0  0  0
   -1.5999   -2.7227    1.7810 O   0  0  0  0  0  0  0  0  0  0  0  0
   -2.3659   -0.8447    0.8120 N   0  0  0  0  0  0  0  0  0  0  0  0
   -3.1749   -0.3807    0.4220 H   0  0  0  0  0  0  0  0  0  0  0  0
   -1.0919   -0.1077    0.8170 C   0  0  1  0  0  0  0  0  0  0  0  0
   -0.3571   -0.6901    0.2581 H   0  0  0  0  0  0  0  0  0  0  0  0
   -1.3037    1.2411    0.1040 C   0  0  0  0  0  0  0  0  0  0  0  0
   -0.8529    1.1844   -0.8880 H   0  0  0  0  0  0  0  0  0  0  0  0
   -2.3741    1.4180   -0.0184 H   0  0  0  0  0  0  0  0  0  0  0  0
   -0.6771    2.4276    0.8521 C   0  0  0  0  0  0  0  0  0  0  0  0
   -1.3849    3.2570    0.8841 H   0  0  0  0  0  0  0  0  0  0  0  0
   -0.4383    2.1233    1.8730 H   0  0  0  0  0  0  0  0  0  0  0  0
    0.6058    2.8875    0.1459 C   0  0  0  0  0  0  0  0  0  0  0  0
    1.3068    2.0505    0.1022 H   0  0  0  0  0  0  0  0  0  0  0  0
    0.3602    3.1994   -0.8712 H   0  0  0  0  0  0  0  0  0  0  0  0
    1.2460    4.0561    0.9056 C   0  0  0  0  0  0  0  0  0  0  0  0
    0.5263    4.8803    0.9449 H   0  0  0  0  0  0  0  0  0  0  0  0
    1.4451    3.7356    1.9327 H   0  0  0  0  0  0  0  0  0  0  0  0
    2.5033    4.5058    0.2564 N   0  3  0  0  0  0  0  0  0  0  0  0
    2.3238    4.8136   -0.6912 H   0  0  0  0  0  0  0  0  0  0  0  0
    2.9130    5.2764    0.7695 H   0  0  0  0  0  0  0  0  0  0  0  0
    3.1763    3.7488    0.2254 H   0  0  0  0  0  0  0  0  0  0  0  0
   -0.5865    0.0771    2.2496 C   0  0  0  0  0  0  0  0  0  0  0  0
    0.5860   -0.1608    2.5143 O   0  0  0  0  0  0  0  0  0  0  0  0
   -1.4786    0.4656    3.1667 N   0  0  0  0  0  0  0  0  0  0  0  0
   -2.4139    0.6698    2.8558 H   0  0  0  0  0  0  0  0  0  0  0  0
   -1.1587    0.6908    4.5775 C   0  0  0  0  0  0  0  0  0  0  0  0
   -0.4270    1.4968    4.6656 H   0  0  0  0  0  0  0  0  0  0  0  0
   -2.0565    0.9649    5.1327 H   0  0  0  0  0  0  0  0  0  0  0  0
   -0.7281   -0.2137    5.0125 H   0  0  0  0  0  0  0  0  0  0  0  0
  5  6  2  0  0  0  0
  5  7  1  0  0  0  0
  2  3  1  0  0  0  0
  2  4  1  0  0  0  0
  2  5  1  0  0  0  0
  1  2  1  0  0  0  0
 27 28  2  0  0  0  0
 27 29  1  0  0  0  0
 23 24  1  0  0  0  0
 23 25  1  0  0  0  0
 23 26  1  0  0  0  0
 20 21  1  0  0  0  0
 20 22  1  0  0  0  0
 20 23  1  0  0  0  0
 17 18  1  0  0  0  0
 17 19  1  0  0  0  0
 17 20  1  0  0  0  0
 14 15  1  0  0  0  0
 14 16  1  0  0  0  0
 14 17  1  0  0  0  0
 11 12  1  0  0  0  0
 11 13  1  0  0  0  0
 11 14  1  0  0  0  0
  9 10  1  0  0  0  0
  9 11  1  0  0  0  0
  9 27  1  0  0  0  0
  7  8  1  0  0  0  0
  7  9  1  0  0  0  0
 31 32  1  0  0  0  0
 31 33  1  0  0  0  0
 31 34  1  0  0  0  0
 29 30  1  0  0  0  0
 29 31  1  0  0  0  0
M  CHG  1  23   1
M  END
$$$$
default_name
  -OEChem-02102213163D

 34 33  0     1  0  0  0  0  0999 V2000
   -3.8899   -3.6747    1.6490 H   0  0  0  0  0  0  0  0  0  0  0  0
   -3.9109   -2.6717    1.2250 C   0  0  0  0  0  0  0  0  0  0  0  0
   -4.6009   -2.0517    1.7950 H   0  0  0  0  0  0  0  0  0  0  0  0
   -4.2309   -2.7237    0.1860 H   0  0  0  0  0  0  0  0  0  0  0  0
   -2.5229   -2.0787    1.2980 C   0  0  0  0  0  0  0  0  0  0  0  0
   -1.5999   -2.7227    1.7810 O   0  0  0  0  0  0  0  0  0  0  0  0
   -2.3659   -0.8447    0.8120 N   0  0  0  0  0  0  0  0  0  0  0  0
   -3.1749   -0.3807    0.4220 H   0  0  0  0  0  0  0  0  0  0  0  0
   -1.0919   -0.1077    0.8170 C   0  0  1  0  0  0  0  0  0  0  0  0
   -0.3571   -0.6901    0.2581 H   0  0  0  0  0  0  0  0  0  0  0  0
   -1.3037    1.2411    0.1040 C   0  0  0  0  0  0  0  0  0  0  0  0
   -0.8529    1.1844   -0.8880 H   0  0  0  0  0  0  0  0  0  0  0  0
   -2.3741    1.4180   -0.0184 H   0  0  0  0  0  0  0  0  0  0  0  0
   -0.6771    2.4276    0.8521 C   0  0  0  0  0  0  0  0  0  0  0  0
   -1.4538    3.1459    1.1181 H   0  0  0  0  0  0  0  0  0  0  0  0
   -0.1990    2.0654    1.7643 H   0  0  0  0  0  0  0  0  0  0  0  0
    0.3704    3.1222   -0.0291 C   0  0  0  0  0  0  0  0  0  0  0  0
    1.1389    2.3965   -0.3061 H   0  0  0  0  0  0  0  0  0  0  0  0
   -0.1144    3.4905   -0.9353 H   0  0  0  0  0  0  0  0  0  0  0  0
    1.0147    4.2918    0.7256 C   0  0  0  0  0  0  0  0  0  0  0  0
    0.2286    5.0025    1.0005 H   0  0  0  0  0  0  0  0  0  0  0  0
    1.4573    3.9077    1.6496 H   0  0  0  0  0  0  0  0  0  0  0  0
    2.0503    4.9675   -0.0963 N   0  3  0  0  0  0  0  0  0  0  0  0
    1.6445    5.3343   -0.9481 H   0  0  0  0  0  0  0  0  0  0  0  0
    2.4655    5.7359    0.4156 H   0  0  0  0  0  0  0  0  0  0  0  0
    2.7850    4.3158   -0.3461 H   0  0  0  0  0  0  0  0  0  0  0  0
   -0.5865    0.0771    2.2496 C   0  0  0  0  0  0  0  0  0  0  0  0
    0.5860   -0.1608    2.5143 O   0  0  0  0  0  0  0  0  0  0  0  0
   -1.4786    0.4656    3.1667 N   0  0  0  0  0  0  0  0  0  0  0  0
   -2.4139    0.6698    2.8558 H   0  0  0  0  0  0  0  0  0  0  0  0
   -1.1587    0.6908    4.5775 C   0  0  0  0  0  0  0  0  0  0  0  0
   -0.4270    1.4968    4.6656 H   0  0  0  0  0  0  0  0  0  0  0  0
   -2.0565    0.9649    5.1327 H   0  0  0  0  0  0  0  0  0  0  0  0
   -0.7281   -0.2137    5.0125 H   0  0  0  0  0  0  0  0  0  0  0  0
  5  6  2  0  0  0  0
  5  7  1  0  0  0  0
  2  3  1  0  0  0  0
  2  4  1  0  0  0  0
  2  5  1  0  0  0  0
  1  2  1  0  0  0  0
 27 28  2  0  0  0  0
 27 29  1  0  0  0  0
 23 24  1  0  0  0  0
 23 25  1  0  0  0  0
 23 26  1  0  0  0  0
 20 21  1  0  0  0  0
 20 22  1  0  0  0  0
 20 23  1  0  0  0  0
 17 18  1  0  0  0  0
 17 19  1  0  0  0  0
 17 20  1  0  0  0  0
 14 15  1  0  0  0  0
 14 16  1  0  0  0  0
 14 17  1  0  0  0  0
 11 12  1  0  0  0  0
 11 13  1  0  0  0  0
 11 14  1  0  0  0  0
  9 10  1  0  0  0  0
  9 11  1  0  0  0  0
  9 27  1  0  0  0  0
  7  8  1  0  0  0  0
  7  9  1  0  0  0  0
 31 32  1  0  0  0  0
 31 33  1  0  0  0  0
 31 34  1  0  0  0  0
 29 30  1  0  0  0  0
 29 31  1  0  0  0  0
M  CHG  1  23   1
M  END
$$$$
default_name
  -OEChem-02102213163D

 34 33  0     1  0  0  0  0  0999 V2000
   -3.8899   -3.6747    1.6490 H   0  0  0  0  0  0  0  0  0  0  0  0
   -3.9109   -2.6717    1.2250 C   0  0  0  0  0  0  0  0  0  0  0  0
   -4.6009   -2.0517    1.7950 H   0  0  0  0  0  0  0  0  0  0  0  0
   -4.2309   -2.7237    0.1860 H   0  0  0  0  0  0  0  0  0  0  0  0
   -2.5229   -2.0787    1.2980 C   0  0  0  0  0  0  0  0  0  0  0  0
   -1.5999   -2.7227    1.7810 O   0  0  0  0  0  0  0  0  0  0  0  0
   -2.3659   -0.8447    0.8120 N   0  0  0  0  0  0  0  0  0  0  0  0
   -3.1749   -0.3807    0.4220 H   0  0  0  0  0  0  0  0  0  0  0  0
   -1.0919   -0.1077    0.8170 C   0  0  1  0  0  0  0  0  0  0  0  0
   -0.3571   -0.6901    0.2581 H   0  0  0  0  0  0  0  0  0  0  0  0
   -1.3037    1.2411    0.1040 C   0  0  0  0  0  0  0  0  0  0  0  0
   -0.8529    1.1844   -0.8880 H   0  0  0  0  0  0  0  0  0  0  0  0
   -2.3741    1.4180   -0.0184 H   0  0  0  0  0  0  0  0  0  0  0  0
   -0.6771    2.4276    0.8521 C   0  0  0  0  0  0  0  0  0  0  0  0
   -1.4596    3.0051    1.3462 H   0  0  0  0  0  0  0  0  0  0  0  0
    0.0177    2.0512    1.6054 H   0  0  0  0  0  0  0  0  0  0  0  0
    0.0785    3.3376   -0.1262 C   0  0  0  0  0  0  0  0  0  0  0  0
    0.8516    2.7528   -0.6304 H   0  0  0  0  0  0  0  0  0  0  0  0
   -0.6224    3.7187   -0.8717 H   0  0  0  0  0  0  0  0  0  0  0  0
    0.7256    4.5092    0.6228 C   0  0  0  0  0  0  0  0  0  0  0  0
   -0.0634    5.0772    1.1266 H   0  0  0  0  0  0  0  0  0  0  0  0
    1.3908    4.1052    1.3919 H   0  0  0  0  0  0  0  0  0  0  0  0
    1.4840    5.3935   -0.2977 N   0  3  0  0  0  0  0  0  0  0  0  0
    0.8714    5.7789   -1.0056 H   0  0  0  0  0  0  0  0  0  0  0  0
    1.9046    6.1607    0.2117 H   0  0  0  0  0  0  0  0  0  0  0  0
    2.2213    4.8744   -0.7600 H   0  0  0  0  0  0  0  0  0  0  0  0
   -0.5865    0.0771    2.2496 C   0  0  0  0  0  0  0  0  0  0  0  0
    0.5860   -0.1608    2.5143 O   0  0  0  0  0  0  0  0  0  0  0  0
   -1.4786    0.4656    3.1667 N   0  0  0  0  0  0  0  0  0  0  0  0
   -2.4139    0.6698    2.8558 H   0  0  0  0  0  0  0  0  0  0  0  0
   -1.1587    0.6908    4.5775 C   0  0  0  0  0  0  0  0  0  0  0  0
   -0.4270    1.4968    4.6656 H   0  0  0  0  0  0  0  0  0  0  0  0
   -2.0565    0.9649    5.1327 H   0  0  0  0  0  0  0  0  0  0  0  0
   -0.7281   -0.2137    5.0125 H   0  0  0  0  0  0  0  0  0  0  0  0
  5  6  2  0  0  0  0
  5  7  1  0  0  0  0
  2  3  1  0  0  0  0
  2  4  1  0  0  0  0
  2  5  1  0  0  0  0
  1  2  1  0  0  0  0
 27 28  2  0  0  0  0
 27 29  1  0  0  0  0
 23 24  1  0  0  0  0
 23 25  1  0  0  0  0
 23 26  1  0  0  0  0
 20 21  1  0  0  0  0
 20 22  1  0  0  0  0
 20 23  1  0  0  0  0
 17 18  1  0  0  0  0
 17 19  1  0  0  0  0
 17 20  1  0  0  0  0
 14 15  1  0  0  0  0
 14 16  1  0  0  0  0
 14 17  1  0  0  0  0
 11 12  1  0  0  0  0
 11 13  1  0  0  0  0
 11 14  1  0  0  0  0
  9 10  1  0  0  0  0
  9 11  1  0  0  0  0
  9 27  1  0  0  0  0
  7  8  1  0  0  0  0
  7  9  1  0  0  0  0
 31 32  1  0  0  0  0
 31 33  1  0  0  0  0
 31 34  1  0  0  0  0
 29 30  1  0  0  0  0
 29 31  1  0  0  0  0
M  CHG  1  23   1
M  END
$$$$
default_name
  -OEChem-02102213163D

 34 33  0     1  0  0  0  0  0999 V2000
   -3.8899   -3.6747    1.6490 H   0  0  0  0  0  0  0  0  0  0  0  0
   -3.9109   -2.6717    1.2250 C   0  0  0  0  0  0  0  0  0  0  0  0
   -4.6009   -2.0517    1.7950 H   0  0  0  0  0  0  0  0  0  0  0  0
   -4.2309   -2.7237    0.1860 H   0  0  0  0  0  0  0  0  0  0  0  0
   -2.5229   -2.0787    1.2980 C   0  0  0  0  0  0  0  0  0  0  0  0
   -1.5999   -2.7227    1.7810 O   0  0  0  0  0  0  0  0  0  0  0  0
   -2.3659   -0.8447    0.8120 N   0  0  0  0  0  0  0  0  0  0  0  0
   -3.1749   -0.3807    0.4220 H   0  0  0  0  0  0  0  0  0  0  0  0
   -1.0919   -0.1077    0.8170 C   0  0  1  0  0  0  0  0  0  0  0  0
   -0.3571   -0.6901    0.2581 H   0  0  0  0  0  0  0  0  0  0  0  0
   -1.3037    1.2411    0.1040 C   0  0  0  0  0  0  0  0  0  0  0  0
   -0.8529    1.1844   -0.8880 H   0  0  0  0  0  0  0  0  0  0  0  0
   -2.3741    1.4180   -0.0184 H   0  0  0  0  0  0  0  0  0  0  0  0
   -0.6771    2.4276    0.8521 C   0  0  0  0  0  0  0  0  0  0  0  0
   -1.4018    2.8443    1.5529 H   0  0  0  0  0  0  0  0  0  0  0  0
    0.1971    2.0815    1.4071 H   0  0  0  0  0  0  0  0  0  0  0  0
   -0.2501    3.5192   -0.1390 C   0  0  0  0  0  0  0  0  0  0  0  0
    0.4643    3.0949   -0.8486 H   0  0  0  0  0  0  0  0  0  0  0  0
   -1.1290    3.8683   -0.6846 H   0  0  0  0  0  0  0  0  0  0  0  0
    0.3983    4.6937    0.6043 C   0  0  0  0  0  0  0  0  0  0  0  0
   -0.3296    5.0993    1.3146 H   0  0  0  0  0  0  0  0  0  0  0  0
    1.2502    4.3149    1.1771 H   0  0  0  0  0  0  0  0  0  0  0  0
    0.8430    5.7550   -0.3340 N   0  3  0  0  0  0  0  0  0  0  0  0
    0.0571    6.1169   -0.8596 H   0  0  0  0  0  0  0  0  0  0  0  0
    1.2685    6.5219    0.1717 H   0  0  0  0  0  0  0  0  0  0  0  0
    1.5237    5.3867   -0.9882 H   0  0  0  0  0  0  0  0  0  0  0  0
   -0.5865    0.0771    2.2496 C   0  0  0  0  0  0  0  0  0  0  0  0
    0.5860   -0.1608    2.5143 O   0  0  0  0  0  0  0  0  0  0  0  0
   -1.4786    0.4656    3.1667 N   0  0  0  0  0  0  0  0  0  0  0  0
   -2.4139    0.6698    2.8558 H   0  0  0  0  0  0  0  0  0  0  0  0
   -1.1587    0.6908    4.5775 C   0  0  0  0  0  0  0  0  0  0  0  0
   -0.4270    1.4968    4.6656 H   0  0  0  0  0  0  0  0  0  0  0  0
   -2.0565    0.9649    5.1327 H   0  0  0  0  0  0  0  0  0  0  0  0
   -0.7281   -0.2137    5.0125 H   0  0  0  0  0  0  0  0  0  0  0  0
  5  6  2  0  0  0  0
  5  7  1  0  0  0  0
  2  3  1  0  0  0  0
  2  4  1  0  0  0  0
  2  5  1  0  0  0  0
  1  2  1  0  0  0  0
 27 28  2  0  0  0  0
 27 29  1  0  0  0  0
 23 24  1  0  0  0  0
 23 25  1  0  0  0  0
 23 26  1  0  0  0  0
 20 21  1  0  0  0  0
 20 22  1  0  0  0  0
 20 23  1  0  0  0  0
 17 18  1  0  0  0  0
 17 19  1  0  0  0  0
 17 20  1  0  0  0  0
 14 15  1  0  0  0  0
 14 16  1  0  0  0  0
 14 17  1  0  0  0  0
 11 12  1  0  0  0  0
 11 13  1  0  0  0  0
 11 14  1  0  0  0  0
  9 10  1  0  0  0  0
  9 11  1  0  0  0  0
  9 27  1  0  0  0  0
  7  8  1  0  0  0  0
  7  9  1  0  0  0  0
 31 32  1  0  0  0  0
 31 33  1  0  0  0  0
 31 34  1  0  0  0  0
 29 30  1  0  0  0  0
 29 31  1  0  0  0  0
M  CHG  1  23   1
M  END
$$$$
default_name
  -OEChem-02102213163D

 34 33  0     1  0  0  0  0  0999 V2000
   -3.8899   -3.6747    1.6490 H   0  0  0  0  0  0  0  0  0  0  0  0
   -3.9109   -2.6717    1.2250 C   0  0  0  0  0  0  0  0  0  0  0  0
   -4.6009   -2.0517    1.7950 H   0  0  0  0  0  0  0  0  0  0  0  0
   -4.2309   -2.7237    0.1860 H   0  0  0  0  0  0  0  0  0  0  0  0
   -2.5229   -2.0787    1.2980 C   0  0  0  0  0  0  0  0  0  0  0  0
   -1.5999   -2.7227    1.7810 O   0  0  0  0  0  0  0  0  0  0  0  0
   -2.3659   -0.8447    0.8120 N   0  0  0  0  0  0  0  0  0  0  0  0
   -3.1749   -0.3807    0.4220 H   0  0  0  0  0  0  0  0  0  0  0  0
   -1.0919   -0.1077    0.8170 C   0  0  1  0  0  0  0  0  0  0  0  0
   -0.3571   -0.6901    0.2581 H   0  0  0  0  0  0  0  0  0  0  0  0
   -1.3037    1.2411    0.1040 C   0  0  0  0  0  0  0  0  0  0  0  0
   -0.8529    1.1844   -0.8880 H   0  0  0  0  0  0  0  0  0  0  0  0
   -2.3741    1.4180   -0.0184 H   0  0  0  0  0  0  0  0  0  0  0  0
   -0.6771    2.4276    0.8521 C   0  0  0  0  0  0  0  0  0  0  0  0
   -1.2844    2.6744    1.7239 H   0  0  0  0  0  0  0  0  0  0  0  0
    0.3268    2.1543    1.1828 H   0  0  0  0  0  0  0  0  0  0  0  0
   -0.5929    3.6545   -0.0665 C   0  0  0  0  0  0  0  0  0  0  0  0
    0.0035    3.3995   -0.9458 H   0  0  0  0  0  0  0  0  0  0  0  0
   -1.5999    3.9292   -0.3868 H   0  0  0  0  0  0  0  0  0  0  0  0
    0.0553    4.8326    0.6714 C   0  0  0  0  0  0  0  0  0  0  0  0
   -0.5519    5.0671    1.5517 H   0  0  0  0  0  0  0  0  0  0  0  0
    1.0450    4.5224    1.0199 H   0  0  0  0  0  0  0  0  0  0  0  0
    0.1711    6.0271   -0.2028 N   0  3  0  0  0  0  0  0  0  0  0  0
   -0.7429    6.3253   -0.5201 H   0  0  0  0  0  0  0  0  0  0  0  0
    0.6006    6.7948    0.2983 H   0  0  0  0  0  0  0  0  0  0  0  0
    0.7397    5.8177   -1.0150 H   0  0  0  0  0  0  0  0  0  0  0  0
   -0.5865    0.0771    2.2496 C   0  0  0  0  0  0  0  0  0  0  0  0
    0.5860   -0.1608    2.5143 O   0  0  0  0  0  0  0  0  0  0  0  0
   -1.4786    0.4656    3.1667 N   0  0  0  0  0  0  0  0  0  0  0  0
   -2.4139    0.6698    2.8558 H   0  0  0  0  0  0  0  0  0  0  0  0
   -1.1587    0.6908    4.5775 C   0  0  0  0  0  0  0  0  0  0  0  0
   -0.4270    1.4968    4.6656 H   0  0  0  0  0  0  0  0  0  0  0  0
   -2.0565    0.9649    5.1327 H   0  0  0  0  0  0  0  0  0  0  0  0
   -0.7281   -0.2137    5.0125 H   0  0  0  0  0  0  0  0  0  0  0  0
  5  6  2  0  0  0  0
  5  7  1  0  0  0  0
  2  3  1  0  0  0  0
  2  4  1  0  0  0  0
  2  5  1  0  0  0  0
  1  2  1  0  0  0  0
 27 28  2  0  0  0  0
 27 29  1  0  0  0  0
 23 24  1  0  0  0  0
 23 25  1  0  0  0  0
 23 26  1  0  0  0  0
 20 21  1  0  0  0  0
 20 22  1  0  0  0  0
 20 23  1  0  0  0  0
 17 18  1  0  0  0  0
 17 19  1  0  0  0  0
 17 20  1  0  0  0  0
 14 15  1  0  0  0  0
 14 16  1  0  0  0  0
 14 17  1  0  0  0  0
 11 12  1  0  0  0  0
 11 13  1  0  0  0  0
 11 14  1  0  0  0  0
  9 10  1  0  0  0  0
  9 11  1  0  0  0  0
  9 27  1  0  0  0  0
  7  8  1  0  0  0  0
  7  9  1  0  0  0  0
 31 32  1  0  0  0  0
 31 33  1  0  0  0  0
 31 34  1  0  0  0  0
 29 30  1  0  0  0  0
 29 31  1  0  0  0  0
M  CHG  1  23   1
M  END
$$$$
default_name
  -OEChem-02102213163D

 34 33  0     1  0  0  0  0  0999 V2000
   -3.8899   -3.6747    1.6490 H   0  0  0  0  0  0  0  0  0  0  0  0
   -3.9109   -2.6717    1.2250 C   0  0  0  0  0  0  0  0  0  0  0  0
   -4.6009   -2.0517    1.7950 H   0  0  0  0  0  0  0  0  0  0  0  0
   -4.2309   -2.7237    0.1860 H   0  0  0  0  0  0  0  0  0  0  0  0
   -2.5229   -2.0787    1.2980 C   0  0  0  0  0  0  0  0  0  0  0  0
   -1.5999   -2.7227    1.7810 O   0  0  0  0  0  0  0  0  0  0  0  0
   -2.3659   -0.8447    0.8120 N   0  0  0  0  0  0  0  0  0  0  0  0
   -3.1749   -0.3807    0.4220 H   0  0  0  0  0  0  0  0  0  0  0  0
   -1.0919   -0.1077    0.8170 C   0  0  1  0  0  0  0  0  0  0  0  0
   -0.3571   -0.6901    0.2581 H   0  0  0  0  0  0  0  0  0  0  0  0
   -1.3037    1.2411    0.1040 C   0  0  0  0  0  0  0  0  0  0  0  0
   -1.1016    1.1074   -0.9599 H   0  0  0  0  0  0  0  0  0  0  0  0
   -2.3459    1.5465    0.2164 H   0  0  0  0  0  0  0  0  0  0  0  0
   -0.3895    2.3569    0.6328 C   0  0  0  0  0  0  0  0  0  0  0  0
   -0.5763    2.5117    1.6963 H   0  0  0  0  0  0  0  0  0  0  0  0
    0.6529    2.0641    0.4928 H   0  0  0  0  0  0  0  0  0  0  0  0
   -0.6547    3.6674   -0.1210 C   0  0  0  0  0  0  0  0  0  0  0  0
   -0.4813    3.5051   -1.1875 H   0  0  0  0  0  0  0  0  0  0  0  0
   -1.6956    3.9606    0.0298 H   0  0  0  0  0  0  0  0  0  0  0  0
    0.2746    4.7760    0.3889 C   0  0  0  0  0  0  0  0  0  0  0  0
    0.0912    4.9178    1.4589 H   0  0  0  0  0  0  0  0  0  0  0  0
    1.3103    4.4447    0.2674 H   0  0  0  0  0  0  0  0  0  0  0  0
    0.0555    6.0505   -0.3407 N   0  3  0  0  0  0  0  0  0  0  0  0
   -0.8987    6.3677   -0.2234 H   0  0  0  0  0  0  0  0  0  0  0  0
    0.6760    6.7709    0.0070 H   0  0  0  0  0  0  0  0  0  0  0  0
    0.2326    5.9267   -1.3308 H   0  0  0  0  0  0  0  0  0  0  0  0
   -0.5865    0.0771    2.2496 C   0  0  0  0  0  0  0  0  0  0  0  0
    0.5860   -0.1608    2.5143 O   0  0  0  0  0  0  0  0  0  0  0  0
   -1.4786    0.4656    3.1667 N   0  0  0  0  0  0  0  0  0  0  0  0
   -2.4139    0.6698    2.8558 H   0  0  0  0  0  0  0  0  0  0  0  0
   -1.1587    0.6908    4.5775 C   0  0  0  0  0  0  0  0  0  0  0  0
   -0.4270    1.4968    4.6656 H   0  0  0  0  0  0  0  0  0  0  0  0
   -2.0565    0.9649    5.1327 H   0  0  0  0  0  0  0  0  0  0  0  0
   -0.7281   -0.2137    5.0125 H   0  0  0  0  0  0  0  0  0  0  0  0
  5  6  2  0  0  0  0
  5  7  1  0  0  0  0
  2  3  1  0  0  0  0
  2  4  1  0  0  0  0
  2  5  1  0  0  0  0
  1  2  1  0  0  0  0
 27 28  2  0  0  0  0
 27 29  1  0  0  0  0
 23 24  1  0  0  0  0
 23 25  1  0  0  0  0
 23 26  1  0  0  0  0
 20 21  1  0  0  0  0
 20 22  1  0  0  0  0
 20 23  1  0  0  0  0
 17 18  1  0  0  0  0
 17 19  1  0  0  0  0
 17 20  1  0  0  0  0
 14 15  1  0  0  0  0
 14 16  1  0  0  0  0
 14 17  1  0  0  0  0
 11 12  1  0  0  0  0
 11 13  1  0  0  0  0
 11 14  1  0  0  0  0
  9 10  1  0  0  0  0
  9 11  1  0  0  0  0
  9 27  1  0  0  0  0
  7  8  1  0  0  0  0
  7  9  1  0  0  0  0
 31 32  1  0  0  0  0
 31 33  1  0  0  0  0
 31 34  1  0  0  0  0
 29 30  1  0  0  0  0
 29 31  1  0  0  0  0
M  CHG  1  23   1
M  END
$$$$
default_name
  -OEChem-02102213163D

 34 33  0     1  0  0  0  0  0999 V2000
   -3.8899   -3.6747    1.6490 H   0  0  0  0  0  0  0  0  0  0  0  0
   -3.9109   -2.6717    1.2250 C   0  0  0  0  0  0  0  0  0  0  0  0
   -4.6009   -2.0517    1.7950 H   0  0  0  0  0  0  0  0  0  0  0  0
   -4.2309   -2.7237    0.1860 H   0  0  0  0  0  0  0  0  0  0  0  0
   -2.5229   -2.0787    1.2980 C   0  0  0  0  0  0  0  0  0  0  0  0
   -1.5999   -2.7227    1.7810 O   0  0  0  0  0  0  0  0  0  0  0  0
   -2.3659   -0.8447    0.8120 N   0  0  0  0  0  0  0  0  0  0  0  0
   -3.1749   -0.3807    0.4220 H   0  0  0  0  0  0  0  0  0  0  0  0
   -1.0919   -0.1077    0.8170 C   0  0  1  0  0  0  0  0  0  0  0  0
   -0.3571   -0.6901    0.2581 H   0  0  0  0  0  0  0  0  0  0  0  0
   -1.3037    1.2411    0.1040 C   0  0  0  0  0  0  0  0  0  0  0  0
   -1.1016    1.1074   -0.9599 H   0  0  0  0  0  0  0  0  0  0  0  0
   -2.3459    1.5465    0.2164 H   0  0  0  0  0  0  0  0  0  0  0  0
   -0.3895    2.3569    0.6328 C   0  0  0  0  0  0  0  0  0  0  0  0
   -0.3763    2.3351    1.7233 H   0  0  0  0  0  0  0  0  0  0  0  0
    0.6244    2.1973    0.2608 H   0  0  0  0  0  0  0  0  0  0  0  0
   -0.8933    3.7285    0.1627 C   0  0  0  0  0  0  0  0  0  0  0  0
   -0.9196    3.7419   -0.9296 H   0  0  0  0  0  0  0  0  0  0  0  0
   -1.9036    3.8869    0.5450 H   0  0  0  0  0  0  0  0  0  0  0  0
    0.0325    4.8415    0.6692 C   0  0  0  0  0  0  0  0  0  0  0  0
    0.0512    4.8063    1.7633 H   0  0  0  0  0  0  0  0  0  0  0  0
    1.0464    4.6407    0.3101 H   0  0  0  0  0  0  0  0  0  0  0  0
   -0.4188    6.1788    0.2083 N   0  3  0  0  0  0  0  0  0  0  0  0
   -1.3526    6.3749    0.5463 H   0  0  0  0  0  0  0  0  0  0  0  0
    0.2023    6.9015    0.5504 H   0  0  0  0  0  0  0  0  0  0  0  0
   -0.4293    6.2195   -0.8042 H   0  0  0  0  0  0  0  0  0  0  0  0
   -0.5865    0.0771    2.2496 C   0  0  0  0  0  0  0  0  0  0  0  0
    0.5860   -0.1608    2.5143 O   0  0  0  0  0  0  0  0  0  0  0  0
   -1.4786    0.4656    3.1667 N   0  0  0  0  0  0  0  0  0  0  0  0
   -2.4139    0.6698    2.8558 H   0  0  0  0  0  0  0  0  0  0  0  0
   -1.1587    0.6908    4.5775 C   0  0  0  0  0  0  0  0  0  0  0  0
   -0.4270    1.4968    4.6656 H   0  0  0  0  0  0  0  0  0  0  0  0
   -2.0565    0.9649    5.1327 H   0  0  0  0  0  0  0  0  0  0  0  0
   -0.7281   -0.2137    5.0125 H   0  0  0  0  0  0  0  0  0  0  0  0
  5  6  2  0  0  0  0
  5  7  1  0  0  0  0
  2  3  1  0  0  0  0
  2  4  1  0  0  0  0
  2  5  1  0  0  0  0
  1  2  1  0  0  0  0
 27 28  2  0  0  0  0
 27 29  1  0  0  0  0
 23 24  1  0  0  0  0
 23 25  1  0  0  0  0
 23 26  1  0  0  0  0
 20 21  1  0  0  0  0
 20 22  1  0  0  0  0
 20 23  1  0  0  0  0
 17 18  1  0  0  0  0
 17 19  1  0  0  0  0
 17 20  1  0  0  0  0
 14 15  1  0  0  0  0
 14 16  1  0  0  0  0
 14 17  1  0  0  0  0
 11 12  1  0  0  0  0
 11 13  1  0  0  0  0
 11 14  1  0  0  0  0
  9 10  1  0  0  0  0
  9 11  1  0  0  0  0
  9 27  1  0  0  0  0
  7  8  1  0  0  0  0
  7  9  1  0  0  0  0
 31 32  1  0  0  0  0
 31 33  1  0  0  0  0
 31 34  1  0  0  0  0
 29 30  1  0  0  0  0
 29 31  1  0  0  0  0
M  CHG  1  23   1
M  END
$$$$
default_name
  -OEChem-02102213163D

 34 33  0     1  0  0  0  0  0999 V2000
   -3.8899   -3.6747    1.6490 H   0  0  0  0  0  0  0  0  0  0  0  0
   -3.9109   -2.6717    1.2250 C   0  0  0  0  0  0  0  0  0  0  0  0
   -4.6009   -2.0517    1.7950 H   0  0  0  0  0  0  0  0  0  0  0  0
   -4.2309   -2.7237    0.1860 H   0  0  0  0  0  0  0  0  0  0  0  0
   -2.5229   -2.0787    1.2980 C   0  0  0  0  0  0  0  0  0  0  0  0
   -1.5999   -2.7227    1.7810 O   0  0  0  0  0  0  0  0  0  0  0  0
   -2.3659   -0.8447    0.8120 N   0  0  0  0  0  0  0  0  0  0  0  0
   -3.1749   -0.3807    0.4220 H   0  0  0  0  0  0  0  0  0  0  0  0
   -1.0919   -0.1077    0.8170 C   0  0  1  0  0  0  0  0  0  0  0  0
   -0.3571   -0.6901    0.2581 H   0  0  0  0  0  0  0  0  0  0  0  0
   -1.3037    1.2411    0.1040 C   0  0  0  0  0  0  0  0  0  0  0  0
   -1.1016    1.1074   -0.9599 H   0  0  0  0  0  0  0  0  0  0  0  0
   -2.3459    1.5465    0.2164 H   0  0  0  0  0  0  0  0  0  0  0  0
   -0.3895    2.3569    0.6328 C   0  0  0  0  0  0  0  0  0  0  0  0
   -0.1624    2.1781    1.6846 H   0  0  0  0  0  0  0  0  0  0  0  0
    0.5414    2.3593    0.0625 H   0  0  0  0  0  0  0  0  0  0  0  0
   -1.0758    3.7225    0.4909 C   0  0  0  0  0  0  0  0  0  0  0  0
   -1.3155    3.8919   -0.5616 H   0  0  0  0  0  0  0  0  0  0  0  0
   -2.0012    3.7179    1.0703 H   0  0  0  0  0  0  0  0  0  0  0  0
   -0.1544    4.8400    0.9955 C   0  0  0  0  0  0  0  0  0  0  0  0
    0.0798    4.6481    2.0477 H   0  0  0  0  0  0  0  0  0  0  0  0
    0.7821    4.7999    0.4311 H   0  0  0  0  0  0  0  0  0  0  0  0
   -0.7851    6.1760    0.8475 N   0  3  0  0  0  0  0  0  0  0  0  0
   -1.6471    6.2228    1.3763 H   0  0  0  0  0  0  0  0  0  0  0  0
   -0.1647    6.9017    1.1844 H   0  0  0  0  0  0  0  0  0  0  0  0
   -0.9958    6.3622   -0.1260 H   0  0  0  0  0  0  0  0  0  0  0  0
   -0.5865    0.0771    2.2496 C   0  0  0  0  0  0  0  0  0  0  0  0
    0.5860   -0.1608    2.5143 O   0  0  0  0  0  0  0  0  0  0  0  0
   -1.4786    0.4656    3.1667 N   0  0  0  0  0  0  0  0  0  0  0  0
   -2.4139    0.6698    2.8558 H   0  0  0  0  0  0  0  0  0  0  0  0
   -1.1587    0.6908    4.5775 C   0  0  0  0  0  0  0  0  0  0  0  0
   -0.4270    1.4968    4.6656 H   0  0  0  0  0  0  0  0  0  0  0  0
   -2.0565    0.9649    5.1327 H   0  0  0  0  0  0  0  0  0  0  0  0
   -0.7281   -0.2137    5.0125 H   0  0  0  0  0  0  0  0  0  0  0  0
  5  6  2  0  0  0  0
  5  7  1  0  0  0  0
  2  3  1  0  0  0  0
  2  4  1  0  0  0  0
  2  5  1  0  0  0  0
  1  2  1  0  0  0  0
 27 28  2  0  0  0  0
 27 29  1  0  0  0  0
 23 24  1  0  0  0  0
 23 25  1  0  0  0  0
 23 26  1  0  0  0  0
 20 21  1  0  0  0  0
 20 22  1  0  0  0  0
 20 23  1  0  0  0  0
 17 18  1  0  0  0  0
 17 19  1  0  0  0  0
 17 20  1  0  0  0  0
 14 15  1  0  0  0  0
 14 16  1  0  0  0  0
 14 17  1  0  0  0  0
 11 12  1  0  0  0  0
 11 13  1  0  0  0  0
 11 14  1  0  0  0  0
  9 10  1  0  0  0  0
  9 11  1  0  0  0  0
  9 27  1  0  0  0  0
  7  8  1  0  0  0  0
  7  9  1  0  0  0  0
 31 32  1  0  0  0  0
 31 33  1  0  0  0  0
 31 34  1  0  0  0  0
 29 30  1  0  0  0  0
 29 31  1  0  0  0  0
M  CHG  1  23   1
M  END
$$$$
default_name
  -OEChem-02102213163D

 34 33  0     1  0  0  0  0  0999 V2000
   -3.8899   -3.6747    1.6490 H   0  0  0  0  0  0  0  0  0  0  0  0
   -3.9109   -2.6717    1.2250 C   0  0  0  0  0  0  0  0  0  0  0  0
   -4.6009   -2.0517    1.7950 H   0  0  0  0  0  0  0  0  0  0  0  0
   -4.2309   -2.7237    0.1860 H   0  0  0  0  0  0  0  0  0  0  0  0
   -2.5229   -2.0787    1.2980 C   0  0  0  0  0  0  0  0  0  0  0  0
   -1.5999   -2.7227    1.7810 O   0  0  0  0  0  0  0  0  0  0  0  0
   -2.3659   -0.8447    0.8120 N   0  0  0  0  0  0  0  0  0  0  0  0
   -3.1749   -0.3807    0.4220 H   0  0  0  0  0  0  0  0  0  0  0  0
   -1.0919   -0.1077    0.8170 C   0  0  1  0  0  0  0  0  0  0  0  0
   -0.3571   -0.6901    0.2581 H   0  0  0  0  0  0  0  0  0  0  0  0
   -1.3037    1.2411    0.1040 C   0  0  0  0  0  0  0  0  0  0  0  0
   -1.1016    1.1074   -0.9599 H   0  0  0  0  0  0  0  0  0  0  0  0
   -2.3459    1.5465    0.2164 H   0  0  0  0  0  0  0  0  0  0  0  0
   -0.3895    2.3569    0.6328 C   0  0  0  0  0  0  0  0  0  0  0  0
    0.0509    2.0516    1.5829 H   0  0  0  0  0  0  0  0  0  0  0  0
    0.4096    2.5389   -0.0885 H   0  0  0  0  0  0  0  0  0  0  0  0
   -1.1899    3.6499    0.8413 C   0  0  0  0  0  0  0  0  0  0  0  0
   -1.6421    3.9448   -0.1087 H   0  0  0  0  0  0  0  0  0  0  0  0
   -1.9817    3.4650    1.5701 H   0  0  0  0  0  0  0  0  0  0  0  0
   -0.2735    4.7717    1.3457 C   0  0  0  0  0  0  0  0  0  0  0  0
    0.1749    4.4541    2.2927 H   0  0  0  0  0  0  0  0  0  0  0  0
    0.5353    4.9115    0.6221 H   0  0  0  0  0  0  0  0  0  0  0  0
   -1.0185    6.0422    1.5334 N   0  3  0  0  0  0  0  0  0  0  0  0
   -1.7619    5.9218    2.2099 H   0  0  0  0  0  0  0  0  0  0  0  0
   -0.4001    6.7716    1.8658 H   0  0  0  0  0  0  0  0  0  0  0  0
   -1.4282    6.3452    0.6575 H   0  0  0  0  0  0  0  0  0  0  0  0
   -0.5865    0.0771    2.2496 C   0  0  0  0  0  0  0  0  0  0  0  0
    0.5860   -0.1608    2.5143 O   0  0  0  0  0  0  0  0  0  0  0  0
   -1.4786    0.4656    3.1667 N   0  0  0  0  0  0  0  0  0  0  0  0
   -2.4139    0.6698    2.8558 H   0  0  0  0  0  0  0  0  0  0  0  0
   -1.1587    0.6908    4.5775 C   0  0  0  0  0  0  0  0  0  0  0  0
   -0.4270    1.4968    4.6656 H   0  0  0  0  0  0  0  0  0  0  0  0
   -2.0565    0.9649    5.1327 H   0  0  0  0  0  0  0  0  0  0  0  0
   -0.7281   -0.2137    5.0125 H   0  0  0  0  0  0  0  0  0  0  0  0
  5  6  2  0  0  0  0
  5  7  1  0  0  0  0
  2  3  1  0  0  0  0
  2  4  1  0  0  0  0
  2  5  1  0  0  0  0
  1  2  1  0  0  0  0
 27 28  2  0  0  0  0
 27 29  1  0  0  0  0
 23 24  1  0  0  0  0
 23 25  1  0  0  0  0
 23 26  1  0  0  0  0
 20 21  1  0  0  0  0
 20 22  1  0  0  0  0
 20 23  1  0  0  0  0
 17 18  1  0  0  0  0
 17 19  1  0  0  0  0
 17 20  1  0  0  0  0
 14 15  1  0  0  0  0
 14 16  1  0  0  0  0
 14 17  1  0  0  0  0
 11 12  1  0  0  0  0
 11 13  1  0  0  0  0
 11 14  1  0  0  0  0
  9 10  1  0  0  0  0
  9 11  1  0  0  0  0
  9 27  1  0  0  0  0
  7  8  1  0  0  0  0
  7  9  1  0  0  0  0
 31 32  1  0  0  0  0
 31 33  1  0  0  0  0
 31 34  1  0  0  0  0
 29 30  1  0  0  0  0
 29 31  1  0  0  0  0
M  CHG  1  23   1
M  END
$$$$
default_name
  -OEChem-02102213163D

 34 33  0     1  0  0  0  0  0999 V2000
   -3.8899   -3.6747    1.6490 H   0  0  0  0  0  0  0  0  0  0  0  0
   -3.9109   -2.6717    1.2250 C   0  0  0  0  0  0  0  0  0  0  0  0
   -4.6009   -2.0517    1.7950 H   0  0  0  0  0  0  0  0  0  0  0  0
   -4.2309   -2.7237    0.1860 H   0  0  0  0  0  0  0  0  0  0  0  0
   -2.5229   -2.0787    1.2980 C   0  0  0  0  0  0  0  0  0  0  0  0
   -1.5999   -2.7227    1.7810 O   0  0  0  0  0  0  0  0  0  0  0  0
   -2.3659   -0.8447    0.8120 N   0  0  0  0  0  0  0  0  0  0  0  0
   -3.1749   -0.3807    0.4220 H   0  0  0  0  0  0  0  0  0  0  0  0
   -1.0919   -0.1077    0.8170 C   0  0  1  0  0  0  0  0  0  0  0  0
   -0.3571   -0.6901    0.2581 H   0  0  0  0  0  0  0  0  0  0  0  0
   -1.3037    1.2411    0.1040 C   0  0  0  0  0  0  0  0  0  0  0  0
   -1.1016    1.1074   -0.9599 H   0  0  0  0  0  0  0  0  0  0  0  0
   -2.3459    1.5465    0.2164 H   0  0  0  0  0  0  0  0  0  0  0  0
   -0.3895    2.3569    0.6328 C   0  0  0  0  0  0  0  0  0  0  0  0
    0.2492    1.9640    1.4250 H   0  0  0  0  0  0  0  0  0  0  0  0
    0.2378    2.7238   -0.1818 H   0  0  0  0  0  0  0  0  0  0  0  0
   -1.2278    3.5156    1.1901 C   0  0  0  0  0  0  0  0  0  0  0  0
   -1.8771    3.8971    0.3984 H   0  0  0  0  0  0  0  0  0  0  0  0
   -1.8463    3.1455    2.0102 H   0  0  0  0  0  0  0  0  0  0  0  0
   -0.3167    4.6411    1.6957 C   0  0  0  0  0  0  0  0  0  0  0  0
    0.3301    4.2374    2.4815 H   0  0  0  0  0  0  0  0  0  0  0  0
    0.3229    4.9680    0.8703 H   0  0  0  0  0  0  0  0  0  0  0  0
   -1.1031    5.7866    2.2191 N   0  3  0  0  0  0  0  0  0  0  0  0
   -1.6893    5.4925    2.9903 H   0  0  0  0  0  0  0  0  0  0  0  0
   -0.4878    6.5201    2.5482 H   0  0  0  0  0  0  0  0  0  0  0  0
   -1.6971    6.1695    1.4929 H   0  0  0  0  0  0  0  0  0  0  0  0
   -0.5865    0.0771    2.2496 C   0  0  0  0  0  0  0  0  0  0  0  0
    0.5860   -0.1608    2.5143 O   0  0  0  0  0  0  0  0  0  0  0  0
   -1.4786    0.4656    3.1667 N   0  0  0  0  0  0  0  0  0  0  0  0
   -2.4139    0.6698    2.8558 H   0  0  0  0  0  0  0  0  0  0  0  0
   -1.1587    0.6908    4.5775 C   0  0  0  0  0  0  0  0  0  0  0  0
   -0.4270    1.4968    4.6656 H   0  0  0  0  0  0  0  0  0  0  0  0
   -2.0565    0.9649    5.1327 H   0  0  0  0  0  0  0  0  0  0  0  0
   -0.7281   -0.2137    5.0125 H   0  0  0  0  0  0  0  0  0  0  0  0
  5  6  2  0  0  0  0
  5  7  1  0  0  0  0
  2  3  1  0  0  0  0
  2  4  1  0  0  0  0
  2  5  1  0  0  0  0
  1  2  1  0  0  0  0
 27 28  2  0  0  0  0
 27 29  1  0  0  0  0
 23 24  1  0  0  0  0
 23 25  1  0  0  0  0
 23 26  1  0  0  0  0
 20 21  1  0  0  0  0
 20 22  1  0  0  0  0
 20 23  1  0  0  0  0
 17 18  1  0  0  0  0
 17 19  1  0  0  0  0
 17 20  1  0  0  0  0
 14 15  1  0  0  0  0
 14 16  1  0  0  0  0
 14 17  1  0  0  0  0
 11 12  1  0  0  0  0
 11 13  1  0  0  0  0
 11 14  1  0  0  0  0
  9 10  1  0  0  0  0
  9 11  1  0  0  0  0
  9 27  1  0  0  0  0
  7  8  1  0  0  0  0
  7  9  1  0  0  0  0
 31 32  1  0  0  0  0
 31 33  1  0  0  0  0
 31 34  1  0  0  0  0
 29 30  1  0  0  0  0
 29 31  1  0  0  0  0
M  CHG  1  23   1
M  END
$$$$
default_name
  -OEChem-02102213163D

 34 33  0     1  0  0  0  0  0999 V2000
   -3.8899   -3.6747    1.6490 H   0  0  0  0  0  0  0  0  0  0  0  0
   -3.9109   -2.6717    1.2250 C   0  0  0  0  0  0  0  0  0  0  0  0
   -4.6009   -2.0517    1.7950 H   0  0  0  0  0  0  0  0  0  0  0  0
   -4.2309   -2.7237    0.1860 H   0  0  0  0  0  0  0  0  0  0  0  0
   -2.5229   -2.0787    1.2980 C   0  0  0  0  0  0  0  0  0  0  0  0
   -1.5999   -2.7227    1.7810 O   0  0  0  0  0  0  0  0  0  0  0  0
   -2.3659   -0.8447    0.8120 N   0  0  0  0  0  0  0  0  0  0  0  0
   -3.1749   -0.3807    0.4220 H   0  0  0  0  0  0  0  0  0  0  0  0
   -1.0919   -0.1077    0.8170 C   0  0  1  0  0  0  0  0  0  0  0  0
   -0.3571   -0.6901    0.2581 H   0  0  0  0  0  0  0  0  0  0  0  0
   -1.3037    1.2411    0.1040 C   0  0  0  0  0  0  0  0  0  0  0  0
   -1.1016    1.1074   -0.9599 H   0  0  0  0  0  0  0  0  0  0  0  0
   -2.3459    1.5465    0.2164 H   0  0  0  0  0  0  0  0  0  0  0  0
   -0.3895    2.3569    0.6328 C   0  0  0  0  0  0  0  0  0  0  0  0
    0.4188    1.9213    1.2218 H   0  0  0  0  0  0  0  0  0  0  0  0
    0.0379    2.9016   -0.2113 H   0  0  0  0  0  0  0  0  0  0  0  0
   -1.1869    3.3289    1.5134 C   0  0  0  0  0  0  0  0  0  0  0  0
   -2.0046    3.7520    0.9250 H   0  0  0  0  0  0  0  0  0  0  0  0
   -1.6044    2.7812    2.3606 H   0  0  0  0  0  0  0  0  0  0  0  0
   -0.2809    4.4572    2.0219 C   0  0  0  0  0  0  0  0  0  0  0  0
    0.5348    4.0129    2.6014 H   0  0  0  0  0  0  0  0  0  0  0  0
    0.1594    4.9653    1.1586 H   0  0  0  0  0  0  0  0  0  0  0  0
   -1.0332    5.4265    2.8580 N   0  3  0  0  0  0  0  0  0  0  0  0
   -1.4343    4.9641    3.6644 H   0  0  0  0  0  0  0  0  0  0  0  0
   -0.4218    6.1642    3.1851 H   0  0  0  0  0  0  0  0  0  0  0  0
   -1.7842    5.8473    2.3234 H   0  0  0  0  0  0  0  0  0  0  0  0
   -0.5865    0.0771    2.2496 C   0  0  0  0  0  0  0  0  0  0  0  0
    0.5860   -0.1608    2.5143 O   0  0  0  0  0  0  0  0  0  0  0  0
   -1.4786    0.4656    3.1667 N   0  0  0  0  0  0  0  0  0  0  0  0
   -2.4139    0.6698    2.8558 H   0  0  0  0  0  0  0  0  0  0  0  0
   -1.1587    0.6908    4.5775 C   0  0  0  0  0  0  0  0  0  0  0  0
   -0.4270    1.4968    4.6656 H   0  0  0  0  0  0  0  0  0  0  0  0
   -2.0565    0.9649    5.1327 H   0  0  0  0  0  0  0  0  0  0  0  0
   -0.7281   -0.2137    5.0125 H   0  0  0  0  0  0  0  0  0  0  0  0
  5  6  2  0  0  0  0
  5  7  1  0  0  0  0
  2  3  1  0  0  0  0
  2  4  1  0  0  0  0
  2  5  1  0  0  0  0
  1  2  1  0  0  0  0
 27 28  2  0  0  0  0
 27 29  1  0  0  0  0
 23 24  1  0  0  0  0
 23 25  1  0  0  0  0
 23 26  1  0  0  0  0
 20 21  1  0  0  0  0
 20 22  1  0  0  0  0
 20 23  1  0  0  0  0
 17 18  1  0  0  0  0
 17 19  1  0  0  0  0
 17 20  1  0  0  0  0
 14 15  1  0  0  0  0
 14 16  1  0  0  0  0
 14 17  1  0  0  0  0
 11 12  1  0  0  0  0
 11 13  1  0  0  0  0
 11 14  1  0  0  0  0
  9 10  1  0  0  0  0
  9 11  1  0  0  0  0
  9 27  1  0  0  0  0
  7  8  1  0  0  0  0
  7  9  1  0  0  0  0
 31 32  1  0  0  0  0
 31 33  1  0  0  0  0
 31 34  1  0  0  0  0
 29 30  1  0  0  0  0
 29 31  1  0  0  0  0
M  CHG  1  23   1
M  END
$$$$
default_name
  -OEChem-02102213163D

 34 33  0     1  0  0  0  0  0999 V2000
   -3.8899   -3.6747    1.6490 H   0  0  0  0  0  0  0  0  0  0  0  0
   -3.9109   -2.6717    1.2250 C   0  0  0  0  0  0  0  0  0  0  0  0
   -4.6009   -2.0517    1.7950 H   0  0  0  0  0  0  0  0  0  0  0  0
   -4.2309   -2.7237    0.1860 H   0  0  0  0  0  0  0  0  0  0  0  0
   -2.5229   -2.0787    1.2980 C   0  0  0  0  0  0  0  0  0  0  0  0
   -1.5999   -2.7227    1.7810 O   0  0  0  0  0  0  0  0  0  0  0  0
   -2.3659   -0.8447    0.8120 N   0  0  0  0  0  0  0  0  0  0  0  0
   -3.1749   -0.3807    0.4220 H   0  0  0  0  0  0  0  0  0  0  0  0
   -1.0919   -0.1077    0.8170 C   0  0  1  0  0  0  0  0  0  0  0  0
   -0.3571   -0.6901    0.2581 H   0  0  0  0  0  0  0  0  0  0  0  0
   -1.3037    1.2411    0.1040 C   0  0  0  0  0  0  0  0  0  0  0  0
   -1.1016    1.1074   -0.9599 H   0  0  0  0  0  0  0  0  0  0  0  0
   -2.3459    1.5465    0.2164 H   0  0  0  0  0  0  0  0  0  0  0  0
   -0.3895    2.3569    0.6328 C   0  0  0  0  0  0  0  0  0  0  0  0
    0.5482    1.9266    0.9870 H   0  0  0  0  0  0  0  0  0  0  0  0
   -0.1765    3.0600   -0.1748 H   0  0  0  0  0  0  0  0  0  0  0  0
   -1.0700    3.1023    1.7892 C   0  0  0  0  0  0  0  0  0  0  0  0
   -2.0158    3.5193    1.4353 H   0  0  0  0  0  0  0  0  0  0  0  0
   -1.2723    2.3968    2.5976 H   0  0  0  0  0  0  0  0  0  0  0  0
   -0.1687    4.2326    2.3019 C   0  0  0  0  0  0  0  0  0  0  0  0
    0.7751    3.7957    2.6441 H   0  0  0  0  0  0  0  0  0  0  0  0
    0.0558    4.9038    1.4674 H   0  0  0  0  0  0  0  0  0  0  0  0
   -0.8135    4.9865    3.4066 N   0  3  0  0  0  0  0  0  0  0  0  0
   -1.0142    4.3726    4.1861 H   0  0  0  0  0  0  0  0  0  0  0  0
   -0.2066    5.7282    3.7330 H   0  0  0  0  0  0  0  0  0  0  0  0
   -1.6834    5.4003    3.0924 H   0  0  0  0  0  0  0  0  0  0  0  0
   -0.5865    0.0771    2.2496 C   0  0  0  0  0  0  0  0  0  0  0  0
    0.5860   -0.1608    2.5143 O   0  0  0  0  0  0  0  0  0  0  0  0
   -1.4786    0.4656    3.1667 N   0  0  0  0  0  0  0  0  0  0  0  0
   -2.4139    0.6698    2.8558 H   0  0  0  0  0  0  0  0  0  0  0  0
   -1.1587    0.6908    4.5775 C   0  0  0  0  0  0  0  0  0  0  0  0
   -0.4270    1.4968    4.6656 H   0  0  0  0  0  0  0  0  0  0  0  0
   -2.0565    0.9649    5.1327 H   0  0  0  0  0  0  0  0  0  0  0  0
   -0.7281   -0.2137    5.0125 H   0  0  0  0  0  0  0  0  0  0  0  0
  5  6  2  0  0  0  0
  5  7  1  0  0  0  0
  2  3  1  0  0  0  0
  2  4  1  0  0  0  0
  2  5  1  0  0  0  0
  1  2  1  0  0  0  0
 27 28  2  0  0  0  0
 27 29  1  0  0  0  0
 23 24  1  0  0  0  0
 23 25  1  0  0  0  0
 23 26  1  0  0  0  0
 20 21  1  0  0  0  0
 20 22  1  0  0  0  0
 20 23  1  0  0  0  0
 17 18  1  0  0  0  0
 17 19  1  0  0  0  0
 17 20  1  0  0  0  0
 14 15  1  0  0  0  0
 14 16  1  0  0  0  0
 14 17  1  0  0  0  0
 11 12  1  0  0  0  0
 11 13  1  0  0  0  0
 11 14  1  0  0  0  0
  9 10  1  0  0  0  0
  9 11  1  0  0  0  0
  9 27  1  0  0  0  0
  7  8  1  0  0  0  0
  7  9  1  0  0  0  0
 31 32  1  0  0  0  0
 31 33  1  0  0  0  0
 31 34  1  0  0  0  0
 29 30  1  0  0  0  0
 29 31  1  0  0  0  0
M  CHG  1  23   1
M  END
$$$$
default_name
  -OEChem-02102213163D

 34 33  0     1  0  0  0  0  0999 V2000
   -3.8899   -3.6747    1.6490 H   0  0  0  0  0  0  0  0  0  0  0  0
   -3.9109   -2.6717    1.2250 C   0  0  0  0  0  0  0  0  0  0  0  0
   -4.6009   -2.0517    1.7950 H   0  0  0  0  0  0  0  0  0  0  0  0
   -4.2309   -2.7237    0.1860 H   0  0  0  0  0  0  0  0  0  0  0  0
   -2.5229   -2.0787    1.2980 C   0  0  0  0  0  0  0  0  0  0  0  0
   -1.5999   -2.7227    1.7810 O   0  0  0  0  0  0  0  0  0  0  0  0
   -2.3659   -0.8447    0.8120 N   0  0  0  0  0  0  0  0  0  0  0  0
   -3.1749   -0.3807    0.4220 H   0  0  0  0  0  0  0  0  0  0  0  0
   -1.0919   -0.1077    0.8170 C   0  0  1  0  0  0  0  0  0  0  0  0
   -0.3571   -0.6901    0.2581 H   0  0  0  0  0  0  0  0  0  0  0  0
   -1.3037    1.2411    0.1040 C   0  0  0  0  0  0  0  0  0  0  0  0
   -1.1016    1.1074   -0.9599 H   0  0  0  0  0  0  0  0  0  0  0  0
   -2.3459    1.5465    0.2164 H   0  0  0  0  0  0  0  0  0  0  0  0
   -0.3895    2.3569    0.6328 C   0  0  0  0  0  0  0  0  0  0  0  0
    0.6286    1.9793    0.7367 H   0  0  0  0  0  0  0  0  0  0  0  0
   -0.3909    3.1883   -0.0748 H   0  0  0  0  0  0  0  0  0  0  0  0
   -0.8850    2.8514    1.9988 C   0  0  0  0  0  0  0  0  0  0  0  0
   -1.9100    3.2150    1.8945 H   0  0  0  0  0  0  0  0  0  0  0  0
   -0.8729    2.0187    2.7048 H   0  0  0  0  0  0  0  0  0  0  0  0
    0.0123    3.9825    2.5166 C   0  0  0  0  0  0  0  0  0  0  0  0
    1.0346    3.6008    2.6067 H   0  0  0  0  0  0  0  0  0  0  0  0
    0.0193    4.7876    1.7757 H   0  0  0  0  0  0  0  0  0  0  0  0
   -0.4589    4.4965    3.8274 N   0  3  0  0  0  0  0  0  0  0  0  0
   -0.4576    3.7583    4.5201 H   0  0  0  0  0  0  0  0  0  0  0  0
    0.1430    5.2418    4.1548 H   0  0  0  0  0  0  0  0  0  0  0  0
   -1.4018    4.8591    3.7473 H   0  0  0  0  0  0  0  0  0  0  0  0
   -0.5865    0.0771    2.2496 C   0  0  0  0  0  0  0  0  0  0  0  0
    0.5860   -0.1608    2.5143 O   0  0  0  0  0  0  0  0  0  0  0  0
   -1.4786    0.4656    3.1667 N   0  0  0  0  0  0  0  0  0  0  0  0
   -2.4139    0.6698    2.8558 H   0  0  0  0  0  0  0  0  0  0  0  0
   -1.1587    0.6908    4.5775 C   0  0  0  0  0  0  0  0  0  0  0  0
   -0.4270    1.4968    4.6656 H   0  0  0  0  0  0  0  0  0  0  0  0
   -2.0565    0.9649    5.1327 H   0  0  0  0  0  0  0  0  0  0  0  0
   -0.7281   -0.2137    5.0125 H   0  0  0  0  0  0  0  0  0  0  0  0
  5  6  2  0  0  0  0
  5  7  1  0  0  0  0
  2  3  1  0  0  0  0
  2  4  1  0  0  0  0
  2  5  1  0  0  0  0
  1  2  1  0  0  0  0
 27 28  2  0  0  0  0
 27 29  1  0  0  0  0
 23 24  1  0  0  0  0
 23 25  1  0  0  0  0
 23 26  1  0  0  0  0
 20 21  1  0  0  0  0
 20 22  1  0  0  0  0
 20 23  1  0  0  0  0
 17 18  1  0  0  0  0
 17 19  1  0  0  0  0
 17 20  1  0  0  0  0
 14 15  1  0  0  0  0
 14 16  1  0  0  0  0
 14 17  1  0  0  0  0
 11 12  1  0  0  0  0
 11 13  1  0  0  0  0
 11 14  1  0  0  0  0
  9 10  1  0  0  0  0
  9 11  1  0  0  0  0
  9 27  1  0  0  0  0
  7  8  1  0  0  0  0
  7  9  1  0  0  0  0
 31 32  1  0  0  0  0
 31 33  1  0  0  0  0
 31 34  1  0  0  0  0
 29 30  1  0  0  0  0
 29 31  1  0  0  0  0
M  CHG  1  23   1
M  END
$$$$
default_name
  -OEChem-02102213163D

 34 33  0     1  0  0  0  0  0999 V2000
   -3.8899   -3.6747    1.6490 H   0  0  0  0  0  0  0  0  0  0  0  0
   -3.9109   -2.6717    1.2250 C   0  0  0  0  0  0  0  0  0  0  0  0
   -4.6009   -2.0517    1.7950 H   0  0  0  0  0  0  0  0  0  0  0  0
   -4.2309   -2.7237    0.1860 H   0  0  0  0  0  0  0  0  0  0  0  0
   -2.5229   -2.0787    1.2980 C   0  0  0  0  0  0  0  0  0  0  0  0
   -1.5999   -2.7227    1.7810 O   0  0  0  0  0  0  0  0  0  0  0  0
   -2.3659   -0.8447    0.8120 N   0  0  0  0  0  0  0  0  0  0  0  0
   -3.1749   -0.3807    0.4220 H   0  0  0  0  0  0  0  0  0  0  0  0
   -1.0919   -0.1077    0.8170 C   0  0  1  0  0  0  0  0  0  0  0  0
   -0.3571   -0.6901    0.2581 H   0  0  0  0  0  0  0  0  0  0  0  0
   -1.3037    1.2411    0.1040 C   0  0  0  0  0  0  0  0  0  0  0  0
   -1.1016    1.1074   -0.9599 H   0  0  0  0  0  0  0  0  0  0  0  0
   -2.3459    1.5465    0.2164 H   0  0  0  0  0  0  0  0  0  0  0  0
   -0.3895    2.3569    0.6328 C   0  0  0  0  0  0  0  0  0  0  0  0
    0.6545    2.0760    0.4880 H   0  0  0  0  0  0  0  0  0  0  0  0
   -0.5907    3.2777    0.0819 H   0  0  0  0  0  0  0  0  0  0  0  0
   -0.6445    2.5933    2.1278 C   0  0  0  0  0  0  0  0  0  0  0  0
   -1.6944    2.8598    2.2712 H   0  0  0  0  0  0  0  0  0  0  0  0
   -0.4331    1.6725    2.6751 H   0  0  0  0  0  0  0  0  0  0  0  0
    0.2499    3.7240    2.6515 C   0  0  0  0  0  0  0  0  0  0  0  0
    1.2956    3.4415    2.4919 H   0  0  0  0  0  0  0  0  0  0  0  0
    0.0524    4.6246    2.0624 H   0  0  0  0  0  0  0  0  0  0  0  0
    0.0063    3.9901    4.0918 N   0  3  0  0  0  0  0  0  0  0  0  0
    0.1975    3.1631    4.6434 H   0  0  0  0  0  0  0  0  0  0  0  0
    0.6034    4.7382    4.4215 H   0  0  0  0  0  0  0  0  0  0  0  0
   -0.9584    4.2606    4.2436 H   0  0  0  0  0  0  0  0  0  0  0  0
   -0.5865    0.0771    2.2496 C   0  0  0  0  0  0  0  0  0  0  0  0
    0.5860   -0.1608    2.5143 O   0  0  0  0  0  0  0  0  0  0  0  0
   -1.4786    0.4656    3.1667 N   0  0  0  0  0  0  0  0  0  0  0  0
   -2.4139    0.6698    2.8558 H   0  0  0  0  0  0  0  0  0  0  0  0
   -1.1587    0.6908    4.5775 C   0  0  0  0  0  0  0  0  0  0  0  0
   -0.4270    1.4968    4.6656 H   0  0  0  0  0  0  0  0  0  0  0  0
   -2.0565    0.9649    5.1327 H   0  0  0  0  0  0  0  0  0  0  0  0
   -0.7281   -0.2137    5.0125 H   0  0  0  0  0  0  0  0  0  0  0  0
  5  6  2  0  0  0  0
  5  7  1  0  0  0  0
  2  3  1  0  0  0  0
  2  4  1  0  0  0  0
  2  5  1  0  0  0  0
  1  2  1  0  0  0  0
 27 28  2  0  0  0  0
 27 29  1  0  0  0  0
 23 24  1  0  0  0  0
 23 25  1  0  0  0  0
 23 26  1  0  0  0  0
 20 21  1  0  0  0  0
 20 22  1  0  0  0  0
 20 23  1  0  0  0  0
 17 18  1  0  0  0  0
 17 19  1  0  0  0  0
 17 20  1  0  0  0  0
 14 15  1  0  0  0  0
 14 16  1  0  0  0  0
 14 17  1  0  0  0  0
 11 12  1  0  0  0  0
 11 13  1  0  0  0  0
 11 14  1  0  0  0  0
  9 10  1  0  0  0  0
  9 11  1  0  0  0  0
  9 27  1  0  0  0  0
  7  8  1  0  0  0  0
  7  9  1  0  0  0  0
 31 32  1  0  0  0  0
 31 33  1  0  0  0  0
 31 34  1  0  0  0  0
 29 30  1  0  0  0  0
 29 31  1  0  0  0  0
M  CHG  1  23   1
M  END
$$$$
default_name
  -OEChem-02102213163D

 34 33  0     1  0  0  0  0  0999 V2000
   -3.8899   -3.6747    1.6490 H   0  0  0  0  0  0  0  0  0  0  0  0
   -3.9109   -2.6717    1.2250 C   0  0  0  0  0  0  0  0  0  0  0  0
   -4.6009   -2.0517    1.7950 H   0  0  0  0  0  0  0  0  0  0  0  0
   -4.2309   -2.7237    0.1860 H   0  0  0  0  0  0  0  0  0  0  0  0
   -2.5229   -2.0787    1.2980 C   0  0  0  0  0  0  0  0  0  0  0  0
   -1.5999   -2.7227    1.7810 O   0  0  0  0  0  0  0  0  0  0  0  0
   -2.3659   -0.8447    0.8120 N   0  0  0  0  0  0  0  0  0  0  0  0
   -3.1749   -0.3807    0.4220 H   0  0  0  0  0  0  0  0  0  0  0  0
   -1.0919   -0.1077    0.8170 C   0  0  1  0  0  0  0  0  0  0  0  0
   -0.3571   -0.6901    0.2581 H   0  0  0  0  0  0  0  0  0  0  0  0
   -1.3037    1.2411    0.1040 C   0  0  0  0  0  0  0  0  0  0  0  0
   -1.1016    1.1074   -0.9599 H   0  0  0  0  0  0  0  0  0  0  0  0
   -2.3459    1.5465    0.2164 H   0  0  0  0  0  0  0  0  0  0  0  0
   -0.3895    2.3569    0.6328 C   0  0  0  0  0  0  0  0  0  0  0  0
    0.6242    2.2099    0.2577 H   0  0  0  0  0  0  0  0  0  0  0  0
   -0.7621    3.3221    0.2845 H   0  0  0  0  0  0  0  0  0  0  0  0
   -0.3651    2.3455    2.1675 C   0  0  0  0  0  0  0  0  0  0  0  0
   -1.3837    2.4779    2.5399 H   0  0  0  0  0  0  0  0  0  0  0  0
    0.0169    1.3819    2.5104 H   0  0  0  0  0  0  0  0  0  0  0  0
    0.5277    3.4746    2.6973 C   0  0  0  0  0  0  0  0  0  0  0  0
    1.5402    3.3284    2.3073 H   0  0  0  0  0  0  0  0  0  0  0  0
    0.1527    4.4260    2.3081 H   0  0  0  0  0  0  0  0  0  0  0  0
    0.5504    3.5016    4.1817 N   0  3  0  0  0  0  0  0  0  0  0  0
    0.9065    2.6275    4.5477 H   0  0  0  0  0  0  0  0  0  0  0  0
    1.1431    4.2517    4.5150 H   0  0  0  0  0  0  0  0  0  0  0  0
   -0.3835    3.6456    4.5476 H   0  0  0  0  0  0  0  0  0  0  0  0
   -0.5865    0.0771    2.2496 C   0  0  0  0  0  0  0  0  0  0  0  0
    0.5860   -0.1608    2.5143 O   0  0  0  0  0  0  0  0  0  0  0  0
   -1.4786    0.4656    3.1667 N   0  0  0  0  0  0  0  0  0  0  0  0
   -2.4139    0.6698    2.8558 H   0  0  0  0  0  0  0  0  0  0  0  0
   -1.1587    0.6908    4.5775 C   0  0  0  0  0  0  0  0  0  0  0  0
   -0.4270    1.4968    4.6656 H   0  0  0  0  0  0  0  0  0  0  0  0
   -2.0565    0.9649    5.1327 H   0  0  0  0  0  0  0  0  0  0  0  0
   -0.7281   -0.2137    5.0125 H   0  0  0  0  0  0  0  0  0  0  0  0
  5  6  2  0  0  0  0
  5  7  1  0  0  0  0
  2  3  1  0  0  0  0
  2  4  1  0  0  0  0
  2  5  1  0  0  0  0
  1  2  1  0  0  0  0
 27 28  2  0  0  0  0
 27 29  1  0  0  0  0
 23 24  1  0  0  0  0
 23 25  1  0  0  0  0
 23 26  1  0  0  0  0
 20 21  1  0  0  0  0
 20 22  1  0  0  0  0
 20 23  1  0  0  0  0
 17 18  1  0  0  0  0
 17 19  1  0  0  0  0
 17 20  1  0  0  0  0
 14 15  1  0  0  0  0
 14 16  1  0  0  0  0
 14 17  1  0  0  0  0
 11 12  1  0  0  0  0
 11 13  1  0  0  0  0
 11 14  1  0  0  0  0
  9 10  1  0  0  0  0
  9 11  1  0  0  0  0
  9 27  1  0  0  0  0
  7  8  1  0  0  0  0
  7  9  1  0  0  0  0
 31 32  1  0  0  0  0
 31 33  1  0  0  0  0
 31 34  1  0  0  0  0
 29 30  1  0  0  0  0
 29 31  1  0  0  0  0
M  CHG  1  23   1
M  END
$$$$
default_name
  -OEChem-02102213163D

 34 33  0     1  0  0  0  0  0999 V2000
   -3.8899   -3.6747    1.6490 H   0  0  0  0  0  0  0  0  0  0  0  0
   -3.9109   -2.6717    1.2250 C   0  0  0  0  0  0  0  0  0  0  0  0
   -4.6009   -2.0517    1.7950 H   0  0  0  0  0  0  0  0  0  0  0  0
   -4.2309   -2.7237    0.1860 H   0  0  0  0  0  0  0  0  0  0  0  0
   -2.5229   -2.0787    1.2980 C   0  0  0  0  0  0  0  0  0  0  0  0
   -1.5999   -2.7227    1.7810 O   0  0  0  0  0  0  0  0  0  0  0  0
   -2.3659   -0.8447    0.8120 N   0  0  0  0  0  0  0  0  0  0  0  0
   -3.1749   -0.3807    0.4220 H   0  0  0  0  0  0  0  0  0  0  0  0
   -1.0919   -0.1077    0.8170 C   0  0  1  0  0  0  0  0  0  0  0  0
   -0.3571   -0.6901    0.2581 H   0  0  0  0  0  0  0  0  0  0  0  0
   -1.3037    1.2411    0.1040 C   0  0  0  0  0  0  0  0  0  0  0  0
   -1.1016    1.1074   -0.9599 H   0  0  0  0  0  0  0  0  0  0  0  0
   -2.3459    1.5465    0.2164 H   0  0  0  0  0  0  0  0  0  0  0  0
   -0.3895    2.3569    0.6328 C   0  0  0  0  0  0  0  0  0  0  0  0
    0.5397    2.3721    0.0616 H   0  0  0  0  0  0  0  0  0  0  0  0
   -0.8936    3.3186    0.5192 H   0  0  0  0  0  0  0  0  0  0  0  0
   -0.0656    2.1249    2.1151 C   0  0  0  0  0  0  0  0  0  0  0  0
   -0.9990    2.0952    2.6822 H   0  0  0  0  0  0  0  0  0  0  0  0
    0.4465    1.1666    2.2220 H   0  0  0  0  0  0  0  0  0  0  0  0
    0.8269    3.2514    2.6510 C   0  0  0  0  0  0  0  0  0  0  0  0
    1.7520    3.2695    2.0657 H   0  0  0  0  0  0  0  0  0  0  0  0
    0.3135    4.2052    2.4959 H   0  0  0  0  0  0  0  0  0  0  0  0
    1.1365    3.0644    4.0910 N   0  3  0  0  0  0  0  0  0  0  0  0
    1.6210    2.1881    4.2395 H   0  0  0  0  0  0  0  0  0  0  0  0
    1.7253    3.8155    4.4290 H   0  0  0  0  0  0  0  0  0  0  0  0
    0.2837    3.0559    4.6383 H   0  0  0  0  0  0  0  0  0  0  0  0
   -0.5865    0.0771    2.2496 C   0  0  0  0  0  0  0  0  0  0  0  0
    0.5860   -0.1608    2.5143 O   0  0  0  0  0  0  0  0  0  0  0  0
   -1.4786    0.4656    3.1667 N   0  0  0  0  0  0  0  0  0  0  0  0
   -2.4139    0.6698    2.8558 H   0  0  0  0  0  0  0  0  0  0  0  0
   -1.1587    0.6908    4.5775 C   0  0  0  0  0  0  0  0  0  0  0  0
   -0.4270    1.4968    4.6656 H   0  0  0  0  0  0  0  0  0  0  0  0
   -2.0565    0.9649    5.1327 H   0  0  0  0  0  0  0  0  0  0  0  0
   -0.7281   -0.2137    5.0125 H   0  0  0  0  0  0  0  0  0  0  0  0
  5  6  2  0  0  0  0
  5  7  1  0  0  0  0
  2  3  1  0  0  0  0
  2  4  1  0  0  0  0
  2  5  1  0  0  0  0
  1  2  1  0  0  0  0
 27 28  2  0  0  0  0
 27 29  1  0  0  0  0
 23 24  1  0  0  0  0
 23 25  1  0  0  0  0
 23 26  1  0  0  0  0
 20 21  1  0  0  0  0
 20 22  1  0  0  0  0
 20 23  1  0  0  0  0
 17 18  1  0  0  0  0
 17 19  1  0  0  0  0
 17 20  1  0  0  0  0
 14 15  1  0  0  0  0
 14 16  1  0  0  0  0
 14 17  1  0  0  0  0
 11 12  1  0  0  0  0
 11 13  1  0  0  0  0
 11 14  1  0  0  0  0
  9 10  1  0  0  0  0
  9 11  1  0  0  0  0
  9 27  1  0  0  0  0
  7  8  1  0  0  0  0
  7  9  1  0  0  0  0
 31 32  1  0  0  0  0
 31 33  1  0  0  0  0
 31 34  1  0  0  0  0
 29 30  1  0  0  0  0
 29 31  1  0  0  0  0
M  CHG  1  23   1
M  END
$$$$
default_name
  -OEChem-02102213163D

 34 33  0     1  0  0  0  0  0999 V2000
   -3.8899   -3.6747    1.6490 H   0  0  0  0  0  0  0  0  0  0  0  0
   -3.9109   -2.6717    1.2250 C   0  0  0  0  0  0  0  0  0  0  0  0
   -4.6009   -2.0517    1.7950 H   0  0  0  0  0  0  0  0  0  0  0  0
   -4.2309   -2.7237    0.1860 H   0  0  0  0  0  0  0  0  0  0  0  0
   -2.5229   -2.0787    1.2980 C   0  0  0  0  0  0  0  0  0  0  0  0
   -1.5999   -2.7227    1.7810 O   0  0  0  0  0  0  0  0  0  0  0  0
   -2.3659   -0.8447    0.8120 N   0  0  0  0  0  0  0  0  0  0  0  0
   -3.1749   -0.3807    0.4220 H   0  0  0  0  0  0  0  0  0  0  0  0
   -1.0919   -0.1077    0.8170 C   0  0  1  0  0  0  0  0  0  0  0  0
   -0.3571   -0.6901    0.2581 H   0  0  0  0  0  0  0  0  0  0  0  0
   -1.3037    1.2411    0.1040 C   0  0  0  0  0  0  0  0  0  0  0  0
   -1.1016    1.1074   -0.9599 H   0  0  0  0  0  0  0  0  0  0  0  0
   -2.3459    1.5465    0.2164 H   0  0  0  0  0  0  0  0  0  0  0  0
   -0.3895    2.3569    0.6328 C   0  0  0  0  0  0  0  0  0  0  0  0
    0.4067    2.5514   -0.0869 H   0  0  0  0  0  0  0  0  0  0  0  0
   -0.9762    3.2673    0.7702 H   0  0  0  0  0  0  0  0  0  0  0  0
    0.2335    1.9466    1.9743 C   0  0  0  0  0  0  0  0  0  0  0  0
   -0.5666    1.7380    2.6885 H   0  0  0  0  0  0  0  0  0  0  0  0
    0.8264    1.0413    1.8295 H   0  0  0  0  0  0  0  0  0  0  0  0
    1.1270    3.0697    2.5156 C   0  0  0  0  0  0  0  0  0  0  0  0
    1.9163    3.2686    1.7834 H   0  0  0  0  0  0  0  0  0  0  0  0
    0.5238    3.9774    2.6131 H   0  0  0  0  0  0  0  0  0  0  0  0
    1.7244    2.7083    3.8259 N   0  3  0  0  0  0  0  0  0  0  0  0
    2.2925    1.8748    3.7399 H   0  0  0  0  0  0  0  0  0  0  0  0
    2.3103    3.4592    4.1692 H   0  0  0  0  0  0  0  0  0  0  0  0
    0.9978    2.5317    4.5098 H   0  0  0  0  0  0  0  0  0  0  0  0
   -0.5865    0.0771    2.2496 C   0  0  0  0  0  0  0  0  0  0  0  0
    0.5860   -0.1608    2.5143 O   0  0  0  0  0  0  0  0  0  0  0  0
   -1.4786    0.4656    3.1667 N   0  0  0  0  0  0  0  0  0  0  0  0
   -2.4139    0.6698    2.8558 H   0  0  0  0  0  0  0  0  0  0  0  0
   -1.1587    0.6908    4.5775 C   0  0  0  0  0  0  0  0  0  0  0  0
   -0.4270    1.4968    4.6656 H   0  0  0  0  0  0  0  0  0  0  0  0
   -2.0565    0.9649    5.1327 H   0  0  0  0  0  0  0  0  0  0  0  0
   -0.7281   -0.2137    5.0125 H   0  0  0  0  0  0  0  0  0  0  0  0
  5  6  2  0  0  0  0
  5  7  1  0  0  0  0
  2  3  1  0  0  0  0
  2  4  1  0  0  0  0
  2  5  1  0  0  0  0
  1  2  1  0  0  0  0
 27 28  2  0  0  0  0
 27 29  1  0  0  0  0
 23 24  1  0  0  0  0
 23 25  1  0  0  0  0
 23 26  1  0  0  0  0
 20 21  1  0  0  0  0
 20 22  1  0  0  0  0
 20 23  1  0  0  0  0
 17 18  1  0  0  0  0
 17 19  1  0  0  0  0
 17 20  1  0  0  0  0
 14 15  1  0  0  0  0
 14 16  1  0  0  0  0
 14 17  1  0  0  0  0
 11 12  1  0  0  0  0
 11 13  1  0  0  0  0
 11 14  1  0  0  0  0
  9 10  1  0  0  0  0
  9 11  1  0  0  0  0
  9 27  1  0  0  0  0
  7  8  1  0  0  0  0
  7  9  1  0  0  0  0
 31 32  1  0  0  0  0
 31 33  1  0  0  0  0
 31 34  1  0  0  0  0
 29 30  1  0  0  0  0
 29 31  1  0  0  0  0
M  CHG  1  23   1
M  END
$$$$
default_name
  -OEChem-02102213163D

 34 33  0     1  0  0  0  0  0999 V2000
   -3.8899   -3.6747    1.6490 H   0  0  0  0  0  0  0  0  0  0  0  0
   -3.9109   -2.6717    1.2250 C   0  0  0  0  0  0  0  0  0  0  0  0
   -4.6009   -2.0517    1.7950 H   0  0  0  0  0  0  0  0  0  0  0  0
   -4.2309   -2.7237    0.1860 H   0  0  0  0  0  0  0  0  0  0  0  0
   -2.5229   -2.0787    1.2980 C   0  0  0  0  0  0  0  0  0  0  0  0
   -1.5999   -2.7227    1.7810 O   0  0  0  0  0  0  0  0  0  0  0  0
   -2.3659   -0.8447    0.8120 N   0  0  0  0  0  0  0  0  0  0  0  0
   -3.1749   -0.3807    0.4220 H   0  0  0  0  0  0  0  0  0  0  0  0
   -1.0919   -0.1077    0.8170 C   0  0  1  0  0  0  0  0  0  0  0  0
   -0.3571   -0.6901    0.2581 H   0  0  0  0  0  0  0  0  0  0  0  0
   -1.3037    1.2411    0.1040 C   0  0  0  0  0  0  0  0  0  0  0  0
   -1.1016    1.1074   -0.9599 H   0  0  0  0  0  0  0  0  0  0  0  0
   -2.3459    1.5465    0.2164 H   0  0  0  0  0  0  0  0  0  0  0  0
   -0.3895    2.3569    0.6328 C   0  0  0  0  0  0  0  0  0  0  0  0
    0.2344    2.7357   -0.1778 H   0  0  0  0  0  0  0  0  0  0  0  0
   -1.0042    3.1718    1.0202 H   0  0  0  0  0  0  0  0  0  0  0  0
    0.5118    1.8228    1.7545 C   0  0  0  0  0  0  0  0  0  0  0  0
   -0.1160    1.4305    2.5582 H   0  0  0  0  0  0  0  0  0  0  0  0
    1.1307    1.0146    1.3597 H   0  0  0  0  0  0  0  0  0  0  0  0
    1.4077    2.9417    2.3004 C   0  0  0  0  0  0  0  0  0  0  0  0
    2.0221    3.3259    1.4797 H   0  0  0  0  0  0  0  0  0  0  0  0
    0.7693    3.7580    2.6517 H   0  0  0  0  0  0  0  0  0  0  0  0
    2.2743    2.4575    3.4045 N   0  3  0  0  0  0  0  0  0  0  0  0
    2.8750    1.7089    3.0828 H   0  0  0  0  0  0  0  0  0  0  0  0
    2.8583    3.2072    3.7535 H   0  0  0  0  0  0  0  0  0  0  0  0
    1.7100    2.1088    4.1707 H   0  0  0  0  0  0  0  0  0  0  0  0
   -0.5865    0.0771    2.2496 C   0  0  0  0  0  0  0  0  0  0  0  0
    0.5860   -0.1608    2.5143 O   0  0  0  0  0  0  0  0  0  0  0  0
   -1.4786    0.4656    3.1667 N   0  0  0  0  0  0  0  0  0  0  0  0
   -2.4139    0.6698    2.8558 H   0  0  0  0  0  0  0  0  0  0  0  0
   -1.1587    0.6908    4.5775 C   0  0  0  0  0  0  0  0  0  0  0  0
   -0.4270    1.4968    4.6656 H   0  0  0  0  0  0  0  0  0  0  0  0
   -2.0565    0.9649    5.1327 H   0  0  0  0  0  0  0  0  0  0  0  0
   -0.7281   -0.2137    5.0125 H   0  0  0  0  0  0  0  0  0  0  0  0
  5  6  2  0  0  0  0
  5  7  1  0  0  0  0
  2  3  1  0  0  0  0
  2  4  1  0  0  0  0
  2  5  1  0  0  0  0
  1  2  1  0  0  0  0
 27 28  2  0  0  0  0
 27 29  1  0  0  0  0
 23 24  1  0  0  0  0
 23 25  1  0  0  0  0
 23 26  1  0  0  0  0
 20 21  1  0  0  0  0
 20 22  1  0  0  0  0
 20 23  1  0  0  0  0
 17 18  1  0  0  0  0
 17 19  1  0  0  0  0
 17 20  1  0  0  0  0
 14 15  1  0  0  0  0
 14 16  1  0  0  0  0
 14 17  1  0  0  0  0
 11 12  1  0  0  0  0
 11 13  1  0  0  0  0
 11 14  1  0  0  0  0
  9 10  1  0  0  0  0
  9 11  1  0  0  0  0
  9 27  1  0  0  0  0
  7  8  1  0  0  0  0
  7  9  1  0  0  0  0
 31 32  1  0  0  0  0
 31 33  1  0  0  0  0
 31 34  1  0  0  0  0
 29 30  1  0  0  0  0
 29 31  1  0  0  0  0
M  CHG  1  23   1
M  END
$$$$
default_name
  -OEChem-02102213163D

 34 33  0     1  0  0  0  0  0999 V2000
   -3.8899   -3.6747    1.6490 H   0  0  0  0  0  0  0  0  0  0  0  0
   -3.9109   -2.6717    1.2250 C   0  0  0  0  0  0  0  0  0  0  0  0
   -4.6009   -2.0517    1.7950 H   0  0  0  0  0  0  0  0  0  0  0  0
   -4.2309   -2.7237    0.1860 H   0  0  0  0  0  0  0  0  0  0  0  0
   -2.5229   -2.0787    1.2980 C   0  0  0  0  0  0  0  0  0  0  0  0
   -1.5999   -2.7227    1.7810 O   0  0  0  0  0  0  0  0  0  0  0  0
   -2.3659   -0.8447    0.8120 N   0  0  0  0  0  0  0  0  0  0  0  0
   -3.1749   -0.3807    0.4220 H   0  0  0  0  0  0  0  0  0  0  0  0
   -1.0919   -0.1077    0.8170 C   0  0  1  0  0  0  0  0  0  0  0  0
   -0.3571   -0.6901    0.2581 H   0  0  0  0  0  0  0  0  0  0  0  0
   -1.3037    1.2411    0.1040 C   0  0  0  0  0  0  0  0  0  0  0  0
   -1.1016    1.1074   -0.9599 H   0  0  0  0  0  0  0  0  0  0  0  0
   -2.3459    1.5465    0.2164 H   0  0  0  0  0  0  0  0  0  0  0  0
   -0.3895    2.3569    0.6328 C   0  0  0  0  0  0  0  0  0  0  0  0
    0.0345    2.9123   -0.2048 H   0  0  0  0  0  0  0  0  0  0  0  0
   -0.9757    3.0385    1.2523 H   0  0  0  0  0  0  0  0  0  0  0  0
    0.7504    1.7617    1.4709 C   0  0  0  0  0  0  0  0  0  0  0  0
    0.3223    1.1937    2.3003 H   0  0  0  0  0  0  0  0  0  0  0  0
    1.3388    1.0883    0.8445 H   0  0  0  0  0  0  0  0  0  0  0  0
    1.6497    2.8762    2.0201 C   0  0  0  0  0  0  0  0  0  0  0  0
    2.0620    3.4374    1.1752 H   0  0  0  0  0  0  0  0  0  0  0  0
    1.0331    3.5620    2.6090 H   0  0  0  0  0  0  0  0  0  0  0  0
    2.7485    2.3292    2.8555 N   0  3  0  0  0  0  0  0  0  0  0  0
    3.3289    1.7018    2.3130 H   0  0  0  0  0  0  0  0  0  0  0  0
    3.3320    3.0766    3.2102 H   0  0  0  0  0  0  0  0  0  0  0  0
    2.3720    1.8161    3.6441 H   0  0  0  0  0  0  0  0  0  0  0  0
   -0.5865    0.0771    2.2496 C   0  0  0  0  0  0  0  0  0  0  0  0
    0.5860   -0.1608    2.5143 O   0  0  0  0  0  0  0  0  0  0  0  0
   -1.4786    0.4656    3.1667 N   0  0  0  0  0  0  0  0  0  0  0  0
   -2.4139    0.6698    2.8558 H   0  0  0  0  0  0  0  0  0  0  0  0
   -1.1587    0.6908    4.5775 C   0  0  0  0  0  0  0  0  0  0  0  0
   -0.4270    1.4968    4.6656 H   0  0  0  0  0  0  0  0  0  0  0  0
   -2.0565    0.9649    5.1327 H   0  0  0  0  0  0  0  0  0  0  0  0
   -0.7281   -0.2137    5.0125 H   0  0  0  0  0  0  0  0  0  0  0  0
  5  6  2  0  0  0  0
  5  7  1  0  0  0  0
  2  3  1  0  0  0  0
  2  4  1  0  0  0  0
  2  5  1  0  0  0  0
  1  2  1  0  0  0  0
 27 28  2  0  0  0  0
 27 29  1  0  0  0  0
 23 24  1  0  0  0  0
 23 25  1  0  0  0  0
 23 26  1  0  0  0  0
 20 21  1  0  0  0  0
 20 22  1  0  0  0  0
 20 23  1  0  0  0  0
 17 18  1  0  0  0  0
 17 19  1  0  0  0  0
 17 20  1  0  0  0  0
 14 15  1  0  0  0  0
 14 16  1  0  0  0  0
 14 17  1  0  0  0  0
 11 12  1  0  0  0  0
 11 13  1  0  0  0  0
 11 14  1  0  0  0  0
  9 10  1  0  0  0  0
  9 11  1  0  0  0  0
  9 27  1  0  0  0  0
  7  8  1  0  0  0  0
  7  9  1  0  0  0  0
 31 32  1  0  0  0  0
 31 33  1  0  0  0  0
 31 34  1  0  0  0  0
 29 30  1  0  0  0  0
 29 31  1  0  0  0  0
M  CHG  1  23   1
M  END
$$$$
default_name
  -OEChem-02102213163D

 34 33  0     1  0  0  0  0  0999 V2000
   -3.8899   -3.6747    1.6490 H   0  0  0  0  0  0  0  0  0  0  0  0
   -3.9109   -2.6717    1.2250 C   0  0  0  0  0  0  0  0  0  0  0  0
   -4.6009   -2.0517    1.7950 H   0  0  0  0  0  0  0  0  0  0  0  0
   -4.2309   -2.7237    0.1860 H   0  0  0  0  0  0  0  0  0  0  0  0
   -2.5229   -2.0787    1.2980 C   0  0  0  0  0  0  0  0  0  0  0  0
   -1.5999   -2.7227    1.7810 O   0  0  0  0  0  0  0  0  0  0  0  0
   -2.3659   -0.8447    0.8120 N   0  0  0  0  0  0  0  0  0  0  0  0
   -3.1749   -0.3807    0.4220 H   0  0  0  0  0  0  0  0  0  0  0  0
   -1.0919   -0.1077    0.8170 C   0  0  1  0  0  0  0  0  0  0  0  0
   -0.3571   -0.6901    0.2581 H   0  0  0  0  0  0  0  0  0  0  0  0
   -1.3037    1.2411    0.1040 C   0  0  0  0  0  0  0  0  0  0  0  0
   -1.1016    1.1074   -0.9599 H   0  0  0  0  0  0  0  0  0  0  0  0
   -2.3459    1.5465    0.2164 H   0  0  0  0  0  0  0  0  0  0  0  0
   -0.3895    2.3569    0.6328 C   0  0  0  0  0  0  0  0  0  0  0  0
   -0.1794    3.0692   -0.1661 H   0  0  0  0  0  0  0  0  0  0  0  0
   -0.8927    2.8765    1.4505 H   0  0  0  0  0  0  0  0  0  0  0  0
    0.9329    1.7677    1.1427 C   0  0  0  0  0  0  0  0  0  0  0  0
    0.7182    1.0437    1.9323 H   0  0  0  0  0  0  0  0  0  0  0  0
    1.4364    1.2573    0.3192 H   0  0  0  0  0  0  0  0  0  0  0  0
    1.8367    2.8777    1.6938 C   0  0  0  0  0  0  0  0  0  0  0  0
    2.0335    3.5956    0.8909 H   0  0  0  0  0  0  0  0  0  0  0  0
    1.2975    3.4027    2.4880 H   0  0  0  0  0  0  0  0  0  0  0  0
    3.1148    2.3320    2.2163 N   0  3  0  0  0  0  0  0  0  0  0  0
    3.6234    1.8539    1.4831 H   0  0  0  0  0  0  0  0  0  0  0  0
    3.6990    3.0764    2.5762 H   0  0  0  0  0  0  0  0  0  0  0  0
    2.9385    1.6733    2.9659 H   0  0  0  0  0  0  0  0  0  0  0  0
   -0.5865    0.0771    2.2496 C   0  0  0  0  0  0  0  0  0  0  0  0
    0.5860   -0.1608    2.5143 O   0  0  0  0  0  0  0  0  0  0  0  0
   -1.4786    0.4656    3.1667 N   0  0  0  0  0  0  0  0  0  0  0  0
   -2.4139    0.6698    2.8558 H   0  0  0  0  0  0  0  0  0  0  0  0
   -1.1587    0.6908    4.5775 C   0  0  0  0  0  0  0  0  0  0  0  0
   -0.4270    1.4968    4.6656 H   0  0  0  0  0  0  0  0  0  0  0  0
   -2.0565    0.9649    5.1327 H   0  0  0  0  0  0  0  0  0  0  0  0
   -0.7281   -0.2137    5.0125 H   0  0  0  0  0  0  0  0  0  0  0  0
  5  6  2  0  0  0  0
  5  7  1  0  0  0  0
  2  3  1  0  0  0  0
  2  4  1  0  0  0  0
  2  5  1  0  0  0  0
  1  2  1  0  0  0  0
 27 28  2  0  0  0  0
 27 29  1  0  0  0  0
 23 24  1  0  0  0  0
 23 25  1  0  0  0  0
 23 26  1  0  0  0  0
 20 21  1  0  0  0  0
 20 22  1  0  0  0  0
 20 23  1  0  0  0  0
 17 18  1  0  0  0  0
 17 19  1  0  0  0  0
 17 20  1  0  0  0  0
 14 15  1  0  0  0  0
 14 16  1  0  0  0  0
 14 17  1  0  0  0  0
 11 12  1  0  0  0  0
 11 13  1  0  0  0  0
 11 14  1  0  0  0  0
  9 10  1  0  0  0  0
  9 11  1  0  0  0  0
  9 27  1  0  0  0  0
  7  8  1  0  0  0  0
  7  9  1  0  0  0  0
 31 32  1  0  0  0  0
 31 33  1  0  0  0  0
 31 34  1  0  0  0  0
 29 30  1  0  0  0  0
 29 31  1  0  0  0  0
M  CHG  1  23   1
M  END
$$$$
default_name
  -OEChem-02102213163D

 34 33  0     1  0  0  0  0  0999 V2000
   -3.8899   -3.6747    1.6490 H   0  0  0  0  0  0  0  0  0  0  0  0
   -3.9109   -2.6717    1.2250 C   0  0  0  0  0  0  0  0  0  0  0  0
   -4.6009   -2.0517    1.7950 H   0  0  0  0  0  0  0  0  0  0  0  0
   -4.2309   -2.7237    0.1860 H   0  0  0  0  0  0  0  0  0  0  0  0
   -2.5229   -2.0787    1.2980 C   0  0  0  0  0  0  0  0  0  0  0  0
   -1.5999   -2.7227    1.7810 O   0  0  0  0  0  0  0  0  0  0  0  0
   -2.3659   -0.8447    0.8120 N   0  0  0  0  0  0  0  0  0  0  0  0
   -3.1749   -0.3807    0.4220 H   0  0  0  0  0  0  0  0  0  0  0  0
   -1.0919   -0.1077    0.8170 C   0  0  1  0  0  0  0  0  0  0  0  0
   -0.3571   -0.6901    0.2581 H   0  0  0  0  0  0  0  0  0  0  0  0
   -1.3037    1.2411    0.1040 C   0  0  0  0  0  0  0  0  0  0  0  0
   -1.1016    1.1074   -0.9599 H   0  0  0  0  0  0  0  0  0  0  0  0
   -2.3459    1.5465    0.2164 H   0  0  0  0  0  0  0  0  0  0  0  0
   -0.3895    2.3569    0.6328 C   0  0  0  0  0  0  0  0  0  0  0  0
   -0.3928    3.1958   -0.0644 H   0  0  0  0  0  0  0  0  0  0  0  0
   -0.7609    2.6969    1.6015 H   0  0  0  0  0  0  0  0  0  0  0  0
    1.0471    1.8403    0.7923 C   0  0  0  0  0  0  0  0  0  0  0  0
    1.0448    0.9908    1.4794 H   0  0  0  0  0  0  0  0  0  0  0  0
    1.4168    1.5102   -0.1806 H   0  0  0  0  0  0  0  0  0  0  0  0
    1.9558    2.9461    1.3436 C   0  0  0  0  0  0  0  0  0  0  0  0
    1.9383    3.7896    0.6459 H   0  0  0  0  0  0  0  0  0  0  0  0
    1.5443    3.2911    2.2970 H   0  0  0  0  0  0  0  0  0  0  0  0
    3.3482    2.4658    1.5304 N   0  3  0  0  0  0  0  0  0  0  0  0
    3.7382    2.1548    0.6495 H   0  0  0  0  0  0  0  0  0  0  0  0
    3.9344    3.2065    1.8948 H   0  0  0  0  0  0  0  0  0  0  0  0
    3.3709    1.6904    2.1824 H   0  0  0  0  0  0  0  0  0  0  0  0
   -0.5865    0.0771    2.2496 C   0  0  0  0  0  0  0  0  0  0  0  0
    0.5860   -0.1608    2.5143 O   0  0  0  0  0  0  0  0  0  0  0  0
   -1.4786    0.4656    3.1667 N   0  0  0  0  0  0  0  0  0  0  0  0
   -2.4139    0.6698    2.8558 H   0  0  0  0  0  0  0  0  0  0  0  0
   -1.1587    0.6908    4.5775 C   0  0  0  0  0  0  0  0  0  0  0  0
   -0.4270    1.4968    4.6656 H   0  0  0  0  0  0  0  0  0  0  0  0
   -2.0565    0.9649    5.1327 H   0  0  0  0  0  0  0  0  0  0  0  0
   -0.7281   -0.2137    5.0125 H   0  0  0  0  0  0  0  0  0  0  0  0
  5  6  2  0  0  0  0
  5  7  1  0  0  0  0
  2  3  1  0  0  0  0
  2  4  1  0  0  0  0
  2  5  1  0  0  0  0
  1  2  1  0  0  0  0
 27 28  2  0  0  0  0
 27 29  1  0  0  0  0
 23 24  1  0  0  0  0
 23 25  1  0  0  0  0
 23 26  1  0  0  0  0
 20 21  1  0  0  0  0
 20 22  1  0  0  0  0
 20 23  1  0  0  0  0
 17 18  1  0  0  0  0
 17 19  1  0  0  0  0
 17 20  1  0  0  0  0
 14 15  1  0  0  0  0
 14 16  1  0  0  0  0
 14 17  1  0  0  0  0
 11 12  1  0  0  0  0
 11 13  1  0  0  0  0
 11 14  1  0  0  0  0
  9 10  1  0  0  0  0
  9 11  1  0  0  0  0
  9 27  1  0  0  0  0
  7  8  1  0  0  0  0
  7  9  1  0  0  0  0
 31 32  1  0  0  0  0
 31 33  1  0  0  0  0
 31 34  1  0  0  0  0
 29 30  1  0  0  0  0
 29 31  1  0  0  0  0
M  CHG  1  23   1
M  END
$$$$
default_name
  -OEChem-02102213163D

 34 33  0     1  0  0  0  0  0999 V2000
   -3.8899   -3.6747    1.6490 H   0  0  0  0  0  0  0  0  0  0  0  0
   -3.9109   -2.6717    1.2250 C   0  0  0  0  0  0  0  0  0  0  0  0
   -4.6009   -2.0517    1.7950 H   0  0  0  0  0  0  0  0  0  0  0  0
   -4.2309   -2.7237    0.1860 H   0  0  0  0  0  0  0  0  0  0  0  0
   -2.5229   -2.0787    1.2980 C   0  0  0  0  0  0  0  0  0  0  0  0
   -1.5999   -2.7227    1.7810 O   0  0  0  0  0  0  0  0  0  0  0  0
   -2.3659   -0.8447    0.8120 N   0  0  0  0  0  0  0  0  0  0  0  0
   -3.1749   -0.3807    0.4220 H   0  0  0  0  0  0  0  0  0  0  0  0
   -1.0919   -0.1077    0.8170 C   0  0  1  0  0  0  0  0  0  0  0  0
   -0.3571   -0.6901    0.2581 H   0  0  0  0  0  0  0  0  0  0  0  0
   -1.3037    1.2411    0.1040 C   0  0  0  0  0  0  0  0  0  0  0  0
   -1.1016    1.1074   -0.9599 H   0  0  0  0  0  0  0  0  0  0  0  0
   -2.3459    1.5465    0.2164 H   0  0  0  0  0  0  0  0  0  0  0  0
   -0.3895    2.3569    0.6328 C   0  0  0  0  0  0  0  0  0  0  0  0
   -0.5910    3.2834    0.0935 H   0  0  0  0  0  0  0  0  0  0  0  0
   -0.5891    2.5120    1.6949 H   0  0  0  0  0  0  0  0  0  0  0  0
    1.0849    1.9745    0.4435 C   0  0  0  0  0  0  0  0  0  0  0  0
    1.2798    1.0385    0.9723 H   0  0  0  0  0  0  0  0  0  0  0  0
    1.2814    1.8297   -0.6207 H   0  0  0  0  0  0  0  0  0  0  0  0
    1.9989    3.0766    0.9936 C   0  0  0  0  0  0  0  0  0  0  0  0
    1.7831    4.0063    0.4571 H   0  0  0  0  0  0  0  0  0  0  0  0
    1.7567    3.2347    2.0488 H   0  0  0  0  0  0  0  0  0  0  0  0
    3.4329    2.7214    0.8447 N   0  3  0  0  0  0  0  0  0  0  0  0
    3.6657    2.5842   -0.1309 H   0  0  0  0  0  0  0  0  0  0  0  0
    4.0221    3.4580    1.2124 H   0  0  0  0  0  0  0  0  0  0  0  0
    3.6398    1.8660    1.3470 H   0  0  0  0  0  0  0  0  0  0  0  0
   -0.5865    0.0771    2.2496 C   0  0  0  0  0  0  0  0  0  0  0  0
    0.5860   -0.1608    2.5143 O   0  0  0  0  0  0  0  0  0  0  0  0
   -1.4786    0.4656    3.1667 N   0  0  0  0  0  0  0  0  0  0  0  0
   -2.4139    0.6698    2.8558 H   0  0  0  0  0  0  0  0  0  0  0  0
   -1.1587    0.6908    4.5775 C   0  0  0  0  0  0  0  0  0  0  0  0
   -0.4270    1.4968    4.6656 H   0  0  0  0  0  0  0  0  0  0  0  0
   -2.0565    0.9649    5.1327 H   0  0  0  0  0  0  0  0  0  0  0  0
   -0.7281   -0.2137    5.0125 H   0  0  0  0  0  0  0  0  0  0  0  0
  5  6  2  0  0  0  0
  5  7  1  0  0  0  0
  2  3  1  0  0  0  0
  2  4  1  0  0  0  0
  2  5  1  0  0  0  0
  1  2  1  0  0  0  0
 27 28  2  0  0  0  0
 27 29  1  0  0  0  0
 23 24  1  0  0  0  0
 23 25  1  0  0  0  0
 23 26  1  0  0  0  0
 20 21  1  0  0  0  0
 20 22  1  0  0  0  0
 20 23  1  0  0  0  0
 17 18  1  0  0  0  0
 17 19  1  0  0  0  0
 17 20  1  0  0  0  0
 14 15  1  0  0  0  0
 14 16  1  0  0  0  0
 14 17  1  0  0  0  0
 11 12  1  0  0  0  0
 11 13  1  0  0  0  0
 11 14  1  0  0  0  0
  9 10  1  0  0  0  0
  9 11  1  0  0  0  0
  9 27  1  0  0  0  0
  7  8  1  0  0  0  0
  7  9  1  0  0  0  0
 31 32  1  0  0  0  0
 31 33  1  0  0  0  0
 31 34  1  0  0  0  0
 29 30  1  0  0  0  0
 29 31  1  0  0  0  0
M  CHG  1  23   1
M  END
$$$$
default_name
  -OEChem-02102213163D

 34 33  0     1  0  0  0  0  0999 V2000
   -3.8899   -3.6747    1.6490 H   0  0  0  0  0  0  0  0  0  0  0  0
   -3.9109   -2.6717    1.2250 C   0  0  0  0  0  0  0  0  0  0  0  0
   -4.6009   -2.0517    1.7950 H   0  0  0  0  0  0  0  0  0  0  0  0
   -4.2309   -2.7237    0.1860 H   0  0  0  0  0  0  0  0  0  0  0  0
   -2.5229   -2.0787    1.2980 C   0  0  0  0  0  0  0  0  0  0  0  0
   -1.5999   -2.7227    1.7810 O   0  0  0  0  0  0  0  0  0  0  0  0
   -2.3659   -0.8447    0.8120 N   0  0  0  0  0  0  0  0  0  0  0  0
   -3.1749   -0.3807    0.4220 H   0  0  0  0  0  0  0  0  0  0  0  0
   -1.0919   -0.1077    0.8170 C   0  0  1  0  0  0  0  0  0  0  0  0
   -0.3571   -0.6901    0.2581 H   0  0  0  0  0  0  0  0  0  0  0  0
   -1.3037    1.2411    0.1040 C   0  0  0  0  0  0  0  0  0  0  0  0
   -1.1016    1.1074   -0.9599 H   0  0  0  0  0  0  0  0  0  0  0  0
   -2.3459    1.5465    0.2164 H   0  0  0  0  0  0  0  0  0  0  0  0
   -0.3895    2.3569    0.6328 C   0  0  0  0  0  0  0  0  0  0  0  0
   -0.7606    3.3260    0.2967 H   0  0  0  0  0  0  0  0  0  0  0  0
   -0.3892    2.3342    1.7243 H   0  0  0  0  0  0  0  0  0  0  0  0
    1.0440    2.1613    0.1202 C   0  0  0  0  0  0  0  0  0  0  0  0
    1.4073    1.1836    0.4457 H   0  0  0  0  0  0  0  0  0  0  0  0
    1.0395    2.1940   -0.9711 H   0  0  0  0  0  0  0  0  0  0  0  0
    1.9632    3.2605    0.6674 C   0  0  0  0  0  0  0  0  0  0  0  0
    1.5784    4.2309    0.3372 H   0  0  0  0  0  0  0  0  0  0  0  0
    1.9202    3.2373    1.7605 H   0  0  0  0  0  0  0  0  0  0  0  0
    3.3629    3.0815    0.2058 N   0  3  0  0  0  0  0  0  0  0  0  0
    3.4106    3.1126   -0.8050 H   0  0  0  0  0  0  0  0  0  0  0  0
    3.9561    3.8140    0.5755 H   0  0  0  0  0  0  0  0  0  0  0  0
    3.7268    2.1883    0.5165 H   0  0  0  0  0  0  0  0  0  0  0  0
   -0.5865    0.0771    2.2496 C   0  0  0  0  0  0  0  0  0  0  0  0
    0.5860   -0.1608    2.5143 O   0  0  0  0  0  0  0  0  0  0  0  0
   -1.4786    0.4656    3.1667 N   0  0  0  0  0  0  0  0  0  0  0  0
   -2.4139    0.6698    2.8558 H   0  0  0  0  0  0  0  0  0  0  0  0
   -1.1587    0.6908    4.5775 C   0  0  0  0  0  0  0  0  0  0  0  0
   -0.4270    1.4968    4.6656 H   0  0  0  0  0  0  0  0  0  0  0  0
   -2.0565    0.9649    5.1327 H   0  0  0  0  0  0  0  0  0  0  0  0
   -0.7281   -0.2137    5.0125 H   0  0  0  0  0  0  0  0  0  0  0  0
  5  6  2  0  0  0  0
  5  7  1  0  0  0  0
  2  3  1  0  0  0  0
  2  4  1  0  0  0  0
  2  5  1  0  0  0  0
  1  2  1  0  0  0  0
 27 28  2  0  0  0  0
 27 29  1  0  0  0  0
 23 24  1  0  0  0  0
 23 25  1  0  0  0  0
 23 26  1  0  0  0  0
 20 21  1  0  0  0  0
 20 22  1  0  0  0  0
 20 23  1  0  0  0  0
 17 18  1  0  0  0  0
 17 19  1  0  0  0  0
 17 20  1  0  0  0  0
 14 15  1  0  0  0  0
 14 16  1  0  0  0  0
 14 17  1  0  0  0  0
 11 12  1  0  0  0  0
 11 13  1  0  0  0  0
 11 14  1  0  0  0  0
  9 10  1  0  0  0  0
  9 11  1  0  0  0  0
  9 27  1  0  0  0  0
  7  8  1  0  0  0  0
  7  9  1  0  0  0  0
 31 32  1  0  0  0  0
 31 33  1  0  0  0  0
 31 34  1  0  0  0  0
 29 30  1  0  0  0  0
 29 31  1  0  0  0  0
M  CHG  1  23   1
M  END
$$$$
default_name
  -OEChem-02102213163D

 34 33  0     1  0  0  0  0  0999 V2000
   -3.8899   -3.6747    1.6490 H   0  0  0  0  0  0  0  0  0  0  0  0
   -3.9109   -2.6717    1.2250 C   0  0  0  0  0  0  0  0  0  0  0  0
   -4.6009   -2.0517    1.7950 H   0  0  0  0  0  0  0  0  0  0  0  0
   -4.2309   -2.7237    0.1860 H   0  0  0  0  0  0  0  0  0  0  0  0
   -2.5229   -2.0787    1.2980 C   0  0  0  0  0  0  0  0  0  0  0  0
   -1.5999   -2.7227    1.7810 O   0  0  0  0  0  0  0  0  0  0  0  0
   -2.3659   -0.8447    0.8120 N   0  0  0  0  0  0  0  0  0  0  0  0
   -3.1749   -0.3807    0.4220 H   0  0  0  0  0  0  0  0  0  0  0  0
   -1.0919   -0.1077    0.8170 C   0  0  1  0  0  0  0  0  0  0  0  0
   -0.3571   -0.6901    0.2581 H   0  0  0  0  0  0  0  0  0  0  0  0
   -1.3037    1.2411    0.1040 C   0  0  0  0  0  0  0  0  0  0  0  0
   -1.1016    1.1074   -0.9599 H   0  0  0  0  0  0  0  0  0  0  0  0
   -2.3459    1.5465    0.2164 H   0  0  0  0  0  0  0  0  0  0  0  0
   -0.3895    2.3569    0.6328 C   0  0  0  0  0  0  0  0  0  0  0  0
   -0.8900    3.3208    0.5315 H   0  0  0  0  0  0  0  0  0  0  0  0
   -0.1748    2.1758    1.6878 H   0  0  0  0  0  0  0  0  0  0  0  0
    0.9271    2.3878   -0.1557 C   0  0  0  0  0  0  0  0  0  0  0  0
    1.4185    1.4162   -0.0645 H   0  0  0  0  0  0  0  0  0  0  0  0
    0.7075    2.5783   -1.2081 H   0  0  0  0  0  0  0  0  0  0  0  0
    1.8509    3.4851    0.3874 C   0  0  0  0  0  0  0  0  0  0  0  0
    1.3381    4.4480    0.2945 H   0  0  0  0  0  0  0  0  0  0  0  0
    2.0237    3.2988    1.4517 H   0  0  0  0  0  0  0  0  0  0  0  0
    3.1432    3.5215   -0.3428 N   0  3  0  0  0  0  0  0  0  0  0  0
    2.9905    3.7041   -1.3267 H   0  0  0  0  0  0  0  0  0  0  0  0
    3.7409    4.2500    0.0275 H   0  0  0  0  0  0  0  0  0  0  0  0
    3.6261    2.6352   -0.2525 H   0  0  0  0  0  0  0  0  0  0  0  0
   -0.5865    0.0771    2.2496 C   0  0  0  0  0  0  0  0  0  0  0  0
    0.5860   -0.1608    2.5143 O   0  0  0  0  0  0  0  0  0  0  0  0
   -1.4786    0.4656    3.1667 N   0  0  0  0  0  0  0  0  0  0  0  0
   -2.4139    0.6698    2.8558 H   0  0  0  0  0  0  0  0  0  0  0  0
   -1.1587    0.6908    4.5775 C   0  0  0  0  0  0  0  0  0  0  0  0
   -0.4270    1.4968    4.6656 H   0  0  0  0  0  0  0  0  0  0  0  0
   -2.0565    0.9649    5.1327 H   0  0  0  0  0  0  0  0  0  0  0  0
   -0.7281   -0.2137    5.0125 H   0  0  0  0  0  0  0  0  0  0  0  0
  5  6  2  0  0  0  0
  5  7  1  0  0  0  0
  2  3  1  0  0  0  0
  2  4  1  0  0  0  0
  2  5  1  0  0  0  0
  1  2  1  0  0  0  0
 27 28  2  0  0  0  0
 27 29  1  0  0  0  0
 23 24  1  0  0  0  0
 23 25  1  0  0  0  0
 23 26  1  0  0  0  0
 20 21  1  0  0  0  0
 20 22  1  0  0  0  0
 20 23  1  0  0  0  0
 17 18  1  0  0  0  0
 17 19  1  0  0  0  0
 17 20  1  0  0  0  0
 14 15  1  0  0  0  0
 14 16  1  0  0  0  0
 14 17  1  0  0  0  0
 11 12  1  0  0  0  0
 11 13  1  0  0  0  0
 11 14  1  0  0  0  0
  9 10  1  0  0  0  0
  9 11  1  0  0  0  0
  9 27  1  0  0  0  0
  7  8  1  0  0  0  0
  7  9  1  0  0  0  0
 31 32  1  0  0  0  0
 31 33  1  0  0  0  0
 31 34  1  0  0  0  0
 29 30  1  0  0  0  0
 29 31  1  0  0  0  0
M  CHG  1  23   1
M  END
$$$$
default_name
  -OEChem-02102213163D

 34 33  0     1  0  0  0  0  0999 V2000
   -3.8899   -3.6747    1.6490 H   0  0  0  0  0  0  0  0  0  0  0  0
   -3.9109   -2.6717    1.2250 C   0  0  0  0  0  0  0  0  0  0  0  0
   -4.6009   -2.0517    1.7950 H   0  0  0  0  0  0  0  0  0  0  0  0
   -4.2309   -2.7237    0.1860 H   0  0  0  0  0  0  0  0  0  0  0  0
   -2.5229   -2.0787    1.2980 C   0  0  0  0  0  0  0  0  0  0  0  0
   -1.5999   -2.7227    1.7810 O   0  0  0  0  0  0  0  0  0  0  0  0
   -2.3659   -0.8447    0.8120 N   0  0  0  0  0  0  0  0  0  0  0  0
   -3.1749   -0.3807    0.4220 H   0  0  0  0  0  0  0  0  0  0  0  0
   -1.0919   -0.1077    0.8170 C   0  0  1  0  0  0  0  0  0  0  0  0
   -0.3571   -0.6901    0.2581 H   0  0  0  0  0  0  0  0  0  0  0  0
   -1.3037    1.2411    0.1040 C   0  0  0  0  0  0  0  0  0  0  0  0
   -1.1016    1.1074   -0.9599 H   0  0  0  0  0  0  0  0  0  0  0  0
   -2.3459    1.5465    0.2164 H   0  0  0  0  0  0  0  0  0  0  0  0
   -0.3895    2.3569    0.6328 C   0  0  0  0  0  0  0  0  0  0  0  0
   -0.9704    3.2681    0.7818 H   0  0  0  0  0  0  0  0  0  0  0  0
    0.0396    2.0475    1.5878 H   0  0  0  0  0  0  0  0  0  0  0  0
    0.7421    2.6387   -0.3652 C   0  0  0  0  0  0  0  0  0  0  0  0
    1.3127    1.7205   -0.5237 H   0  0  0  0  0  0  0  0  0  0  0  0
    0.3080    2.9565   -1.3153 H   0  0  0  0  0  0  0  0  0  0  0  0
    1.6699    3.7352    0.1727 C   0  0  0  0  0  0  0  0  0  0  0  0
    1.0786    4.6429    0.3318 H   0  0  0  0  0  0  0  0  0  0  0  0
    2.0602    3.4150    1.1434 H   0  0  0  0  0  0  0  0  0  0  0  0
    2.7887    4.0115   -0.7636 N   0  3  0  0  0  0  0  0  0  0  0  0
    2.4339    4.3184   -1.6607 H   0  0  0  0  0  0  0  0  0  0  0  0
    3.3912    4.7363   -0.3942 H   0  0  0  0  0  0  0  0  0  0  0  0
    3.3444    3.1764   -0.9074 H   0  0  0  0  0  0  0  0  0  0  0  0
   -0.5865    0.0771    2.2496 C   0  0  0  0  0  0  0  0  0  0  0  0
    0.5860   -0.1608    2.5143 O   0  0  0  0  0  0  0  0  0  0  0  0
   -1.4786    0.4656    3.1667 N   0  0  0  0  0  0  0  0  0  0  0  0
   -2.4139    0.6698    2.8558 H   0  0  0  0  0  0  0  0  0  0  0  0
   -1.1587    0.6908    4.5775 C   0  0  0  0  0  0  0  0  0  0  0  0
   -0.4270    1.4968    4.6656 H   0  0  0  0  0  0  0  0  0  0  0  0
   -2.0565    0.9649    5.1327 H   0  0  0  0  0  0  0  0  0  0  0  0
   -0.7281   -0.2137    5.0125 H   0  0  0  0  0  0  0  0  0  0  0  0
  5  6  2  0  0  0  0
  5  7  1  0  0  0  0
  2  3  1  0  0  0  0
  2  4  1  0  0  0  0
  2  5  1  0  0  0  0
  1  2  1  0  0  0  0
 27 28  2  0  0  0  0
 27 29  1  0  0  0  0
 23 24  1  0  0  0  0
 23 25  1  0  0  0  0
 23 26  1  0  0  0  0
 20 21  1  0  0  0  0
 20 22  1  0  0  0  0
 20 23  1  0  0  0  0
 17 18  1  0  0  0  0
 17 19  1  0  0  0  0
 17 20  1  0  0  0  0
 14 15  1  0  0  0  0
 14 16  1  0  0  0  0
 14 17  1  0  0  0  0
 11 12  1  0  0  0  0
 11 13  1  0  0  0  0
 11 14  1  0  0  0  0
  9 10  1  0  0  0  0
  9 11  1  0  0  0  0
  9 27  1  0  0  0  0
  7  8  1  0  0  0  0
  7  9  1  0  0  0  0
 31 32  1  0  0  0  0
 31 33  1  0  0  0  0
 31 34  1  0  0  0  0
 29 30  1  0  0  0  0
 29 31  1  0  0  0  0
M  CHG  1  23   1
M  END
$$$$
default_name
  -OEChem-02102213163D

 34 33  0     1  0  0  0  0  0999 V2000
   -3.8899   -3.6747    1.6490 H   0  0  0  0  0  0  0  0  0  0  0  0
   -3.9109   -2.6717    1.2250 C   0  0  0  0  0  0  0  0  0  0  0  0
   -4.6009   -2.0517    1.7950 H   0  0  0  0  0  0  0  0  0  0  0  0
   -4.2309   -2.7237    0.1860 H   0  0  0  0  0  0  0  0  0  0  0  0
   -2.5229   -2.0787    1.2980 C   0  0  0  0  0  0  0  0  0  0  0  0
   -1.5999   -2.7227    1.7810 O   0  0  0  0  0  0  0  0  0  0  0  0
   -2.3659   -0.8447    0.8120 N   0  0  0  0  0  0  0  0  0  0  0  0
   -3.1749   -0.3807    0.4220 H   0  0  0  0  0  0  0  0  0  0  0  0
   -1.0919   -0.1077    0.8170 C   0  0  1  0  0  0  0  0  0  0  0  0
   -0.3571   -0.6901    0.2581 H   0  0  0  0  0  0  0  0  0  0  0  0
   -1.3037    1.2411    0.1040 C   0  0  0  0  0  0  0  0  0  0  0  0
   -1.1016    1.1074   -0.9599 H   0  0  0  0  0  0  0  0  0  0  0  0
   -2.3459    1.5465    0.2164 H   0  0  0  0  0  0  0  0  0  0  0  0
   -0.3895    2.3569    0.6328 C   0  0  0  0  0  0  0  0  0  0  0  0
   -0.9963    3.1714    1.0305 H   0  0  0  0  0  0  0  0  0  0  0  0
    0.2394    1.9581    1.4312 H   0  0  0  0  0  0  0  0  0  0  0  0
    0.5017    2.8969   -0.4943 C   0  0  0  0  0  0  0  0  0  0  0  0
    1.0971    2.0758   -0.9005 H   0  0  0  0  0  0  0  0  0  0  0  0
   -0.1317    3.3027   -1.2856 H   0  0  0  0  0  0  0  0  0  0  0  0
    1.4324    3.9938    0.0378 C   0  0  0  0  0  0  0  0  0  0  0  0
    0.8177    4.8023    0.4467 H   0  0  0  0  0  0  0  0  0  0  0  0
    2.0272    3.5780    0.8567 H   0  0  0  0  0  0  0  0  0  0  0  0
    2.3235    4.5179   -1.0279 N   0  3  0  0  0  0  0  0  0  0  0  0
    1.7788    4.9136   -1.7840 H   0  0  0  0  0  0  0  0  0  0  0  0
    2.9309    5.2399   -0.6609 H   0  0  0  0  0  0  0  0  0  0  0  0
    2.9010    3.7749   -1.4038 H   0  0  0  0  0  0  0  0  0  0  0  0
   -0.5865    0.0771    2.2496 C   0  0  0  0  0  0  0  0  0  0  0  0
    0.5860   -0.1608    2.5143 O   0  0  0  0  0  0  0  0  0  0  0  0
   -1.4786    0.4656    3.1667 N   0  0  0  0  0  0  0  0  0  0  0  0
   -2.4139    0.6698    2.8558 H   0  0  0  0  0  0  0  0  0  0  0  0
   -1.1587    0.6908    4.5775 C   0  0  0  0  0  0  0  0  0  0  0  0
   -0.4270    1.4968    4.6656 H   0  0  0  0  0  0  0  0  0  0  0  0
   -2.0565    0.9649    5.1327 H   0  0  0  0  0  0  0  0  0  0  0  0
   -0.7281   -0.2137    5.0125 H   0  0  0  0  0  0  0  0  0  0  0  0
  5  6  2  0  0  0  0
  5  7  1  0  0  0  0
  2  3  1  0  0  0  0
  2  4  1  0  0  0  0
  2  5  1  0  0  0  0
  1  2  1  0  0  0  0
 27 28  2  0  0  0  0
 27 29  1  0  0  0  0
 23 24  1  0  0  0  0
 23 25  1  0  0  0  0
 23 26  1  0  0  0  0
 20 21  1  0  0  0  0
 20 22  1  0  0  0  0
 20 23  1  0  0  0  0
 17 18  1  0  0  0  0
 17 19  1  0  0  0  0
 17 20  1  0  0  0  0
 14 15  1  0  0  0  0
 14 16  1  0  0  0  0
 14 17  1  0  0  0  0
 11 12  1  0  0  0  0
 11 13  1  0  0  0  0
 11 14  1  0  0  0  0
  9 10  1  0  0  0  0
  9 11  1  0  0  0  0
  9 27  1  0  0  0  0
  7  8  1  0  0  0  0
  7  9  1  0  0  0  0
 31 32  1  0  0  0  0
 31 33  1  0  0  0  0
 31 34  1  0  0  0  0
 29 30  1  0  0  0  0
 29 31  1  0  0  0  0
M  CHG  1  23   1
M  END
$$$$
default_name
  -OEChem-02102213163D

 34 33  0     1  0  0  0  0  0999 V2000
   -3.8899   -3.6747    1.6490 H   0  0  0  0  0  0  0  0  0  0  0  0
   -3.9109   -2.6717    1.2250 C   0  0  0  0  0  0  0  0  0  0  0  0
   -4.6009   -2.0517    1.7950 H   0  0  0  0  0  0  0  0  0  0  0  0
   -4.2309   -2.7237    0.1860 H   0  0  0  0  0  0  0  0  0  0  0  0
   -2.5229   -2.0787    1.2980 C   0  0  0  0  0  0  0  0  0  0  0  0
   -1.5999   -2.7227    1.7810 O   0  0  0  0  0  0  0  0  0  0  0  0
   -2.3659   -0.8447    0.8120 N   0  0  0  0  0  0  0  0  0  0  0  0
   -3.1749   -0.3807    0.4220 H   0  0  0  0  0  0  0  0  0  0  0  0
   -1.0919   -0.1077    0.8170 C   0  0  1  0  0  0  0  0  0  0  0  0
   -0.3571   -0.6901    0.2581 H   0  0  0  0  0  0  0  0  0  0  0  0
   -1.3037    1.2411    0.1040 C   0  0  0  0  0  0  0  0  0  0  0  0
   -1.1016    1.1074   -0.9599 H   0  0  0  0  0  0  0  0  0  0  0  0
   -2.3459    1.5465    0.2164 H   0  0  0  0  0  0  0  0  0  0  0  0
   -0.3895    2.3569    0.6328 C   0  0  0  0  0  0  0  0  0  0  0  0
   -0.9660    3.0374    1.2608 H   0  0  0  0  0  0  0  0  0  0  0  0
    0.4108    1.9137    1.2286 H   0  0  0  0  0  0  0  0  0  0  0  0
    0.2222    3.1447   -0.5339 C   0  0  0  0  0  0  0  0  0  0  0  0
    0.7864    2.4577   -1.1692 H   0  0  0  0  0  0  0  0  0  0  0  0
   -0.5817    3.5933   -1.1209 H   0  0  0  0  0  0  0  0  0  0  0  0
    1.1546    4.2431   -0.0080 C   0  0  0  0  0  0  0  0  0  0  0  0
    0.5730    4.9153    0.6312 H   0  0  0  0  0  0  0  0  0  0  0  0
    1.9268    3.7767    0.6110 H   0  0  0  0  0  0  0  0  0  0  0  0
    1.7793    5.0064   -1.1178 N   0  3  0  0  0  0  0  0  0  0  0  0
    1.0698    5.4491   -1.6883 H   0  0  0  0  0  0  0  0  0  0  0  0
    2.3912    5.7264   -0.7544 H   0  0  0  0  0  0  0  0  0  0  0  0
    2.3261    4.3900   -1.7077 H   0  0  0  0  0  0  0  0  0  0  0  0
   -0.5865    0.0771    2.2496 C   0  0  0  0  0  0  0  0  0  0  0  0
    0.5860   -0.1608    2.5143 O   0  0  0  0  0  0  0  0  0  0  0  0
   -1.4786    0.4656    3.1667 N   0  0  0  0  0  0  0  0  0  0  0  0
   -2.4139    0.6698    2.8558 H   0  0  0  0  0  0  0  0  0  0  0  0
   -1.1587    0.6908    4.5775 C   0  0  0  0  0  0  0  0  0  0  0  0
   -0.4270    1.4968    4.6656 H   0  0  0  0  0  0  0  0  0  0  0  0
   -2.0565    0.9649    5.1327 H   0  0  0  0  0  0  0  0  0  0  0  0
   -0.7281   -0.2137    5.0125 H   0  0  0  0  0  0  0  0  0  0  0  0
  5  6  2  0  0  0  0
  5  7  1  0  0  0  0
  2  3  1  0  0  0  0
  2  4  1  0  0  0  0
  2  5  1  0  0  0  0
  1  2  1  0  0  0  0
 27 28  2  0  0  0  0
 27 29  1  0  0  0  0
 23 24  1  0  0  0  0
 23 25  1  0  0  0  0
 23 26  1  0  0  0  0
 20 21  1  0  0  0  0
 20 22  1  0  0  0  0
 20 23  1  0  0  0  0
 17 18  1  0  0  0  0
 17 19  1  0  0  0  0
 17 20  1  0  0  0  0
 14 15  1  0  0  0  0
 14 16  1  0  0  0  0
 14 17  1  0  0  0  0
 11 12  1  0  0  0  0
 11 13  1  0  0  0  0
 11 14  1  0  0  0  0
  9 10  1  0  0  0  0
  9 11  1  0  0  0  0
  9 27  1  0  0  0  0
  7  8  1  0  0  0  0
  7  9  1  0  0  0  0
 31 32  1  0  0  0  0
 31 33  1  0  0  0  0
 31 34  1  0  0  0  0
 29 30  1  0  0  0  0
 29 31  1  0  0  0  0
M  CHG  1  23   1
M  END
$$$$
default_name
  -OEChem-02102213163D

 34 33  0     1  0  0  0  0  0999 V2000
   -3.8899   -3.6747    1.6490 H   0  0  0  0  0  0  0  0  0  0  0  0
   -3.9109   -2.6717    1.2250 C   0  0  0  0  0  0  0  0  0  0  0  0
   -4.6009   -2.0517    1.7950 H   0  0  0  0  0  0  0  0  0  0  0  0
   -4.2309   -2.7237    0.1860 H   0  0  0  0  0  0  0  0  0  0  0  0
   -2.5229   -2.0787    1.2980 C   0  0  0  0  0  0  0  0  0  0  0  0
   -1.5999   -2.7227    1.7810 O   0  0  0  0  0  0  0  0  0  0  0  0
   -2.3659   -0.8447    0.8120 N   0  0  0  0  0  0  0  0  0  0  0  0
   -3.1749   -0.3807    0.4220 H   0  0  0  0  0  0  0  0  0  0  0  0
   -1.0919   -0.1077    0.8170 C   0  0  1  0  0  0  0  0  0  0  0  0
   -0.3571   -0.6901    0.2581 H   0  0  0  0  0  0  0  0  0  0  0  0
   -1.3037    1.2411    0.1040 C   0  0  0  0  0  0  0  0  0  0  0  0
   -1.1016    1.1074   -0.9599 H   0  0  0  0  0  0  0  0  0  0  0  0
   -2.3459    1.5465    0.2164 H   0  0  0  0  0  0  0  0  0  0  0  0
   -0.3895    2.3569    0.6328 C   0  0  0  0  0  0  0  0  0  0  0  0
   -0.8815    2.8753    1.4569 H   0  0  0  0  0  0  0  0  0  0  0  0
    0.5423    1.9172    0.9938 H   0  0  0  0  0  0  0  0  0  0  0  0
   -0.0773    3.3652   -0.4816 C   0  0  0  0  0  0  0  0  0  0  0  0
    0.4017    2.8403   -1.3115 H   0  0  0  0  0  0  0  0  0  0  0  0
   -1.0113    3.8086   -0.8325 H   0  0  0  0  0  0  0  0  0  0  0  0
    0.8554    4.4663    0.0383 C   0  0  0  0  0  0  0  0  0  0  0  0
    0.3613    4.9743    0.8729 H   0  0  0  0  0  0  0  0  0  0  0  0
    1.7660    3.9974    0.4232 H   0  0  0  0  0  0  0  0  0  0  0  0
    1.1933    5.4436   -1.0272 N   0  3  0  0  0  0  0  0  0  0  0  0
    0.3553    5.8885   -1.3801 H   0  0  0  0  0  0  0  0  0  0  0  0
    1.8090    6.1626   -0.6684 H   0  0  0  0  0  0  0  0  0  0  0  0
    1.6589    4.9797   -1.7984 H   0  0  0  0  0  0  0  0  0  0  0  0
   -0.5865    0.0771    2.2496 C   0  0  0  0  0  0  0  0  0  0  0  0
    0.5860   -0.1608    2.5143 O   0  0  0  0  0  0  0  0  0  0  0  0
   -1.4786    0.4656    3.1667 N   0  0  0  0  0  0  0  0  0  0  0  0
   -2.4139    0.6698    2.8558 H   0  0  0  0  0  0  0  0  0  0  0  0
   -1.1587    0.6908    4.5775 C   0  0  0  0  0  0  0  0  0  0  0  0
   -0.4270    1.4968    4.6656 H   0  0  0  0  0  0  0  0  0  0  0  0
   -2.0565    0.9649    5.1327 H   0  0  0  0  0  0  0  0  0  0  0  0
   -0.7281   -0.2137    5.0125 H   0  0  0  0  0  0  0  0  0  0  0  0
  5  6  2  0  0  0  0
  5  7  1  0  0  0  0
  2  3  1  0  0  0  0
  2  4  1  0  0  0  0
  2  5  1  0  0  0  0
  1  2  1  0  0  0  0
 27 28  2  0  0  0  0
 27 29  1  0  0  0  0
 23 24  1  0  0  0  0
 23 25  1  0  0  0  0
 23 26  1  0  0  0  0
 20 21  1  0  0  0  0
 20 22  1  0  0  0  0
 20 23  1  0  0  0  0
 17 18  1  0  0  0  0
 17 19  1  0  0  0  0
 17 20  1  0  0  0  0
 14 15  1  0  0  0  0
 14 16  1  0  0  0  0
 14 17  1  0  0  0  0
 11 12  1  0  0  0  0
 11 13  1  0  0  0  0
 11 14  1  0  0  0  0
  9 10  1  0  0  0  0
  9 11  1  0  0  0  0
  9 27  1  0  0  0  0
  7  8  1  0  0  0  0
  7  9  1  0  0  0  0
 31 32  1  0  0  0  0
 31 33  1  0  0  0  0
 31 34  1  0  0  0  0
 29 30  1  0  0  0  0
 29 31  1  0  0  0  0
M  CHG  1  23   1
M  END
$$$$
default_name
  -OEChem-02102213163D

 34 33  0     1  0  0  0  0  0999 V2000
   -3.8899   -3.6747    1.6490 H   0  0  0  0  0  0  0  0  0  0  0  0
   -3.9109   -2.6717    1.2250 C   0  0  0  0  0  0  0  0  0  0  0  0
   -4.6009   -2.0517    1.7950 H   0  0  0  0  0  0  0  0  0  0  0  0
   -4.2309   -2.7237    0.1860 H   0  0  0  0  0  0  0  0  0  0  0  0
   -2.5229   -2.0787    1.2980 C   0  0  0  0  0  0  0  0  0  0  0  0
   -1.5999   -2.7227    1.7810 O   0  0  0  0  0  0  0  0  0  0  0  0
   -2.3659   -0.8447    0.8120 N   0  0  0  0  0  0  0  0  0  0  0  0
   -3.1749   -0.3807    0.4220 H   0  0  0  0  0  0  0  0  0  0  0  0
   -1.0919   -0.1077    0.8170 C   0  0  1  0  0  0  0  0  0  0  0  0
   -0.3571   -0.6901    0.2581 H   0  0  0  0  0  0  0  0  0  0  0  0
   -1.3037    1.2411    0.1040 C   0  0  0  0  0  0  0  0  0  0  0  0
   -1.1016    1.1074   -0.9599 H   0  0  0  0  0  0  0  0  0  0  0  0
   -2.3459    1.5465    0.2164 H   0  0  0  0  0  0  0  0  0  0  0  0
   -0.3895    2.3569    0.6328 C   0  0  0  0  0  0  0  0  0  0  0  0
   -0.7486    2.6959    1.6054 H   0  0  0  0  0  0  0  0  0  0  0  0
    0.6249    1.9685    0.7428 H   0  0  0  0  0  0  0  0  0  0  0  0
   -0.3764    3.5435   -0.3407 C   0  0  0  0  0  0  0  0  0  0  0  0
   -0.0307    3.1976   -1.3177 H   0  0  0  0  0  0  0  0  0  0  0  0
   -1.3912    3.9339   -0.4400 H   0  0  0  0  0  0  0  0  0  0  0  0
    0.5553    4.6480    0.1737 C   0  0  0  0  0  0  0  0  0  0  0  0
    0.1969    4.9751    1.1552 H   0  0  0  0  0  0  0  0  0  0  0  0
    1.5557    4.2253    0.3060 H   0  0  0  0  0  0  0  0  0  0  0  0
    0.6053    5.7997   -0.7621 N   0  3  0  0  0  0  0  0  0  0  0  0
   -0.3161    6.2019   -0.8805 H   0  0  0  0  0  0  0  0  0  0  0  0
    1.2240    6.5189   -0.4087 H   0  0  0  0  0  0  0  0  0  0  0  0
    0.9449    5.5038   -1.6699 H   0  0  0  0  0  0  0  0  0  0  0  0
   -0.5865    0.0771    2.2496 C   0  0  0  0  0  0  0  0  0  0  0  0
    0.5860   -0.1608    2.5143 O   0  0  0  0  0  0  0  0  0  0  0  0
   -1.4786    0.4656    3.1667 N   0  0  0  0  0  0  0  0  0  0  0  0
   -2.4139    0.6698    2.8558 H   0  0  0  0  0  0  0  0  0  0  0  0
   -1.1587    0.6908    4.5775 C   0  0  0  0  0  0  0  0  0  0  0  0
   -0.4270    1.4968    4.6656 H   0  0  0  0  0  0  0  0  0  0  0  0
   -2.0565    0.9649    5.1327 H   0  0  0  0  0  0  0  0  0  0  0  0
   -0.7281   -0.2137    5.0125 H   0  0  0  0  0  0  0  0  0  0  0  0
  5  6  2  0  0  0  0
  5  7  1  0  0  0  0
  2  3  1  0  0  0  0
  2  4  1  0  0  0  0
  2  5  1  0  0  0  0
  1  2  1  0  0  0  0
 27 28  2  0  0  0  0
 27 29  1  0  0  0  0
 23 24  1  0  0  0  0
 23 25  1  0  0  0  0
 23 26  1  0  0  0  0
 20 21  1  0  0  0  0
 20 22  1  0  0  0  0
 20 23  1  0  0  0  0
 17 18  1  0  0  0  0
 17 19  1  0  0  0  0
 17 20  1  0  0  0  0
 14 15  1  0  0  0  0
 14 16  1  0  0  0  0
 14 17  1  0  0  0  0
 11 12  1  0  0  0  0
 11 13  1  0  0  0  0
 11 14  1  0  0  0  0
  9 10  1  0  0  0  0
  9 11  1  0  0  0  0
  9 27  1  0  0  0  0
  7  8  1  0  0  0  0
  7  9  1  0  0  0  0
 31 32  1  0  0  0  0
 31 33  1  0  0  0  0
 31 34  1  0  0  0  0
 29 30  1  0  0  0  0
 29 31  1  0  0  0  0
M  CHG  1  23   1
M  END
$$$$
default_name
  -OEChem-02102213163D

 34 33  0     1  0  0  0  0  0999 V2000
   -3.8899   -3.6747    1.6490 H   0  0  0  0  0  0  0  0  0  0  0  0
   -3.9109   -2.6717    1.2250 C   0  0  0  0  0  0  0  0  0  0  0  0
   -4.6009   -2.0517    1.7950 H   0  0  0  0  0  0  0  0  0  0  0  0
   -4.2309   -2.7237    0.1860 H   0  0  0  0  0  0  0  0  0  0  0  0
   -2.5229   -2.0787    1.2980 C   0  0  0  0  0  0  0  0  0  0  0  0
   -1.5999   -2.7227    1.7810 O   0  0  0  0  0  0  0  0  0  0  0  0
   -2.3659   -0.8447    0.8120 N   0  0  0  0  0  0  0  0  0  0  0  0
   -3.1749   -0.3807    0.4220 H   0  0  0  0  0  0  0  0  0  0  0  0
   -1.0919   -0.1077    0.8170 C   0  0  1  0  0  0  0  0  0  0  0  0
   -0.3571   -0.6901    0.2581 H   0  0  0  0  0  0  0  0  0  0  0  0
   -1.3037    1.2411    0.1040 C   0  0  0  0  0  0  0  0  0  0  0  0
   -1.3672    1.0602   -0.9702 H   0  0  0  0  0  0  0  0  0  0  0  0
   -2.2500    1.6757    0.4322 H   0  0  0  0  0  0  0  0  0  0  0  0
   -0.1700    2.2462    0.3583 C   0  0  0  0  0  0  0  0  0  0  0  0
   -0.0892    2.4461    1.4276 H   0  0  0  0  0  0  0  0  0  0  0  0
    0.7716    1.8235    0.0025 H   0  0  0  0  0  0  0  0  0  0  0  0
   -0.4472    3.5628   -0.3805 C   0  0  0  0  0  0  0  0  0  0  0  0
   -0.5424    3.3570   -1.4493 H   0  0  0  0  0  0  0  0  0  0  0  0
   -1.3848    3.9859   -0.0146 H   0  0  0  0  0  0  0  0  0  0  0  0
    0.6960    4.5586   -0.1477 C   0  0  0  0  0  0  0  0  0  0  0  0
    0.7800    4.7453    0.9279 H   0  0  0  0  0  0  0  0  0  0  0  0
    1.6310    4.0989   -0.4820 H   0  0  0  0  0  0  0  0  0  0  0  0
    0.4647    5.8341   -0.8715 N   0  3  0  0  0  0  0  0  0  0  0  0
   -0.3940    6.2697   -0.5588 H   0  0  0  0  0  0  0  0  0  0  0  0
    1.2274    6.4796   -0.7080 H   0  0  0  0  0  0  0  0  0  0  0  0
    0.3951    5.6678   -1.8687 H   0  0  0  0  0  0  0  0  0  0  0  0
   -0.5865    0.0771    2.2496 C   0  0  0  0  0  0  0  0  0  0  0  0
    0.5860   -0.1608    2.5143 O   0  0  0  0  0  0  0  0  0  0  0  0
   -1.4786    0.4656    3.1667 N   0  0  0  0  0  0  0  0  0  0  0  0
   -2.4139    0.6698    2.8558 H   0  0  0  0  0  0  0  0  0  0  0  0
   -1.1587    0.6908    4.5775 C   0  0  0  0  0  0  0  0  0  0  0  0
   -0.4270    1.4968    4.6656 H   0  0  0  0  0  0  0  0  0  0  0  0
   -2.0565    0.9649    5.1327 H   0  0  0  0  0  0  0  0  0  0  0  0
   -0.7281   -0.2137    5.0125 H   0  0  0  0  0  0  0  0  0  0  0  0
  5  6  2  0  0  0  0
  5  7  1  0  0  0  0
  2  3  1  0  0  0  0
  2  4  1  0  0  0  0
  2  5  1  0  0  0  0
  1  2  1  0  0  0  0
 27 28  2  0  0  0  0
 27 29  1  0  0  0  0
 23 24  1  0  0  0  0
 23 25  1  0  0  0  0
 23 26  1  0  0  0  0
 20 21  1  0  0  0  0
 20 22  1  0  0  0  0
 20 23  1  0  0  0  0
 17 18  1  0  0  0  0
 17 19  1  0  0  0  0
 17 20  1  0  0  0  0
 14 15  1  0  0  0  0
 14 16  1  0  0  0  0
 14 17  1  0  0  0  0
 11 12  1  0  0  0  0
 11 13  1  0  0  0  0
 11 14  1  0  0  0  0
  9 10  1  0  0  0  0
  9 11  1  0  0  0  0
  9 27  1  0  0  0  0
  7  8  1  0  0  0  0
  7  9  1  0  0  0  0
 31 32  1  0  0  0  0
 31 33  1  0  0  0  0
 31 34  1  0  0  0  0
 29 30  1  0  0  0  0
 29 31  1  0  0  0  0
M  CHG  1  23   1
M  END
$$$$
default_name
  -OEChem-02102213163D

 34 33  0     1  0  0  0  0  0999 V2000
   -3.8899   -3.6747    1.6490 H   0  0  0  0  0  0  0  0  0  0  0  0
   -3.9109   -2.6717    1.2250 C   0  0  0  0  0  0  0  0  0  0  0  0
   -4.6009   -2.0517    1.7950 H   0  0  0  0  0  0  0  0  0  0  0  0
   -4.2309   -2.7237    0.1860 H   0  0  0  0  0  0  0  0  0  0  0  0
   -2.5229   -2.0787    1.2980 C   0  0  0  0  0  0  0  0  0  0  0  0
   -1.5999   -2.7227    1.7810 O   0  0  0  0  0  0  0  0  0  0  0  0
   -2.3659   -0.8447    0.8120 N   0  0  0  0  0  0  0  0  0  0  0  0
   -3.1749   -0.3807    0.4220 H   0  0  0  0  0  0  0  0  0  0  0  0
   -1.0919   -0.1077    0.8170 C   0  0  1  0  0  0  0  0  0  0  0  0
   -0.3571   -0.6901    0.2581 H   0  0  0  0  0  0  0  0  0  0  0  0
   -1.3037    1.2411    0.1040 C   0  0  0  0  0  0  0  0  0  0  0  0
   -1.3672    1.0602   -0.9702 H   0  0  0  0  0  0  0  0  0  0  0  0
   -2.2500    1.6757    0.4322 H   0  0  0  0  0  0  0  0  0  0  0  0
   -0.1700    2.2462    0.3583 C   0  0  0  0  0  0  0  0  0  0  0  0
    0.0898    2.2467    1.4177 H   0  0  0  0  0  0  0  0  0  0  0  0
    0.7065    1.9542   -0.2235 H   0  0  0  0  0  0  0  0  0  0  0  0
   -0.6058    3.6591   -0.0539 C   0  0  0  0  0  0  0  0  0  0  0  0
   -0.8795    3.6519   -1.1117 H   0  0  0  0  0  0  0  0  0  0  0  0
   -1.4766    3.9498    0.5371 H   0  0  0  0  0  0  0  0  0  0  0  0
    0.5338    4.6596    0.1762 C   0  0  0  0  0  0  0  0  0  0  0  0
    0.7981    4.6462    1.2386 H   0  0  0  0  0  0  0  0  0  0  0  0
    1.4083    4.3269   -0.3909 H   0  0  0  0  0  0  0  0  0  0  0  0
    0.1468    6.0322   -0.2371 N   0  3  0  0  0  0  0  0  0  0  0  0
   -0.6558    6.3498    0.2919 H   0  0  0  0  0  0  0  0  0  0  0  0
    0.9090    6.6796   -0.0793 H   0  0  0  0  0  0  0  0  0  0  0  0
   -0.0904    6.0518   -1.2221 H   0  0  0  0  0  0  0  0  0  0  0  0
   -0.5865    0.0771    2.2496 C   0  0  0  0  0  0  0  0  0  0  0  0
    0.5860   -0.1608    2.5143 O   0  0  0  0  0  0  0  0  0  0  0  0
   -1.4786    0.4656    3.1667 N   0  0  0  0  0  0  0  0  0  0  0  0
   -2.4139    0.6698    2.8558 H   0  0  0  0  0  0  0  0  0  0  0  0
   -1.1587    0.6908    4.5775 C   0  0  0  0  0  0  0  0  0  0  0  0
   -0.4270    1.4968    4.6656 H   0  0  0  0  0  0  0  0  0  0  0  0
   -2.0565    0.9649    5.1327 H   0  0  0  0  0  0  0  0  0  0  0  0
   -0.7281   -0.2137    5.0125 H   0  0  0  0  0  0  0  0  0  0  0  0
  5  6  2  0  0  0  0
  5  7  1  0  0  0  0
  2  3  1  0  0  0  0
  2  4  1  0  0  0  0
  2  5  1  0  0  0  0
  1  2  1  0  0  0  0
 27 28  2  0  0  0  0
 27 29  1  0  0  0  0
 23 24  1  0  0  0  0
 23 25  1  0  0  0  0
 23 26  1  0  0  0  0
 20 21  1  0  0  0  0
 20 22  1  0  0  0  0
 20 23  1  0  0  0  0
 17 18  1  0  0  0  0
 17 19  1  0  0  0  0
 17 20  1  0  0  0  0
 14 15  1  0  0  0  0
 14 16  1  0  0  0  0
 14 17  1  0  0  0  0
 11 12  1  0  0  0  0
 11 13  1  0  0  0  0
 11 14  1  0  0  0  0
  9 10  1  0  0  0  0
  9 11  1  0  0  0  0
  9 27  1  0  0  0  0
  7  8  1  0  0  0  0
  7  9  1  0  0  0  0
 31 32  1  0  0  0  0
 31 33  1  0  0  0  0
 31 34  1  0  0  0  0
 29 30  1  0  0  0  0
 29 31  1  0  0  0  0
M  CHG  1  23   1
M  END
$$$$
default_name
  -OEChem-02102213163D

 34 33  0     1  0  0  0  0  0999 V2000
   -3.8899   -3.6747    1.6490 H   0  0  0  0  0  0  0  0  0  0  0  0
   -3.9109   -2.6717    1.2250 C   0  0  0  0  0  0  0  0  0  0  0  0
   -4.6009   -2.0517    1.7950 H   0  0  0  0  0  0  0  0  0  0  0  0
   -4.2309   -2.7237    0.1860 H   0  0  0  0  0  0  0  0  0  0  0  0
   -2.5229   -2.0787    1.2980 C   0  0  0  0  0  0  0  0  0  0  0  0
   -1.5999   -2.7227    1.7810 O   0  0  0  0  0  0  0  0  0  0  0  0
   -2.3659   -0.8447    0.8120 N   0  0  0  0  0  0  0  0  0  0  0  0
   -3.1749   -0.3807    0.4220 H   0  0  0  0  0  0  0  0  0  0  0  0
   -1.0919   -0.1077    0.8170 C   0  0  1  0  0  0  0  0  0  0  0  0
   -0.3571   -0.6901    0.2581 H   0  0  0  0  0  0  0  0  0  0  0  0
   -1.3037    1.2411    0.1040 C   0  0  0  0  0  0  0  0  0  0  0  0
   -1.3672    1.0602   -0.9702 H   0  0  0  0  0  0  0  0  0  0  0  0
   -2.2500    1.6757    0.4322 H   0  0  0  0  0  0  0  0  0  0  0  0
   -0.1700    2.2462    0.3583 C   0  0  0  0  0  0  0  0  0  0  0  0
    0.2695    2.0637    1.3398 H   0  0  0  0  0  0  0  0  0  0  0  0
    0.5996    2.1209   -0.4058 H   0  0  0  0  0  0  0  0  0  0  0  0
   -0.7078    3.6829    0.3068 C   0  0  0  0  0  0  0  0  0  0  0  0
   -1.1606    3.8578   -0.6721 H   0  0  0  0  0  0  0  0  0  0  0  0
   -1.4702    3.8057    1.0786 H   0  0  0  0  0  0  0  0  0  0  0  0
    0.4276    4.6884    0.5359 C   0  0  0  0  0  0  0  0  0  0  0  0
    0.8725    4.4920    1.5168 H   0  0  0  0  0  0  0  0  0  0  0  0
    1.1989    4.5203   -0.2217 H   0  0  0  0  0  0  0  0  0  0  0  0
   -0.0613    6.0887    0.4674 N   0  3  0  0  0  0  0  0  0  0  0  0
   -0.7681    6.2534    1.1732 H   0  0  0  0  0  0  0  0  0  0  0  0
    0.6993    6.7392    0.6201 H   0  0  0  0  0  0  0  0  0  0  0  0
   -0.4662    6.2784   -0.4420 H   0  0  0  0  0  0  0  0  0  0  0  0
   -0.5865    0.0771    2.2496 C   0  0  0  0  0  0  0  0  0  0  0  0
    0.5860   -0.1608    2.5143 O   0  0  0  0  0  0  0  0  0  0  0  0
   -1.4786    0.4656    3.1667 N   0  0  0  0  0  0  0  0  0  0  0  0
   -2.4139    0.6698    2.8558 H   0  0  0  0  0  0  0  0  0  0  0  0
   -1.1587    0.6908    4.5775 C   0  0  0  0  0  0  0  0  0  0  0  0
   -0.4270    1.4968    4.6656 H   0  0  0  0  0  0  0  0  0  0  0  0
   -2.0565    0.9649    5.1327 H   0  0  0  0  0  0  0  0  0  0  0  0
   -0.7281   -0.2137    5.0125 H   0  0  0  0  0  0  0  0  0  0  0  0
  5  6  2  0  0  0  0
  5  7  1  0  0  0  0
  2  3  1  0  0  0  0
  2  4  1  0  0  0  0
  2  5  1  0  0  0  0
  1  2  1  0  0  0  0
 27 28  2  0  0  0  0
 27 29  1  0  0  0  0
 23 24  1  0  0  0  0
 23 25  1  0  0  0  0
 23 26  1  0  0  0  0
 20 21  1  0  0  0  0
 20 22  1  0  0  0  0
 20 23  1  0  0  0  0
 17 18  1  0  0  0  0
 17 19  1  0  0  0  0
 17 20  1  0  0  0  0
 14 15  1  0  0  0  0
 14 16  1  0  0  0  0
 14 17  1  0  0  0  0
 11 12  1  0  0  0  0
 11 13  1  0  0  0  0
 11 14  1  0  0  0  0
  9 10  1  0  0  0  0
  9 11  1  0  0  0  0
  9 27  1  0  0  0  0
  7  8  1  0  0  0  0
  7  9  1  0  0  0  0
 31 32  1  0  0  0  0
 31 33  1  0  0  0  0
 31 34  1  0  0  0  0
 29 30  1  0  0  0  0
 29 31  1  0  0  0  0
M  CHG  1  23   1
M  END
$$$$
default_name
  -OEChem-02102213163D

 34 33  0     1  0  0  0  0  0999 V2000
   -3.8899   -3.6747    1.6490 H   0  0  0  0  0  0  0  0  0  0  0  0
   -3.9109   -2.6717    1.2250 C   0  0  0  0  0  0  0  0  0  0  0  0
   -4.6009   -2.0517    1.7950 H   0  0  0  0  0  0  0  0  0  0  0  0
   -4.2309   -2.7237    0.1860 H   0  0  0  0  0  0  0  0  0  0  0  0
   -2.5229   -2.0787    1.2980 C   0  0  0  0  0  0  0  0  0  0  0  0
   -1.5999   -2.7227    1.7810 O   0  0  0  0  0  0  0  0  0  0  0  0
   -2.3659   -0.8447    0.8120 N   0  0  0  0  0  0  0  0  0  0  0  0
   -3.1749   -0.3807    0.4220 H   0  0  0  0  0  0  0  0  0  0  0  0
   -1.0919   -0.1077    0.8170 C   0  0  1  0  0  0  0  0  0  0  0  0
   -0.3571   -0.6901    0.2581 H   0  0  0  0  0  0  0  0  0  0  0  0
   -1.3037    1.2411    0.1040 C   0  0  0  0  0  0  0  0  0  0  0  0
   -1.3672    1.0602   -0.9702 H   0  0  0  0  0  0  0  0  0  0  0  0
   -2.2500    1.6757    0.4322 H   0  0  0  0  0  0  0  0  0  0  0  0
   -0.1700    2.2462    0.3583 C   0  0  0  0  0  0  0  0  0  0  0  0
    0.4378    1.9095    1.1992 H   0  0  0  0  0  0  0  0  0  0  0  0
    0.4584    2.3121   -0.5320 H   0  0  0  0  0  0  0  0  0  0  0  0
   -0.7463    3.6327    0.6770 C   0  0  0  0  0  0  0  0  0  0  0  0
   -1.3666    3.9606   -0.1606 H   0  0  0  0  0  0  0  0  0  0  0  0
   -1.3662    3.5632    1.5731 H   0  0  0  0  0  0  0  0  0  0  0  0
    0.3846    4.6430    0.9067 C   0  0  0  0  0  0  0  0  0  0  0  0
    0.9980    4.2930    1.7434 H   0  0  0  0  0  0  0  0  0  0  0  0
    1.0171    4.6658    0.0141 H   0  0  0  0  0  0  0  0  0  0  0  0
   -0.1455    5.9999    1.1939 N   0  3  0  0  0  0  0  0  0  0  0  0
   -0.7232    5.9872    2.0251 H   0  0  0  0  0  0  0  0  0  0  0  0
    0.6127    6.6541    1.3426 H   0  0  0  0  0  0  0  0  0  0  0  0
   -0.7069    6.3321    0.4184 H   0  0  0  0  0  0  0  0  0  0  0  0
   -0.5865    0.0771    2.2496 C   0  0  0  0  0  0  0  0  0  0  0  0
    0.5860   -0.1608    2.5143 O   0  0  0  0  0  0  0  0  0  0  0  0
   -1.4786    0.4656    3.1667 N   0  0  0  0  0  0  0  0  0  0  0  0
   -2.4139    0.6698    2.8558 H   0  0  0  0  0  0  0  0  0  0  0  0
   -1.1587    0.6908    4.5775 C   0  0  0  0  0  0  0  0  0  0  0  0
   -0.4270    1.4968    4.6656 H   0  0  0  0  0  0  0  0  0  0  0  0
   -2.0565    0.9649    5.1327 H   0  0  0  0  0  0  0  0  0  0  0  0
   -0.7281   -0.2137    5.0125 H   0  0  0  0  0  0  0  0  0  0  0  0
  5  6  2  0  0  0  0
  5  7  1  0  0  0  0
  2  3  1  0  0  0  0
  2  4  1  0  0  0  0
  2  5  1  0  0  0  0
  1  2  1  0  0  0  0
 27 28  2  0  0  0  0
 27 29  1  0  0  0  0
 23 24  1  0  0  0  0
 23 25  1  0  0  0  0
 23 26  1  0  0  0  0
 20 21  1  0  0  0  0
 20 22  1  0  0  0  0
 20 23  1  0  0  0  0
 17 18  1  0  0  0  0
 17 19  1  0  0  0  0
 17 20  1  0  0  0  0
 14 15  1  0  0  0  0
 14 16  1  0  0  0  0
 14 17  1  0  0  0  0
 11 12  1  0  0  0  0
 11 13  1  0  0  0  0
 11 14  1  0  0  0  0
  9 10  1  0  0  0  0
  9 11  1  0  0  0  0
  9 27  1  0  0  0  0
  7  8  1  0  0  0  0
  7  9  1  0  0  0  0
 31 32  1  0  0  0  0
 31 33  1  0  0  0  0
 31 34  1  0  0  0  0
 29 30  1  0  0  0  0
 29 31  1  0  0  0  0
M  CHG  1  23   1
M  END
$$$$
default_name
  -OEChem-02102213163D

 34 33  0     1  0  0  0  0  0999 V2000
   -3.8899   -3.6747    1.6490 H   0  0  0  0  0  0  0  0  0  0  0  0
   -3.9109   -2.6717    1.2250 C   0  0  0  0  0  0  0  0  0  0  0  0
   -4.6009   -2.0517    1.7950 H   0  0  0  0  0  0  0  0  0  0  0  0
   -4.2309   -2.7237    0.1860 H   0  0  0  0  0  0  0  0  0  0  0  0
   -2.5229   -2.0787    1.2980 C   0  0  0  0  0  0  0  0  0  0  0  0
   -1.5999   -2.7227    1.7810 O   0  0  0  0  0  0  0  0  0  0  0  0
   -2.3659   -0.8447    0.8120 N   0  0  0  0  0  0  0  0  0  0  0  0
   -3.1749   -0.3807    0.4220 H   0  0  0  0  0  0  0  0  0  0  0  0
   -1.0919   -0.1077    0.8170 C   0  0  1  0  0  0  0  0  0  0  0  0
   -0.3571   -0.6901    0.2581 H   0  0  0  0  0  0  0  0  0  0  0  0
   -1.3037    1.2411    0.1040 C   0  0  0  0  0  0  0  0  0  0  0  0
   -1.3672    1.0602   -0.9702 H   0  0  0  0  0  0  0  0  0  0  0  0
   -2.2500    1.6757    0.4322 H   0  0  0  0  0  0  0  0  0  0  0  0
   -0.1700    2.2462    0.3583 C   0  0  0  0  0  0  0  0  0  0  0  0
    0.5832    1.7946    1.0053 H   0  0  0  0  0  0  0  0  0  0  0  0
    0.2925    2.5148   -0.5935 H   0  0  0  0  0  0  0  0  0  0  0  0
   -0.7187    3.5118    1.0316 C   0  0  0  0  0  0  0  0  0  0  0  0
   -1.4833    3.9534    0.3880 H   0  0  0  0  0  0  0  0  0  0  0  0
   -1.1717    3.2391    1.9868 H   0  0  0  0  0  0  0  0  0  0  0  0
    0.4079    4.5265    1.2636 C   0  0  0  0  0  0  0  0  0  0  0  0
    1.1662    4.0629    1.9031 H   0  0  0  0  0  0  0  0  0  0  0  0
    0.8751    4.7535    0.3005 H   0  0  0  0  0  0  0  0  0  0  0  0
   -0.0999    5.7717    1.8929 N   0  3  0  0  0  0  0  0  0  0  0  0
   -0.5241    5.5693    2.7895 H   0  0  0  0  0  0  0  0  0  0  0  0
    0.6550    6.4303    2.0388 H   0  0  0  0  0  0  0  0  0  0  0  0
   -0.7959    6.2094    1.3006 H   0  0  0  0  0  0  0  0  0  0  0  0
   -0.5865    0.0771    2.2496 C   0  0  0  0  0  0  0  0  0  0  0  0
    0.5860   -0.1608    2.5143 O   0  0  0  0  0  0  0  0  0  0  0  0
   -1.4786    0.4656    3.1667 N   0  0  0  0  0  0  0  0  0  0  0  0
   -2.4139    0.6698    2.8558 H   0  0  0  0  0  0  0  0  0  0  0  0
   -1.1587    0.6908    4.5775 C   0  0  0  0  0  0  0  0  0  0  0  0
   -0.4270    1.4968    4.6656 H   0  0  0  0  0  0  0  0  0  0  0  0
   -2.0565    0.9649    5.1327 H   0  0  0  0  0  0  0  0  0  0  0  0
   -0.7281   -0.2137    5.0125 H   0  0  0  0  0  0  0  0  0  0  0  0
  5  6  2  0  0  0  0
  5  7  1  0  0  0  0
  2  3  1  0  0  0  0
  2  4  1  0  0  0  0
  2  5  1  0  0  0  0
  1  2  1  0  0  0  0
 27 28  2  0  0  0  0
 27 29  1  0  0  0  0
 23 24  1  0  0  0  0
 23 25  1  0  0  0  0
 23 26  1  0  0  0  0
 20 21  1  0  0  0  0
 20 22  1  0  0  0  0
 20 23  1  0  0  0  0
 17 18  1  0  0  0  0
 17 19  1  0  0  0  0
 17 20  1  0  0  0  0
 14 15  1  0  0  0  0
 14 16  1  0  0  0  0
 14 17  1  0  0  0  0
 11 12  1  0  0  0  0
 11 13  1  0  0  0  0
 11 14  1  0  0  0  0
  9 10  1  0  0  0  0
  9 11  1  0  0  0  0
  9 27  1  0  0  0  0
  7  8  1  0  0  0  0
  7  9  1  0  0  0  0
 31 32  1  0  0  0  0
 31 33  1  0  0  0  0
 31 34  1  0  0  0  0
 29 30  1  0  0  0  0
 29 31  1  0  0  0  0
M  CHG  1  23   1
M  END
$$$$
default_name
  -OEChem-02102213163D

 34 33  0     1  0  0  0  0  0999 V2000
   -3.8899   -3.6747    1.6490 H   0  0  0  0  0  0  0  0  0  0  0  0
   -3.9109   -2.6717    1.2250 C   0  0  0  0  0  0  0  0  0  0  0  0
   -4.6009   -2.0517    1.7950 H   0  0  0  0  0  0  0  0  0  0  0  0
   -4.2309   -2.7237    0.1860 H   0  0  0  0  0  0  0  0  0  0  0  0
   -2.5229   -2.0787    1.2980 C   0  0  0  0  0  0  0  0  0  0  0  0
   -1.5999   -2.7227    1.7810 O   0  0  0  0  0  0  0  0  0  0  0  0
   -2.3659   -0.8447    0.8120 N   0  0  0  0  0  0  0  0  0  0  0  0
   -3.1749   -0.3807    0.4220 H   0  0  0  0  0  0  0  0  0  0  0  0
   -1.0919   -0.1077    0.8170 C   0  0  1  0  0  0  0  0  0  0  0  0
   -0.3571   -0.6901    0.2581 H   0  0  0  0  0  0  0  0  0  0  0  0
   -1.3037    1.2411    0.1040 C   0  0  0  0  0  0  0  0  0  0  0  0
   -1.3672    1.0602   -0.9702 H   0  0  0  0  0  0  0  0  0  0  0  0
   -2.2500    1.6757    0.4322 H   0  0  0  0  0  0  0  0  0  0  0  0
   -0.1700    2.2462    0.3583 C   0  0  0  0  0  0  0  0  0  0  0  0
    0.6956    1.7268    0.7716 H   0  0  0  0  0  0  0  0  0  0  0  0
    0.1131    2.7153   -0.5860 H   0  0  0  0  0  0  0  0  0  0  0  0
   -0.6267    3.3285    1.3463 C   0  0  0  0  0  0  0  0  0  0  0  0
   -1.5028    3.8367    0.9363 H   0  0  0  0  0  0  0  0  0  0  0  0
   -0.8998    2.8553    2.2916 H   0  0  0  0  0  0  0  0  0  0  0  0
    0.4958    4.3467    1.5820 C   0  0  0  0  0  0  0  0  0  0  0  0
    1.3655    3.8174    1.9849 H   0  0  0  0  0  0  0  0  0  0  0  0
    0.7827    4.7774    0.6179 H   0  0  0  0  0  0  0  0  0  0  0  0
    0.0722    5.4197    2.5168 N   0  3  0  0  0  0  0  0  0  0  0  0
   -0.1845    5.0282    3.4144 H   0  0  0  0  0  0  0  0  0  0  0  0
    0.8233    6.0829    2.6614 H   0  0  0  0  0  0  0  0  0  0  0  0
   -0.7273    5.9185    2.1443 H   0  0  0  0  0  0  0  0  0  0  0  0
   -0.5865    0.0771    2.2496 C   0  0  0  0  0  0  0  0  0  0  0  0
    0.5860   -0.1608    2.5143 O   0  0  0  0  0  0  0  0  0  0  0  0
   -1.4786    0.4656    3.1667 N   0  0  0  0  0  0  0  0  0  0  0  0
   -2.4139    0.6698    2.8558 H   0  0  0  0  0  0  0  0  0  0  0  0
   -1.1587    0.6908    4.5775 C   0  0  0  0  0  0  0  0  0  0  0  0
   -0.4270    1.4968    4.6656 H   0  0  0  0  0  0  0  0  0  0  0  0
   -2.0565    0.9649    5.1327 H   0  0  0  0  0  0  0  0  0  0  0  0
   -0.7281   -0.2137    5.0125 H   0  0  0  0  0  0  0  0  0  0  0  0
  5  6  2  0  0  0  0
  5  7  1  0  0  0  0
  2  3  1  0  0  0  0
  2  4  1  0  0  0  0
  2  5  1  0  0  0  0
  1  2  1  0  0  0  0
 27 28  2  0  0  0  0
 27 29  1  0  0  0  0
 23 24  1  0  0  0  0
 23 25  1  0  0  0  0
 23 26  1  0  0  0  0
 20 21  1  0  0  0  0
 20 22  1  0  0  0  0
 20 23  1  0  0  0  0
 17 18  1  0  0  0  0
 17 19  1  0  0  0  0
 17 20  1  0  0  0  0
 14 15  1  0  0  0  0
 14 16  1  0  0  0  0
 14 17  1  0  0  0  0
 11 12  1  0  0  0  0
 11 13  1  0  0  0  0
 11 14  1  0  0  0  0
  9 10  1  0  0  0  0
  9 11  1  0  0  0  0
  9 27  1  0  0  0  0
  7  8  1  0  0  0  0
  7  9  1  0  0  0  0
 31 32  1  0  0  0  0
 31 33  1  0  0  0  0
 31 34  1  0  0  0  0
 29 30  1  0  0  0  0
 29 31  1  0  0  0  0
M  CHG  1  23   1
M  END
$$$$
default_name
  -OEChem-02102213163D

 34 33  0     1  0  0  0  0  0999 V2000
   -3.8899   -3.6747    1.6490 H   0  0  0  0  0  0  0  0  0  0  0  0
   -3.9109   -2.6717    1.2250 C   0  0  0  0  0  0  0  0  0  0  0  0
   -4.6009   -2.0517    1.7950 H   0  0  0  0  0  0  0  0  0  0  0  0
   -4.2309   -2.7237    0.1860 H   0  0  0  0  0  0  0  0  0  0  0  0
   -2.5229   -2.0787    1.2980 C   0  0  0  0  0  0  0  0  0  0  0  0
   -1.5999   -2.7227    1.7810 O   0  0  0  0  0  0  0  0  0  0  0  0
   -2.3659   -0.8447    0.8120 N   0  0  0  0  0  0  0  0  0  0  0  0
   -3.1749   -0.3807    0.4220 H   0  0  0  0  0  0  0  0  0  0  0  0
   -1.0919   -0.1077    0.8170 C   0  0  1  0  0  0  0  0  0  0  0  0
   -0.3571   -0.6901    0.2581 H   0  0  0  0  0  0  0  0  0  0  0  0
   -1.3037    1.2411    0.1040 C   0  0  0  0  0  0  0  0  0  0  0  0
   -1.3672    1.0602   -0.9702 H   0  0  0  0  0  0  0  0  0  0  0  0
   -2.2500    1.6757    0.4322 H   0  0  0  0  0  0  0  0  0  0  0  0
   -0.1700    2.2462    0.3583 C   0  0  0  0  0  0  0  0  0  0  0  0
    0.7676    1.7109    0.5138 H   0  0  0  0  0  0  0  0  0  0  0  0
   -0.0675    2.8998   -0.5102 H   0  0  0  0  0  0  0  0  0  0  0  0
   -0.4768    3.0953    1.5997 C   0  0  0  0  0  0  0  0  0  0  0  0
   -1.4238    3.6185    1.4469 H   0  0  0  0  0  0  0  0  0  0  0  0
   -0.5691    2.4381    2.4667 H   0  0  0  0  0  0  0  0  0  0  0  0
    0.6424    4.1161    1.8404 C   0  0  0  0  0  0  0  0  0  0  0  0
    1.5824    3.5732    1.9832 H   0  0  0  0  0  0  0  0  0  0  0  0
    0.7461    4.7359    0.9448 H   0  0  0  0  0  0  0  0  0  0  0  0
    0.3592    4.9679    3.0231 N   0  3  0  0  0  0  0  0  0  0  0  0
    0.2725    4.4007    3.8571 H   0  0  0  0  0  0  0  0  0  0  0  0
    1.1062    5.6356    3.1679 H   0  0  0  0  0  0  0  0  0  0  0  0
   -0.5057    5.4794    2.8921 H   0  0  0  0  0  0  0  0  0  0  0  0
   -0.5865    0.0771    2.2496 C   0  0  0  0  0  0  0  0  0  0  0  0
    0.5860   -0.1608    2.5143 O   0  0  0  0  0  0  0  0  0  0  0  0
   -1.4786    0.4656    3.1667 N   0  0  0  0  0  0  0  0  0  0  0  0
   -2.4139    0.6698    2.8558 H   0  0  0  0  0  0  0  0  0  0  0  0
   -1.1587    0.6908    4.5775 C   0  0  0  0  0  0  0  0  0  0  0  0
   -0.4270    1.4968    4.6656 H   0  0  0  0  0  0  0  0  0  0  0  0
   -2.0565    0.9649    5.1327 H   0  0  0  0  0  0  0  0  0  0  0  0
   -0.7281   -0.2137    5.0125 H   0  0  0  0  0  0  0  0  0  0  0  0
  5  6  2  0  0  0  0
  5  7  1  0  0  0  0
  2  3  1  0  0  0  0
  2  4  1  0  0  0  0
  2  5  1  0  0  0  0
  1  2  1  0  0  0  0
 27 28  2  0  0  0  0
 27 29  1  0  0  0  0
 23 24  1  0  0  0  0
 23 25  1  0  0  0  0
 23 26  1  0  0  0  0
 20 21  1  0  0  0  0
 20 22  1  0  0  0  0
 20 23  1  0  0  0  0
 17 18  1  0  0  0  0
 17 19  1  0  0  0  0
 17 20  1  0  0  0  0
 14 15  1  0  0  0  0
 14 16  1  0  0  0  0
 14 17  1  0  0  0  0
 11 12  1  0  0  0  0
 11 13  1  0  0  0  0
 11 14  1  0  0  0  0
  9 10  1  0  0  0  0
  9 11  1  0  0  0  0
  9 27  1  0  0  0  0
  7  8  1  0  0  0  0
  7  9  1  0  0  0  0
 31 32  1  0  0  0  0
 31 33  1  0  0  0  0
 31 34  1  0  0  0  0
 29 30  1  0  0  0  0
 29 31  1  0  0  0  0
M  CHG  1  23   1
M  END
$$$$
default_name
  -OEChem-02102213163D

 34 33  0     1  0  0  0  0  0999 V2000
   -3.8899   -3.6747    1.6490 H   0  0  0  0  0  0  0  0  0  0  0  0
   -3.9109   -2.6717    1.2250 C   0  0  0  0  0  0  0  0  0  0  0  0
   -4.6009   -2.0517    1.7950 H   0  0  0  0  0  0  0  0  0  0  0  0
   -4.2309   -2.7237    0.1860 H   0  0  0  0  0  0  0  0  0  0  0  0
   -2.5229   -2.0787    1.2980 C   0  0  0  0  0  0  0  0  0  0  0  0
   -1.5999   -2.7227    1.7810 O   0  0  0  0  0  0  0  0  0  0  0  0
   -2.3659   -0.8447    0.8120 N   0  0  0  0  0  0  0  0  0  0  0  0
   -3.1749   -0.3807    0.4220 H   0  0  0  0  0  0  0  0  0  0  0  0
   -1.0919   -0.1077    0.8170 C   0  0  1  0  0  0  0  0  0  0  0  0
   -0.3571   -0.6901    0.2581 H   0  0  0  0  0  0  0  0  0  0  0  0
   -1.3037    1.2411    0.1040 C   0  0  0  0  0  0  0  0  0  0  0  0
   -1.3672    1.0602   -0.9702 H   0  0  0  0  0  0  0  0  0  0  0  0
   -2.2500    1.6757    0.4322 H   0  0  0  0  0  0  0  0  0  0  0  0
   -0.1700    2.2462    0.3583 C   0  0  0  0  0  0  0  0  0  0  0  0
    0.7942    1.7478    0.2495 H   0  0  0  0  0  0  0  0  0  0  0  0
   -0.2371    3.0558   -0.3711 H   0  0  0  0  0  0  0  0  0  0  0  0
   -0.2791    2.8280    1.7745 C   0  0  0  0  0  0  0  0  0  0  0  0
   -1.2517    3.3135    1.8851 H   0  0  0  0  0  0  0  0  0  0  0  0
   -0.2022    2.0158    2.5001 H   0  0  0  0  0  0  0  0  0  0  0  0
    0.8376    3.8502    2.0212 C   0  0  0  0  0  0  0  0  0  0  0  0
    1.8021    3.3469    1.8983 H   0  0  0  0  0  0  0  0  0  0  0  0
    0.7679    4.6319    1.2587 H   0  0  0  0  0  0  0  0  0  0  0  0
    0.7415    4.4471    3.3772 N   0  3  0  0  0  0  0  0  0  0  0  0
    0.8158    3.7296    4.0875 H   0  0  0  0  0  0  0  0  0  0  0  0
    1.4844    5.1190    3.5239 H   0  0  0  0  0  0  0  0  0  0  0  0
   -0.1462    4.9219    3.4930 H   0  0  0  0  0  0  0  0  0  0  0  0
   -0.5865    0.0771    2.2496 C   0  0  0  0  0  0  0  0  0  0  0  0
    0.5860   -0.1608    2.5143 O   0  0  0  0  0  0  0  0  0  0  0  0
   -1.4786    0.4656    3.1667 N   0  0  0  0  0  0  0  0  0  0  0  0
   -2.4139    0.6698    2.8558 H   0  0  0  0  0  0  0  0  0  0  0  0
   -1.1587    0.6908    4.5775 C   0  0  0  0  0  0  0  0  0  0  0  0
   -0.4270    1.4968    4.6656 H   0  0  0  0  0  0  0  0  0  0  0  0
   -2.0565    0.9649    5.1327 H   0  0  0  0  0  0  0  0  0  0  0  0
   -0.7281   -0.2137    5.0125 H   0  0  0  0  0  0  0  0  0  0  0  0
  5  6  2  0  0  0  0
  5  7  1  0  0  0  0
  2  3  1  0  0  0  0
  2  4  1  0  0  0  0
  2  5  1  0  0  0  0
  1  2  1  0  0  0  0
 27 28  2  0  0  0  0
 27 29  1  0  0  0  0
 23 24  1  0  0  0  0
 23 25  1  0  0  0  0
 23 26  1  0  0  0  0
 20 21  1  0  0  0  0
 20 22  1  0  0  0  0
 20 23  1  0  0  0  0
 17 18  1  0  0  0  0
 17 19  1  0  0  0  0
 17 20  1  0  0  0  0
 14 15  1  0  0  0  0
 14 16  1  0  0  0  0
 14 17  1  0  0  0  0
 11 12  1  0  0  0  0
 11 13  1  0  0  0  0
 11 14  1  0  0  0  0
  9 10  1  0  0  0  0
  9 11  1  0  0  0  0
  9 27  1  0  0  0  0
  7  8  1  0  0  0  0
  7  9  1  0  0  0  0
 31 32  1  0  0  0  0
 31 33  1  0  0  0  0
 31 34  1  0  0  0  0
 29 30  1  0  0  0  0
 29 31  1  0  0  0  0
M  CHG  1  23   1
M  END
$$$$
default_name
  -OEChem-02102213163D

 34 33  0     1  0  0  0  0  0999 V2000
   -3.8899   -3.6747    1.6490 H   0  0  0  0  0  0  0  0  0  0  0  0
   -3.9109   -2.6717    1.2250 C   0  0  0  0  0  0  0  0  0  0  0  0
   -4.6009   -2.0517    1.7950 H   0  0  0  0  0  0  0  0  0  0  0  0
   -4.2309   -2.7237    0.1860 H   0  0  0  0  0  0  0  0  0  0  0  0
   -2.5229   -2.0787    1.2980 C   0  0  0  0  0  0  0  0  0  0  0  0
   -1.5999   -2.7227    1.7810 O   0  0  0  0  0  0  0  0  0  0  0  0
   -2.3659   -0.8447    0.8120 N   0  0  0  0  0  0  0  0  0  0  0  0
   -3.1749   -0.3807    0.4220 H   0  0  0  0  0  0  0  0  0  0  0  0
   -1.0919   -0.1077    0.8170 C   0  0  1  0  0  0  0  0  0  0  0  0
   -0.3571   -0.6901    0.2581 H   0  0  0  0  0  0  0  0  0  0  0  0
   -1.3037    1.2411    0.1040 C   0  0  0  0  0  0  0  0  0  0  0  0
   -1.3672    1.0602   -0.9702 H   0  0  0  0  0  0  0  0  0  0  0  0
   -2.2500    1.6757    0.4322 H   0  0  0  0  0  0  0  0  0  0  0  0
   -0.1700    2.2462    0.3583 C   0  0  0  0  0  0  0  0  0  0  0  0
    0.7735    1.8350   -0.0031 H   0  0  0  0  0  0  0  0  0  0  0  0
   -0.3839    3.1727   -0.1782 H   0  0  0  0  0  0  0  0  0  0  0  0
   -0.0470    2.5450    1.8589 C   0  0  0  0  0  0  0  0  0  0  0  0
   -0.9982    2.9426    2.2209 H   0  0  0  0  0  0  0  0  0  0  0  0
    0.1760    1.6172    2.3895 H   0  0  0  0  0  0  0  0  0  0  0  0
    1.0681    3.5672    2.1119 C   0  0  0  0  0  0  0  0  0  0  0  0
    2.0096    3.1539    1.7358 H   0  0  0  0  0  0  0  0  0  0  0  0
    0.8466    4.4723    1.5384 H   0  0  0  0  0  0  0  0  0  0  0  0
    1.1930    3.8928    3.5551 N   0  3  0  0  0  0  0  0  0  0  0  0
    1.4084    3.0606    4.0899 H   0  0  0  0  0  0  0  0  0  0  0  0
    1.9322    4.5681    3.7050 H   0  0  0  0  0  0  0  0  0  0  0  0
    0.3266    4.2840    3.9061 H   0  0  0  0  0  0  0  0  0  0  0  0
   -0.5865    0.0771    2.2496 C   0  0  0  0  0  0  0  0  0  0  0  0
    0.5860   -0.1608    2.5143 O   0  0  0  0  0  0  0  0  0  0  0  0
   -1.4786    0.4656    3.1667 N   0  0  0  0  0  0  0  0  0  0  0  0
   -2.4139    0.6698    2.8558 H   0  0  0  0  0  0  0  0  0  0  0  0
   -1.1587    0.6908    4.5775 C   0  0  0  0  0  0  0  0  0  0  0  0
   -0.4270    1.4968    4.6656 H   0  0  0  0  0  0  0  0  0  0  0  0
   -2.0565    0.9649    5.1327 H   0  0  0  0  0  0  0  0  0  0  0  0
   -0.7281   -0.2137    5.0125 H   0  0  0  0  0  0  0  0  0  0  0  0
  5  6  2  0  0  0  0
  5  7  1  0  0  0  0
  2  3  1  0  0  0  0
  2  4  1  0  0  0  0
  2  5  1  0  0  0  0
  1  2  1  0  0  0  0
 27 28  2  0  0  0  0
 27 29  1  0  0  0  0
 23 24  1  0  0  0  0
 23 25  1  0  0  0  0
 23 26  1  0  0  0  0
 20 21  1  0  0  0  0
 20 22  1  0  0  0  0
 20 23  1  0  0  0  0
 17 18  1  0  0  0  0
 17 19  1  0  0  0  0
 17 20  1  0  0  0  0
 14 15  1  0  0  0  0
 14 16  1  0  0  0  0
 14 17  1  0  0  0  0
 11 12  1  0  0  0  0
 11 13  1  0  0  0  0
 11 14  1  0  0  0  0
  9 10  1  0  0  0  0
  9 11  1  0  0  0  0
  9 27  1  0  0  0  0
  7  8  1  0  0  0  0
  7  9  1  0  0  0  0
 31 32  1  0  0  0  0
 31 33  1  0  0  0  0
 31 34  1  0  0  0  0
 29 30  1  0  0  0  0
 29 31  1  0  0  0  0
M  CHG  1  23   1
M  END
$$$$
default_name
  -OEChem-02102213163D

 34 33  0     1  0  0  0  0  0999 V2000
   -3.8899   -3.6747    1.6490 H   0  0  0  0  0  0  0  0  0  0  0  0
   -3.9109   -2.6717    1.2250 C   0  0  0  0  0  0  0  0  0  0  0  0
   -4.6009   -2.0517    1.7950 H   0  0  0  0  0  0  0  0  0  0  0  0
   -4.2309   -2.7237    0.1860 H   0  0  0  0  0  0  0  0  0  0  0  0
   -2.5229   -2.0787    1.2980 C   0  0  0  0  0  0  0  0  0  0  0  0
   -1.5999   -2.7227    1.7810 O   0  0  0  0  0  0  0  0  0  0  0  0
   -2.3659   -0.8447    0.8120 N   0  0  0  0  0  0  0  0  0  0  0  0
   -3.1749   -0.3807    0.4220 H   0  0  0  0  0  0  0  0  0  0  0  0
   -1.0919   -0.1077    0.8170 C   0  0  1  0  0  0  0  0  0  0  0  0
   -0.3571   -0.6901    0.2581 H   0  0  0  0  0  0  0  0  0  0  0  0
   -1.3037    1.2411    0.1040 C   0  0  0  0  0  0  0  0  0  0  0  0
   -1.3672    1.0602   -0.9702 H   0  0  0  0  0  0  0  0  0  0  0  0
   -2.2500    1.6757    0.4322 H   0  0  0  0  0  0  0  0  0  0  0  0
   -0.1700    2.2462    0.3583 C   0  0  0  0  0  0  0  0  0  0  0  0
    0.7070    1.9667   -0.2271 H   0  0  0  0  0  0  0  0  0  0  0  0
   -0.4981    3.2424    0.0552 H   0  0  0  0  0  0  0  0  0  0  0  0
    0.2035    2.2654    1.8470 C   0  0  0  0  0  0  0  0  0  0  0  0
   -0.6805    2.5310    2.4316 H   0  0  0  0  0  0  0  0  0  0  0  0
    0.5396    1.2695    2.1426 H   0  0  0  0  0  0  0  0  0  0  0  0
    1.3183    3.2864    2.1065 C   0  0  0  0  0  0  0  0  0  0  0  0
    2.1908    3.0074    1.5068 H   0  0  0  0  0  0  0  0  0  0  0  0
    0.9769    4.2682    1.7648 H   0  0  0  0  0  0  0  0  0  0  0  0
    1.6830    3.3427    3.5446 N   0  3  0  0  0  0  0  0  0  0  0  0
    2.0098    2.4394    3.8641 H   0  0  0  0  0  0  0  0  0  0  0  0
    2.4189    4.0207    3.6989 H   0  0  0  0  0  0  0  0  0  0  0  0
    0.8807    3.6092    4.1032 H   0  0  0  0  0  0  0  0  0  0  0  0
   -0.5865    0.0771    2.2496 C   0  0  0  0  0  0  0  0  0  0  0  0
    0.5860   -0.1608    2.5143 O   0  0  0  0  0  0  0  0  0  0  0  0
   -1.4786    0.4656    3.1667 N   0  0  0  0  0  0  0  0  0  0  0  0
   -2.4139    0.6698    2.8558 H   0  0  0  0  0  0  0  0  0  0  0  0
   -1.1587    0.6908    4.5775 C   0  0  0  0  0  0  0  0  0  0  0  0
   -0.4270    1.4968    4.6656 H   0  0  0  0  0  0  0  0  0  0  0  0
   -2.0565    0.9649    5.1327 H   0  0  0  0  0  0  0  0  0  0  0  0
   -0.7281   -0.2137    5.0125 H   0  0  0  0  0  0  0  0  0  0  0  0
  5  6  2  0  0  0  0
  5  7  1  0  0  0  0
  2  3  1  0  0  0  0
  2  4  1  0  0  0  0
  2  5  1  0  0  0  0
  1  2  1  0  0  0  0
 27 28  2  0  0  0  0
 27 29  1  0  0  0  0
 23 24  1  0  0  0  0
 23 25  1  0  0  0  0
 23 26  1  0  0  0  0
 20 21  1  0  0  0  0
 20 22  1  0  0  0  0
 20 23  1  0  0  0  0
 17 18  1  0  0  0  0
 17 19  1  0  0  0  0
 17 20  1  0  0  0  0
 14 15  1  0  0  0  0
 14 16  1  0  0  0  0
 14 17  1  0  0  0  0
 11 12  1  0  0  0  0
 11 13  1  0  0  0  0
 11 14  1  0  0  0  0
  9 10  1  0  0  0  0
  9 11  1  0  0  0  0
  9 27  1  0  0  0  0
  7  8  1  0  0  0  0
  7  9  1  0  0  0  0
 31 32  1  0  0  0  0
 31 33  1  0  0  0  0
 31 34  1  0  0  0  0
 29 30  1  0  0  0  0
 29 31  1  0  0  0  0
M  CHG  1  23   1
M  END
$$$$
default_name
  -OEChem-02102213163D

 34 33  0     1  0  0  0  0  0999 V2000
   -3.8899   -3.6747    1.6490 H   0  0  0  0  0  0  0  0  0  0  0  0
   -3.9109   -2.6717    1.2250 C   0  0  0  0  0  0  0  0  0  0  0  0
   -4.6009   -2.0517    1.7950 H   0  0  0  0  0  0  0  0  0  0  0  0
   -4.2309   -2.7237    0.1860 H   0  0  0  0  0  0  0  0  0  0  0  0
   -2.5229   -2.0787    1.2980 C   0  0  0  0  0  0  0  0  0  0  0  0
   -1.5999   -2.7227    1.7810 O   0  0  0  0  0  0  0  0  0  0  0  0
   -2.3659   -0.8447    0.8120 N   0  0  0  0  0  0  0  0  0  0  0  0
   -3.1749   -0.3807    0.4220 H   0  0  0  0  0  0  0  0  0  0  0  0
   -1.0919   -0.1077    0.8170 C   0  0  1  0  0  0  0  0  0  0  0  0
   -0.3571   -0.6901    0.2581 H   0  0  0  0  0  0  0  0  0  0  0  0
   -1.3037    1.2411    0.1040 C   0  0  0  0  0  0  0  0  0  0  0  0
   -1.3672    1.0602   -0.9702 H   0  0  0  0  0  0  0  0  0  0  0  0
   -2.2500    1.6757    0.4322 H   0  0  0  0  0  0  0  0  0  0  0  0
   -0.1700    2.2462    0.3583 C   0  0  0  0  0  0  0  0  0  0  0  0
    0.5992    2.1338   -0.4069 H   0  0  0  0  0  0  0  0  0  0  0  0
   -0.5719    3.2603    0.3134 H   0  0  0  0  0  0  0  0  0  0  0  0
    0.4555    2.0083    1.7397 C   0  0  0  0  0  0  0  0  0  0  0  0
   -0.3204    2.1069    2.5026 H   0  0  0  0  0  0  0  0  0  0  0  0
    0.8640    0.9964    1.7761 H   0  0  0  0  0  0  0  0  0  0  0  0
    1.5710    3.0269    2.0052 C   0  0  0  0  0  0  0  0  0  0  0  0
    2.3334    2.9175    1.2270 H   0  0  0  0  0  0  0  0  0  0  0  0
    1.1497    4.0334    1.9224 H   0  0  0  0  0  0  0  0  0  0  0  0
    2.1781    2.8344    3.3464 N   0  3  0  0  0  0  0  0  0  0  0  0
    2.5791    1.9082    3.4255 H   0  0  0  0  0  0  0  0  0  0  0  0
    2.9115    3.5139    3.5061 H   0  0  0  0  0  0  0  0  0  0  0  0
    1.4781    2.9435    4.0709 H   0  0  0  0  0  0  0  0  0  0  0  0
   -0.5865    0.0771    2.2496 C   0  0  0  0  0  0  0  0  0  0  0  0
    0.5860   -0.1608    2.5143 O   0  0  0  0  0  0  0  0  0  0  0  0
   -1.4786    0.4656    3.1667 N   0  0  0  0  0  0  0  0  0  0  0  0
   -2.4139    0.6698    2.8558 H   0  0  0  0  0  0  0  0  0  0  0  0
   -1.1587    0.6908    4.5775 C   0  0  0  0  0  0  0  0  0  0  0  0
   -0.4270    1.4968    4.6656 H   0  0  0  0  0  0  0  0  0  0  0  0
   -2.0565    0.9649    5.1327 H   0  0  0  0  0  0  0  0  0  0  0  0
   -0.7281   -0.2137    5.0125 H   0  0  0  0  0  0  0  0  0  0  0  0
  5  6  2  0  0  0  0
  5  7  1  0  0  0  0
  2  3  1  0  0  0  0
  2  4  1  0  0  0  0
  2  5  1  0  0  0  0
  1  2  1  0  0  0  0
 27 28  2  0  0  0  0
 27 29  1  0  0  0  0
 23 24  1  0  0  0  0
 23 25  1  0  0  0  0
 23 26  1  0  0  0  0
 20 21  1  0  0  0  0
 20 22  1  0  0  0  0
 20 23  1  0  0  0  0
 17 18  1  0  0  0  0
 17 19  1  0  0  0  0
 17 20  1  0  0  0  0
 14 15  1  0  0  0  0
 14 16  1  0  0  0  0
 14 17  1  0  0  0  0
 11 12  1  0  0  0  0
 11 13  1  0  0  0  0
 11 14  1  0  0  0  0
  9 10  1  0  0  0  0
  9 11  1  0  0  0  0
  9 27  1  0  0  0  0
  7  8  1  0  0  0  0
  7  9  1  0  0  0  0
 31 32  1  0  0  0  0
 31 33  1  0  0  0  0
 31 34  1  0  0  0  0
 29 30  1  0  0  0  0
 29 31  1  0  0  0  0
M  CHG  1  23   1
M  END
$$$$
default_name
  -OEChem-02102213163D

 34 33  0     1  0  0  0  0  0999 V2000
   -3.8899   -3.6747    1.6490 H   0  0  0  0  0  0  0  0  0  0  0  0
   -3.9109   -2.6717    1.2250 C   0  0  0  0  0  0  0  0  0  0  0  0
   -4.6009   -2.0517    1.7950 H   0  0  0  0  0  0  0  0  0  0  0  0
   -4.2309   -2.7237    0.1860 H   0  0  0  0  0  0  0  0  0  0  0  0
   -2.5229   -2.0787    1.2980 C   0  0  0  0  0  0  0  0  0  0  0  0
   -1.5999   -2.7227    1.7810 O   0  0  0  0  0  0  0  0  0  0  0  0
   -2.3659   -0.8447    0.8120 N   0  0  0  0  0  0  0  0  0  0  0  0
   -3.1749   -0.3807    0.4220 H   0  0  0  0  0  0  0  0  0  0  0  0
   -1.0919   -0.1077    0.8170 C   0  0  1  0  0  0  0  0  0  0  0  0
   -0.3571   -0.6901    0.2581 H   0  0  0  0  0  0  0  0  0  0  0  0
   -1.3037    1.2411    0.1040 C   0  0  0  0  0  0  0  0  0  0  0  0
   -1.3672    1.0602   -0.9702 H   0  0  0  0  0  0  0  0  0  0  0  0
   -2.2500    1.6757    0.4322 H   0  0  0  0  0  0  0  0  0  0  0  0
   -0.1700    2.2462    0.3583 C   0  0  0  0  0  0  0  0  0  0  0  0
    0.4575    2.3249   -0.5305 H   0  0  0  0  0  0  0  0  0  0  0  0
   -0.6002    3.2251    0.5787 H   0  0  0  0  0  0  0  0  0  0  0  0
    0.6917    1.7913    1.5443 C   0  0  0  0  0  0  0  0  0  0  0  0
    0.0576    1.6990    2.4293 H   0  0  0  0  0  0  0  0  0  0  0  0
    1.1269    0.8165    1.3150 H   0  0  0  0  0  0  0  0  0  0  0  0
    1.8091    2.8065    1.8151 C   0  0  0  0  0  0  0  0  0  0  0  0
    2.4275    2.8901    0.9154 H   0  0  0  0  0  0  0  0  0  0  0  0
    1.3534    3.7838    2.0005 H   0  0  0  0  0  0  0  0  0  0  0  0
    2.6446    2.4025    2.9741 N   0  3  0  0  0  0  0  0  0  0  0  0
    3.0775    1.5033    2.8040 H   0  0  0  0  0  0  0  0  0  0  0  0
    3.3763    3.0823    3.1396 H   0  0  0  0  0  0  0  0  0  0  0  0
    2.0783    2.3322    3.8114 H   0  0  0  0  0  0  0  0  0  0  0  0
   -0.5865    0.0771    2.2496 C   0  0  0  0  0  0  0  0  0  0  0  0
    0.5860   -0.1608    2.5143 O   0  0  0  0  0  0  0  0  0  0  0  0
   -1.4786    0.4656    3.1667 N   0  0  0  0  0  0  0  0  0  0  0  0
   -2.4139    0.6698    2.8558 H   0  0  0  0  0  0  0  0  0  0  0  0
   -1.1587    0.6908    4.5775 C   0  0  0  0  0  0  0  0  0  0  0  0
   -0.4270    1.4968    4.6656 H   0  0  0  0  0  0  0  0  0  0  0  0
   -2.0565    0.9649    5.1327 H   0  0  0  0  0  0  0  0  0  0  0  0
   -0.7281   -0.2137    5.0125 H   0  0  0  0  0  0  0  0  0  0  0  0
  5  6  2  0  0  0  0
  5  7  1  0  0  0  0
  2  3  1  0  0  0  0
  2  4  1  0  0  0  0
  2  5  1  0  0  0  0
  1  2  1  0  0  0  0
 27 28  2  0  0  0  0
 27 29  1  0  0  0  0
 23 24  1  0  0  0  0
 23 25  1  0  0  0  0
 23 26  1  0  0  0  0
 20 21  1  0  0  0  0
 20 22  1  0  0  0  0
 20 23  1  0  0  0  0
 17 18  1  0  0  0  0
 17 19  1  0  0  0  0
 17 20  1  0  0  0  0
 14 15  1  0  0  0  0
 14 16  1  0  0  0  0
 14 17  1  0  0  0  0
 11 12  1  0  0  0  0
 11 13  1  0  0  0  0
 11 14  1  0  0  0  0
  9 10  1  0  0  0  0
  9 11  1  0  0  0  0
  9 27  1  0  0  0  0
  7  8  1  0  0  0  0
  7  9  1  0  0  0  0
 31 32  1  0  0  0  0
 31 33  1  0  0  0  0
 31 34  1  0  0  0  0
 29 30  1  0  0  0  0
 29 31  1  0  0  0  0
M  CHG  1  23   1
M  END
$$$$
default_name
  -OEChem-02102213163D

 34 33  0     1  0  0  0  0  0999 V2000
   -3.8899   -3.6747    1.6490 H   0  0  0  0  0  0  0  0  0  0  0  0
   -3.9109   -2.6717    1.2250 C   0  0  0  0  0  0  0  0  0  0  0  0
   -4.6009   -2.0517    1.7950 H   0  0  0  0  0  0  0  0  0  0  0  0
   -4.2309   -2.7237    0.1860 H   0  0  0  0  0  0  0  0  0  0  0  0
   -2.5229   -2.0787    1.2980 C   0  0  0  0  0  0  0  0  0  0  0  0
   -1.5999   -2.7227    1.7810 O   0  0  0  0  0  0  0  0  0  0  0  0
   -2.3659   -0.8447    0.8120 N   0  0  0  0  0  0  0  0  0  0  0  0
   -3.1749   -0.3807    0.4220 H   0  0  0  0  0  0  0  0  0  0  0  0
   -1.0919   -0.1077    0.8170 C   0  0  1  0  0  0  0  0  0  0  0  0
   -0.3571   -0.6901    0.2581 H   0  0  0  0  0  0  0  0  0  0  0  0
   -1.3037    1.2411    0.1040 C   0  0  0  0  0  0  0  0  0  0  0  0
   -1.3672    1.0602   -0.9702 H   0  0  0  0  0  0  0  0  0  0  0  0
   -2.2500    1.6757    0.4322 H   0  0  0  0  0  0  0  0  0  0  0  0
   -0.1700    2.2462    0.3583 C   0  0  0  0  0  0  0  0  0  0  0  0
    0.2915    2.5271   -0.5894 H   0  0  0  0  0  0  0  0  0  0  0  0
   -0.5811    3.1392    0.8331 H   0  0  0  0  0  0  0  0  0  0  0  0
    0.8961    1.6291    1.2741 C   0  0  0  0  0  0  0  0  0  0  0  0
    0.4278    1.3353    2.2165 H   0  0  0  0  0  0  0  0  0  0  0  0
    1.3105    0.7421    0.7908 H   0  0  0  0  0  0  0  0  0  0  0  0
    2.0164    2.6401    1.5490 C   0  0  0  0  0  0  0  0  0  0  0  0
    2.4669    2.9272    0.5933 H   0  0  0  0  0  0  0  0  0  0  0  0
    1.5741    3.5366    1.9938 H   0  0  0  0  0  0  0  0  0  0  0  0
    3.0506    2.0764    2.4529 N   0  3  0  0  0  0  0  0  0  0  0  0
    3.4710    1.2523    2.0419 H   0  0  0  0  0  0  0  0  0  0  0  0
    3.7817    2.7553    2.6244 H   0  0  0  0  0  0  0  0  0  0  0  0
    2.6402    1.8171    3.3424 H   0  0  0  0  0  0  0  0  0  0  0  0
   -0.5865    0.0771    2.2496 C   0  0  0  0  0  0  0  0  0  0  0  0
    0.5860   -0.1608    2.5143 O   0  0  0  0  0  0  0  0  0  0  0  0
   -1.4786    0.4656    3.1667 N   0  0  0  0  0  0  0  0  0  0  0  0
   -2.4139    0.6698    2.8558 H   0  0  0  0  0  0  0  0  0  0  0  0
   -1.1587    0.6908    4.5775 C   0  0  0  0  0  0  0  0  0  0  0  0
   -0.4270    1.4968    4.6656 H   0  0  0  0  0  0  0  0  0  0  0  0
   -2.0565    0.9649    5.1327 H   0  0  0  0  0  0  0  0  0  0  0  0
   -0.7281   -0.2137    5.0125 H   0  0  0  0  0  0  0  0  0  0  0  0
  5  6  2  0  0  0  0
  5  7  1  0  0  0  0
  2  3  1  0  0  0  0
  2  4  1  0  0  0  0
  2  5  1  0  0  0  0
  1  2  1  0  0  0  0
 27 28  2  0  0  0  0
 27 29  1  0  0  0  0
 23 24  1  0  0  0  0
 23 25  1  0  0  0  0
 23 26  1  0  0  0  0
 20 21  1  0  0  0  0
 20 22  1  0  0  0  0
 20 23  1  0  0  0  0
 17 18  1  0  0  0  0
 17 19  1  0  0  0  0
 17 20  1  0  0  0  0
 14 15  1  0  0  0  0
 14 16  1  0  0  0  0
 14 17  1  0  0  0  0
 11 12  1  0  0  0  0
 11 13  1  0  0  0  0
 11 14  1  0  0  0  0
  9 10  1  0  0  0  0
  9 11  1  0  0  0  0
  9 27  1  0  0  0  0
  7  8  1  0  0  0  0
  7  9  1  0  0  0  0
 31 32  1  0  0  0  0
 31 33  1  0  0  0  0
 31 34  1  0  0  0  0
 29 30  1  0  0  0  0
 29 31  1  0  0  0  0
M  CHG  1  23   1
M  END
$$$$
default_name
  -OEChem-02102213163D

 34 33  0     1  0  0  0  0  0999 V2000
   -3.8899   -3.6747    1.6490 H   0  0  0  0  0  0  0  0  0  0  0  0
   -3.9109   -2.6717    1.2250 C   0  0  0  0  0  0  0  0  0  0  0  0
   -4.6009   -2.0517    1.7950 H   0  0  0  0  0  0  0  0  0  0  0  0
   -4.2309   -2.7237    0.1860 H   0  0  0  0  0  0  0  0  0  0  0  0
   -2.5229   -2.0787    1.2980 C   0  0  0  0  0  0  0  0  0  0  0  0
   -1.5999   -2.7227    1.7810 O   0  0  0  0  0  0  0  0  0  0  0  0
   -2.3659   -0.8447    0.8120 N   0  0  0  0  0  0  0  0  0  0  0  0
   -3.1749   -0.3807    0.4220 H   0  0  0  0  0  0  0  0  0  0  0  0
   -1.0919   -0.1077    0.8170 C   0  0  1  0  0  0  0  0  0  0  0  0
   -0.3571   -0.6901    0.2581 H   0  0  0  0  0  0  0  0  0  0  0  0
   -1.3037    1.2411    0.1040 C   0  0  0  0  0  0  0  0  0  0  0  0
   -1.3672    1.0602   -0.9702 H   0  0  0  0  0  0  0  0  0  0  0  0
   -2.2500    1.6757    0.4322 H   0  0  0  0  0  0  0  0  0  0  0  0
   -0.1700    2.2462    0.3583 C   0  0  0  0  0  0  0  0  0  0  0  0
    0.1125    2.7264   -0.5795 H   0  0  0  0  0  0  0  0  0  0  0  0
   -0.5160    3.0085    1.0591 H   0  0  0  0  0  0  0  0  0  0  0  0
    1.0547    1.5328    0.9475 C   0  0  0  0  0  0  0  0  0  0  0  0
    0.7650    1.0404    1.8788 H   0  0  0  0  0  0  0  0  0  0  0  0
    1.4022    0.7782    0.2391 H   0  0  0  0  0  0  0  0  0  0  0  0
    2.1786    2.5390    1.2251 C   0  0  0  0  0  0  0  0  0  0  0  0
    2.4488    3.0263    0.2825 H   0  0  0  0  0  0  0  0  0  0  0  0
    1.7967    3.3085    1.9027 H   0  0  0  0  0  0  0  0  0  0  0  0
    3.3685    1.8783    1.8185 N   0  3  0  0  0  0  0  0  0  0  0  0
    3.7328    1.1722    1.1912 H   0  0  0  0  0  0  0  0  0  0  0  0
    4.1001    2.5553    1.9957 H   0  0  0  0  0  0  0  0  0  0  0  0
    3.1256    1.4331    2.6958 H   0  0  0  0  0  0  0  0  0  0  0  0
   -0.5865    0.0771    2.2496 C   0  0  0  0  0  0  0  0  0  0  0  0
    0.5860   -0.1608    2.5143 O   0  0  0  0  0  0  0  0  0  0  0  0
   -1.4786    0.4656    3.1667 N   0  0  0  0  0  0  0  0  0  0  0  0
   -2.4139    0.6698    2.8558 H   0  0  0  0  0  0  0  0  0  0  0  0
   -1.1587    0.6908    4.5775 C   0  0  0  0  0  0  0  0  0  0  0  0
   -0.4270    1.4968    4.6656 H   0  0  0  0  0  0  0  0  0  0  0  0
   -2.0565    0.9649    5.1327 H   0  0  0  0  0  0  0  0  0  0  0  0
   -0.7281   -0.2137    5.0125 H   0  0  0  0  0  0  0  0  0  0  0  0
  5  6  2  0  0  0  0
  5  7  1  0  0  0  0
  2  3  1  0  0  0  0
  2  4  1  0  0  0  0
  2  5  1  0  0  0  0
  1  2  1  0  0  0  0
 27 28  2  0  0  0  0
 27 29  1  0  0  0  0
 23 24  1  0  0  0  0
 23 25  1  0  0  0  0
 23 26  1  0  0  0  0
 20 21  1  0  0  0  0
 20 22  1  0  0  0  0
 20 23  1  0  0  0  0
 17 18  1  0  0  0  0
 17 19  1  0  0  0  0
 17 20  1  0  0  0  0
 14 15  1  0  0  0  0
 14 16  1  0  0  0  0
 14 17  1  0  0  0  0
 11 12  1  0  0  0  0
 11 13  1  0  0  0  0
 11 14  1  0  0  0  0
  9 10  1  0  0  0  0
  9 11  1  0  0  0  0
  9 27  1  0  0  0  0
  7  8  1  0  0  0  0
  7  9  1  0  0  0  0
 31 32  1  0  0  0  0
 31 33  1  0  0  0  0
 31 34  1  0  0  0  0
 29 30  1  0  0  0  0
 29 31  1  0  0  0  0
M  CHG  1  23   1
M  END
$$$$
default_name
  -OEChem-02102213163D

 34 33  0     1  0  0  0  0  0999 V2000
   -3.8899   -3.6747    1.6490 H   0  0  0  0  0  0  0  0  0  0  0  0
   -3.9109   -2.6717    1.2250 C   0  0  0  0  0  0  0  0  0  0  0  0
   -4.6009   -2.0517    1.7950 H   0  0  0  0  0  0  0  0  0  0  0  0
   -4.2309   -2.7237    0.1860 H   0  0  0  0  0  0  0  0  0  0  0  0
   -2.5229   -2.0787    1.2980 C   0  0  0  0  0  0  0  0  0  0  0  0
   -1.5999   -2.7227    1.7810 O   0  0  0  0  0  0  0  0  0  0  0  0
   -2.3659   -0.8447    0.8120 N   0  0  0  0  0  0  0  0  0  0  0  0
   -3.1749   -0.3807    0.4220 H   0  0  0  0  0  0  0  0  0  0  0  0
   -1.0919   -0.1077    0.8170 C   0  0  1  0  0  0  0  0  0  0  0  0
   -0.3571   -0.6901    0.2581 H   0  0  0  0  0  0  0  0  0  0  0  0
   -1.3037    1.2411    0.1040 C   0  0  0  0  0  0  0  0  0  0  0  0
   -1.3672    1.0602   -0.9702 H   0  0  0  0  0  0  0  0  0  0  0  0
   -2.2500    1.6757    0.4322 H   0  0  0  0  0  0  0  0  0  0  0  0
   -0.1700    2.2462    0.3583 C   0  0  0  0  0  0  0  0  0  0  0  0
   -0.0673    2.9095   -0.5016 H   0  0  0  0  0  0  0  0  0  0  0  0
   -0.4091    2.8419    1.2414 H   0  0  0  0  0  0  0  0  0  0  0  0
    1.1568    1.5090    0.5868 C   0  0  0  0  0  0  0  0  0  0  0  0
    1.0461    0.8346    1.4393 H   0  0  0  0  0  0  0  0  0  0  0  0
    1.3959    0.9223   -0.3025 H   0  0  0  0  0  0  0  0  0  0  0  0
    2.2848    2.5102    0.8654 C   0  0  0  0  0  0  0  0  0  0  0  0
    2.3744    3.1805    0.0044 H   0  0  0  0  0  0  0  0  0  0  0  0
    2.0061    3.1152    1.7335 H   0  0  0  0  0  0  0  0  0  0  0  0
    3.5766    1.8218    1.1140 N   0  3  0  0  0  0  0  0  0  0  0  0
    3.8451    1.2685    0.3099 H   0  0  0  0  0  0  0  0  0  0  0  0
    4.3098    2.4957    1.2963 H   0  0  0  0  0  0  0  0  0  0  0  0
    3.5015    1.2066    1.9157 H   0  0  0  0  0  0  0  0  0  0  0  0
   -0.5865    0.0771    2.2496 C   0  0  0  0  0  0  0  0  0  0  0  0
    0.5860   -0.1608    2.5143 O   0  0  0  0  0  0  0  0  0  0  0  0
   -1.4786    0.4656    3.1667 N   0  0  0  0  0  0  0  0  0  0  0  0
   -2.4139    0.6698    2.8558 H   0  0  0  0  0  0  0  0  0  0  0  0
   -1.1587    0.6908    4.5775 C   0  0  0  0  0  0  0  0  0  0  0  0
   -0.4270    1.4968    4.6656 H   0  0  0  0  0  0  0  0  0  0  0  0
   -2.0565    0.9649    5.1327 H   0  0  0  0  0  0  0  0  0  0  0  0
   -0.7281   -0.2137    5.0125 H   0  0  0  0  0  0  0  0  0  0  0  0
  5  6  2  0  0  0  0
  5  7  1  0  0  0  0
  2  3  1  0  0  0  0
  2  4  1  0  0  0  0
  2  5  1  0  0  0  0
  1  2  1  0  0  0  0
 27 28  2  0  0  0  0
 27 29  1  0  0  0  0
 23 24  1  0  0  0  0
 23 25  1  0  0  0  0
 23 26  1  0  0  0  0
 20 21  1  0  0  0  0
 20 22  1  0  0  0  0
 20 23  1  0  0  0  0
 17 18  1  0  0  0  0
 17 19  1  0  0  0  0
 17 20  1  0  0  0  0
 14 15  1  0  0  0  0
 14 16  1  0  0  0  0
 14 17  1  0  0  0  0
 11 12  1  0  0  0  0
 11 13  1  0  0  0  0
 11 14  1  0  0  0  0
  9 10  1  0  0  0  0
  9 11  1  0  0  0  0
  9 27  1  0  0  0  0
  7  8  1  0  0  0  0
  7  9  1  0  0  0  0
 31 32  1  0  0  0  0
 31 33  1  0  0  0  0
 31 34  1  0  0  0  0
 29 30  1  0  0  0  0
 29 31  1  0  0  0  0
M  CHG  1  23   1
M  END
$$$$
default_name
  -OEChem-02102213163D

 34 33  0     1  0  0  0  0  0999 V2000
   -3.8899   -3.6747    1.6490 H   0  0  0  0  0  0  0  0  0  0  0  0
   -3.9109   -2.6717    1.2250 C   0  0  0  0  0  0  0  0  0  0  0  0
   -4.6009   -2.0517    1.7950 H   0  0  0  0  0  0  0  0  0  0  0  0
   -4.2309   -2.7237    0.1860 H   0  0  0  0  0  0  0  0  0  0  0  0
   -2.5229   -2.0787    1.2980 C   0  0  0  0  0  0  0  0  0  0  0  0
   -1.5999   -2.7227    1.7810 O   0  0  0  0  0  0  0  0  0  0  0  0
   -2.3659   -0.8447    0.8120 N   0  0  0  0  0  0  0  0  0  0  0  0
   -3.1749   -0.3807    0.4220 H   0  0  0  0  0  0  0  0  0  0  0  0
   -1.0919   -0.1077    0.8170 C   0  0  1  0  0  0  0  0  0  0  0  0
   -0.3571   -0.6901    0.2581 H   0  0  0  0  0  0  0  0  0  0  0  0
   -1.3037    1.2411    0.1040 C   0  0  0  0  0  0  0  0  0  0  0  0
   -1.3672    1.0602   -0.9702 H   0  0  0  0  0  0  0  0  0  0  0  0
   -2.2500    1.6757    0.4322 H   0  0  0  0  0  0  0  0  0  0  0  0
   -0.1700    2.2462    0.3583 C   0  0  0  0  0  0  0  0  0  0  0  0
   -0.2356    3.0637   -0.3609 H   0  0  0  0  0  0  0  0  0  0  0  0
   -0.2679    2.6507    1.3676 H   0  0  0  0  0  0  0  0  0  0  0  0
    1.1953    1.5592    0.2165 C   0  0  0  0  0  0  0  0  0  0  0  0
    1.2520    0.7317    0.9278 H   0  0  0  0  0  0  0  0  0  0  0  0
    1.2919    1.1647   -0.7969 H   0  0  0  0  0  0  0  0  0  0  0  0
    2.3277    2.5556    0.4945 C   0  0  0  0  0  0  0  0  0  0  0  0
    2.2488    3.3795   -0.2223 H   0  0  0  0  0  0  0  0  0  0  0  0
    2.1880    2.9697    1.4977 H   0  0  0  0  0  0  0  0  0  0  0  0
    3.6608    1.9107    0.3875 N   0  3  0  0  0  0  0  0  0  0  0  0
    3.8002    1.5347   -0.5420 H   0  0  0  0  0  0  0  0  0  0  0  0
    4.3964    2.5808    0.5739 H   0  0  0  0  0  0  0  0  0  0  0  0
    3.7422    1.1528    1.0553 H   0  0  0  0  0  0  0  0  0  0  0  0
   -0.5865    0.0771    2.2496 C   0  0  0  0  0  0  0  0  0  0  0  0
    0.5860   -0.1608    2.5143 O   0  0  0  0  0  0  0  0  0  0  0  0
   -1.4786    0.4656    3.1667 N   0  0  0  0  0  0  0  0  0  0  0  0
   -2.4139    0.6698    2.8558 H   0  0  0  0  0  0  0  0  0  0  0  0
   -1.1587    0.6908    4.5775 C   0  0  0  0  0  0  0  0  0  0  0  0
   -0.4270    1.4968    4.6656 H   0  0  0  0  0  0  0  0  0  0  0  0
   -2.0565    0.9649    5.1327 H   0  0  0  0  0  0  0  0  0  0  0  0
   -0.7281   -0.2137    5.0125 H   0  0  0  0  0  0  0  0  0  0  0  0
  5  6  2  0  0  0  0
  5  7  1  0  0  0  0
  2  3  1  0  0  0  0
  2  4  1  0  0  0  0
  2  5  1  0  0  0  0
  1  2  1  0  0  0  0
 27 28  2  0  0  0  0
 27 29  1  0  0  0  0
 23 24  1  0  0  0  0
 23 25  1  0  0  0  0
 23 26  1  0  0  0  0
 20 21  1  0  0  0  0
 20 22  1  0  0  0  0
 20 23  1  0  0  0  0
 17 18  1  0  0  0  0
 17 19  1  0  0  0  0
 17 20  1  0  0  0  0
 14 15  1  0  0  0  0
 14 16  1  0  0  0  0
 14 17  1  0  0  0  0
 11 12  1  0  0  0  0
 11 13  1  0  0  0  0
 11 14  1  0  0  0  0
  9 10  1  0  0  0  0
  9 11  1  0  0  0  0
  9 27  1  0  0  0  0
  7  8  1  0  0  0  0
  7  9  1  0  0  0  0
 31 32  1  0  0  0  0
 31 33  1  0  0  0  0
 31 34  1  0  0  0  0
 29 30  1  0  0  0  0
 29 31  1  0  0  0  0
M  CHG  1  23   1
M  END
$$$$
default_name
  -OEChem-02102213163D

 34 33  0     1  0  0  0  0  0999 V2000
   -3.8899   -3.6747    1.6490 H   0  0  0  0  0  0  0  0  0  0  0  0
   -3.9109   -2.6717    1.2250 C   0  0  0  0  0  0  0  0  0  0  0  0
   -4.6009   -2.0517    1.7950 H   0  0  0  0  0  0  0  0  0  0  0  0
   -4.2309   -2.7237    0.1860 H   0  0  0  0  0  0  0  0  0  0  0  0
   -2.5229   -2.0787    1.2980 C   0  0  0  0  0  0  0  0  0  0  0  0
   -1.5999   -2.7227    1.7810 O   0  0  0  0  0  0  0  0  0  0  0  0
   -2.3659   -0.8447    0.8120 N   0  0  0  0  0  0  0  0  0  0  0  0
   -3.1749   -0.3807    0.4220 H   0  0  0  0  0  0  0  0  0  0  0  0
   -1.0919   -0.1077    0.8170 C   0  0  1  0  0  0  0  0  0  0  0  0
   -0.3571   -0.6901    0.2581 H   0  0  0  0  0  0  0  0  0  0  0  0
   -1.3037    1.2411    0.1040 C   0  0  0  0  0  0  0  0  0  0  0  0
   -1.3672    1.0602   -0.9702 H   0  0  0  0  0  0  0  0  0  0  0  0
   -2.2500    1.6757    0.4322 H   0  0  0  0  0  0  0  0  0  0  0  0
   -0.1700    2.2462    0.3583 C   0  0  0  0  0  0  0  0  0  0  0  0
   -0.3809    3.1786   -0.1671 H   0  0  0  0  0  0  0  0  0  0  0  0
   -0.1020    2.4480    1.4291 H   0  0  0  0  0  0  0  0  0  0  0  0
    1.1676    1.6801   -0.1380 C   0  0  0  0  0  0  0  0  0  0  0  0
    1.3687    0.7389    0.3792 H   0  0  0  0  0  0  0  0  0  0  0  0
    1.0973    1.4889   -1.2107 H   0  0  0  0  0  0  0  0  0  0  0  0
    2.3044    2.6722    0.1377 C   0  0  0  0  0  0  0  0  0  0  0  0
    2.0807    3.6096   -0.3819 H   0  0  0  0  0  0  0  0  0  0  0  0
    2.3300    2.8820    1.2113 H   0  0  0  0  0  0  0  0  0  0  0  0
    3.6153    2.1389   -0.3115 N   0  3  0  0  0  0  0  0  0  0  0  0
    3.6012    1.9526   -1.3065 H   0  0  0  0  0  0  0  0  0  0  0  0
    4.3541    2.8047   -0.1223 H   0  0  0  0  0  0  0  0  0  0  0  0
    3.8312    1.2755    0.1731 H   0  0  0  0  0  0  0  0  0  0  0  0
   -0.5865    0.0771    2.2496 C   0  0  0  0  0  0  0  0  0  0  0  0
    0.5860   -0.1608    2.5143 O   0  0  0  0  0  0  0  0  0  0  0  0
   -1.4786    0.4656    3.1667 N   0  0  0  0  0  0  0  0  0  0  0  0
   -2.4139    0.6698    2.8558 H   0  0  0  0  0  0  0  0  0  0  0  0
   -1.1587    0.6908    4.5775 C   0  0  0  0  0  0  0  0  0  0  0  0
   -0.4270    1.4968    4.6656 H   0  0  0  0  0  0  0  0  0  0  0  0
   -2.0565    0.9649    5.1327 H   0  0  0  0  0  0  0  0  0  0  0  0
   -0.7281   -0.2137    5.0125 H   0  0  0  0  0  0  0  0  0  0  0  0
  5  6  2  0  0  0  0
  5  7  1  0  0  0  0
  2  3  1  0  0  0  0
  2  4  1  0  0  0  0
  2  5  1  0  0  0  0
  1  2  1  0  0  0  0
 27 28  2  0  0  0  0
 27 29  1  0  0  0  0
 23 24  1  0  0  0  0
 23 25  1  0  0  0  0
 23 26  1  0  0  0  0
 20 21  1  0  0  0  0
 20 22  1  0  0  0  0
 20 23  1  0  0  0  0
 17 18  1  0  0  0  0
 17 19  1  0  0  0  0
 17 20  1  0  0  0  0
 14 15  1  0  0  0  0
 14 16  1  0  0  0  0
 14 17  1  0  0  0  0
 11 12  1  0  0  0  0
 11 13  1  0  0  0  0
 11 14  1  0  0  0  0
  9 10  1  0  0  0  0
  9 11  1  0  0  0  0
  9 27  1  0  0  0  0
  7  8  1  0  0  0  0
  7  9  1  0  0  0  0
 31 32  1  0  0  0  0
 31 33  1  0  0  0  0
 31 34  1  0  0  0  0
 29 30  1  0  0  0  0
 29 31  1  0  0  0  0
M  CHG  1  23   1
M  END
$$$$
default_name
  -OEChem-02102213163D

 34 33  0     1  0  0  0  0  0999 V2000
   -3.8899   -3.6747    1.6490 H   0  0  0  0  0  0  0  0  0  0  0  0
   -3.9109   -2.6717    1.2250 C   0  0  0  0  0  0  0  0  0  0  0  0
   -4.6009   -2.0517    1.7950 H   0  0  0  0  0  0  0  0  0  0  0  0
   -4.2309   -2.7237    0.1860 H   0  0  0  0  0  0  0  0  0  0  0  0
   -2.5229   -2.0787    1.2980 C   0  0  0  0  0  0  0  0  0  0  0  0
   -1.5999   -2.7227    1.7810 O   0  0  0  0  0  0  0  0  0  0  0  0
   -2.3659   -0.8447    0.8120 N   0  0  0  0  0  0  0  0  0  0  0  0
   -3.1749   -0.3807    0.4220 H   0  0  0  0  0  0  0  0  0  0  0  0
   -1.0919   -0.1077    0.8170 C   0  0  1  0  0  0  0  0  0  0  0  0
   -0.3571   -0.6901    0.2581 H   0  0  0  0  0  0  0  0  0  0  0  0
   -1.3037    1.2411    0.1040 C   0  0  0  0  0  0  0  0  0  0  0  0
   -1.3672    1.0602   -0.9702 H   0  0  0  0  0  0  0  0  0  0  0  0
   -2.2500    1.6757    0.4322 H   0  0  0  0  0  0  0  0  0  0  0  0
   -0.1700    2.2462    0.3583 C   0  0  0  0  0  0  0  0  0  0  0  0
   -0.4934    3.2464    0.0666 H   0  0  0  0  0  0  0  0  0  0  0  0
    0.0774    2.2475    1.4216 H   0  0  0  0  0  0  0  0  0  0  0  0
    1.0757    1.8634   -0.4527 C   0  0  0  0  0  0  0  0  0  0  0  0
    1.3882    0.8556   -0.1691 H   0  0  0  0  0  0  0  0  0  0  0  0
    0.8254    1.8726   -1.5154 H   0  0  0  0  0  0  0  0  0  0  0  0
    2.2165    2.8519   -0.1808 C   0  0  0  0  0  0  0  0  0  0  0  0
    1.8813    3.8551   -0.4637 H   0  0  0  0  0  0  0  0  0  0  0  0
    2.4224    2.8581    0.8939 H   0  0  0  0  0  0  0  0  0  0  0  0
    3.4432    2.4909   -0.9354 N   0  3  0  0  0  0  0  0  0  0  0  0
    3.2616    2.4938   -1.9313 H   0  0  0  0  0  0  0  0  0  0  0  0
    4.1858    3.1520   -0.7450 H   0  0  0  0  0  0  0  0  0  0  0  0
    3.7626    1.5664   -0.6706 H   0  0  0  0  0  0  0  0  0  0  0  0
   -0.5865    0.0771    2.2496 C   0  0  0  0  0  0  0  0  0  0  0  0
    0.5860   -0.1608    2.5143 O   0  0  0  0  0  0  0  0  0  0  0  0
   -1.4786    0.4656    3.1667 N   0  0  0  0  0  0  0  0  0  0  0  0
   -2.4139    0.6698    2.8558 H   0  0  0  0  0  0  0  0  0  0  0  0
   -1.1587    0.6908    4.5775 C   0  0  0  0  0  0  0  0  0  0  0  0
   -0.4270    1.4968    4.6656 H   0  0  0  0  0  0  0  0  0  0  0  0
   -2.0565    0.9649    5.1327 H   0  0  0  0  0  0  0  0  0  0  0  0
   -0.7281   -0.2137    5.0125 H   0  0  0  0  0  0  0  0  0  0  0  0
  5  6  2  0  0  0  0
  5  7  1  0  0  0  0
  2  3  1  0  0  0  0
  2  4  1  0  0  0  0
  2  5  1  0  0  0  0
  1  2  1  0  0  0  0
 27 28  2  0  0  0  0
 27 29  1  0  0  0  0
 23 24  1  0  0  0  0
 23 25  1  0  0  0  0
 23 26  1  0  0  0  0
 20 21  1  0  0  0  0
 20 22  1  0  0  0  0
 20 23  1  0  0  0  0
 17 18  1  0  0  0  0
 17 19  1  0  0  0  0
 17 20  1  0  0  0  0
 14 15  1  0  0  0  0
 14 16  1  0  0  0  0
 14 17  1  0  0  0  0
 11 12  1  0  0  0  0
 11 13  1  0  0  0  0
 11 14  1  0  0  0  0
  9 10  1  0  0  0  0
  9 11  1  0  0  0  0
  9 27  1  0  0  0  0
  7  8  1  0  0  0  0
  7  9  1  0  0  0  0
 31 32  1  0  0  0  0
 31 33  1  0  0  0  0
 31 34  1  0  0  0  0
 29 30  1  0  0  0  0
 29 31  1  0  0  0  0
M  CHG  1  23   1
M  END
$$$$
default_name
  -OEChem-02102213163D

 34 33  0     1  0  0  0  0  0999 V2000
   -3.8899   -3.6747    1.6490 H   0  0  0  0  0  0  0  0  0  0  0  0
   -3.9109   -2.6717    1.2250 C   0  0  0  0  0  0  0  0  0  0  0  0
   -4.6009   -2.0517    1.7950 H   0  0  0  0  0  0  0  0  0  0  0  0
   -4.2309   -2.7237    0.1860 H   0  0  0  0  0  0  0  0  0  0  0  0
   -2.5229   -2.0787    1.2980 C   0  0  0  0  0  0  0  0  0  0  0  0
   -1.5999   -2.7227    1.7810 O   0  0  0  0  0  0  0  0  0  0  0  0
   -2.3659   -0.8447    0.8120 N   0  0  0  0  0  0  0  0  0  0  0  0
   -3.1749   -0.3807    0.4220 H   0  0  0  0  0  0  0  0  0  0  0  0
   -1.0919   -0.1077    0.8170 C   0  0  1  0  0  0  0  0  0  0  0  0
   -0.3571   -0.6901    0.2581 H   0  0  0  0  0  0  0  0  0  0  0  0
   -1.3037    1.2411    0.1040 C   0  0  0  0  0  0  0  0  0  0  0  0
   -1.3672    1.0602   -0.9702 H   0  0  0  0  0  0  0  0  0  0  0  0
   -2.2500    1.6757    0.4322 H   0  0  0  0  0  0  0  0  0  0  0  0
   -0.1700    2.2462    0.3583 C   0  0  0  0  0  0  0  0  0  0  0  0
   -0.5654    3.2623    0.3244 H   0  0  0  0  0  0  0  0  0  0  0  0
    0.2580    2.0630    1.3458 H   0  0  0  0  0  0  0  0  0  0  0  0
    0.9258    2.0967   -0.7061 C   0  0  0  0  0  0  0  0  0  0  0  0
    1.3092    1.0739   -0.6798 H   0  0  0  0  0  0  0  0  0  0  0  0
    0.4948    2.2899   -1.6905 H   0  0  0  0  0  0  0  0  0  0  0  0
    2.0700    3.0826   -0.4392 C   0  0  0  0  0  0  0  0  0  0  0  0
    1.6644    4.0993   -0.4621 H   0  0  0  0  0  0  0  0  0  0  0  0
    2.4590    2.8995    0.5670 H   0  0  0  0  0  0  0  0  0  0  0  0
    3.1562    2.9427   -1.4417 N   0  3  0  0  0  0  0  0  0  0  0  0
    2.8046    3.1213   -2.3741 H   0  0  0  0  0  0  0  0  0  0  0  0
    3.9029    3.5993   -1.2515 H   0  0  0  0  0  0  0  0  0  0  0  0
    3.5410    2.0055   -1.4184 H   0  0  0  0  0  0  0  0  0  0  0  0
   -0.5865    0.0771    2.2496 C   0  0  0  0  0  0  0  0  0  0  0  0
    0.5860   -0.1608    2.5143 O   0  0  0  0  0  0  0  0  0  0  0  0
   -1.4786    0.4656    3.1667 N   0  0  0  0  0  0  0  0  0  0  0  0
   -2.4139    0.6698    2.8558 H   0  0  0  0  0  0  0  0  0  0  0  0
   -1.1587    0.6908    4.5775 C   0  0  0  0  0  0  0  0  0  0  0  0
   -0.4270    1.4968    4.6656 H   0  0  0  0  0  0  0  0  0  0  0  0
   -2.0565    0.9649    5.1327 H   0  0  0  0  0  0  0  0  0  0  0  0
   -0.7281   -0.2137    5.0125 H   0  0  0  0  0  0  0  0  0  0  0  0
  5  6  2  0  0  0  0
  5  7  1  0  0  0  0
  2  3  1  0  0  0  0
  2  4  1  0  0  0  0
  2  5  1  0  0  0  0
  1  2  1  0  0  0  0
 27 28  2  0  0  0  0
 27 29  1  0  0  0  0
 23 24  1  0  0  0  0
 23 25  1  0  0  0  0
 23 26  1  0  0  0  0
 20 21  1  0  0  0  0
 20 22  1  0  0  0  0
 20 23  1  0  0  0  0
 17 18  1  0  0  0  0
 17 19  1  0  0  0  0
 17 20  1  0  0  0  0
 14 15  1  0  0  0  0
 14 16  1  0  0  0  0
 14 17  1  0  0  0  0
 11 12  1  0  0  0  0
 11 13  1  0  0  0  0
 11 14  1  0  0  0  0
  9 10  1  0  0  0  0
  9 11  1  0  0  0  0
  9 27  1  0  0  0  0
  7  8  1  0  0  0  0
  7  9  1  0  0  0  0
 31 32  1  0  0  0  0
 31 33  1  0  0  0  0
 31 34  1  0  0  0  0
 29 30  1  0  0  0  0
 29 31  1  0  0  0  0
M  CHG  1  23   1
M  END
$$$$
default_name
  -OEChem-02102213163D

 34 33  0     1  0  0  0  0  0999 V2000
   -3.8899   -3.6747    1.6490 H   0  0  0  0  0  0  0  0  0  0  0  0
   -3.9109   -2.6717    1.2250 C   0  0  0  0  0  0  0  0  0  0  0  0
   -4.6009   -2.0517    1.7950 H   0  0  0  0  0  0  0  0  0  0  0  0
   -4.2309   -2.7237    0.1860 H   0  0  0  0  0  0  0  0  0  0  0  0
   -2.5229   -2.0787    1.2980 C   0  0  0  0  0  0  0  0  0  0  0  0
   -1.5999   -2.7227    1.7810 O   0  0  0  0  0  0  0  0  0  0  0  0
   -2.3659   -0.8447    0.8120 N   0  0  0  0  0  0  0  0  0  0  0  0
   -3.1749   -0.3807    0.4220 H   0  0  0  0  0  0  0  0  0  0  0  0
   -1.0919   -0.1077    0.8170 C   0  0  1  0  0  0  0  0  0  0  0  0
   -0.3571   -0.6901    0.2581 H   0  0  0  0  0  0  0  0  0  0  0  0
   -1.3037    1.2411    0.1040 C   0  0  0  0  0  0  0  0  0  0  0  0
   -1.3672    1.0602   -0.9702 H   0  0  0  0  0  0  0  0  0  0  0  0
   -2.2500    1.6757    0.4322 H   0  0  0  0  0  0  0  0  0  0  0  0
   -0.1700    2.2462    0.3583 C   0  0  0  0  0  0  0  0  0  0  0  0
   -0.5919    3.2254    0.5887 H   0  0  0  0  0  0  0  0  0  0  0  0
    0.4275    1.9070    1.2067 H   0  0  0  0  0  0  0  0  0  0  0  0
    0.7280    2.3639   -0.8810 C   0  0  0  0  0  0  0  0  0  0  0  0
    1.1371    1.3788   -1.1179 H   0  0  0  0  0  0  0  0  0  0  0  0
    0.1278    2.7122   -1.7239 H   0  0  0  0  0  0  0  0  0  0  0  0
    1.8748    3.3485   -0.6199 C   0  0  0  0  0  0  0  0  0  0  0  0
    1.4447    4.3256   -0.3771 H   0  0  0  0  0  0  0  0  0  0  0  0
    2.4371    3.0036    0.2531 H   0  0  0  0  0  0  0  0  0  0  0  0
    2.7739    3.4635   -1.7959 N   0  3  0  0  0  0  0  0  0  0  0  0
    2.2612    3.7924   -2.6045 H   0  0  0  0  0  0  0  0  0  0  0  0
    3.5247    4.1159   -1.6074 H   0  0  0  0  0  0  0  0  0  0  0  0
    3.1815    2.5630   -2.0193 H   0  0  0  0  0  0  0  0  0  0  0  0
   -0.5865    0.0771    2.2496 C   0  0  0  0  0  0  0  0  0  0  0  0
    0.5860   -0.1608    2.5143 O   0  0  0  0  0  0  0  0  0  0  0  0
   -1.4786    0.4656    3.1667 N   0  0  0  0  0  0  0  0  0  0  0  0
   -2.4139    0.6698    2.8558 H   0  0  0  0  0  0  0  0  0  0  0  0
   -1.1587    0.6908    4.5775 C   0  0  0  0  0  0  0  0  0  0  0  0
   -0.4270    1.4968    4.6656 H   0  0  0  0  0  0  0  0  0  0  0  0
   -2.0565    0.9649    5.1327 H   0  0  0  0  0  0  0  0  0  0  0  0
   -0.7281   -0.2137    5.0125 H   0  0  0  0  0  0  0  0  0  0  0  0
  5  6  2  0  0  0  0
  5  7  1  0  0  0  0
  2  3  1  0  0  0  0
  2  4  1  0  0  0  0
  2  5  1  0  0  0  0
  1  2  1  0  0  0  0
 27 28  2  0  0  0  0
 27 29  1  0  0  0  0
 23 24  1  0  0  0  0
 23 25  1  0  0  0  0
 23 26  1  0  0  0  0
 20 21  1  0  0  0  0
 20 22  1  0  0  0  0
 20 23  1  0  0  0  0
 17 18  1  0  0  0  0
 17 19  1  0  0  0  0
 17 20  1  0  0  0  0
 14 15  1  0  0  0  0
 14 16  1  0  0  0  0
 14 17  1  0  0  0  0
 11 12  1  0  0  0  0
 11 13  1  0  0  0  0
 11 14  1  0  0  0  0
  9 10  1  0  0  0  0
  9 11  1  0  0  0  0
  9 27  1  0  0  0  0
  7  8  1  0  0  0  0
  7  9  1  0  0  0  0
 31 32  1  0  0  0  0
 31 33  1  0  0  0  0
 31 34  1  0  0  0  0
 29 30  1  0  0  0  0
 29 31  1  0  0  0  0
M  CHG  1  23   1
M  END
$$$$
default_name
  -OEChem-02102213163D

 34 33  0     1  0  0  0  0  0999 V2000
   -3.8899   -3.6747    1.6490 H   0  0  0  0  0  0  0  0  0  0  0  0
   -3.9109   -2.6717    1.2250 C   0  0  0  0  0  0  0  0  0  0  0  0
   -4.6009   -2.0517    1.7950 H   0  0  0  0  0  0  0  0  0  0  0  0
   -4.2309   -2.7237    0.1860 H   0  0  0  0  0  0  0  0  0  0  0  0
   -2.5229   -2.0787    1.2980 C   0  0  0  0  0  0  0  0  0  0  0  0
   -1.5999   -2.7227    1.7810 O   0  0  0  0  0  0  0  0  0  0  0  0
   -2.3659   -0.8447    0.8120 N   0  0  0  0  0  0  0  0  0  0  0  0
   -3.1749   -0.3807    0.4220 H   0  0  0  0  0  0  0  0  0  0  0  0
   -1.0919   -0.1077    0.8170 C   0  0  1  0  0  0  0  0  0  0  0  0
   -0.3571   -0.6901    0.2581 H   0  0  0  0  0  0  0  0  0  0  0  0
   -1.3037    1.2411    0.1040 C   0  0  0  0  0  0  0  0  0  0  0  0
   -1.3672    1.0602   -0.9702 H   0  0  0  0  0  0  0  0  0  0  0  0
   -2.2500    1.6757    0.4322 H   0  0  0  0  0  0  0  0  0  0  0  0
   -0.1700    2.2462    0.3583 C   0  0  0  0  0  0  0  0  0  0  0  0
   -0.5713    3.1382    0.8414 H   0  0  0  0  0  0  0  0  0  0  0  0
    0.5744    1.7901    1.0138 H   0  0  0  0  0  0  0  0  0  0  0  0
    0.4960    2.6470   -0.9653 C   0  0  0  0  0  0  0  0  0  0  0  0
    0.8836    1.7498   -1.4538 H   0  0  0  0  0  0  0  0  0  0  0  0
   -0.2503    3.1108   -1.6133 H   0  0  0  0  0  0  0  0  0  0  0  0
    1.6443    3.6314   -0.7106 C   0  0  0  0  0  0  0  0  0  0  0  0
    1.2372    4.5186   -0.2146 H   0  0  0  0  0  0  0  0  0  0  0  0
    2.3584    3.1631   -0.0266 H   0  0  0  0  0  0  0  0  0  0  0  0
    2.3224    4.0178   -1.9737 N   0  3  0  0  0  0  0  0  0  0  0  0
    1.6687    4.4613   -2.6068 H   0  0  0  0  0  0  0  0  0  0  0  0
    3.0770    4.6668   -1.7885 H   0  0  0  0  0  0  0  0  0  0  0  0
    2.7087    3.2009   -2.4324 H   0  0  0  0  0  0  0  0  0  0  0  0
   -0.5865    0.0771    2.2496 C   0  0  0  0  0  0  0  0  0  0  0  0
    0.5860   -0.1608    2.5143 O   0  0  0  0  0  0  0  0  0  0  0  0
   -1.4786    0.4656    3.1667 N   0  0  0  0  0  0  0  0  0  0  0  0
   -2.4139    0.6698    2.8558 H   0  0  0  0  0  0  0  0  0  0  0  0
   -1.1587    0.6908    4.5775 C   0  0  0  0  0  0  0  0  0  0  0  0
   -0.4270    1.4968    4.6656 H   0  0  0  0  0  0  0  0  0  0  0  0
   -2.0565    0.9649    5.1327 H   0  0  0  0  0  0  0  0  0  0  0  0
   -0.7281   -0.2137    5.0125 H   0  0  0  0  0  0  0  0  0  0  0  0
  5  6  2  0  0  0  0
  5  7  1  0  0  0  0
  2  3  1  0  0  0  0
  2  4  1  0  0  0  0
  2  5  1  0  0  0  0
  1  2  1  0  0  0  0
 27 28  2  0  0  0  0
 27 29  1  0  0  0  0
 23 24  1  0  0  0  0
 23 25  1  0  0  0  0
 23 26  1  0  0  0  0
 20 21  1  0  0  0  0
 20 22  1  0  0  0  0
 20 23  1  0  0  0  0
 17 18  1  0  0  0  0
 17 19  1  0  0  0  0
 17 20  1  0  0  0  0
 14 15  1  0  0  0  0
 14 16  1  0  0  0  0
 14 17  1  0  0  0  0
 11 12  1  0  0  0  0
 11 13  1  0  0  0  0
 11 14  1  0  0  0  0
  9 10  1  0  0  0  0
  9 11  1  0  0  0  0
  9 27  1  0  0  0  0
  7  8  1  0  0  0  0
  7  9  1  0  0  0  0
 31 32  1  0  0  0  0
 31 33  1  0  0  0  0
 31 34  1  0  0  0  0
 29 30  1  0  0  0  0
 29 31  1  0  0  0  0
M  CHG  1  23   1
M  END
$$$$
default_name
  -OEChem-02102213163D

 34 33  0     1  0  0  0  0  0999 V2000
   -3.8899   -3.6747    1.6490 H   0  0  0  0  0  0  0  0  0  0  0  0
   -3.9109   -2.6717    1.2250 C   0  0  0  0  0  0  0  0  0  0  0  0
   -4.6009   -2.0517    1.7950 H   0  0  0  0  0  0  0  0  0  0  0  0
   -4.2309   -2.7237    0.1860 H   0  0  0  0  0  0  0  0  0  0  0  0
   -2.5229   -2.0787    1.2980 C   0  0  0  0  0  0  0  0  0  0  0  0
   -1.5999   -2.7227    1.7810 O   0  0  0  0  0  0  0  0  0  0  0  0
   -2.3659   -0.8447    0.8120 N   0  0  0  0  0  0  0  0  0  0  0  0
   -3.1749   -0.3807    0.4220 H   0  0  0  0  0  0  0  0  0  0  0  0
   -1.0919   -0.1077    0.8170 C   0  0  1  0  0  0  0  0  0  0  0  0
   -0.3571   -0.6901    0.2581 H   0  0  0  0  0  0  0  0  0  0  0  0
   -1.3037    1.2411    0.1040 C   0  0  0  0  0  0  0  0  0  0  0  0
   -1.3672    1.0602   -0.9702 H   0  0  0  0  0  0  0  0  0  0  0  0
   -2.2500    1.6757    0.4322 H   0  0  0  0  0  0  0  0  0  0  0  0
   -0.1700    2.2462    0.3583 C   0  0  0  0  0  0  0  0  0  0  0  0
   -0.5048    3.0065    1.0653 H   0  0  0  0  0  0  0  0  0  0  0  0
    0.6886    1.7204    0.7803 H   0  0  0  0  0  0  0  0  0  0  0  0
    0.2454    2.9266   -0.9534 C   0  0  0  0  0  0  0  0  0  0  0  0
    0.5660    2.1613   -1.6644 H   0  0  0  0  0  0  0  0  0  0  0  0
   -0.6140    3.4585   -1.3664 H   0  0  0  0  0  0  0  0  0  0  0  0
    1.3941    3.9122   -0.7052 C   0  0  0  0  0  0  0  0  0  0  0  0
    1.0560    4.6650    0.0143 H   0  0  0  0  0  0  0  0  0  0  0  0
    2.2282    3.3673   -0.2530 H   0  0  0  0  0  0  0  0  0  0  0  0
    1.8323    4.5678   -1.9632 N   0  3  0  0  0  0  0  0  0  0  0  0
    1.0673    5.0826   -2.3810 H   0  0  0  0  0  0  0  0  0  0  0  0
    2.5902    5.2142   -1.7825 H   0  0  0  0  0  0  0  0  0  0  0  0
    2.1546    3.8757   -2.6295 H   0  0  0  0  0  0  0  0  0  0  0  0
   -0.5865    0.0771    2.2496 C   0  0  0  0  0  0  0  0  0  0  0  0
    0.5860   -0.1608    2.5143 O   0  0  0  0  0  0  0  0  0  0  0  0
   -1.4786    0.4656    3.1667 N   0  0  0  0  0  0  0  0  0  0  0  0
   -2.4139    0.6698    2.8558 H   0  0  0  0  0  0  0  0  0  0  0  0
   -1.1587    0.6908    4.5775 C   0  0  0  0  0  0  0  0  0  0  0  0
   -0.4270    1.4968    4.6656 H   0  0  0  0  0  0  0  0  0  0  0  0
   -2.0565    0.9649    5.1327 H   0  0  0  0  0  0  0  0  0  0  0  0
   -0.7281   -0.2137    5.0125 H   0  0  0  0  0  0  0  0  0  0  0  0
  5  6  2  0  0  0  0
  5  7  1  0  0  0  0
  2  3  1  0  0  0  0
  2  4  1  0  0  0  0
  2  5  1  0  0  0  0
  1  2  1  0  0  0  0
 27 28  2  0  0  0  0
 27 29  1  0  0  0  0
 23 24  1  0  0  0  0
 23 25  1  0  0  0  0
 23 26  1  0  0  0  0
 20 21  1  0  0  0  0
 20 22  1  0  0  0  0
 20 23  1  0  0  0  0
 17 18  1  0  0  0  0
 17 19  1  0  0  0  0
 17 20  1  0  0  0  0
 14 15  1  0  0  0  0
 14 16  1  0  0  0  0
 14 17  1  0  0  0  0
 11 12  1  0  0  0  0
 11 13  1  0  0  0  0
 11 14  1  0  0  0  0
  9 10  1  0  0  0  0
  9 11  1  0  0  0  0
  9 27  1  0  0  0  0
  7  8  1  0  0  0  0
  7  9  1  0  0  0  0
 31 32  1  0  0  0  0
 31 33  1  0  0  0  0
 31 34  1  0  0  0  0
 29 30  1  0  0  0  0
 29 31  1  0  0  0  0
M  CHG  1  23   1
M  END
$$$$
default_name
  -OEChem-02102213163D

 34 33  0     1  0  0  0  0  0999 V2000
   -3.8899   -3.6747    1.6490 H   0  0  0  0  0  0  0  0  0  0  0  0
   -3.9109   -2.6717    1.2250 C   0  0  0  0  0  0  0  0  0  0  0  0
   -4.6009   -2.0517    1.7950 H   0  0  0  0  0  0  0  0  0  0  0  0
   -4.2309   -2.7237    0.1860 H   0  0  0  0  0  0  0  0  0  0  0  0
   -2.5229   -2.0787    1.2980 C   0  0  0  0  0  0  0  0  0  0  0  0
   -1.5999   -2.7227    1.7810 O   0  0  0  0  0  0  0  0  0  0  0  0
   -2.3659   -0.8447    0.8120 N   0  0  0  0  0  0  0  0  0  0  0  0
   -3.1749   -0.3807    0.4220 H   0  0  0  0  0  0  0  0  0  0  0  0
   -1.0919   -0.1077    0.8170 C   0  0  1  0  0  0  0  0  0  0  0  0
   -0.3571   -0.6901    0.2581 H   0  0  0  0  0  0  0  0  0  0  0  0
   -1.3037    1.2411    0.1040 C   0  0  0  0  0  0  0  0  0  0  0  0
   -1.3672    1.0602   -0.9702 H   0  0  0  0  0  0  0  0  0  0  0  0
   -2.2500    1.6757    0.4322 H   0  0  0  0  0  0  0  0  0  0  0  0
   -0.1700    2.2462    0.3583 C   0  0  0  0  0  0  0  0  0  0  0  0
   -0.3970    2.8394    1.2451 H   0  0  0  0  0  0  0  0  0  0  0  0
    0.7624    1.7025    0.5222 H   0  0  0  0  0  0  0  0  0  0  0  0
   -0.0065    3.1836   -0.8461 C   0  0  0  0  0  0  0  0  0  0  0  0
    0.2059    2.5855   -1.7355 H   0  0  0  0  0  0  0  0  0  0  0  0
   -0.9383    3.7316   -0.9999 H   0  0  0  0  0  0  0  0  0  0  0  0
    1.1414    4.1717   -0.6039 C   0  0  0  0  0  0  0  0  0  0  0  0
    0.9135    4.7550    0.2941 H   0  0  0  0  0  0  0  0  0  0  0  0
    2.0554    3.6021   -0.4106 H   0  0  0  0  0  0  0  0  0  0  0  0
    1.3372    5.0761   -1.7650 N   0  3  0  0  0  0  0  0  0  0  0  0
    0.4980    5.6137   -1.9424 H   0  0  0  0  0  0  0  0  0  0  0  0
    2.0977    5.7210   -1.5896 H   0  0  0  0  0  0  0  0  0  0  0  0
    1.5572    4.5414   -2.5972 H   0  0  0  0  0  0  0  0  0  0  0  0
   -0.5865    0.0771    2.2496 C   0  0  0  0  0  0  0  0  0  0  0  0
    0.5860   -0.1608    2.5143 O   0  0  0  0  0  0  0  0  0  0  0  0
   -1.4786    0.4656    3.1667 N   0  0  0  0  0  0  0  0  0  0  0  0
   -2.4139    0.6698    2.8558 H   0  0  0  0  0  0  0  0  0  0  0  0
   -1.1587    0.6908    4.5775 C   0  0  0  0  0  0  0  0  0  0  0  0
   -0.4270    1.4968    4.6656 H   0  0  0  0  0  0  0  0  0  0  0  0
   -2.0565    0.9649    5.1327 H   0  0  0  0  0  0  0  0  0  0  0  0
   -0.7281   -0.2137    5.0125 H   0  0  0  0  0  0  0  0  0  0  0  0
  5  6  2  0  0  0  0
  5  7  1  0  0  0  0
  2  3  1  0  0  0  0
  2  4  1  0  0  0  0
  2  5  1  0  0  0  0
  1  2  1  0  0  0  0
 27 28  2  0  0  0  0
 27 29  1  0  0  0  0
 23 24  1  0  0  0  0
 23 25  1  0  0  0  0
 23 26  1  0  0  0  0
 20 21  1  0  0  0  0
 20 22  1  0  0  0  0
 20 23  1  0  0  0  0
 17 18  1  0  0  0  0
 17 19  1  0  0  0  0
 17 20  1  0  0  0  0
 14 15  1  0  0  0  0
 14 16  1  0  0  0  0
 14 17  1  0  0  0  0
 11 12  1  0  0  0  0
 11 13  1  0  0  0  0
 11 14  1  0  0  0  0
  9 10  1  0  0  0  0
  9 11  1  0  0  0  0
  9 27  1  0  0  0  0
  7  8  1  0  0  0  0
  7  9  1  0  0  0  0
 31 32  1  0  0  0  0
 31 33  1  0  0  0  0
 31 34  1  0  0  0  0
 29 30  1  0  0  0  0
 29 31  1  0  0  0  0
M  CHG  1  23   1
M  END
$$$$
default_name
  -OEChem-02102213163D

 34 33  0     1  0  0  0  0  0999 V2000
   -3.8899   -3.6747    1.6490 H   0  0  0  0  0  0  0  0  0  0  0  0
   -3.9109   -2.6717    1.2250 C   0  0  0  0  0  0  0  0  0  0  0  0
   -4.6009   -2.0517    1.7950 H   0  0  0  0  0  0  0  0  0  0  0  0
   -4.2309   -2.7237    0.1860 H   0  0  0  0  0  0  0  0  0  0  0  0
   -2.5229   -2.0787    1.2980 C   0  0  0  0  0  0  0  0  0  0  0  0
   -1.5999   -2.7227    1.7810 O   0  0  0  0  0  0  0  0  0  0  0  0
   -2.3659   -0.8447    0.8120 N   0  0  0  0  0  0  0  0  0  0  0  0
   -3.1749   -0.3807    0.4220 H   0  0  0  0  0  0  0  0  0  0  0  0
   -1.0919   -0.1077    0.8170 C   0  0  1  0  0  0  0  0  0  0  0  0
   -0.3571   -0.6901    0.2581 H   0  0  0  0  0  0  0  0  0  0  0  0
   -1.3037    1.2411    0.1040 C   0  0  0  0  0  0  0  0  0  0  0  0
   -1.3672    1.0602   -0.9702 H   0  0  0  0  0  0  0  0  0  0  0  0
   -2.2500    1.6757    0.4322 H   0  0  0  0  0  0  0  0  0  0  0  0
   -0.1700    2.2462    0.3583 C   0  0  0  0  0  0  0  0  0  0  0  0
   -0.2552    2.6483    1.3687 H   0  0  0  0  0  0  0  0  0  0  0  0
    0.7907    1.7377    0.2569 H   0  0  0  0  0  0  0  0  0  0  0  0
   -0.2428    3.4006   -0.6507 C   0  0  0  0  0  0  0  0  0  0  0  0
   -0.1722    2.9933   -1.6621 H   0  0  0  0  0  0  0  0  0  0  0  0
   -1.2012    3.9115   -0.5388 H   0  0  0  0  0  0  0  0  0  0  0  0
    0.9033    4.3922   -0.4138 C   0  0  0  0  0  0  0  0  0  0  0  0
    0.8193    4.7824    0.6057 H   0  0  0  0  0  0  0  0  0  0  0  0
    1.8517    3.8516   -0.4887 H   0  0  0  0  0  0  0  0  0  0  0  0
    0.8708    5.5080   -1.3927 N   0  3  0  0  0  0  0  0  0  0  0  0
   -0.0004    6.0186   -1.3209 H   0  0  0  0  0  0  0  0  0  0  0  0
    1.6328    6.1526   -1.2231 H   0  0  0  0  0  0  0  0  0  0  0  0
    0.9570    5.1527   -2.3377 H   0  0  0  0  0  0  0  0  0  0  0  0
   -0.5865    0.0771    2.2496 C   0  0  0  0  0  0  0  0  0  0  0  0
    0.5860   -0.1608    2.5143 O   0  0  0  0  0  0  0  0  0  0  0  0
   -1.4786    0.4656    3.1667 N   0  0  0  0  0  0  0  0  0  0  0  0
   -2.4139    0.6698    2.8558 H   0  0  0  0  0  0  0  0  0  0  0  0
   -1.1587    0.6908    4.5775 C   0  0  0  0  0  0  0  0  0  0  0  0
   -0.4270    1.4968    4.6656 H   0  0  0  0  0  0  0  0  0  0  0  0
   -2.0565    0.9649    5.1327 H   0  0  0  0  0  0  0  0  0  0  0  0
   -0.7281   -0.2137    5.0125 H   0  0  0  0  0  0  0  0  0  0  0  0
  5  6  2  0  0  0  0
  5  7  1  0  0  0  0
  2  3  1  0  0  0  0
  2  4  1  0  0  0  0
  2  5  1  0  0  0  0
  1  2  1  0  0  0  0
 27 28  2  0  0  0  0
 27 29  1  0  0  0  0
 23 24  1  0  0  0  0
 23 25  1  0  0  0  0
 23 26  1  0  0  0  0
 20 21  1  0  0  0  0
 20 22  1  0  0  0  0
 20 23  1  0  0  0  0
 17 18  1  0  0  0  0
 17 19  1  0  0  0  0
 17 20  1  0  0  0  0
 14 15  1  0  0  0  0
 14 16  1  0  0  0  0
 14 17  1  0  0  0  0
 11 12  1  0  0  0  0
 11 13  1  0  0  0  0
 11 14  1  0  0  0  0
  9 10  1  0  0  0  0
  9 11  1  0  0  0  0
  9 27  1  0  0  0  0
  7  8  1  0  0  0  0
  7  9  1  0  0  0  0
 31 32  1  0  0  0  0
 31 33  1  0  0  0  0
 31 34  1  0  0  0  0
 29 30  1  0  0  0  0
 29 31  1  0  0  0  0
M  CHG  1  23   1
M  END
$$$$
