@<TRIPOS>MOLECULE
default_name
   24    24     1     0     0
SMALL
No Charge or Current Charge


@<TRIPOS>ATOM
      1 H1          25.9410    25.0870    24.4250 H          1 ACE       0.112300
      2 CH3         25.9850    26.1280    24.1110 C.3        1 ACE      -0.366200
      3 H2          25.3570    26.7390    24.7560 H          1 ACE       0.112300
      4 H3          25.6580    26.2220    23.0780 H          1 ACE       0.112300
      5 C           27.4130    26.6140    24.2180 C.2        1 ACE       0.597200
      6 O           28.2850    25.8440    24.6100 O.2        1 ACE      -0.567900
      7 N           27.6230    27.8820    23.8670 N.am       2 CHI      -0.567900
      8 H           26.8330    28.4470    23.5850 H          2 CHI      -0.567900
      9 CA          28.8890    28.6260    23.9080 C.3        2 CHI      -0.567900
     10 HA          29.4770    28.3030    24.7650 H          2 CHI      -0.567900
     11 CB          29.6730    28.3520    22.6030 C.3        2 CHI      -0.567900
     12 HB2         29.7340    27.2730    22.4580 H          2 CHI      -0.567900
     13 HB3         29.1070    28.7670    21.7680 H          2 CHI      -0.567900
     14 CG          31.0850    28.8860    22.5120 C.2        2 CHI      -0.567900
     15 ND1         31.9300    28.7040    21.4100 N.2        2 CHI      -0.567900
     16 CE1         33.0790    29.3200    21.7180 C.2        2 CHI      -0.567900
     17 HE1         33.9360    29.3740    21.0600 H          2 CHI      -0.567900
     18 NE2         33.0110    29.8630    22.9440 N.pl3      2 CHI      -0.567900
     19 HE2         33.7310    30.4040    23.3960 H          2 CHI      -0.567900
     20 CD2         31.7660    29.5910    23.4620 C.2        2 CHI      -0.567900
     21 HD2         31.3770    29.8970    24.4230 H          2 CHI      -0.567900
     22 C           28.5740    30.1110    24.1270 C.2        2 CHI      -0.567900
     23 O           27.6170    30.5840    23.4740 O.co2      2 CHI      -0.567900
     24 OXT         29.2430    30.7140    24.9920 O.co2      2 CHI      -0.567900
@<TRIPOS>BOND
     1     5     6 2   
     2     5     7 am  
     3     2     3 1   
     4     2     4 1   
     5     2     5 1   
     6     1     2 1   
     7    22    23 1   
     8    22    24 1   
     9    20    21 1   
    10    18    19 1   
    11    18    20 1   
    12    16    17 1   
    13    16    18 1   
    14    15    16 2   
    15    14    15 1   
    16    14    20 2   
    17    11    12 1   
    18    11    13 1   
    19    11    14 1   
    20     9    10 1   
    21     9    11 1   
    22     9    22 1   
    23     7     8 1   
    24     7     9 1   
@<TRIPOS>SUBSTRUCTURE
     1 ACE         1 TEMP              0 ****  ****    0 ROOT
