
  -OEChem-02062319033D

 47 46  0     1  0  0  0  0  0999 V2000
    0.5093   -4.7265    3.0306 C   0  0  0  0  0  0  0  0  0  0  0  0
    1.2735   -4.4402    3.9448 O   0  0  0  0  0  0  0  0  0  0  0  0
   -0.4465   -5.8608    3.1982 C   0  0  0  0  0  0  0  0  0  0  0  0
   -0.0219   -6.8213    2.8645 H   0  0  0  0  0  0  0  0  0  0  0  0
   -0.7314   -6.0185    4.2509 H   0  0  0  0  0  0  0  0  0  0  0  0
   -1.3983   -5.7596    2.6527 H   0  0  0  0  0  0  0  0  0  0  0  0
    0.4252   -4.0886    1.8040 N   0  0  0  0  0  0  0  0  0  0  0  0
    1.2532   -2.9707    1.4349 C   0  0  2  0  0  0  0  0  0  0  0  0
    0.3395   -1.8293    1.0083 C   0  0  0  0  0  0  0  0  0  0  0  0
   -0.8136   -2.0027    0.6194 O   0  0  0  0  0  0  0  0  0  0  0  0
    2.2176   -3.3411    0.3189 C   0  0  0  0  0  0  0  0  0  0  0  0
   -0.2574   -4.4279    1.1287 H   0  0  0  0  0  0  0  0  0  0  0  0
    1.8087   -2.6785    2.3327 H   0  0  0  0  0  0  0  0  0  0  0  0
    1.6793   -3.6366   -0.5890 H   0  0  0  0  0  0  0  0  0  0  0  0
    2.8662   -2.4980    0.0589 H   0  0  0  0  0  0  0  0  0  0  0  0
    2.8538   -4.1816    0.6166 H   0  0  0  0  0  0  0  0  0  0  0  0
    0.9758   -0.5952    1.0708 N   0  0  0  0  0  0  0  0  0  0  0  0
    0.3220    0.6387    0.7173 C   0  0  2  0  0  0  0  0  0  0  0  0
   -0.1106    0.5271   -0.7408 C   0  0  0  0  0  0  0  0  0  0  0  0
   -1.2346    0.8359   -1.1314 O   0  0  0  0  0  0  0  0  0  0  0  0
    1.2409    1.8510    0.9101 C   0  0  0  0  0  0  0  0  0  0  0  0
    1.5866    2.1267    2.3729 C   0  0  0  0  0  0  0  0  0  0  0  0
    2.5219    3.3117    2.6351 C   0  0  0  0  0  0  0  0  0  0  0  0
    3.0056    3.8339    1.5896 O   0  5  0  0  0  0  0  0  0  0  0  0
    2.6891    3.6364    3.8429 O   0  0  0  0  0  0  0  0  0  0  0  0
    1.9319   -0.5475    1.4159 H   0  0  0  0  0  0  0  0  0  0  0  0
   -0.5724    0.7114    1.3454 H   0  0  0  0  0  0  0  0  0  0  0  0
    0.7814    2.7443    0.4691 H   0  0  0  0  0  0  0  0  0  0  0  0
    2.1761    1.6890    0.3575 H   0  0  0  0  0  0  0  0  0  0  0  0
    0.6675    2.2591    2.9561 H   0  0  0  0  0  0  0  0  0  0  0  0
    2.0904    1.2416    2.7819 H   0  0  0  0  0  0  0  0  0  0  0  0
    0.8910   -0.0014   -1.5431 N   0  0  0  0  0  0  0  0  0  0  0  0
    0.7245   -0.2217   -2.9611 C   0  0  2  0  0  0  0  0  0  0  0  0
    1.8020   -1.1975   -3.4151 C   0  0  0  0  0  0  0  0  0  0  0  0
    2.8519   -1.3714   -2.7999 O   0  0  0  0  0  0  0  0  0  0  0  0
    0.8107    1.0831   -3.7375 C   0  0  0  0  0  0  0  0  0  0  0  0
    1.7965   -0.2145   -1.1352 H   0  0  0  0  0  0  0  0  0  0  0  0
   -0.2624   -0.6774   -3.0966 H   0  0  0  0  0  0  0  0  0  0  0  0
    1.7926    1.5544   -3.6139 H   0  0  0  0  0  0  0  0  0  0  0  0
    0.6559    0.9182   -4.8089 H   0  0  0  0  0  0  0  0  0  0  0  0
    0.0543    1.7946   -3.3892 H   0  0  0  0  0  0  0  0  0  0  0  0
    1.4721   -1.8197   -4.6111 N   0  0  0  0  0  0  0  0  0  0  0  0
    2.3378   -2.7798   -5.2551 C   0  0  0  0  0  0  0  0  0  0  0  0
    0.5721   -1.6294   -5.0417 H   0  0  0  0  0  0  0  0  0  0  0  0
    2.9862   -2.2628   -5.9779 H   0  0  0  0  0  0  0  0  0  0  0  0
    2.9592   -3.2793   -4.4972 H   0  0  0  0  0  0  0  0  0  0  0  0
    1.7275   -3.5289   -5.7807 H   0  0  0  0  0  0  0  0  0  0  0  0
  1  3  1  0  0  0  0
  1  7  1  0  0  0  0
  1  2  2  0  0  0  0
 33 34  1  0  0  0  0
 34 42  1  0  0  0  0
 34 35  2  0  0  0  0
  8  9  1  0  0  0  0
  9 17  1  0  0  0  0
  9 10  2  0  0  0  0
 18 19  1  0  0  0  0
 19 32  1  0  0  0  0
 19 20  2  0  0  0  0
 22 23  1  0  0  0  0
 23 24  1  0  0  0  0
 23 25  2  0  0  0  0
 33 36  1  0  0  0  0
  8 11  1  0  0  0  0
 42 43  1  0  0  0  0
 21 22  1  0  0  0  0
 18 21  1  0  0  0  0
 32 33  1  0  0  0  0
  7  8  1  0  0  0  0
 17 18  1  0  0  0  0
  3  4  1  0  0  0  0
  3  5  1  0  0  0  0
  3  6  1  0  0  0  0
 36 39  1  0  0  0  0
 36 40  1  0  0  0  0
 36 41  1  0  0  0  0
 11 14  1  0  0  0  0
 11 15  1  0  0  0  0
 11 16  1  0  0  0  0
 43 45  1  0  0  0  0
 43 46  1  0  0  0  0
 43 47  1  0  0  0  0
 22 30  1  0  0  0  0
 22 31  1  0  0  0  0
 21 28  1  0  0  0  0
 21 29  1  0  0  0  0
 33 38  1  0  0  0  0
  8 13  1  0  0  0  0
 18 27  1  0  0  0  0
 42 44  1  0  0  0  0
  7 12  1  0  0  0  0
 32 37  1  0  0  0  0
 17 26  1  0  0  0  0
M  CHG  1  24  -1
M  END
$$$$

  -OEChem-02062319033D

 47 46  0     1  0  0  0  0  0999 V2000
    0.5093   -4.7265    3.0306 C   0  0  0  0  0  0  0  0  0  0  0  0
    1.2735   -4.4402    3.9448 O   0  0  0  0  0  0  0  0  0  0  0  0
   -0.4465   -5.8608    3.1982 C   0  0  0  0  0  0  0  0  0  0  0  0
   -0.0219   -6.8213    2.8645 H   0  0  0  0  0  0  0  0  0  0  0  0
   -0.7314   -6.0185    4.2509 H   0  0  0  0  0  0  0  0  0  0  0  0
   -1.3983   -5.7596    2.6527 H   0  0  0  0  0  0  0  0  0  0  0  0
    0.4252   -4.0886    1.8040 N   0  0  0  0  0  0  0  0  0  0  0  0
    1.2532   -2.9707    1.4349 C   0  0  2  0  0  0  0  0  0  0  0  0
    0.3395   -1.8293    1.0083 C   0  0  0  0  0  0  0  0  0  0  0  0
   -0.8136   -2.0027    0.6194 O   0  0  0  0  0  0  0  0  0  0  0  0
    2.2176   -3.3411    0.3189 C   0  0  0  0  0  0  0  0  0  0  0  0
   -0.2574   -4.4279    1.1287 H   0  0  0  0  0  0  0  0  0  0  0  0
    1.8087   -2.6785    2.3327 H   0  0  0  0  0  0  0  0  0  0  0  0
    1.6793   -3.6366   -0.5890 H   0  0  0  0  0  0  0  0  0  0  0  0
    2.8662   -2.4980    0.0589 H   0  0  0  0  0  0  0  0  0  0  0  0
    2.8538   -4.1816    0.6166 H   0  0  0  0  0  0  0  0  0  0  0  0
    0.9758   -0.5952    1.0708 N   0  0  0  0  0  0  0  0  0  0  0  0
    0.2608    0.6545    1.0270 C   0  0  2  0  0  0  0  0  0  0  0  0
   -0.4965    0.7035   -0.2958 C   0  0  0  0  0  0  0  0  0  0  0  0
   -1.6796    1.0272   -0.3786 O   0  0  0  0  0  0  0  0  0  0  0  0
    1.2021    1.8590    1.1480 C   0  0  0  0  0  0  0  0  0  0  0  0
    1.8763    1.9701    2.5149 C   0  0  0  0  0  0  0  0  0  0  0  0
    2.8494    3.1398    2.6959 C   0  0  0  0  0  0  0  0  0  0  0  0
    3.0802    3.7929    1.6378 O   0  5  0  0  0  0  0  0  0  0  0  0
    3.2912    3.3249    3.8633 O   0  0  0  0  0  0  0  0  0  0  0  0
    1.9858   -0.5639    1.1909 H   0  0  0  0  0  0  0  0  0  0  0  0
   -0.4646    0.6304    1.8474 H   0  0  0  0  0  0  0  0  0  0  0  0
    0.6552    2.7857    0.9343 H   0  0  0  0  0  0  0  0  0  0  0  0
    1.9844    1.7867    0.3805 H   0  0  0  0  0  0  0  0  0  0  0  0
    1.1167    2.0099    3.3047 H   0  0  0  0  0  0  0  0  0  0  0  0
    2.4588    1.0563    2.6885 H   0  0  0  0  0  0  0  0  0  0  0  0
    0.2920    0.2983   -1.3636 N   0  0  0  0  0  0  0  0  0  0  0  0
   -0.1973    0.2415   -2.7216 C   0  0  2  0  0  0  0  0  0  0  0  0
    0.7443   -0.6467   -3.5241 C   0  0  0  0  0  0  0  0  0  0  0  0
    1.9074   -0.8646   -3.1912 O   0  0  0  0  0  0  0  0  0  0  0  0
   -0.2896    1.6300   -3.3351 C   0  0  0  0  0  0  0  0  0  0  0  0
    1.2667    0.0621   -1.2026 H   0  0  0  0  0  0  0  0  0  0  0  0
   -1.1899   -0.2202   -2.6810 H   0  0  0  0  0  0  0  0  0  0  0  0
    0.6954    2.1084   -3.3840 H   0  0  0  0  0  0  0  0  0  0  0  0
   -0.6875    1.5878   -4.3543 H   0  0  0  0  0  0  0  0  0  0  0  0
   -0.9438    2.2763   -2.7400 H   0  0  0  0  0  0  0  0  0  0  0  0
    0.1463   -1.1327   -4.6784 N   0  0  0  0  0  0  0  0  0  0  0  0
    0.8381   -1.9884   -5.6139 C   0  0  0  0  0  0  0  0  0  0  0  0
   -0.8284   -0.9163   -4.8653 H   0  0  0  0  0  0  0  0  0  0  0  0
    1.3035   -1.3739   -6.3986 H   0  0  0  0  0  0  0  0  0  0  0  0
    1.6163   -2.5572   -5.0840 H   0  0  0  0  0  0  0  0  0  0  0  0
    0.1214   -2.6861   -6.0715 H   0  0  0  0  0  0  0  0  0  0  0  0
  1  3  1  0  0  0  0
  1  7  1  0  0  0  0
  1  2  2  0  0  0  0
 33 34  1  0  0  0  0
 34 42  1  0  0  0  0
 34 35  2  0  0  0  0
  8  9  1  0  0  0  0
  9 17  1  0  0  0  0
  9 10  2  0  0  0  0
 18 19  1  0  0  0  0
 19 32  1  0  0  0  0
 19 20  2  0  0  0  0
 22 23  1  0  0  0  0
 23 24  1  0  0  0  0
 23 25  2  0  0  0  0
 33 36  1  0  0  0  0
  8 11  1  0  0  0  0
 42 43  1  0  0  0  0
 21 22  1  0  0  0  0
 18 21  1  0  0  0  0
 32 33  1  0  0  0  0
  7  8  1  0  0  0  0
 17 18  1  0  0  0  0
  3  4  1  0  0  0  0
  3  5  1  0  0  0  0
  3  6  1  0  0  0  0
 36 39  1  0  0  0  0
 36 40  1  0  0  0  0
 36 41  1  0  0  0  0
 11 14  1  0  0  0  0
 11 15  1  0  0  0  0
 11 16  1  0  0  0  0
 43 45  1  0  0  0  0
 43 46  1  0  0  0  0
 43 47  1  0  0  0  0
 22 30  1  0  0  0  0
 22 31  1  0  0  0  0
 21 28  1  0  0  0  0
 21 29  1  0  0  0  0
 33 38  1  0  0  0  0
  8 13  1  0  0  0  0
 18 27  1  0  0  0  0
 42 44  1  0  0  0  0
  7 12  1  0  0  0  0
 32 37  1  0  0  0  0
 17 26  1  0  0  0  0
M  CHG  1  24  -1
M  END
$$$$

  -OEChem-02062319033D

 47 46  0     1  0  0  0  0  0999 V2000
    0.5093   -4.7265    3.0306 C   0  0  0  0  0  0  0  0  0  0  0  0
    1.2735   -4.4402    3.9448 O   0  0  0  0  0  0  0  0  0  0  0  0
   -0.4465   -5.8608    3.1982 C   0  0  0  0  0  0  0  0  0  0  0  0
   -0.0219   -6.8213    2.8645 H   0  0  0  0  0  0  0  0  0  0  0  0
   -0.7314   -6.0185    4.2509 H   0  0  0  0  0  0  0  0  0  0  0  0
   -1.3983   -5.7596    2.6527 H   0  0  0  0  0  0  0  0  0  0  0  0
    0.4252   -4.0886    1.8040 N   0  0  0  0  0  0  0  0  0  0  0  0
    1.2532   -2.9707    1.4349 C   0  0  2  0  0  0  0  0  0  0  0  0
    0.3395   -1.8293    1.0083 C   0  0  0  0  0  0  0  0  0  0  0  0
   -0.8136   -2.0027    0.6194 O   0  0  0  0  0  0  0  0  0  0  0  0
    2.2176   -3.3411    0.3189 C   0  0  0  0  0  0  0  0  0  0  0  0
   -0.2574   -4.4279    1.1287 H   0  0  0  0  0  0  0  0  0  0  0  0
    1.8087   -2.6785    2.3327 H   0  0  0  0  0  0  0  0  0  0  0  0
    1.6793   -3.6366   -0.5890 H   0  0  0  0  0  0  0  0  0  0  0  0
    2.8662   -2.4980    0.0589 H   0  0  0  0  0  0  0  0  0  0  0  0
    2.8538   -4.1816    0.6166 H   0  0  0  0  0  0  0  0  0  0  0  0
    0.9758   -0.5952    1.0708 N   0  0  0  0  0  0  0  0  0  0  0  0
    0.2727    0.6324    1.3421 C   0  0  2  0  0  0  0  0  0  0  0  0
   -0.7690    0.8167    0.2437 C   0  0  0  0  0  0  0  0  0  0  0  0
   -1.9386    1.1175    0.4735 O   0  0  0  0  0  0  0  0  0  0  0  0
    1.2192    1.8380    1.3877 C   0  0  0  0  0  0  0  0  0  0  0  0
    2.1906    1.8055    2.5670 C   0  0  0  0  0  0  0  0  0  0  0  0
    3.1818    2.9703    2.6590 C   0  0  0  0  0  0  0  0  0  0  0  0
    3.1639    3.7486    1.6623 O   0  5  0  0  0  0  0  0  0  0  0  0
    3.8812    3.0286    3.7077 O   0  0  0  0  0  0  0  0  0  0  0  0
    1.9863   -0.5524    0.9591 H   0  0  0  0  0  0  0  0  0  0  0  0
   -0.2441    0.4938    2.2979 H   0  0  0  0  0  0  0  0  0  0  0  0
    0.6398    2.7692    1.4176 H   0  0  0  0  0  0  0  0  0  0  0  0
    1.8033    1.8761    0.4584 H   0  0  0  0  0  0  0  0  0  0  0  0
    1.6336    1.7330    3.5087 H   0  0  0  0  0  0  0  0  0  0  0  0
    2.7954    0.8928    2.4917 H   0  0  0  0  0  0  0  0  0  0  0  0
   -0.2488    0.5595   -1.0171 N   0  0  0  0  0  0  0  0  0  0  0  0
   -1.0381    0.6497   -2.2236 C   0  0  2  0  0  0  0  0  0  0  0  0
   -0.3087   -0.1141   -3.3209 C   0  0  0  0  0  0  0  0  0  0  0  0
    0.8993   -0.3397   -3.2919 O   0  0  0  0  0  0  0  0  0  0  0  0
   -1.2662    2.0977   -2.6286 C   0  0  0  0  0  0  0  0  0  0  0  0
    0.7362    0.3310   -1.1131 H   0  0  0  0  0  0  0  0  0  0  0  0
   -1.9956    0.1613   -2.0123 H   0  0  0  0  0  0  0  0  0  0  0  0
   -0.3180    2.6035   -2.8443 H   0  0  0  0  0  0  0  0  0  0  0  0
   -1.8885    2.1650   -3.5271 H   0  0  0  0  0  0  0  0  0  0  0  0
   -1.7642    2.6530   -1.8265 H   0  0  0  0  0  0  0  0  0  0  0  0
   -1.1578   -0.4766   -4.3572 N   0  0  0  0  0  0  0  0  0  0  0  0
   -0.7021   -1.1989   -5.5220 C   0  0  0  0  0  0  0  0  0  0  0  0
   -2.1488   -0.2648   -4.2886 H   0  0  0  0  0  0  0  0  0  0  0  0
   -0.4288   -0.4851   -6.3130 H   0  0  0  0  0  0  0  0  0  0  0  0
    0.1760   -1.8058   -5.2566 H   0  0  0  0  0  0  0  0  0  0  0  0
   -1.5066   -1.8563   -5.8835 H   0  0  0  0  0  0  0  0  0  0  0  0
  1  3  1  0  0  0  0
  1  7  1  0  0  0  0
  1  2  2  0  0  0  0
 33 34  1  0  0  0  0
 34 42  1  0  0  0  0
 34 35  2  0  0  0  0
  8  9  1  0  0  0  0
  9 17  1  0  0  0  0
  9 10  2  0  0  0  0
 18 19  1  0  0  0  0
 19 32  1  0  0  0  0
 19 20  2  0  0  0  0
 22 23  1  0  0  0  0
 23 24  1  0  0  0  0
 23 25  2  0  0  0  0
 33 36  1  0  0  0  0
  8 11  1  0  0  0  0
 42 43  1  0  0  0  0
 21 22  1  0  0  0  0
 18 21  1  0  0  0  0
 32 33  1  0  0  0  0
  7  8  1  0  0  0  0
 17 18  1  0  0  0  0
  3  4  1  0  0  0  0
  3  5  1  0  0  0  0
  3  6  1  0  0  0  0
 36 39  1  0  0  0  0
 36 40  1  0  0  0  0
 36 41  1  0  0  0  0
 11 14  1  0  0  0  0
 11 15  1  0  0  0  0
 11 16  1  0  0  0  0
 43 45  1  0  0  0  0
 43 46  1  0  0  0  0
 43 47  1  0  0  0  0
 22 30  1  0  0  0  0
 22 31  1  0  0  0  0
 21 28  1  0  0  0  0
 21 29  1  0  0  0  0
 33 38  1  0  0  0  0
  8 13  1  0  0  0  0
 18 27  1  0  0  0  0
 42 44  1  0  0  0  0
  7 12  1  0  0  0  0
 32 37  1  0  0  0  0
 17 26  1  0  0  0  0
M  CHG  1  24  -1
M  END
$$$$

  -OEChem-02062319033D

 47 46  0     1  0  0  0  0  0999 V2000
    0.5093   -4.7265    3.0306 C   0  0  0  0  0  0  0  0  0  0  0  0
    1.2735   -4.4402    3.9448 O   0  0  0  0  0  0  0  0  0  0  0  0
   -0.4465   -5.8608    3.1982 C   0  0  0  0  0  0  0  0  0  0  0  0
   -0.0219   -6.8213    2.8645 H   0  0  0  0  0  0  0  0  0  0  0  0
   -0.7314   -6.0185    4.2509 H   0  0  0  0  0  0  0  0  0  0  0  0
   -1.3983   -5.7596    2.6527 H   0  0  0  0  0  0  0  0  0  0  0  0
    0.4252   -4.0886    1.8040 N   0  0  0  0  0  0  0  0  0  0  0  0
    1.2532   -2.9707    1.4349 C   0  0  2  0  0  0  0  0  0  0  0  0
    0.3395   -1.8293    1.0083 C   0  0  0  0  0  0  0  0  0  0  0  0
   -0.8136   -2.0027    0.6194 O   0  0  0  0  0  0  0  0  0  0  0  0
    2.2176   -3.3411    0.3189 C   0  0  0  0  0  0  0  0  0  0  0  0
   -0.2574   -4.4279    1.1287 H   0  0  0  0  0  0  0  0  0  0  0  0
    1.8087   -2.6785    2.3327 H   0  0  0  0  0  0  0  0  0  0  0  0
    1.6793   -3.6366   -0.5890 H   0  0  0  0  0  0  0  0  0  0  0  0
    2.8662   -2.4980    0.0589 H   0  0  0  0  0  0  0  0  0  0  0  0
    2.8538   -4.1816    0.6166 H   0  0  0  0  0  0  0  0  0  0  0  0
    0.9758   -0.5952    1.0708 N   0  0  0  0  0  0  0  0  0  0  0  0
    0.3569    0.5739    1.6411 C   0  0  2  0  0  0  0  0  0  0  0  0
   -0.9096    0.8589    0.8408 C   0  0  0  0  0  0  0  0  0  0  0  0
   -1.9940    1.1008    1.3668 O   0  0  0  0  0  0  0  0  0  0  0  0
    1.2910    1.7896    1.6128 C   0  0  0  0  0  0  0  0  0  0  0  0
    2.5080    1.6439    2.5255 C   0  0  0  0  0  0  0  0  0  0  0  0
    3.4963    2.8148    2.5270 C   0  0  0  0  0  0  0  0  0  0  0  0
    3.2508    3.7038    1.6615 O   0  5  0  0  0  0  0  0  0  0  0  0
    4.4187    2.7678    3.3867 O   0  0  0  0  0  0  0  0  0  0  0  0
    1.9334   -0.5138    0.7366 H   0  0  0  0  0  0  0  0  0  0  0  0
    0.0740    0.3112    2.6662 H   0  0  0  0  0  0  0  0  0  0  0  0
    0.7362    2.6957    1.8861 H   0  0  0  0  0  0  0  0  0  0  0  0
    1.6453    1.9511    0.5859 H   0  0  0  0  0  0  0  0  0  0  0  0
    2.1829    1.4475    3.5542 H   0  0  0  0  0  0  0  0  0  0  0  0
    3.0772    0.7621    2.2048 H   0  0  0  0  0  0  0  0  0  0  0  0
   -0.6946    0.7645   -0.5271 N   0  0  0  0  0  0  0  0  0  0  0  0
   -1.7405    0.9752   -1.5009 C   0  0  2  0  0  0  0  0  0  0  0  0
   -1.2854    0.3641   -2.8196 C   0  0  0  0  0  0  0  0  0  0  0  0
   -0.1038    0.1675   -3.0954 O   0  0  0  0  0  0  0  0  0  0  0  0
   -2.0527    2.4544   -1.6664 C   0  0  0  0  0  0  0  0  0  0  0  0
    0.2413    0.5741   -0.8730 H   0  0  0  0  0  0  0  0  0  0  0  0
   -2.6246    0.4411   -1.1361 H   0  0  0  0  0  0  0  0  0  0  0  0
   -1.1786    3.0060   -2.0313 H   0  0  0  0  0  0  0  0  0  0  0  0
   -2.8652    2.6106   -2.3837 H   0  0  0  0  0  0  0  0  0  0  0  0
   -2.3511    2.8990   -0.7109 H   0  0  0  0  0  0  0  0  0  0  0  0
   -2.3513    0.1039   -3.6696 N   0  0  0  0  0  0  0  0  0  0  0  0
   -2.1780   -0.4651   -4.9857 C   0  0  0  0  0  0  0  0  0  0  0  0
   -3.2993    0.2809   -3.3508 H   0  0  0  0  0  0  0  0  0  0  0  0
   -2.0928    0.3432   -5.7269 H   0  0  0  0  0  0  0  0  0  0  0  0
   -1.2636   -1.0764   -5.0033 H   0  0  0  0  0  0  0  0  0  0  0  0
   -3.0455   -1.0960   -5.2294 H   0  0  0  0  0  0  0  0  0  0  0  0
  1  3  1  0  0  0  0
  1  7  1  0  0  0  0
  1  2  2  0  0  0  0
 33 34  1  0  0  0  0
 34 42  1  0  0  0  0
 34 35  2  0  0  0  0
  8  9  1  0  0  0  0
  9 17  1  0  0  0  0
  9 10  2  0  0  0  0
 18 19  1  0  0  0  0
 19 32  1  0  0  0  0
 19 20  2  0  0  0  0
 22 23  1  0  0  0  0
 23 24  1  0  0  0  0
 23 25  2  0  0  0  0
 33 36  1  0  0  0  0
  8 11  1  0  0  0  0
 42 43  1  0  0  0  0
 21 22  1  0  0  0  0
 18 21  1  0  0  0  0
 32 33  1  0  0  0  0
  7  8  1  0  0  0  0
 17 18  1  0  0  0  0
  3  4  1  0  0  0  0
  3  5  1  0  0  0  0
  3  6  1  0  0  0  0
 36 39  1  0  0  0  0
 36 40  1  0  0  0  0
 36 41  1  0  0  0  0
 11 14  1  0  0  0  0
 11 15  1  0  0  0  0
 11 16  1  0  0  0  0
 43 45  1  0  0  0  0
 43 46  1  0  0  0  0
 43 47  1  0  0  0  0
 22 30  1  0  0  0  0
 22 31  1  0  0  0  0
 21 28  1  0  0  0  0
 21 29  1  0  0  0  0
 33 38  1  0  0  0  0
  8 13  1  0  0  0  0
 18 27  1  0  0  0  0
 42 44  1  0  0  0  0
  7 12  1  0  0  0  0
 32 37  1  0  0  0  0
 17 26  1  0  0  0  0
M  CHG  1  24  -1
M  END
$$$$

  -OEChem-02062319033D

 47 46  0     1  0  0  0  0  0999 V2000
    0.5093   -4.7265    3.0306 C   0  0  0  0  0  0  0  0  0  0  0  0
    1.2735   -4.4402    3.9448 O   0  0  0  0  0  0  0  0  0  0  0  0
   -0.4465   -5.8608    3.1982 C   0  0  0  0  0  0  0  0  0  0  0  0
   -0.0219   -6.8213    2.8645 H   0  0  0  0  0  0  0  0  0  0  0  0
   -0.7314   -6.0185    4.2509 H   0  0  0  0  0  0  0  0  0  0  0  0
   -1.3983   -5.7596    2.6527 H   0  0  0  0  0  0  0  0  0  0  0  0
    0.4252   -4.0886    1.8040 N   0  0  0  0  0  0  0  0  0  0  0  0
    1.2532   -2.9707    1.4349 C   0  0  2  0  0  0  0  0  0  0  0  0
    0.3395   -1.8293    1.0083 C   0  0  0  0  0  0  0  0  0  0  0  0
   -0.8136   -2.0027    0.6194 O   0  0  0  0  0  0  0  0  0  0  0  0
    2.2176   -3.3411    0.3189 C   0  0  0  0  0  0  0  0  0  0  0  0
   -0.2574   -4.4279    1.1287 H   0  0  0  0  0  0  0  0  0  0  0  0
    1.8087   -2.6785    2.3327 H   0  0  0  0  0  0  0  0  0  0  0  0
    1.6793   -3.6366   -0.5890 H   0  0  0  0  0  0  0  0  0  0  0  0
    2.8662   -2.4980    0.0589 H   0  0  0  0  0  0  0  0  0  0  0  0
    2.8538   -4.1816    0.6166 H   0  0  0  0  0  0  0  0  0  0  0  0
    0.9758   -0.5952    1.0708 N   0  0  0  0  0  0  0  0  0  0  0  0
    0.5076    0.4829    1.9036 C   0  0  2  0  0  0  0  0  0  0  0  0
   -0.9086    0.8272    1.4549 C   0  0  0  0  0  0  0  0  0  0  0  0
   -1.8421    0.9782    2.2404 O   0  0  0  0  0  0  0  0  0  0  0  0
    1.4127    1.7169    1.8080 C   0  0  0  0  0  0  0  0  0  0  0  0
    2.8070    1.4965    2.3934 C   0  0  0  0  0  0  0  0  0  0  0  0
    3.7716    2.6840    2.3087 C   0  0  0  0  0  0  0  0  0  0  0  0
    3.3351    3.6616    1.6354 O   0  5  0  0  0  0  0  0  0  0  0  0
    4.8672    2.5601    2.9222 O   0  0  0  0  0  0  0  0  0  0  0  0
    1.8308   -0.4509    0.5383 H   0  0  0  0  0  0  0  0  0  0  0  0
    0.4681    0.0948    2.9272 H   0  0  0  0  0  0  0  0  0  0  0  0
    0.9378    2.5704    2.3077 H   0  0  0  0  0  0  0  0  0  0  0  0
    1.5210    2.0066    0.7542 H   0  0  0  0  0  0  0  0  0  0  0  0
    2.7273    1.1727    3.4380 H   0  0  0  0  0  0  0  0  0  0  0  0
    3.2850    0.6730    1.8475 H   0  0  0  0  0  0  0  0  0  0  0  0
   -1.0149    0.8993    0.0729 N   0  0  0  0  0  0  0  0  0  0  0  0
   -2.2567    1.1959   -0.6029 C   0  0  2  0  0  0  0  0  0  0  0  0
   -2.1192    0.7552   -2.0543 C   0  0  0  0  0  0  0  0  0  0  0  0
   -1.0334    0.6224   -2.6150 O   0  0  0  0  0  0  0  0  0  0  0  0
   -2.5954    2.6758   -0.5140 C   0  0  0  0  0  0  0  0  0  0  0  0
   -0.1844    0.7746   -0.4984 H   0  0  0  0  0  0  0  0  0  0  0  0
   -3.0341    0.6003   -0.1119 H   0  0  0  0  0  0  0  0  0  0  0  0
   -1.8278    3.2885   -1.0006 H   0  0  0  0  0  0  0  0  0  0  0  0
   -3.5510    2.8942   -1.0020 H   0  0  0  0  0  0  0  0  0  0  0  0
   -2.6645    2.9976    0.5307 H   0  0  0  0  0  0  0  0  0  0  0  0
   -3.3529    0.5693   -2.6623 N   0  0  0  0  0  0  0  0  0  0  0  0
   -3.4889    0.1629   -4.0416 C   0  0  0  0  0  0  0  0  0  0  0  0
   -4.2015    0.6834   -2.1160 H   0  0  0  0  0  0  0  0  0  0  0  0
   -3.5750    1.0543   -4.6803 H   0  0  0  0  0  0  0  0  0  0  0  0
   -2.6045   -0.4186   -4.3413 H   0  0  0  0  0  0  0  0  0  0  0  0
   -4.3906   -0.4570   -4.1539 H   0  0  0  0  0  0  0  0  0  0  0  0
  1  3  1  0  0  0  0
  1  7  1  0  0  0  0
  1  2  2  0  0  0  0
 33 34  1  0  0  0  0
 34 42  1  0  0  0  0
 34 35  2  0  0  0  0
  8  9  1  0  0  0  0
  9 17  1  0  0  0  0
  9 10  2  0  0  0  0
 18 19  1  0  0  0  0
 19 32  1  0  0  0  0
 19 20  2  0  0  0  0
 22 23  1  0  0  0  0
 23 24  1  0  0  0  0
 23 25  2  0  0  0  0
 33 36  1  0  0  0  0
  8 11  1  0  0  0  0
 42 43  1  0  0  0  0
 21 22  1  0  0  0  0
 18 21  1  0  0  0  0
 32 33  1  0  0  0  0
  7  8  1  0  0  0  0
 17 18  1  0  0  0  0
  3  4  1  0  0  0  0
  3  5  1  0  0  0  0
  3  6  1  0  0  0  0
 36 39  1  0  0  0  0
 36 40  1  0  0  0  0
 36 41  1  0  0  0  0
 11 14  1  0  0  0  0
 11 15  1  0  0  0  0
 11 16  1  0  0  0  0
 43 45  1  0  0  0  0
 43 46  1  0  0  0  0
 43 47  1  0  0  0  0
 22 30  1  0  0  0  0
 22 31  1  0  0  0  0
 21 28  1  0  0  0  0
 21 29  1  0  0  0  0
 33 38  1  0  0  0  0
  8 13  1  0  0  0  0
 18 27  1  0  0  0  0
 42 44  1  0  0  0  0
  7 12  1  0  0  0  0
 32 37  1  0  0  0  0
 17 26  1  0  0  0  0
M  CHG  1  24  -1
M  END
$$$$

  -OEChem-02062319033D

 47 46  0     1  0  0  0  0  0999 V2000
    0.5093   -4.7265    3.0306 C   0  0  0  0  0  0  0  0  0  0  0  0
    1.2735   -4.4402    3.9448 O   0  0  0  0  0  0  0  0  0  0  0  0
   -0.4465   -5.8608    3.1982 C   0  0  0  0  0  0  0  0  0  0  0  0
   -0.0219   -6.8213    2.8645 H   0  0  0  0  0  0  0  0  0  0  0  0
   -0.7314   -6.0185    4.2509 H   0  0  0  0  0  0  0  0  0  0  0  0
   -1.3983   -5.7596    2.6527 H   0  0  0  0  0  0  0  0  0  0  0  0
    0.4252   -4.0886    1.8040 N   0  0  0  0  0  0  0  0  0  0  0  0
    1.2532   -2.9707    1.4349 C   0  0  2  0  0  0  0  0  0  0  0  0
    0.3395   -1.8293    1.0083 C   0  0  0  0  0  0  0  0  0  0  0  0
   -0.8136   -2.0027    0.6194 O   0  0  0  0  0  0  0  0  0  0  0  0
    2.2176   -3.3411    0.3189 C   0  0  0  0  0  0  0  0  0  0  0  0
   -0.2574   -4.4279    1.1287 H   0  0  0  0  0  0  0  0  0  0  0  0
    1.8087   -2.6785    2.3327 H   0  0  0  0  0  0  0  0  0  0  0  0
    1.6793   -3.6366   -0.5890 H   0  0  0  0  0  0  0  0  0  0  0  0
    2.8662   -2.4980    0.0589 H   0  0  0  0  0  0  0  0  0  0  0  0
    2.8538   -4.1816    0.6166 H   0  0  0  0  0  0  0  0  0  0  0  0
    0.9758   -0.5952    1.0708 N   0  0  0  0  0  0  0  0  0  0  0  0
    0.7145    0.3656    2.1118 C   0  0  2  0  0  0  0  0  0  0  0  0
   -0.7662    0.7239    2.0440 C   0  0  0  0  0  0  0  0  0  0  0  0
   -1.4931    0.7580    3.0348 O   0  0  0  0  0  0  0  0  0  0  0  0
    1.5759    1.6251    1.9599 C   0  0  0  0  0  0  0  0  0  0  0  0
    3.0671    1.3732    2.1796 C   0  0  0  0  0  0  0  0  0  0  0  0
    3.9888    2.5866    2.0191 C   0  0  0  0  0  0  0  0  0  0  0  0
    3.4111    3.6250    1.5858 O   0  5  0  0  0  0  0  0  0  0  0  0
    5.1961    2.4197    2.3459 O   0  0  0  0  0  0  0  0  0  0  0  0
    1.6853   -0.3677    0.3778 H   0  0  0  0  0  0  0  0  0  0  0  0
    0.9112   -0.1406    3.0631 H   0  0  0  0  0  0  0  0  0  0  0  0
    1.2309    2.4017    2.6537 H   0  0  0  0  0  0  0  0  0  0  0  0
    1.4391    2.0389    0.9518 H   0  0  0  0  0  0  0  0  0  0  0  0
    3.2297    0.9274    3.1681 H   0  0  0  0  0  0  0  0  0  0  0  0
    3.4046    0.6318    1.4440 H   0  0  0  0  0  0  0  0  0  0  0  0
   -1.1881    0.9546    0.7420 N   0  0  0  0  0  0  0  0  0  0  0  0
   -2.5516    1.2965    0.4092 C   0  0  2  0  0  0  0  0  0  0  0  0
   -2.7533    1.0325   -1.0771 C   0  0  0  0  0  0  0  0  0  0  0  0
   -1.8262    0.9941   -1.8834 O   0  0  0  0  0  0  0  0  0  0  0  0
   -2.8573    2.7467    0.7501 C   0  0  0  0  0  0  0  0  0  0  0  0
   -0.5119    0.9189   -0.0151 H   0  0  0  0  0  0  0  0  0  0  0  0
   -3.1961    0.6280    0.9903 H   0  0  0  0  0  0  0  0  0  0  0  0
   -2.2212    3.4316    0.1776 H   0  0  0  0  0  0  0  0  0  0  0  0
   -3.8992    2.9963    0.5238 H   0  0  0  0  0  0  0  0  0  0  0  0
   -2.6831    2.9422    1.8137 H   0  0  0  0  0  0  0  0  0  0  0  0
   -4.0943    0.8877   -1.4041 N   0  0  0  0  0  0  0  0  0  0  0  0
   -4.5454    0.6423   -2.7540 C   0  0  0  0  0  0  0  0  0  0  0  0
   -4.7939    0.9154   -0.6682 H   0  0  0  0  0  0  0  0  0  0  0  0
   -4.7745    1.6000   -3.2444 H   0  0  0  0  0  0  0  0  0  0  0  0
   -3.7553    0.1227   -3.3158 H   0  0  0  0  0  0  0  0  0  0  0  0
   -5.4501    0.0171   -2.7301 H   0  0  0  0  0  0  0  0  0  0  0  0
  1  3  1  0  0  0  0
  1  7  1  0  0  0  0
  1  2  2  0  0  0  0
 33 34  1  0  0  0  0
 34 42  1  0  0  0  0
 34 35  2  0  0  0  0
  8  9  1  0  0  0  0
  9 17  1  0  0  0  0
  9 10  2  0  0  0  0
 18 19  1  0  0  0  0
 19 32  1  0  0  0  0
 19 20  2  0  0  0  0
 22 23  1  0  0  0  0
 23 24  1  0  0  0  0
 23 25  2  0  0  0  0
 33 36  1  0  0  0  0
  8 11  1  0  0  0  0
 42 43  1  0  0  0  0
 21 22  1  0  0  0  0
 18 21  1  0  0  0  0
 32 33  1  0  0  0  0
  7  8  1  0  0  0  0
 17 18  1  0  0  0  0
  3  4  1  0  0  0  0
  3  5  1  0  0  0  0
  3  6  1  0  0  0  0
 36 39  1  0  0  0  0
 36 40  1  0  0  0  0
 36 41  1  0  0  0  0
 11 14  1  0  0  0  0
 11 15  1  0  0  0  0
 11 16  1  0  0  0  0
 43 45  1  0  0  0  0
 43 46  1  0  0  0  0
 43 47  1  0  0  0  0
 22 30  1  0  0  0  0
 22 31  1  0  0  0  0
 21 28  1  0  0  0  0
 21 29  1  0  0  0  0
 33 38  1  0  0  0  0
  8 13  1  0  0  0  0
 18 27  1  0  0  0  0
 42 44  1  0  0  0  0
  7 12  1  0  0  0  0
 32 37  1  0  0  0  0
 17 26  1  0  0  0  0
M  CHG  1  24  -1
M  END
$$$$

  -OEChem-02062319033D

 47 46  0     1  0  0  0  0  0999 V2000
    0.5093   -4.7265    3.0306 C   0  0  0  0  0  0  0  0  0  0  0  0
    1.2735   -4.4402    3.9448 O   0  0  0  0  0  0  0  0  0  0  0  0
   -0.4465   -5.8608    3.1982 C   0  0  0  0  0  0  0  0  0  0  0  0
   -0.0219   -6.8213    2.8645 H   0  0  0  0  0  0  0  0  0  0  0  0
   -0.7314   -6.0185    4.2509 H   0  0  0  0  0  0  0  0  0  0  0  0
   -1.3983   -5.7596    2.6527 H   0  0  0  0  0  0  0  0  0  0  0  0
    0.4252   -4.0886    1.8040 N   0  0  0  0  0  0  0  0  0  0  0  0
    1.2532   -2.9707    1.4349 C   0  0  2  0  0  0  0  0  0  0  0  0
    0.3395   -1.8293    1.0083 C   0  0  0  0  0  0  0  0  0  0  0  0
   -0.8136   -2.0027    0.6194 O   0  0  0  0  0  0  0  0  0  0  0  0
    2.2176   -3.3411    0.3189 C   0  0  0  0  0  0  0  0  0  0  0  0
   -0.2574   -4.4279    1.1287 H   0  0  0  0  0  0  0  0  0  0  0  0
    1.8087   -2.6785    2.3327 H   0  0  0  0  0  0  0  0  0  0  0  0
    1.6793   -3.6366   -0.5890 H   0  0  0  0  0  0  0  0  0  0  0  0
    2.8662   -2.4980    0.0589 H   0  0  0  0  0  0  0  0  0  0  0  0
    2.8538   -4.1816    0.6166 H   0  0  0  0  0  0  0  0  0  0  0  0
    0.9758   -0.5952    1.0708 N   0  0  0  0  0  0  0  0  0  0  0  0
    0.9636    0.2301    2.2514 C   0  0  2  0  0  0  0  0  0  0  0  0
   -0.4921    0.5560    2.5682 C   0  0  0  0  0  0  0  0  0  0  0  0
   -0.9709    0.4552    3.6959 O   0  0  0  0  0  0  0  0  0  0  0  0
    1.7696    1.5202    2.0583 C   0  0  0  0  0  0  0  0  0  0  0  0
    3.2707    1.2825    1.8986 C   0  0  0  0  0  0  0  0  0  0  0  0
    4.1332    2.5295    1.6779 C   0  0  0  0  0  0  0  0  0  0  0  0
    3.4735    3.5963    1.5162 O   0  5  0  0  0  0  0  0  0  0  0  0
    5.3830    2.3563    1.6970 O   0  0  0  0  0  0  0  0  0  0  0  0
    1.5070   -0.2701    0.2661 H   0  0  0  0  0  0  0  0  0  0  0  0
    1.3731   -0.3789    3.0646 H   0  0  0  0  0  0  0  0  0  0  0  0
    1.5955    2.2012    2.9006 H   0  0  0  0  0  0  0  0  0  0  0  0
    1.4050    2.0456    1.1655 H   0  0  0  0  0  0  0  0  0  0  0  0
    3.6558    0.7282    2.7629 H   0  0  0  0  0  0  0  0  0  0  0  0
    3.4279    0.6412    1.0220 H   0  0  0  0  0  0  0  0  0  0  0  0
   -1.2022    0.9268    1.4347 N   0  0  0  0  0  0  0  0  0  0  0  0
   -2.6049    1.2704    1.4666 C   0  0  2  0  0  0  0  0  0  0  0  0
   -3.1444    1.1773    0.0454 C   0  0  0  0  0  0  0  0  0  0  0  0
   -2.4283    1.2572   -0.9505 O   0  0  0  0  0  0  0  0  0  0  0  0
   -2.8207    2.6624    2.0398 C   0  0  0  0  0  0  0  0  0  0  0  0
   -0.7188    0.9972    0.5442 H   0  0  0  0  0  0  0  0  0  0  0  0
   -3.0996    0.5222    2.0954 H   0  0  0  0  0  0  0  0  0  0  0  0
   -2.3322    3.4256    1.4230 H   0  0  0  0  0  0  0  0  0  0  0  0
   -3.8861    2.9102    2.0898 H   0  0  0  0  0  0  0  0  0  0  0  0
   -2.4056    2.7363    3.0507 H   0  0  0  0  0  0  0  0  0  0  0  0
   -4.5250    1.0376    0.0194 N   0  0  0  0  0  0  0  0  0  0  0  0
   -5.2757    0.9406   -1.2107 C   0  0  0  0  0  0  0  0  0  0  0  0
   -5.0360    0.9610    0.8938 H   0  0  0  0  0  0  0  0  0  0  0  0
   -5.6096    1.9429   -1.5171 H   0  0  0  0  0  0  0  0  0  0  0  0
   -4.6375    0.5106   -1.9967 H   0  0  0  0  0  0  0  0  0  0  0  0
   -6.1519    0.2940   -1.0553 H   0  0  0  0  0  0  0  0  0  0  0  0
  1  3  1  0  0  0  0
  1  7  1  0  0  0  0
  1  2  2  0  0  0  0
 33 34  1  0  0  0  0
 34 42  1  0  0  0  0
 34 35  2  0  0  0  0
  8  9  1  0  0  0  0
  9 17  1  0  0  0  0
  9 10  2  0  0  0  0
 18 19  1  0  0  0  0
 19 32  1  0  0  0  0
 19 20  2  0  0  0  0
 22 23  1  0  0  0  0
 23 24  1  0  0  0  0
 23 25  2  0  0  0  0
 33 36  1  0  0  0  0
  8 11  1  0  0  0  0
 42 43  1  0  0  0  0
 21 22  1  0  0  0  0
 18 21  1  0  0  0  0
 32 33  1  0  0  0  0
  7  8  1  0  0  0  0
 17 18  1  0  0  0  0
  3  4  1  0  0  0  0
  3  5  1  0  0  0  0
  3  6  1  0  0  0  0
 36 39  1  0  0  0  0
 36 40  1  0  0  0  0
 36 41  1  0  0  0  0
 11 14  1  0  0  0  0
 11 15  1  0  0  0  0
 11 16  1  0  0  0  0
 43 45  1  0  0  0  0
 43 46  1  0  0  0  0
 43 47  1  0  0  0  0
 22 30  1  0  0  0  0
 22 31  1  0  0  0  0
 21 28  1  0  0  0  0
 21 29  1  0  0  0  0
 33 38  1  0  0  0  0
  8 13  1  0  0  0  0
 18 27  1  0  0  0  0
 42 44  1  0  0  0  0
  7 12  1  0  0  0  0
 32 37  1  0  0  0  0
 17 26  1  0  0  0  0
M  CHG  1  24  -1
M  END
$$$$

  -OEChem-02062319033D

 47 46  0     1  0  0  0  0  0999 V2000
    0.5093   -4.7265    3.0306 C   0  0  0  0  0  0  0  0  0  0  0  0
    1.2735   -4.4402    3.9448 O   0  0  0  0  0  0  0  0  0  0  0  0
   -0.4465   -5.8608    3.1982 C   0  0  0  0  0  0  0  0  0  0  0  0
   -0.0219   -6.8213    2.8645 H   0  0  0  0  0  0  0  0  0  0  0  0
   -0.7314   -6.0185    4.2509 H   0  0  0  0  0  0  0  0  0  0  0  0
   -1.3983   -5.7596    2.6527 H   0  0  0  0  0  0  0  0  0  0  0  0
    0.4252   -4.0886    1.8040 N   0  0  0  0  0  0  0  0  0  0  0  0
    1.2532   -2.9707    1.4349 C   0  0  2  0  0  0  0  0  0  0  0  0
    0.3395   -1.8293    1.0083 C   0  0  0  0  0  0  0  0  0  0  0  0
   -0.8136   -2.0027    0.6194 O   0  0  0  0  0  0  0  0  0  0  0  0
    2.2176   -3.3411    0.3189 C   0  0  0  0  0  0  0  0  0  0  0  0
   -0.2574   -4.4279    1.1287 H   0  0  0  0  0  0  0  0  0  0  0  0
    1.8087   -2.6785    2.3327 H   0  0  0  0  0  0  0  0  0  0  0  0
    1.6793   -3.6366   -0.5890 H   0  0  0  0  0  0  0  0  0  0  0  0
    2.8662   -2.4980    0.0589 H   0  0  0  0  0  0  0  0  0  0  0  0
    2.8538   -4.1816    0.6166 H   0  0  0  0  0  0  0  0  0  0  0  0
    0.9758   -0.5952    1.0708 N   0  0  0  0  0  0  0  0  0  0  0  0
    1.2379    0.0856    2.3130 C   0  0  2  0  0  0  0  0  0  0  0  0
   -0.1049    0.3349    2.9915 C   0  0  0  0  0  0  0  0  0  0  0  0
   -0.3111    0.0905    4.1785 O   0  0  0  0  0  0  0  0  0  0  0  0
    1.9805    1.4096    2.0964 C   0  0  0  0  0  0  0  0  0  0  0  0
    3.4038    1.2305    1.5698 C   0  0  0  0  0  0  0  0  0  0  0  0
    4.1950    2.5164    1.3084 C   0  0  0  0  0  0  0  0  0  0  0  0
    3.5181    3.5777    1.4312 O   0  5  0  0  0  0  0  0  0  0  0  0
    5.4151    2.3741    1.0197 O   0  0  0  0  0  0  0  0  0  0  0  0
    1.3079   -0.1646    0.2108 H   0  0  0  0  0  0  0  0  0  0  0  0
    1.8225   -0.6038    2.9317 H   0  0  0  0  0  0  0  0  0  0  0  0
    2.0067    1.9826    3.0316 H   0  0  0  0  0  0  0  0  0  0  0  0
    1.4210    2.0264    1.3804 H   0  0  0  0  0  0  0  0  0  0  0  0
    3.9766    0.5889    2.2500 H   0  0  0  0  0  0  0  0  0  0  0  0
    3.3533    0.7006    0.6100 H   0  0  0  0  0  0  0  0  0  0  0  0
   -1.0563    0.8176    2.1038 N   0  0  0  0  0  0  0  0  0  0  0  0
   -2.4131    1.1193    2.4971 C   0  0  2  0  0  0  0  0  0  0  0  0
   -3.2659    1.1795    1.2367 C   0  0  0  0  0  0  0  0  0  0  0  0
   -2.7984    1.3938    0.1202 O   0  0  0  0  0  0  0  0  0  0  0  0
   -2.4879    2.4286    3.2670 C   0  0  0  0  0  0  0  0  0  0  0  0
   -0.7911    1.0042    1.1412 H   0  0  0  0  0  0  0  0  0  0  0  0
   -2.7512    0.2902    3.1282 H   0  0  0  0  0  0  0  0  0  0  0  0
   -2.1531    3.2710    2.6508 H   0  0  0  0  0  0  0  0  0  0  0  0
   -3.5126    2.6415    3.5891 H   0  0  0  0  0  0  0  0  0  0  0  0
   -1.8508    2.3942    4.1574 H   0  0  0  0  0  0  0  0  0  0  0  0
   -4.6156    1.0087    1.5111 N   0  0  0  0  0  0  0  0  0  0  0  0
   -5.6299    1.0373    0.4832 C   0  0  0  0  0  0  0  0  0  0  0  0
   -4.9115    0.8172    2.4637 H   0  0  0  0  0  0  0  0  0  0  0  0
   -6.0232    2.0597    0.3839 H   0  0  0  0  0  0  0  0  0  0  0  0
   -5.1909    0.7188   -0.4738 H   0  0  0  0  0  0  0  0  0  0  0  0
   -6.4481    0.3548    0.7566 H   0  0  0  0  0  0  0  0  0  0  0  0
  1  3  1  0  0  0  0
  1  7  1  0  0  0  0
  1  2  2  0  0  0  0
 33 34  1  0  0  0  0
 34 42  1  0  0  0  0
 34 35  2  0  0  0  0
  8  9  1  0  0  0  0
  9 17  1  0  0  0  0
  9 10  2  0  0  0  0
 18 19  1  0  0  0  0
 19 32  1  0  0  0  0
 19 20  2  0  0  0  0
 22 23  1  0  0  0  0
 23 24  1  0  0  0  0
 23 25  2  0  0  0  0
 33 36  1  0  0  0  0
  8 11  1  0  0  0  0
 42 43  1  0  0  0  0
 21 22  1  0  0  0  0
 18 21  1  0  0  0  0
 32 33  1  0  0  0  0
  7  8  1  0  0  0  0
 17 18  1  0  0  0  0
  3  4  1  0  0  0  0
  3  5  1  0  0  0  0
  3  6  1  0  0  0  0
 36 39  1  0  0  0  0
 36 40  1  0  0  0  0
 36 41  1  0  0  0  0
 11 14  1  0  0  0  0
 11 15  1  0  0  0  0
 11 16  1  0  0  0  0
 43 45  1  0  0  0  0
 43 46  1  0  0  0  0
 43 47  1  0  0  0  0
 22 30  1  0  0  0  0
 22 31  1  0  0  0  0
 21 28  1  0  0  0  0
 21 29  1  0  0  0  0
 33 38  1  0  0  0  0
  8 13  1  0  0  0  0
 18 27  1  0  0  0  0
 42 44  1  0  0  0  0
  7 12  1  0  0  0  0
 32 37  1  0  0  0  0
 17 26  1  0  0  0  0
M  CHG  1  24  -1
M  END
$$$$

  -OEChem-02062319033D

 47 46  0     1  0  0  0  0  0999 V2000
    0.5093   -4.7265    3.0306 C   0  0  0  0  0  0  0  0  0  0  0  0
    1.2735   -4.4402    3.9448 O   0  0  0  0  0  0  0  0  0  0  0  0
   -0.4465   -5.8608    3.1982 C   0  0  0  0  0  0  0  0  0  0  0  0
   -0.0219   -6.8213    2.8645 H   0  0  0  0  0  0  0  0  0  0  0  0
   -0.7314   -6.0185    4.2509 H   0  0  0  0  0  0  0  0  0  0  0  0
   -1.3983   -5.7596    2.6527 H   0  0  0  0  0  0  0  0  0  0  0  0
    0.4252   -4.0886    1.8040 N   0  0  0  0  0  0  0  0  0  0  0  0
    1.2532   -2.9707    1.4349 C   0  0  2  0  0  0  0  0  0  0  0  0
    0.3395   -1.8293    1.0083 C   0  0  0  0  0  0  0  0  0  0  0  0
   -0.8136   -2.0027    0.6194 O   0  0  0  0  0  0  0  0  0  0  0  0
    2.2176   -3.3411    0.3189 C   0  0  0  0  0  0  0  0  0  0  0  0
   -0.2574   -4.4279    1.1287 H   0  0  0  0  0  0  0  0  0  0  0  0
    1.8087   -2.6785    2.3327 H   0  0  0  0  0  0  0  0  0  0  0  0
    1.6793   -3.6366   -0.5890 H   0  0  0  0  0  0  0  0  0  0  0  0
    2.8662   -2.4980    0.0589 H   0  0  0  0  0  0  0  0  0  0  0  0
    2.8538   -4.1816    0.6166 H   0  0  0  0  0  0  0  0  0  0  0  0
    0.9758   -0.5952    1.0708 N   0  0  0  0  0  0  0  0  0  0  0  0
    1.5187   -0.0581    2.2923 C   0  0  2  0  0  0  0  0  0  0  0  0
    0.3690    0.0757    3.2853 C   0  0  0  0  0  0  0  0  0  0  0  0
    0.4414   -0.3112    4.4499 O   0  0  0  0  0  0  0  0  0  0  0  0
    2.1942    1.3006    2.0716 C   0  0  0  0  0  0  0  0  0  0  0  0
    3.4574    1.2208    1.2154 C   0  0  0  0  0  0  0  0  0  0  0  0
    4.1699    2.5482    0.9357 C   0  0  0  0  0  0  0  0  0  0  0  0
    3.5418    3.5702    1.3366 O   0  5  0  0  0  0  0  0  0  0  0  0
    5.2903    2.4719    0.3603 O   0  0  0  0  0  0  0  0  0  0  0  0
    1.1016   -0.0585    0.2155 H   0  0  0  0  0  0  0  0  0  0  0  0
    2.2286   -0.8001    2.6735 H   0  0  0  0  0  0  0  0  0  0  0  0
    2.4366    1.7606    3.0377 H   0  0  0  0  0  0  0  0  0  0  0  0
    1.4861    1.9826    1.5821 H   0  0  0  0  0  0  0  0  0  0  0  0
    4.1701    0.5187    1.6643 H   0  0  0  0  0  0  0  0  0  0  0  0
    3.1859    0.8058    0.2363 H   0  0  0  0  0  0  0  0  0  0  0  0
   -0.7604    0.6347    2.7035 N   0  0  0  0  0  0  0  0  0  0  0  0
   -1.9893    0.8534    3.4306 C   0  0  2  0  0  0  0  0  0  0  0  0
   -3.1095    1.0391    2.4156 C   0  0  0  0  0  0  0  0  0  0  0  0
   -2.9116    1.3945    1.2556 O   0  0  0  0  0  0  0  0  0  0  0  0
   -1.8818    2.0613    4.3483 C   0  0  0  0  0  0  0  0  0  0  0  0
   -0.7238    0.9394    1.7353 H   0  0  0  0  0  0  0  0  0  0  0  0
   -2.1746   -0.0522    4.0183 H   0  0  0  0  0  0  0  0  0  0  0  0
   -1.6961    2.9783    3.7773 H   0  0  0  0  0  0  0  0  0  0  0  0
   -2.8041    2.2088    4.9198 H   0  0  0  0  0  0  0  0  0  0  0  0
   -1.0566    1.9390    5.0583 H   0  0  0  0  0  0  0  0  0  0  0  0
   -4.3600    0.8029    2.9694 N   0  0  0  0  0  0  0  0  0  0  0  0
   -5.5838    0.9259    2.2123 C   0  0  0  0  0  0  0  0  0  0  0  0
   -4.4288    0.4937    3.9345 H   0  0  0  0  0  0  0  0  0  0  0  0
   -5.9872    1.9426    2.3289 H   0  0  0  0  0  0  0  0  0  0  0  0
   -5.3780    0.7329    1.1491 H   0  0  0  0  0  0  0  0  0  0  0  0
   -6.3185    0.1954    2.5820 H   0  0  0  0  0  0  0  0  0  0  0  0
  1  3  1  0  0  0  0
  1  7  1  0  0  0  0
  1  2  2  0  0  0  0
 33 34  1  0  0  0  0
 34 42  1  0  0  0  0
 34 35  2  0  0  0  0
  8  9  1  0  0  0  0
  9 17  1  0  0  0  0
  9 10  2  0  0  0  0
 18 19  1  0  0  0  0
 19 32  1  0  0  0  0
 19 20  2  0  0  0  0
 22 23  1  0  0  0  0
 23 24  1  0  0  0  0
 23 25  2  0  0  0  0
 33 36  1  0  0  0  0
  8 11  1  0  0  0  0
 42 43  1  0  0  0  0
 21 22  1  0  0  0  0
 18 21  1  0  0  0  0
 32 33  1  0  0  0  0
  7  8  1  0  0  0  0
 17 18  1  0  0  0  0
  3  4  1  0  0  0  0
  3  5  1  0  0  0  0
  3  6  1  0  0  0  0
 36 39  1  0  0  0  0
 36 40  1  0  0  0  0
 36 41  1  0  0  0  0
 11 14  1  0  0  0  0
 11 15  1  0  0  0  0
 11 16  1  0  0  0  0
 43 45  1  0  0  0  0
 43 46  1  0  0  0  0
 43 47  1  0  0  0  0
 22 30  1  0  0  0  0
 22 31  1  0  0  0  0
 21 28  1  0  0  0  0
 21 29  1  0  0  0  0
 33 38  1  0  0  0  0
  8 13  1  0  0  0  0
 18 27  1  0  0  0  0
 42 44  1  0  0  0  0
  7 12  1  0  0  0  0
 32 37  1  0  0  0  0
 17 26  1  0  0  0  0
M  CHG  1  24  -1
M  END
$$$$

  -OEChem-02062319033D

 47 46  0     1  0  0  0  0  0999 V2000
    0.5093   -4.7265    3.0306 C   0  0  0  0  0  0  0  0  0  0  0  0
    1.2735   -4.4402    3.9448 O   0  0  0  0  0  0  0  0  0  0  0  0
   -0.4465   -5.8608    3.1982 C   0  0  0  0  0  0  0  0  0  0  0  0
   -0.0219   -6.8213    2.8645 H   0  0  0  0  0  0  0  0  0  0  0  0
   -0.7314   -6.0185    4.2509 H   0  0  0  0  0  0  0  0  0  0  0  0
   -1.3983   -5.7596    2.6527 H   0  0  0  0  0  0  0  0  0  0  0  0
    0.4252   -4.0886    1.8040 N   0  0  0  0  0  0  0  0  0  0  0  0
    1.2532   -2.9707    1.4349 C   0  0  2  0  0  0  0  0  0  0  0  0
    0.3395   -1.8293    1.0083 C   0  0  0  0  0  0  0  0  0  0  0  0
   -0.8136   -2.0027    0.6194 O   0  0  0  0  0  0  0  0  0  0  0  0
    2.2176   -3.3411    0.3189 C   0  0  0  0  0  0  0  0  0  0  0  0
   -0.2574   -4.4279    1.1287 H   0  0  0  0  0  0  0  0  0  0  0  0
    1.8087   -2.6785    2.3327 H   0  0  0  0  0  0  0  0  0  0  0  0
    1.6793   -3.6366   -0.5890 H   0  0  0  0  0  0  0  0  0  0  0  0
    2.8662   -2.4980    0.0589 H   0  0  0  0  0  0  0  0  0  0  0  0
    2.8538   -4.1816    0.6166 H   0  0  0  0  0  0  0  0  0  0  0  0
    0.9758   -0.5952    1.0708 N   0  0  0  0  0  0  0  0  0  0  0  0
    1.7868   -0.1912    2.1907 C   0  0  2  0  0  0  0  0  0  0  0  0
    0.8973   -0.2040    3.4294 C   0  0  0  0  0  0  0  0  0  0  0  0
    1.2353   -0.7227    4.4915 O   0  0  0  0  0  0  0  0  0  0  0  0
    2.3963    1.2008    1.9857 C   0  0  0  0  0  0  0  0  0  0  0  0
    3.4279    1.2541    0.8595 C   0  0  0  0  0  0  0  0  0  0  0  0
    4.0596    2.6229    0.5852 C   0  0  0  0  0  0  0  0  0  0  0  0
    3.5431    3.5745    1.2389 O   0  5  0  0  0  0  0  0  0  0  0  0
    5.0170    2.6430   -0.2364 O   0  0  0  0  0  0  0  0  0  0  0  0
    0.9022    0.0410    0.2801 H   0  0  0  0  0  0  0  0  0  0  0  0
    2.5639   -0.9544    2.3074 H   0  0  0  0  0  0  0  0  0  0  0  0
    2.8558    1.5505    2.9185 H   0  0  0  0  0  0  0  0  0  0  0  0
    1.5959    1.9172    1.7568 H   0  0  0  0  0  0  0  0  0  0  0  0
    4.2234    0.5227    1.0458 H   0  0  0  0  0  0  0  0  0  0  0  0
    2.9371    0.9498   -0.0737 H   0  0  0  0  0  0  0  0  0  0  0  0
   -0.3346    0.3903    3.1932 N   0  0  0  0  0  0  0  0  0  0  0  0
   -1.3624    0.4910    4.2033 C   0  0  2  0  0  0  0  0  0  0  0  0
   -2.6859    0.7656    3.5017 C   0  0  0  0  0  0  0  0  0  0  0  0
   -2.7599    1.2594    2.3784 O   0  0  0  0  0  0  0  0  0  0  0  0
   -1.0435    1.5853    5.2100 C   0  0  0  0  0  0  0  0  0  0  0  0
   -0.5215    0.8071    2.2860 H   0  0  0  0  0  0  0  0  0  0  0  0
   -1.4092   -0.4817    4.7049 H   0  0  0  0  0  0  0  0  0  0  0  0
   -0.9924    2.5674    4.7257 H   0  0  0  0  0  0  0  0  0  0  0  0
   -1.8089    1.6413    5.9910 H   0  0  0  0  0  0  0  0  0  0  0  0
   -0.0772    1.4019    5.6921 H   0  0  0  0  0  0  0  0  0  0  0  0
   -3.7756    0.4344    4.2949 N   0  0  0  0  0  0  0  0  0  0  0  0
   -5.1407    0.6139    3.8586 C   0  0  0  0  0  0  0  0  0  0  0  0
   -3.6207    0.0126    5.2058 H   0  0  0  0  0  0  0  0  0  0  0  0
   -5.5041    1.5993    4.1856 H   0  0  0  0  0  0  0  0  0  0  0  0
   -5.1859    0.5521    2.7613 H   0  0  0  0  0  0  0  0  0  0  0  0
   -5.7719   -0.1733    4.2965 H   0  0  0  0  0  0  0  0  0  0  0  0
  1  3  1  0  0  0  0
  1  7  1  0  0  0  0
  1  2  2  0  0  0  0
 33 34  1  0  0  0  0
 34 42  1  0  0  0  0
 34 35  2  0  0  0  0
  8  9  1  0  0  0  0
  9 17  1  0  0  0  0
  9 10  2  0  0  0  0
 18 19  1  0  0  0  0
 19 32  1  0  0  0  0
 19 20  2  0  0  0  0
 22 23  1  0  0  0  0
 23 24  1  0  0  0  0
 23 25  2  0  0  0  0
 33 36  1  0  0  0  0
  8 11  1  0  0  0  0
 42 43  1  0  0  0  0
 21 22  1  0  0  0  0
 18 21  1  0  0  0  0
 32 33  1  0  0  0  0
  7  8  1  0  0  0  0
 17 18  1  0  0  0  0
  3  4  1  0  0  0  0
  3  5  1  0  0  0  0
  3  6  1  0  0  0  0
 36 39  1  0  0  0  0
 36 40  1  0  0  0  0
 36 41  1  0  0  0  0
 11 14  1  0  0  0  0
 11 15  1  0  0  0  0
 11 16  1  0  0  0  0
 43 45  1  0  0  0  0
 43 46  1  0  0  0  0
 43 47  1  0  0  0  0
 22 30  1  0  0  0  0
 22 31  1  0  0  0  0
 21 28  1  0  0  0  0
 21 29  1  0  0  0  0
 33 38  1  0  0  0  0
  8 13  1  0  0  0  0
 18 27  1  0  0  0  0
 42 44  1  0  0  0  0
  7 12  1  0  0  0  0
 32 37  1  0  0  0  0
 17 26  1  0  0  0  0
M  CHG  1  24  -1
M  END
$$$$

  -OEChem-02062319033D

 47 46  0     1  0  0  0  0  0999 V2000
    0.5093   -4.7265    3.0306 C   0  0  0  0  0  0  0  0  0  0  0  0
    1.2735   -4.4402    3.9448 O   0  0  0  0  0  0  0  0  0  0  0  0
   -0.4465   -5.8608    3.1982 C   0  0  0  0  0  0  0  0  0  0  0  0
   -0.0219   -6.8213    2.8645 H   0  0  0  0  0  0  0  0  0  0  0  0
   -0.7314   -6.0185    4.2509 H   0  0  0  0  0  0  0  0  0  0  0  0
   -1.3983   -5.7596    2.6527 H   0  0  0  0  0  0  0  0  0  0  0  0
    0.4252   -4.0886    1.8040 N   0  0  0  0  0  0  0  0  0  0  0  0
    1.2532   -2.9707    1.4349 C   0  0  2  0  0  0  0  0  0  0  0  0
    0.3395   -1.8293    1.0083 C   0  0  0  0  0  0  0  0  0  0  0  0
   -0.8136   -2.0027    0.6194 O   0  0  0  0  0  0  0  0  0  0  0  0
    2.2176   -3.3411    0.3189 C   0  0  0  0  0  0  0  0  0  0  0  0
   -0.2574   -4.4279    1.1287 H   0  0  0  0  0  0  0  0  0  0  0  0
    1.8087   -2.6785    2.3327 H   0  0  0  0  0  0  0  0  0  0  0  0
    1.6793   -3.6366   -0.5890 H   0  0  0  0  0  0  0  0  0  0  0  0
    2.8662   -2.4980    0.0589 H   0  0  0  0  0  0  0  0  0  0  0  0
    2.8538   -4.1816    0.6166 H   0  0  0  0  0  0  0  0  0  0  0  0
    0.9758   -0.5952    1.0708 N   0  0  0  0  0  0  0  0  0  0  0  0
    2.0240   -0.3046    2.0153 C   0  0  2  0  0  0  0  0  0  0  0  0
    1.4439   -0.4851    3.4141 C   0  0  0  0  0  0  0  0  0  0  0  0
    2.0166   -1.1158    4.3004 O   0  0  0  0  0  0  0  0  0  0  0  0
    2.5728    1.1169    1.8444 C   0  0  0  0  0  0  0  0  0  0  0  0
    3.3172    1.3280    0.5266 C   0  0  0  0  0  0  0  0  0  0  0  0
    3.8717    2.7352    0.2809 C   0  0  0  0  0  0  0  0  0  0  0  0
    3.5219    3.5902    1.1447 O   0  5  0  0  0  0  0  0  0  0  0  0
    4.6140    2.8759   -0.7297 O   0  0  0  0  0  0  0  0  0  0  0  0
    0.7234    0.1271    0.4001 H   0  0  0  0  0  0  0  0  0  0  0  0
    2.8053   -1.0561    1.8585 H   0  0  0  0  0  0  0  0  0  0  0  0
    3.2358    1.3666    2.6821 H   0  0  0  0  0  0  0  0  0  0  0  0
    1.7428    1.8345    1.8925 H   0  0  0  0  0  0  0  0  0  0  0  0
    4.1326    0.6004    0.4366 H   0  0  0  0  0  0  0  0  0  0  0  0
    2.6238    1.1228   -0.2990 H   0  0  0  0  0  0  0  0  0  0  0  0
    0.1921    0.1012    3.5394 N   0  0  0  0  0  0  0  0  0  0  0  0
   -0.5749    0.0566    4.7626 C   0  0  2  0  0  0  0  0  0  0  0  0
   -2.0240    0.3777    4.4211 C   0  0  0  0  0  0  0  0  0  0  0  0
   -2.3538    0.9976    3.4121 O   0  0  0  0  0  0  0  0  0  0  0  0
   -0.0302    1.0333    5.7932 C   0  0  0  0  0  0  0  0  0  0  0  0
   -0.1980    0.6165    2.7558 H   0  0  0  0  0  0  0  0  0  0  0  0
   -0.5070   -0.9690    5.1414 H   0  0  0  0  0  0  0  0  0  0  0  0
   -0.0900    2.0663    5.4314 H   0  0  0  0  0  0  0  0  0  0  0  0
   -0.5949    0.9779    6.7297 H   0  0  0  0  0  0  0  0  0  0  0  0
    1.0208    0.8194    6.0155 H   0  0  0  0  0  0  0  0  0  0  0  0
   -2.9022   -0.0718    5.3972 N   0  0  0  0  0  0  0  0  0  0  0  0
   -4.3307    0.1227    5.3101 C   0  0  0  0  0  0  0  0  0  0  0  0
   -2.5424   -0.5933    6.1912 H   0  0  0  0  0  0  0  0  0  0  0  0
   -4.6067    1.0534    5.8273 H   0  0  0  0  0  0  0  0  0  0  0  0
   -4.6278    0.1887    4.2530 H   0  0  0  0  0  0  0  0  0  0  0  0
   -4.8457   -0.7263    5.7834 H   0  0  0  0  0  0  0  0  0  0  0  0
  1  3  1  0  0  0  0
  1  7  1  0  0  0  0
  1  2  2  0  0  0  0
 33 34  1  0  0  0  0
 34 42  1  0  0  0  0
 34 35  2  0  0  0  0
  8  9  1  0  0  0  0
  9 17  1  0  0  0  0
  9 10  2  0  0  0  0
 18 19  1  0  0  0  0
 19 32  1  0  0  0  0
 19 20  2  0  0  0  0
 22 23  1  0  0  0  0
 23 24  1  0  0  0  0
 23 25  2  0  0  0  0
 33 36  1  0  0  0  0
  8 11  1  0  0  0  0
 42 43  1  0  0  0  0
 21 22  1  0  0  0  0
 18 21  1  0  0  0  0
 32 33  1  0  0  0  0
  7  8  1  0  0  0  0
 17 18  1  0  0  0  0
  3  4  1  0  0  0  0
  3  5  1  0  0  0  0
  3  6  1  0  0  0  0
 36 39  1  0  0  0  0
 36 40  1  0  0  0  0
 36 41  1  0  0  0  0
 11 14  1  0  0  0  0
 11 15  1  0  0  0  0
 11 16  1  0  0  0  0
 43 45  1  0  0  0  0
 43 46  1  0  0  0  0
 43 47  1  0  0  0  0
 22 30  1  0  0  0  0
 22 31  1  0  0  0  0
 21 28  1  0  0  0  0
 21 29  1  0  0  0  0
 33 38  1  0  0  0  0
  8 13  1  0  0  0  0
 18 27  1  0  0  0  0
 42 44  1  0  0  0  0
  7 12  1  0  0  0  0
 32 37  1  0  0  0  0
 17 26  1  0  0  0  0
M  CHG  1  24  -1
M  END
$$$$

  -OEChem-02062319033D

 47 46  0     1  0  0  0  0  0999 V2000
    0.5093   -4.7265    3.0306 C   0  0  0  0  0  0  0  0  0  0  0  0
    1.2735   -4.4402    3.9448 O   0  0  0  0  0  0  0  0  0  0  0  0
   -0.4465   -5.8608    3.1982 C   0  0  0  0  0  0  0  0  0  0  0  0
   -0.0219   -6.8213    2.8645 H   0  0  0  0  0  0  0  0  0  0  0  0
   -0.7314   -6.0185    4.2509 H   0  0  0  0  0  0  0  0  0  0  0  0
   -1.3983   -5.7596    2.6527 H   0  0  0  0  0  0  0  0  0  0  0  0
    0.4252   -4.0886    1.8040 N   0  0  0  0  0  0  0  0  0  0  0  0
    1.2532   -2.9707    1.4349 C   0  0  2  0  0  0  0  0  0  0  0  0
    0.3395   -1.8293    1.0083 C   0  0  0  0  0  0  0  0  0  0  0  0
   -0.8136   -2.0027    0.6194 O   0  0  0  0  0  0  0  0  0  0  0  0
    2.2176   -3.3411    0.3189 C   0  0  0  0  0  0  0  0  0  0  0  0
   -0.2574   -4.4279    1.1287 H   0  0  0  0  0  0  0  0  0  0  0  0
    1.8087   -2.6785    2.3327 H   0  0  0  0  0  0  0  0  0  0  0  0
    1.6793   -3.6366   -0.5890 H   0  0  0  0  0  0  0  0  0  0  0  0
    2.8662   -2.4980    0.0589 H   0  0  0  0  0  0  0  0  0  0  0  0
    2.8538   -4.1816    0.6166 H   0  0  0  0  0  0  0  0  0  0  0  0
    0.9758   -0.5952    1.0708 N   0  0  0  0  0  0  0  0  0  0  0  0
    2.2141   -0.3906    1.7779 C   0  0  2  0  0  0  0  0  0  0  0  0
    1.9717   -0.7484    3.2404 C   0  0  0  0  0  0  0  0  0  0  0  0
    2.7318   -1.4637    3.8898 O   0  0  0  0  0  0  0  0  0  0  0  0
    2.7119    1.0547    1.6574 C   0  0  0  0  0  0  0  0  0  0  0  0
    3.1329    1.4376    0.2392 C   0  0  0  0  0  0  0  0  0  0  0  0
    3.6189    2.8775    0.0435 C   0  0  0  0  0  0  0  0  0  0  0  0
    3.4795    3.6163    1.0605 O   0  5  0  0  0  0  0  0  0  0  0  0
    4.1085    3.1545   -1.0860 O   0  0  0  0  0  0  0  0  0  0  0  0
    0.5771    0.1940    0.5674 H   0  0  0  0  0  0  0  0  0  0  0  0
    2.9366   -1.0984    1.3573 H   0  0  0  0  0  0  0  0  0  0  0  0
    3.5506    1.2214    2.3447 H   0  0  0  0  0  0  0  0  0  0  0  0
    1.9169    1.7403    1.9800 H   0  0  0  0  0  0  0  0  0  0  0  0
    3.9040    0.7465   -0.1218 H   0  0  0  0  0  0  0  0  0  0  0  0
    2.2675    1.3129   -0.4241 H   0  0  0  0  0  0  0  0  0  0  0  0
    0.7838   -0.2130    3.7184 N   0  0  0  0  0  0  0  0  0  0  0  0
    0.3193   -0.4200    5.0705 C   0  0  2  0  0  0  0  0  0  0  0  0
   -1.1688   -0.0982    5.1110 C   0  0  0  0  0  0  0  0  0  0  0  0
   -1.7210    0.6270    4.2862 O   0  0  0  0  0  0  0  0  0  0  0  0
    1.0891    0.4428    6.0583 C   0  0  0  0  0  0  0  0  0  0  0  0
    0.2247    0.3805    3.1127 H   0  0  0  0  0  0  0  0  0  0  0  0
    0.4704   -1.4809    5.2979 H   0  0  0  0  0  0  0  0  0  0  0  0
    0.9498    1.5092    5.8463 H   0  0  0  0  0  0  0  0  0  0  0  0
    0.7553    0.2637    7.0857 H   0  0  0  0  0  0  0  0  0  0  0  0
    2.1625    0.2312    6.0066 H   0  0  0  0  0  0  0  0  0  0  0  0
   -1.7993   -0.6812    6.2013 N   0  0  0  0  0  0  0  0  0  0  0  0
   -3.2090   -0.5144    6.4677 C   0  0  0  0  0  0  0  0  0  0  0  0
   -1.2674   -1.2827    6.8234 H   0  0  0  0  0  0  0  0  0  0  0  0
   -3.3564    0.3420    7.1421 H   0  0  0  0  0  0  0  0  0  0  0  0
   -3.7416   -0.3326    5.5226 H   0  0  0  0  0  0  0  0  0  0  0  0
   -3.6029   -1.4258    6.9412 H   0  0  0  0  0  0  0  0  0  0  0  0
  1  3  1  0  0  0  0
  1  7  1  0  0  0  0
  1  2  2  0  0  0  0
 33 34  1  0  0  0  0
 34 42  1  0  0  0  0
 34 35  2  0  0  0  0
  8  9  1  0  0  0  0
  9 17  1  0  0  0  0
  9 10  2  0  0  0  0
 18 19  1  0  0  0  0
 19 32  1  0  0  0  0
 19 20  2  0  0  0  0
 22 23  1  0  0  0  0
 23 24  1  0  0  0  0
 23 25  2  0  0  0  0
 33 36  1  0  0  0  0
  8 11  1  0  0  0  0
 42 43  1  0  0  0  0
 21 22  1  0  0  0  0
 18 21  1  0  0  0  0
 32 33  1  0  0  0  0
  7  8  1  0  0  0  0
 17 18  1  0  0  0  0
  3  4  1  0  0  0  0
  3  5  1  0  0  0  0
  3  6  1  0  0  0  0
 36 39  1  0  0  0  0
 36 40  1  0  0  0  0
 36 41  1  0  0  0  0
 11 14  1  0  0  0  0
 11 15  1  0  0  0  0
 11 16  1  0  0  0  0
 43 45  1  0  0  0  0
 43 46  1  0  0  0  0
 43 47  1  0  0  0  0
 22 30  1  0  0  0  0
 22 31  1  0  0  0  0
 21 28  1  0  0  0  0
 21 29  1  0  0  0  0
 33 38  1  0  0  0  0
  8 13  1  0  0  0  0
 18 27  1  0  0  0  0
 42 44  1  0  0  0  0
  7 12  1  0  0  0  0
 32 37  1  0  0  0  0
 17 26  1  0  0  0  0
M  CHG  1  24  -1
M  END
$$$$

  -OEChem-02062319033D

 47 46  0     1  0  0  0  0  0999 V2000
    0.5093   -4.7265    3.0306 C   0  0  0  0  0  0  0  0  0  0  0  0
    1.2735   -4.4402    3.9448 O   0  0  0  0  0  0  0  0  0  0  0  0
   -0.4465   -5.8608    3.1982 C   0  0  0  0  0  0  0  0  0  0  0  0
   -0.0219   -6.8213    2.8645 H   0  0  0  0  0  0  0  0  0  0  0  0
   -0.7314   -6.0185    4.2509 H   0  0  0  0  0  0  0  0  0  0  0  0
   -1.3983   -5.7596    2.6527 H   0  0  0  0  0  0  0  0  0  0  0  0
    0.4252   -4.0886    1.8040 N   0  0  0  0  0  0  0  0  0  0  0  0
    1.2532   -2.9707    1.4349 C   0  0  2  0  0  0  0  0  0  0  0  0
    0.3395   -1.8293    1.0083 C   0  0  0  0  0  0  0  0  0  0  0  0
   -0.8136   -2.0027    0.6194 O   0  0  0  0  0  0  0  0  0  0  0  0
    2.2176   -3.3411    0.3189 C   0  0  0  0  0  0  0  0  0  0  0  0
   -0.2574   -4.4279    1.1287 H   0  0  0  0  0  0  0  0  0  0  0  0
    1.8087   -2.6785    2.3327 H   0  0  0  0  0  0  0  0  0  0  0  0
    1.6793   -3.6366   -0.5890 H   0  0  0  0  0  0  0  0  0  0  0  0
    2.8662   -2.4980    0.0589 H   0  0  0  0  0  0  0  0  0  0  0  0
    2.8538   -4.1816    0.6166 H   0  0  0  0  0  0  0  0  0  0  0  0
    0.9758   -0.5952    1.0708 N   0  0  0  0  0  0  0  0  0  0  0  0
    2.3442   -0.4433    1.4946 C   0  0  2  0  0  0  0  0  0  0  0  0
    2.4446   -0.9760    2.9201 C   0  0  0  0  0  0  0  0  0  0  0  0
    3.3324   -1.7429    3.2875 O   0  0  0  0  0  0  0  0  0  0  0  0
    2.8040    1.0184    1.4375 C   0  0  0  0  0  0  0  0  0  0  0  0
    2.8876    1.5754    0.0169 C   0  0  0  0  0  0  0  0  0  0  0  0
    3.3185    3.0402   -0.1109 C   0  0  0  0  0  0  0  0  0  0  0  0
    3.4190    3.6510    0.9920 O   0  5  0  0  0  0  0  0  0  0  0  0
    3.5352    3.4600   -1.2810 O   0  0  0  0  0  0  0  0  0  0  0  0
    0.4735    0.2371    0.7704 H   0  0  0  0  0  0  0  0  0  0  0  0
    2.9487   -1.0783    0.8380 H   0  0  0  0  0  0  0  0  0  0  0  0
    3.7789    1.1247    1.9292 H   0  0  0  0  0  0  0  0  0  0  0  0
    2.1063    1.6410    2.0134 H   0  0  0  0  0  0  0  0  0  0  0  0
    3.5532    0.9512   -0.5913 H   0  0  0  0  0  0  0  0  0  0  0  0
    1.8923    1.5071   -0.4405 H   0  0  0  0  0  0  0  0  0  0  0  0
    1.4001   -0.5307    3.7182 N   0  0  0  0  0  0  0  0  0  0  0  0
    1.2593   -0.9065    5.1059 C   0  0  2  0  0  0  0  0  0  0  0  0
   -0.1786   -0.6297    5.5245 C   0  0  0  0  0  0  0  0  0  0  0  0
   -0.9045    0.1728    4.9412 O   0  0  0  0  0  0  0  0  0  0  0  0
    2.2379   -0.1459    5.9871 C   0  0  0  0  0  0  0  0  0  0  0  0
    0.7178    0.1151    3.3323 H   0  0  0  0  0  0  0  0  0  0  0  0
    1.4565   -1.9825    5.1638 H   0  0  0  0  0  0  0  0  0  0  0  0
    2.0559    0.9340    5.9421 H   0  0  0  0  0  0  0  0  0  0  0  0
    2.1496   -0.4526    7.0346 H   0  0  0  0  0  0  0  0  0  0  0  0
    3.2701   -0.3226    5.6659 H   0  0  0  0  0  0  0  0  0  0  0  0
   -0.5421   -1.3523    6.6523 N   0  0  0  0  0  0  0  0  0  0  0  0
   -1.8521   -1.2538    7.2527 C   0  0  0  0  0  0  0  0  0  0  0  0
    0.1176   -2.0088    7.0593 H   0  0  0  0  0  0  0  0  0  0  0  0
   -1.8381   -0.4863    8.0405 H   0  0  0  0  0  0  0  0  0  0  0  0
   -2.5878   -0.9762    6.4835 H   0  0  0  0  0  0  0  0  0  0  0  0
   -2.1283   -2.2241    7.6910 H   0  0  0  0  0  0  0  0  0  0  0  0
  1  3  1  0  0  0  0
  1  7  1  0  0  0  0
  1  2  2  0  0  0  0
 33 34  1  0  0  0  0
 34 42  1  0  0  0  0
 34 35  2  0  0  0  0
  8  9  1  0  0  0  0
  9 17  1  0  0  0  0
  9 10  2  0  0  0  0
 18 19  1  0  0  0  0
 19 32  1  0  0  0  0
 19 20  2  0  0  0  0
 22 23  1  0  0  0  0
 23 24  1  0  0  0  0
 23 25  2  0  0  0  0
 33 36  1  0  0  0  0
  8 11  1  0  0  0  0
 42 43  1  0  0  0  0
 21 22  1  0  0  0  0
 18 21  1  0  0  0  0
 32 33  1  0  0  0  0
  7  8  1  0  0  0  0
 17 18  1  0  0  0  0
  3  4  1  0  0  0  0
  3  5  1  0  0  0  0
  3  6  1  0  0  0  0
 36 39  1  0  0  0  0
 36 40  1  0  0  0  0
 36 41  1  0  0  0  0
 11 14  1  0  0  0  0
 11 15  1  0  0  0  0
 11 16  1  0  0  0  0
 43 45  1  0  0  0  0
 43 46  1  0  0  0  0
 43 47  1  0  0  0  0
 22 30  1  0  0  0  0
 22 31  1  0  0  0  0
 21 28  1  0  0  0  0
 21 29  1  0  0  0  0
 33 38  1  0  0  0  0
  8 13  1  0  0  0  0
 18 27  1  0  0  0  0
 42 44  1  0  0  0  0
  7 12  1  0  0  0  0
 32 37  1  0  0  0  0
 17 26  1  0  0  0  0
M  CHG  1  24  -1
M  END
$$$$

  -OEChem-02062319033D

 47 46  0     1  0  0  0  0  0999 V2000
    0.5093   -4.7265    3.0306 C   0  0  0  0  0  0  0  0  0  0  0  0
    1.2735   -4.4402    3.9448 O   0  0  0  0  0  0  0  0  0  0  0  0
   -0.4465   -5.8608    3.1982 C   0  0  0  0  0  0  0  0  0  0  0  0
   -0.0219   -6.8213    2.8645 H   0  0  0  0  0  0  0  0  0  0  0  0
   -0.7314   -6.0185    4.2509 H   0  0  0  0  0  0  0  0  0  0  0  0
   -1.3983   -5.7596    2.6527 H   0  0  0  0  0  0  0  0  0  0  0  0
    0.4252   -4.0886    1.8040 N   0  0  0  0  0  0  0  0  0  0  0  0
    1.2532   -2.9707    1.4349 C   0  0  2  0  0  0  0  0  0  0  0  0
    0.3395   -1.8293    1.0083 C   0  0  0  0  0  0  0  0  0  0  0  0
   -0.8136   -2.0027    0.6194 O   0  0  0  0  0  0  0  0  0  0  0  0
    2.2176   -3.3411    0.3189 C   0  0  0  0  0  0  0  0  0  0  0  0
   -0.2574   -4.4279    1.1287 H   0  0  0  0  0  0  0  0  0  0  0  0
    1.8087   -2.6785    2.3327 H   0  0  0  0  0  0  0  0  0  0  0  0
    1.6793   -3.6366   -0.5890 H   0  0  0  0  0  0  0  0  0  0  0  0
    2.8662   -2.4980    0.0589 H   0  0  0  0  0  0  0  0  0  0  0  0
    2.8538   -4.1816    0.6166 H   0  0  0  0  0  0  0  0  0  0  0  0
    0.9758   -0.5952    1.0708 N   0  0  0  0  0  0  0  0  0  0  0  0
    2.4053   -0.4591    1.1849 C   0  0  2  0  0  0  0  0  0  0  0  0
    2.8305   -1.1524    2.4751 C   0  0  0  0  0  0  0  0  0  0  0  0
    3.7774   -1.9341    2.5347 O   0  0  0  0  0  0  0  0  0  0  0  0
    2.8428    1.0104    1.1995 C   0  0  0  0  0  0  0  0  0  0  0  0
    2.5979    1.7320   -0.1251 C   0  0  0  0  0  0  0  0  0  0  0  0
    2.9910    3.2122   -0.1717 C   0  0  0  0  0  0  0  0  0  0  0  0
    3.3443    3.6919    0.9439 O   0  5  0  0  0  0  0  0  0  0  0  0
    2.9331    3.7715   -1.3014 O   0  0  0  0  0  0  0  0  0  0  0  0
    0.4197    0.2535    0.9955 H   0  0  0  0  0  0  0  0  0  0  0  0
    2.8408   -0.9972    0.3360 H   0  0  0  0  0  0  0  0  0  0  0  0
    3.9050    1.0833    1.4639 H   0  0  0  0  0  0  0  0  0  0  0  0
    2.2980    1.5433    1.9904 H   0  0  0  0  0  0  0  0  0  0  0  0
    3.1040    1.2005   -0.9399 H   0  0  0  0  0  0  0  0  0  0  0  0
    1.5238    1.6924   -0.3471 H   0  0  0  0  0  0  0  0  0  0  0  0
    1.9990   -0.8304    3.5387 N   0  0  0  0  0  0  0  0  0  0  0  0
    2.1811   -1.3696    4.8665 C   0  0  2  0  0  0  0  0  0  0  0  0
    0.8790   -1.1806    5.6335 C   0  0  0  0  0  0  0  0  0  0  0  0
    0.0400   -0.3340    5.3324 O   0  0  0  0  0  0  0  0  0  0  0  0
    3.3382   -0.6928    5.5846 C   0  0  0  0  0  0  0  0  0  0  0  0
    1.2476   -0.1614    3.3996 H   0  0  0  0  0  0  0  0  0  0  0  0
    2.3839   -2.4396    4.7482 H   0  0  0  0  0  0  0  0  0  0  0  0
    3.1530    0.3800    5.7123 H   0  0  0  0  0  0  0  0  0  0  0  0
    3.4930   -1.1222    6.5800 H   0  0  0  0  0  0  0  0  0  0  0  0
    4.2681   -0.8043    5.0167 H   0  0  0  0  0  0  0  0  0  0  0  0
    0.7837   -2.0393    6.7196 N   0  0  0  0  0  0  0  0  0  0  0  0
   -0.3524   -2.0452    7.6114 C   0  0  0  0  0  0  0  0  0  0  0  0
    1.5180   -2.7219    6.8829 H   0  0  0  0  0  0  0  0  0  0  0  0
   -0.1555   -1.3752    8.4613 H   0  0  0  0  0  0  0  0  0  0  0  0
   -1.2450   -1.6983    7.0702 H   0  0  0  0  0  0  0  0  0  0  0  0
   -0.5222   -3.0669    7.9818 H   0  0  0  0  0  0  0  0  0  0  0  0
  1  3  1  0  0  0  0
  1  7  1  0  0  0  0
  1  2  2  0  0  0  0
 33 34  1  0  0  0  0
 34 42  1  0  0  0  0
 34 35  2  0  0  0  0
  8  9  1  0  0  0  0
  9 17  1  0  0  0  0
  9 10  2  0  0  0  0
 18 19  1  0  0  0  0
 19 32  1  0  0  0  0
 19 20  2  0  0  0  0
 22 23  1  0  0  0  0
 23 24  1  0  0  0  0
 23 25  2  0  0  0  0
 33 36  1  0  0  0  0
  8 11  1  0  0  0  0
 42 43  1  0  0  0  0
 21 22  1  0  0  0  0
 18 21  1  0  0  0  0
 32 33  1  0  0  0  0
  7  8  1  0  0  0  0
 17 18  1  0  0  0  0
  3  4  1  0  0  0  0
  3  5  1  0  0  0  0
  3  6  1  0  0  0  0
 36 39  1  0  0  0  0
 36 40  1  0  0  0  0
 36 41  1  0  0  0  0
 11 14  1  0  0  0  0
 11 15  1  0  0  0  0
 11 16  1  0  0  0  0
 43 45  1  0  0  0  0
 43 46  1  0  0  0  0
 43 47  1  0  0  0  0
 22 30  1  0  0  0  0
 22 31  1  0  0  0  0
 21 28  1  0  0  0  0
 21 29  1  0  0  0  0
 33 38  1  0  0  0  0
  8 13  1  0  0  0  0
 18 27  1  0  0  0  0
 42 44  1  0  0  0  0
  7 12  1  0  0  0  0
 32 37  1  0  0  0  0
 17 26  1  0  0  0  0
M  CHG  1  24  -1
M  END
$$$$

  -OEChem-02062319033D

 47 46  0     1  0  0  0  0  0999 V2000
    0.5093   -4.7265    3.0306 C   0  0  0  0  0  0  0  0  0  0  0  0
    1.2735   -4.4402    3.9448 O   0  0  0  0  0  0  0  0  0  0  0  0
   -0.4465   -5.8608    3.1982 C   0  0  0  0  0  0  0  0  0  0  0  0
   -0.0219   -6.8213    2.8645 H   0  0  0  0  0  0  0  0  0  0  0  0
   -0.7314   -6.0185    4.2509 H   0  0  0  0  0  0  0  0  0  0  0  0
   -1.3983   -5.7596    2.6527 H   0  0  0  0  0  0  0  0  0  0  0  0
    0.4252   -4.0886    1.8040 N   0  0  0  0  0  0  0  0  0  0  0  0
    1.2532   -2.9707    1.4349 C   0  0  2  0  0  0  0  0  0  0  0  0
    0.3395   -1.8293    1.0083 C   0  0  0  0  0  0  0  0  0  0  0  0
   -0.8136   -2.0027    0.6194 O   0  0  0  0  0  0  0  0  0  0  0  0
    2.2176   -3.3411    0.3189 C   0  0  0  0  0  0  0  0  0  0  0  0
   -0.2574   -4.4279    1.1287 H   0  0  0  0  0  0  0  0  0  0  0  0
    1.8087   -2.6785    2.3327 H   0  0  0  0  0  0  0  0  0  0  0  0
    1.6793   -3.6366   -0.5890 H   0  0  0  0  0  0  0  0  0  0  0  0
    2.8662   -2.4980    0.0589 H   0  0  0  0  0  0  0  0  0  0  0  0
    2.8538   -4.1816    0.6166 H   0  0  0  0  0  0  0  0  0  0  0  0
    0.9758   -0.5952    1.0708 N   0  0  0  0  0  0  0  0  0  0  0  0
    2.3934   -0.4370    0.8699 C   0  0  2  0  0  0  0  0  0  0  0  0
    3.1030   -1.2655    1.9356 C   0  0  0  0  0  0  0  0  0  0  0  0
    4.0364   -2.0245    1.6826 O   0  0  0  0  0  0  0  0  0  0  0  0
    2.8257    1.0314    0.9599 C   0  0  0  0  0  0  0  0  0  0  0  0
    2.2837    1.8966   -0.1772 C   0  0  0  0  0  0  0  0  0  0  0  0
    2.6587    3.3817   -0.1349 C   0  0  0  0  0  0  0  0  0  0  0  0
    3.2607    3.7363    0.9194 O   0  5  0  0  0  0  0  0  0  0  0  0
    2.3431    4.0678   -1.1458 O   0  0  0  0  0  0  0  0  0  0  0  0
    0.4191    0.2420    1.2272 H   0  0  0  0  0  0  0  0  0  0  0  0
    2.6204   -0.8607   -0.1144 H   0  0  0  0  0  0  0  0  0  0  0  0
    3.9205    1.0999    0.9806 H   0  0  0  0  0  0  0  0  0  0  0  0
    2.4791    1.4539    1.9125 H   0  0  0  0  0  0  0  0  0  0  0  0
    2.5871    1.4773   -1.1439 H   0  0  0  0  0  0  0  0  0  0  0  0
    1.1872    1.8559   -0.1502 H   0  0  0  0  0  0  0  0  0  0  0  0
    2.5398   -1.0917    3.1922 N   0  0  0  0  0  0  0  0  0  0  0  0
    3.0219   -1.7779    4.3684 C   0  0  2  0  0  0  0  0  0  0  0  0
    1.9321   -1.7132    5.4303 C   0  0  0  0  0  0  0  0  0  0  0  0
    1.0482   -0.8589    5.4332 O   0  0  0  0  0  0  0  0  0  0  0  0
    4.3148   -1.1605    4.8782 C   0  0  0  0  0  0  0  0  0  0  0  0
    1.7780   -0.4304    3.3102 H   0  0  0  0  0  0  0  0  0  0  0  0
    3.1896   -2.8211    4.0795 H   0  0  0  0  0  0  0  0  0  0  0  0
    4.1665   -0.1151    5.1725 H   0  0  0  0  0  0  0  0  0  0  0  0
    4.6940   -1.6994    5.7528 H   0  0  0  0  0  0  0  0  0  0  0  0
    5.0886   -1.1810    4.1032 H   0  0  0  0  0  0  0  0  0  0  0  0
    2.0878   -2.6954    6.3984 N   0  0  0  0  0  0  0  0  0  0  0  0
    1.1879   -2.8347    7.5195 C   0  0  0  0  0  0  0  0  0  0  0  0
    2.8384   -3.3734    6.3061 H   0  0  0  0  0  0  0  0  0  0  0  0
    1.5768   -2.2640    8.3757 H   0  0  0  0  0  0  0  0  0  0  0  0
    0.1953   -2.4497    7.2428 H   0  0  0  0  0  0  0  0  0  0  0  0
    1.1058   -3.8968    7.7938 H   0  0  0  0  0  0  0  0  0  0  0  0
  1  3  1  0  0  0  0
  1  7  1  0  0  0  0
  1  2  2  0  0  0  0
 33 34  1  0  0  0  0
 34 42  1  0  0  0  0
 34 35  2  0  0  0  0
  8  9  1  0  0  0  0
  9 17  1  0  0  0  0
  9 10  2  0  0  0  0
 18 19  1  0  0  0  0
 19 32  1  0  0  0  0
 19 20  2  0  0  0  0
 22 23  1  0  0  0  0
 23 24  1  0  0  0  0
 23 25  2  0  0  0  0
 33 36  1  0  0  0  0
  8 11  1  0  0  0  0
 42 43  1  0  0  0  0
 21 22  1  0  0  0  0
 18 21  1  0  0  0  0
 32 33  1  0  0  0  0
  7  8  1  0  0  0  0
 17 18  1  0  0  0  0
  3  4  1  0  0  0  0
  3  5  1  0  0  0  0
  3  6  1  0  0  0  0
 36 39  1  0  0  0  0
 36 40  1  0  0  0  0
 36 41  1  0  0  0  0
 11 14  1  0  0  0  0
 11 15  1  0  0  0  0
 11 16  1  0  0  0  0
 43 45  1  0  0  0  0
 43 46  1  0  0  0  0
 43 47  1  0  0  0  0
 22 30  1  0  0  0  0
 22 31  1  0  0  0  0
 21 28  1  0  0  0  0
 21 29  1  0  0  0  0
 33 38  1  0  0  0  0
  8 13  1  0  0  0  0
 18 27  1  0  0  0  0
 42 44  1  0  0  0  0
  7 12  1  0  0  0  0
 32 37  1  0  0  0  0
 17 26  1  0  0  0  0
M  CHG  1  24  -1
M  END
$$$$

  -OEChem-02062319033D

 47 46  0     1  0  0  0  0  0999 V2000
    0.5093   -4.7265    3.0306 C   0  0  0  0  0  0  0  0  0  0  0  0
    1.2735   -4.4402    3.9448 O   0  0  0  0  0  0  0  0  0  0  0  0
   -0.4465   -5.8608    3.1982 C   0  0  0  0  0  0  0  0  0  0  0  0
   -0.0219   -6.8213    2.8645 H   0  0  0  0  0  0  0  0  0  0  0  0
   -0.7314   -6.0185    4.2509 H   0  0  0  0  0  0  0  0  0  0  0  0
   -1.3983   -5.7596    2.6527 H   0  0  0  0  0  0  0  0  0  0  0  0
    0.4252   -4.0886    1.8040 N   0  0  0  0  0  0  0  0  0  0  0  0
    1.2532   -2.9707    1.4349 C   0  0  2  0  0  0  0  0  0  0  0  0
    0.3395   -1.8293    1.0083 C   0  0  0  0  0  0  0  0  0  0  0  0
   -0.8136   -2.0027    0.6194 O   0  0  0  0  0  0  0  0  0  0  0  0
    2.2176   -3.3411    0.3189 C   0  0  0  0  0  0  0  0  0  0  0  0
   -0.2574   -4.4279    1.1287 H   0  0  0  0  0  0  0  0  0  0  0  0
    1.8087   -2.6785    2.3327 H   0  0  0  0  0  0  0  0  0  0  0  0
    1.6793   -3.6366   -0.5890 H   0  0  0  0  0  0  0  0  0  0  0  0
    2.8662   -2.4980    0.0589 H   0  0  0  0  0  0  0  0  0  0  0  0
    2.8538   -4.1816    0.6166 H   0  0  0  0  0  0  0  0  0  0  0  0
    0.9758   -0.5952    1.0708 N   0  0  0  0  0  0  0  0  0  0  0  0
    2.3093   -0.3785    0.5709 C   0  0  2  0  0  0  0  0  0  0  0  0
    3.2436   -1.3077    1.3385 C   0  0  0  0  0  0  0  0  0  0  0  0
    4.0919   -2.0077    0.7893 O   0  0  0  0  0  0  0  0  0  0  0  0
    2.7539    1.0799    0.7348 C   0  0  0  0  0  0  0  0  0  0  0  0
    1.9662    2.0582   -0.1357 C   0  0  0  0  0  0  0  0  0  0  0  0
    2.3441    3.5371   -0.0028 C   0  0  0  0  0  0  0  0  0  0  0  0
    3.1738    3.7811    0.9202 O   0  5  0  0  0  0  0  0  0  0  0  0
    1.8056    4.3287   -0.8248 O   0  0  0  0  0  0  0  0  0  0  0  0
    0.4720    0.2035    1.4498 H   0  0  0  0  0  0  0  0  0  0  0  0
    2.3023   -0.6780   -0.4827 H   0  0  0  0  0  0  0  0  0  0  0  0
    3.8241    1.1733    0.5122 H   0  0  0  0  0  0  0  0  0  0  0  0
    2.6371    1.3789    1.7851 H   0  0  0  0  0  0  0  0  0  0  0  0
    2.0378    1.7629   -1.1893 H   0  0  0  0  0  0  0  0  0  0  0  0
    0.9055    1.9867    0.1366 H   0  0  0  0  0  0  0  0  0  0  0  0
    2.9856   -1.2967    2.7022 N   0  0  0  0  0  0  0  0  0  0  0  0
    3.7243   -2.1034    3.6458 C   0  0  2  0  0  0  0  0  0  0  0  0
    2.9088   -2.1914    4.9290 C   0  0  0  0  0  0  0  0  0  0  0  0
    2.0512   -1.3661    5.2367 O   0  0  0  0  0  0  0  0  0  0  0  0
    5.1013   -1.5172    3.9160 C   0  0  0  0  0  0  0  0  0  0  0  0
    2.2729   -0.6734    3.0700 H   0  0  0  0  0  0  0  0  0  0  0  0
    3.8187   -3.1010    3.2032 H   0  0  0  0  0  0  0  0  0  0  0  0
    5.0271   -0.5176    4.3596 H   0  0  0  0  0  0  0  0  0  0  0  0
    5.6707   -2.1450    4.6094 H   0  0  0  0  0  0  0  0  0  0  0  0
    5.6755   -1.4270    2.9876 H   0  0  0  0  0  0  0  0  0  0  0  0
    3.2813   -3.2759    5.7108 N   0  0  0  0  0  0  0  0  0  0  0  0
    2.6638   -3.5685    6.9832 C   0  0  0  0  0  0  0  0  0  0  0  0
    3.9890   -3.9191    5.3684 H   0  0  0  0  0  0  0  0  0  0  0  0
    3.2408   -3.0922    7.7896 H   0  0  0  0  0  0  0  0  0  0  0  0
    1.6350   -3.1791    6.9895 H   0  0  0  0  0  0  0  0  0  0  0  0
    2.6447   -4.6571    7.1397 H   0  0  0  0  0  0  0  0  0  0  0  0
  1  3  1  0  0  0  0
  1  7  1  0  0  0  0
  1  2  2  0  0  0  0
 33 34  1  0  0  0  0
 34 42  1  0  0  0  0
 34 35  2  0  0  0  0
  8  9  1  0  0  0  0
  9 17  1  0  0  0  0
  9 10  2  0  0  0  0
 18 19  1  0  0  0  0
 19 32  1  0  0  0  0
 19 20  2  0  0  0  0
 22 23  1  0  0  0  0
 23 24  1  0  0  0  0
 23 25  2  0  0  0  0
 33 36  1  0  0  0  0
  8 11  1  0  0  0  0
 42 43  1  0  0  0  0
 21 22  1  0  0  0  0
 18 21  1  0  0  0  0
 32 33  1  0  0  0  0
  7  8  1  0  0  0  0
 17 18  1  0  0  0  0
  3  4  1  0  0  0  0
  3  5  1  0  0  0  0
  3  6  1  0  0  0  0
 36 39  1  0  0  0  0
 36 40  1  0  0  0  0
 36 41  1  0  0  0  0
 11 14  1  0  0  0  0
 11 15  1  0  0  0  0
 11 16  1  0  0  0  0
 43 45  1  0  0  0  0
 43 46  1  0  0  0  0
 43 47  1  0  0  0  0
 22 30  1  0  0  0  0
 22 31  1  0  0  0  0
 21 28  1  0  0  0  0
 21 29  1  0  0  0  0
 33 38  1  0  0  0  0
  8 13  1  0  0  0  0
 18 27  1  0  0  0  0
 42 44  1  0  0  0  0
  7 12  1  0  0  0  0
 32 37  1  0  0  0  0
 17 26  1  0  0  0  0
M  CHG  1  24  -1
M  END
$$$$

  -OEChem-02062319033D

 47 46  0     1  0  0  0  0  0999 V2000
    0.5093   -4.7265    3.0306 C   0  0  0  0  0  0  0  0  0  0  0  0
    1.2735   -4.4402    3.9448 O   0  0  0  0  0  0  0  0  0  0  0  0
   -0.4465   -5.8608    3.1982 C   0  0  0  0  0  0  0  0  0  0  0  0
   -0.0219   -6.8213    2.8645 H   0  0  0  0  0  0  0  0  0  0  0  0
   -0.7314   -6.0185    4.2509 H   0  0  0  0  0  0  0  0  0  0  0  0
   -1.3983   -5.7596    2.6527 H   0  0  0  0  0  0  0  0  0  0  0  0
    0.4252   -4.0886    1.8040 N   0  0  0  0  0  0  0  0  0  0  0  0
    1.2532   -2.9707    1.4349 C   0  0  2  0  0  0  0  0  0  0  0  0
    0.3395   -1.8293    1.0083 C   0  0  0  0  0  0  0  0  0  0  0  0
   -0.8136   -2.0027    0.6194 O   0  0  0  0  0  0  0  0  0  0  0  0
    2.2176   -3.3411    0.3189 C   0  0  0  0  0  0  0  0  0  0  0  0
   -0.2574   -4.4279    1.1287 H   0  0  0  0  0  0  0  0  0  0  0  0
    1.8087   -2.6785    2.3327 H   0  0  0  0  0  0  0  0  0  0  0  0
    1.6793   -3.6366   -0.5890 H   0  0  0  0  0  0  0  0  0  0  0  0
    2.8662   -2.4980    0.0589 H   0  0  0  0  0  0  0  0  0  0  0  0
    2.8538   -4.1816    0.6166 H   0  0  0  0  0  0  0  0  0  0  0  0
    0.9758   -0.5952    1.0708 N   0  0  0  0  0  0  0  0  0  0  0  0
    2.1586   -0.2875    0.3083 C   0  0  2  0  0  0  0  0  0  0  0  0
    3.2427   -1.2761    0.7245 C   0  0  0  0  0  0  0  0  0  0  0  0
    3.9399   -1.8851   -0.0844 O   0  0  0  0  0  0  0  0  0  0  0  0
    2.6322    1.1525    0.5396 C   0  0  0  0  0  0  0  0  0  0  0  0
    1.6673    2.2056   -0.0036 C   0  0  0  0  0  0  0  0  0  0  0  0
    2.0689    3.6680    0.2155 C   0  0  0  0  0  0  0  0  0  0  0  0
    3.0894    3.8232    0.9462 O   0  5  0  0  0  0  0  0  0  0  0  0
    1.3571    4.5363   -0.3603 O   0  0  0  0  0  0  0  0  0  0  0  0
    0.5747    0.1405    1.6480 H   0  0  0  0  0  0  0  0  0  0  0  0
    1.9082   -0.4616   -0.7437 H   0  0  0  0  0  0  0  0  0  0  0  0
    3.6225    1.2986    0.0906 H   0  0  0  0  0  0  0  0  0  0  0  0
    2.7613    1.3234    1.6168 H   0  0  0  0  0  0  0  0  0  0  0  0
    1.4934    2.0377   -1.0731 H   0  0  0  0  0  0  0  0  0  0  0  0
    0.6977    2.0757    0.4940 H   0  0  0  0  0  0  0  0  0  0  0  0
    3.3060   -1.4315    2.1022 N   0  0  0  0  0  0  0  0  0  0  0  0
    4.2405   -2.3240    2.7478 C   0  0  2  0  0  0  0  0  0  0  0  0
    3.7426   -2.5824    4.1637 C   0  0  0  0  0  0  0  0  0  0  0  0
    2.9808   -1.8211    4.7563 O   0  0  0  0  0  0  0  0  0  0  0  0
    5.6440   -1.7386    2.7636 C   0  0  0  0  0  0  0  0  0  0  0  0
    2.6987   -0.8739    2.6955 H   0  0  0  0  0  0  0  0  0  0  0  0
    4.2281   -3.2602    2.1791 H   0  0  0  0  0  0  0  0  0  0  0  0
    5.6762   -0.8001    3.3289 H   0  0  0  0  0  0  0  0  0  0  0  0
    6.3565   -2.4286    3.2277 H   0  0  0  0  0  0  0  0  0  0  0  0
    5.9889   -1.5257    1.7460 H   0  0  0  0  0  0  0  0  0  0  0  0
    4.2829   -3.7412    4.7036 N   0  0  0  0  0  0  0  0  0  0  0  0
    3.9746   -4.1965    6.0391 C   0  0  0  0  0  0  0  0  0  0  0  0
    4.8911   -4.3216    4.1336 H   0  0  0  0  0  0  0  0  0  0  0  0
    4.7231   -3.8034    6.7429 H   0  0  0  0  0  0  0  0  0  0  0  0
    2.9759   -3.8369    6.3276 H   0  0  0  0  0  0  0  0  0  0  0  0
    3.9898   -5.2961    6.0642 H   0  0  0  0  0  0  0  0  0  0  0  0
  1  3  1  0  0  0  0
  1  7  1  0  0  0  0
  1  2  2  0  0  0  0
 33 34  1  0  0  0  0
 34 42  1  0  0  0  0
 34 35  2  0  0  0  0
  8  9  1  0  0  0  0
  9 17  1  0  0  0  0
  9 10  2  0  0  0  0
 18 19  1  0  0  0  0
 19 32  1  0  0  0  0
 19 20  2  0  0  0  0
 22 23  1  0  0  0  0
 23 24  1  0  0  0  0
 23 25  2  0  0  0  0
 33 36  1  0  0  0  0
  8 11  1  0  0  0  0
 42 43  1  0  0  0  0
 21 22  1  0  0  0  0
 18 21  1  0  0  0  0
 32 33  1  0  0  0  0
  7  8  1  0  0  0  0
 17 18  1  0  0  0  0
  3  4  1  0  0  0  0
  3  5  1  0  0  0  0
  3  6  1  0  0  0  0
 36 39  1  0  0  0  0
 36 40  1  0  0  0  0
 36 41  1  0  0  0  0
 11 14  1  0  0  0  0
 11 15  1  0  0  0  0
 11 16  1  0  0  0  0
 43 45  1  0  0  0  0
 43 46  1  0  0  0  0
 43 47  1  0  0  0  0
 22 30  1  0  0  0  0
 22 31  1  0  0  0  0
 21 28  1  0  0  0  0
 21 29  1  0  0  0  0
 33 38  1  0  0  0  0
  8 13  1  0  0  0  0
 18 27  1  0  0  0  0
 42 44  1  0  0  0  0
  7 12  1  0  0  0  0
 32 37  1  0  0  0  0
 17 26  1  0  0  0  0
M  CHG  1  24  -1
M  END
$$$$

  -OEChem-02062319033D

 47 46  0     1  0  0  0  0  0999 V2000
    0.5093   -4.7265    3.0306 C   0  0  0  0  0  0  0  0  0  0  0  0
    1.2735   -4.4402    3.9448 O   0  0  0  0  0  0  0  0  0  0  0  0
   -0.4465   -5.8608    3.1982 C   0  0  0  0  0  0  0  0  0  0  0  0
   -0.0219   -6.8213    2.8645 H   0  0  0  0  0  0  0  0  0  0  0  0
   -0.7314   -6.0185    4.2509 H   0  0  0  0  0  0  0  0  0  0  0  0
   -1.3983   -5.7596    2.6527 H   0  0  0  0  0  0  0  0  0  0  0  0
    0.4252   -4.0886    1.8040 N   0  0  0  0  0  0  0  0  0  0  0  0
    1.2532   -2.9707    1.4349 C   0  0  2  0  0  0  0  0  0  0  0  0
    0.3395   -1.8293    1.0083 C   0  0  0  0  0  0  0  0  0  0  0  0
   -0.8136   -2.0027    0.6194 O   0  0  0  0  0  0  0  0  0  0  0  0
    2.2176   -3.3411    0.3189 C   0  0  0  0  0  0  0  0  0  0  0  0
   -0.2574   -4.4279    1.1287 H   0  0  0  0  0  0  0  0  0  0  0  0
    1.8087   -2.6785    2.3327 H   0  0  0  0  0  0  0  0  0  0  0  0
    1.6793   -3.6366   -0.5890 H   0  0  0  0  0  0  0  0  0  0  0  0
    2.8662   -2.4980    0.0589 H   0  0  0  0  0  0  0  0  0  0  0  0
    2.8538   -4.1816    0.6166 H   0  0  0  0  0  0  0  0  0  0  0  0
    0.9758   -0.5952    1.0708 N   0  0  0  0  0  0  0  0  0  0  0  0
    1.9516   -0.1702    0.1002 C   0  0  2  0  0  0  0  0  0  0  0  0
    3.1003   -1.1728    0.1353 C   0  0  0  0  0  0  0  0  0  0  0  0
    3.5910   -1.6649   -0.8788 O   0  0  0  0  0  0  0  0  0  0  0  0
    2.4690    1.2444    0.3876 C   0  0  0  0  0  0  0  0  0  0  0  0
    1.4071    2.3289    0.2102 C   0  0  0  0  0  0  0  0  0  0  0  0
    1.8517    3.7653    0.5051 C   0  0  0  0  0  0  0  0  0  0  0  0
    3.0135    3.8599    0.9958 O   0  5  0  0  0  0  0  0  0  0  0  0
    1.0282    4.6767    0.2160 O   0  0  0  0  0  0  0  0  0  0  0  0
    0.7201    0.0574    1.8085 H   0  0  0  0  0  0  0  0  0  0  0  0
    1.4651   -0.2263   -0.8796 H   0  0  0  0  0  0  0  0  0  0  0  0
    3.3294    1.4673   -0.2554 H   0  0  0  0  0  0  0  0  0  0  0  0
    2.8433    1.2912    1.4191 H   0  0  0  0  0  0  0  0  0  0  0  0
    0.9910    2.2830   -0.8032 H   0  0  0  0  0  0  0  0  0  0  0  0
    0.5781    2.1169    0.8974 H   0  0  0  0  0  0  0  0  0  0  0  0
    3.4792   -1.4868    1.4331 N   0  0  0  0  0  0  0  0  0  0  0  0
    4.5354   -2.4247    1.7356 C   0  0  2  0  0  0  0  0  0  0  0  0
    4.3766   -2.8598    3.1865 C   0  0  0  0  0  0  0  0  0  0  0  0
    3.7737   -2.1927    4.0247 O   0  0  0  0  0  0  0  0  0  0  0  0
    5.9060   -1.8096    1.4995 C   0  0  0  0  0  0  0  0  0  0  0  0
    3.0261   -1.0182    2.2121 H   0  0  0  0  0  0  0  0  0  0  0  0
    4.3901   -3.2878    1.0769 H   0  0  0  0  0  0  0  0  0  0  0  0
    6.0697   -0.9432    2.1507 H   0  0  0  0  0  0  0  0  0  0  0  0
    6.7047   -2.5307    1.7019 H   0  0  0  0  0  0  0  0  0  0  0  0
    6.0075   -1.4702    0.4630 H   0  0  0  0  0  0  0  0  0  0  0  0
    5.0243   -4.0597    3.4453 N   0  0  0  0  0  0  0  0  0  0  0  0
    5.0312   -4.6759    4.7515 C   0  0  0  0  0  0  0  0  0  0  0  0
    5.4835   -4.5536    2.6858 H   0  0  0  0  0  0  0  0  0  0  0  0
    5.9226   -4.3490    5.3070 H   0  0  0  0  0  0  0  0  0  0  0  0
    4.1266   -4.3782    5.3021 H   0  0  0  0  0  0  0  0  0  0  0  0
    5.0493   -5.7701    4.6405 H   0  0  0  0  0  0  0  0  0  0  0  0
  1  3  1  0  0  0  0
  1  7  1  0  0  0  0
  1  2  2  0  0  0  0
 33 34  1  0  0  0  0
 34 42  1  0  0  0  0
 34 35  2  0  0  0  0
  8  9  1  0  0  0  0
  9 17  1  0  0  0  0
  9 10  2  0  0  0  0
 18 19  1  0  0  0  0
 19 32  1  0  0  0  0
 19 20  2  0  0  0  0
 22 23  1  0  0  0  0
 23 24  1  0  0  0  0
 23 25  2  0  0  0  0
 33 36  1  0  0  0  0
  8 11  1  0  0  0  0
 42 43  1  0  0  0  0
 21 22  1  0  0  0  0
 18 21  1  0  0  0  0
 32 33  1  0  0  0  0
  7  8  1  0  0  0  0
 17 18  1  0  0  0  0
  3  4  1  0  0  0  0
  3  5  1  0  0  0  0
  3  6  1  0  0  0  0
 36 39  1  0  0  0  0
 36 40  1  0  0  0  0
 36 41  1  0  0  0  0
 11 14  1  0  0  0  0
 11 15  1  0  0  0  0
 11 16  1  0  0  0  0
 43 45  1  0  0  0  0
 43 46  1  0  0  0  0
 43 47  1  0  0  0  0
 22 30  1  0  0  0  0
 22 31  1  0  0  0  0
 21 28  1  0  0  0  0
 21 29  1  0  0  0  0
 33 38  1  0  0  0  0
  8 13  1  0  0  0  0
 18 27  1  0  0  0  0
 42 44  1  0  0  0  0
  7 12  1  0  0  0  0
 32 37  1  0  0  0  0
 17 26  1  0  0  0  0
M  CHG  1  24  -1
M  END
$$$$

  -OEChem-02062319033D

 47 46  0     1  0  0  0  0  0999 V2000
    0.5093   -4.7265    3.0306 C   0  0  0  0  0  0  0  0  0  0  0  0
    1.2735   -4.4402    3.9448 O   0  0  0  0  0  0  0  0  0  0  0  0
   -0.4465   -5.8608    3.1982 C   0  0  0  0  0  0  0  0  0  0  0  0
   -0.0219   -6.8213    2.8645 H   0  0  0  0  0  0  0  0  0  0  0  0
   -0.7314   -6.0185    4.2509 H   0  0  0  0  0  0  0  0  0  0  0  0
   -1.3983   -5.7596    2.6527 H   0  0  0  0  0  0  0  0  0  0  0  0
    0.4252   -4.0886    1.8040 N   0  0  0  0  0  0  0  0  0  0  0  0
    1.2532   -2.9707    1.4349 C   0  0  2  0  0  0  0  0  0  0  0  0
    0.3395   -1.8293    1.0083 C   0  0  0  0  0  0  0  0  0  0  0  0
   -0.8136   -2.0027    0.6194 O   0  0  0  0  0  0  0  0  0  0  0  0
    2.2176   -3.3411    0.3189 C   0  0  0  0  0  0  0  0  0  0  0  0
   -0.2574   -4.4279    1.1287 H   0  0  0  0  0  0  0  0  0  0  0  0
    1.8087   -2.6785    2.3327 H   0  0  0  0  0  0  0  0  0  0  0  0
    1.6793   -3.6366   -0.5890 H   0  0  0  0  0  0  0  0  0  0  0  0
    2.8662   -2.4980    0.0589 H   0  0  0  0  0  0  0  0  0  0  0  0
    2.8538   -4.1816    0.6166 H   0  0  0  0  0  0  0  0  0  0  0  0
    0.9758   -0.5952    1.0708 N   0  0  0  0  0  0  0  0  0  0  0  0
    1.7026   -0.0347   -0.0394 C   0  0  2  0  0  0  0  0  0  0  0  0
    2.8261   -1.0049   -0.3889 C   0  0  0  0  0  0  0  0  0  0  0  0
    3.0688   -1.3621   -1.5398 O   0  0  0  0  0  0  0  0  0  0  0  0
    2.2753    1.3492    0.2893 C   0  0  0  0  0  0  0  0  0  0  0  0
    1.2036    2.4196    0.4912 C   0  0  0  0  0  0  0  0  0  0  0  0
    1.7072    3.8225    0.8463 C   0  0  0  0  0  0  0  0  0  0  0  0
    2.9511    3.8885    1.0654 O   0  5  0  0  0  0  0  0  0  0  0  0
    0.8413    4.7401    0.8649 O   0  0  0  0  0  0  0  0  0  0  0  0
    0.8985   -0.0403    1.9202 H   0  0  0  0  0  0  0  0  0  0  0  0
    1.0032    0.0120   -0.8812 H   0  0  0  0  0  0  0  0  0  0  0  0
    2.9648    1.6678   -0.5024 H   0  0  0  0  0  0  0  0  0  0  0  0
    2.8774    1.2844    1.2055 H   0  0  0  0  0  0  0  0  0  0  0  0
    0.5649    2.4822   -0.3980 H   0  0  0  0  0  0  0  0  0  0  0  0
    0.5548    2.1075    1.3195 H   0  0  0  0  0  0  0  0  0  0  0  0
    3.4933   -1.4589    0.7404 N   0  0  0  0  0  0  0  0  0  0  0  0
    4.5887   -2.3986    0.6782 C   0  0  2  0  0  0  0  0  0  0  0  0
    4.7677   -3.0045    2.0640 C   0  0  0  0  0  0  0  0  0  0  0  0
    4.3757   -2.4558    3.0918 O   0  0  0  0  0  0  0  0  0  0  0  0
    5.8693   -1.7253    0.2098 C   0  0  0  0  0  0  0  0  0  0  0  0
    3.2331   -1.0966    1.6529 H   0  0  0  0  0  0  0  0  0  0  0  0
    4.2937   -3.1820   -0.0283 H   0  0  0  0  0  0  0  0  0  0  0  0
    6.1806   -0.9372    0.9052 H   0  0  0  0  0  0  0  0  0  0  0  0
    6.6916   -2.4446    0.1359 H   0  0  0  0  0  0  0  0  0  0  0  0
    5.7300   -1.2643   -0.7740 H   0  0  0  0  0  0  0  0  0  0  0  0
    5.4550   -4.2095    2.0218 N   0  0  0  0  0  0  0  0  0  0  0  0
    5.7614   -4.9742    3.2082 C   0  0  0  0  0  0  0  0  0  0  0  0
    5.7257   -4.5993    1.1237 H   0  0  0  0  0  0  0  0  0  0  0  0
    6.7576   -4.6920    3.5797 H   0  0  0  0  0  0  0  0  0  0  0  0
    5.0088   -4.7661    3.9829 H   0  0  0  0  0  0  0  0  0  0  0  0
    5.7511   -6.0470    2.9656 H   0  0  0  0  0  0  0  0  0  0  0  0
  1  3  1  0  0  0  0
  1  7  1  0  0  0  0
  1  2  2  0  0  0  0
 33 34  1  0  0  0  0
 34 42  1  0  0  0  0
 34 35  2  0  0  0  0
  8  9  1  0  0  0  0
  9 17  1  0  0  0  0
  9 10  2  0  0  0  0
 18 19  1  0  0  0  0
 19 32  1  0  0  0  0
 19 20  2  0  0  0  0
 22 23  1  0  0  0  0
 23 24  1  0  0  0  0
 23 25  2  0  0  0  0
 33 36  1  0  0  0  0
  8 11  1  0  0  0  0
 42 43  1  0  0  0  0
 21 22  1  0  0  0  0
 18 21  1  0  0  0  0
 32 33  1  0  0  0  0
  7  8  1  0  0  0  0
 17 18  1  0  0  0  0
  3  4  1  0  0  0  0
  3  5  1  0  0  0  0
  3  6  1  0  0  0  0
 36 39  1  0  0  0  0
 36 40  1  0  0  0  0
 36 41  1  0  0  0  0
 11 14  1  0  0  0  0
 11 15  1  0  0  0  0
 11 16  1  0  0  0  0
 43 45  1  0  0  0  0
 43 46  1  0  0  0  0
 43 47  1  0  0  0  0
 22 30  1  0  0  0  0
 22 31  1  0  0  0  0
 21 28  1  0  0  0  0
 21 29  1  0  0  0  0
 33 38  1  0  0  0  0
  8 13  1  0  0  0  0
 18 27  1  0  0  0  0
 42 44  1  0  0  0  0
  7 12  1  0  0  0  0
 32 37  1  0  0  0  0
 17 26  1  0  0  0  0
M  CHG  1  24  -1
M  END
$$$$

  -OEChem-02062319033D

 47 46  0     1  0  0  0  0  0999 V2000
    0.5093   -4.7265    3.0306 C   0  0  0  0  0  0  0  0  0  0  0  0
    1.2735   -4.4402    3.9448 O   0  0  0  0  0  0  0  0  0  0  0  0
   -0.4465   -5.8608    3.1982 C   0  0  0  0  0  0  0  0  0  0  0  0
   -0.0219   -6.8213    2.8645 H   0  0  0  0  0  0  0  0  0  0  0  0
   -0.7314   -6.0185    4.2509 H   0  0  0  0  0  0  0  0  0  0  0  0
   -1.3983   -5.7596    2.6527 H   0  0  0  0  0  0  0  0  0  0  0  0
    0.4252   -4.0886    1.8040 N   0  0  0  0  0  0  0  0  0  0  0  0
    1.2532   -2.9707    1.4349 C   0  0  2  0  0  0  0  0  0  0  0  0
    0.3395   -1.8293    1.0083 C   0  0  0  0  0  0  0  0  0  0  0  0
   -0.8136   -2.0027    0.6194 O   0  0  0  0  0  0  0  0  0  0  0  0
    2.2176   -3.3411    0.3189 C   0  0  0  0  0  0  0  0  0  0  0  0
   -0.2574   -4.4279    1.1287 H   0  0  0  0  0  0  0  0  0  0  0  0
    1.8087   -2.6785    2.3327 H   0  0  0  0  0  0  0  0  0  0  0  0
    1.6793   -3.6366   -0.5890 H   0  0  0  0  0  0  0  0  0  0  0  0
    2.8662   -2.4980    0.0589 H   0  0  0  0  0  0  0  0  0  0  0  0
    2.8538   -4.1816    0.6166 H   0  0  0  0  0  0  0  0  0  0  0  0
    0.9758   -0.5952    1.0708 N   0  0  0  0  0  0  0  0  0  0  0  0
    1.4283    0.1098   -0.1010 C   0  0  2  0  0  0  0  0  0  0  0  0
    2.4389   -0.7838   -0.8122 C   0  0  0  0  0  0  0  0  0  0  0  0
    2.4090   -0.9974   -2.0225 O   0  0  0  0  0  0  0  0  0  0  0  0
    2.0644    1.4599    0.2512 C   0  0  0  0  0  0  0  0  0  0  0  0
    1.0704    2.4716    0.8200 C   0  0  0  0  0  0  0  0  0  0  0  0
    1.6455    3.8356    1.2158 C   0  0  0  0  0  0  0  0  0  0  0  0
    2.9065    3.9072    1.1505 O   0  5  0  0  0  0  0  0  0  0  0  0
    0.8092    4.7223    1.5422 O   0  0  0  0  0  0  0  0  0  0  0  0
    1.0976   -0.1457    1.9756 H   0  0  0  0  0  0  0  0  0  0  0  0
    0.5538    0.2369   -0.7483 H   0  0  0  0  0  0  0  0  0  0  0  0
    2.5536    1.8865   -0.6333 H   0  0  0  0  0  0  0  0  0  0  0  0
    2.8614    1.3036    0.9905 H   0  0  0  0  0  0  0  0  0  0  0  0
    0.2441    2.6215    0.1149 H   0  0  0  0  0  0  0  0  0  0  0  0
    0.6293    2.0482    1.7314 H   0  0  0  0  0  0  0  0  0  0  0  0
    3.3474   -1.3498    0.0713 N   0  0  0  0  0  0  0  0  0  0  0  0
    4.3969   -2.2474   -0.3523 C   0  0  2  0  0  0  0  0  0  0  0  0
    4.8892   -3.0068    0.8727 C   0  0  0  0  0  0  0  0  0  0  0  0
    4.7459   -2.5924    2.0211 O   0  0  0  0  0  0  0  0  0  0  0  0
    5.5366   -1.4915   -1.0175 C   0  0  0  0  0  0  0  0  0  0  0  0
    3.3053   -1.1035    1.0558 H   0  0  0  0  0  0  0  0  0  0  0  0
    3.9453   -2.9500   -1.0611 H   0  0  0  0  0  0  0  0  0  0  0  0
    6.0015   -0.7826   -0.3226 H   0  0  0  0  0  0  0  0  0  0  0  0
    6.3181   -2.1759   -1.3635 H   0  0  0  0  0  0  0  0  0  0  0  0
    5.1752   -0.9222   -1.8806 H   0  0  0  0  0  0  0  0  0  0  0  0
    5.5456   -4.1806    0.5301 N   0  0  0  0  0  0  0  0  0  0  0  0
    6.1156   -5.0709    1.5143 C   0  0  0  0  0  0  0  0  0  0  0  0
    5.6011   -4.4554   -0.4462 H   0  0  0  0  0  0  0  0  0  0  0  0
    7.1712   -4.8088    1.6788 H   0  0  0  0  0  0  0  0  0  0  0  0
    5.5623   -4.9743    2.4600 H   0  0  0  0  0  0  0  0  0  0  0  0
    6.0473   -6.1079    1.1537 H   0  0  0  0  0  0  0  0  0  0  0  0
  1  3  1  0  0  0  0
  1  7  1  0  0  0  0
  1  2  2  0  0  0  0
 33 34  1  0  0  0  0
 34 42  1  0  0  0  0
 34 35  2  0  0  0  0
  8  9  1  0  0  0  0
  9 17  1  0  0  0  0
  9 10  2  0  0  0  0
 18 19  1  0  0  0  0
 19 32  1  0  0  0  0
 19 20  2  0  0  0  0
 22 23  1  0  0  0  0
 23 24  1  0  0  0  0
 23 25  2  0  0  0  0
 33 36  1  0  0  0  0
  8 11  1  0  0  0  0
 42 43  1  0  0  0  0
 21 22  1  0  0  0  0
 18 21  1  0  0  0  0
 32 33  1  0  0  0  0
  7  8  1  0  0  0  0
 17 18  1  0  0  0  0
  3  4  1  0  0  0  0
  3  5  1  0  0  0  0
  3  6  1  0  0  0  0
 36 39  1  0  0  0  0
 36 40  1  0  0  0  0
 36 41  1  0  0  0  0
 11 14  1  0  0  0  0
 11 15  1  0  0  0  0
 11 16  1  0  0  0  0
 43 45  1  0  0  0  0
 43 46  1  0  0  0  0
 43 47  1  0  0  0  0
 22 30  1  0  0  0  0
 22 31  1  0  0  0  0
 21 28  1  0  0  0  0
 21 29  1  0  0  0  0
 33 38  1  0  0  0  0
  8 13  1  0  0  0  0
 18 27  1  0  0  0  0
 42 44  1  0  0  0  0
  7 12  1  0  0  0  0
 32 37  1  0  0  0  0
 17 26  1  0  0  0  0
M  CHG  1  24  -1
M  END
$$$$

  -OEChem-02062319033D

 47 46  0     1  0  0  0  0  0999 V2000
    0.5093   -4.7265    3.0306 C   0  0  0  0  0  0  0  0  0  0  0  0
    1.2735   -4.4402    3.9448 O   0  0  0  0  0  0  0  0  0  0  0  0
   -0.4465   -5.8608    3.1982 C   0  0  0  0  0  0  0  0  0  0  0  0
   -0.0219   -6.8213    2.8645 H   0  0  0  0  0  0  0  0  0  0  0  0
   -0.7314   -6.0185    4.2509 H   0  0  0  0  0  0  0  0  0  0  0  0
   -1.3983   -5.7596    2.6527 H   0  0  0  0  0  0  0  0  0  0  0  0
    0.4252   -4.0886    1.8040 N   0  0  0  0  0  0  0  0  0  0  0  0
    1.2532   -2.9707    1.4349 C   0  0  2  0  0  0  0  0  0  0  0  0
    0.3395   -1.8293    1.0083 C   0  0  0  0  0  0  0  0  0  0  0  0
   -0.8136   -2.0027    0.6194 O   0  0  0  0  0  0  0  0  0  0  0  0
    2.2176   -3.3411    0.3189 C   0  0  0  0  0  0  0  0  0  0  0  0
   -0.2574   -4.4279    1.1287 H   0  0  0  0  0  0  0  0  0  0  0  0
    1.8087   -2.6785    2.3327 H   0  0  0  0  0  0  0  0  0  0  0  0
    1.6793   -3.6366   -0.5890 H   0  0  0  0  0  0  0  0  0  0  0  0
    2.8662   -2.4980    0.0589 H   0  0  0  0  0  0  0  0  0  0  0  0
    2.8538   -4.1816    0.6166 H   0  0  0  0  0  0  0  0  0  0  0  0
    0.9758   -0.5952    1.0708 N   0  0  0  0  0  0  0  0  0  0  0  0
    1.1475    0.2535   -0.0803 C   0  0  2  0  0  0  0  0  0  0  0  0
    1.9650   -0.5245   -1.1060 C   0  0  0  0  0  0  0  0  0  0  0  0
    1.6564   -0.5957   -2.2938 O   0  0  0  0  0  0  0  0  0  0  0  0
    1.8507    1.5688    0.2759 C   0  0  0  0  0  0  0  0  0  0  0  0
    1.0168    2.4813    1.1744 C   0  0  0  0  0  0  0  0  0  0  0  0
    1.6706    3.8037    1.5885 C   0  0  0  0  0  0  0  0  0  0  0  0
    2.8828    3.9147    1.2450 O   0  5  0  0  0  0  0  0  0  0  0  0
    0.9340    4.6245    2.2017 O   0  0  0  0  0  0  0  0  0  0  0  0
    1.3038   -0.2518    1.9708 H   0  0  0  0  0  0  0  0  0  0  0  0
    0.1477    0.4332   -0.4900 H   0  0  0  0  0  0  0  0  0  0  0  0
    2.1237    2.1084   -0.6394 H   0  0  0  0  0  0  0  0  0  0  0  0
    2.7962    1.3474    0.7888 H   0  0  0  0  0  0  0  0  0  0  0  0
    0.0506    2.6916    0.7006 H   0  0  0  0  0  0  0  0  0  0  0  0
    0.7968    1.9429    2.1052 H   0  0  0  0  0  0  0  0  0  0  0  0
    3.0515   -1.1668   -0.5285 N   0  0  0  0  0  0  0  0  0  0  0  0
    3.9731   -1.9816   -1.2857 C   0  0  2  0  0  0  0  0  0  0  0  0
    4.7329   -2.8664   -0.3062 C   0  0  0  0  0  0  0  0  0  0  0  0
    4.8590   -2.5932    0.8857 O   0  0  0  0  0  0  0  0  0  0  0  0
    4.9304   -1.1241   -2.0988 C   0  0  0  0  0  0  0  0  0  0  0  0
    3.2380   -1.0387    0.4617 H   0  0  0  0  0  0  0  0  0  0  0  0
    3.3687   -2.6076   -1.9511 H   0  0  0  0  0  0  0  0  0  0  0  0
    5.5446   -0.4899   -1.4491 H   0  0  0  0  0  0  0  0  0  0  0  0
    5.6096   -1.7432   -2.6941 H   0  0  0  0  0  0  0  0  0  0  0  0
    4.3810   -0.4670   -2.7816 H   0  0  0  0  0  0  0  0  0  0  0  0
    5.2900   -3.9749   -0.9282 N   0  0  0  0  0  0  0  0  0  0  0  0
    6.0696   -4.9594   -0.2148 C   0  0  0  0  0  0  0  0  0  0  0  0
    5.1184   -4.1320   -1.9169 H   0  0  0  0  0  0  0  0  0  0  0  0
    7.1352   -4.6916   -0.2663 H   0  0  0  0  0  0  0  0  0  0  0  0
    5.7494   -4.9884    0.8372 H   0  0  0  0  0  0  0  0  0  0  0  0
    5.9177   -5.9485   -0.6717 H   0  0  0  0  0  0  0  0  0  0  0  0
  1  3  1  0  0  0  0
  1  7  1  0  0  0  0
  1  2  2  0  0  0  0
 33 34  1  0  0  0  0
 34 42  1  0  0  0  0
 34 35  2  0  0  0  0
  8  9  1  0  0  0  0
  9 17  1  0  0  0  0
  9 10  2  0  0  0  0
 18 19  1  0  0  0  0
 19 32  1  0  0  0  0
 19 20  2  0  0  0  0
 22 23  1  0  0  0  0
 23 24  1  0  0  0  0
 23 25  2  0  0  0  0
 33 36  1  0  0  0  0
  8 11  1  0  0  0  0
 42 43  1  0  0  0  0
 21 22  1  0  0  0  0
 18 21  1  0  0  0  0
 32 33  1  0  0  0  0
  7  8  1  0  0  0  0
 17 18  1  0  0  0  0
  3  4  1  0  0  0  0
  3  5  1  0  0  0  0
  3  6  1  0  0  0  0
 36 39  1  0  0  0  0
 36 40  1  0  0  0  0
 36 41  1  0  0  0  0
 11 14  1  0  0  0  0
 11 15  1  0  0  0  0
 11 16  1  0  0  0  0
 43 45  1  0  0  0  0
 43 46  1  0  0  0  0
 43 47  1  0  0  0  0
 22 30  1  0  0  0  0
 22 31  1  0  0  0  0
 21 28  1  0  0  0  0
 21 29  1  0  0  0  0
 33 38  1  0  0  0  0
  8 13  1  0  0  0  0
 18 27  1  0  0  0  0
 42 44  1  0  0  0  0
  7 12  1  0  0  0  0
 32 37  1  0  0  0  0
 17 26  1  0  0  0  0
M  CHG  1  24  -1
M  END
$$$$

  -OEChem-02062319033D

 47 46  0     1  0  0  0  0  0999 V2000
    0.5093   -4.7265    3.0306 C   0  0  0  0  0  0  0  0  0  0  0  0
    1.2735   -4.4402    3.9448 O   0  0  0  0  0  0  0  0  0  0  0  0
   -0.4465   -5.8608    3.1982 C   0  0  0  0  0  0  0  0  0  0  0  0
   -0.0219   -6.8213    2.8645 H   0  0  0  0  0  0  0  0  0  0  0  0
   -0.7314   -6.0185    4.2509 H   0  0  0  0  0  0  0  0  0  0  0  0
   -1.3983   -5.7596    2.6527 H   0  0  0  0  0  0  0  0  0  0  0  0
    0.4252   -4.0886    1.8040 N   0  0  0  0  0  0  0  0  0  0  0  0
    1.2532   -2.9707    1.4349 C   0  0  2  0  0  0  0  0  0  0  0  0
    0.3395   -1.8293    1.0083 C   0  0  0  0  0  0  0  0  0  0  0  0
   -0.8136   -2.0027    0.6194 O   0  0  0  0  0  0  0  0  0  0  0  0
    2.2176   -3.3411    0.3189 C   0  0  0  0  0  0  0  0  0  0  0  0
   -0.2574   -4.4279    1.1287 H   0  0  0  0  0  0  0  0  0  0  0  0
    1.8087   -2.6785    2.3327 H   0  0  0  0  0  0  0  0  0  0  0  0
    1.6793   -3.6366   -0.5890 H   0  0  0  0  0  0  0  0  0  0  0  0
    2.8662   -2.4980    0.0589 H   0  0  0  0  0  0  0  0  0  0  0  0
    2.8538   -4.1816    0.6166 H   0  0  0  0  0  0  0  0  0  0  0  0
    0.9758   -0.5952    1.0708 N   0  0  0  0  0  0  0  0  0  0  0  0
    0.8794    0.3866    0.0212 C   0  0  2  0  0  0  0  0  0  0  0  0
    1.4367   -0.2449   -1.2501 C   0  0  0  0  0  0  0  0  0  0  0  0
    0.8625   -0.1842   -2.3354 O   0  0  0  0  0  0  0  0  0  0  0  0
    1.6486    1.6686    0.3619 C   0  0  0  0  0  0  0  0  0  0  0  0
    1.0463    2.4480    1.5303 C   0  0  0  0  0  0  0  0  0  0  0  0
    1.7809    3.7291    1.9389 C   0  0  0  0  0  0  0  0  0  0  0  0
    2.8815    3.9104    1.3427 O   0  5  0  0  0  0  0  0  0  0  0  0
    1.2073    4.4534    2.7984 O   0  0  0  0  0  0  0  0  0  0  0  0
    1.5032   -0.3513    1.9062 H   0  0  0  0  0  0  0  0  0  0  0  0
   -0.1876    0.5875   -0.1239 H   0  0  0  0  0  0  0  0  0  0  0  0
    1.7045    2.3185   -0.5202 H   0  0  0  0  0  0  0  0  0  0  0  0
    2.6865    1.4128    0.6142 H   0  0  0  0  0  0  0  0  0  0  0  0
   -0.0027    2.6877    1.3191 H   0  0  0  0  0  0  0  0  0  0  0  0
    1.0456    1.7989    2.4152 H   0  0  0  0  0  0  0  0  0  0  0  0
    2.6256   -0.9224   -1.0181 N   0  0  0  0  0  0  0  0  0  0  0  0
    3.3461   -1.6191   -2.0584 C   0  0  2  0  0  0  0  0  0  0  0  0
    4.3093   -2.5929   -1.3923 C   0  0  0  0  0  0  0  0  0  0  0  0
    4.7074   -2.4580   -0.2371 O   0  0  0  0  0  0  0  0  0  0  0  0
    4.0921   -0.6482   -2.9604 C   0  0  0  0  0  0  0  0  0  0  0  0
    3.0357   -0.9065   -0.0890 H   0  0  0  0  0  0  0  0  0  0  0  0
    2.6032   -2.1781   -2.6377 H   0  0  0  0  0  0  0  0  0  0  0  0
    4.8409   -0.0790   -2.3975 H   0  0  0  0  0  0  0  0  0  0  0  0
    4.6144   -1.1757   -3.7653 H   0  0  0  0  0  0  0  0  0  0  0  0
    3.4016    0.0701   -3.4154 H   0  0  0  0  0  0  0  0  0  0  0  0
    4.7056   -3.6064   -2.2536 N   0  0  0  0  0  0  0  0  0  0  0  0
    5.6264   -4.6475   -1.8611 C   0  0  0  0  0  0  0  0  0  0  0  0
    4.3103   -3.6509   -3.1883 H   0  0  0  0  0  0  0  0  0  0  0  0
    6.6521   -4.3484   -2.1229 H   0  0  0  0  0  0  0  0  0  0  0  0
    5.5573   -4.8076   -0.7750 H   0  0  0  0  0  0  0  0  0  0  0  0
    5.3711   -5.5797   -2.3862 H   0  0  0  0  0  0  0  0  0  0  0  0
  1  3  1  0  0  0  0
  1  7  1  0  0  0  0
  1  2  2  0  0  0  0
 33 34  1  0  0  0  0
 34 42  1  0  0  0  0
 34 35  2  0  0  0  0
  8  9  1  0  0  0  0
  9 17  1  0  0  0  0
  9 10  2  0  0  0  0
 18 19  1  0  0  0  0
 19 32  1  0  0  0  0
 19 20  2  0  0  0  0
 22 23  1  0  0  0  0
 23 24  1  0  0  0  0
 23 25  2  0  0  0  0
 33 36  1  0  0  0  0
  8 11  1  0  0  0  0
 42 43  1  0  0  0  0
 21 22  1  0  0  0  0
 18 21  1  0  0  0  0
 32 33  1  0  0  0  0
  7  8  1  0  0  0  0
 17 18  1  0  0  0  0
  3  4  1  0  0  0  0
  3  5  1  0  0  0  0
  3  6  1  0  0  0  0
 36 39  1  0  0  0  0
 36 40  1  0  0  0  0
 36 41  1  0  0  0  0
 11 14  1  0  0  0  0
 11 15  1  0  0  0  0
 11 16  1  0  0  0  0
 43 45  1  0  0  0  0
 43 46  1  0  0  0  0
 43 47  1  0  0  0  0
 22 30  1  0  0  0  0
 22 31  1  0  0  0  0
 21 28  1  0  0  0  0
 21 29  1  0  0  0  0
 33 38  1  0  0  0  0
  8 13  1  0  0  0  0
 18 27  1  0  0  0  0
 42 44  1  0  0  0  0
  7 12  1  0  0  0  0
 32 37  1  0  0  0  0
 17 26  1  0  0  0  0
M  CHG  1  24  -1
M  END
$$$$

  -OEChem-02062319033D

 47 46  0     1  0  0  0  0  0999 V2000
    0.5093   -4.7265    3.0306 C   0  0  0  0  0  0  0  0  0  0  0  0
    1.2735   -4.4402    3.9448 O   0  0  0  0  0  0  0  0  0  0  0  0
   -0.4465   -5.8608    3.1982 C   0  0  0  0  0  0  0  0  0  0  0  0
   -0.0219   -6.8213    2.8645 H   0  0  0  0  0  0  0  0  0  0  0  0
   -0.7314   -6.0185    4.2509 H   0  0  0  0  0  0  0  0  0  0  0  0
   -1.3983   -5.7596    2.6527 H   0  0  0  0  0  0  0  0  0  0  0  0
    0.4252   -4.0886    1.8040 N   0  0  0  0  0  0  0  0  0  0  0  0
    1.2532   -2.9707    1.4349 C   0  0  2  0  0  0  0  0  0  0  0  0
    0.3395   -1.8293    1.0083 C   0  0  0  0  0  0  0  0  0  0  0  0
   -0.8136   -2.0027    0.6194 O   0  0  0  0  0  0  0  0  0  0  0  0
    2.2176   -3.3411    0.3189 C   0  0  0  0  0  0  0  0  0  0  0  0
   -0.2574   -4.4279    1.1287 H   0  0  0  0  0  0  0  0  0  0  0  0
    1.8087   -2.6785    2.3327 H   0  0  0  0  0  0  0  0  0  0  0  0
    1.6793   -3.6366   -0.5890 H   0  0  0  0  0  0  0  0  0  0  0  0
    2.8662   -2.4980    0.0589 H   0  0  0  0  0  0  0  0  0  0  0  0
    2.8538   -4.1816    0.6166 H   0  0  0  0  0  0  0  0  0  0  0  0
    0.9758   -0.5952    1.0708 N   0  0  0  0  0  0  0  0  0  0  0  0
    0.6422    0.5000    0.1967 C   0  0  2  0  0  0  0  0  0  0  0  0
    0.8901    0.0362   -1.2348 C   0  0  0  0  0  0  0  0  0  0  0  0
    0.0813    0.2089   -2.1443 O   0  0  0  0  0  0  0  0  0  0  0  0
    1.4721    1.7525    0.5032 C   0  0  0  0  0  0  0  0  0  0  0  0
    1.1570    2.3740    1.8632 C   0  0  0  0  0  0  0  0  0  0  0  0
    1.9688    3.6168    2.2432 C   0  0  0  0  0  0  0  0  0  0  0  0
    2.9027    3.8947    1.4369 O   0  5  0  0  0  0  0  0  0  0  0  0
    1.6104    4.2206    3.2917 O   0  0  0  0  0  0  0  0  0  0  0  0
    1.6821   -0.4375    1.7862 H   0  0  0  0  0  0  0  0  0  0  0  0
   -0.4290    0.6893    0.3250 H   0  0  0  0  0  0  0  0  0  0  0  0
    1.3245    2.5024   -0.2839 H   0  0  0  0  0  0  0  0  0  0  0  0
    2.5395    1.4955    0.4784 H   0  0  0  0  0  0  0  0  0  0  0  0
    0.0881    2.6100    1.9283 H   0  0  0  0  0  0  0  0  0  0  0  0
    1.3588    1.6259    2.6404 H   0  0  0  0  0  0  0  0  0  0  0  0
    2.0990   -0.6333   -1.3643 N   0  0  0  0  0  0  0  0  0  0  0  0
    2.5587   -1.1848   -2.6178 C   0  0  2  0  0  0  0  0  0  0  0  0
    3.6473   -2.2050   -2.3117 C   0  0  0  0  0  0  0  0  0  0  0  0
    4.3013   -2.1962   -1.2708 O   0  0  0  0  0  0  0  0  0  0  0  0
    3.0788   -0.0962   -3.5436 C   0  0  0  0  0  0  0  0  0  0  0  0
    2.7122   -0.7158   -0.5588 H   0  0  0  0  0  0  0  0  0  0  0  0
    1.7010   -1.6908   -3.0742 H   0  0  0  0  0  0  0  0  0  0  0  0
    3.9384    0.4221   -3.1032 H   0  0  0  0  0  0  0  0  0  0  0  0
    3.4004   -0.5123   -4.5040 H   0  0  0  0  0  0  0  0  0  0  0  0
    2.3036    0.6526   -3.7388 H   0  0  0  0  0  0  0  0  0  0  0  0
    3.8322   -3.1001   -3.3560 N   0  0  0  0  0  0  0  0  0  0  0  0
    4.8164   -4.1562   -3.3126 C   0  0  0  0  0  0  0  0  0  0  0  0
    3.2320   -3.0449   -4.1736 H   0  0  0  0  0  0  0  0  0  0  0  0
    5.7548   -3.8025   -3.7646 H   0  0  0  0  0  0  0  0  0  0  0  0
    4.9991   -4.4442   -2.2668 H   0  0  0  0  0  0  0  0  0  0  0  0
    4.4449   -5.0268   -3.8730 H   0  0  0  0  0  0  0  0  0  0  0  0
  1  3  1  0  0  0  0
  1  7  1  0  0  0  0
  1  2  2  0  0  0  0
 33 34  1  0  0  0  0
 34 42  1  0  0  0  0
 34 35  2  0  0  0  0
  8  9  1  0  0  0  0
  9 17  1  0  0  0  0
  9 10  2  0  0  0  0
 18 19  1  0  0  0  0
 19 32  1  0  0  0  0
 19 20  2  0  0  0  0
 22 23  1  0  0  0  0
 23 24  1  0  0  0  0
 23 25  2  0  0  0  0
 33 36  1  0  0  0  0
  8 11  1  0  0  0  0
 42 43  1  0  0  0  0
 21 22  1  0  0  0  0
 18 21  1  0  0  0  0
 32 33  1  0  0  0  0
  7  8  1  0  0  0  0
 17 18  1  0  0  0  0
  3  4  1  0  0  0  0
  3  5  1  0  0  0  0
  3  6  1  0  0  0  0
 36 39  1  0  0  0  0
 36 40  1  0  0  0  0
 36 41  1  0  0  0  0
 11 14  1  0  0  0  0
 11 15  1  0  0  0  0
 11 16  1  0  0  0  0
 43 45  1  0  0  0  0
 43 46  1  0  0  0  0
 43 47  1  0  0  0  0
 22 30  1  0  0  0  0
 22 31  1  0  0  0  0
 21 28  1  0  0  0  0
 21 29  1  0  0  0  0
 33 38  1  0  0  0  0
  8 13  1  0  0  0  0
 18 27  1  0  0  0  0
 42 44  1  0  0  0  0
  7 12  1  0  0  0  0
 32 37  1  0  0  0  0
 17 26  1  0  0  0  0
M  CHG  1  24  -1
M  END
$$$$

  -OEChem-02062319033D

 47 46  0     1  0  0  0  0  0999 V2000
    0.5093   -4.7265    3.0306 C   0  0  0  0  0  0  0  0  0  0  0  0
    1.2735   -4.4402    3.9448 O   0  0  0  0  0  0  0  0  0  0  0  0
   -0.4465   -5.8608    3.1982 C   0  0  0  0  0  0  0  0  0  0  0  0
   -0.0219   -6.8213    2.8645 H   0  0  0  0  0  0  0  0  0  0  0  0
   -0.7314   -6.0185    4.2509 H   0  0  0  0  0  0  0  0  0  0  0  0
   -1.3983   -5.7596    2.6527 H   0  0  0  0  0  0  0  0  0  0  0  0
    0.4252   -4.0886    1.8040 N   0  0  0  0  0  0  0  0  0  0  0  0
    1.2532   -2.9707    1.4349 C   0  0  2  0  0  0  0  0  0  0  0  0
    0.3395   -1.8293    1.0083 C   0  0  0  0  0  0  0  0  0  0  0  0
   -0.8136   -2.0027    0.6194 O   0  0  0  0  0  0  0  0  0  0  0  0
    2.2176   -3.3411    0.3189 C   0  0  0  0  0  0  0  0  0  0  0  0
   -0.2574   -4.4279    1.1287 H   0  0  0  0  0  0  0  0  0  0  0  0
    1.8087   -2.6785    2.3327 H   0  0  0  0  0  0  0  0  0  0  0  0
    1.6793   -3.6366   -0.5890 H   0  0  0  0  0  0  0  0  0  0  0  0
    2.8662   -2.4980    0.0589 H   0  0  0  0  0  0  0  0  0  0  0  0
    2.8538   -4.1816    0.6166 H   0  0  0  0  0  0  0  0  0  0  0  0
    0.9758   -0.5952    1.0708 N   0  0  0  0  0  0  0  0  0  0  0  0
    0.4521    0.5860    0.4341 C   0  0  2  0  0  0  0  0  0  0  0  0
    0.3623    0.2995   -1.0611 C   0  0  0  0  0  0  0  0  0  0  0  0
   -0.6340    0.5568   -1.7337 O   0  0  0  0  0  0  0  0  0  0  0  0
    1.3330    1.8147    0.6902 C   0  0  0  0  0  0  0  0  0  0  0  0
    1.3413    2.2645    2.1506 C   0  0  0  0  0  0  0  0  0  0  0  0
    2.2216    3.4744    2.4807 C   0  0  0  0  0  0  0  0  0  0  0  0
    2.9450    3.8685    1.5211 O   0  5  0  0  0  0  0  0  0  0  0  0
    2.1158    3.9419    3.6480 O   0  0  0  0  0  0  0  0  0  0  0  0
    1.8283   -0.5044    1.6190 H   0  0  0  0  0  0  0  0  0  0  0  0
   -0.5603    0.7315    0.8262 H   0  0  0  0  0  0  0  0  0  0  0  0
    1.0096    2.6477    0.0536 H   0  0  0  0  0  0  0  0  0  0  0  0
    2.3655    1.5897    0.3909 H   0  0  0  0  0  0  0  0  0  0  0  0
    0.3167    2.4638    2.4866 H   0  0  0  0  0  0  0  0  0  0  0  0
    1.7152    1.4358    2.7655 H   0  0  0  0  0  0  0  0  0  0  0  0
    1.5073   -0.3192   -1.5434 N   0  0  0  0  0  0  0  0  0  0  0  0
    1.6645   -0.7081   -2.9257 C   0  0  2  0  0  0  0  0  0  0  0  0
    2.7921   -1.7290   -3.0016 C   0  0  0  0  0  0  0  0  0  0  0  0
    3.6684   -1.8256   -2.1450 O   0  0  0  0  0  0  0  0  0  0  0  0
    1.9596    0.4943   -3.8087 C   0  0  0  0  0  0  0  0  0  0  0  0
    2.2895   -0.4798   -0.9156 H   0  0  0  0  0  0  0  0  0  0  0  0
    0.7236   -1.1790   -3.2307 H   0  0  0  0  0  0  0  0  0  0  0  0
    2.8987    0.9792   -3.5181 H   0  0  0  0  0  0  0  0  0  0  0  0
    2.0502    0.2019   -4.8600 H   0  0  0  0  0  0  0  0  0  0  0  0
    1.1619    1.2408   -3.7299 H   0  0  0  0  0  0  0  0  0  0  0  0
    2.7293   -2.4907   -4.1601 N   0  0  0  0  0  0  0  0  0  0  0  0
    3.6947   -3.5192   -4.4702 C   0  0  0  0  0  0  0  0  0  0  0  0
    1.9570   -2.3555   -4.8058 H   0  0  0  0  0  0  0  0  0  0  0  0
    4.5044   -3.0911   -5.0795 H   0  0  0  0  0  0  0  0  0  0  0  0
    4.1130   -3.9229   -3.5363 H   0  0  0  0  0  0  0  0  0  0  0  0
    3.2021   -4.3273   -5.0308 H   0  0  0  0  0  0  0  0  0  0  0  0
  1  3  1  0  0  0  0
  1  7  1  0  0  0  0
  1  2  2  0  0  0  0
 33 34  1  0  0  0  0
 34 42  1  0  0  0  0
 34 35  2  0  0  0  0
  8  9  1  0  0  0  0
  9 17  1  0  0  0  0
  9 10  2  0  0  0  0
 18 19  1  0  0  0  0
 19 32  1  0  0  0  0
 19 20  2  0  0  0  0
 22 23  1  0  0  0  0
 23 24  1  0  0  0  0
 23 25  2  0  0  0  0
 33 36  1  0  0  0  0
  8 11  1  0  0  0  0
 42 43  1  0  0  0  0
 21 22  1  0  0  0  0
 18 21  1  0  0  0  0
 32 33  1  0  0  0  0
  7  8  1  0  0  0  0
 17 18  1  0  0  0  0
  3  4  1  0  0  0  0
  3  5  1  0  0  0  0
  3  6  1  0  0  0  0
 36 39  1  0  0  0  0
 36 40  1  0  0  0  0
 36 41  1  0  0  0  0
 11 14  1  0  0  0  0
 11 15  1  0  0  0  0
 11 16  1  0  0  0  0
 43 45  1  0  0  0  0
 43 46  1  0  0  0  0
 43 47  1  0  0  0  0
 22 30  1  0  0  0  0
 22 31  1  0  0  0  0
 21 28  1  0  0  0  0
 21 29  1  0  0  0  0
 33 38  1  0  0  0  0
  8 13  1  0  0  0  0
 18 27  1  0  0  0  0
 42 44  1  0  0  0  0
  7 12  1  0  0  0  0
 32 37  1  0  0  0  0
 17 26  1  0  0  0  0
M  CHG  1  24  -1
M  END
$$$$
