
  -OEChem-02062319073D

 47 46  0     1  0  0  0  0  0999 V2000
    0.1236   -3.9142    2.2333 C   0  0  0  0  0  0  0  0  0  0  0  0
    0.7136   -3.8474    3.2994 O   0  0  0  0  0  0  0  0  0  0  0  0
   -0.4338   -5.2453    1.7633 C   0  0  0  0  0  0  0  0  0  0  0  0
    0.0272   -5.5257    0.8132 H   0  0  0  0  0  0  0  0  0  0  0  0
   -0.2237   -6.0248    2.5010 H   0  0  0  0  0  0  0  0  0  0  0  0
   -1.5156   -5.1702    1.6281 H   0  0  0  0  0  0  0  0  0  0  0  0
   -0.0462   -2.7979    1.4439 N   0  0  0  0  0  0  0  0  0  0  0  0
    0.2973   -1.4230    1.8347 C   0  0  2  0  0  0  0  0  0  0  0  0
   -0.6017   -0.4088    1.0910 C   0  0  0  0  0  0  0  0  0  0  0  0
   -1.4252   -0.8094    0.2702 O   0  0  0  0  0  0  0  0  0  0  0  0
    1.7788   -1.1784    1.5249 C   0  0  0  0  0  0  0  0  0  0  0  0
   -0.6663   -2.8887    0.6406 H   0  0  0  0  0  0  0  0  0  0  0  0
    0.1309   -1.2834    2.9088 H   0  0  0  0  0  0  0  0  0  0  0  0
    1.9671   -1.2682    0.4508 H   0  0  0  0  0  0  0  0  0  0  0  0
    2.0791   -0.1772    1.8513 H   0  0  0  0  0  0  0  0  0  0  0  0
    2.4020   -1.9071    2.0525 H   0  0  0  0  0  0  0  0  0  0  0  0
   -0.3925    0.9482    1.2179 N   0  0  0  0  0  0  0  0  0  0  0  0
   -1.1845    2.0018    0.5606 C   0  0  2  0  0  0  0  0  0  0  0  0
   -1.1408    1.8944   -0.9755 C   0  0  0  0  0  0  0  0  0  0  0  0
   -2.1473    2.0602   -1.6526 O   0  0  0  0  0  0  0  0  0  0  0  0
   -0.6845    3.4064    0.9665 C   0  0  0  0  0  0  0  0  0  0  0  0
   -0.4997    3.6042    2.4859 C   0  0  0  0  0  0  0  0  0  0  0  0
    0.8949    3.1753    2.9459 C   0  0  0  0  0  0  0  0  0  0  0  0
    1.0217    1.9943    3.3599 O   0  5  0  0  0  0  0  0  0  0  0  0
    1.8470    3.9593    2.7298 O   0  0  0  0  0  0  0  0  0  0  0  0
    0.2219    1.2274    1.9955 H   0  0  0  0  0  0  0  0  0  0  0  0
   -2.2271    1.8970    0.8777 H   0  0  0  0  0  0  0  0  0  0  0  0
   -1.4163    4.1385    0.6098 H   0  0  0  0  0  0  0  0  0  0  0  0
    0.2637    3.6277    0.4631 H   0  0  0  0  0  0  0  0  0  0  0  0
   -0.6241    4.6642    2.7257 H   0  0  0  0  0  0  0  0  0  0  0  0
   -1.2670    3.0531    3.0381 H   0  0  0  0  0  0  0  0  0  0  0  0
    0.0687    1.6665   -1.6033 N   0  0  0  0  0  0  0  0  0  0  0  0
    0.2195    1.4309   -3.0458 C   0  0  2  0  0  0  0  0  0  0  0  0
   -0.0457   -0.0370   -3.4669 C   0  0  0  0  0  0  0  0  0  0  0  0
    0.3256   -0.4410   -4.5647 O   0  0  0  0  0  0  0  0  0  0  0  0
    1.6361    1.8814   -3.4188 C   0  0  0  0  0  0  0  0  0  0  0  0
    0.8591    1.4880   -0.9885 H   0  0  0  0  0  0  0  0  0  0  0  0
   -0.4932    2.0567   -3.5932 H   0  0  0  0  0  0  0  0  0  0  0  0
    2.3815    1.2498   -2.9254 H   0  0  0  0  0  0  0  0  0  0  0  0
    1.7858    1.8143   -4.5009 H   0  0  0  0  0  0  0  0  0  0  0  0
    1.7981    2.9199   -3.1132 H   0  0  0  0  0  0  0  0  0  0  0  0
   -0.6544   -0.9339   -2.6062 N   0  0  0  0  0  0  0  0  0  0  0  0
   -0.9697   -2.3094   -2.9595 C   0  0  0  0  0  0  0  0  0  0  0  0
   -1.0238   -0.5618   -1.7267 H   0  0  0  0  0  0  0  0  0  0  0  0
   -1.6798   -2.3371   -3.7922 H   0  0  0  0  0  0  0  0  0  0  0  0
   -0.0619   -2.8491   -3.2475 H   0  0  0  0  0  0  0  0  0  0  0  0
   -1.4184   -2.8207   -2.1027 H   0  0  0  0  0  0  0  0  0  0  0  0
  1  2  2  0  0  0  0
  1  3  1  0  0  0  0
  1  7  1  0  0  0  0
  3  4  1  0  0  0  0
  3  5  1  0  0  0  0
  3  6  1  0  0  0  0
  7  8  1  0  0  0  0
  7 12  1  0  0  0  0
  8  9  1  0  0  0  0
  8 11  1  0  0  0  0
  8 13  1  0  0  0  0
  9 10  2  0  0  0  0
  9 17  1  0  0  0  0
 11 14  1  0  0  0  0
 11 15  1  0  0  0  0
 11 16  1  0  0  0  0
 17 18  1  0  0  0  0
 17 26  1  0  0  0  0
 18 19  1  0  0  0  0
 18 21  1  0  0  0  0
 18 27  1  0  0  0  0
 19 20  2  0  0  0  0
 19 32  1  0  0  0  0
 21 22  1  0  0  0  0
 21 28  1  0  0  0  0
 21 29  1  0  0  0  0
 22 23  1  0  0  0  0
 22 30  1  0  0  0  0
 22 31  1  0  0  0  0
 23 24  1  0  0  0  0
 23 25  2  0  0  0  0
 32 33  1  0  0  0  0
 32 37  1  0  0  0  0
 33 34  1  0  0  0  0
 33 36  1  0  0  0  0
 33 38  1  0  0  0  0
 34 35  2  0  0  0  0
 34 42  1  0  0  0  0
 36 39  1  0  0  0  0
 36 40  1  0  0  0  0
 36 41  1  0  0  0  0
 42 43  1  0  0  0  0
 42 44  1  0  0  0  0
 43 45  1  0  0  0  0
 43 46  1  0  0  0  0
 43 47  1  0  0  0  0
M  CHG  1  24  -1
M  END
$$$$

  -OEChem-02062319073D

 47 46  0     1  0  0  0  0  0999 V2000
   -0.0369   -3.9512    2.0640 C   0  0  0  0  0  0  0  0  0  0  0  0
    0.6342   -3.9782    3.0827 O   0  0  0  0  0  0  0  0  0  0  0  0
   -0.7360   -5.2120    1.5894 C   0  0  0  0  0  0  0  0  0  0  0  0
   -0.3732   -5.4876    0.5961 H   0  0  0  0  0  0  0  0  0  0  0  0
   -0.5377   -6.0368    2.2793 H   0  0  0  0  0  0  0  0  0  0  0  0
   -1.8145   -5.0437    1.5422 H   0  0  0  0  0  0  0  0  0  0  0  0
   -0.1740   -2.7916    1.3329 N   0  0  0  0  0  0  0  0  0  0  0  0
    0.2937   -1.4624    1.7532 C   0  0  2  0  0  0  0  0  0  0  0  0
   -0.5665   -0.3602    1.0934 C   0  0  0  0  0  0  0  0  0  0  0  0
   -1.4838   -0.6725    0.3361 O   0  0  0  0  0  0  0  0  0  0  0  0
    1.7704   -1.3102    1.3706 C   0  0  0  0  0  0  0  0  0  0  0  0
   -0.8628   -2.7991    0.5820 H   0  0  0  0  0  0  0  0  0  0  0  0
    0.1952   -1.3527    2.8393 H   0  0  0  0  0  0  0  0  0  0  0  0
    1.8971   -1.3849    0.2864 H   0  0  0  0  0  0  0  0  0  0  0  0
    2.1545   -0.3401    1.7029 H   0  0  0  0  0  0  0  0  0  0  0  0
    2.3691   -2.0919    1.8482 H   0  0  0  0  0  0  0  0  0  0  0  0
   -0.3095    0.9756    1.3210 N   0  0  0  0  0  0  0  0  0  0  0  0
   -1.2350    2.0791    1.0077 C   0  0  2  0  0  0  0  0  0  0  0  0
   -1.5910    2.1575   -0.4899 C   0  0  0  0  0  0  0  0  0  0  0  0
   -2.7307    2.4147   -0.8563 O   0  0  0  0  0  0  0  0  0  0  0  0
   -0.6380    3.4351    1.4438 C   0  0  0  0  0  0  0  0  0  0  0  0
   -0.2112    3.4873    2.9257 C   0  0  0  0  0  0  0  0  0  0  0  0
    1.2089    2.9580    3.1292 C   0  0  0  0  0  0  0  0  0  0  0  0
    1.3267    1.7414    3.4263 O   0  5  0  0  0  0  0  0  0  0  0  0
    2.1620    3.7121    2.8279 O   0  0  0  0  0  0  0  0  0  0  0  0
    0.3879    1.1524    2.0575 H   0  0  0  0  0  0  0  0  0  0  0  0
   -2.1650    1.9141    1.5614 H   0  0  0  0  0  0  0  0  0  0  0  0
   -1.3977    4.2064    1.2790 H   0  0  0  0  0  0  0  0  0  0  0  0
    0.2222    3.6879    0.8132 H   0  0  0  0  0  0  0  0  0  0  0  0
   -0.2376    4.5258    3.2683 H   0  0  0  0  0  0  0  0  0  0  0  0
   -0.9162    2.9227    3.5431 H   0  0  0  0  0  0  0  0  0  0  0  0
   -0.5883    2.0335   -1.4325 N   0  0  0  0  0  0  0  0  0  0  0  0
   -0.8148    2.0219   -2.8848 C   0  0  2  0  0  0  0  0  0  0  0  0
   -1.2276    0.6369   -3.4439 C   0  0  0  0  0  0  0  0  0  0  0  0
   -1.2191    0.4348   -4.6544 O   0  0  0  0  0  0  0  0  0  0  0  0
    0.4758    2.5322   -3.5350 C   0  0  0  0  0  0  0  0  0  0  0  0
    0.3235    1.7637   -1.0721 H   0  0  0  0  0  0  0  0  0  0  0  0
   -1.6211    2.7205   -3.1325 H   0  0  0  0  0  0  0  0  0  0  0  0
    1.3016    1.8396   -3.3444 H   0  0  0  0  0  0  0  0  0  0  0  0
    0.3460    2.6289   -4.6175 H   0  0  0  0  0  0  0  0  0  0  0  0
    0.7416    3.5147   -3.1323 H   0  0  0  0  0  0  0  0  0  0  0  0
   -1.5642   -0.4081   -2.6015 N   0  0  0  0  0  0  0  0  0  0  0  0
   -2.0275   -1.7065   -3.0656 C   0  0  0  0  0  0  0  0  0  0  0  0
   -1.6369   -0.1972   -1.6018 H   0  0  0  0  0  0  0  0  0  0  0  0
   -2.9727   -1.6028   -3.6080 H   0  0  0  0  0  0  0  0  0  0  0  0
   -1.2861   -2.1660   -3.7270 H   0  0  0  0  0  0  0  0  0  0  0  0
   -2.1878   -2.3715   -2.2116 H   0  0  0  0  0  0  0  0  0  0  0  0
  1  2  2  0  0  0  0
  1  3  1  0  0  0  0
  1  7  1  0  0  0  0
  3  4  1  0  0  0  0
  3  5  1  0  0  0  0
  3  6  1  0  0  0  0
  7  8  1  0  0  0  0
  7 12  1  0  0  0  0
  8  9  1  0  0  0  0
  8 11  1  0  0  0  0
  8 13  1  0  0  0  0
  9 10  2  0  0  0  0
  9 17  1  0  0  0  0
 11 14  1  0  0  0  0
 11 15  1  0  0  0  0
 11 16  1  0  0  0  0
 17 18  1  0  0  0  0
 17 26  1  0  0  0  0
 18 19  1  0  0  0  0
 18 21  1  0  0  0  0
 18 27  1  0  0  0  0
 19 20  2  0  0  0  0
 19 32  1  0  0  0  0
 21 22  1  0  0  0  0
 21 28  1  0  0  0  0
 21 29  1  0  0  0  0
 22 23  1  0  0  0  0
 22 30  1  0  0  0  0
 22 31  1  0  0  0  0
 23 24  1  0  0  0  0
 23 25  2  0  0  0  0
 32 33  1  0  0  0  0
 32 37  1  0  0  0  0
 33 34  1  0  0  0  0
 33 36  1  0  0  0  0
 33 38  1  0  0  0  0
 34 35  2  0  0  0  0
 34 42  1  0  0  0  0
 36 39  1  0  0  0  0
 36 40  1  0  0  0  0
 36 41  1  0  0  0  0
 42 43  1  0  0  0  0
 42 44  1  0  0  0  0
 43 45  1  0  0  0  0
 43 46  1  0  0  0  0
 43 47  1  0  0  0  0
M  CHG  1  24  -1
M  END
$$$$

  -OEChem-02062319073D

 47 46  0     1  0  0  0  0  0999 V2000
   -0.3403   -3.9252    2.0694 C   0  0  0  0  0  0  0  0  0  0  0  0
    0.4568   -4.0154    2.9889 O   0  0  0  0  0  0  0  0  0  0  0  0
   -1.2509   -5.0956    1.7447 C   0  0  0  0  0  0  0  0  0  0  0  0
   -1.0796   -5.4279    0.7178 H   0  0  0  0  0  0  0  0  0  0  0  0
   -1.0509   -5.9293    2.4237 H   0  0  0  0  0  0  0  0  0  0  0  0
   -2.2961   -4.7949    1.8531 H   0  0  0  0  0  0  0  0  0  0  0  0
   -0.4356   -2.7732    1.3196 N   0  0  0  0  0  0  0  0  0  0  0  0
    0.2242   -1.4983    1.6391 C   0  0  2  0  0  0  0  0  0  0  0  0
   -0.5905   -0.3147    1.0708 C   0  0  0  0  0  0  0  0  0  0  0  0
   -1.6084   -0.5355    0.4171 O   0  0  0  0  0  0  0  0  0  0  0  0
    1.6410   -1.5071    1.0572 C   0  0  0  0  0  0  0  0  0  0  0  0
   -1.2169   -2.7123    0.6683 H   0  0  0  0  0  0  0  0  0  0  0  0
    0.2864   -1.3671    2.7257 H   0  0  0  0  0  0  0  0  0  0  0  0
    1.6097   -1.6137   -0.0313 H   0  0  0  0  0  0  0  0  0  0  0  0
    2.1608   -0.5754    1.3038 H   0  0  0  0  0  0  0  0  0  0  0  0
    2.2170   -2.3383    1.4752 H   0  0  0  0  0  0  0  0  0  0  0  0
   -0.2533    0.9867    1.3793 N   0  0  0  0  0  0  0  0  0  0  0  0
   -1.2182    2.0992    1.4560 C   0  0  2  0  0  0  0  0  0  0  0  0
   -1.9675    2.3569    0.1329 C   0  0  0  0  0  0  0  0  0  0  0  0
   -3.1578    2.6455    0.1300 O   0  0  0  0  0  0  0  0  0  0  0  0
   -0.5068    3.4027    1.8808 C   0  0  0  0  0  0  0  0  0  0  0  0
    0.2350    3.3054    3.2308 C   0  0  0  0  0  0  0  0  0  0  0  0
    1.6353    2.7117    3.0758 C   0  0  0  0  0  0  0  0  0  0  0  0
    1.7483    1.4695    3.2389 O   0  5  0  0  0  0  0  0  0  0  0  0
    2.5410    3.4567    2.6368 O   0  0  0  0  0  0  0  0  0  0  0  0
    0.5618    1.0584    2.0046 H   0  0  0  0  0  0  0  0  0  0  0  0
   -1.9689    1.8505    2.2133 H   0  0  0  0  0  0  0  0  0  0  0  0
   -1.2646    4.1884    1.9662 H   0  0  0  0  0  0  0  0  0  0  0  0
    0.1995    3.7157    1.1034 H   0  0  0  0  0  0  0  0  0  0  0  0
    0.3382    4.3091    3.6536 H   0  0  0  0  0  0  0  0  0  0  0  0
   -0.3485    2.7118    3.9411 H   0  0  0  0  0  0  0  0  0  0  0  0
   -1.2583    2.3736   -1.0533 N   0  0  0  0  0  0  0  0  0  0  0  0
   -1.8582    2.5579   -2.3834 C   0  0  2  0  0  0  0  0  0  0  0  0
   -2.2403    1.2281   -3.0789 C   0  0  0  0  0  0  0  0  0  0  0  0
   -2.4695    1.2017   -4.2843 O   0  0  0  0  0  0  0  0  0  0  0  0
   -0.8541    3.3659   -3.2123 C   0  0  0  0  0  0  0  0  0  0  0  0
   -0.2906    2.0676   -0.9874 H   0  0  0  0  0  0  0  0  0  0  0  0
   -2.7773    3.1465   -2.2959 H   0  0  0  0  0  0  0  0  0  0  0  0
    0.0681    2.7956   -3.3603 H   0  0  0  0  0  0  0  0  0  0  0  0
   -1.2750    3.6073   -4.1933 H   0  0  0  0  0  0  0  0  0  0  0  0
   -0.6092    4.3035   -2.7036 H   0  0  0  0  0  0  0  0  0  0  0  0
   -2.2752    0.0384   -2.3745 N   0  0  0  0  0  0  0  0  0  0  0  0
   -2.6191   -1.2460   -2.9639 C   0  0  0  0  0  0  0  0  0  0  0  0
   -2.1295    0.0881   -1.3613 H   0  0  0  0  0  0  0  0  0  0  0  0
   -3.6344   -1.2202   -3.3722 H   0  0  0  0  0  0  0  0  0  0  0  0
   -1.9191   -1.4988   -3.7668 H   0  0  0  0  0  0  0  0  0  0  0  0
   -2.5706   -2.0299   -2.2021 H   0  0  0  0  0  0  0  0  0  0  0  0
  1  2  2  0  0  0  0
  1  3  1  0  0  0  0
  1  7  1  0  0  0  0
  3  4  1  0  0  0  0
  3  5  1  0  0  0  0
  3  6  1  0  0  0  0
  7  8  1  0  0  0  0
  7 12  1  0  0  0  0
  8  9  1  0  0  0  0
  8 11  1  0  0  0  0
  8 13  1  0  0  0  0
  9 10  2  0  0  0  0
  9 17  1  0  0  0  0
 11 14  1  0  0  0  0
 11 15  1  0  0  0  0
 11 16  1  0  0  0  0
 17 18  1  0  0  0  0
 17 26  1  0  0  0  0
 18 19  1  0  0  0  0
 18 21  1  0  0  0  0
 18 27  1  0  0  0  0
 19 20  2  0  0  0  0
 19 32  1  0  0  0  0
 21 22  1  0  0  0  0
 21 28  1  0  0  0  0
 21 29  1  0  0  0  0
 22 23  1  0  0  0  0
 22 30  1  0  0  0  0
 22 31  1  0  0  0  0
 23 24  1  0  0  0  0
 23 25  2  0  0  0  0
 32 33  1  0  0  0  0
 32 37  1  0  0  0  0
 33 34  1  0  0  0  0
 33 36  1  0  0  0  0
 33 38  1  0  0  0  0
 34 35  2  0  0  0  0
 34 42  1  0  0  0  0
 36 39  1  0  0  0  0
 36 40  1  0  0  0  0
 36 41  1  0  0  0  0
 42 43  1  0  0  0  0
 42 44  1  0  0  0  0
 43 45  1  0  0  0  0
 43 46  1  0  0  0  0
 43 47  1  0  0  0  0
M  CHG  1  24  -1
M  END
$$$$

  -OEChem-02062319073D

 47 46  0     1  0  0  0  0  0999 V2000
   -0.4897   -3.8896    2.0699 C   0  0  0  0  0  0  0  0  0  0  0  0
    0.3834   -4.0365    2.9093 O   0  0  0  0  0  0  0  0  0  0  0  0
   -1.5012   -4.9967    1.8356 C   0  0  0  0  0  0  0  0  0  0  0  0
   -1.4620   -5.3232    0.7937 H   0  0  0  0  0  0  0  0  0  0  0  0
   -1.2824   -5.8516    2.4815 H   0  0  0  0  0  0  0  0  0  0  0  0
   -2.5076   -4.6344    2.0593 H   0  0  0  0  0  0  0  0  0  0  0  0
   -0.5805   -2.7300    1.3316 N   0  0  0  0  0  0  0  0  0  0  0  0
    0.1933   -1.5041    1.5788 C   0  0  2  0  0  0  0  0  0  0  0  0
   -0.5728   -0.2671    1.0584 C   0  0  0  0  0  0  0  0  0  0  0  0
   -1.6484   -0.4200    0.4821 O   0  0  0  0  0  0  0  0  0  0  0  0
    1.5544   -1.6197    0.8857 C   0  0  0  0  0  0  0  0  0  0  0  0
   -1.4099   -2.6174    0.7507 H   0  0  0  0  0  0  0  0  0  0  0  0
    0.3519   -1.3686    2.6552 H   0  0  0  0  0  0  0  0  0  0  0  0
    1.4272   -1.7465   -0.1936 H   0  0  0  0  0  0  0  0  0  0  0  0
    2.1522   -0.7198    1.0646 H   0  0  0  0  0  0  0  0  0  0  0  0
    2.1077   -2.4786    1.2772 H   0  0  0  0  0  0  0  0  0  0  0  0
   -0.1802    1.0027    1.4272 N   0  0  0  0  0  0  0  0  0  0  0  0
   -1.1209    2.0553    1.8547 C   0  0  2  0  0  0  0  0  0  0  0  0
   -2.1699    2.4309    0.7877 C   0  0  0  0  0  0  0  0  0  0  0  0
   -3.3247    2.6868    1.1057 O   0  0  0  0  0  0  0  0  0  0  0  0
   -0.3468    3.3294    2.2571 C   0  0  0  0  0  0  0  0  0  0  0  0
    0.6247    3.1261    3.4393 C   0  0  0  0  0  0  0  0  0  0  0  0
    1.9595    2.5263    2.9984 C   0  0  0  0  0  0  0  0  0  0  0  0
    2.0612    1.2732    3.0416 O   0  5  0  0  0  0  0  0  0  0  0  0
    2.7994    3.2903    2.4707 O   0  0  0  0  0  0  0  0  0  0  0  0
    0.7152    1.0011    1.9358 H   0  0  0  0  0  0  0  0  0  0  0  0
   -1.6684    1.6910    2.7300 H   0  0  0  0  0  0  0  0  0  0  0  0
   -1.0762    4.0927    2.5478 H   0  0  0  0  0  0  0  0  0  0  0  0
    0.2065    3.7194    1.3953 H   0  0  0  0  0  0  0  0  0  0  0  0
    0.8271    4.0958    3.9035 H   0  0  0  0  0  0  0  0  0  0  0  0
    0.1633    2.4907    4.2012 H   0  0  0  0  0  0  0  0  0  0  0  0
   -1.7665    2.6152   -0.5213 N   0  0  0  0  0  0  0  0  0  0  0  0
   -2.6624    2.9774   -1.6300 C   0  0  2  0  0  0  0  0  0  0  0  0
   -3.2465    1.7583   -2.3849 C   0  0  0  0  0  0  0  0  0  0  0  0
   -3.8172    1.9125   -3.4605 O   0  0  0  0  0  0  0  0  0  0  0  0
   -1.8605    3.8887   -2.5645 C   0  0  0  0  0  0  0  0  0  0  0  0
   -0.8176    2.3151   -0.7312 H   0  0  0  0  0  0  0  0  0  0  0  0
   -3.5124    3.5500   -1.2445 H   0  0  0  0  0  0  0  0  0  0  0  0
   -1.0204    3.3431   -3.0051 H   0  0  0  0  0  0  0  0  0  0  0  0
   -2.4970    4.2608   -3.3734 H   0  0  0  0  0  0  0  0  0  0  0  0
   -1.4699    4.7487   -2.0119 H   0  0  0  0  0  0  0  0  0  0  0  0
   -3.0876    0.4737   -1.8986 N   0  0  0  0  0  0  0  0  0  0  0  0
   -3.6157   -0.7144   -2.5502 C   0  0  0  0  0  0  0  0  0  0  0  0
   -2.6434    0.3718   -0.9805 H   0  0  0  0  0  0  0  0  0  0  0  0
   -4.7066   -0.6585   -2.6212 H   0  0  0  0  0  0  0  0  0  0  0  0
   -3.1981   -0.8169   -3.5569 H   0  0  0  0  0  0  0  0  0  0  0  0
   -3.3500   -1.6050   -1.9729 H   0  0  0  0  0  0  0  0  0  0  0  0
  1  2  2  0  0  0  0
  1  3  1  0  0  0  0
  1  7  1  0  0  0  0
  3  4  1  0  0  0  0
  3  5  1  0  0  0  0
  3  6  1  0  0  0  0
  7  8  1  0  0  0  0
  7 12  1  0  0  0  0
  8  9  1  0  0  0  0
  8 11  1  0  0  0  0
  8 13  1  0  0  0  0
  9 10  2  0  0  0  0
  9 17  1  0  0  0  0
 11 14  1  0  0  0  0
 11 15  1  0  0  0  0
 11 16  1  0  0  0  0
 17 18  1  0  0  0  0
 17 26  1  0  0  0  0
 18 19  1  0  0  0  0
 18 21  1  0  0  0  0
 18 27  1  0  0  0  0
 19 20  2  0  0  0  0
 19 32  1  0  0  0  0
 21 22  1  0  0  0  0
 21 28  1  0  0  0  0
 21 29  1  0  0  0  0
 22 23  1  0  0  0  0
 22 30  1  0  0  0  0
 22 31  1  0  0  0  0
 23 24  1  0  0  0  0
 23 25  2  0  0  0  0
 32 33  1  0  0  0  0
 32 37  1  0  0  0  0
 33 34  1  0  0  0  0
 33 36  1  0  0  0  0
 33 38  1  0  0  0  0
 34 35  2  0  0  0  0
 34 42  1  0  0  0  0
 36 39  1  0  0  0  0
 36 40  1  0  0  0  0
 36 41  1  0  0  0  0
 42 43  1  0  0  0  0
 42 44  1  0  0  0  0
 43 45  1  0  0  0  0
 43 46  1  0  0  0  0
 43 47  1  0  0  0  0
M  CHG  1  24  -1
M  END
$$$$

  -OEChem-02062319073D

 47 46  0     1  0  0  0  0  0999 V2000
   -0.4957   -3.9712    2.8223 C   0  0  0  0  0  0  0  0  0  0  0  0
    0.5313   -4.0663    3.4757 O   0  0  0  0  0  0  0  0  0  0  0  0
   -1.6126   -4.9800    3.0154 C   0  0  0  0  0  0  0  0  0  0  0  0
   -1.8706   -5.4378    2.0575 H   0  0  0  0  0  0  0  0  0  0  0  0
   -1.2972   -5.7652    3.7079 H   0  0  0  0  0  0  0  0  0  0  0  0
   -2.4962   -4.4832    3.4236 H   0  0  0  0  0  0  0  0  0  0  0  0
   -0.6561   -2.9495    1.9118 N   0  0  0  0  0  0  0  0  0  0  0  0
    0.2424   -1.7942    1.7900 C   0  0  2  0  0  0  0  0  0  0  0  0
   -0.5087   -0.5606    1.2415 C   0  0  0  0  0  0  0  0  0  0  0  0
   -1.7072   -0.6604    0.9998 O   0  0  0  0  0  0  0  0  0  0  0  0
    1.4083   -2.1614    0.8663 C   0  0  0  0  0  0  0  0  0  0  0  0
   -1.5881   -2.8263    1.5159 H   0  0  0  0  0  0  0  0  0  0  0  0
    0.6350   -1.5291    2.7781 H   0  0  0  0  0  0  0  0  0  0  0  0
    1.0401   -2.4148   -0.1328 H   0  0  0  0  0  0  0  0  0  0  0  0
    2.1076   -1.3242    0.7787 H   0  0  0  0  0  0  0  0  0  0  0  0
    1.9539   -3.0221    1.2654 H   0  0  0  0  0  0  0  0  0  0  0  0
    0.0545    0.6925    1.3913 N   0  0  0  0  0  0  0  0  0  0  0  0
   -0.6158    1.7816    2.1259 C   0  0  2  0  0  0  0  0  0  0  0  0
   -1.9865    2.2090    1.5578 C   0  0  0  0  0  0  0  0  0  0  0  0
   -2.9103    2.4954    2.3124 O   0  0  0  0  0  0  0  0  0  0  0  0
    0.3492    2.9759    2.1455 C   0  0  0  0  0  0  0  0  0  0  0  0
    1.5969    2.6789    2.9994 C   0  0  0  0  0  0  0  0  0  0  0  0
    2.6859    3.7174    2.7438 C   0  0  0  0  0  0  0  0  0  0  0  0
    3.6725    3.3467    2.0614 O   0  5  0  0  0  0  0  0  0  0  0  0
    2.5062    4.8805    3.1780 O   0  0  0  0  0  0  0  0  0  0  0  0
    1.0628    0.6742    1.5350 H   0  0  0  0  0  0  0  0  0  0  0  0
   -0.7935    1.4585    3.1569 H   0  0  0  0  0  0  0  0  0  0  0  0
   -0.1553    3.8588    2.5546 H   0  0  0  0  0  0  0  0  0  0  0  0
    0.6519    3.2174    1.1201 H   0  0  0  0  0  0  0  0  0  0  0  0
    1.3298    2.6832    4.0601 H   0  0  0  0  0  0  0  0  0  0  0  0
    2.0037    1.6908    2.7691 H   0  0  0  0  0  0  0  0  0  0  0  0
   -2.1420    2.3873    0.1964 N   0  0  0  0  0  0  0  0  0  0  0  0
   -3.4262    2.6679   -0.4512 C   0  0  2  0  0  0  0  0  0  0  0  0
   -3.5806    1.9201   -1.7911 C   0  0  0  0  0  0  0  0  0  0  0  0
   -2.6009    1.6266   -2.4684 O   0  0  0  0  0  0  0  0  0  0  0  0
   -3.5302    4.1798   -0.6655 C   0  0  0  0  0  0  0  0  0  0  0  0
   -1.4074    1.9867   -0.3855 H   0  0  0  0  0  0  0  0  0  0  0  0
   -4.2448    2.3395    0.1973 H   0  0  0  0  0  0  0  0  0  0  0  0
   -2.7198    4.5307   -1.3128 H   0  0  0  0  0  0  0  0  0  0  0  0
   -4.4864    4.4367   -1.1309 H   0  0  0  0  0  0  0  0  0  0  0  0
   -3.4601    4.7024    0.2940 H   0  0  0  0  0  0  0  0  0  0  0  0
   -4.8437    1.6057   -2.2605 N   0  0  0  0  0  0  0  0  0  0  0  0
   -5.0791    0.8764   -3.4992 C   0  0  0  0  0  0  0  0  0  0  0  0
   -5.6296    1.8141   -1.6522 H   0  0  0  0  0  0  0  0  0  0  0  0
   -4.6906    1.4396   -4.3540 H   0  0  0  0  0  0  0  0  0  0  0  0
   -4.5870   -0.1014   -3.4672 H   0  0  0  0  0  0  0  0  0  0  0  0
   -6.1518    0.7195   -3.6464 H   0  0  0  0  0  0  0  0  0  0  0  0
  1  2  2  0  0  0  0
  1  3  1  0  0  0  0
  1  7  1  0  0  0  0
  3  4  1  0  0  0  0
  3  5  1  0  0  0  0
  3  6  1  0  0  0  0
  7  8  1  0  0  0  0
  7 12  1  0  0  0  0
  8  9  1  0  0  0  0
  8 11  1  0  0  0  0
  8 13  1  0  0  0  0
  9 10  2  0  0  0  0
  9 17  1  0  0  0  0
 11 14  1  0  0  0  0
 11 15  1  0  0  0  0
 11 16  1  0  0  0  0
 17 18  1  0  0  0  0
 17 26  1  0  0  0  0
 18 19  1  0  0  0  0
 18 21  1  0  0  0  0
 18 27  1  0  0  0  0
 19 20  2  0  0  0  0
 19 32  1  0  0  0  0
 21 22  1  0  0  0  0
 21 28  1  0  0  0  0
 21 29  1  0  0  0  0
 22 23  1  0  0  0  0
 22 30  1  0  0  0  0
 22 31  1  0  0  0  0
 23 24  1  0  0  0  0
 23 25  2  0  0  0  0
 32 33  1  0  0  0  0
 32 37  1  0  0  0  0
 33 34  1  0  0  0  0
 33 36  1  0  0  0  0
 33 38  1  0  0  0  0
 34 35  2  0  0  0  0
 34 42  1  0  0  0  0
 36 39  1  0  0  0  0
 36 40  1  0  0  0  0
 36 41  1  0  0  0  0
 42 43  1  0  0  0  0
 42 44  1  0  0  0  0
 43 45  1  0  0  0  0
 43 46  1  0  0  0  0
 43 47  1  0  0  0  0
M  CHG  1  24  -1
M  END
$$$$

  -OEChem-02062319073D

 47 46  0     1  0  0  0  0  0999 V2000
   -0.5435   -3.9202    2.9171 C   0  0  0  0  0  0  0  0  0  0  0  0
    0.5284   -4.0595    3.4849 O   0  0  0  0  0  0  0  0  0  0  0  0
   -1.6967   -4.8540    3.2351 C   0  0  0  0  0  0  0  0  0  0  0  0
   -2.0241   -5.3656    2.3267 H   0  0  0  0  0  0  0  0  0  0  0  0
   -1.3847   -5.6021    3.9692 H   0  0  0  0  0  0  0  0  0  0  0  0
   -2.5344   -4.2849    3.6458 H   0  0  0  0  0  0  0  0  0  0  0  0
   -0.7202   -2.9148    1.9917 N   0  0  0  0  0  0  0  0  0  0  0  0
    0.2283   -1.8179    1.7586 C   0  0  2  0  0  0  0  0  0  0  0  0
   -0.4937   -0.5717    1.1987 C   0  0  0  0  0  0  0  0  0  0  0  0
   -1.7015   -0.6337    0.9953 O   0  0  0  0  0  0  0  0  0  0  0  0
    1.3121   -2.2878    0.7829 C   0  0  0  0  0  0  0  0  0  0  0  0
   -1.6717   -2.7520    1.6615 H   0  0  0  0  0  0  0  0  0  0  0  0
    0.6968   -1.5314    2.7068 H   0  0  0  0  0  0  0  0  0  0  0  0
    0.8646   -2.5873   -0.1702 H   0  0  0  0  0  0  0  0  0  0  0  0
    2.0335   -1.4868    0.5948 H   0  0  0  0  0  0  0  0  0  0  0  0
    1.8526   -3.1440    1.1986 H   0  0  0  0  0  0  0  0  0  0  0  0
    0.1059    0.6685    1.3099 N   0  0  0  0  0  0  0  0  0  0  0  0
   -0.3768    1.6525    2.2966 C   0  0  2  0  0  0  0  0  0  0  0  0
   -1.8489    2.0892    2.1274 C   0  0  0  0  0  0  0  0  0  0  0  0
   -2.5710    2.2179    3.1107 O   0  0  0  0  0  0  0  0  0  0  0  0
    0.5416    2.8827    2.2285 C   0  0  0  0  0  0  0  0  0  0  0  0
    2.0043    2.5304    2.5787 C   0  0  0  0  0  0  0  0  0  0  0  0
    2.9460    3.7394    2.5642 C   0  0  0  0  0  0  0  0  0  0  0  0
    2.5027    4.8577    2.2026 O   0  5  0  0  0  0  0  0  0  0  0  0
    4.1362    3.5145    2.8911 O   0  0  0  0  0  0  0  0  0  0  0  0
    1.1219    0.6159    1.2962 H   0  0  0  0  0  0  0  0  0  0  0  0
   -0.2940    1.2156    3.2975 H   0  0  0  0  0  0  0  0  0  0  0  0
    0.1812    3.6407    2.9335 H   0  0  0  0  0  0  0  0  0  0  0  0
    0.5008    3.3216    1.2254 H   0  0  0  0  0  0  0  0  0  0  0  0
    2.0339    2.0807    3.5755 H   0  0  0  0  0  0  0  0  0  0  0  0
    2.3951    1.8016    1.8643 H   0  0  0  0  0  0  0  0  0  0  0  0
   -2.3410    2.4035    0.8749 N   0  0  0  0  0  0  0  0  0  0  0  0
   -3.7525    2.6809    0.5953 C   0  0  2  0  0  0  0  0  0  0  0  0
   -4.1775    2.1959   -0.8061 C   0  0  0  0  0  0  0  0  0  0  0  0
   -3.3577    2.0738   -1.7103 O   0  0  0  0  0  0  0  0  0  0  0  0
   -3.9836    4.1886    0.7287 C   0  0  0  0  0  0  0  0  0  0  0  0
   -1.7631    2.1067    0.0891 H   0  0  0  0  0  0  0  0  0  0  0  0
   -4.3764    2.1538    1.3243 H   0  0  0  0  0  0  0  0  0  0  0  0
   -3.3725    4.7339    0.0022 H   0  0  0  0  0  0  0  0  0  0  0  0
   -5.0356    4.4322    0.5543 H   0  0  0  0  0  0  0  0  0  0  0  0
   -3.7123    4.5261    1.7341 H   0  0  0  0  0  0  0  0  0  0  0  0
   -5.5096    1.9258   -1.0663 N   0  0  0  0  0  0  0  0  0  0  0  0
   -5.9930    1.4527   -2.3563 C   0  0  0  0  0  0  0  0  0  0  0  0
   -6.1586    1.9923   -0.2883 H   0  0  0  0  0  0  0  0  0  0  0  0
   -5.7694    2.1837   -3.1402 H   0  0  0  0  0  0  0  0  0  0  0  0
   -5.5198    0.5002   -2.6166 H   0  0  0  0  0  0  0  0  0  0  0  0
   -7.0762    1.3038   -2.3224 H   0  0  0  0  0  0  0  0  0  0  0  0
  1  2  2  0  0  0  0
  1  3  1  0  0  0  0
  1  7  1  0  0  0  0
  3  4  1  0  0  0  0
  3  5  1  0  0  0  0
  3  6  1  0  0  0  0
  7  8  1  0  0  0  0
  7 12  1  0  0  0  0
  8  9  1  0  0  0  0
  8 11  1  0  0  0  0
  8 13  1  0  0  0  0
  9 10  2  0  0  0  0
  9 17  1  0  0  0  0
 11 14  1  0  0  0  0
 11 15  1  0  0  0  0
 11 16  1  0  0  0  0
 17 18  1  0  0  0  0
 17 26  1  0  0  0  0
 18 19  1  0  0  0  0
 18 21  1  0  0  0  0
 18 27  1  0  0  0  0
 19 20  2  0  0  0  0
 19 32  1  0  0  0  0
 21 22  1  0  0  0  0
 21 28  1  0  0  0  0
 21 29  1  0  0  0  0
 22 23  1  0  0  0  0
 22 30  1  0  0  0  0
 22 31  1  0  0  0  0
 23 24  1  0  0  0  0
 23 25  2  0  0  0  0
 32 33  1  0  0  0  0
 32 37  1  0  0  0  0
 33 34  1  0  0  0  0
 33 36  1  0  0  0  0
 33 38  1  0  0  0  0
 34 35  2  0  0  0  0
 34 42  1  0  0  0  0
 36 39  1  0  0  0  0
 36 40  1  0  0  0  0
 36 41  1  0  0  0  0
 42 43  1  0  0  0  0
 42 44  1  0  0  0  0
 43 45  1  0  0  0  0
 43 46  1  0  0  0  0
 43 47  1  0  0  0  0
M  CHG  1  24  -1
M  END
$$$$

  -OEChem-02062319073D

 47 46  0     1  0  0  0  0  0999 V2000
   -0.8621   -4.0214    2.8704 C   0  0  0  0  0  0  0  0  0  0  0  0
   -0.1004   -4.0814    3.8226 O   0  0  0  0  0  0  0  0  0  0  0  0
   -1.9358   -5.0792    2.6927 C   0  0  0  0  0  0  0  0  0  0  0  0
   -1.7925   -5.5985    1.7421 H   0  0  0  0  0  0  0  0  0  0  0  0
   -1.8851   -5.8091    3.5055 H   0  0  0  0  0  0  0  0  0  0  0  0
   -2.9239   -4.6124    2.6997 H   0  0  0  0  0  0  0  0  0  0  0  0
   -0.7622   -2.9974    1.9540 N   0  0  0  0  0  0  0  0  0  0  0  0
    0.1076   -1.8225    2.0973 C   0  0  2  0  0  0  0  0  0  0  0  0
   -0.5413   -0.5845    1.4400 C   0  0  0  0  0  0  0  0  0  0  0  0
   -1.4560   -0.7260    0.6382 O   0  0  0  0  0  0  0  0  0  0  0  0
    1.4675   -2.1403    1.4660 C   0  0  0  0  0  0  0  0  0  0  0  0
   -1.4905   -2.9310    1.2439 H   0  0  0  0  0  0  0  0  0  0  0  0
    0.2519   -1.5900    3.1578 H   0  0  0  0  0  0  0  0  0  0  0  0
    1.3545   -2.3548    0.3989 H   0  0  0  0  0  0  0  0  0  0  0  0
    2.1512   -1.2932    1.5810 H   0  0  0  0  0  0  0  0  0  0  0  0
    1.9174   -3.0110    1.9529 H   0  0  0  0  0  0  0  0  0  0  0  0
    0.1259    0.6086    1.3235 N   0  0  0  0  0  0  0  0  0  0  0  0
   -0.0069    1.5652    2.4329 C   0  0  2  0  0  0  0  0  0  0  0  0
   -1.4644    2.0046    2.6942 C   0  0  0  0  0  0  0  0  0  0  0  0
   -1.9144    1.9713    3.8325 O   0  0  0  0  0  0  0  0  0  0  0  0
    0.8460    2.8038    2.1173 C   0  0  0  0  0  0  0  0  0  0  0  0
    2.3448    2.4688    2.0334 C   0  0  0  0  0  0  0  0  0  0  0  0
    3.1524    3.7192    1.6919 C   0  0  0  0  0  0  0  0  0  0  0  0
    3.0241    4.1852    0.5324 O   0  5  0  0  0  0  0  0  0  0  0  0
    3.8700    4.2194    2.5919 O   0  0  0  0  0  0  0  0  0  0  0  0
   -0.0501    1.0236    0.4122 H   0  0  0  0  0  0  0  0  0  0  0  0
    0.3731    1.1101    3.3541 H   0  0  0  0  0  0  0  0  0  0  0  0
    0.6997    3.5555    2.9012 H   0  0  0  0  0  0  0  0  0  0  0  0
    0.5200    3.2486    1.1704 H   0  0  0  0  0  0  0  0  0  0  0  0
    2.6875    2.0572    2.9877 H   0  0  0  0  0  0  0  0  0  0  0  0
    2.5265    1.7178    1.2596 H   0  0  0  0  0  0  0  0  0  0  0  0
   -2.3048    2.3540    1.6535 N   0  0  0  0  0  0  0  0  0  0  0  0
   -3.7363    2.6352    1.8025 C   0  0  2  0  0  0  0  0  0  0  0  0
   -4.5209    2.3407    0.5072 C   0  0  0  0  0  0  0  0  0  0  0  0
   -3.9656    2.3853   -0.5849 O   0  0  0  0  0  0  0  0  0  0  0  0
   -3.9056    4.1048    2.2011 C   0  0  0  0  0  0  0  0  0  0  0  0
   -1.9536    2.2348    0.7043 H   0  0  0  0  0  0  0  0  0  0  0  0
   -4.1510    1.9969    2.5895 H   0  0  0  0  0  0  0  0  0  0  0  0
   -3.4987    4.7601    1.4243 H   0  0  0  0  0  0  0  0  0  0  0  0
   -4.9636    4.3449    2.3410 H   0  0  0  0  0  0  0  0  0  0  0  0
   -3.3785    4.3085    3.1387 H   0  0  0  0  0  0  0  0  0  0  0  0
   -5.8719    2.0471    0.5656 N   0  0  0  0  0  0  0  0  0  0  0  0
   -6.6757    1.7450   -0.6118 C   0  0  0  0  0  0  0  0  0  0  0  0
   -6.2958    1.9771    1.4857 H   0  0  0  0  0  0  0  0  0  0  0  0
   -6.6533    2.5837   -1.3157 H   0  0  0  0  0  0  0  0  0  0  0  0
   -6.2948    0.8504   -1.1160 H   0  0  0  0  0  0  0  0  0  0  0  0
   -7.7155    1.5650   -0.3231 H   0  0  0  0  0  0  0  0  0  0  0  0
  1  2  2  0  0  0  0
  1  3  1  0  0  0  0
  1  7  1  0  0  0  0
  3  4  1  0  0  0  0
  3  5  1  0  0  0  0
  3  6  1  0  0  0  0
  7  8  1  0  0  0  0
  7 12  1  0  0  0  0
  8  9  1  0  0  0  0
  8 11  1  0  0  0  0
  8 13  1  0  0  0  0
  9 10  2  0  0  0  0
  9 17  1  0  0  0  0
 11 14  1  0  0  0  0
 11 15  1  0  0  0  0
 11 16  1  0  0  0  0
 17 18  1  0  0  0  0
 17 26  1  0  0  0  0
 18 19  1  0  0  0  0
 18 21  1  0  0  0  0
 18 27  1  0  0  0  0
 19 20  2  0  0  0  0
 19 32  1  0  0  0  0
 21 22  1  0  0  0  0
 21 28  1  0  0  0  0
 21 29  1  0  0  0  0
 22 23  1  0  0  0  0
 22 30  1  0  0  0  0
 22 31  1  0  0  0  0
 23 24  1  0  0  0  0
 23 25  2  0  0  0  0
 32 33  1  0  0  0  0
 32 37  1  0  0  0  0
 33 34  1  0  0  0  0
 33 36  1  0  0  0  0
 33 38  1  0  0  0  0
 34 35  2  0  0  0  0
 34 42  1  0  0  0  0
 36 39  1  0  0  0  0
 36 40  1  0  0  0  0
 36 41  1  0  0  0  0
 42 43  1  0  0  0  0
 42 44  1  0  0  0  0
 43 45  1  0  0  0  0
 43 46  1  0  0  0  0
 43 47  1  0  0  0  0
M  CHG  1  24  -1
M  END
$$$$

  -OEChem-02062319073D

 47 46  0     1  0  0  0  0  0999 V2000
   -0.8337   -4.0346    2.8973 C   0  0  0  0  0  0  0  0  0  0  0  0
   -0.0407   -4.0879    3.8238 O   0  0  0  0  0  0  0  0  0  0  0  0
   -1.9203   -5.0864    2.7693 C   0  0  0  0  0  0  0  0  0  0  0  0
   -1.8356   -5.5946    1.8057 H   0  0  0  0  0  0  0  0  0  0  0  0
   -1.8250   -5.8268    3.5682 H   0  0  0  0  0  0  0  0  0  0  0  0
   -2.9041   -4.6159    2.8400 H   0  0  0  0  0  0  0  0  0  0  0  0
   -0.7598   -3.0221    1.9662 N   0  0  0  0  0  0  0  0  0  0  0  0
    0.1191   -1.8497    2.0644 C   0  0  2  0  0  0  0  0  0  0  0  0
   -0.5496   -0.6194    1.4117 C   0  0  0  0  0  0  0  0  0  0  0  0
   -1.4873   -0.7672    0.6386 O   0  0  0  0  0  0  0  0  0  0  0  0
    1.4511   -2.1784    1.3819 C   0  0  0  0  0  0  0  0  0  0  0  0
   -1.5097   -2.9621    1.2784 H   0  0  0  0  0  0  0  0  0  0  0  0
    0.3031   -1.6060    3.1163 H   0  0  0  0  0  0  0  0  0  0  0  0
    1.2934   -2.4015    0.3220 H   0  0  0  0  0  0  0  0  0  0  0  0
    2.1413   -1.3324    1.4609 H   0  0  0  0  0  0  0  0  0  0  0  0
    1.9168   -3.0472    1.8570 H   0  0  0  0  0  0  0  0  0  0  0  0
    0.0887    0.5902    1.2973 N   0  0  0  0  0  0  0  0  0  0  0  0
    0.2358    1.4172    2.5043 C   0  0  2  0  0  0  0  0  0  0  0  0
   -1.1184    1.8043    3.1366 C   0  0  0  0  0  0  0  0  0  0  0  0
   -1.3066    1.6215    4.3323 O   0  0  0  0  0  0  0  0  0  0  0  0
    1.0064    2.6942    2.1359 C   0  0  0  0  0  0  0  0  0  0  0  0
    2.4410    2.3918    1.6716 C   0  0  0  0  0  0  0  0  0  0  0  0
    3.1523    3.6821    1.2705 C   0  0  0  0  0  0  0  0  0  0  0  0
    2.7809    4.2333    0.2048 O   0  5  0  0  0  0  0  0  0  0  0  0
    4.0351    4.1302    2.0417 O   0  0  0  0  0  0  0  0  0  0  0  0
   -0.2303    1.0954    0.4744 H   0  0  0  0  0  0  0  0  0  0  0  0
    0.8138    0.8704    3.2568 H   0  0  0  0  0  0  0  0  0  0  0  0
    1.0548    3.3550    3.0089 H   0  0  0  0  0  0  0  0  0  0  0  0
    0.4747    3.2335    1.3438 H   0  0  0  0  0  0  0  0  0  0  0  0
    2.9963    1.8995    2.4756 H   0  0  0  0  0  0  0  0  0  0  0  0
    2.4321    1.7188    0.8099 H   0  0  0  0  0  0  0  0  0  0  0  0
   -2.1683    2.2531    2.3569 N   0  0  0  0  0  0  0  0  0  0  0  0
   -3.5280    2.4956    2.8520 C   0  0  2  0  0  0  0  0  0  0  0  0
   -4.5838    2.3533    1.7361 C   0  0  0  0  0  0  0  0  0  0  0  0
   -4.2724    2.4938    0.5589 O   0  0  0  0  0  0  0  0  0  0  0  0
   -3.5841    3.9014    3.4587 C   0  0  0  0  0  0  0  0  0  0  0  0
   -2.0310    2.2751    1.3468 H   0  0  0  0  0  0  0  0  0  0  0  0
   -3.7684    1.7588    3.6254 H   0  0  0  0  0  0  0  0  0  0  0  0
   -3.3413    4.6542    2.7018 H   0  0  0  0  0  0  0  0  0  0  0  0
   -4.5835    4.1104    3.8515 H   0  0  0  0  0  0  0  0  0  0  0  0
   -2.8659    3.9904    4.2800 H   0  0  0  0  0  0  0  0  0  0  0  0
   -5.9009    2.0764    2.0576 N   0  0  0  0  0  0  0  0  0  0  0  0
   -6.9463    1.9007    1.0581 C   0  0  0  0  0  0  0  0  0  0  0  0
   -6.1231    1.9282    3.0373 H   0  0  0  0  0  0  0  0  0  0  0  0
   -7.0596    2.8105    0.4592 H   0  0  0  0  0  0  0  0  0  0  0  0
   -6.7015    1.0677    0.3906 H   0  0  0  0  0  0  0  0  0  0  0  0
   -7.9025    1.6852    1.5446 H   0  0  0  0  0  0  0  0  0  0  0  0
  1  2  2  0  0  0  0
  1  3  1  0  0  0  0
  1  7  1  0  0  0  0
  3  4  1  0  0  0  0
  3  5  1  0  0  0  0
  3  6  1  0  0  0  0
  7  8  1  0  0  0  0
  7 12  1  0  0  0  0
  8  9  1  0  0  0  0
  8 11  1  0  0  0  0
  8 13  1  0  0  0  0
  9 10  2  0  0  0  0
  9 17  1  0  0  0  0
 11 14  1  0  0  0  0
 11 15  1  0  0  0  0
 11 16  1  0  0  0  0
 17 18  1  0  0  0  0
 17 26  1  0  0  0  0
 18 19  1  0  0  0  0
 18 21  1  0  0  0  0
 18 27  1  0  0  0  0
 19 20  2  0  0  0  0
 19 32  1  0  0  0  0
 21 22  1  0  0  0  0
 21 28  1  0  0  0  0
 21 29  1  0  0  0  0
 22 23  1  0  0  0  0
 22 30  1  0  0  0  0
 22 31  1  0  0  0  0
 23 24  1  0  0  0  0
 23 25  2  0  0  0  0
 32 33  1  0  0  0  0
 32 37  1  0  0  0  0
 33 34  1  0  0  0  0
 33 36  1  0  0  0  0
 33 38  1  0  0  0  0
 34 35  2  0  0  0  0
 34 42  1  0  0  0  0
 36 39  1  0  0  0  0
 36 40  1  0  0  0  0
 36 41  1  0  0  0  0
 42 43  1  0  0  0  0
 42 44  1  0  0  0  0
 43 45  1  0  0  0  0
 43 46  1  0  0  0  0
 43 47  1  0  0  0  0
M  CHG  1  24  -1
M  END
$$$$

  -OEChem-02062319073D

 47 46  0     1  0  0  0  0  0999 V2000
   -0.8312   -4.1382    2.8027 C   0  0  0  0  0  0  0  0  0  0  0  0
   -0.0782   -4.2008    3.7614 O   0  0  0  0  0  0  0  0  0  0  0  0
   -1.8509   -5.2376    2.5681 C   0  0  0  0  0  0  0  0  0  0  0  0
   -1.6839   -5.6984    1.5914 H   0  0  0  0  0  0  0  0  0  0  0  0
   -1.7622   -6.0065    3.3407 H   0  0  0  0  0  0  0  0  0  0  0  0
   -2.8605   -4.8209    2.5986 H   0  0  0  0  0  0  0  0  0  0  0  0
   -0.7686   -3.0767    1.9269 N   0  0  0  0  0  0  0  0  0  0  0  0
    0.0660   -1.8812    2.1045 C   0  0  2  0  0  0  0  0  0  0  0  0
   -0.5960   -0.6551    1.4332 C   0  0  0  0  0  0  0  0  0  0  0  0
   -1.5467   -0.8047    0.6766 O   0  0  0  0  0  0  0  0  0  0  0  0
    1.4503   -2.1595    1.5079 C   0  0  0  0  0  0  0  0  0  0  0  0
   -1.4928   -3.0144    1.2119 H   0  0  0  0  0  0  0  0  0  0  0  0
    0.1719   -1.6560    3.1715 H   0  0  0  0  0  0  0  0  0  0  0  0
    1.3702   -2.3692    0.4367 H   0  0  0  0  0  0  0  0  0  0  0  0
    2.1099   -1.2971    1.6451 H   0  0  0  0  0  0  0  0  0  0  0  0
    1.9092   -3.0224    2.0003 H   0  0  0  0  0  0  0  0  0  0  0  0
    0.0316    0.5607    1.3139 N   0  0  0  0  0  0  0  0  0  0  0  0
    0.4724    1.2829    2.5167 C   0  0  2  0  0  0  0  0  0  0  0  0
   -0.6905    1.6207    3.4729 C   0  0  0  0  0  0  0  0  0  0  0  0
   -0.6032    1.3373    4.6603 O   0  0  0  0  0  0  0  0  0  0  0  0
    1.1678    2.5825    2.0845 C   0  0  0  0  0  0  0  0  0  0  0  0
    2.4419    2.3139    1.2657 C   0  0  0  0  0  0  0  0  0  0  0  0
    3.0882    3.6314    0.8423 C   0  0  0  0  0  0  0  0  0  0  0  0
    2.4751    4.3229   -0.0085 O   0  5  0  0  0  0  0  0  0  0  0  0
    4.1693    3.9579    1.3896 O   0  0  0  0  0  0  0  0  0  0  0  0
   -0.3751    1.1301    0.5756 H   0  0  0  0  0  0  0  0  0  0  0  0
    1.1957    0.6735    3.0691 H   0  0  0  0  0  0  0  0  0  0  0  0
    1.4408    3.1614    2.9741 H   0  0  0  0  0  0  0  0  0  0  0  0
    0.4782    3.1943    1.4920 H   0  0  0  0  0  0  0  0  0  0  0  0
    3.1507    1.7297    1.8607 H   0  0  0  0  0  0  0  0  0  0  0  0
    2.2053    1.7389    0.3658 H   0  0  0  0  0  0  0  0  0  0  0  0
   -1.8809    2.1372    2.9959 N   0  0  0  0  0  0  0  0  0  0  0  0
   -3.0802    2.3534    3.8131 C   0  0  2  0  0  0  0  0  0  0  0  0
   -4.3754    2.2440    2.9836 C   0  0  0  0  0  0  0  0  0  0  0  0
   -4.3638    2.4519    1.7758 O   0  0  0  0  0  0  0  0  0  0  0  0
   -2.9847    3.7368    4.4631 C   0  0  0  0  0  0  0  0  0  0  0  0
   -1.9748    2.2560    1.9876 H   0  0  0  0  0  0  0  0  0  0  0  0
   -3.1290    1.5906    4.5969 H   0  0  0  0  0  0  0  0  0  0  0  0
   -2.9341    4.5169    3.6962 H   0  0  0  0  0  0  0  0  0  0  0  0
   -3.8576    3.9239    5.0954 H   0  0  0  0  0  0  0  0  0  0  0  0
   -2.0873    3.8028    5.0864 H   0  0  0  0  0  0  0  0  0  0  0  0
   -5.5700    1.9236    3.6034 N   0  0  0  0  0  0  0  0  0  0  0  0
   -6.8306    1.7843    2.8862 C   0  0  0  0  0  0  0  0  0  0  0  0
   -5.5430    1.7279    4.5994 H   0  0  0  0  0  0  0  0  0  0  0  0
   -7.1012    2.7283    2.4016 H   0  0  0  0  0  0  0  0  0  0  0  0
   -6.7511    1.0047    2.1214 H   0  0  0  0  0  0  0  0  0  0  0  0
   -7.6311    1.5091    3.5795 H   0  0  0  0  0  0  0  0  0  0  0  0
  1  2  2  0  0  0  0
  1  3  1  0  0  0  0
  1  7  1  0  0  0  0
  3  4  1  0  0  0  0
  3  5  1  0  0  0  0
  3  6  1  0  0  0  0
  7  8  1  0  0  0  0
  7 12  1  0  0  0  0
  8  9  1  0  0  0  0
  8 11  1  0  0  0  0
  8 13  1  0  0  0  0
  9 10  2  0  0  0  0
  9 17  1  0  0  0  0
 11 14  1  0  0  0  0
 11 15  1  0  0  0  0
 11 16  1  0  0  0  0
 17 18  1  0  0  0  0
 17 26  1  0  0  0  0
 18 19  1  0  0  0  0
 18 21  1  0  0  0  0
 18 27  1  0  0  0  0
 19 20  2  0  0  0  0
 19 32  1  0  0  0  0
 21 22  1  0  0  0  0
 21 28  1  0  0  0  0
 21 29  1  0  0  0  0
 22 23  1  0  0  0  0
 22 30  1  0  0  0  0
 22 31  1  0  0  0  0
 23 24  1  0  0  0  0
 23 25  2  0  0  0  0
 32 33  1  0  0  0  0
 32 37  1  0  0  0  0
 33 34  1  0  0  0  0
 33 36  1  0  0  0  0
 33 38  1  0  0  0  0
 34 35  2  0  0  0  0
 34 42  1  0  0  0  0
 36 39  1  0  0  0  0
 36 40  1  0  0  0  0
 36 41  1  0  0  0  0
 42 43  1  0  0  0  0
 42 44  1  0  0  0  0
 43 45  1  0  0  0  0
 43 46  1  0  0  0  0
 43 47  1  0  0  0  0
M  CHG  1  24  -1
M  END
$$$$

  -OEChem-02062319073D

 47 46  0     1  0  0  0  0  0999 V2000
   -0.8544   -4.1057    2.8163 C   0  0  0  0  0  0  0  0  0  0  0  0
   -0.0306   -4.1905    3.7128 O   0  0  0  0  0  0  0  0  0  0  0  0
   -1.9481   -5.1507    2.6937 C   0  0  0  0  0  0  0  0  0  0  0  0
   -1.8874   -5.6406    1.7188 H   0  0  0  0  0  0  0  0  0  0  0  0
   -1.8376   -5.9070    3.4756 H   0  0  0  0  0  0  0  0  0  0  0  0
   -2.9281   -4.6782    2.7962 H   0  0  0  0  0  0  0  0  0  0  0  0
   -0.8034   -3.0689    1.9106 N   0  0  0  0  0  0  0  0  0  0  0  0
    0.1013   -1.9149    1.9963 C   0  0  2  0  0  0  0  0  0  0  0  0
   -0.5551   -0.6689    1.3575 C   0  0  0  0  0  0  0  0  0  0  0  0
   -1.5420   -0.7872    0.6427 O   0  0  0  0  0  0  0  0  0  0  0  0
    1.4095   -2.2716    1.2821 C   0  0  0  0  0  0  0  0  0  0  0  0
   -1.5747   -2.9839    1.2495 H   0  0  0  0  0  0  0  0  0  0  0  0
    0.3118   -1.6825    3.0463 H   0  0  0  0  0  0  0  0  0  0  0  0
    1.2191   -2.5044    0.2297 H   0  0  0  0  0  0  0  0  0  0  0  0
    2.1165   -1.4379    1.3306 H   0  0  0  0  0  0  0  0  0  0  0  0
    1.8735   -3.1426    1.7552 H   0  0  0  0  0  0  0  0  0  0  0  0
    0.0505    0.5635    1.2961 N   0  0  0  0  0  0  0  0  0  0  0  0
    0.7511    1.1428    2.4522 C   0  0  2  0  0  0  0  0  0  0  0  0
   -0.1722    1.3327    3.6722 C   0  0  0  0  0  0  0  0  0  0  0  0
    0.1733    0.9138    4.7686 O   0  0  0  0  0  0  0  0  0  0  0  0
    1.3357    2.5040    2.0464 C   0  0  0  0  0  0  0  0  0  0  0  0
    2.3926    2.3735    0.9371 C   0  0  0  0  0  0  0  0  0  0  0  0
    2.9344    3.7484    0.5508 C   0  0  0  0  0  0  0  0  0  0  0  0
    2.1384    4.5398   -0.0134 O   0  5  0  0  0  0  0  0  0  0  0  0
    4.1263    4.0133    0.8411 O   0  0  0  0  0  0  0  0  0  0  0  0
   -0.4178    1.2097    0.6647 H   0  0  0  0  0  0  0  0  0  0  0  0
    1.5779    0.4904    2.7515 H   0  0  0  0  0  0  0  0  0  0  0  0
    1.8030    2.9722    2.9201 H   0  0  0  0  0  0  0  0  0  0  0  0
    0.5327    3.1679    1.7071 H   0  0  0  0  0  0  0  0  0  0  0  0
    3.2131    1.7362    1.2802 H   0  0  0  0  0  0  0  0  0  0  0  0
    1.9583    1.9112    0.0465 H   0  0  0  0  0  0  0  0  0  0  0  0
   -1.4351    1.8756    3.5303 N   0  0  0  0  0  0  0  0  0  0  0  0
   -2.4245    1.9739    4.6090 C   0  0  2  0  0  0  0  0  0  0  0  0
   -3.8718    1.9213    4.0783 C   0  0  0  0  0  0  0  0  0  0  0  0
   -4.1220    2.2124    2.9143 O   0  0  0  0  0  0  0  0  0  0  0  0
   -2.1839    3.2826    5.3672 C   0  0  0  0  0  0  0  0  0  0  0  0
   -1.7439    2.1132    2.5879 H   0  0  0  0  0  0  0  0  0  0  0  0
   -2.2992    1.1310    5.2967 H   0  0  0  0  0  0  0  0  0  0  0  0
   -2.3029    4.1394    4.6962 H   0  0  0  0  0  0  0  0  0  0  0  0
   -2.8939    3.3841    6.1932 H   0  0  0  0  0  0  0  0  0  0  0  0
   -1.1700    3.3016    5.7795 H   0  0  0  0  0  0  0  0  0  0  0  0
   -4.9054    1.5506    4.9199 N   0  0  0  0  0  0  0  0  0  0  0  0
   -6.2949    1.4629    4.4902 C   0  0  0  0  0  0  0  0  0  0  0  0
   -4.6646    1.2948    5.8728 H   0  0  0  0  0  0  0  0  0  0  0  0
   -6.6587    2.4458    4.1738 H   0  0  0  0  0  0  0  0  0  0  0  0
   -6.3939    0.7633    3.6538 H   0  0  0  0  0  0  0  0  0  0  0  0
   -6.9234    1.1087    5.3127 H   0  0  0  0  0  0  0  0  0  0  0  0
  1  2  2  0  0  0  0
  1  3  1  0  0  0  0
  1  7  1  0  0  0  0
  3  4  1  0  0  0  0
  3  5  1  0  0  0  0
  3  6  1  0  0  0  0
  7  8  1  0  0  0  0
  7 12  1  0  0  0  0
  8  9  1  0  0  0  0
  8 11  1  0  0  0  0
  8 13  1  0  0  0  0
  9 10  2  0  0  0  0
  9 17  1  0  0  0  0
 11 14  1  0  0  0  0
 11 15  1  0  0  0  0
 11 16  1  0  0  0  0
 17 18  1  0  0  0  0
 17 26  1  0  0  0  0
 18 19  1  0  0  0  0
 18 21  1  0  0  0  0
 18 27  1  0  0  0  0
 19 20  2  0  0  0  0
 19 32  1  0  0  0  0
 21 22  1  0  0  0  0
 21 28  1  0  0  0  0
 21 29  1  0  0  0  0
 22 23  1  0  0  0  0
 22 30  1  0  0  0  0
 22 31  1  0  0  0  0
 23 24  1  0  0  0  0
 23 25  2  0  0  0  0
 32 33  1  0  0  0  0
 32 37  1  0  0  0  0
 33 34  1  0  0  0  0
 33 36  1  0  0  0  0
 33 38  1  0  0  0  0
 34 35  2  0  0  0  0
 34 42  1  0  0  0  0
 36 39  1  0  0  0  0
 36 40  1  0  0  0  0
 36 41  1  0  0  0  0
 42 43  1  0  0  0  0
 42 44  1  0  0  0  0
 43 45  1  0  0  0  0
 43 46  1  0  0  0  0
 43 47  1  0  0  0  0
M  CHG  1  24  -1
M  END
$$$$

  -OEChem-02062319073D

 47 46  0     1  0  0  0  0  0999 V2000
   -0.9526   -4.0168    2.8551 C   0  0  0  0  0  0  0  0  0  0  0  0
   -0.0931   -4.1315    3.7141 O   0  0  0  0  0  0  0  0  0  0  0  0
   -2.1354   -4.9671    2.8390 C   0  0  0  0  0  0  0  0  0  0  0  0
   -2.1578   -5.5175    1.8956 H   0  0  0  0  0  0  0  0  0  0  0  0
   -2.0572   -5.6819    3.6630 H   0  0  0  0  0  0  0  0  0  0  0  0
   -3.0661   -4.4049    2.9472 H   0  0  0  0  0  0  0  0  0  0  0  0
   -0.8647   -3.0311    1.8968 N   0  0  0  0  0  0  0  0  0  0  0  0
    0.1178   -1.9393    1.8972 C   0  0  2  0  0  0  0  0  0  0  0  0
   -0.5070   -0.6623    1.2874 C   0  0  0  0  0  0  0  0  0  0  0  0
   -1.5212   -0.7379    0.6059 O   0  0  0  0  0  0  0  0  0  0  0  0
    1.3384   -2.3910    1.0897 C   0  0  0  0  0  0  0  0  0  0  0  0
   -1.6657   -2.9090    1.2776 H   0  0  0  0  0  0  0  0  0  0  0  0
    0.4245   -1.7119    2.9238 H   0  0  0  0  0  0  0  0  0  0  0  0
    1.0512   -2.6220    0.0591 H   0  0  0  0  0  0  0  0  0  0  0  0
    2.1002   -1.6064    1.0694 H   0  0  0  0  0  0  0  0  0  0  0  0
    1.7791   -3.2857    1.5399 H   0  0  0  0  0  0  0  0  0  0  0  0
    0.0973    0.5734    1.2801 N   0  0  0  0  0  0  0  0  0  0  0  0
    1.0391    1.0410    2.3080 C   0  0  2  0  0  0  0  0  0  0  0  0
    0.4140    1.0729    3.7165 C   0  0  0  0  0  0  0  0  0  0  0  0
    1.0047    0.5568    4.6555 O   0  0  0  0  0  0  0  0  0  0  0  0
    1.5107    2.4550    1.9364 C   0  0  0  0  0  0  0  0  0  0  0  0
    2.2910    2.4766    0.6108 C   0  0  0  0  0  0  0  0  0  0  0  0
    2.6979    3.9046    0.2529 C   0  0  0  0  0  0  0  0  0  0  0  0
    1.7756    4.7065   -0.0369 O   0  5  0  0  0  0  0  0  0  0  0  0
    3.9177    4.1962    0.2922 O   0  0  0  0  0  0  0  0  0  0  0  0
   -0.3788    1.2716    0.7122 H   0  0  0  0  0  0  0  0  0  0  0  0
    1.9138    0.3836    2.3391 H   0  0  0  0  0  0  0  0  0  0  0  0
    2.1595    2.8425    2.7302 H   0  0  0  0  0  0  0  0  0  0  0  0
    0.6472    3.1257    1.8615 H   0  0  0  0  0  0  0  0  0  0  0  0
    3.1829    1.8486    0.6957 H   0  0  0  0  0  0  0  0  0  0  0  0
    1.6777    2.0793   -0.2025 H   0  0  0  0  0  0  0  0  0  0  0  0
   -0.8489    1.5945    3.9233 N   0  0  0  0  0  0  0  0  0  0  0  0
   -1.5799    1.5153    5.1936 C   0  0  2  0  0  0  0  0  0  0  0  0
   -3.1065    1.4287    4.9872 C   0  0  0  0  0  0  0  0  0  0  0  0
   -3.6136    1.7482    3.9181 O   0  0  0  0  0  0  0  0  0  0  0  0
   -1.2184    2.7447    6.0321 C   0  0  0  0  0  0  0  0  0  0  0  0
   -1.3681    1.9045    3.1018 H   0  0  0  0  0  0  0  0  0  0  0  0
   -1.2777    0.6122    5.7340 H   0  0  0  0  0  0  0  0  0  0  0  0
   -1.5113    3.6622    5.5114 H   0  0  0  0  0  0  0  0  0  0  0  0
   -1.7273    2.7136    7.0000 H   0  0  0  0  0  0  0  0  0  0  0  0
   -0.1390    2.7758    6.2115 H   0  0  0  0  0  0  0  0  0  0  0  0
   -3.9203    0.9798    6.0124 N   0  0  0  0  0  0  0  0  0  0  0  0
   -5.3657    0.8446    5.8876 C   0  0  0  0  0  0  0  0  0  0  0  0
   -3.4700    0.6935    6.8765 H   0  0  0  0  0  0  0  0  0  0  0  0
   -5.8235    1.8161    5.6732 H   0  0  0  0  0  0  0  0  0  0  0  0
   -5.6170    0.1493    5.0795 H   0  0  0  0  0  0  0  0  0  0  0  0
   -5.7907    0.4600    6.8196 H   0  0  0  0  0  0  0  0  0  0  0  0
  1  2  2  0  0  0  0
  1  3  1  0  0  0  0
  1  7  1  0  0  0  0
  3  4  1  0  0  0  0
  3  5  1  0  0  0  0
  3  6  1  0  0  0  0
  7  8  1  0  0  0  0
  7 12  1  0  0  0  0
  8  9  1  0  0  0  0
  8 11  1  0  0  0  0
  8 13  1  0  0  0  0
  9 10  2  0  0  0  0
  9 17  1  0  0  0  0
 11 14  1  0  0  0  0
 11 15  1  0  0  0  0
 11 16  1  0  0  0  0
 17 18  1  0  0  0  0
 17 26  1  0  0  0  0
 18 19  1  0  0  0  0
 18 21  1  0  0  0  0
 18 27  1  0  0  0  0
 19 20  2  0  0  0  0
 19 32  1  0  0  0  0
 21 22  1  0  0  0  0
 21 28  1  0  0  0  0
 21 29  1  0  0  0  0
 22 23  1  0  0  0  0
 22 30  1  0  0  0  0
 22 31  1  0  0  0  0
 23 24  1  0  0  0  0
 23 25  2  0  0  0  0
 32 33  1  0  0  0  0
 32 37  1  0  0  0  0
 33 34  1  0  0  0  0
 33 36  1  0  0  0  0
 33 38  1  0  0  0  0
 34 35  2  0  0  0  0
 34 42  1  0  0  0  0
 36 39  1  0  0  0  0
 36 40  1  0  0  0  0
 36 41  1  0  0  0  0
 42 43  1  0  0  0  0
 42 44  1  0  0  0  0
 43 45  1  0  0  0  0
 43 46  1  0  0  0  0
 43 47  1  0  0  0  0
M  CHG  1  24  -1
M  END
$$$$

  -OEChem-02062319073D

 47 46  0     1  0  0  0  0  0999 V2000
   -1.4928   -3.2439    3.4496 C   0  0  0  0  0  0  0  0  0  0  0  0
   -1.1256   -2.6462    4.4499 O   0  0  0  0  0  0  0  0  0  0  0  0
   -2.7353   -4.1129    3.5063 C   0  0  0  0  0  0  0  0  0  0  0  0
   -2.5008   -5.1232    3.1623 H   0  0  0  0  0  0  0  0  0  0  0  0
   -3.1112   -4.1687    4.5317 H   0  0  0  0  0  0  0  0  0  0  0  0
   -3.5141   -3.6891    2.8672 H   0  0  0  0  0  0  0  0  0  0  0  0
   -0.8219   -3.0980    2.2542 N   0  0  0  0  0  0  0  0  0  0  0  0
    0.1668   -2.0337    2.0262 C   0  0  2  0  0  0  0  0  0  0  0  0
   -0.4993   -0.7666    1.4373 C   0  0  0  0  0  0  0  0  0  0  0  0
   -1.5606   -0.8490    0.8336 O   0  0  0  0  0  0  0  0  0  0  0  0
    1.2189   -2.5867    1.0619 C   0  0  0  0  0  0  0  0  0  0  0  0
   -1.3392   -3.4052    1.4348 H   0  0  0  0  0  0  0  0  0  0  0  0
    0.6647   -1.7725    2.9647 H   0  0  0  0  0  0  0  0  0  0  0  0
    0.7599   -2.8551    0.1050 H   0  0  0  0  0  0  0  0  0  0  0  0
    1.9982   -1.8421    0.8745 H   0  0  0  0  0  0  0  0  0  0  0  0
    1.6904   -3.4779    1.4874 H   0  0  0  0  0  0  0  0  0  0  0  0
    0.0793    0.4818    1.4080 N   0  0  0  0  0  0  0  0  0  0  0  0
    1.2572    0.9106    2.1771 C   0  0  2  0  0  0  0  0  0  0  0  0
    1.0536    0.8020    3.7014 C   0  0  0  0  0  0  0  0  0  0  0  0
    1.9073    0.2614    4.3902 O   0  0  0  0  0  0  0  0  0  0  0  0
    1.5755    2.3663    1.8058 C   0  0  0  0  0  0  0  0  0  0  0  0
    1.9657    2.5073    0.3240 C   0  0  0  0  0  0  0  0  0  0  0  0
    2.2111    3.9723   -0.0288 C   0  0  0  0  0  0  0  0  0  0  0  0
    1.2179    4.7402    0.0044 O   0  5  0  0  0  0  0  0  0  0  0  0
    3.3820    4.3220   -0.3120 O   0  0  0  0  0  0  0  0  0  0  0  0
   -0.4218    1.1769    0.8572 H   0  0  0  0  0  0  0  0  0  0  0  0
    2.1193    0.2921    1.9083 H   0  0  0  0  0  0  0  0  0  0  0  0
    2.4067    2.7271    2.4222 H   0  0  0  0  0  0  0  0  0  0  0  0
    0.7086    3.0022    2.0178 H   0  0  0  0  0  0  0  0  0  0  0  0
    2.8684    1.9228    0.1214 H   0  0  0  0  0  0  0  0  0  0  0  0
    1.1694    2.1287   -0.3224 H   0  0  0  0  0  0  0  0  0  0  0  0
   -0.1178    1.2490    4.2834 N   0  0  0  0  0  0  0  0  0  0  0  0
   -0.4028    1.2136    5.7258 C   0  0  2  0  0  0  0  0  0  0  0  0
   -1.8880    0.8892    6.0105 C   0  0  0  0  0  0  0  0  0  0  0  0
   -2.6243    1.6822    6.5885 O   0  0  0  0  0  0  0  0  0  0  0  0
    0.0453    2.5542    6.3221 C   0  0  0  0  0  0  0  0  0  0  0  0
   -0.7875    1.7038    3.6675 H   0  0  0  0  0  0  0  0  0  0  0  0
    0.1789    0.4163    6.2002 H   0  0  0  0  0  0  0  0  0  0  0  0
   -0.5180    3.3807    5.8772 H   0  0  0  0  0  0  0  0  0  0  0  0
   -0.1184    2.5629    7.4041 H   0  0  0  0  0  0  0  0  0  0  0  0
    1.1110    2.7159    6.1330 H   0  0  0  0  0  0  0  0  0  0  0  0
   -2.4163   -0.3154    5.5880 N   0  0  0  0  0  0  0  0  0  0  0  0
   -3.7933   -0.7238    5.8218 C   0  0  0  0  0  0  0  0  0  0  0  0
   -1.7682   -0.9933    5.1754 H   0  0  0  0  0  0  0  0  0  0  0  0
   -4.0015   -0.7728    6.8955 H   0  0  0  0  0  0  0  0  0  0  0  0
   -4.4871   -0.0158    5.3573 H   0  0  0  0  0  0  0  0  0  0  0  0
   -3.9679   -1.7132    5.3892 H   0  0  0  0  0  0  0  0  0  0  0  0
  1  2  2  0  0  0  0
  1  3  1  0  0  0  0
  1  7  1  0  0  0  0
  3  4  1  0  0  0  0
  3  5  1  0  0  0  0
  3  6  1  0  0  0  0
  7  8  1  0  0  0  0
  7 12  1  0  0  0  0
  8  9  1  0  0  0  0
  8 11  1  0  0  0  0
  8 13  1  0  0  0  0
  9 10  2  0  0  0  0
  9 17  1  0  0  0  0
 11 14  1  0  0  0  0
 11 15  1  0  0  0  0
 11 16  1  0  0  0  0
 17 18  1  0  0  0  0
 17 26  1  0  0  0  0
 18 19  1  0  0  0  0
 18 21  1  0  0  0  0
 18 27  1  0  0  0  0
 19 20  2  0  0  0  0
 19 32  1  0  0  0  0
 21 22  1  0  0  0  0
 21 28  1  0  0  0  0
 21 29  1  0  0  0  0
 22 23  1  0  0  0  0
 22 30  1  0  0  0  0
 22 31  1  0  0  0  0
 23 24  1  0  0  0  0
 23 25  2  0  0  0  0
 32 33  1  0  0  0  0
 32 37  1  0  0  0  0
 33 34  1  0  0  0  0
 33 36  1  0  0  0  0
 33 38  1  0  0  0  0
 34 35  2  0  0  0  0
 34 42  1  0  0  0  0
 36 39  1  0  0  0  0
 36 40  1  0  0  0  0
 36 41  1  0  0  0  0
 42 43  1  0  0  0  0
 42 44  1  0  0  0  0
 43 45  1  0  0  0  0
 43 46  1  0  0  0  0
 43 47  1  0  0  0  0
M  CHG  1  24  -1
M  END
$$$$

  -OEChem-02062319073D

 47 46  0     1  0  0  0  0  0999 V2000
   -1.1306   -3.3617    3.6359 C   0  0  0  0  0  0  0  0  0  0  0  0
   -0.3962   -3.0846    4.5740 O   0  0  0  0  0  0  0  0  0  0  0  0
   -2.4190   -4.1193    3.8977 C   0  0  0  0  0  0  0  0  0  0  0  0
   -2.4629   -5.0118    3.2685 H   0  0  0  0  0  0  0  0  0  0  0  0
   -2.4719   -4.4251    4.9464 H   0  0  0  0  0  0  0  0  0  0  0  0
   -3.2767   -3.4803    3.6720 H   0  0  0  0  0  0  0  0  0  0  0  0
   -0.8338   -2.9628    2.3497 N   0  0  0  0  0  0  0  0  0  0  0  0
    0.1824   -1.9521    2.0183 C   0  0  2  0  0  0  0  0  0  0  0  0
   -0.4863   -0.6707    1.4591 C   0  0  0  0  0  0  0  0  0  0  0  0
   -1.6204   -0.7300    1.0020 O   0  0  0  0  0  0  0  0  0  0  0  0
    1.1270   -2.5686    0.9848 C   0  0  0  0  0  0  0  0  0  0  0  0
   -1.6040   -3.0329    1.6871 H   0  0  0  0  0  0  0  0  0  0  0  0
    0.7602   -1.6938    2.9076 H   0  0  0  0  0  0  0  0  0  0  0  0
    0.5814   -2.8269    0.0718 H   0  0  0  0  0  0  0  0  0  0  0  0
    1.9255   -1.8674    0.7264 H   0  0  0  0  0  0  0  0  0  0  0  0
    1.5859   -3.4764    1.3885 H   0  0  0  0  0  0  0  0  0  0  0  0
    0.0868    0.5814    1.3914 N   0  0  0  0  0  0  0  0  0  0  0  0
    1.4394    0.9629    1.8302 C   0  0  2  0  0  0  0  0  0  0  0  0
    1.6691    0.7079    3.3313 C   0  0  0  0  0  0  0  0  0  0  0  0
    2.5999   -0.0044    3.6840 O   0  0  0  0  0  0  0  0  0  0  0  0
    1.6475    2.4514    1.5182 C   0  0  0  0  0  0  0  0  0  0  0  0
    1.6403    2.7181    0.0034 C   0  0  0  0  0  0  0  0  0  0  0  0
    1.8018    4.2098   -0.2760 C   0  0  0  0  0  0  0  0  0  0  0  0
    0.8081    4.9427   -0.0499 O   0  5  0  0  0  0  0  0  0  0  0  0
    2.9183    4.6147   -0.6801 O   0  0  0  0  0  0  0  0  0  0  0  0
   -0.4686    1.2759    0.8937 H   0  0  0  0  0  0  0  0  0  0  0  0
    2.1858    0.3891    1.2717 H   0  0  0  0  0  0  0  0  0  0  0  0
    2.6094    2.7808    1.9272 H   0  0  0  0  0  0  0  0  0  0  0  0
    0.8637    3.0479    1.9986 H   0  0  0  0  0  0  0  0  0  0  0  0
    2.4538    2.1647   -0.4755 H   0  0  0  0  0  0  0  0  0  0  0  0
    0.7004    2.3824   -0.4432 H   0  0  0  0  0  0  0  0  0  0  0  0
    0.7065    1.0765    4.2513 N   0  0  0  0  0  0  0  0  0  0  0  0
    0.5795    0.4779    5.5857 C   0  0  2  0  0  0  0  0  0  0  0  0
   -0.9016    0.3089    5.9836 C   0  0  0  0  0  0  0  0  0  0  0  0
   -1.6370    1.2866    6.0653 O   0  0  0  0  0  0  0  0  0  0  0  0
    1.3266    1.3621    6.5874 C   0  0  0  0  0  0  0  0  0  0  0  0
   -0.0880    1.6061    3.8949 H   0  0  0  0  0  0  0  0  0  0  0  0
    1.0330   -0.5195    5.5932 H   0  0  0  0  0  0  0  0  0  0  0  0
    0.9085    2.3737    6.5946 H   0  0  0  0  0  0  0  0  0  0  0  0
    1.2485    0.9444    7.5955 H   0  0  0  0  0  0  0  0  0  0  0  0
    2.3857    1.4251    6.3186 H   0  0  0  0  0  0  0  0  0  0  0  0
   -1.4258   -0.9488    6.2150 N   0  0  0  0  0  0  0  0  0  0  0  0
   -2.8464   -1.1832    6.4333 C   0  0  0  0  0  0  0  0  0  0  0  0
   -0.8507   -1.7381    5.9059 H   0  0  0  0  0  0  0  0  0  0  0  0
   -3.2052   -0.6004    7.2880 H   0  0  0  0  0  0  0  0  0  0  0  0
   -3.4213   -0.8998    5.5454 H   0  0  0  0  0  0  0  0  0  0  0  0
   -3.0244   -2.2425    6.6411 H   0  0  0  0  0  0  0  0  0  0  0  0
  1  2  2  0  0  0  0
  1  3  1  0  0  0  0
  1  7  1  0  0  0  0
  3  4  1  0  0  0  0
  3  5  1  0  0  0  0
  3  6  1  0  0  0  0
  7  8  1  0  0  0  0
  7 12  1  0  0  0  0
  8  9  1  0  0  0  0
  8 11  1  0  0  0  0
  8 13  1  0  0  0  0
  9 10  2  0  0  0  0
  9 17  1  0  0  0  0
 11 14  1  0  0  0  0
 11 15  1  0  0  0  0
 11 16  1  0  0  0  0
 17 18  1  0  0  0  0
 17 26  1  0  0  0  0
 18 19  1  0  0  0  0
 18 21  1  0  0  0  0
 18 27  1  0  0  0  0
 19 20  2  0  0  0  0
 19 32  1  0  0  0  0
 21 22  1  0  0  0  0
 21 28  1  0  0  0  0
 21 29  1  0  0  0  0
 22 23  1  0  0  0  0
 22 30  1  0  0  0  0
 22 31  1  0  0  0  0
 23 24  1  0  0  0  0
 23 25  2  0  0  0  0
 32 33  1  0  0  0  0
 32 37  1  0  0  0  0
 33 34  1  0  0  0  0
 33 36  1  0  0  0  0
 33 38  1  0  0  0  0
 34 35  2  0  0  0  0
 34 42  1  0  0  0  0
 36 39  1  0  0  0  0
 36 40  1  0  0  0  0
 36 41  1  0  0  0  0
 42 43  1  0  0  0  0
 42 44  1  0  0  0  0
 43 45  1  0  0  0  0
 43 46  1  0  0  0  0
 43 47  1  0  0  0  0
M  CHG  1  24  -1
M  END
$$$$

  -OEChem-02062319073D

 47 46  0     1  0  0  0  0  0999 V2000
   -0.8808   -3.5978    3.5590 C   0  0  0  0  0  0  0  0  0  0  0  0
    0.0447   -3.5245    4.3562 O   0  0  0  0  0  0  0  0  0  0  0  0
   -2.1397   -4.3549    3.9392 C   0  0  0  0  0  0  0  0  0  0  0  0
   -2.3158   -5.1663    3.2287 H   0  0  0  0  0  0  0  0  0  0  0  0
   -2.0379   -4.7798    4.9418 H   0  0  0  0  0  0  0  0  0  0  0  0
   -2.9983   -3.6783    3.9286 H   0  0  0  0  0  0  0  0  0  0  0  0
   -0.8160   -2.9695    2.3337 N   0  0  0  0  0  0  0  0  0  0  0  0
    0.1934   -1.9634    1.9722 C   0  0  2  0  0  0  0  0  0  0  0  0
   -0.4866   -0.6776    1.4337 C   0  0  0  0  0  0  0  0  0  0  0  0
   -1.6621   -0.7191    1.0930 O   0  0  0  0  0  0  0  0  0  0  0  0
    1.1154   -2.5821    0.9191 C   0  0  0  0  0  0  0  0  0  0  0  0
   -1.6933   -2.9080    1.8178 H   0  0  0  0  0  0  0  0  0  0  0  0
    0.7827   -1.7041    2.8524 H   0  0  0  0  0  0  0  0  0  0  0  0
    0.5516   -2.8333    0.0152 H   0  0  0  0  0  0  0  0  0  0  0  0
    1.9152   -1.8868    0.6496 H   0  0  0  0  0  0  0  0  0  0  0  0
    1.5753   -3.4946    1.3109 H   0  0  0  0  0  0  0  0  0  0  0  0
    0.0669    0.5856    1.3766 N   0  0  0  0  0  0  0  0  0  0  0  0
    1.4909    0.9358    1.5199 C   0  0  2  0  0  0  0  0  0  0  0  0
    2.0805    0.5179    2.8795 C   0  0  0  0  0  0  0  0  0  0  0  0
    3.0318   -0.2516    2.9132 O   0  0  0  0  0  0  0  0  0  0  0  0
    1.6356    2.4538    1.3382 C   0  0  0  0  0  0  0  0  0  0  0  0
    1.2797    2.8896   -0.0933 C   0  0  0  0  0  0  0  0  0  0  0  0
    1.4160    4.4031   -0.2398 C   0  0  0  0  0  0  0  0  0  0  0  0
    0.5311    5.1108    0.3004 O   0  5  0  0  0  0  0  0  0  0  0  0
    2.4130    4.8453   -0.8600 O   0  0  0  0  0  0  0  0  0  0  0  0
   -0.5438    1.2816    0.9509 H   0  0  0  0  0  0  0  0  0  0  0  0
    2.0713    0.4408    0.7349 H   0  0  0  0  0  0  0  0  0  0  0  0
    2.6699    2.7503    1.5466 H   0  0  0  0  0  0  0  0  0  0  0  0
    0.9910    2.9798    2.0519 H   0  0  0  0  0  0  0  0  0  0  0  0
    1.9413    2.3919   -0.8085 H   0  0  0  0  0  0  0  0  0  0  0  0
    0.2515    2.6090   -0.3378 H   0  0  0  0  0  0  0  0  0  0  0  0
    1.3713    0.7682    4.0389 N   0  0  0  0  0  0  0  0  0  0  0  0
    1.5257   -0.0008    5.2801 C   0  0  2  0  0  0  0  0  0  0  0  0
    0.1721   -0.1631    6.0026 C   0  0  0  0  0  0  0  0  0  0  0  0
   -0.4904    0.8250    6.2991 O   0  0  0  0  0  0  0  0  0  0  0  0
    2.5443    0.7105    6.1742 C   0  0  0  0  0  0  0  0  0  0  0  0
    0.5375    1.3480    3.9474 H   0  0  0  0  0  0  0  0  0  0  0  0
    1.8985   -1.0058    5.0540 H   0  0  0  0  0  0  0  0  0  0  0  0
    2.2060    1.7243    6.4104 H   0  0  0  0  0  0  0  0  0  0  0  0
    2.6789    0.1596    7.1097 H   0  0  0  0  0  0  0  0  0  0  0  0
    3.5121    0.7751    5.6673 H   0  0  0  0  0  0  0  0  0  0  0  0
   -0.3270   -1.4191    6.2916 N   0  0  0  0  0  0  0  0  0  0  0  0
   -1.6576   -1.6309    6.8436 C   0  0  0  0  0  0  0  0  0  0  0  0
    0.1215   -2.2056    5.8128 H   0  0  0  0  0  0  0  0  0  0  0  0
   -1.7765   -1.0789    7.7817 H   0  0  0  0  0  0  0  0  0  0  0  0
   -2.4224   -1.2953    6.1358 H   0  0  0  0  0  0  0  0  0  0  0  0
   -1.8132   -2.6943    7.0483 H   0  0  0  0  0  0  0  0  0  0  0  0
  1  2  2  0  0  0  0
  1  3  1  0  0  0  0
  1  7  1  0  0  0  0
  3  4  1  0  0  0  0
  3  5  1  0  0  0  0
  3  6  1  0  0  0  0
  7  8  1  0  0  0  0
  7 12  1  0  0  0  0
  8  9  1  0  0  0  0
  8 11  1  0  0  0  0
  8 13  1  0  0  0  0
  9 10  2  0  0  0  0
  9 17  1  0  0  0  0
 11 14  1  0  0  0  0
 11 15  1  0  0  0  0
 11 16  1  0  0  0  0
 17 18  1  0  0  0  0
 17 26  1  0  0  0  0
 18 19  1  0  0  0  0
 18 21  1  0  0  0  0
 18 27  1  0  0  0  0
 19 20  2  0  0  0  0
 19 32  1  0  0  0  0
 21 22  1  0  0  0  0
 21 28  1  0  0  0  0
 21 29  1  0  0  0  0
 22 23  1  0  0  0  0
 22 30  1  0  0  0  0
 22 31  1  0  0  0  0
 23 24  1  0  0  0  0
 23 25  2  0  0  0  0
 32 33  1  0  0  0  0
 32 37  1  0  0  0  0
 33 34  1  0  0  0  0
 33 36  1  0  0  0  0
 33 38  1  0  0  0  0
 34 35  2  0  0  0  0
 34 42  1  0  0  0  0
 36 39  1  0  0  0  0
 36 40  1  0  0  0  0
 36 41  1  0  0  0  0
 42 43  1  0  0  0  0
 42 44  1  0  0  0  0
 43 45  1  0  0  0  0
 43 46  1  0  0  0  0
 43 47  1  0  0  0  0
M  CHG  1  24  -1
M  END
$$$$

  -OEChem-02062319073D

 47 46  0     1  0  0  0  0  0999 V2000
   -0.6424   -3.7669    3.4183 C   0  0  0  0  0  0  0  0  0  0  0  0
    0.4494   -3.8598    3.9631 O   0  0  0  0  0  0  0  0  0  0  0  0
   -1.8285   -4.5320    3.9743 C   0  0  0  0  0  0  0  0  0  0  0  0
   -2.2330   -5.2000    3.2099 H   0  0  0  0  0  0  0  0  0  0  0  0
   -1.5232   -5.1279    4.8391 H   0  0  0  0  0  0  0  0  0  0  0  0
   -2.6084   -3.8328    4.2861 H   0  0  0  0  0  0  0  0  0  0  0  0
   -0.8155   -2.9426    2.3279 N   0  0  0  0  0  0  0  0  0  0  0  0
    0.1847   -1.9797    1.8490 C   0  0  2  0  0  0  0  0  0  0  0  0
   -0.4898   -0.6869    1.3233 C   0  0  0  0  0  0  0  0  0  0  0  0
   -1.6889   -0.7040    1.0758 O   0  0  0  0  0  0  0  0  0  0  0  0
    1.0012   -2.6516    0.7413 C   0  0  0  0  0  0  0  0  0  0  0  0
   -1.7715   -2.7854    2.0096 H   0  0  0  0  0  0  0  0  0  0  0  0
    0.8442   -1.7178    2.6748 H   0  0  0  0  0  0  0  0  0  0  0  0
    0.3520   -2.9428   -0.0905 H   0  0  0  0  0  0  0  0  0  0  0  0
    1.7700   -1.9734    0.3600 H   0  0  0  0  0  0  0  0  0  0  0  0
    1.4978   -3.5466    1.1287 H   0  0  0  0  0  0  0  0  0  0  0  0
    0.0532    0.5828    1.3137 N   0  0  0  0  0  0  0  0  0  0  0  0
    1.4851    0.9178    1.2028 C   0  0  2  0  0  0  0  0  0  0  0  0
    2.3489    0.3443    2.3425 C   0  0  0  0  0  0  0  0  0  0  0  0
    3.2712   -0.4180    2.0862 O   0  0  0  0  0  0  0  0  0  0  0  0
    1.6226    2.4468    1.1776 C   0  0  0  0  0  0  0  0  0  0  0  0
    0.9634    3.0592   -0.0697 C   0  0  0  0  0  0  0  0  0  0  0  0
    1.1132    4.5782   -0.0552 C   0  0  0  0  0  0  0  0  0  0  0  0
    0.4014    5.2138    0.7604 O   0  5  0  0  0  0  0  0  0  0  0  0
    1.9566    5.0928   -0.8281 O   0  0  0  0  0  0  0  0  0  0  0  0
   -0.6028    1.2893    0.9831 H   0  0  0  0  0  0  0  0  0  0  0  0
    1.8757    0.5217    0.2594 H   0  0  0  0  0  0  0  0  0  0  0  0
    2.6846    2.7176    1.1793 H   0  0  0  0  0  0  0  0  0  0  0  0
    1.1705    2.8784    2.0779 H   0  0  0  0  0  0  0  0  0  0  0  0
    1.4284    2.6534   -0.9733 H   0  0  0  0  0  0  0  0  0  0  0  0
   -0.1022    2.8167   -0.1030 H   0  0  0  0  0  0  0  0  0  0  0  0
    1.9046    0.4512    3.6476 N   0  0  0  0  0  0  0  0  0  0  0  0
    2.3547   -0.3978    4.7577 C   0  0  2  0  0  0  0  0  0  0  0  0
    1.2196   -0.6240    5.7786 C   0  0  0  0  0  0  0  0  0  0  0  0
    0.6846    0.3332    6.3269 O   0  0  0  0  0  0  0  0  0  0  0  0
    3.5650    0.2636    5.4225 C   0  0  0  0  0  0  0  0  0  0  0  0
    1.0989    1.0549    3.8094 H   0  0  0  0  0  0  0  0  0  0  0  0
    2.6563   -1.3798    4.3774 H   0  0  0  0  0  0  0  0  0  0  0  0
    3.3003    1.2558    5.8019 H   0  0  0  0  0  0  0  0  0  0  0  0
    3.9202   -0.3469    6.2579 H   0  0  0  0  0  0  0  0  0  0  0  0
    4.3806    0.3722    4.7011 H   0  0  0  0  0  0  0  0  0  0  0  0
    0.7655   -1.8987    6.0615 N   0  0  0  0  0  0  0  0  0  0  0  0
   -0.3882   -2.1531    6.9130 C   0  0  0  0  0  0  0  0  0  0  0  0
    1.0516   -2.6398    5.4150 H   0  0  0  0  0  0  0  0  0  0  0  0
   -0.2287   -1.7323    7.9113 H   0  0  0  0  0  0  0  0  0  0  0  0
   -1.2892   -1.7061    6.4803 H   0  0  0  0  0  0  0  0  0  0  0  0
   -0.5480   -3.2308    7.0143 H   0  0  0  0  0  0  0  0  0  0  0  0
  1  2  2  0  0  0  0
  1  3  1  0  0  0  0
  1  7  1  0  0  0  0
  3  4  1  0  0  0  0
  3  5  1  0  0  0  0
  3  6  1  0  0  0  0
  7  8  1  0  0  0  0
  7 12  1  0  0  0  0
  8  9  1  0  0  0  0
  8 11  1  0  0  0  0
  8 13  1  0  0  0  0
  9 10  2  0  0  0  0
  9 17  1  0  0  0  0
 11 14  1  0  0  0  0
 11 15  1  0  0  0  0
 11 16  1  0  0  0  0
 17 18  1  0  0  0  0
 17 26  1  0  0  0  0
 18 19  1  0  0  0  0
 18 21  1  0  0  0  0
 18 27  1  0  0  0  0
 19 20  2  0  0  0  0
 19 32  1  0  0  0  0
 21 22  1  0  0  0  0
 21 28  1  0  0  0  0
 21 29  1  0  0  0  0
 22 23  1  0  0  0  0
 22 30  1  0  0  0  0
 22 31  1  0  0  0  0
 23 24  1  0  0  0  0
 23 25  2  0  0  0  0
 32 33  1  0  0  0  0
 32 37  1  0  0  0  0
 33 34  1  0  0  0  0
 33 36  1  0  0  0  0
 33 38  1  0  0  0  0
 34 35  2  0  0  0  0
 34 42  1  0  0  0  0
 36 39  1  0  0  0  0
 36 40  1  0  0  0  0
 36 41  1  0  0  0  0
 42 43  1  0  0  0  0
 42 44  1  0  0  0  0
 43 45  1  0  0  0  0
 43 46  1  0  0  0  0
 43 47  1  0  0  0  0
M  CHG  1  24  -1
M  END
$$$$

  -OEChem-02062319073D

 47 46  0     1  0  0  0  0  0999 V2000
   -0.4828   -3.8932    3.2464 C   0  0  0  0  0  0  0  0  0  0  0  0
    0.6774   -4.0835    3.5858 O   0  0  0  0  0  0  0  0  0  0  0  0
   -1.6007   -4.6874    3.8959 C   0  0  0  0  0  0  0  0  0  0  0  0
   -2.1473   -5.2522    3.1365 H   0  0  0  0  0  0  0  0  0  0  0  0
   -1.1910   -5.3879    4.6289 H   0  0  0  0  0  0  0  0  0  0  0  0
   -2.2921   -4.0106    4.4041 H   0  0  0  0  0  0  0  0  0  0  0  0
   -0.7833   -2.9426    2.2952 N   0  0  0  0  0  0  0  0  0  0  0  0
    0.1898   -2.0167    1.7028 C   0  0  2  0  0  0  0  0  0  0  0  0
   -0.4881   -0.7149    1.2071 C   0  0  0  0  0  0  0  0  0  0  0  0
   -1.6991   -0.7251    1.0272 O   0  0  0  0  0  0  0  0  0  0  0  0
    0.8739   -2.7270    0.5300 C   0  0  0  0  0  0  0  0  0  0  0  0
   -1.7666   -2.7472    2.1075 H   0  0  0  0  0  0  0  0  0  0  0  0
    0.9301   -1.7639    2.4582 H   0  0  0  0  0  0  0  0  0  0  0  0
    0.1320   -3.0421   -0.2103 H   0  0  0  0  0  0  0  0  0  0  0  0
    1.5900   -2.0630    0.0380 H   0  0  0  0  0  0  0  0  0  0  0  0
    1.4133   -3.6114    0.8826 H   0  0  0  0  0  0  0  0  0  0  0  0
    0.0257    0.5657    1.2678 N   0  0  0  0  0  0  0  0  0  0  0  0
    1.4084    0.9424    0.9142 C   0  0  2  0  0  0  0  0  0  0  0  0
    2.4973    0.2519    1.7600 C   0  0  0  0  0  0  0  0  0  0  0  0
    3.3457   -0.4463    1.2221 O   0  0  0  0  0  0  0  0  0  0  0  0
    1.5408    2.4665    1.0554 C   0  0  0  0  0  0  0  0  0  0  0  0
    0.6513    3.2131    0.0466 C   0  0  0  0  0  0  0  0  0  0  0  0
    0.8077    4.7222    0.2159 C   0  0  0  0  0  0  0  0  0  0  0  0
    0.2442    5.2470    1.2073 O   0  5  0  0  0  0  0  0  0  0  0  0
    1.5128    5.3366   -0.6204 O   0  0  0  0  0  0  0  0  0  0  0  0
   -0.6838    1.2648    1.0518 H   0  0  0  0  0  0  0  0  0  0  0  0
    1.5933    0.6767   -0.1324 H   0  0  0  0  0  0  0  0  0  0  0  0
    2.5830    2.7603    0.8847 H   0  0  0  0  0  0  0  0  0  0  0  0
    1.2737    2.7730    2.0732 H   0  0  0  0  0  0  0  0  0  0  0  0
    0.9261    2.9290   -0.9738 H   0  0  0  0  0  0  0  0  0  0  0  0
   -0.4011    2.9552    0.1935 H   0  0  0  0  0  0  0  0  0  0  0  0
    2.3396    0.1814    3.1323 N   0  0  0  0  0  0  0  0  0  0  0  0
    3.0696   -0.7280    4.0248 C   0  0  2  0  0  0  0  0  0  0  0  0
    2.2530   -1.0167    5.3036 C   0  0  0  0  0  0  0  0  0  0  0  0
    1.9856   -0.1083    6.0819 O   0  0  0  0  0  0  0  0  0  0  0  0
    4.4272   -0.1054    4.3680 C   0  0  0  0  0  0  0  0  0  0  0  0
    1.6161    0.7719    3.5413 H   0  0  0  0  0  0  0  0  0  0  0  0
    3.2411   -1.6836    3.5177 H   0  0  0  0  0  0  0  0  0  0  0  0
    4.2936    0.8663    4.8543 H   0  0  0  0  0  0  0  0  0  0  0  0
    4.9854   -0.7600    5.0439 H   0  0  0  0  0  0  0  0  0  0  0  0
    5.0196    0.0397    3.4595 H   0  0  0  0  0  0  0  0  0  0  0  0
    1.7699   -2.2852    5.5668 N   0  0  0  0  0  0  0  0  0  0  0  0
    0.8779   -2.5752    6.6808 C   0  0  0  0  0  0  0  0  0  0  0  0
    1.7958   -2.9590    4.7960 H   0  0  0  0  0  0  0  0  0  0  0  0
    1.3407   -2.2860    7.6300 H   0  0  0  0  0  0  0  0  0  0  0  0
   -0.0661   -2.0323    6.5668 H   0  0  0  0  0  0  0  0  0  0  0  0
    0.6610   -3.6471    6.7160 H   0  0  0  0  0  0  0  0  0  0  0  0
  1  2  2  0  0  0  0
  1  3  1  0  0  0  0
  1  7  1  0  0  0  0
  3  4  1  0  0  0  0
  3  5  1  0  0  0  0
  3  6  1  0  0  0  0
  7  8  1  0  0  0  0
  7 12  1  0  0  0  0
  8  9  1  0  0  0  0
  8 11  1  0  0  0  0
  8 13  1  0  0  0  0
  9 10  2  0  0  0  0
  9 17  1  0  0  0  0
 11 14  1  0  0  0  0
 11 15  1  0  0  0  0
 11 16  1  0  0  0  0
 17 18  1  0  0  0  0
 17 26  1  0  0  0  0
 18 19  1  0  0  0  0
 18 21  1  0  0  0  0
 18 27  1  0  0  0  0
 19 20  2  0  0  0  0
 19 32  1  0  0  0  0
 21 22  1  0  0  0  0
 21 28  1  0  0  0  0
 21 29  1  0  0  0  0
 22 23  1  0  0  0  0
 22 30  1  0  0  0  0
 22 31  1  0  0  0  0
 23 24  1  0  0  0  0
 23 25  2  0  0  0  0
 32 33  1  0  0  0  0
 32 37  1  0  0  0  0
 33 34  1  0  0  0  0
 33 36  1  0  0  0  0
 33 38  1  0  0  0  0
 34 35  2  0  0  0  0
 34 42  1  0  0  0  0
 36 39  1  0  0  0  0
 36 40  1  0  0  0  0
 36 41  1  0  0  0  0
 42 43  1  0  0  0  0
 42 44  1  0  0  0  0
 43 45  1  0  0  0  0
 43 46  1  0  0  0  0
 43 47  1  0  0  0  0
M  CHG  1  24  -1
M  END
$$$$

  -OEChem-02062319073D

 47 46  0     1  0  0  0  0  0999 V2000
   -0.6184   -3.9245    3.1346 C   0  0  0  0  0  0  0  0  0  0  0  0
    0.5505   -4.1327    3.4258 O   0  0  0  0  0  0  0  0  0  0  0  0
   -1.7276   -4.6967    3.8243 C   0  0  0  0  0  0  0  0  0  0  0  0
   -1.3068   -5.3841    4.5633 H   0  0  0  0  0  0  0  0  0  0  0  0
   -2.4046   -4.0046    4.3314 H   0  0  0  0  0  0  0  0  0  0  0  0
   -2.2926   -5.2737    3.0884 H   0  0  0  0  0  0  0  0  0  0  0  0
   -0.9297   -2.9779    2.1845 N   0  0  0  0  0  0  0  0  0  0  0  0
    0.0484   -2.0957    1.5377 C   0  0  2  0  0  0  0  0  0  0  0  0
   -0.5960   -0.7596    1.1025 C   0  0  0  0  0  0  0  0  0  0  0  0
   -1.8126   -0.7221    0.9710 O   0  0  0  0  0  0  0  0  0  0  0  0
    0.6144   -2.8330    0.3192 C   0  0  0  0  0  0  0  0  0  0  0  0
   -1.9135   -2.7573    2.0312 H   0  0  0  0  0  0  0  0  0  0  0  0
    0.8485   -1.8797    2.2437 H   0  0  0  0  0  0  0  0  0  0  0  0
    1.3273   -2.2051   -0.2208 H   0  0  0  0  0  0  0  0  0  0  0  0
   -0.1917   -3.1068   -0.3687 H   0  0  0  0  0  0  0  0  0  0  0  0
    1.1307   -3.7452    0.6330 H   0  0  0  0  0  0  0  0  0  0  0  0
   -0.0551    0.4975    1.2696 N   0  0  0  0  0  0  0  0  0  0  0  0
    1.2397    0.9018    0.6908 C   0  0  2  0  0  0  0  0  0  0  0  0
    2.4703    0.0901    1.1488 C   0  0  0  0  0  0  0  0  0  0  0  0
    3.1958   -0.4409    0.3193 O   0  0  0  0  0  0  0  0  0  0  0  0
    1.4667    2.3819    1.0330 C   0  0  0  0  0  0  0  0  0  0  0  0
    0.4031    3.2940    0.3872 C   0  0  0  0  0  0  0  0  0  0  0  0
    0.6255    4.7822    0.6775 C   0  0  0  0  0  0  0  0  0  0  0  0
   -0.0989    5.5892    0.0475 O   0  5  0  0  0  0  0  0  0  0  0  0
    1.4920    5.1103    1.5267 O   0  0  0  0  0  0  0  0  0  0  0  0
   -0.7828    1.2062    1.1866 H   0  0  0  0  0  0  0  0  0  0  0  0
    1.1809    0.8054   -0.3989 H   0  0  0  0  0  0  0  0  0  0  0  0
    2.4548    2.6906    0.6722 H   0  0  0  0  0  0  0  0  0  0  0  0
    1.4551    2.5194    2.1202 H   0  0  0  0  0  0  0  0  0  0  0  0
    0.4152    3.1471   -0.6967 H   0  0  0  0  0  0  0  0  0  0  0  0
   -0.5936    3.0287    0.7488 H   0  0  0  0  0  0  0  0  0  0  0  0
    2.6481   -0.2070    2.4900 N   0  0  0  0  0  0  0  0  0  0  0  0
    3.8050   -0.9400    3.0324 C   0  0  2  0  0  0  0  0  0  0  0  0
    3.5483   -1.4500    4.4736 C   0  0  0  0  0  0  0  0  0  0  0  0
    4.1932   -1.0234    5.4253 O   0  0  0  0  0  0  0  0  0  0  0  0
    5.0442   -0.0305    2.9545 C   0  0  0  0  0  0  0  0  0  0  0  0
    2.0784    0.3329    3.1388 H   0  0  0  0  0  0  0  0  0  0  0  0
    3.9899   -1.8255    2.4156 H   0  0  0  0  0  0  0  0  0  0  0  0
    4.8896    0.8824    3.5386 H   0  0  0  0  0  0  0  0  0  0  0  0
    5.9226   -0.5510    3.3483 H   0  0  0  0  0  0  0  0  0  0  0  0
    5.2543    0.2525    1.9188 H   0  0  0  0  0  0  0  0  0  0  0  0
    2.5673   -2.3926    4.7279 N   0  0  0  0  0  0  0  0  0  0  0  0
    2.3119   -2.9413    6.0534 C   0  0  0  0  0  0  0  0  0  0  0  0
    2.0705   -2.8070    3.9361 H   0  0  0  0  0  0  0  0  0  0  0  0
    3.2038   -3.4482    6.4359 H   0  0  0  0  0  0  0  0  0  0  0  0
    2.0299   -2.1457    6.7507 H   0  0  0  0  0  0  0  0  0  0  0  0
    1.4939   -3.6667    6.0094 H   0  0  0  0  0  0  0  0  0  0  0  0
  1  2  2  0  0  0  0
  1  3  1  0  0  0  0
  1  7  1  0  0  0  0
  3  4  1  0  0  0  0
  3  5  1  0  0  0  0
  3  6  1  0  0  0  0
  7  8  1  0  0  0  0
  7 12  1  0  0  0  0
  8  9  1  0  0  0  0
  8 11  1  0  0  0  0
  8 13  1  0  0  0  0
  9 10  2  0  0  0  0
  9 17  1  0  0  0  0
 11 14  1  0  0  0  0
 11 15  1  0  0  0  0
 11 16  1  0  0  0  0
 17 18  1  0  0  0  0
 17 26  1  0  0  0  0
 18 19  1  0  0  0  0
 18 21  1  0  0  0  0
 18 27  1  0  0  0  0
 19 20  2  0  0  0  0
 19 32  1  0  0  0  0
 21 22  1  0  0  0  0
 21 28  1  0  0  0  0
 21 29  1  0  0  0  0
 22 23  1  0  0  0  0
 22 30  1  0  0  0  0
 22 31  1  0  0  0  0
 23 24  1  0  0  0  0
 23 25  2  0  0  0  0
 32 33  1  0  0  0  0
 32 37  1  0  0  0  0
 33 34  1  0  0  0  0
 33 36  1  0  0  0  0
 33 38  1  0  0  0  0
 34 35  2  0  0  0  0
 34 42  1  0  0  0  0
 36 39  1  0  0  0  0
 36 40  1  0  0  0  0
 36 41  1  0  0  0  0
 42 43  1  0  0  0  0
 42 44  1  0  0  0  0
 43 45  1  0  0  0  0
 43 46  1  0  0  0  0
 43 47  1  0  0  0  0
M  CHG  1  24  -1
M  END
$$$$

  -OEChem-02062319073D

 47 46  0     1  0  0  0  0  0999 V2000
   -0.4825   -3.8491    3.0831 C   0  0  0  0  0  0  0  0  0  0  0  0
    0.6799   -4.2199    3.1507 O   0  0  0  0  0  0  0  0  0  0  0  0
   -1.5473   -4.5462    3.9091 C   0  0  0  0  0  0  0  0  0  0  0  0
   -1.1012   -5.3489    4.5025 H   0  0  0  0  0  0  0  0  0  0  0  0
   -2.0202   -3.8294    4.5848 H   0  0  0  0  0  0  0  0  0  0  0  0
   -2.3086   -4.9736    3.2520 H   0  0  0  0  0  0  0  0  0  0  0  0
   -0.8445   -2.8091    2.2543 N   0  0  0  0  0  0  0  0  0  0  0  0
    0.0871   -1.9628    1.4986 C   0  0  2  0  0  0  0  0  0  0  0  0
   -0.5965   -0.6527    1.0355 C   0  0  0  0  0  0  0  0  0  0  0  0
   -1.8182   -0.6449    0.9501 O   0  0  0  0  0  0  0  0  0  0  0  0
    0.5793   -2.7512    0.2773 C   0  0  0  0  0  0  0  0  0  0  0  0
   -1.8211   -2.5166    2.2555 H   0  0  0  0  0  0  0  0  0  0  0  0
    0.9264   -1.7078    2.1462 H   0  0  0  0  0  0  0  0  0  0  0  0
   -0.2706   -3.0887   -0.3243 H   0  0  0  0  0  0  0  0  0  0  0  0
    1.2209   -2.1341   -0.3551 H   0  0  0  0  0  0  0  0  0  0  0  0
    1.1540   -3.6273    0.5915 H   0  0  0  0  0  0  0  0  0  0  0  0
   -0.0923    0.6189    1.2091 N   0  0  0  0  0  0  0  0  0  0  0  0
    1.0264    1.1304    0.3944 C   0  0  2  0  0  0  0  0  0  0  0  0
    2.3376    0.3296    0.5153 C   0  0  0  0  0  0  0  0  0  0  0  0
    2.8807   -0.1337   -0.4788 O   0  0  0  0  0  0  0  0  0  0  0  0
    1.2847    2.5928    0.7870 C   0  0  0  0  0  0  0  0  0  0  0  0
    0.0788    3.4933    0.4699 C   0  0  0  0  0  0  0  0  0  0  0  0
    0.4031    4.9490    0.7983 C   0  0  0  0  0  0  0  0  0  0  0  0
    0.4200    5.2746    2.0107 O   0  5  0  0  0  0  0  0  0  0  0  0
    0.6678    5.7185   -0.1570 O   0  0  0  0  0  0  0  0  0  0  0  0
   -0.8607    1.2833    1.2866 H   0  0  0  0  0  0  0  0  0  0  0  0
    0.7329    1.1058   -0.6608 H   0  0  0  0  0  0  0  0  0  0  0  0
    2.1546    2.9677    0.2352 H   0  0  0  0  0  0  0  0  0  0  0  0
    1.5166    2.6594    1.8560 H   0  0  0  0  0  0  0  0  0  0  0  0
   -0.1820    3.4079   -0.5894 H   0  0  0  0  0  0  0  0  0  0  0  0
   -0.7933    3.1897    1.0554 H   0  0  0  0  0  0  0  0  0  0  0  0
    2.7835   -0.0525    1.7649 N   0  0  0  0  0  0  0  0  0  0  0  0
    3.7885   -1.0874    2.0285 C   0  0  2  0  0  0  0  0  0  0  0  0
    3.5624   -1.7451    3.4068 C   0  0  0  0  0  0  0  0  0  0  0  0
    2.9910   -1.1228    4.2964 O   0  0  0  0  0  0  0  0  0  0  0  0
    5.1794   -0.4513    1.9649 C   0  0  0  0  0  0  0  0  0  0  0  0
    2.2644    0.3060    2.5679 H   0  0  0  0  0  0  0  0  0  0  0  0
    3.7127   -1.8712    1.2678 H   0  0  0  0  0  0  0  0  0  0  0  0
    5.2728    0.3374    2.7184 H   0  0  0  0  0  0  0  0  0  0  0  0
    5.9524   -1.2033    2.1484 H   0  0  0  0  0  0  0  0  0  0  0  0
    5.3524   -0.0115    0.9776 H   0  0  0  0  0  0  0  0  0  0  0  0
    3.9925   -3.0372    3.6456 N   0  0  0  0  0  0  0  0  0  0  0  0
    3.6689   -3.7547    4.8720 C   0  0  0  0  0  0  0  0  0  0  0  0
    4.2882   -3.5764    2.8379 H   0  0  0  0  0  0  0  0  0  0  0  0
    4.1301   -3.2635    5.7348 H   0  0  0  0  0  0  0  0  0  0  0  0
    2.5853   -3.7889    5.0241 H   0  0  0  0  0  0  0  0  0  0  0  0
    4.0421   -4.7816    4.8178 H   0  0  0  0  0  0  0  0  0  0  0  0
  1  2  2  0  0  0  0
  1  3  1  0  0  0  0
  1  7  1  0  0  0  0
  3  4  1  0  0  0  0
  3  5  1  0  0  0  0
  3  6  1  0  0  0  0
  7  8  1  0  0  0  0
  7 12  1  0  0  0  0
  8  9  1  0  0  0  0
  8 11  1  0  0  0  0
  8 13  1  0  0  0  0
  9 10  2  0  0  0  0
  9 17  1  0  0  0  0
 11 14  1  0  0  0  0
 11 15  1  0  0  0  0
 11 16  1  0  0  0  0
 17 18  1  0  0  0  0
 17 26  1  0  0  0  0
 18 19  1  0  0  0  0
 18 21  1  0  0  0  0
 18 27  1  0  0  0  0
 19 20  2  0  0  0  0
 19 32  1  0  0  0  0
 21 22  1  0  0  0  0
 21 28  1  0  0  0  0
 21 29  1  0  0  0  0
 22 23  1  0  0  0  0
 22 30  1  0  0  0  0
 22 31  1  0  0  0  0
 23 24  1  0  0  0  0
 23 25  2  0  0  0  0
 32 33  1  0  0  0  0
 32 37  1  0  0  0  0
 33 34  1  0  0  0  0
 33 36  1  0  0  0  0
 33 38  1  0  0  0  0
 34 35  2  0  0  0  0
 34 42  1  0  0  0  0
 36 39  1  0  0  0  0
 36 40  1  0  0  0  0
 36 41  1  0  0  0  0
 42 43  1  0  0  0  0
 42 44  1  0  0  0  0
 43 45  1  0  0  0  0
 43 46  1  0  0  0  0
 43 47  1  0  0  0  0
M  CHG  1  24  -1
M  END
$$$$

  -OEChem-02062319073D

 47 46  0     1  0  0  0  0  0999 V2000
   -0.5413   -3.7531    3.2682 C   0  0  0  0  0  0  0  0  0  0  0  0
    0.6269   -4.0018    3.5178 O   0  0  0  0  0  0  0  0  0  0  0  0
   -1.6434   -4.5476    3.9448 C   0  0  0  0  0  0  0  0  0  0  0  0
   -2.2840   -5.0134    3.1920 H   0  0  0  0  0  0  0  0  0  0  0  0
   -1.2126   -5.3311    4.5748 H   0  0  0  0  0  0  0  0  0  0  0  0
   -2.2487   -3.8862    4.5699 H   0  0  0  0  0  0  0  0  0  0  0  0
   -0.8756   -2.7671    2.3646 N   0  0  0  0  0  0  0  0  0  0  0  0
    0.0782   -1.9483    1.6044 C   0  0  2  0  0  0  0  0  0  0  0  0
   -0.6554   -0.6983    1.0639 C   0  0  0  0  0  0  0  0  0  0  0  0
   -1.5725   -0.8716    0.2725 O   0  0  0  0  0  0  0  0  0  0  0  0
    0.6419   -2.8162    0.4674 C   0  0  0  0  0  0  0  0  0  0  0  0
   -1.8611   -2.6632    2.1303 H   0  0  0  0  0  0  0  0  0  0  0  0
    0.8940   -1.6211    2.2569 H   0  0  0  0  0  0  0  0  0  0  0  0
    1.2860   -2.2319   -0.1915 H   0  0  0  0  0  0  0  0  0  0  0  0
   -0.1712   -3.2319   -0.1359 H   0  0  0  0  0  0  0  0  0  0  0  0
    1.2308   -3.6431    0.8749 H   0  0  0  0  0  0  0  0  0  0  0  0
   -0.1726    0.5936    1.1772 N   0  0  0  0  0  0  0  0  0  0  0  0
    0.6851    1.1715    0.1231 C   0  0  2  0  0  0  0  0  0  0  0  0
    2.0026    0.4104   -0.1246 C   0  0  0  0  0  0  0  0  0  0  0  0
    2.3162    0.0326   -1.2454 O   0  0  0  0  0  0  0  0  0  0  0  0
    1.0383    2.6127    0.5294 C   0  0  0  0  0  0  0  0  0  0  0  0
   -0.1945    3.5245    0.6519 C   0  0  0  0  0  0  0  0  0  0  0  0
    0.2058    4.8631    1.2677 C   0  0  0  0  0  0  0  0  0  0  0  0
    0.5092    4.8583    2.4875 O   0  5  0  0  0  0  0  0  0  0  0  0
    0.2567    5.8687    0.5189 O   0  0  0  0  0  0  0  0  0  0  0  0
    0.1560    0.8122    2.1135 H   0  0  0  0  0  0  0  0  0  0  0  0
    0.1256    1.1947   -0.8188 H   0  0  0  0  0  0  0  0  0  0  0  0
    1.7145    3.0476   -0.2152 H   0  0  0  0  0  0  0  0  0  0  0  0
    1.5709    2.5990    1.4870 H   0  0  0  0  0  0  0  0  0  0  0  0
   -0.6382    3.6836   -0.3354 H   0  0  0  0  0  0  0  0  0  0  0  0
   -0.9560    3.0687    1.2906 H   0  0  0  0  0  0  0  0  0  0  0  0
    2.7660    0.0006    0.9517 N   0  0  0  0  0  0  0  0  0  0  0  0
    3.8852   -0.9437    0.8896 C   0  0  2  0  0  0  0  0  0  0  0  0
    3.9590   -1.7773    2.1844 C   0  0  0  0  0  0  0  0  0  0  0  0
    3.5523   -1.2991    3.2382 O   0  0  0  0  0  0  0  0  0  0  0  0
    5.1805   -0.1567    0.6770 C   0  0  0  0  0  0  0  0  0  0  0  0
    2.4951    0.3329    1.8759 H   0  0  0  0  0  0  0  0  0  0  0  0
    3.7434   -1.6358    0.0531 H   0  0  0  0  0  0  0  0  0  0  0  0
    5.3412    0.5461    1.5010 H   0  0  0  0  0  0  0  0  0  0  0  0
    6.0369   -0.8356    0.6245 H   0  0  0  0  0  0  0  0  0  0  0  0
    5.1297    0.4101   -0.2580 H   0  0  0  0  0  0  0  0  0  0  0  0
    4.4422   -3.0724    2.1579 N   0  0  0  0  0  0  0  0  0  0  0  0
    4.3564   -3.9645    3.3074 C   0  0  0  0  0  0  0  0  0  0  0  0
    4.6505   -3.4705    1.2475 H   0  0  0  0  0  0  0  0  0  0  0  0
    4.9136   -3.5521    4.1549 H   0  0  0  0  0  0  0  0  0  0  0  0
    3.3128   -4.1048    3.6070 H   0  0  0  0  0  0  0  0  0  0  0  0
    4.7789   -4.9424    3.0586 H   0  0  0  0  0  0  0  0  0  0  0  0
  1  2  2  0  0  0  0
  1  3  1  0  0  0  0
  1  7  1  0  0  0  0
  3  4  1  0  0  0  0
  3  5  1  0  0  0  0
  3  6  1  0  0  0  0
  7  8  1  0  0  0  0
  7 12  1  0  0  0  0
  8  9  1  0  0  0  0
  8 11  1  0  0  0  0
  8 13  1  0  0  0  0
  9 10  2  0  0  0  0
  9 17  1  0  0  0  0
 11 14  1  0  0  0  0
 11 15  1  0  0  0  0
 11 16  1  0  0  0  0
 17 18  1  0  0  0  0
 17 26  1  0  0  0  0
 18 19  1  0  0  0  0
 18 21  1  0  0  0  0
 18 27  1  0  0  0  0
 19 20  2  0  0  0  0
 19 32  1  0  0  0  0
 21 22  1  0  0  0  0
 21 28  1  0  0  0  0
 21 29  1  0  0  0  0
 22 23  1  0  0  0  0
 22 30  1  0  0  0  0
 22 31  1  0  0  0  0
 23 24  1  0  0  0  0
 23 25  2  0  0  0  0
 32 33  1  0  0  0  0
 32 37  1  0  0  0  0
 33 34  1  0  0  0  0
 33 36  1  0  0  0  0
 33 38  1  0  0  0  0
 34 35  2  0  0  0  0
 34 42  1  0  0  0  0
 36 39  1  0  0  0  0
 36 40  1  0  0  0  0
 36 41  1  0  0  0  0
 42 43  1  0  0  0  0
 42 44  1  0  0  0  0
 43 45  1  0  0  0  0
 43 46  1  0  0  0  0
 43 47  1  0  0  0  0
M  CHG  1  24  -1
M  END
$$$$

  -OEChem-02062319073D

 47 46  0     1  0  0  0  0  0999 V2000
   -0.5276   -3.6523    3.3864 C   0  0  0  0  0  0  0  0  0  0  0  0
    0.6427   -3.8056    3.6944 O   0  0  0  0  0  0  0  0  0  0  0  0
   -1.6085   -4.4420    4.1025 C   0  0  0  0  0  0  0  0  0  0  0  0
   -2.1189   -5.1015    3.3963 H   0  0  0  0  0  0  0  0  0  0  0  0
   -1.1682   -5.0495    4.8982 H   0  0  0  0  0  0  0  0  0  0  0  0
   -2.3378   -3.7586    4.5450 H   0  0  0  0  0  0  0  0  0  0  0  0
   -0.8831   -2.7735    2.3858 N   0  0  0  0  0  0  0  0  0  0  0  0
    0.0489   -1.9548    1.5992 C   0  0  2  0  0  0  0  0  0  0  0  0
   -0.7008   -0.7143    1.0622 C   0  0  0  0  0  0  0  0  0  0  0  0
   -1.5947   -0.8947    0.2455 O   0  0  0  0  0  0  0  0  0  0  0  0
    0.5913   -2.8337    0.4625 C   0  0  0  0  0  0  0  0  0  0  0  0
   -1.8663   -2.7327    2.1256 H   0  0  0  0  0  0  0  0  0  0  0  0
    0.8829   -1.6141    2.2227 H   0  0  0  0  0  0  0  0  0  0  0  0
    1.1945   -2.2451   -0.2312 H   0  0  0  0  0  0  0  0  0  0  0  0
   -0.2319   -3.2827   -0.1024 H   0  0  0  0  0  0  0  0  0  0  0  0
    1.2148   -3.6359    0.8693 H   0  0  0  0  0  0  0  0  0  0  0  0
   -0.2139    0.5740    1.1914 N   0  0  0  0  0  0  0  0  0  0  0  0
    0.3603    1.2784    0.0277 C   0  0  2  0  0  0  0  0  0  0  0  0
    1.5828    0.5749   -0.5953 C   0  0  0  0  0  0  0  0  0  0  0  0
    1.6526    0.3550   -1.7970 O   0  0  0  0  0  0  0  0  0  0  0  0
    0.7959    2.6818    0.4827 C   0  0  0  0  0  0  0  0  0  0  0  0
   -0.3740    3.5367    1.0008 C   0  0  0  0  0  0  0  0  0  0  0  0
    0.1548    4.8274    1.6223 C   0  0  0  0  0  0  0  0  0  0  0  0
    0.7731    4.7211    2.7116 O   0  5  0  0  0  0  0  0  0  0  0  0
   -0.0212    5.9017    0.9983 O   0  0  0  0  0  0  0  0  0  0  0  0
    0.2906    0.7373    2.0585 H   0  0  0  0  0  0  0  0  0  0  0  0
   -0.4068    1.3773   -0.7488 H   0  0  0  0  0  0  0  0  0  0  0  0
    1.2642    3.2089   -0.3561 H   0  0  0  0  0  0  0  0  0  0  0  0
    1.5493    2.5893    1.2731 H   0  0  0  0  0  0  0  0  0  0  0  0
   -1.0577    3.7688    0.1787 H   0  0  0  0  0  0  0  0  0  0  0  0
   -0.9421    2.9989    1.7646 H   0  0  0  0  0  0  0  0  0  0  0  0
    2.5778    0.0845    0.2285 N   0  0  0  0  0  0  0  0  0  0  0  0
    3.6840   -0.7778   -0.1969 C   0  0  2  0  0  0  0  0  0  0  0  0
    4.0238   -1.8016    0.9040 C   0  0  0  0  0  0  0  0  0  0  0  0
    3.7510   -1.5519    2.0730 O   0  0  0  0  0  0  0  0  0  0  0  0
    4.8947    0.1023   -0.5129 C   0  0  0  0  0  0  0  0  0  0  0  0
    2.4881    0.2587    1.2279 H   0  0  0  0  0  0  0  0  0  0  0  0
    3.3998   -1.3348   -1.0957 H   0  0  0  0  0  0  0  0  0  0  0  0
    5.1985    0.6681    0.3736 H   0  0  0  0  0  0  0  0  0  0  0  0
    5.7383   -0.5112   -0.8421 H   0  0  0  0  0  0  0  0  0  0  0  0
    4.6491    0.8103   -1.3107 H   0  0  0  0  0  0  0  0  0  0  0  0
    4.5950   -3.0189    0.5822 N   0  0  0  0  0  0  0  0  0  0  0  0
    4.8215   -4.0708    1.5653 C   0  0  0  0  0  0  0  0  0  0  0  0
    4.7355   -3.2256   -0.4020 H   0  0  0  0  0  0  0  0  0  0  0  0
    5.5035   -3.7222    2.3479 H   0  0  0  0  0  0  0  0  0  0  0  0
    3.8764   -4.3721    2.0301 H   0  0  0  0  0  0  0  0  0  0  0  0
    5.2663   -4.9473    1.0849 H   0  0  0  0  0  0  0  0  0  0  0  0
  1  2  2  0  0  0  0
  1  3  1  0  0  0  0
  1  7  1  0  0  0  0
  3  4  1  0  0  0  0
  3  5  1  0  0  0  0
  3  6  1  0  0  0  0
  7  8  1  0  0  0  0
  7 12  1  0  0  0  0
  8  9  1  0  0  0  0
  8 11  1  0  0  0  0
  8 13  1  0  0  0  0
  9 10  2  0  0  0  0
  9 17  1  0  0  0  0
 11 14  1  0  0  0  0
 11 15  1  0  0  0  0
 11 16  1  0  0  0  0
 17 18  1  0  0  0  0
 17 26  1  0  0  0  0
 18 19  1  0  0  0  0
 18 21  1  0  0  0  0
 18 27  1  0  0  0  0
 19 20  2  0  0  0  0
 19 32  1  0  0  0  0
 21 22  1  0  0  0  0
 21 28  1  0  0  0  0
 21 29  1  0  0  0  0
 22 23  1  0  0  0  0
 22 30  1  0  0  0  0
 22 31  1  0  0  0  0
 23 24  1  0  0  0  0
 23 25  2  0  0  0  0
 32 33  1  0  0  0  0
 32 37  1  0  0  0  0
 33 34  1  0  0  0  0
 33 36  1  0  0  0  0
 33 38  1  0  0  0  0
 34 35  2  0  0  0  0
 34 42  1  0  0  0  0
 36 39  1  0  0  0  0
 36 40  1  0  0  0  0
 36 41  1  0  0  0  0
 42 43  1  0  0  0  0
 42 44  1  0  0  0  0
 43 45  1  0  0  0  0
 43 46  1  0  0  0  0
 43 47  1  0  0  0  0
M  CHG  1  24  -1
M  END
$$$$

  -OEChem-02062319073D

 47 46  0     1  0  0  0  0  0999 V2000
   -1.1668   -3.8416    3.4243 C   0  0  0  0  0  0  0  0  0  0  0  0
   -0.5226   -3.7733    4.4596 O   0  0  0  0  0  0  0  0  0  0  0  0
   -2.2164   -4.9249    3.2555 C   0  0  0  0  0  0  0  0  0  0  0  0
   -1.9650   -5.5562    2.3999 H   0  0  0  0  0  0  0  0  0  0  0  0
   -2.2651   -5.5479    4.1529 H   0  0  0  0  0  0  0  0  0  0  0  0
   -3.1962   -4.4708    3.0879 H   0  0  0  0  0  0  0  0  0  0  0  0
   -0.9598   -2.9367    2.4061 N   0  0  0  0  0  0  0  0  0  0  0  0
   -0.1585   -1.7105    2.5266 C   0  0  2  0  0  0  0  0  0  0  0  0
   -0.8528   -0.5307    1.7951 C   0  0  0  0  0  0  0  0  0  0  0  0
   -1.8024   -0.8028    1.0665 O   0  0  0  0  0  0  0  0  0  0  0  0
    1.2456   -2.0233    2.0170 C   0  0  0  0  0  0  0  0  0  0  0  0
   -1.6408   -2.9389    1.6464 H   0  0  0  0  0  0  0  0  0  0  0  0
   -0.0856   -1.4194    3.5801 H   0  0  0  0  0  0  0  0  0  0  0  0
    1.2139   -2.3125    0.9625 H   0  0  0  0  0  0  0  0  0  0  0  0
    1.8972   -1.1540    2.1369 H   0  0  0  0  0  0  0  0  0  0  0  0
    1.6803   -2.8504    2.5871 H   0  0  0  0  0  0  0  0  0  0  0  0
   -0.2388    0.6912    1.5762 N   0  0  0  0  0  0  0  0  0  0  0  0
   -0.0282    1.2516    0.2232 C   0  0  2  0  0  0  0  0  0  0  0  0
    0.8298    0.4359   -0.7694 C   0  0  0  0  0  0  0  0  0  0  0  0
    0.4841    0.3208   -1.9388 O   0  0  0  0  0  0  0  0  0  0  0  0
    0.6643    2.6147    0.4025 C   0  0  0  0  0  0  0  0  0  0  0  0
   -0.1683    3.6224    1.2161 C   0  0  0  0  0  0  0  0  0  0  0  0
    0.6960    4.8201    1.6013 C   0  0  0  0  0  0  0  0  0  0  0  0
    1.5581    4.6279    2.4957 O   0  5  0  0  0  0  0  0  0  0  0  0
    0.5316    5.8980    0.9806 O   0  0  0  0  0  0  0  0  0  0  0  0
    0.4689    0.9459    2.2607 H   0  0  0  0  0  0  0  0  0  0  0  0
   -1.0062    1.4111   -0.2446 H   0  0  0  0  0  0  0  0  0  0  0  0
    0.8691    3.0546   -0.5803 H   0  0  0  0  0  0  0  0  0  0  0  0
    1.6293    2.4621    0.8988 H   0  0  0  0  0  0  0  0  0  0  0  0
   -1.0299    3.9521    0.6281 H   0  0  0  0  0  0  0  0  0  0  0  0
   -0.5470    3.1706    2.1365 H   0  0  0  0  0  0  0  0  0  0  0  0
    2.0272   -0.1395   -0.3862 N   0  0  0  0  0  0  0  0  0  0  0  0
    2.9785   -0.7714   -1.3101 C   0  0  2  0  0  0  0  0  0  0  0  0
    3.9375   -1.7455   -0.5955 C   0  0  0  0  0  0  0  0  0  0  0  0
    4.1582   -1.6383    0.6057 O   0  0  0  0  0  0  0  0  0  0  0  0
    3.7849    0.3283   -2.0111 C   0  0  0  0  0  0  0  0  0  0  0  0
    2.3405    0.0234    0.5680 H   0  0  0  0  0  0  0  0  0  0  0  0
    2.4251   -1.3466   -2.0596 H   0  0  0  0  0  0  0  0  0  0  0  0
    4.3374    0.9237   -1.2769 H   0  0  0  0  0  0  0  0  0  0  0  0
    4.4997   -0.1095   -2.7143 H   0  0  0  0  0  0  0  0  0  0  0  0
    3.1199    0.9954   -2.5688 H   0  0  0  0  0  0  0  0  0  0  0  0
    4.5678   -2.7479   -1.3106 N   0  0  0  0  0  0  0  0  0  0  0  0
    5.4713   -3.7180   -0.7055 C   0  0  0  0  0  0  0  0  0  0  0  0
    4.3539   -2.8220   -2.3008 H   0  0  0  0  0  0  0  0  0  0  0  0
    6.3000   -3.2090   -0.2022 H   0  0  0  0  0  0  0  0  0  0  0  0
    4.9374   -4.3327    0.0267 H   0  0  0  0  0  0  0  0  0  0  0  0
    5.8873   -4.3762   -1.4740 H   0  0  0  0  0  0  0  0  0  0  0  0
  1  2  2  0  0  0  0
  1  3  1  0  0  0  0
  1  7  1  0  0  0  0
  3  4  1  0  0  0  0
  3  5  1  0  0  0  0
  3  6  1  0  0  0  0
  7  8  1  0  0  0  0
  7 12  1  0  0  0  0
  8  9  1  0  0  0  0
  8 11  1  0  0  0  0
  8 13  1  0  0  0  0
  9 10  2  0  0  0  0
  9 17  1  0  0  0  0
 11 14  1  0  0  0  0
 11 15  1  0  0  0  0
 11 16  1  0  0  0  0
 17 18  1  0  0  0  0
 17 26  1  0  0  0  0
 18 19  1  0  0  0  0
 18 21  1  0  0  0  0
 18 27  1  0  0  0  0
 19 20  2  0  0  0  0
 19 32  1  0  0  0  0
 21 22  1  0  0  0  0
 21 28  1  0  0  0  0
 21 29  1  0  0  0  0
 22 23  1  0  0  0  0
 22 30  1  0  0  0  0
 22 31  1  0  0  0  0
 23 24  1  0  0  0  0
 23 25  2  0  0  0  0
 32 33  1  0  0  0  0
 32 37  1  0  0  0  0
 33 34  1  0  0  0  0
 33 36  1  0  0  0  0
 33 38  1  0  0  0  0
 34 35  2  0  0  0  0
 34 42  1  0  0  0  0
 36 39  1  0  0  0  0
 36 40  1  0  0  0  0
 36 41  1  0  0  0  0
 42 43  1  0  0  0  0
 42 44  1  0  0  0  0
 43 45  1  0  0  0  0
 43 46  1  0  0  0  0
 43 47  1  0  0  0  0
M  CHG  1  24  -1
M  END
$$$$

  -OEChem-02062319073D

 47 46  0     1  0  0  0  0  0999 V2000
   -0.8190   -3.8387    3.4166 C   0  0  0  0  0  0  0  0  0  0  0  0
   -0.0771   -3.7258    4.3799 O   0  0  0  0  0  0  0  0  0  0  0  0
   -1.8303   -4.9696    3.3675 C   0  0  0  0  0  0  0  0  0  0  0  0
   -1.6347   -5.6057    2.5007 H   0  0  0  0  0  0  0  0  0  0  0  0
   -1.7633   -5.5770    4.2744 H   0  0  0  0  0  0  0  0  0  0  0  0
   -2.8416   -4.5622    3.2907 H   0  0  0  0  0  0  0  0  0  0  0  0
   -0.7533   -2.9439    2.3711 N   0  0  0  0  0  0  0  0  0  0  0  0
    0.0209   -1.6954    2.3831 C   0  0  2  0  0  0  0  0  0  0  0  0
   -0.7665   -0.5588    1.6884 C   0  0  0  0  0  0  0  0  0  0  0  0
   -1.7366   -0.8600    0.9997 O   0  0  0  0  0  0  0  0  0  0  0  0
    1.3637   -1.9695    1.7048 C   0  0  0  0  0  0  0  0  0  0  0  0
   -1.4949   -2.9948    1.6726 H   0  0  0  0  0  0  0  0  0  0  0  0
    0.2023   -1.3765    3.4151 H   0  0  0  0  0  0  0  0  0  0  0  0
    1.2121   -2.2609    0.6609 H   0  0  0  0  0  0  0  0  0  0  0  0
    2.0003   -1.0808    1.7356 H   0  0  0  0  0  0  0  0  0  0  0  0
    1.8892   -2.7809    2.2179 H   0  0  0  0  0  0  0  0  0  0  0  0
   -0.2151    0.6987    1.5255 N   0  0  0  0  0  0  0  0  0  0  0  0
   -0.3047    1.4597    0.2646 C   0  0  2  0  0  0  0  0  0  0  0  0
    0.3296    0.7721   -0.9638 C   0  0  0  0  0  0  0  0  0  0  0  0
   -0.2188    0.8214   -2.0585 O   0  0  0  0  0  0  0  0  0  0  0  0
    0.4084    2.8045    0.4843 C   0  0  0  0  0  0  0  0  0  0  0  0
   -0.2586    3.6661    1.5733 C   0  0  0  0  0  0  0  0  0  0  0  0
    0.6757    4.7948    2.0019 C   0  0  0  0  0  0  0  0  0  0  0  0
    1.7032    4.4619    2.6451 O   0  5  0  0  0  0  0  0  0  0  0  0
    0.3836    5.9691    1.6707 O   0  0  0  0  0  0  0  0  0  0  0  0
    0.5628    0.9337    2.1379 H   0  0  0  0  0  0  0  0  0  0  0  0
   -1.3590    1.6472    0.0335 H   0  0  0  0  0  0  0  0  0  0  0  0
    0.4176    3.3752   -0.4510 H   0  0  0  0  0  0  0  0  0  0  0  0
    1.4518    2.6136    0.7598 H   0  0  0  0  0  0  0  0  0  0  0  0
   -1.1989    4.0778    1.1946 H   0  0  0  0  0  0  0  0  0  0  0  0
   -0.4921    3.0705    2.4594 H   0  0  0  0  0  0  0  0  0  0  0  0
    1.5733    0.1719   -0.8806 N   0  0  0  0  0  0  0  0  0  0  0  0
    2.3043   -0.3857   -2.0247 C   0  0  2  0  0  0  0  0  0  0  0  0
    3.2753   -1.5118   -1.6172 C   0  0  0  0  0  0  0  0  0  0  0  0
    3.7331   -1.5640   -0.4810 O   0  0  0  0  0  0  0  0  0  0  0  0
    3.0728    0.7508   -2.7061 C   0  0  0  0  0  0  0  0  0  0  0  0
    2.0420    0.1807    0.0222 H   0  0  0  0  0  0  0  0  0  0  0  0
    1.5903   -0.8140   -2.7357 H   0  0  0  0  0  0  0  0  0  0  0  0
    3.7910    1.1970   -2.0104 H   0  0  0  0  0  0  0  0  0  0  0  0
    3.6170    0.3767   -3.5783 H   0  0  0  0  0  0  0  0  0  0  0  0
    2.3818    1.5315   -3.0401 H   0  0  0  0  0  0  0  0  0  0  0  0
    3.6474   -2.4726   -2.5403 N   0  0  0  0  0  0  0  0  0  0  0  0
    4.5483   -3.5753   -2.2316 C   0  0  0  0  0  0  0  0  0  0  0  0
    3.2397   -2.4121   -3.4688 H   0  0  0  0  0  0  0  0  0  0  0  0
    5.5313   -3.1949   -1.9351 H   0  0  0  0  0  0  0  0  0  0  0  0
    4.1440   -4.1837   -1.4157 H   0  0  0  0  0  0  0  0  0  0  0  0
    4.6757   -4.2153   -3.1099 H   0  0  0  0  0  0  0  0  0  0  0  0
  1  2  2  0  0  0  0
  1  3  1  0  0  0  0
  1  7  1  0  0  0  0
  3  4  1  0  0  0  0
  3  5  1  0  0  0  0
  3  6  1  0  0  0  0
  7  8  1  0  0  0  0
  7 12  1  0  0  0  0
  8  9  1  0  0  0  0
  8 11  1  0  0  0  0
  8 13  1  0  0  0  0
  9 10  2  0  0  0  0
  9 17  1  0  0  0  0
 11 14  1  0  0  0  0
 11 15  1  0  0  0  0
 11 16  1  0  0  0  0
 17 18  1  0  0  0  0
 17 26  1  0  0  0  0
 18 19  1  0  0  0  0
 18 21  1  0  0  0  0
 18 27  1  0  0  0  0
 19 20  2  0  0  0  0
 19 32  1  0  0  0  0
 21 22  1  0  0  0  0
 21 28  1  0  0  0  0
 21 29  1  0  0  0  0
 22 23  1  0  0  0  0
 22 30  1  0  0  0  0
 22 31  1  0  0  0  0
 23 24  1  0  0  0  0
 23 25  2  0  0  0  0
 32 33  1  0  0  0  0
 32 37  1  0  0  0  0
 33 34  1  0  0  0  0
 33 36  1  0  0  0  0
 33 38  1  0  0  0  0
 34 35  2  0  0  0  0
 34 42  1  0  0  0  0
 36 39  1  0  0  0  0
 36 40  1  0  0  0  0
 36 41  1  0  0  0  0
 42 43  1  0  0  0  0
 42 44  1  0  0  0  0
 43 45  1  0  0  0  0
 43 46  1  0  0  0  0
 43 47  1  0  0  0  0
M  CHG  1  24  -1
M  END
$$$$

  -OEChem-02062319073D

 47 46  0     1  0  0  0  0  0999 V2000
   -0.6027   -3.8599    3.3514 C   0  0  0  0  0  0  0  0  0  0  0  0
    0.2526   -3.7606    4.2170 O   0  0  0  0  0  0  0  0  0  0  0  0
   -1.6175   -4.9866    3.4144 C   0  0  0  0  0  0  0  0  0  0  0  0
   -1.5110   -5.6332    2.5400 H   0  0  0  0  0  0  0  0  0  0  0  0
   -1.4631   -5.5837    4.3172 H   0  0  0  0  0  0  0  0  0  0  0  0
   -2.6298   -4.5752    3.4334 H   0  0  0  0  0  0  0  0  0  0  0  0
   -0.6640   -2.9515    2.3177 N   0  0  0  0  0  0  0  0  0  0  0  0
    0.1178   -1.7106    2.2423 C   0  0  2  0  0  0  0  0  0  0  0  0
   -0.7144   -0.5843    1.5902 C   0  0  0  0  0  0  0  0  0  0  0  0
   -1.7307   -0.8764    0.9676 O   0  0  0  0  0  0  0  0  0  0  0  0
    1.3912   -1.9954    1.4412 C   0  0  0  0  0  0  0  0  0  0  0  0
   -1.4758   -3.0015    1.7023 H   0  0  0  0  0  0  0  0  0  0  0  0
    0.3913   -1.3763    3.2489 H   0  0  0  0  0  0  0  0  0  0  0  0
    1.1395   -2.3053    0.4221 H   0  0  0  0  0  0  0  0  0  0  0  0
    2.0242   -1.1046    1.3892 H   0  0  0  0  0  0  0  0  0  0  0  0
    1.9670   -2.7959    1.9163 H   0  0  0  0  0  0  0  0  0  0  0  0
   -0.2084    0.6968    1.4841 N   0  0  0  0  0  0  0  0  0  0  0  0
   -0.5678    1.6355    0.4067 C   0  0  2  0  0  0  0  0  0  0  0  0
   -0.2194    1.1209   -1.0056 C   0  0  0  0  0  0  0  0  0  0  0  0
   -0.9656    1.3302   -1.9549 O   0  0  0  0  0  0  0  0  0  0  0  0
    0.1932    2.9476    0.6544 C   0  0  0  0  0  0  0  0  0  0  0  0
   -0.2024    3.6254    1.9800 C   0  0  0  0  0  0  0  0  0  0  0  0
    0.8513    4.6541    2.3809 C   0  0  0  0  0  0  0  0  0  0  0  0
    1.9548    4.2015    2.7775 O   0  5  0  0  0  0  0  0  0  0  0  0
    0.5716    5.8716    2.2671 O   0  0  0  0  0  0  0  0  0  0  0  0
    0.6175    0.9197    2.0366 H   0  0  0  0  0  0  0  0  0  0  0  0
   -1.6452    1.8307    0.4387 H   0  0  0  0  0  0  0  0  0  0  0  0
    0.0013    3.6486   -0.1659 H   0  0  0  0  0  0  0  0  0  0  0  0
    1.2690    2.7378    0.6582 H   0  0  0  0  0  0  0  0  0  0  0  0
   -1.1795    4.1058    1.8731 H   0  0  0  0  0  0  0  0  0  0  0  0
   -0.2808    2.8955    2.7894 H   0  0  0  0  0  0  0  0  0  0  0  0
    1.0099    0.5349   -1.2462 N   0  0  0  0  0  0  0  0  0  0  0  0
    1.4742    0.0747   -2.5586 C   0  0  2  0  0  0  0  0  0  0  0  0
    2.4341   -1.1277   -2.4515 C   0  0  0  0  0  0  0  0  0  0  0  0
    3.0297   -1.3638   -1.4058 O   0  0  0  0  0  0  0  0  0  0  0  0
    2.1640    1.2497   -3.2579 C   0  0  0  0  0  0  0  0  0  0  0  0
    1.6136    0.3684   -0.4441 H   0  0  0  0  0  0  0  0  0  0  0  0
    0.6150   -0.2474   -3.1563 H   0  0  0  0  0  0  0  0  0  0  0  0
    3.0246    1.5910   -2.6732 H   0  0  0  0  0  0  0  0  0  0  0  0
    2.5110    0.9555   -4.2524 H   0  0  0  0  0  0  0  0  0  0  0  0
    1.4669    2.0863   -3.3697 H   0  0  0  0  0  0  0  0  0  0  0  0
    2.6313   -1.9559   -3.5420 N   0  0  0  0  0  0  0  0  0  0  0  0
    3.5037   -3.1224   -3.5154 C   0  0  0  0  0  0  0  0  0  0  0  0
    2.1053   -1.7508   -4.3864 H   0  0  0  0  0  0  0  0  0  0  0  0
    4.5334   -2.8254   -3.2906 H   0  0  0  0  0  0  0  0  0  0  0  0
    3.1674   -3.8345   -2.7547 H   0  0  0  0  0  0  0  0  0  0  0  0
    3.4928   -3.6240   -4.4877 H   0  0  0  0  0  0  0  0  0  0  0  0
  1  2  2  0  0  0  0
  1  3  1  0  0  0  0
  1  7  1  0  0  0  0
  3  4  1  0  0  0  0
  3  5  1  0  0  0  0
  3  6  1  0  0  0  0
  7  8  1  0  0  0  0
  7 12  1  0  0  0  0
  8  9  1  0  0  0  0
  8 11  1  0  0  0  0
  8 13  1  0  0  0  0
  9 10  2  0  0  0  0
  9 17  1  0  0  0  0
 11 14  1  0  0  0  0
 11 15  1  0  0  0  0
 11 16  1  0  0  0  0
 17 18  1  0  0  0  0
 17 26  1  0  0  0  0
 18 19  1  0  0  0  0
 18 21  1  0  0  0  0
 18 27  1  0  0  0  0
 19 20  2  0  0  0  0
 19 32  1  0  0  0  0
 21 22  1  0  0  0  0
 21 28  1  0  0  0  0
 21 29  1  0  0  0  0
 22 23  1  0  0  0  0
 22 30  1  0  0  0  0
 22 31  1  0  0  0  0
 23 24  1  0  0  0  0
 23 25  2  0  0  0  0
 32 33  1  0  0  0  0
 32 37  1  0  0  0  0
 33 34  1  0  0  0  0
 33 36  1  0  0  0  0
 33 38  1  0  0  0  0
 34 35  2  0  0  0  0
 34 42  1  0  0  0  0
 36 39  1  0  0  0  0
 36 40  1  0  0  0  0
 36 41  1  0  0  0  0
 42 43  1  0  0  0  0
 42 44  1  0  0  0  0
 43 45  1  0  0  0  0
 43 46  1  0  0  0  0
 43 47  1  0  0  0  0
M  CHG  1  24  -1
M  END
$$$$

  -OEChem-02062319073D

 47 46  0     1  0  0  0  0  0999 V2000
   -0.2616   -3.7940    3.1000 C   0  0  0  0  0  0  0  0  0  0  0  0
    0.5020   -3.6547    4.0419 O   0  0  0  0  0  0  0  0  0  0  0  0
   -1.1164   -5.0446    3.0033 C   0  0  0  0  0  0  0  0  0  0  0  0
   -0.9303   -5.5511    2.0532 H   0  0  0  0  0  0  0  0  0  0  0  0
   -0.8774   -5.7301    3.8211 H   0  0  0  0  0  0  0  0  0  0  0  0
   -2.1743   -4.7773    3.0642 H   0  0  0  0  0  0  0  0  0  0  0  0
   -0.3726   -2.8283    2.1245 N   0  0  0  0  0  0  0  0  0  0  0  0
    0.2217   -1.4860    2.1913 C   0  0  2  0  0  0  0  0  0  0  0  0
   -0.6940   -0.4580    1.4890 C   0  0  0  0  0  0  0  0  0  0  0  0
   -1.6855   -0.8441    0.8727 O   0  0  0  0  0  0  0  0  0  0  0  0
    1.6064   -1.5302    1.5375 C   0  0  0  0  0  0  0  0  0  0  0  0
   -1.1292   -2.9373    1.4505 H   0  0  0  0  0  0  0  0  0  0  0  0
    0.3293   -1.1686    3.2346 H   0  0  0  0  0  0  0  0  0  0  0  0
    1.5254   -1.8330    0.4894 H   0  0  0  0  0  0  0  0  0  0  0  0
    2.0851   -0.5466    1.5825 H   0  0  0  0  0  0  0  0  0  0  0  0
    2.2486   -2.2460    2.0593 H   0  0  0  0  0  0  0  0  0  0  0  0
   -0.3301    0.8690    1.4080 N   0  0  0  0  0  0  0  0  0  0  0  0
   -0.9387    1.8708    0.5229 C   0  0  2  0  0  0  0  0  0  0  0  0
   -0.8126    1.5094   -0.9703 C   0  0  0  0  0  0  0  0  0  0  0  0
   -1.7043    1.7996   -1.7614 O   0  0  0  0  0  0  0  0  0  0  0  0
   -0.2845    3.2512    0.7530 C   0  0  0  0  0  0  0  0  0  0  0  0
   -0.2156    3.6851    2.2349 C   0  0  0  0  0  0  0  0  0  0  0  0
    1.1518    3.4052    2.8713 C   0  0  0  0  0  0  0  0  0  0  0  0
    1.5676    2.2163    2.8652 O   0  5  0  0  0  0  0  0  0  0  0  0
    1.7863    4.3786    3.3408 O   0  0  0  0  0  0  0  0  0  0  0  0
    0.4791    1.1648    1.9728 H   0  0  0  0  0  0  0  0  0  0  0  0
   -2.0042    1.9412    0.7643 H   0  0  0  0  0  0  0  0  0  0  0  0
   -0.8705    3.9944    0.2027 H   0  0  0  0  0  0  0  0  0  0  0  0
    0.7264    3.2615    0.3298 H   0  0  0  0  0  0  0  0  0  0  0  0
   -0.4066    4.7612    2.2904 H   0  0  0  0  0  0  0  0  0  0  0  0
   -0.9975    3.1869    2.8152 H   0  0  0  0  0  0  0  0  0  0  0  0
    0.3951    1.0488   -1.4613 N   0  0  0  0  0  0  0  0  0  0  0  0
    0.6277    0.6426   -2.8515 C   0  0  2  0  0  0  0  0  0  0  0  0
    1.3530   -0.7142   -2.9591 C   0  0  0  0  0  0  0  0  0  0  0  0
    2.1090   -1.0973   -2.0738 O   0  0  0  0  0  0  0  0  0  0  0  0
    1.4469    1.7433   -3.5280 C   0  0  0  0  0  0  0  0  0  0  0  0
    1.0794    0.7609   -0.7624 H   0  0  0  0  0  0  0  0  0  0  0  0
   -0.3277    0.5379   -3.3751 H   0  0  0  0  0  0  0  0  0  0  0  0
    2.4079    1.8720   -3.0194 H   0  0  0  0  0  0  0  0  0  0  0  0
    1.6363    1.4913   -4.5755 H   0  0  0  0  0  0  0  0  0  0  0  0
    0.9034    2.6927   -3.4921 H   0  0  0  0  0  0  0  0  0  0  0  0
    1.1838   -1.4989   -4.0862 N   0  0  0  0  0  0  0  0  0  0  0  0
    1.8070   -2.8055   -4.2513 C   0  0  0  0  0  0  0  0  0  0  0  0
    0.5068   -1.1842   -4.7746 H   0  0  0  0  0  0  0  0  0  0  0  0
    2.8955   -2.7260   -4.1604 H   0  0  0  0  0  0  0  0  0  0  0  0
    1.4395   -3.5028   -3.4913 H   0  0  0  0  0  0  0  0  0  0  0  0
    1.5733   -3.2127   -5.2395 H   0  0  0  0  0  0  0  0  0  0  0  0
  1  2  2  0  0  0  0
  1  3  1  0  0  0  0
  1  7  1  0  0  0  0
  3  4  1  0  0  0  0
  3  5  1  0  0  0  0
  3  6  1  0  0  0  0
  7  8  1  0  0  0  0
  7 12  1  0  0  0  0
  8  9  1  0  0  0  0
  8 11  1  0  0  0  0
  8 13  1  0  0  0  0
  9 10  2  0  0  0  0
  9 17  1  0  0  0  0
 11 14  1  0  0  0  0
 11 15  1  0  0  0  0
 11 16  1  0  0  0  0
 17 18  1  0  0  0  0
 17 26  1  0  0  0  0
 18 19  1  0  0  0  0
 18 21  1  0  0  0  0
 18 27  1  0  0  0  0
 19 20  2  0  0  0  0
 19 32  1  0  0  0  0
 21 22  1  0  0  0  0
 21 28  1  0  0  0  0
 21 29  1  0  0  0  0
 22 23  1  0  0  0  0
 22 30  1  0  0  0  0
 22 31  1  0  0  0  0
 23 24  1  0  0  0  0
 23 25  2  0  0  0  0
 32 33  1  0  0  0  0
 32 37  1  0  0  0  0
 33 34  1  0  0  0  0
 33 36  1  0  0  0  0
 33 38  1  0  0  0  0
 34 35  2  0  0  0  0
 34 42  1  0  0  0  0
 36 39  1  0  0  0  0
 36 40  1  0  0  0  0
 36 41  1  0  0  0  0
 42 43  1  0  0  0  0
 42 44  1  0  0  0  0
 43 45  1  0  0  0  0
 43 46  1  0  0  0  0
 43 47  1  0  0  0  0
M  CHG  1  24  -1
M  END
$$$$
