
  -OEChem-02062319033D

 53 53  0     1  0  0  0  0  0999 V2000
   -1.9298    0.2574    3.9747 C   0  0  0  0  0  0  0  0  0  0  0  0
   -0.9825   -0.3573    3.4990 O   0  0  0  0  0  0  0  0  0  0  0  0
   -2.3617   -0.0250    5.3754 C   0  0  0  0  0  0  0  0  0  0  0  0
   -3.1214   -0.8213    5.4288 H   0  0  0  0  0  0  0  0  0  0  0  0
   -1.5305   -0.3726    6.0097 H   0  0  0  0  0  0  0  0  0  0  0  0
   -2.7997    0.8299    5.9150 H   0  0  0  0  0  0  0  0  0  0  0  0
   -2.6795    1.2298    3.3336 N   0  0  0  0  0  0  0  0  0  0  0  0
   -2.4327    1.6559    1.9812 C   0  0  2  0  0  0  0  0  0  0  0  0
   -1.0977    1.0705    1.5400 C   0  0  0  0  0  0  0  0  0  0  0  0
   -0.2256    0.7177    2.3313 O   0  0  0  0  0  0  0  0  0  0  0  0
   -2.4239    3.1726    1.8718 C   0  0  0  0  0  0  0  0  0  0  0  0
   -3.4446    1.6657    3.8454 H   0  0  0  0  0  0  0  0  0  0  0  0
   -3.2368    1.2374    1.3661 H   0  0  0  0  0  0  0  0  0  0  0  0
   -1.6248    3.6099    2.4815 H   0  0  0  0  0  0  0  0  0  0  0  0
   -2.2644    3.4949    0.8375 H   0  0  0  0  0  0  0  0  0  0  0  0
   -3.3741    3.5939    2.2175 H   0  0  0  0  0  0  0  0  0  0  0  0
   -0.9750    1.0274    0.1566 N   0  0  0  0  0  0  0  0  0  0  0  0
    0.1974    0.5155   -0.5071 C   0  0  2  0  0  0  0  0  0  0  0  0
    1.3782    1.3696   -0.0593 C   0  0  0  0  0  0  0  0  0  0  0  0
    2.4722    0.8951    0.2388 O   0  0  0  0  0  0  0  0  0  0  0  0
    0.0613    0.5528   -2.0336 C   0  0  0  0  0  0  0  0  0  0  0  0
   -0.9929   -0.3964   -2.5489 C   0  0  0  0  0  0  0  0  0  0  0  0
   -0.6963   -1.7505   -2.7044 C   0  0  0  0  0  0  0  0  0  0  0  0
   -2.2636    0.0807   -2.8703 C   0  0  0  0  0  0  0  0  0  0  0  0
   -1.6705   -2.6275   -3.1811 C   0  0  0  0  0  0  0  0  0  0  0  0
   -3.2378   -0.7963   -3.3472 C   0  0  0  0  0  0  0  0  0  0  0  0
   -2.9413   -2.1505   -3.5026 C   0  0  0  0  0  0  0  0  0  0  0  0
   -3.8913   -3.0062   -3.9690 O   0  0  0  0  0  0  0  0  0  0  0  0
   -1.7550    1.3324   -0.4206 H   0  0  0  0  0  0  0  0  0  0  0  0
    0.3386   -0.5098   -0.1454 H   0  0  0  0  0  0  0  0  0  0  0  0
    1.0260    0.3258   -2.5072 H   0  0  0  0  0  0  0  0  0  0  0  0
   -0.1938    1.5660   -2.3713 H   0  0  0  0  0  0  0  0  0  0  0  0
    0.2909   -2.1308   -2.4563 H   0  0  0  0  0  0  0  0  0  0  0  0
   -2.5036    1.1343   -2.7523 H   0  0  0  0  0  0  0  0  0  0  0  0
   -1.4334   -3.6814   -3.3003 H   0  0  0  0  0  0  0  0  0  0  0  0
   -4.2255   -0.4185   -3.5961 H   0  0  0  0  0  0  0  0  0  0  0  0
   -4.7169   -2.5279   -4.1465 H   0  0  0  0  0  0  0  0  0  0  0  0
    1.0775    2.7244   -0.0814 N   0  0  0  0  0  0  0  0  0  0  0  0
    2.0270    3.7540    0.2750 C   0  0  2  0  0  0  0  0  0  0  0  0
    2.6439    3.3808    1.6165 C   0  0  0  0  0  0  0  0  0  0  0  0
    2.0986    2.6257    2.4187 O   0  0  0  0  0  0  0  0  0  0  0  0
    1.3623    5.1201    0.3436 C   0  0  0  0  0  0  0  0  0  0  0  0
    0.1429    3.0065   -0.3623 H   0  0  0  0  0  0  0  0  0  0  0  0
    2.8030    3.7499   -0.4983 H   0  0  0  0  0  0  0  0  0  0  0  0
    0.5818    5.1434    1.1128 H   0  0  0  0  0  0  0  0  0  0  0  0
    2.0885    5.9030    0.5856 H   0  0  0  0  0  0  0  0  0  0  0  0
    0.8935    5.3738   -0.6133 H   0  0  0  0  0  0  0  0  0  0  0  0
    3.8548    4.0241    1.8311 N   0  0  0  0  0  0  0  0  0  0  0  0
    4.6302    3.8446    3.0363 C   0  0  0  0  0  0  0  0  0  0  0  0
    4.2409    4.6182    1.1032 H   0  0  0  0  0  0  0  0  0  0  0  0
    4.3596    4.6218    3.7662 H   0  0  0  0  0  0  0  0  0  0  0  0
    4.4206    2.8524    3.4626 H   0  0  0  0  0  0  0  0  0  0  0  0
    5.7013    3.9224    2.7981 H   0  0  0  0  0  0  0  0  0  0  0  0
 23 25  2  0  0  0  0
 22 23  1  0  0  0  0
 24 26  1  0  0  0  0
 22 24  2  0  0  0  0
 25 27  1  0  0  0  0
 26 27  2  0  0  0  0
 21 22  1  0  0  0  0
 27 28  1  0  0  0  0
  1  3  1  0  0  0  0
  1  7  1  0  0  0  0
  1  2  2  0  0  0  0
 39 40  1  0  0  0  0
 40 48  1  0  0  0  0
 40 41  2  0  0  0  0
  8  9  1  0  0  0  0
  9 17  1  0  0  0  0
  9 10  2  0  0  0  0
 18 19  1  0  0  0  0
 19 38  1  0  0  0  0
 19 20  2  0  0  0  0
 39 42  1  0  0  0  0
  8 11  1  0  0  0  0
 48 49  1  0  0  0  0
 18 21  1  0  0  0  0
 38 39  1  0  0  0  0
  7  8  1  0  0  0  0
 17 18  1  0  0  0  0
 23 33  1  0  0  0  0
 24 34  1  0  0  0  0
 25 35  1  0  0  0  0
 26 36  1  0  0  0  0
  3  4  1  0  0  0  0
  3  5  1  0  0  0  0
  3  6  1  0  0  0  0
 42 45  1  0  0  0  0
 42 46  1  0  0  0  0
 42 47  1  0  0  0  0
 11 14  1  0  0  0  0
 11 15  1  0  0  0  0
 11 16  1  0  0  0  0
 49 51  1  0  0  0  0
 49 52  1  0  0  0  0
 49 53  1  0  0  0  0
 21 31  1  0  0  0  0
 21 32  1  0  0  0  0
 39 44  1  0  0  0  0
  8 13  1  0  0  0  0
 18 30  1  0  0  0  0
 48 50  1  0  0  0  0
  7 12  1  0  0  0  0
 38 43  1  0  0  0  0
 17 29  1  0  0  0  0
 28 37  1  0  0  0  0
M  END
$$$$

  -OEChem-02062319033D

 53 53  0     1  0  0  0  0  0999 V2000
   -1.9298    0.2574    3.9747 C   0  0  0  0  0  0  0  0  0  0  0  0
   -0.9825   -0.3573    3.4990 O   0  0  0  0  0  0  0  0  0  0  0  0
   -2.3617   -0.0250    5.3754 C   0  0  0  0  0  0  0  0  0  0  0  0
   -3.1214   -0.8213    5.4288 H   0  0  0  0  0  0  0  0  0  0  0  0
   -1.5305   -0.3726    6.0097 H   0  0  0  0  0  0  0  0  0  0  0  0
   -2.7997    0.8299    5.9150 H   0  0  0  0  0  0  0  0  0  0  0  0
   -2.6795    1.2298    3.3336 N   0  0  0  0  0  0  0  0  0  0  0  0
   -2.4327    1.6559    1.9812 C   0  0  2  0  0  0  0  0  0  0  0  0
   -1.0977    1.0705    1.5400 C   0  0  0  0  0  0  0  0  0  0  0  0
   -0.2256    0.7177    2.3313 O   0  0  0  0  0  0  0  0  0  0  0  0
   -2.4239    3.1726    1.8718 C   0  0  0  0  0  0  0  0  0  0  0  0
   -3.4446    1.6657    3.8454 H   0  0  0  0  0  0  0  0  0  0  0  0
   -3.2368    1.2374    1.3661 H   0  0  0  0  0  0  0  0  0  0  0  0
   -1.6248    3.6099    2.4815 H   0  0  0  0  0  0  0  0  0  0  0  0
   -2.2644    3.4949    0.8375 H   0  0  0  0  0  0  0  0  0  0  0  0
   -3.3741    3.5939    2.2175 H   0  0  0  0  0  0  0  0  0  0  0  0
   -0.9750    1.0274    0.1566 N   0  0  0  0  0  0  0  0  0  0  0  0
    0.0332    0.2452   -0.5132 C   0  0  2  0  0  0  0  0  0  0  0  0
    1.3892    0.7560   -0.0392 C   0  0  0  0  0  0  0  0  0  0  0  0
    2.3207    0.0092    0.2530 O   0  0  0  0  0  0  0  0  0  0  0  0
   -0.0718    0.3496   -2.0391 C   0  0  0  0  0  0  0  0  0  0  0  0
   -1.3292   -0.2843   -2.5822 C   0  0  0  0  0  0  0  0  0  0  0  0
   -1.3898   -1.6654   -2.7685 C   0  0  0  0  0  0  0  0  0  0  0  0
   -2.4305    0.5110   -2.8986 C   0  0  0  0  0  0  0  0  0  0  0  0
   -2.5517   -2.2511   -3.2710 C   0  0  0  0  0  0  0  0  0  0  0  0
   -3.5924   -0.0746   -3.4011 C   0  0  0  0  0  0  0  0  0  0  0  0
   -3.6530   -1.4557   -3.5873 C   0  0  0  0  0  0  0  0  0  0  0  0
   -4.7863   -2.0272   -4.0789 O   0  0  0  0  0  0  0  0  0  0  0  0
   -1.6437    1.5356   -0.4171 H   0  0  0  0  0  0  0  0  0  0  0  0
   -0.0985   -0.7895   -0.1755 H   0  0  0  0  0  0  0  0  0  0  0  0
    0.8071   -0.1081   -2.5131 H   0  0  0  0  0  0  0  0  0  0  0  0
   -0.0536    1.4014   -2.3537 H   0  0  0  0  0  0  0  0  0  0  0  0
   -0.5366   -2.2927   -2.5247 H   0  0  0  0  0  0  0  0  0  0  0  0
   -2.3923    1.5880   -2.7566 H   0  0  0  0  0  0  0  0  0  0  0  0
   -2.5927   -3.3276   -3.4142 H   0  0  0  0  0  0  0  0  0  0  0  0
   -4.4467    0.5504   -3.6459 H   0  0  0  0  0  0  0  0  0  0  0  0
   -5.4588   -1.3485   -4.2490 H   0  0  0  0  0  0  0  0  0  0  0  0
    1.4478    2.1427   -0.0305 N   0  0  0  0  0  0  0  0  0  0  0  0
    2.6266    2.8847    0.3552 C   0  0  2  0  0  0  0  0  0  0  0  0
    3.1117    2.3360    1.6905 C   0  0  0  0  0  0  0  0  0  0  0  0
    2.3815    1.7297    2.4717 O   0  0  0  0  0  0  0  0  0  0  0  0
    2.3354    4.3741    0.4531 C   0  0  0  0  0  0  0  0  0  0  0  0
    0.6206    2.6622   -0.3092 H   0  0  0  0  0  0  0  0  0  0  0  0
    3.3838    2.6976   -0.4140 H   0  0  0  0  0  0  0  0  0  0  0  0
    1.5789    4.5812    1.2188 H   0  0  0  0  0  0  0  0  0  0  0  0
    3.2361    4.9380    0.7175 H   0  0  0  0  0  0  0  0  0  0  0  0
    1.9584    4.7610   -0.4998 H   0  0  0  0  0  0  0  0  0  0  0  0
    4.4450    2.6406    1.9265 N   0  0  0  0  0  0  0  0  0  0  0  0
    5.1346    2.2410    3.1310 C   0  0  0  0  0  0  0  0  0  0  0  0
    4.9791    3.1307    1.2150 H   0  0  0  0  0  0  0  0  0  0  0  0
    5.0653    3.0456    3.8779 H   0  0  0  0  0  0  0  0  0  0  0  0
    4.6718    1.3274    3.5324 H   0  0  0  0  0  0  0  0  0  0  0  0
    6.1922    2.0453    2.9001 H   0  0  0  0  0  0  0  0  0  0  0  0
 23 25  2  0  0  0  0
 22 23  1  0  0  0  0
 24 26  1  0  0  0  0
 22 24  2  0  0  0  0
 25 27  1  0  0  0  0
 26 27  2  0  0  0  0
 21 22  1  0  0  0  0
 27 28  1  0  0  0  0
  1  3  1  0  0  0  0
  1  7  1  0  0  0  0
  1  2  2  0  0  0  0
 39 40  1  0  0  0  0
 40 48  1  0  0  0  0
 40 41  2  0  0  0  0
  8  9  1  0  0  0  0
  9 17  1  0  0  0  0
  9 10  2  0  0  0  0
 18 19  1  0  0  0  0
 19 38  1  0  0  0  0
 19 20  2  0  0  0  0
 39 42  1  0  0  0  0
  8 11  1  0  0  0  0
 48 49  1  0  0  0  0
 18 21  1  0  0  0  0
 38 39  1  0  0  0  0
  7  8  1  0  0  0  0
 17 18  1  0  0  0  0
 23 33  1  0  0  0  0
 24 34  1  0  0  0  0
 25 35  1  0  0  0  0
 26 36  1  0  0  0  0
  3  4  1  0  0  0  0
  3  5  1  0  0  0  0
  3  6  1  0  0  0  0
 42 45  1  0  0  0  0
 42 46  1  0  0  0  0
 42 47  1  0  0  0  0
 11 14  1  0  0  0  0
 11 15  1  0  0  0  0
 11 16  1  0  0  0  0
 49 51  1  0  0  0  0
 49 52  1  0  0  0  0
 49 53  1  0  0  0  0
 21 31  1  0  0  0  0
 21 32  1  0  0  0  0
 39 44  1  0  0  0  0
  8 13  1  0  0  0  0
 18 30  1  0  0  0  0
 48 50  1  0  0  0  0
  7 12  1  0  0  0  0
 38 43  1  0  0  0  0
 17 29  1  0  0  0  0
 28 37  1  0  0  0  0
M  END
$$$$

  -OEChem-02062319033D

 53 53  0     1  0  0  0  0  0999 V2000
   -1.9298    0.2574    3.9747 C   0  0  0  0  0  0  0  0  0  0  0  0
   -0.9825   -0.3573    3.4990 O   0  0  0  0  0  0  0  0  0  0  0  0
   -2.3617   -0.0250    5.3754 C   0  0  0  0  0  0  0  0  0  0  0  0
   -3.1214   -0.8213    5.4288 H   0  0  0  0  0  0  0  0  0  0  0  0
   -1.5305   -0.3726    6.0097 H   0  0  0  0  0  0  0  0  0  0  0  0
   -2.7997    0.8299    5.9150 H   0  0  0  0  0  0  0  0  0  0  0  0
   -2.6795    1.2298    3.3336 N   0  0  0  0  0  0  0  0  0  0  0  0
   -2.4327    1.6559    1.9812 C   0  0  2  0  0  0  0  0  0  0  0  0
   -1.0977    1.0705    1.5400 C   0  0  0  0  0  0  0  0  0  0  0  0
   -0.2256    0.7177    2.3313 O   0  0  0  0  0  0  0  0  0  0  0  0
   -2.4239    3.1726    1.8718 C   0  0  0  0  0  0  0  0  0  0  0  0
   -3.4446    1.6657    3.8454 H   0  0  0  0  0  0  0  0  0  0  0  0
   -3.2368    1.2374    1.3661 H   0  0  0  0  0  0  0  0  0  0  0  0
   -1.6248    3.6099    2.4815 H   0  0  0  0  0  0  0  0  0  0  0  0
   -2.2644    3.4949    0.8375 H   0  0  0  0  0  0  0  0  0  0  0  0
   -3.3741    3.5939    2.2175 H   0  0  0  0  0  0  0  0  0  0  0  0
   -0.9750    1.0274    0.1566 N   0  0  0  0  0  0  0  0  0  0  0  0
   -0.1950    0.0265   -0.5267 C   0  0  2  0  0  0  0  0  0  0  0  0
    1.2415    0.1601   -0.0337 C   0  0  0  0  0  0  0  0  0  0  0  0
    1.9459   -0.8078    0.2453 O   0  0  0  0  0  0  0  0  0  0  0  0
   -0.2528    0.1877   -2.0501 C   0  0  0  0  0  0  0  0  0  0  0  0
   -1.6249   -0.0887   -2.6145 C   0  0  0  0  0  0  0  0  0  0  0  0
   -2.0372   -1.4031   -2.8341 C   0  0  0  0  0  0  0  0  0  0  0  0
   -2.4806    0.9704   -2.9173 C   0  0  0  0  0  0  0  0  0  0  0  0
   -3.3051   -1.6584   -3.3563 C   0  0  0  0  0  0  0  0  0  0  0  0
   -3.7486    0.7152   -3.4396 C   0  0  0  0  0  0  0  0  0  0  0  0
   -4.1608   -0.5993   -3.6590 C   0  0  0  0  0  0  0  0  0  0  0  0
   -5.3976   -0.8485   -4.1698 O   0  0  0  0  0  0  0  0  0  0  0  0
   -1.4839    1.7032   -0.4082 H   0  0  0  0  0  0  0  0  0  0  0  0
   -0.5925   -0.9464   -0.2144 H   0  0  0  0  0  0  0  0  0  0  0  0
    0.4838   -0.4706   -2.5305 H   0  0  0  0  0  0  0  0  0  0  0  0
    0.0393    1.2059   -2.3394 H   0  0  0  0  0  0  0  0  0  0  0  0
   -1.3771   -2.2343   -2.6010 H   0  0  0  0  0  0  0  0  0  0  0  0
   -2.1679    1.9978   -2.7494 H   0  0  0  0  0  0  0  0  0  0  0  0
   -3.6204   -2.6846   -3.5253 H   0  0  0  0  0  0  0  0  0  0  0  0
   -4.4103    1.5444   -3.6737 H   0  0  0  0  0  0  0  0  0  0  0  0
   -5.8706   -0.0158   -4.3270 H   0  0  0  0  0  0  0  0  0  0  0  0
    1.6553    1.4843    0.0084 N   0  0  0  0  0  0  0  0  0  0  0  0
    2.9811    1.8888    0.4177 C   0  0  2  0  0  0  0  0  0  0  0  0
    3.2937    1.2046    1.7419 C   0  0  0  0  0  0  0  0  0  0  0  0
    2.4234    0.7901    2.5047 O   0  0  0  0  0  0  0  0  0  0  0  0
    3.0823    3.4004    0.5497 C   0  0  0  0  0  0  0  0  0  0  0  0
    0.9930    2.2054   -0.2619 H   0  0  0  0  0  0  0  0  0  0  0  0
    3.6730    1.5296   -0.3519 H   0  0  0  0  0  0  0  0  0  0  0  0
    2.3963    3.7787    1.3162 H   0  0  0  0  0  0  0  0  0  0  0  0
    4.0949    3.7071    0.8320 H   0  0  0  0  0  0  0  0  0  0  0  0
    2.8282    3.8920   -0.3956 H   0  0  0  0  0  0  0  0  0  0  0  0
    4.6578    1.1499    1.9918 N   0  0  0  0  0  0  0  0  0  0  0  0
    5.2079    0.5599    3.1899 C   0  0  0  0  0  0  0  0  0  0  0  0
    5.3079    1.5012    1.2950 H   0  0  0  0  0  0  0  0  0  0  0  0
    5.3400    1.3387    3.9554 H   0  0  0  0  0  0  0  0  0  0  0  0
    4.5209   -0.2120    3.5670 H   0  0  0  0  0  0  0  0  0  0  0  0
    6.1818    0.1033    2.9597 H   0  0  0  0  0  0  0  0  0  0  0  0
 23 25  2  0  0  0  0
 22 23  1  0  0  0  0
 24 26  1  0  0  0  0
 22 24  2  0  0  0  0
 25 27  1  0  0  0  0
 26 27  2  0  0  0  0
 21 22  1  0  0  0  0
 27 28  1  0  0  0  0
  1  3  1  0  0  0  0
  1  7  1  0  0  0  0
  1  2  2  0  0  0  0
 39 40  1  0  0  0  0
 40 48  1  0  0  0  0
 40 41  2  0  0  0  0
  8  9  1  0  0  0  0
  9 17  1  0  0  0  0
  9 10  2  0  0  0  0
 18 19  1  0  0  0  0
 19 38  1  0  0  0  0
 19 20  2  0  0  0  0
 39 42  1  0  0  0  0
  8 11  1  0  0  0  0
 48 49  1  0  0  0  0
 18 21  1  0  0  0  0
 38 39  1  0  0  0  0
  7  8  1  0  0  0  0
 17 18  1  0  0  0  0
 23 33  1  0  0  0  0
 24 34  1  0  0  0  0
 25 35  1  0  0  0  0
 26 36  1  0  0  0  0
  3  4  1  0  0  0  0
  3  5  1  0  0  0  0
  3  6  1  0  0  0  0
 42 45  1  0  0  0  0
 42 46  1  0  0  0  0
 42 47  1  0  0  0  0
 11 14  1  0  0  0  0
 11 15  1  0  0  0  0
 11 16  1  0  0  0  0
 49 51  1  0  0  0  0
 49 52  1  0  0  0  0
 49 53  1  0  0  0  0
 21 31  1  0  0  0  0
 21 32  1  0  0  0  0
 39 44  1  0  0  0  0
  8 13  1  0  0  0  0
 18 30  1  0  0  0  0
 48 50  1  0  0  0  0
  7 12  1  0  0  0  0
 38 43  1  0  0  0  0
 17 29  1  0  0  0  0
 28 37  1  0  0  0  0
M  END
$$$$

  -OEChem-02062319033D

 53 53  0     1  0  0  0  0  0999 V2000
   -1.9298    0.2574    3.9747 C   0  0  0  0  0  0  0  0  0  0  0  0
   -0.9825   -0.3573    3.4990 O   0  0  0  0  0  0  0  0  0  0  0  0
   -2.3617   -0.0250    5.3754 C   0  0  0  0  0  0  0  0  0  0  0  0
   -3.1214   -0.8213    5.4288 H   0  0  0  0  0  0  0  0  0  0  0  0
   -1.5305   -0.3726    6.0097 H   0  0  0  0  0  0  0  0  0  0  0  0
   -2.7997    0.8299    5.9150 H   0  0  0  0  0  0  0  0  0  0  0  0
   -2.6795    1.2298    3.3336 N   0  0  0  0  0  0  0  0  0  0  0  0
   -2.4327    1.6559    1.9812 C   0  0  2  0  0  0  0  0  0  0  0  0
   -1.0977    1.0705    1.5400 C   0  0  0  0  0  0  0  0  0  0  0  0
   -0.2256    0.7177    2.3313 O   0  0  0  0  0  0  0  0  0  0  0  0
   -2.4239    3.1726    1.8718 C   0  0  0  0  0  0  0  0  0  0  0  0
   -3.4446    1.6657    3.8454 H   0  0  0  0  0  0  0  0  0  0  0  0
   -3.2368    1.2374    1.3661 H   0  0  0  0  0  0  0  0  0  0  0  0
   -1.6248    3.6099    2.4815 H   0  0  0  0  0  0  0  0  0  0  0  0
   -2.2644    3.4949    0.8375 H   0  0  0  0  0  0  0  0  0  0  0  0
   -3.3741    3.5939    2.2175 H   0  0  0  0  0  0  0  0  0  0  0  0
   -0.9750    1.0274    0.1566 N   0  0  0  0  0  0  0  0  0  0  0  0
   -0.4716   -0.1257   -0.5464 C   0  0  2  0  0  0  0  0  0  0  0  0
    0.9452   -0.3776   -0.0433 C   0  0  0  0  0  0  0  0  0  0  0  0
    1.3735   -1.5002    0.2161 O   0  0  0  0  0  0  0  0  0  0  0  0
   -0.4692    0.0782   -2.0659 C   0  0  0  0  0  0  0  0  0  0  0  0
   -1.8599    0.1772   -2.6436 C   0  0  0  0  0  0  0  0  0  0  0  0
   -2.5943   -0.9814   -2.8966 C   0  0  0  0  0  0  0  0  0  0  0  0
   -2.4105    1.4274   -2.9253 C   0  0  0  0  0  0  0  0  0  0  0  0
   -3.8794   -0.8897   -3.4311 C   0  0  0  0  0  0  0  0  0  0  0  0
   -3.6956    1.5191   -3.4599 C   0  0  0  0  0  0  0  0  0  0  0  0
   -4.4301    0.3605   -3.7128 C   0  0  0  0  0  0  0  0  0  0  0  0
   -5.6836    0.4497   -4.2356 O   0  0  0  0  0  0  0  0  0  0  0  0
   -1.2864    1.8237   -0.3944 H   0  0  0  0  0  0  0  0  0  0  0  0
   -1.1098   -0.9697   -0.2595 H   0  0  0  0  0  0  0  0  0  0  0  0
    0.0782   -0.7371   -2.5581 H   0  0  0  0  0  0  0  0  0  0  0  0
    0.0785    0.9927   -2.3293 H   0  0  0  0  0  0  0  0  0  0  0  0
   -2.1733   -1.9595   -2.6801 H   0  0  0  0  0  0  0  0  0  0  0  0
   -1.8455    2.3356   -2.7314 H   0  0  0  0  0  0  0  0  0  0  0  0
   -4.4466   -1.7960   -3.6263 H   0  0  0  0  0  0  0  0  0  0  0  0
   -4.1187    2.4958   -3.6775 H   0  0  0  0  0  0  0  0  0  0  0  0
   -5.9244    1.3794   -4.3753 H   0  0  0  0  0  0  0  0  0  0  0  0
    1.6857    0.7939    0.0326 N   0  0  0  0  0  0  0  0  0  0  0  0
    3.0663    0.8340    0.4581 C   0  0  2  0  0  0  0  0  0  0  0  0
    3.1775    0.0636    1.7672 C   0  0  0  0  0  0  0  0  0  0  0  0
    2.2215   -0.1290    2.5154 O   0  0  0  0  0  0  0  0  0  0  0  0
    3.5521    2.2651    0.6267 C   0  0  0  0  0  0  0  0  0  0  0  0
    1.2345    1.6671   -0.2237 H   0  0  0  0  0  0  0  0  0  0  0  0
    3.6508    0.3254   -0.3164 H   0  0  0  0  0  0  0  0  0  0  0  0
    2.9782    2.7907    1.3986 H   0  0  0  0  0  0  0  0  0  0  0  0
    4.6063    2.2942    0.9213 H   0  0  0  0  0  0  0  0  0  0  0  0
    3.4436    2.8262   -0.3078 H   0  0  0  0  0  0  0  0  0  0  0  0
    4.4787   -0.3463    2.0226 N   0  0  0  0  0  0  0  0  0  0  0  0
    4.8450   -1.0841    3.2089 C   0  0  0  0  0  0  0  0  0  0  0  0
    5.2050   -0.1593    1.3376 H   0  0  0  0  0  0  0  0  0  0  0  0
    5.1648   -0.3825    3.9935 H   0  0  0  0  0  0  0  0  0  0  0  0
    3.9783   -1.6609    3.5641 H   0  0  0  0  0  0  0  0  0  0  0  0
    5.6709   -1.7712    2.9728 H   0  0  0  0  0  0  0  0  0  0  0  0
 23 25  2  0  0  0  0
 22 23  1  0  0  0  0
 24 26  1  0  0  0  0
 22 24  2  0  0  0  0
 25 27  1  0  0  0  0
 26 27  2  0  0  0  0
 21 22  1  0  0  0  0
 27 28  1  0  0  0  0
  1  3  1  0  0  0  0
  1  7  1  0  0  0  0
  1  2  2  0  0  0  0
 39 40  1  0  0  0  0
 40 48  1  0  0  0  0
 40 41  2  0  0  0  0
  8  9  1  0  0  0  0
  9 17  1  0  0  0  0
  9 10  2  0  0  0  0
 18 19  1  0  0  0  0
 19 38  1  0  0  0  0
 19 20  2  0  0  0  0
 39 42  1  0  0  0  0
  8 11  1  0  0  0  0
 48 49  1  0  0  0  0
 18 21  1  0  0  0  0
 38 39  1  0  0  0  0
  7  8  1  0  0  0  0
 17 18  1  0  0  0  0
 23 33  1  0  0  0  0
 24 34  1  0  0  0  0
 25 35  1  0  0  0  0
 26 36  1  0  0  0  0
  3  4  1  0  0  0  0
  3  5  1  0  0  0  0
  3  6  1  0  0  0  0
 42 45  1  0  0  0  0
 42 46  1  0  0  0  0
 42 47  1  0  0  0  0
 11 14  1  0  0  0  0
 11 15  1  0  0  0  0
 11 16  1  0  0  0  0
 49 51  1  0  0  0  0
 49 52  1  0  0  0  0
 49 53  1  0  0  0  0
 21 31  1  0  0  0  0
 21 32  1  0  0  0  0
 39 44  1  0  0  0  0
  8 13  1  0  0  0  0
 18 30  1  0  0  0  0
 48 50  1  0  0  0  0
  7 12  1  0  0  0  0
 38 43  1  0  0  0  0
 17 29  1  0  0  0  0
 28 37  1  0  0  0  0
M  END
$$$$

  -OEChem-02062319033D

 53 53  0     1  0  0  0  0  0999 V2000
   -1.9298    0.2574    3.9747 C   0  0  0  0  0  0  0  0  0  0  0  0
   -0.9825   -0.3573    3.4990 O   0  0  0  0  0  0  0  0  0  0  0  0
   -2.3617   -0.0250    5.3754 C   0  0  0  0  0  0  0  0  0  0  0  0
   -3.1214   -0.8213    5.4288 H   0  0  0  0  0  0  0  0  0  0  0  0
   -1.5305   -0.3726    6.0097 H   0  0  0  0  0  0  0  0  0  0  0  0
   -2.7997    0.8299    5.9150 H   0  0  0  0  0  0  0  0  0  0  0  0
   -2.6795    1.2298    3.3336 N   0  0  0  0  0  0  0  0  0  0  0  0
   -2.4327    1.6559    1.9812 C   0  0  2  0  0  0  0  0  0  0  0  0
   -1.0977    1.0705    1.5400 C   0  0  0  0  0  0  0  0  0  0  0  0
   -0.2256    0.7177    2.3313 O   0  0  0  0  0  0  0  0  0  0  0  0
   -2.4239    3.1726    1.8718 C   0  0  0  0  0  0  0  0  0  0  0  0
   -3.4446    1.6657    3.8454 H   0  0  0  0  0  0  0  0  0  0  0  0
   -3.2368    1.2374    1.3661 H   0  0  0  0  0  0  0  0  0  0  0  0
   -1.6248    3.6099    2.4815 H   0  0  0  0  0  0  0  0  0  0  0  0
   -2.2644    3.4949    0.8375 H   0  0  0  0  0  0  0  0  0  0  0  0
   -3.3741    3.5939    2.2175 H   0  0  0  0  0  0  0  0  0  0  0  0
   -0.9750    1.0274    0.1566 N   0  0  0  0  0  0  0  0  0  0  0  0
   -0.7779   -0.2009   -0.5713 C   0  0  2  0  0  0  0  0  0  0  0  0
    0.5206   -0.8204   -0.0671 C   0  0  0  0  0  0  0  0  0  0  0  0
    0.6423   -2.0209    0.1675 O   0  0  0  0  0  0  0  0  0  0  0  0
   -0.7063    0.0285   -2.0853 C   0  0  0  0  0  0  0  0  0  0  0  0
   -2.0181    0.4952   -2.6676 C   0  0  0  0  0  0  0  0  0  0  0  0
   -3.0234   -0.4291   -2.9519 C   0  0  0  0  0  0  0  0  0  0  0  0
   -2.2250    1.8510   -2.9221 C   0  0  0  0  0  0  0  0  0  0  0  0
   -4.2355    0.0024   -3.4905 C   0  0  0  0  0  0  0  0  0  0  0  0
   -3.4371    2.2825   -3.4608 C   0  0  0  0  0  0  0  0  0  0  0  0
   -4.4424    1.3582   -3.7450 C   0  0  0  0  0  0  0  0  0  0  0  0
   -5.6248    1.7788   -4.2718 O   0  0  0  0  0  0  0  0  0  0  0  0
   -1.0646    1.8888   -0.3768 H   0  0  0  0  0  0  0  0  0  0  0  0
   -1.6151   -0.8580   -0.3078 H   0  0  0  0  0  0  0  0  0  0  0  0
   -0.3820   -0.8894   -2.5942 H   0  0  0  0  0  0  0  0  0  0  0  0
    0.0613    0.7765   -2.3241 H   0  0  0  0  0  0  0  0  0  0  0  0
   -2.8709   -1.4871   -2.7567 H   0  0  0  0  0  0  0  0  0  0  0  0
   -1.4473    2.5784   -2.7036 H   0  0  0  0  0  0  0  0  0  0  0  0
   -5.0148   -0.7226   -3.7101 H   0  0  0  0  0  0  0  0  0  0  0  0
   -3.5919    3.3397   -3.6570 H   0  0  0  0  0  0  0  0  0  0  0  0
   -5.6164    2.7420   -4.3904 H   0  0  0  0  0  0  0  0  0  0  0  0
    1.5369    0.1187    0.0405 N   0  0  0  0  0  0  0  0  0  0  0  0
    2.8765   -0.2078    0.4737 C   0  0  2  0  0  0  0  0  0  0  0  0
    2.7711   -1.0091    1.7646 C   0  0  0  0  0  0  0  0  0  0  0  0
    1.7895   -0.9651    2.5032 O   0  0  0  0  0  0  0  0  0  0  0  0
    3.7127    1.0458    0.6789 C   0  0  0  0  0  0  0  0  0  0  0  0
    1.3288    1.0841   -0.1972 H   0  0  0  0  0  0  0  0  0  0  0  0
    3.3188   -0.8328   -0.3097 H   0  0  0  0  0  0  0  0  0  0  0  0
    3.2851    1.6846    1.4603 H   0  0  0  0  0  0  0  0  0  0  0  0
    4.7355    0.7957    0.9795 H   0  0  0  0  0  0  0  0  0  0  0  0
    3.7627    1.6360   -0.2424 H   0  0  0  0  0  0  0  0  0  0  0  0
    3.9199   -1.7460    2.0167 N   0  0  0  0  0  0  0  0  0  0  0  0
    4.0707   -2.5790    3.1869 C   0  0  0  0  0  0  0  0  0  0  0  0
    4.6774   -1.7377    1.3400 H   0  0  0  0  0  0  0  0  0  0  0  0
    4.5517   -2.0009    3.9896 H   0  0  0  0  0  0  0  0  0  0  0  0
    3.0808   -2.9205    3.5237 H   0  0  0  0  0  0  0  0  0  0  0  0
    4.6943   -3.4505    2.9386 H   0  0  0  0  0  0  0  0  0  0  0  0
 23 25  2  0  0  0  0
 22 23  1  0  0  0  0
 24 26  1  0  0  0  0
 22 24  2  0  0  0  0
 25 27  1  0  0  0  0
 26 27  2  0  0  0  0
 21 22  1  0  0  0  0
 27 28  1  0  0  0  0
  1  3  1  0  0  0  0
  1  7  1  0  0  0  0
  1  2  2  0  0  0  0
 39 40  1  0  0  0  0
 40 48  1  0  0  0  0
 40 41  2  0  0  0  0
  8  9  1  0  0  0  0
  9 17  1  0  0  0  0
  9 10  2  0  0  0  0
 18 19  1  0  0  0  0
 19 38  1  0  0  0  0
 19 20  2  0  0  0  0
 39 42  1  0  0  0  0
  8 11  1  0  0  0  0
 48 49  1  0  0  0  0
 18 21  1  0  0  0  0
 38 39  1  0  0  0  0
  7  8  1  0  0  0  0
 17 18  1  0  0  0  0
 23 33  1  0  0  0  0
 24 34  1  0  0  0  0
 25 35  1  0  0  0  0
 26 36  1  0  0  0  0
  3  4  1  0  0  0  0
  3  5  1  0  0  0  0
  3  6  1  0  0  0  0
 42 45  1  0  0  0  0
 42 46  1  0  0  0  0
 42 47  1  0  0  0  0
 11 14  1  0  0  0  0
 11 15  1  0  0  0  0
 11 16  1  0  0  0  0
 49 51  1  0  0  0  0
 49 52  1  0  0  0  0
 49 53  1  0  0  0  0
 21 31  1  0  0  0  0
 21 32  1  0  0  0  0
 39 44  1  0  0  0  0
  8 13  1  0  0  0  0
 18 30  1  0  0  0  0
 48 50  1  0  0  0  0
  7 12  1  0  0  0  0
 38 43  1  0  0  0  0
 17 29  1  0  0  0  0
 28 37  1  0  0  0  0
M  END
$$$$

  -OEChem-02062319033D

 53 53  0     1  0  0  0  0  0999 V2000
   -1.9298    0.2574    3.9747 C   0  0  0  0  0  0  0  0  0  0  0  0
   -0.9825   -0.3573    3.4990 O   0  0  0  0  0  0  0  0  0  0  0  0
   -2.3617   -0.0250    5.3754 C   0  0  0  0  0  0  0  0  0  0  0  0
   -3.1214   -0.8213    5.4288 H   0  0  0  0  0  0  0  0  0  0  0  0
   -1.5305   -0.3726    6.0097 H   0  0  0  0  0  0  0  0  0  0  0  0
   -2.7997    0.8299    5.9150 H   0  0  0  0  0  0  0  0  0  0  0  0
   -2.6795    1.2298    3.3336 N   0  0  0  0  0  0  0  0  0  0  0  0
   -2.4327    1.6559    1.9812 C   0  0  2  0  0  0  0  0  0  0  0  0
   -1.0977    1.0705    1.5400 C   0  0  0  0  0  0  0  0  0  0  0  0
   -0.2256    0.7177    2.3313 O   0  0  0  0  0  0  0  0  0  0  0  0
   -2.4239    3.1726    1.8718 C   0  0  0  0  0  0  0  0  0  0  0  0
   -3.4446    1.6657    3.8454 H   0  0  0  0  0  0  0  0  0  0  0  0
   -3.2368    1.2374    1.3661 H   0  0  0  0  0  0  0  0  0  0  0  0
   -1.6248    3.6099    2.4815 H   0  0  0  0  0  0  0  0  0  0  0  0
   -2.2644    3.4949    0.8375 H   0  0  0  0  0  0  0  0  0  0  0  0
   -3.3741    3.5939    2.2175 H   0  0  0  0  0  0  0  0  0  0  0  0
   -0.9750    1.0274    0.1566 N   0  0  0  0  0  0  0  0  0  0  0  0
   -1.0929   -0.1940   -0.5994 C   0  0  2  0  0  0  0  0  0  0  0  0
   -0.0035   -1.1382   -0.1037 C   0  0  0  0  0  0  0  0  0  0  0  0
   -0.1977   -2.3343    0.1028 O   0  0  0  0  0  0  0  0  0  0  0  0
   -0.9480    0.0421   -2.1072 C   0  0  0  0  0  0  0  0  0  0  0  0
   -2.0888    0.8438   -2.6847 C   0  0  0  0  0  0  0  0  0  0  0  0
   -3.2950    0.2163   -2.9961 C   0  0  0  0  0  0  0  0  0  0  0  0
   -1.9366    2.2123   -2.9078 C   0  0  0  0  0  0  0  0  0  0  0  0
   -4.3491    0.9572   -3.5303 C   0  0  0  0  0  0  0  0  0  0  0  0
   -2.9907    2.9533   -3.4421 C   0  0  0  0  0  0  0  0  0  0  0  0
   -4.1969    2.3257   -3.7534 C   0  0  0  0  0  0  0  0  0  0  0  0
   -5.2252    3.0483   -4.2760 O   0  0  0  0  0  0  0  0  0  0  0  0
   -0.8338    1.8942   -0.3565 H   0  0  0  0  0  0  0  0  0  0  0  0
   -2.0739   -0.6187   -0.3559 H   0  0  0  0  0  0  0  0  0  0  0  0
   -0.8655   -0.9170   -2.6362 H   0  0  0  0  0  0  0  0  0  0  0  0
   -0.0110    0.5720   -2.3241 H   0  0  0  0  0  0  0  0  0  0  0  0
   -3.4224   -0.8494   -2.8255 H   0  0  0  0  0  0  0  0  0  0  0  0
   -1.0003    2.7096   -2.6681 H   0  0  0  0  0  0  0  0  0  0  0  0
   -5.2863    0.4626   -3.7711 H   0  0  0  0  0  0  0  0  0  0  0  0
   -2.8658    4.0187   -3.6138 H   0  0  0  0  0  0  0  0  0  0  0  0
   -4.9677    3.9792   -4.3715 H   0  0  0  0  0  0  0  0  0  0  0  0
    1.2192   -0.4954    0.0315 N   0  0  0  0  0  0  0  0  0  0  0  0
    2.4246   -1.1655    0.4635 C   0  0  2  0  0  0  0  0  0  0  0  0
    2.1022   -1.9405    1.7343 C   0  0  0  0  0  0  0  0  0  0  0  0
    1.1569   -1.6610    2.4688 O   0  0  0  0  0  0  0  0  0  0  0  0
    3.5532   -0.1746    0.7028 C   0  0  0  0  0  0  0  0  0  0  0  0
    1.2694    0.4960   -0.1841 H   0  0  0  0  0  0  0  0  0  0  0  0
    2.6996   -1.8662   -0.3324 H   0  0  0  0  0  0  0  0  0  0  0  0
    3.2959    0.5356    1.4971 H   0  0  0  0  0  0  0  0  0  0  0  0
    4.4737   -0.6864    1.0025 H   0  0  0  0  0  0  0  0  0  0  0  0
    3.7637    0.4027   -0.2039 H   0  0  0  0  0  0  0  0  0  0  0  0
    3.0195   -2.9539    1.9745 N   0  0  0  0  0  0  0  0  0  0  0  0
    2.9377   -3.8229    3.1252 C   0  0  0  0  0  0  0  0  0  0  0  0
    3.7609   -3.1265    1.3020 H   0  0  0  0  0  0  0  0  0  0  0  0
    3.5425   -3.4060    3.9439 H   0  0  0  0  0  0  0  0  0  0  0  0
    1.8896   -3.9050    3.4488 H   0  0  0  0  0  0  0  0  0  0  0  0
    3.3185   -4.8201    2.8593 H   0  0  0  0  0  0  0  0  0  0  0  0
 23 25  2  0  0  0  0
 22 23  1  0  0  0  0
 24 26  1  0  0  0  0
 22 24  2  0  0  0  0
 25 27  1  0  0  0  0
 26 27  2  0  0  0  0
 21 22  1  0  0  0  0
 27 28  1  0  0  0  0
  1  3  1  0  0  0  0
  1  7  1  0  0  0  0
  1  2  2  0  0  0  0
 39 40  1  0  0  0  0
 40 48  1  0  0  0  0
 40 41  2  0  0  0  0
  8  9  1  0  0  0  0
  9 17  1  0  0  0  0
  9 10  2  0  0  0  0
 18 19  1  0  0  0  0
 19 38  1  0  0  0  0
 19 20  2  0  0  0  0
 39 42  1  0  0  0  0
  8 11  1  0  0  0  0
 48 49  1  0  0  0  0
 18 21  1  0  0  0  0
 38 39  1  0  0  0  0
  7  8  1  0  0  0  0
 17 18  1  0  0  0  0
 23 33  1  0  0  0  0
 24 34  1  0  0  0  0
 25 35  1  0  0  0  0
 26 36  1  0  0  0  0
  3  4  1  0  0  0  0
  3  5  1  0  0  0  0
  3  6  1  0  0  0  0
 42 45  1  0  0  0  0
 42 46  1  0  0  0  0
 42 47  1  0  0  0  0
 11 14  1  0  0  0  0
 11 15  1  0  0  0  0
 11 16  1  0  0  0  0
 49 51  1  0  0  0  0
 49 52  1  0  0  0  0
 49 53  1  0  0  0  0
 21 31  1  0  0  0  0
 21 32  1  0  0  0  0
 39 44  1  0  0  0  0
  8 13  1  0  0  0  0
 18 30  1  0  0  0  0
 48 50  1  0  0  0  0
  7 12  1  0  0  0  0
 38 43  1  0  0  0  0
 17 29  1  0  0  0  0
 28 37  1  0  0  0  0
M  END
$$$$

  -OEChem-02062319033D

 53 53  0     1  0  0  0  0  0999 V2000
   -1.9298    0.2574    3.9747 C   0  0  0  0  0  0  0  0  0  0  0  0
   -0.9825   -0.3573    3.4990 O   0  0  0  0  0  0  0  0  0  0  0  0
   -2.3617   -0.0250    5.3754 C   0  0  0  0  0  0  0  0  0  0  0  0
   -3.1214   -0.8213    5.4288 H   0  0  0  0  0  0  0  0  0  0  0  0
   -1.5305   -0.3726    6.0097 H   0  0  0  0  0  0  0  0  0  0  0  0
   -2.7997    0.8299    5.9150 H   0  0  0  0  0  0  0  0  0  0  0  0
   -2.6795    1.2298    3.3336 N   0  0  0  0  0  0  0  0  0  0  0  0
   -2.4327    1.6559    1.9812 C   0  0  2  0  0  0  0  0  0  0  0  0
   -1.0977    1.0705    1.5400 C   0  0  0  0  0  0  0  0  0  0  0  0
   -0.2256    0.7177    2.3313 O   0  0  0  0  0  0  0  0  0  0  0  0
   -2.4239    3.1726    1.8718 C   0  0  0  0  0  0  0  0  0  0  0  0
   -3.4446    1.6657    3.8454 H   0  0  0  0  0  0  0  0  0  0  0  0
   -3.2368    1.2374    1.3661 H   0  0  0  0  0  0  0  0  0  0  0  0
   -1.6248    3.6099    2.4815 H   0  0  0  0  0  0  0  0  0  0  0  0
   -2.2644    3.4949    0.8375 H   0  0  0  0  0  0  0  0  0  0  0  0
   -3.3741    3.5939    2.2175 H   0  0  0  0  0  0  0  0  0  0  0  0
   -0.9750    1.0274    0.1566 N   0  0  0  0  0  0  0  0  0  0  0  0
   -1.3952   -0.1056   -0.6290 C   0  0  2  0  0  0  0  0  0  0  0  0
   -0.5913   -1.3093   -0.1504 C   0  0  0  0  0  0  0  0  0  0  0  0
   -1.0893   -2.4190    0.0264 O   0  0  0  0  0  0  0  0  0  0  0  0
   -1.1777    0.1180   -2.1299 C   0  0  0  0  0  0  0  0  0  0  0  0
   -2.0671    1.1991   -2.6939 C   0  0  0  0  0  0  0  0  0  0  0  0
   -3.3908    0.9106   -3.0262 C   0  0  0  0  0  0  0  0  0  0  0  0
   -1.5651    2.4866   -2.8834 C   0  0  0  0  0  0  0  0  0  0  0  0
   -4.2124    1.9097   -3.5479 C   0  0  0  0  0  0  0  0  0  0  0  0
   -2.3868    3.4857   -3.4052 C   0  0  0  0  0  0  0  0  0  0  0  0
   -3.7105    3.1973   -3.7374 C   0  0  0  0  0  0  0  0  0  0  0  0
   -4.5120    4.1717   -4.2478 O   0  0  0  0  0  0  0  0  0  0  0  0
   -0.6097    1.8395   -0.3349 H   0  0  0  0  0  0  0  0  0  0  0  0
   -2.4551   -0.2682   -0.4006 H   0  0  0  0  0  0  0  0  0  0  0  0
   -1.3392   -0.8182   -2.6813 H   0  0  0  0  0  0  0  0  0  0  0  0
   -0.1336    0.3930   -2.3294 H   0  0  0  0  0  0  0  0  0  0  0  0
   -3.7902   -0.0896   -2.8818 H   0  0  0  0  0  0  0  0  0  0  0  0
   -0.5350    2.7204   -2.6272 H   0  0  0  0  0  0  0  0  0  0  0  0
   -5.2428    1.6788   -3.8051 H   0  0  0  0  0  0  0  0  0  0  0  0
   -1.9898    4.4864   -3.5507 H   0  0  0  0  0  0  0  0  0  0  0  0
   -4.0224    5.0066   -4.3197 H   0  0  0  0  0  0  0  0  0  0  0  0
    0.7542   -1.0064    0.0062 N   0  0  0  0  0  0  0  0  0  0  0  0
    1.7414   -1.9739    0.4281 C   0  0  2  0  0  0  0  0  0  0  0  0
    1.2162   -2.6671    1.6784 C   0  0  0  0  0  0  0  0  0  0  0  0
    0.3669   -2.1695    2.4146 O   0  0  0  0  0  0  0  0  0  0  0  0
    3.0844   -1.3129    0.6967 C   0  0  0  0  0  0  0  0  0  0  0  0
    1.0603   -0.0571   -0.1854 H   0  0  0  0  0  0  0  0  0  0  0  0
    1.8354   -2.7042   -0.3829 H   0  0  0  0  0  0  0  0  0  0  0  0
    3.0101   -0.5778    1.5064 H   0  0  0  0  0  0  0  0  0  0  0  0
    3.8387   -2.0511    0.9887 H   0  0  0  0  0  0  0  0  0  0  0  0
    3.4465   -0.7897   -0.1949 H   0  0  0  0  0  0  0  0  0  0  0  0
    1.8388   -3.8877    1.8989 N   0  0  0  0  0  0  0  0  0  0  0  0
    1.5233   -4.7311    3.0281 C   0  0  0  0  0  0  0  0  0  0  0  0
    2.5182   -4.2309    1.2263 H   0  0  0  0  0  0  0  0  0  0  0  0
    2.2060   -4.5021    3.8596 H   0  0  0  0  0  0  0  0  0  0  0  0
    0.4859   -4.5473    3.3444 H   0  0  0  0  0  0  0  0  0  0  0  0
    1.6372   -5.7867    2.7403 H   0  0  0  0  0  0  0  0  0  0  0  0
 23 25  2  0  0  0  0
 22 23  1  0  0  0  0
 24 26  1  0  0  0  0
 22 24  2  0  0  0  0
 25 27  1  0  0  0  0
 26 27  2  0  0  0  0
 21 22  1  0  0  0  0
 27 28  1  0  0  0  0
  1  3  1  0  0  0  0
  1  7  1  0  0  0  0
  1  2  2  0  0  0  0
 39 40  1  0  0  0  0
 40 48  1  0  0  0  0
 40 41  2  0  0  0  0
  8  9  1  0  0  0  0
  9 17  1  0  0  0  0
  9 10  2  0  0  0  0
 18 19  1  0  0  0  0
 19 38  1  0  0  0  0
 19 20  2  0  0  0  0
 39 42  1  0  0  0  0
  8 11  1  0  0  0  0
 48 49  1  0  0  0  0
 18 21  1  0  0  0  0
 38 39  1  0  0  0  0
  7  8  1  0  0  0  0
 17 18  1  0  0  0  0
 23 33  1  0  0  0  0
 24 34  1  0  0  0  0
 25 35  1  0  0  0  0
 26 36  1  0  0  0  0
  3  4  1  0  0  0  0
  3  5  1  0  0  0  0
  3  6  1  0  0  0  0
 42 45  1  0  0  0  0
 42 46  1  0  0  0  0
 42 47  1  0  0  0  0
 11 14  1  0  0  0  0
 11 15  1  0  0  0  0
 11 16  1  0  0  0  0
 49 51  1  0  0  0  0
 49 52  1  0  0  0  0
 49 53  1  0  0  0  0
 21 31  1  0  0  0  0
 21 32  1  0  0  0  0
 39 44  1  0  0  0  0
  8 13  1  0  0  0  0
 18 30  1  0  0  0  0
 48 50  1  0  0  0  0
  7 12  1  0  0  0  0
 38 43  1  0  0  0  0
 17 29  1  0  0  0  0
 28 37  1  0  0  0  0
M  END
$$$$

  -OEChem-02062319033D

 53 53  0     1  0  0  0  0  0999 V2000
   -1.9298    0.2574    3.9747 C   0  0  0  0  0  0  0  0  0  0  0  0
   -0.9825   -0.3573    3.4990 O   0  0  0  0  0  0  0  0  0  0  0  0
   -2.3617   -0.0250    5.3754 C   0  0  0  0  0  0  0  0  0  0  0  0
   -3.1214   -0.8213    5.4288 H   0  0  0  0  0  0  0  0  0  0  0  0
   -1.5305   -0.3726    6.0097 H   0  0  0  0  0  0  0  0  0  0  0  0
   -2.7997    0.8299    5.9150 H   0  0  0  0  0  0  0  0  0  0  0  0
   -2.6795    1.2298    3.3336 N   0  0  0  0  0  0  0  0  0  0  0  0
   -2.4327    1.6559    1.9812 C   0  0  2  0  0  0  0  0  0  0  0  0
   -1.0977    1.0705    1.5400 C   0  0  0  0  0  0  0  0  0  0  0  0
   -0.2256    0.7177    2.3313 O   0  0  0  0  0  0  0  0  0  0  0  0
   -2.4239    3.1726    1.8718 C   0  0  0  0  0  0  0  0  0  0  0  0
   -3.4446    1.6657    3.8454 H   0  0  0  0  0  0  0  0  0  0  0  0
   -3.2368    1.2374    1.3661 H   0  0  0  0  0  0  0  0  0  0  0  0
   -1.6248    3.6099    2.4815 H   0  0  0  0  0  0  0  0  0  0  0  0
   -2.2644    3.4949    0.8375 H   0  0  0  0  0  0  0  0  0  0  0  0
   -3.3741    3.5939    2.2175 H   0  0  0  0  0  0  0  0  0  0  0  0
   -0.9750    1.0274    0.1566 N   0  0  0  0  0  0  0  0  0  0  0  0
   -1.6642    0.0584   -0.6579 C   0  0  2  0  0  0  0  0  0  0  0  0
   -1.2028   -1.3219   -0.2043 C   0  0  0  0  0  0  0  0  0  0  0  0
   -1.9717   -2.2694   -0.0565 O   0  0  0  0  0  0  0  0  0  0  0  0
   -1.3799    0.2510   -2.1520 C   0  0  0  0  0  0  0  0  0  0  0  0
   -1.9545    1.5368   -2.6944 C   0  0  0  0  0  0  0  0  0  0  0  0
   -3.3041    1.6067   -3.0402 C   0  0  0  0  0  0  0  0  0  0  0  0
   -1.1358    2.6553   -2.8506 C   0  0  0  0  0  0  0  0  0  0  0  0
   -3.8349    2.7950   -3.5420 C   0  0  0  0  0  0  0  0  0  0  0  0
   -1.6665    3.8436   -3.3525 C   0  0  0  0  0  0  0  0  0  0  0  0
   -3.0161    3.9134   -3.6982 C   0  0  0  0  0  0  0  0  0  0  0  0
   -3.5339    5.0724   -4.1891 O   0  0  0  0  0  0  0  0  0  0  0  0
   -0.4074    1.7284   -0.3135 H   0  0  0  0  0  0  0  0  0  0  0  0
   -2.7327    0.1696   -0.4389 H   0  0  0  0  0  0  0  0  0  0  0  0
   -1.7711   -0.5997   -2.7264 H   0  0  0  0  0  0  0  0  0  0  0  0
   -0.2980    0.2519   -2.3396 H   0  0  0  0  0  0  0  0  0  0  0  0
   -3.9493    0.7403   -2.9218 H   0  0  0  0  0  0  0  0  0  0  0  0
   -0.0830    2.6100   -2.5837 H   0  0  0  0  0  0  0  0  0  0  0  0
   -4.8870    2.8431   -3.8099 H   0  0  0  0  0  0  0  0  0  0  0  0
   -1.0236    4.7110   -3.4721 H   0  0  0  0  0  0  0  0  0  0  0  0
   -2.8451    5.7542   -4.2386 H   0  0  0  0  0  0  0  0  0  0  0  0
    0.1735   -1.3797   -0.0337 N   0  0  0  0  0  0  0  0  0  0  0  0
    0.8735   -2.5779    0.3700 C   0  0  2  0  0  0  0  0  0  0  0  0
    0.1737   -3.1394    1.6007 C   0  0  0  0  0  0  0  0  0  0  0  0
   -0.5269   -2.4558    2.3443 O   0  0  0  0  0  0  0  0  0  0  0  0
    2.3384   -2.2914    0.6611 C   0  0  0  0  0  0  0  0  0  0  0  0
    0.7160   -0.5374   -0.2010 H   0  0  0  0  0  0  0  0  0  0  0  0
    0.7851   -3.2899   -0.4578 H   0  0  0  0  0  0  0  0  0  0  0  0
    2.4470   -1.5799    1.4877 H   0  0  0  0  0  0  0  0  0  0  0  0
    2.8738   -3.2053    0.9391 H   0  0  0  0  0  0  0  0  0  0  0  0
    2.8329   -1.8600   -0.2159 H   0  0  0  0  0  0  0  0  0  0  0  0
    0.4584   -4.4837    1.7951 N   0  0  0  0  0  0  0  0  0  0  0  0
   -0.0762   -5.2417    2.9022 C   0  0  0  0  0  0  0  0  0  0  0  0
    1.0338   -4.9756    1.1179 H   0  0  0  0  0  0  0  0  0  0  0  0
    0.6333   -5.2146    3.7424 H   0  0  0  0  0  0  0  0  0  0  0  0
   -1.0346   -4.8036    3.2175 H   0  0  0  0  0  0  0  0  0  0  0  0
   -0.2348   -6.2844    2.5899 H   0  0  0  0  0  0  0  0  0  0  0  0
 23 25  2  0  0  0  0
 22 23  1  0  0  0  0
 24 26  1  0  0  0  0
 22 24  2  0  0  0  0
 25 27  1  0  0  0  0
 26 27  2  0  0  0  0
 21 22  1  0  0  0  0
 27 28  1  0  0  0  0
  1  3  1  0  0  0  0
  1  7  1  0  0  0  0
  1  2  2  0  0  0  0
 39 40  1  0  0  0  0
 40 48  1  0  0  0  0
 40 41  2  0  0  0  0
  8  9  1  0  0  0  0
  9 17  1  0  0  0  0
  9 10  2  0  0  0  0
 18 19  1  0  0  0  0
 19 38  1  0  0  0  0
 19 20  2  0  0  0  0
 39 42  1  0  0  0  0
  8 11  1  0  0  0  0
 48 49  1  0  0  0  0
 18 21  1  0  0  0  0
 38 39  1  0  0  0  0
  7  8  1  0  0  0  0
 17 18  1  0  0  0  0
 23 33  1  0  0  0  0
 24 34  1  0  0  0  0
 25 35  1  0  0  0  0
 26 36  1  0  0  0  0
  3  4  1  0  0  0  0
  3  5  1  0  0  0  0
  3  6  1  0  0  0  0
 42 45  1  0  0  0  0
 42 46  1  0  0  0  0
 42 47  1  0  0  0  0
 11 14  1  0  0  0  0
 11 15  1  0  0  0  0
 11 16  1  0  0  0  0
 49 51  1  0  0  0  0
 49 52  1  0  0  0  0
 49 53  1  0  0  0  0
 21 31  1  0  0  0  0
 21 32  1  0  0  0  0
 39 44  1  0  0  0  0
  8 13  1  0  0  0  0
 18 30  1  0  0  0  0
 48 50  1  0  0  0  0
  7 12  1  0  0  0  0
 38 43  1  0  0  0  0
 17 29  1  0  0  0  0
 28 37  1  0  0  0  0
M  END
$$$$

  -OEChem-02062319033D

 53 53  0     1  0  0  0  0  0999 V2000
   -1.9298    0.2574    3.9747 C   0  0  0  0  0  0  0  0  0  0  0  0
   -0.9825   -0.3573    3.4990 O   0  0  0  0  0  0  0  0  0  0  0  0
   -2.3617   -0.0250    5.3754 C   0  0  0  0  0  0  0  0  0  0  0  0
   -3.1214   -0.8213    5.4288 H   0  0  0  0  0  0  0  0  0  0  0  0
   -1.5305   -0.3726    6.0097 H   0  0  0  0  0  0  0  0  0  0  0  0
   -2.7997    0.8299    5.9150 H   0  0  0  0  0  0  0  0  0  0  0  0
   -2.6795    1.2298    3.3336 N   0  0  0  0  0  0  0  0  0  0  0  0
   -2.4327    1.6559    1.9812 C   0  0  2  0  0  0  0  0  0  0  0  0
   -1.0977    1.0705    1.5400 C   0  0  0  0  0  0  0  0  0  0  0  0
   -0.2256    0.7177    2.3313 O   0  0  0  0  0  0  0  0  0  0  0  0
   -2.4239    3.1726    1.8718 C   0  0  0  0  0  0  0  0  0  0  0  0
   -3.4446    1.6657    3.8454 H   0  0  0  0  0  0  0  0  0  0  0  0
   -3.2368    1.2374    1.3661 H   0  0  0  0  0  0  0  0  0  0  0  0
   -1.6248    3.6099    2.4815 H   0  0  0  0  0  0  0  0  0  0  0  0
   -2.2644    3.4949    0.8375 H   0  0  0  0  0  0  0  0  0  0  0  0
   -3.3741    3.5939    2.2175 H   0  0  0  0  0  0  0  0  0  0  0  0
   -0.9750    1.0274    0.1566 N   0  0  0  0  0  0  0  0  0  0  0  0
   -1.8815    0.2868   -0.6843 C   0  0  2  0  0  0  0  0  0  0  0  0
   -1.7963   -1.1754   -0.2615 C   0  0  0  0  0  0  0  0  0  0  0  0
   -2.7849   -1.8956   -0.1403 O   0  0  0  0  0  0  0  0  0  0  0  0
   -1.5408    0.4321   -2.1719 C   0  0  0  0  0  0  0  0  0  0  0  0
   -1.7587    1.8341   -2.6863 C   0  0  0  0  0  0  0  0  0  0  0  0
   -3.0409    2.2570   -3.0371 C   0  0  0  0  0  0  0  0  0  0  0  0
   -0.6778    2.7068   -2.8116 C   0  0  0  0  0  0  0  0  0  0  0  0
   -3.2421    3.5526   -3.5131 C   0  0  0  0  0  0  0  0  0  0  0  0
   -0.8790    4.0024   -3.2876 C   0  0  0  0  0  0  0  0  0  0  0  0
   -2.1612    4.4253   -3.6383 C   0  0  0  0  0  0  0  0  0  0  0  0
   -2.3576    5.6891   -4.1040 O   0  0  0  0  0  0  0  0  0  0  0  0
   -0.2409    1.5684   -0.2937 H   0  0  0  0  0  0  0  0  0  0  0  0
   -2.8877    0.6648   -0.4681 H   0  0  0  0  0  0  0  0  0  0  0  0
   -2.1315   -0.2763   -2.7684 H   0  0  0  0  0  0  0  0  0  0  0  0
   -0.4931    0.1581   -2.3539 H   0  0  0  0  0  0  0  0  0  0  0  0
   -3.8887    1.5839   -2.9427 H   0  0  0  0  0  0  0  0  0  0  0  0
    0.3247    2.3859   -2.5405 H   0  0  0  0  0  0  0  0  0  0  0  0
   -4.2433    3.8761   -3.7850 H   0  0  0  0  0  0  0  0  0  0  0  0
   -0.0330    4.6772   -3.3832 H   0  0  0  0  0  0  0  0  0  0  0  0
   -1.5158    6.1712   -4.1338 H   0  0  0  0  0  0  0  0  0  0  0  0
   -0.4833   -1.5896   -0.0854 N   0  0  0  0  0  0  0  0  0  0  0  0
   -0.1200   -2.9363    0.2931 C   0  0  2  0  0  0  0  0  0  0  0  0
   -0.9544   -3.3251    1.5064 C   0  0  0  0  0  0  0  0  0  0  0  0
   -1.4634   -2.5004    2.2626 O   0  0  0  0  0  0  0  0  0  0  0  0
    1.3659   -3.0436    0.5983 C   0  0  0  0  0  0  0  0  0  0  0  0
    0.2597   -0.9122   -0.2298 H   0  0  0  0  0  0  0  0  0  0  0  0
   -0.3797   -3.5833   -0.5519 H   0  0  0  0  0  0  0  0  0  0  0  0
    1.6450   -2.4022    1.4423 H   0  0  0  0  0  0  0  0  0  0  0  0
    1.6447   -4.0704    0.8571 H   0  0  0  0  0  0  0  0  0  0  0  0
    1.9645   -2.7351   -0.2656 H   0  0  0  0  0  0  0  0  0  0  0  0
   -1.0277   -4.7013    1.6701 N   0  0  0  0  0  0  0  0  0  0  0  0
   -1.7517   -5.3198    2.7561 C   0  0  0  0  0  0  0  0  0  0  0  0
   -0.5910   -5.3101    0.9842 H   0  0  0  0  0  0  0  0  0  0  0  0
   -1.0685   -5.4949    3.6002 H   0  0  0  0  0  0  0  0  0  0  0  0
   -2.5683   -4.6564    3.0770 H   0  0  0  0  0  0  0  0  0  0  0  0
   -2.1701   -6.2794    2.4181 H   0  0  0  0  0  0  0  0  0  0  0  0
 23 25  2  0  0  0  0
 22 23  1  0  0  0  0
 24 26  1  0  0  0  0
 22 24  2  0  0  0  0
 25 27  1  0  0  0  0
 26 27  2  0  0  0  0
 21 22  1  0  0  0  0
 27 28  1  0  0  0  0
  1  3  1  0  0  0  0
  1  7  1  0  0  0  0
  1  2  2  0  0  0  0
 39 40  1  0  0  0  0
 40 48  1  0  0  0  0
 40 41  2  0  0  0  0
  8  9  1  0  0  0  0
  9 17  1  0  0  0  0
  9 10  2  0  0  0  0
 18 19  1  0  0  0  0
 19 38  1  0  0  0  0
 19 20  2  0  0  0  0
 39 42  1  0  0  0  0
  8 11  1  0  0  0  0
 48 49  1  0  0  0  0
 18 21  1  0  0  0  0
 38 39  1  0  0  0  0
  7  8  1  0  0  0  0
 17 18  1  0  0  0  0
 23 33  1  0  0  0  0
 24 34  1  0  0  0  0
 25 35  1  0  0  0  0
 26 36  1  0  0  0  0
  3  4  1  0  0  0  0
  3  5  1  0  0  0  0
  3  6  1  0  0  0  0
 42 45  1  0  0  0  0
 42 46  1  0  0  0  0
 42 47  1  0  0  0  0
 11 14  1  0  0  0  0
 11 15  1  0  0  0  0
 11 16  1  0  0  0  0
 49 51  1  0  0  0  0
 49 52  1  0  0  0  0
 49 53  1  0  0  0  0
 21 31  1  0  0  0  0
 21 32  1  0  0  0  0
 39 44  1  0  0  0  0
  8 13  1  0  0  0  0
 18 30  1  0  0  0  0
 48 50  1  0  0  0  0
  7 12  1  0  0  0  0
 38 43  1  0  0  0  0
 17 29  1  0  0  0  0
 28 37  1  0  0  0  0
M  END
$$$$

  -OEChem-02062319033D

 53 53  0     1  0  0  0  0  0999 V2000
   -1.9298    0.2574    3.9747 C   0  0  0  0  0  0  0  0  0  0  0  0
   -0.9825   -0.3573    3.4990 O   0  0  0  0  0  0  0  0  0  0  0  0
   -2.3617   -0.0250    5.3754 C   0  0  0  0  0  0  0  0  0  0  0  0
   -3.1214   -0.8213    5.4288 H   0  0  0  0  0  0  0  0  0  0  0  0
   -1.5305   -0.3726    6.0097 H   0  0  0  0  0  0  0  0  0  0  0  0
   -2.7997    0.8299    5.9150 H   0  0  0  0  0  0  0  0  0  0  0  0
   -2.6795    1.2298    3.3336 N   0  0  0  0  0  0  0  0  0  0  0  0
   -2.4327    1.6559    1.9812 C   0  0  2  0  0  0  0  0  0  0  0  0
   -1.0977    1.0705    1.5400 C   0  0  0  0  0  0  0  0  0  0  0  0
   -0.2256    0.7177    2.3313 O   0  0  0  0  0  0  0  0  0  0  0  0
   -2.4239    3.1726    1.8718 C   0  0  0  0  0  0  0  0  0  0  0  0
   -3.4446    1.6657    3.8454 H   0  0  0  0  0  0  0  0  0  0  0  0
   -3.2368    1.2374    1.3661 H   0  0  0  0  0  0  0  0  0  0  0  0
   -1.6248    3.6099    2.4815 H   0  0  0  0  0  0  0  0  0  0  0  0
   -2.2644    3.4949    0.8375 H   0  0  0  0  0  0  0  0  0  0  0  0
   -3.3741    3.5939    2.2175 H   0  0  0  0  0  0  0  0  0  0  0  0
   -0.9750    1.0274    0.1566 N   0  0  0  0  0  0  0  0  0  0  0  0
   -2.0324    0.5640   -0.7063 C   0  0  2  0  0  0  0  0  0  0  0  0
   -2.3313   -0.8796   -0.3181 C   0  0  0  0  0  0  0  0  0  0  0  0
   -3.4734   -1.3231   -0.2192 O   0  0  0  0  0  0  0  0  0  0  0  0
   -1.6493    0.6490   -2.1883 C   0  0  0  0  0  0  0  0  0  0  0  0
   -1.4931    2.0706   -2.6701 C   0  0  0  0  0  0  0  0  0  0  0  0
   -2.6191    2.8173   -3.0172 C   0  0  0  0  0  0  0  0  0  0  0  0
   -0.2226    2.6377   -2.7691 C   0  0  0  0  0  0  0  0  0  0  0  0
   -2.4745    4.1310   -3.4630 C   0  0  0  0  0  0  0  0  0  0  0  0
   -0.0780    3.9515   -3.2150 C   0  0  0  0  0  0  0  0  0  0  0  0
   -1.2040    4.6981   -3.5620 C   0  0  0  0  0  0  0  0  0  0  0  0
   -1.0630    5.9796   -3.9983 O   0  0  0  0  0  0  0  0  0  0  0  0
   -0.1213    1.3706   -0.2770 H   0  0  0  0  0  0  0  0  0  0  0  0
   -2.9095    1.1838   -0.4862 H   0  0  0  0  0  0  0  0  0  0  0  0
   -2.3959    0.1300   -2.8045 H   0  0  0  0  0  0  0  0  0  0  0  0
   -0.7057    0.1182   -2.3715 H   0  0  0  0  0  0  0  0  0  0  0  0
   -3.6127    2.3835   -2.9431 H   0  0  0  0  0  0  0  0  0  0  0  0
    0.6604    2.0634   -2.5007 H   0  0  0  0  0  0  0  0  0  0  0  0
   -3.3556    4.7075   -3.7322 H   0  0  0  0  0  0  0  0  0  0  0  0
    0.9143    4.3873   -3.2902 H   0  0  0  0  0  0  0  0  0  0  0  0
   -0.1252    6.2290   -4.0123 H   0  0  0  0  0  0  0  0  0  0  0  0
   -1.1714   -1.6220   -0.1454 N   0  0  0  0  0  0  0  0  0  0  0  0
   -1.1715   -3.0248    0.2026 C   0  0  2  0  0  0  0  0  0  0  0  0
   -2.0911   -3.2117    1.4021 C   0  0  0  0  0  0  0  0  0  0  0  0
   -2.3788   -2.3003    2.1752 O   0  0  0  0  0  0  0  0  0  0  0  0
    0.2333   -3.5181    0.5127 C   0  0  0  0  0  0  0  0  0  0  0  0
   -0.2774   -1.1560   -0.2698 H   0  0  0  0  0  0  0  0  0  0  0  0
   -1.5797   -3.5643   -0.6589 H   0  0  0  0  0  0  0  0  0  0  0  0
    0.6588   -2.9889    1.3731 H   0  0  0  0  0  0  0  0  0  0  0  0
    0.2353   -4.5874    0.7483 H   0  0  0  0  0  0  0  0  0  0  0  0
    0.9006   -3.3556   -0.3406 H   0  0  0  0  0  0  0  0  0  0  0  0
   -2.5183   -4.5257    1.5325 N   0  0  0  0  0  0  0  0  0  0  0  0
   -3.3891   -4.9602    2.5997 C   0  0  0  0  0  0  0  0  0  0  0  0
   -2.2456   -5.2114    0.8344 H   0  0  0  0  0  0  0  0  0  0  0  0
   -2.7834   -5.3238    3.4428 H   0  0  0  0  0  0  0  0  0  0  0  0
   -4.0108   -4.1159    2.9322 H   0  0  0  0  0  0  0  0  0  0  0  0
   -4.0368   -5.7719    2.2368 H   0  0  0  0  0  0  0  0  0  0  0  0
 23 25  2  0  0  0  0
 22 23  1  0  0  0  0
 24 26  1  0  0  0  0
 22 24  2  0  0  0  0
 25 27  1  0  0  0  0
 26 27  2  0  0  0  0
 21 22  1  0  0  0  0
 27 28  1  0  0  0  0
  1  3  1  0  0  0  0
  1  7  1  0  0  0  0
  1  2  2  0  0  0  0
 39 40  1  0  0  0  0
 40 48  1  0  0  0  0
 40 41  2  0  0  0  0
  8  9  1  0  0  0  0
  9 17  1  0  0  0  0
  9 10  2  0  0  0  0
 18 19  1  0  0  0  0
 19 38  1  0  0  0  0
 19 20  2  0  0  0  0
 39 42  1  0  0  0  0
  8 11  1  0  0  0  0
 48 49  1  0  0  0  0
 18 21  1  0  0  0  0
 38 39  1  0  0  0  0
  7  8  1  0  0  0  0
 17 18  1  0  0  0  0
 23 33  1  0  0  0  0
 24 34  1  0  0  0  0
 25 35  1  0  0  0  0
 26 36  1  0  0  0  0
  3  4  1  0  0  0  0
  3  5  1  0  0  0  0
  3  6  1  0  0  0  0
 42 45  1  0  0  0  0
 42 46  1  0  0  0  0
 42 47  1  0  0  0  0
 11 14  1  0  0  0  0
 11 15  1  0  0  0  0
 11 16  1  0  0  0  0
 49 51  1  0  0  0  0
 49 52  1  0  0  0  0
 49 53  1  0  0  0  0
 21 31  1  0  0  0  0
 21 32  1  0  0  0  0
 39 44  1  0  0  0  0
  8 13  1  0  0  0  0
 18 30  1  0  0  0  0
 48 50  1  0  0  0  0
  7 12  1  0  0  0  0
 38 43  1  0  0  0  0
 17 29  1  0  0  0  0
 28 37  1  0  0  0  0
M  END
$$$$

  -OEChem-02062319033D

 53 53  0     1  0  0  0  0  0999 V2000
   -1.9298    0.2574    3.9747 C   0  0  0  0  0  0  0  0  0  0  0  0
   -0.9825   -0.3573    3.4990 O   0  0  0  0  0  0  0  0  0  0  0  0
   -2.3617   -0.0250    5.3754 C   0  0  0  0  0  0  0  0  0  0  0  0
   -3.1214   -0.8213    5.4288 H   0  0  0  0  0  0  0  0  0  0  0  0
   -1.5305   -0.3726    6.0097 H   0  0  0  0  0  0  0  0  0  0  0  0
   -2.7997    0.8299    5.9150 H   0  0  0  0  0  0  0  0  0  0  0  0
   -2.6795    1.2298    3.3336 N   0  0  0  0  0  0  0  0  0  0  0  0
   -2.4327    1.6559    1.9812 C   0  0  2  0  0  0  0  0  0  0  0  0
   -1.0977    1.0705    1.5400 C   0  0  0  0  0  0  0  0  0  0  0  0
   -0.2256    0.7177    2.3313 O   0  0  0  0  0  0  0  0  0  0  0  0
   -2.4239    3.1726    1.8718 C   0  0  0  0  0  0  0  0  0  0  0  0
   -3.4446    1.6657    3.8454 H   0  0  0  0  0  0  0  0  0  0  0  0
   -3.2368    1.2374    1.3661 H   0  0  0  0  0  0  0  0  0  0  0  0
   -1.6248    3.6099    2.4815 H   0  0  0  0  0  0  0  0  0  0  0  0
   -2.2644    3.4949    0.8375 H   0  0  0  0  0  0  0  0  0  0  0  0
   -3.3741    3.5939    2.2175 H   0  0  0  0  0  0  0  0  0  0  0  0
   -0.9750    1.0274    0.1566 N   0  0  0  0  0  0  0  0  0  0  0  0
   -2.1065    0.8712   -0.7225 C   0  0  2  0  0  0  0  0  0  0  0  0
   -2.7714   -0.4547   -0.3704 C   0  0  0  0  0  0  0  0  0  0  0  0
   -3.9903   -0.5909   -0.2878 O   0  0  0  0  0  0  0  0  0  0  0  0
   -1.6981    0.8868   -2.2000 C   0  0  0  0  0  0  0  0  0  0  0  0
   -1.1757    2.2303   -2.6470 C   0  0  0  0  0  0  0  0  0  0  0  0
   -2.0674    3.2493   -2.9817 C   0  0  0  0  0  0  0  0  0  0  0  0
    0.1991    2.4527   -2.7259 C   0  0  0  0  0  0  0  0  0  0  0  0
   -1.5845    4.4908   -3.3953 C   0  0  0  0  0  0  0  0  0  0  0  0
    0.6821    3.6942   -3.1396 C   0  0  0  0  0  0  0  0  0  0  0  0
   -0.2097    4.7132   -3.4743 C   0  0  0  0  0  0  0  0  0  0  0  0
    0.2614    5.9243   -3.8792 O   0  0  0  0  0  0  0  0  0  0  0  0
   -0.0570    1.1483   -0.2644 H   0  0  0  0  0  0  0  0  0  0  0  0
   -2.7967    1.6912   -0.4920 H   0  0  0  0  0  0  0  0  0  0  0  0
   -2.5464    0.5913   -2.8322 H   0  0  0  0  0  0  0  0  0  0  0  0
   -0.9211    0.1348   -2.3912 H   0  0  0  0  0  0  0  0  0  0  0  0
   -3.1400    3.0849   -2.9231 H   0  0  0  0  0  0  0  0  0  0  0  0
    0.9013    1.6645   -2.4669 H   0  0  0  0  0  0  0  0  0  0  0  0
   -2.2842    5.2807   -3.6551 H   0  0  0  0  0  0  0  0  0  0  0  0
    1.7539    3.8610   -3.1993 H   0  0  0  0  0  0  0  0  0  0  0  0
    1.2319    5.9237   -3.8824 H   0  0  0  0  0  0  0  0  0  0  0  0
   -1.8439   -1.4747   -0.2096 N   0  0  0  0  0  0  0  0  0  0  0  0
   -2.2091   -2.8372    0.1048 C   0  0  2  0  0  0  0  0  0  0  0  0
   -3.1591   -2.8068    1.2948 C   0  0  0  0  0  0  0  0  0  0  0  0
   -3.2108   -1.8692    2.0880 O   0  0  0  0  0  0  0  0  0  0  0  0
   -0.9824   -3.6826    0.4100 C   0  0  0  0  0  0  0  0  0  0  0  0
   -0.8588   -1.2522   -0.3183 H   0  0  0  0  0  0  0  0  0  0  0  0
   -2.7331   -3.2344   -0.7714 H   0  0  0  0  0  0  0  0  0  0  0  0
   -0.4444   -3.2999    1.2850 H   0  0  0  0  0  0  0  0  0  0  0  0
   -1.2585   -4.7212    0.6200 H   0  0  0  0  0  0  0  0  0  0  0  0
   -0.2864   -3.6790   -0.4358 H   0  0  0  0  0  0  0  0  0  0  0  0
   -3.9117   -3.9689    1.3916 N   0  0  0  0  0  0  0  0  0  0  0  0
   -4.8768   -4.1874    2.4437 C   0  0  0  0  0  0  0  0  0  0  0  0
   -3.8172   -4.6863    0.6787 H   0  0  0  0  0  0  0  0  0  0  0  0
   -4.3945   -4.7131    3.2810 H   0  0  0  0  0  0  0  0  0  0  0  0
   -5.2636   -3.2187    2.7932 H   0  0  0  0  0  0  0  0  0  0  0  0
   -5.7076   -4.7965    2.0583 H   0  0  0  0  0  0  0  0  0  0  0  0
 23 25  2  0  0  0  0
 22 23  1  0  0  0  0
 24 26  1  0  0  0  0
 22 24  2  0  0  0  0
 25 27  1  0  0  0  0
 26 27  2  0  0  0  0
 21 22  1  0  0  0  0
 27 28  1  0  0  0  0
  1  3  1  0  0  0  0
  1  7  1  0  0  0  0
  1  2  2  0  0  0  0
 39 40  1  0  0  0  0
 40 48  1  0  0  0  0
 40 41  2  0  0  0  0
  8  9  1  0  0  0  0
  9 17  1  0  0  0  0
  9 10  2  0  0  0  0
 18 19  1  0  0  0  0
 19 38  1  0  0  0  0
 19 20  2  0  0  0  0
 39 42  1  0  0  0  0
  8 11  1  0  0  0  0
 48 49  1  0  0  0  0
 18 21  1  0  0  0  0
 38 39  1  0  0  0  0
  7  8  1  0  0  0  0
 17 18  1  0  0  0  0
 23 33  1  0  0  0  0
 24 34  1  0  0  0  0
 25 35  1  0  0  0  0
 26 36  1  0  0  0  0
  3  4  1  0  0  0  0
  3  5  1  0  0  0  0
  3  6  1  0  0  0  0
 42 45  1  0  0  0  0
 42 46  1  0  0  0  0
 42 47  1  0  0  0  0
 11 14  1  0  0  0  0
 11 15  1  0  0  0  0
 11 16  1  0  0  0  0
 49 51  1  0  0  0  0
 49 52  1  0  0  0  0
 49 53  1  0  0  0  0
 21 31  1  0  0  0  0
 21 32  1  0  0  0  0
 39 44  1  0  0  0  0
  8 13  1  0  0  0  0
 18 30  1  0  0  0  0
 48 50  1  0  0  0  0
  7 12  1  0  0  0  0
 38 43  1  0  0  0  0
 17 29  1  0  0  0  0
 28 37  1  0  0  0  0
M  END
$$$$

  -OEChem-02062319033D

 53 53  0     1  0  0  0  0  0999 V2000
   -1.9298    0.2574    3.9747 C   0  0  0  0  0  0  0  0  0  0  0  0
   -0.9825   -0.3573    3.4990 O   0  0  0  0  0  0  0  0  0  0  0  0
   -2.3617   -0.0250    5.3754 C   0  0  0  0  0  0  0  0  0  0  0  0
   -3.1214   -0.8213    5.4288 H   0  0  0  0  0  0  0  0  0  0  0  0
   -1.5305   -0.3726    6.0097 H   0  0  0  0  0  0  0  0  0  0  0  0
   -2.7997    0.8299    5.9150 H   0  0  0  0  0  0  0  0  0  0  0  0
   -2.6795    1.2298    3.3336 N   0  0  0  0  0  0  0  0  0  0  0  0
   -2.4327    1.6559    1.9812 C   0  0  2  0  0  0  0  0  0  0  0  0
   -1.0977    1.0705    1.5400 C   0  0  0  0  0  0  0  0  0  0  0  0
   -0.2256    0.7177    2.3313 O   0  0  0  0  0  0  0  0  0  0  0  0
   -2.4239    3.1726    1.8718 C   0  0  0  0  0  0  0  0  0  0  0  0
   -3.4446    1.6657    3.8454 H   0  0  0  0  0  0  0  0  0  0  0  0
   -3.2368    1.2374    1.3661 H   0  0  0  0  0  0  0  0  0  0  0  0
   -1.6248    3.6099    2.4815 H   0  0  0  0  0  0  0  0  0  0  0  0
   -2.2644    3.4949    0.8375 H   0  0  0  0  0  0  0  0  0  0  0  0
   -3.3741    3.5939    2.2175 H   0  0  0  0  0  0  0  0  0  0  0  0
   -0.9750    1.0274    0.1566 N   0  0  0  0  0  0  0  0  0  0  0  0
   -2.0988    1.1873   -0.7316 C   0  0  2  0  0  0  0  0  0  0  0  0
   -3.0867    0.0703   -0.4147 C   0  0  0  0  0  0  0  0  0  0  0  0
   -4.3003    0.2511   -0.3415 O   0  0  0  0  0  0  0  0  0  0  0  0
   -1.6839    1.1293   -2.2063 C   0  0  0  0  0  0  0  0  0  0  0  0
   -0.8281    2.3021   -2.6184 C   0  0  0  0  0  0  0  0  0  0  0  0
   -1.4236    3.5237   -2.9332 C   0  0  0  0  0  0  0  0  0  0  0  0
    0.5583    2.1643   -2.6851 C   0  0  0  0  0  0  0  0  0  0  0  0
   -0.6326    4.6074   -3.3146 C   0  0  0  0  0  0  0  0  0  0  0  0
    1.3493    3.2480   -3.0665 C   0  0  0  0  0  0  0  0  0  0  0  0
    0.7539    4.4696   -3.3813 C   0  0  0  0  0  0  0  0  0  0  0  0
    1.5255    5.5268   -3.7547 O   0  0  0  0  0  0  0  0  0  0  0  0
   -0.0523    0.9167   -0.2567 H   0  0  0  0  0  0  0  0  0  0  0  0
   -2.5570    2.1523   -0.4851 H   0  0  0  0  0  0  0  0  0  0  0  0
   -2.5727    1.0764   -2.8497 H   0  0  0  0  0  0  0  0  0  0  0  0
   -1.1247    0.2068   -2.4115 H   0  0  0  0  0  0  0  0  0  0  0  0
   -2.5029    3.6400   -2.8839 H   0  0  0  0  0  0  0  0  0  0  0  0
    1.0309    1.2163   -2.4415 H   0  0  0  0  0  0  0  0  0  0  0  0
   -1.1024    5.5564   -3.5589 H   0  0  0  0  0  0  0  0  0  0  0  0
    2.4286    3.1342   -3.1169 H   0  0  0  0  0  0  0  0  0  0  0  0
    2.4630    5.2761   -3.7531 H   0  0  0  0  0  0  0  0  0  0  0  0
   -2.4550   -1.1575   -0.2736 N   0  0  0  0  0  0  0  0  0  0  0  0
   -3.1623   -2.3864    0.0062 C   0  0  2  0  0  0  0  0  0  0  0  0
   -4.0854   -2.1381    1.1918 C   0  0  0  0  0  0  0  0  0  0  0  0
   -3.9027   -1.2363    2.0070 O   0  0  0  0  0  0  0  0  0  0  0  0
   -2.1982   -3.5259    0.2973 C   0  0  0  0  0  0  0  0  0  0  0  0
   -1.4447   -1.1943   -0.3721 H   0  0  0  0  0  0  0  0  0  0  0  0
   -3.7612   -2.6159   -0.8819 H   0  0  0  0  0  0  0  0  0  0  0  0
   -1.5894   -3.3139    1.1839 H   0  0  0  0  0  0  0  0  0  0  0  0
   -2.7348   -4.4625    0.4810 H   0  0  0  0  0  0  0  0  0  0  0  0
   -1.5155   -3.6834   -0.5446 H   0  0  0  0  0  0  0  0  0  0  0  0
   -5.1131   -3.0687    1.2570 N   0  0  0  0  0  0  0  0  0  0  0  0
   -6.1133   -3.0539    2.2987 C   0  0  0  0  0  0  0  0  0  0  0  0
   -5.1986   -3.7705    0.5277 H   0  0  0  0  0  0  0  0  0  0  0  0
   -5.7920   -3.7043    3.1256 H   0  0  0  0  0  0  0  0  0  0  0  0
   -6.2414   -2.0262    2.6693 H   0  0  0  0  0  0  0  0  0  0  0  0
   -7.0688   -3.4197    1.8947 H   0  0  0  0  0  0  0  0  0  0  0  0
 23 25  2  0  0  0  0
 22 23  1  0  0  0  0
 24 26  1  0  0  0  0
 22 24  2  0  0  0  0
 25 27  1  0  0  0  0
 26 27  2  0  0  0  0
 21 22  1  0  0  0  0
 27 28  1  0  0  0  0
  1  3  1  0  0  0  0
  1  7  1  0  0  0  0
  1  2  2  0  0  0  0
 39 40  1  0  0  0  0
 40 48  1  0  0  0  0
 40 41  2  0  0  0  0
  8  9  1  0  0  0  0
  9 17  1  0  0  0  0
  9 10  2  0  0  0  0
 18 19  1  0  0  0  0
 19 38  1  0  0  0  0
 19 20  2  0  0  0  0
 39 42  1  0  0  0  0
  8 11  1  0  0  0  0
 48 49  1  0  0  0  0
 18 21  1  0  0  0  0
 38 39  1  0  0  0  0
  7  8  1  0  0  0  0
 17 18  1  0  0  0  0
 23 33  1  0  0  0  0
 24 34  1  0  0  0  0
 25 35  1  0  0  0  0
 26 36  1  0  0  0  0
  3  4  1  0  0  0  0
  3  5  1  0  0  0  0
  3  6  1  0  0  0  0
 42 45  1  0  0  0  0
 42 46  1  0  0  0  0
 42 47  1  0  0  0  0
 11 14  1  0  0  0  0
 11 15  1  0  0  0  0
 11 16  1  0  0  0  0
 49 51  1  0  0  0  0
 49 52  1  0  0  0  0
 49 53  1  0  0  0  0
 21 31  1  0  0  0  0
 21 32  1  0  0  0  0
 39 44  1  0  0  0  0
  8 13  1  0  0  0  0
 18 30  1  0  0  0  0
 48 50  1  0  0  0  0
  7 12  1  0  0  0  0
 38 43  1  0  0  0  0
 17 29  1  0  0  0  0
 28 37  1  0  0  0  0
M  END
$$$$

  -OEChem-02062319033D

 53 53  0     1  0  0  0  0  0999 V2000
   -1.9298    0.2574    3.9747 C   0  0  0  0  0  0  0  0  0  0  0  0
   -0.9825   -0.3573    3.4990 O   0  0  0  0  0  0  0  0  0  0  0  0
   -2.3617   -0.0250    5.3754 C   0  0  0  0  0  0  0  0  0  0  0  0
   -3.1214   -0.8213    5.4288 H   0  0  0  0  0  0  0  0  0  0  0  0
   -1.5305   -0.3726    6.0097 H   0  0  0  0  0  0  0  0  0  0  0  0
   -2.7997    0.8299    5.9150 H   0  0  0  0  0  0  0  0  0  0  0  0
   -2.6795    1.2298    3.3336 N   0  0  0  0  0  0  0  0  0  0  0  0
   -2.4327    1.6559    1.9812 C   0  0  2  0  0  0  0  0  0  0  0  0
   -1.0977    1.0705    1.5400 C   0  0  0  0  0  0  0  0  0  0  0  0
   -0.2256    0.7177    2.3313 O   0  0  0  0  0  0  0  0  0  0  0  0
   -2.4239    3.1726    1.8718 C   0  0  0  0  0  0  0  0  0  0  0  0
   -3.4446    1.6657    3.8454 H   0  0  0  0  0  0  0  0  0  0  0  0
   -3.2368    1.2374    1.3661 H   0  0  0  0  0  0  0  0  0  0  0  0
   -1.6248    3.6099    2.4815 H   0  0  0  0  0  0  0  0  0  0  0  0
   -2.2644    3.4949    0.8375 H   0  0  0  0  0  0  0  0  0  0  0  0
   -3.3741    3.5939    2.2175 H   0  0  0  0  0  0  0  0  0  0  0  0
   -0.9750    1.0274    0.1566 N   0  0  0  0  0  0  0  0  0  0  0  0
   -2.0098    1.4909   -0.7332 C   0  0  2  0  0  0  0  0  0  0  0  0
   -3.2555    0.6596   -0.4480 C   0  0  0  0  0  0  0  0  0  0  0  0
   -4.3823    1.1456   -0.3767 O   0  0  0  0  0  0  0  0  0  0  0  0
   -1.6077    1.3601   -2.2067 C   0  0  0  0  0  0  0  0  0  0  0  0
   -0.4742    2.2814   -2.5864 C   0  0  0  0  0  0  0  0  0  0  0  0
   -0.7313    3.6217   -2.8749 C   0  0  0  0  0  0  0  0  0  0  0  0
    0.8306    1.7923   -2.6494 C   0  0  0  0  0  0  0  0  0  0  0  0
    0.3163    4.4729   -3.2263 C   0  0  0  0  0  0  0  0  0  0  0  0
    1.8783    2.6435   -3.0008 C   0  0  0  0  0  0  0  0  0  0  0  0
    1.6211    3.9838   -3.2892 C   0  0  0  0  0  0  0  0  0  0  0  0
    2.6431    4.8143   -3.6334 O   0  0  0  0  0  0  0  0  0  0  0  0
   -0.1074    0.6916   -0.2546 H   0  0  0  0  0  0  0  0  0  0  0  0
   -2.2067    2.5358   -0.4660 H   0  0  0  0  0  0  0  0  0  0  0  0
   -2.4729    1.5521   -2.8557 H   0  0  0  0  0  0  0  0  0  0  0  0
   -1.3027    0.3293   -2.4311 H   0  0  0  0  0  0  0  0  0  0  0  0
   -1.7447    4.0112   -2.8282 H   0  0  0  0  0  0  0  0  0  0  0  0
    1.0404    0.7494   -2.4261 H   0  0  0  0  0  0  0  0  0  0  0  0
    0.1095    5.5160   -3.4502 H   0  0  0  0  0  0  0  0  0  0  0  0
    2.8923    2.2565   -3.0484 H   0  0  0  0  0  0  0  0  0  0  0  0
    3.4843    4.3304   -3.6331 H   0  0  0  0  0  0  0  0  0  0  0  0
   -2.9630   -0.6923   -0.3332 N   0  0  0  0  0  0  0  0  0  0  0  0
   -3.9661   -1.7031   -0.0863 C   0  0  2  0  0  0  0  0  0  0  0  0
   -4.8071   -1.2511    1.1002 C   0  0  0  0  0  0  0  0  0  0  0  0
   -4.4072   -0.4449    1.9376 O   0  0  0  0  0  0  0  0  0  0  0  0
   -3.3312   -3.0586    0.1823 C   0  0  0  0  0  0  0  0  0  0  0  0
   -1.9952   -0.9861   -0.4274 H   0  0  0  0  0  0  0  0  0  0  0  0
   -4.5940   -1.7511   -0.9827 H   0  0  0  0  0  0  0  0  0  0  0  0
   -2.6983   -3.0302    1.0768 H   0  0  0  0  0  0  0  0  0  0  0  0
   -4.0930   -3.8291    0.3409 H   0  0  0  0  0  0  0  0  0  0  0  0
   -2.7029   -3.3685   -0.6597 H   0  0  0  0  0  0  0  0  0  0  0  0
   -6.0404   -1.8865    1.1380 N   0  0  0  0  0  0  0  0  0  0  0  0
   -7.0145   -1.6371    2.1747 C   0  0  0  0  0  0  0  0  0  0  0  0
   -6.2958   -2.5265    0.3917 H   0  0  0  0  0  0  0  0  0  0  0  0
   -6.8807   -2.3663    2.9874 H   0  0  0  0  0  0  0  0  0  0  0  0
   -6.8777   -0.6194    2.5691 H   0  0  0  0  0  0  0  0  0  0  0  0
   -8.0275   -1.7354    1.7572 H   0  0  0  0  0  0  0  0  0  0  0  0
 23 25  2  0  0  0  0
 22 23  1  0  0  0  0
 24 26  1  0  0  0  0
 22 24  2  0  0  0  0
 25 27  1  0  0  0  0
 26 27  2  0  0  0  0
 21 22  1  0  0  0  0
 27 28  1  0  0  0  0
  1  3  1  0  0  0  0
  1  7  1  0  0  0  0
  1  2  2  0  0  0  0
 39 40  1  0  0  0  0
 40 48  1  0  0  0  0
 40 41  2  0  0  0  0
  8  9  1  0  0  0  0
  9 17  1  0  0  0  0
  9 10  2  0  0  0  0
 18 19  1  0  0  0  0
 19 38  1  0  0  0  0
 19 20  2  0  0  0  0
 39 42  1  0  0  0  0
  8 11  1  0  0  0  0
 48 49  1  0  0  0  0
 18 21  1  0  0  0  0
 38 39  1  0  0  0  0
  7  8  1  0  0  0  0
 17 18  1  0  0  0  0
 23 33  1  0  0  0  0
 24 34  1  0  0  0  0
 25 35  1  0  0  0  0
 26 36  1  0  0  0  0
  3  4  1  0  0  0  0
  3  5  1  0  0  0  0
  3  6  1  0  0  0  0
 42 45  1  0  0  0  0
 42 46  1  0  0  0  0
 42 47  1  0  0  0  0
 11 14  1  0  0  0  0
 11 15  1  0  0  0  0
 11 16  1  0  0  0  0
 49 51  1  0  0  0  0
 49 52  1  0  0  0  0
 49 53  1  0  0  0  0
 21 31  1  0  0  0  0
 21 32  1  0  0  0  0
 39 44  1  0  0  0  0
  8 13  1  0  0  0  0
 18 30  1  0  0  0  0
 48 50  1  0  0  0  0
  7 12  1  0  0  0  0
 38 43  1  0  0  0  0
 17 29  1  0  0  0  0
 28 37  1  0  0  0  0
M  END
$$$$

  -OEChem-02062319033D

 53 53  0     1  0  0  0  0  0999 V2000
   -1.9298    0.2574    3.9747 C   0  0  0  0  0  0  0  0  0  0  0  0
   -0.9825   -0.3573    3.4990 O   0  0  0  0  0  0  0  0  0  0  0  0
   -2.3617   -0.0250    5.3754 C   0  0  0  0  0  0  0  0  0  0  0  0
   -3.1214   -0.8213    5.4288 H   0  0  0  0  0  0  0  0  0  0  0  0
   -1.5305   -0.3726    6.0097 H   0  0  0  0  0  0  0  0  0  0  0  0
   -2.7997    0.8299    5.9150 H   0  0  0  0  0  0  0  0  0  0  0  0
   -2.6795    1.2298    3.3336 N   0  0  0  0  0  0  0  0  0  0  0  0
   -2.4327    1.6559    1.9812 C   0  0  2  0  0  0  0  0  0  0  0  0
   -1.0977    1.0705    1.5400 C   0  0  0  0  0  0  0  0  0  0  0  0
   -0.2256    0.7177    2.3313 O   0  0  0  0  0  0  0  0  0  0  0  0
   -2.4239    3.1726    1.8718 C   0  0  0  0  0  0  0  0  0  0  0  0
   -3.4446    1.6657    3.8454 H   0  0  0  0  0  0  0  0  0  0  0  0
   -3.2368    1.2374    1.3661 H   0  0  0  0  0  0  0  0  0  0  0  0
   -1.6248    3.6099    2.4815 H   0  0  0  0  0  0  0  0  0  0  0  0
   -2.2644    3.4949    0.8375 H   0  0  0  0  0  0  0  0  0  0  0  0
   -3.3741    3.5939    2.2175 H   0  0  0  0  0  0  0  0  0  0  0  0
   -0.9750    1.0274    0.1566 N   0  0  0  0  0  0  0  0  0  0  0  0
   -1.8456    1.7612   -0.7271 C   0  0  2  0  0  0  0  0  0  0  0  0
   -3.2665    1.2732   -0.4681 C   0  0  0  0  0  0  0  0  0  0  0  0
   -4.2308    2.0315   -0.3909 O   0  0  0  0  0  0  0  0  0  0  0  0
   -1.4745    1.5633   -2.2013 C   0  0  0  0  0  0  0  0  0  0  0  0
   -0.1378    2.1693   -2.5531 C   0  0  0  0  0  0  0  0  0  0  0  0
   -0.0379    3.5366   -2.8108 C   0  0  0  0  0  0  0  0  0  0  0  0
    0.9976    1.3620   -2.6211 C   0  0  0  0  0  0  0  0  0  0  0  0
    1.1975    4.0964   -3.1364 C   0  0  0  0  0  0  0  0  0  0  0  0
    2.2329    1.9218   -2.9468 C   0  0  0  0  0  0  0  0  0  0  0  0
    2.3329    3.2891   -3.2045 C   0  0  0  0  0  0  0  0  0  0  0  0
    3.5380    3.8353   -3.5236 O   0  0  0  0  0  0  0  0  0  0  0  0
   -0.2187    0.4884   -0.2581 H   0  0  0  0  0  0  0  0  0  0  0  0
   -1.7696    2.8155   -0.4360 H   0  0  0  0  0  0  0  0  0  0  0  0
   -2.2539    1.9859   -2.8498 H   0  0  0  0  0  0  0  0  0  0  0  0
   -1.4429    0.4940   -2.4486 H   0  0  0  0  0  0  0  0  0  0  0  0
   -0.9172    4.1731   -2.7599 H   0  0  0  0  0  0  0  0  0  0  0  0
    0.9291    0.2956   -2.4218 H   0  0  0  0  0  0  0  0  0  0  0  0
    1.2689    5.1623   -3.3364 H   0  0  0  0  0  0  0  0  0  0  0  0
    3.1135    1.2876   -2.9986 H   0  0  0  0  0  0  0  0  0  0  0  0
    4.2262    3.1511   -3.5305 H   0  0  0  0  0  0  0  0  0  0  0  0
   -3.3334   -0.1106   -0.3842 N   0  0  0  0  0  0  0  0  0  0  0  0
   -4.5656   -0.8338   -0.1666 C   0  0  2  0  0  0  0  0  0  0  0  0
   -5.2749   -0.2063    1.0262 C   0  0  0  0  0  0  0  0  0  0  0  0
   -4.6900    0.4511    1.8846 O   0  0  0  0  0  0  0  0  0  0  0  0
   -4.3044   -2.3127    0.0728 C   0  0  0  0  0  0  0  0  0  0  0  0
   -2.4730   -0.6418   -0.4805 H   0  0  0  0  0  0  0  0  0  0  0  0
   -5.1748   -0.6988   -1.0669 H   0  0  0  0  0  0  0  0  0  0  0  0
   -3.6954   -2.4679    0.9708 H   0  0  0  0  0  0  0  0  0  0  0  0
   -5.2406   -2.8641    0.2091 H   0  0  0  0  0  0  0  0  0  0  0  0
   -3.7678   -2.7556   -0.7732 H   0  0  0  0  0  0  0  0  0  0  0  0
   -6.6306   -0.5030    1.0425 N   0  0  0  0  0  0  0  0  0  0  0  0
   -7.5190   -0.0336    2.0800 C   0  0  0  0  0  0  0  0  0  0  0  0
   -7.0340   -1.0391    0.2799 H   0  0  0  0  0  0  0  0  0  0  0  0
   -7.5864   -0.7901    2.8757 H   0  0  0  0  0  0  0  0  0  0  0  0
   -7.1289    0.9056    2.4993 H   0  0  0  0  0  0  0  0  0  0  0  0
   -8.5184    0.1417    1.6552 H   0  0  0  0  0  0  0  0  0  0  0  0
 23 25  2  0  0  0  0
 22 23  1  0  0  0  0
 24 26  1  0  0  0  0
 22 24  2  0  0  0  0
 25 27  1  0  0  0  0
 26 27  2  0  0  0  0
 21 22  1  0  0  0  0
 27 28  1  0  0  0  0
  1  3  1  0  0  0  0
  1  7  1  0  0  0  0
  1  2  2  0  0  0  0
 39 40  1  0  0  0  0
 40 48  1  0  0  0  0
 40 41  2  0  0  0  0
  8  9  1  0  0  0  0
  9 17  1  0  0  0  0
  9 10  2  0  0  0  0
 18 19  1  0  0  0  0
 19 38  1  0  0  0  0
 19 20  2  0  0  0  0
 39 42  1  0  0  0  0
  8 11  1  0  0  0  0
 48 49  1  0  0  0  0
 18 21  1  0  0  0  0
 38 39  1  0  0  0  0
  7  8  1  0  0  0  0
 17 18  1  0  0  0  0
 23 33  1  0  0  0  0
 24 34  1  0  0  0  0
 25 35  1  0  0  0  0
 26 36  1  0  0  0  0
  3  4  1  0  0  0  0
  3  5  1  0  0  0  0
  3  6  1  0  0  0  0
 42 45  1  0  0  0  0
 42 46  1  0  0  0  0
 42 47  1  0  0  0  0
 11 14  1  0  0  0  0
 11 15  1  0  0  0  0
 11 16  1  0  0  0  0
 49 51  1  0  0  0  0
 49 52  1  0  0  0  0
 49 53  1  0  0  0  0
 21 31  1  0  0  0  0
 21 32  1  0  0  0  0
 39 44  1  0  0  0  0
  8 13  1  0  0  0  0
 18 30  1  0  0  0  0
 48 50  1  0  0  0  0
  7 12  1  0  0  0  0
 38 43  1  0  0  0  0
 17 29  1  0  0  0  0
 28 37  1  0  0  0  0
M  END
$$$$

  -OEChem-02062319033D

 53 53  0     1  0  0  0  0  0999 V2000
   -1.9298    0.2574    3.9747 C   0  0  0  0  0  0  0  0  0  0  0  0
   -0.9825   -0.3573    3.4990 O   0  0  0  0  0  0  0  0  0  0  0  0
   -2.3617   -0.0250    5.3754 C   0  0  0  0  0  0  0  0  0  0  0  0
   -3.1214   -0.8213    5.4288 H   0  0  0  0  0  0  0  0  0  0  0  0
   -1.5305   -0.3726    6.0097 H   0  0  0  0  0  0  0  0  0  0  0  0
   -2.7997    0.8299    5.9150 H   0  0  0  0  0  0  0  0  0  0  0  0
   -2.6795    1.2298    3.3336 N   0  0  0  0  0  0  0  0  0  0  0  0
   -2.4327    1.6559    1.9812 C   0  0  2  0  0  0  0  0  0  0  0  0
   -1.0977    1.0705    1.5400 C   0  0  0  0  0  0  0  0  0  0  0  0
   -0.2256    0.7177    2.3313 O   0  0  0  0  0  0  0  0  0  0  0  0
   -2.4239    3.1726    1.8718 C   0  0  0  0  0  0  0  0  0  0  0  0
   -3.4446    1.6657    3.8454 H   0  0  0  0  0  0  0  0  0  0  0  0
   -3.2368    1.2374    1.3661 H   0  0  0  0  0  0  0  0  0  0  0  0
   -1.6248    3.6099    2.4815 H   0  0  0  0  0  0  0  0  0  0  0  0
   -2.2644    3.4949    0.8375 H   0  0  0  0  0  0  0  0  0  0  0  0
   -3.3741    3.5939    2.2175 H   0  0  0  0  0  0  0  0  0  0  0  0
   -0.9750    1.0274    0.1566 N   0  0  0  0  0  0  0  0  0  0  0  0
   -1.6174    1.9799   -0.7137 C   0  0  2  0  0  0  0  0  0  0  0  0
   -3.1188    1.8691   -0.4736 C   0  0  0  0  0  0  0  0  0  0  0  0
   -3.8560    2.8485   -0.3831 O   0  0  0  0  0  0  0  0  0  0  0  0
   -1.2936    1.7252   -2.1903 C   0  0  0  0  0  0  0  0  0  0  0  0
    0.1579    1.9737   -2.5207 C   0  0  0  0  0  0  0  0  0  0  0  0
    0.6095    3.2743   -2.7452 C   0  0  0  0  0  0  0  0  0  0  0  0
    1.0477    0.9026   -2.6024 C   0  0  0  0  0  0  0  0  0  0  0  0
    1.9509    3.5037   -3.0511 C   0  0  0  0  0  0  0  0  0  0  0  0
    2.3891    1.1320   -2.9084 C   0  0  0  0  0  0  0  0  0  0  0  0
    2.8407    2.4326   -3.1328 C   0  0  0  0  0  0  0  0  0  0  0  0
    4.1493    2.6566   -3.4326 O   0  0  0  0  0  0  0  0  0  0  0  0
   -0.3786    0.3208   -0.2671 H   0  0  0  0  0  0  0  0  0  0  0  0
   -1.2756    2.9724   -0.3971 H   0  0  0  0  0  0  0  0  0  0  0  0
   -1.9306    2.3485   -2.8324 H   0  0  0  0  0  0  0  0  0  0  0  0
   -1.5358    0.6895   -2.4629 H   0  0  0  0  0  0  0  0  0  0  0  0
   -0.0767    4.1146   -2.6836 H   0  0  0  0  0  0  0  0  0  0  0  0
    0.7047   -0.1141   -2.4289 H   0  0  0  0  0  0  0  0  0  0  0  0
    2.2966    4.5192   -3.2252 H   0  0  0  0  0  0  0  0  0  0  0  0
    3.0771    0.2936   -2.9708 H   0  0  0  0  0  0  0  0  0  0  0  0
    4.6380    1.8184   -3.4525 H   0  0  0  0  0  0  0  0  0  0  0  0
   -3.5408    0.5478   -0.4231 N   0  0  0  0  0  0  0  0  0  0  0  0
   -4.9201    0.1621   -0.2290 C   0  0  2  0  0  0  0  0  0  0  0  0
   -5.4569    0.9251    0.9748 C   0  0  0  0  0  0  0  0  0  0  0  0
   -4.7319    1.3907    1.8516 O   0  0  0  0  0  0  0  0  0  0  0  0
   -5.0513   -1.3390   -0.0238 C   0  0  0  0  0  0  0  0  0  0  0  0
   -2.8453   -0.1850   -0.5277 H   0  0  0  0  0  0  0  0  0  0  0  0
   -5.4640    0.4693   -1.1290 H   0  0  0  0  0  0  0  0  0  0  0  0
   -4.5127   -1.6654    0.8734 H   0  0  0  0  0  0  0  0  0  0  0  0
   -6.0994   -1.6332    0.0946 H   0  0  0  0  0  0  0  0  0  0  0  0
   -4.6376   -1.8867   -0.8774 H   0  0  0  0  0  0  0  0  0  0  0  0
   -6.8433    0.9876    0.9772 N   0  0  0  0  0  0  0  0  0  0  0  0
   -7.5922    1.6475    2.0211 C   0  0  0  0  0  0  0  0  0  0  0  0
   -7.3628    0.5904    0.1999 H   0  0  0  0  0  0  0  0  0  0  0  0
   -7.8611    0.9168    2.7981 H   0  0  0  0  0  0  0  0  0  0  0  0
   -6.9780    2.4450    2.4647 H   0  0  0  0  0  0  0  0  0  0  0  0
   -8.5080    2.0837    1.5956 H   0  0  0  0  0  0  0  0  0  0  0  0
 23 25  2  0  0  0  0
 22 23  1  0  0  0  0
 24 26  1  0  0  0  0
 22 24  2  0  0  0  0
 25 27  1  0  0  0  0
 26 27  2  0  0  0  0
 21 22  1  0  0  0  0
 27 28  1  0  0  0  0
  1  3  1  0  0  0  0
  1  7  1  0  0  0  0
  1  2  2  0  0  0  0
 39 40  1  0  0  0  0
 40 48  1  0  0  0  0
 40 41  2  0  0  0  0
  8  9  1  0  0  0  0
  9 17  1  0  0  0  0
  9 10  2  0  0  0  0
 18 19  1  0  0  0  0
 19 38  1  0  0  0  0
 19 20  2  0  0  0  0
 39 42  1  0  0  0  0
  8 11  1  0  0  0  0
 48 49  1  0  0  0  0
 18 21  1  0  0  0  0
 38 39  1  0  0  0  0
  7  8  1  0  0  0  0
 17 18  1  0  0  0  0
 23 33  1  0  0  0  0
 24 34  1  0  0  0  0
 25 35  1  0  0  0  0
 26 36  1  0  0  0  0
  3  4  1  0  0  0  0
  3  5  1  0  0  0  0
  3  6  1  0  0  0  0
 42 45  1  0  0  0  0
 42 46  1  0  0  0  0
 42 47  1  0  0  0  0
 11 14  1  0  0  0  0
 11 15  1  0  0  0  0
 11 16  1  0  0  0  0
 49 51  1  0  0  0  0
 49 52  1  0  0  0  0
 49 53  1  0  0  0  0
 21 31  1  0  0  0  0
 21 32  1  0  0  0  0
 39 44  1  0  0  0  0
  8 13  1  0  0  0  0
 18 30  1  0  0  0  0
 48 50  1  0  0  0  0
  7 12  1  0  0  0  0
 38 43  1  0  0  0  0
 17 29  1  0  0  0  0
 28 37  1  0  0  0  0
M  END
$$$$

  -OEChem-02062319033D

 53 53  0     1  0  0  0  0  0999 V2000
   -1.9298    0.2574    3.9747 C   0  0  0  0  0  0  0  0  0  0  0  0
   -0.9825   -0.3573    3.4990 O   0  0  0  0  0  0  0  0  0  0  0  0
   -2.3617   -0.0250    5.3754 C   0  0  0  0  0  0  0  0  0  0  0  0
   -3.1214   -0.8213    5.4288 H   0  0  0  0  0  0  0  0  0  0  0  0
   -1.5305   -0.3726    6.0097 H   0  0  0  0  0  0  0  0  0  0  0  0
   -2.7997    0.8299    5.9150 H   0  0  0  0  0  0  0  0  0  0  0  0
   -2.6795    1.2298    3.3336 N   0  0  0  0  0  0  0  0  0  0  0  0
   -2.4327    1.6559    1.9812 C   0  0  2  0  0  0  0  0  0  0  0  0
   -1.0977    1.0705    1.5400 C   0  0  0  0  0  0  0  0  0  0  0  0
   -0.2256    0.7177    2.3313 O   0  0  0  0  0  0  0  0  0  0  0  0
   -2.4239    3.1726    1.8718 C   0  0  0  0  0  0  0  0  0  0  0  0
   -3.4446    1.6657    3.8454 H   0  0  0  0  0  0  0  0  0  0  0  0
   -3.2368    1.2374    1.3661 H   0  0  0  0  0  0  0  0  0  0  0  0
   -1.6248    3.6099    2.4815 H   0  0  0  0  0  0  0  0  0  0  0  0
   -2.2644    3.4949    0.8375 H   0  0  0  0  0  0  0  0  0  0  0  0
   -3.3741    3.5939    2.2175 H   0  0  0  0  0  0  0  0  0  0  0  0
   -0.9750    1.0274    0.1566 N   0  0  0  0  0  0  0  0  0  0  0  0
   -1.3407    2.1320   -0.6939 C   0  0  2  0  0  0  0  0  0  0  0  0
   -2.8226    2.4068   -0.4641 C   0  0  0  0  0  0  0  0  0  0  0  0
   -3.2836    3.5409   -0.3539 O   0  0  0  0  0  0  0  0  0  0  0  0
   -1.0772    1.8347   -2.1745 C   0  0  0  0  0  0  0  0  0  0  0  0
    0.3929    1.7078   -2.4916 C   0  0  0  0  0  0  0  0  0  0  0  0
    1.1667    2.8526   -2.6826 C   0  0  0  0  0  0  0  0  0  0  0  0
    0.9776    0.4456   -2.5944 C   0  0  0  0  0  0  0  0  0  0  0  0
    2.5252    2.7351   -2.9763 C   0  0  0  0  0  0  0  0  0  0  0  0
    2.3361    0.3281   -2.8880 C   0  0  0  0  0  0  0  0  0  0  0  0
    3.1099    1.4729   -3.0790 C   0  0  0  0  0  0  0  0  0  0  0  0
    4.4353    1.3584   -3.3668 O   0  0  0  0  0  0  0  0  0  0  0  0
   -0.5761    0.2003   -0.2808 H   0  0  0  0  0  0  0  0  0  0  0  0
   -0.7584    2.9957   -0.3519 H   0  0  0  0  0  0  0  0  0  0  0  0
   -1.5250    2.6150   -2.8048 H   0  0  0  0  0  0  0  0  0  0  0  0
   -1.5750    0.9026   -2.4731 H   0  0  0  0  0  0  0  0  0  0  0  0
    0.7195    3.8399   -2.6044 H   0  0  0  0  0  0  0  0  0  0  0  0
    0.3823   -0.4519   -2.4470 H   0  0  0  0  0  0  0  0  0  0  0  0
    3.1228    3.6307   -3.1243 H   0  0  0  0  0  0  0  0  0  0  0  0
    2.7855   -0.6578   -2.9670 H   0  0  0  0  0  0  0  0  0  0  0  0
    4.6918    0.4232   -3.4042 H   0  0  0  0  0  0  0  0  0  0  0  0
   -3.5712    1.2382   -0.4473 N   0  0  0  0  0  0  0  0  0  0  0  0
   -5.0053    1.2169   -0.2695 C   0  0  2  0  0  0  0  0  0  0  0  0
   -5.3407    2.0661    0.9495 C   0  0  0  0  0  0  0  0  0  0  0  0
   -4.5300    2.3098    1.8408 O   0  0  0  0  0  0  0  0  0  0  0  0
   -5.5210   -0.2037   -0.1008 C   0  0  0  0  0  0  0  0  0  0  0  0
   -3.0868    0.3533   -0.5659 H   0  0  0  0  0  0  0  0  0  0  0  0
   -5.4418    1.6734   -1.1645 H   0  0  0  0  0  0  0  0  0  0  0  0
   -5.0947   -0.6774    0.7910 H   0  0  0  0  0  0  0  0  0  0  0  0
   -6.6108   -0.2203    0.0052 H   0  0  0  0  0  0  0  0  0  0  0  0
   -5.2531   -0.8208   -0.9652 H   0  0  0  0  0  0  0  0  0  0  0  0
   -6.6642    2.4838    0.9464 N   0  0  0  0  0  0  0  0  0  0  0  0
   -7.2293    3.2915    2.0020 C   0  0  0  0  0  0  0  0  0  0  0  0
   -7.2599    2.2509    0.1573 H   0  0  0  0  0  0  0  0  0  0  0  0
   -7.6859    2.6380    2.7600 H   0  0  0  0  0  0  0  0  0  0  0  0
   -6.4354    3.8939    2.4677 H   0  0  0  0  0  0  0  0  0  0  0  0
   -7.9971    3.9582    1.5824 H   0  0  0  0  0  0  0  0  0  0  0  0
 23 25  2  0  0  0  0
 22 23  1  0  0  0  0
 24 26  1  0  0  0  0
 22 24  2  0  0  0  0
 25 27  1  0  0  0  0
 26 27  2  0  0  0  0
 21 22  1  0  0  0  0
 27 28  1  0  0  0  0
  1  3  1  0  0  0  0
  1  7  1  0  0  0  0
  1  2  2  0  0  0  0
 39 40  1  0  0  0  0
 40 48  1  0  0  0  0
 40 41  2  0  0  0  0
  8  9  1  0  0  0  0
  9 17  1  0  0  0  0
  9 10  2  0  0  0  0
 18 19  1  0  0  0  0
 19 38  1  0  0  0  0
 19 20  2  0  0  0  0
 39 42  1  0  0  0  0
  8 11  1  0  0  0  0
 48 49  1  0  0  0  0
 18 21  1  0  0  0  0
 38 39  1  0  0  0  0
  7  8  1  0  0  0  0
 17 18  1  0  0  0  0
 23 33  1  0  0  0  0
 24 34  1  0  0  0  0
 25 35  1  0  0  0  0
 26 36  1  0  0  0  0
  3  4  1  0  0  0  0
  3  5  1  0  0  0  0
  3  6  1  0  0  0  0
 42 45  1  0  0  0  0
 42 46  1  0  0  0  0
 42 47  1  0  0  0  0
 11 14  1  0  0  0  0
 11 15  1  0  0  0  0
 11 16  1  0  0  0  0
 49 51  1  0  0  0  0
 49 52  1  0  0  0  0
 49 53  1  0  0  0  0
 21 31  1  0  0  0  0
 21 32  1  0  0  0  0
 39 44  1  0  0  0  0
  8 13  1  0  0  0  0
 18 30  1  0  0  0  0
 48 50  1  0  0  0  0
  7 12  1  0  0  0  0
 38 43  1  0  0  0  0
 17 29  1  0  0  0  0
 28 37  1  0  0  0  0
M  END
$$$$

  -OEChem-02062319033D

 53 53  0     1  0  0  0  0  0999 V2000
   -1.9298    0.2574    3.9747 C   0  0  0  0  0  0  0  0  0  0  0  0
   -0.9825   -0.3573    3.4990 O   0  0  0  0  0  0  0  0  0  0  0  0
   -2.3617   -0.0250    5.3754 C   0  0  0  0  0  0  0  0  0  0  0  0
   -3.1214   -0.8213    5.4288 H   0  0  0  0  0  0  0  0  0  0  0  0
   -1.5305   -0.3726    6.0097 H   0  0  0  0  0  0  0  0  0  0  0  0
   -2.7997    0.8299    5.9150 H   0  0  0  0  0  0  0  0  0  0  0  0
   -2.6795    1.2298    3.3336 N   0  0  0  0  0  0  0  0  0  0  0  0
   -2.4327    1.6559    1.9812 C   0  0  2  0  0  0  0  0  0  0  0  0
   -1.0977    1.0705    1.5400 C   0  0  0  0  0  0  0  0  0  0  0  0
   -0.2256    0.7177    2.3313 O   0  0  0  0  0  0  0  0  0  0  0  0
   -2.4239    3.1726    1.8718 C   0  0  0  0  0  0  0  0  0  0  0  0
   -3.4446    1.6657    3.8454 H   0  0  0  0  0  0  0  0  0  0  0  0
   -3.2368    1.2374    1.3661 H   0  0  0  0  0  0  0  0  0  0  0  0
   -1.6248    3.6099    2.4815 H   0  0  0  0  0  0  0  0  0  0  0  0
   -2.2644    3.4949    0.8375 H   0  0  0  0  0  0  0  0  0  0  0  0
   -3.3741    3.5939    2.2175 H   0  0  0  0  0  0  0  0  0  0  0  0
   -0.9750    1.0274    0.1566 N   0  0  0  0  0  0  0  0  0  0  0  0
   -1.0344    2.2072   -0.6690 C   0  0  2  0  0  0  0  0  0  0  0  0
   -2.3980    2.8496   -0.4402 C   0  0  0  0  0  0  0  0  0  0  0  0
   -2.5524    4.0616   -0.3053 O   0  0  0  0  0  0  0  0  0  0  0  0
   -0.8401    1.8844   -2.1550 C   0  0  0  0  0  0  0  0  0  0  0  0
    0.5511    1.3897   -2.4677 C   0  0  0  0  0  0  0  0  0  0  0  0
    1.5957    2.3002   -2.6274 C   0  0  0  0  0  0  0  0  0  0  0  0
    0.7920    0.0220   -2.5976 C   0  0  0  0  0  0  0  0  0  0  0  0
    2.8813    1.8429   -2.9169 C   0  0  0  0  0  0  0  0  0  0  0  0
    2.0776   -0.4353   -2.8872 C   0  0  0  0  0  0  0  0  0  0  0  0
    3.1222    0.4752   -3.0468 C   0  0  0  0  0  0  0  0  0  0  0  0
    4.3765    0.0293   -3.3306 O   0  0  0  0  0  0  0  0  0  0  0  0
   -0.7978    0.1352   -0.2985 H   0  0  0  0  0  0  0  0  0  0  0  0
   -0.2531    2.8839   -0.3036 H   0  0  0  0  0  0  0  0  0  0  0  0
   -1.0648    2.7673   -2.7687 H   0  0  0  0  0  0  0  0  0  0  0  0
   -1.5579    1.1189   -2.4783 H   0  0  0  0  0  0  0  0  0  0  0  0
    1.4171    3.3675   -2.5278 H   0  0  0  0  0  0  0  0  0  0  0  0
   -0.0159   -0.6947   -2.4747 H   0  0  0  0  0  0  0  0  0  0  0  0
    3.6910    2.5572   -3.0404 H   0  0  0  0  0  0  0  0  0  0  0  0
    2.2587   -1.5018   -2.9874 H   0  0  0  0  0  0  0  0  0  0  0  0
    4.3838   -0.9394   -3.3891 H   0  0  0  0  0  0  0  0  0  0  0  0
   -3.4225    1.9134   -0.4551 N   0  0  0  0  0  0  0  0  0  0  0  0
   -4.8156    2.2587   -0.2851 C   0  0  2  0  0  0  0  0  0  0  0  0
   -4.9343    3.1388    0.9521 C   0  0  0  0  0  0  0  0  0  0  0  0
   -4.0981    3.1459    1.8531 O   0  0  0  0  0  0  0  0  0  0  0  0
   -5.6816    1.0156   -0.1531 C   0  0  0  0  0  0  0  0  0  0  0  0
   -3.1811    0.9364   -0.5924 H   0  0  0  0  0  0  0  0  0  0  0  0
   -5.1098    2.8317   -1.1712 H   0  0  0  0  0  0  0  0  0  0  0  0
   -5.4015    0.4287    0.7293 H   0  0  0  0  0  0  0  0  0  0  0  0
   -6.7400    1.2782   -0.0530 H   0  0  0  0  0  0  0  0  0  0  0  0
   -5.5721    0.3693   -1.0306 H   0  0  0  0  0  0  0  0  0  0  0  0
   -6.1054    3.8836    0.9524 N   0  0  0  0  0  0  0  0  0  0  0  0
   -6.4550    4.7864    2.0241 C   0  0  0  0  0  0  0  0  0  0  0  0
   -6.7322    3.8294    0.1549 H   0  0  0  0  0  0  0  0  0  0  0  0
   -7.0728    4.2564    2.7640 H   0  0  0  0  0  0  0  0  0  0  0  0
   -5.5379    5.1535    2.5080 H   0  0  0  0  0  0  0  0  0  0  0  0
   -7.0205    5.6375    1.6167 H   0  0  0  0  0  0  0  0  0  0  0  0
 23 25  2  0  0  0  0
 22 23  1  0  0  0  0
 24 26  1  0  0  0  0
 22 24  2  0  0  0  0
 25 27  1  0  0  0  0
 26 27  2  0  0  0  0
 21 22  1  0  0  0  0
 27 28  1  0  0  0  0
  1  3  1  0  0  0  0
  1  7  1  0  0  0  0
  1  2  2  0  0  0  0
 39 40  1  0  0  0  0
 40 48  1  0  0  0  0
 40 41  2  0  0  0  0
  8  9  1  0  0  0  0
  9 17  1  0  0  0  0
  9 10  2  0  0  0  0
 18 19  1  0  0  0  0
 19 38  1  0  0  0  0
 19 20  2  0  0  0  0
 39 42  1  0  0  0  0
  8 11  1  0  0  0  0
 48 49  1  0  0  0  0
 18 21  1  0  0  0  0
 38 39  1  0  0  0  0
  7  8  1  0  0  0  0
 17 18  1  0  0  0  0
 23 33  1  0  0  0  0
 24 34  1  0  0  0  0
 25 35  1  0  0  0  0
 26 36  1  0  0  0  0
  3  4  1  0  0  0  0
  3  5  1  0  0  0  0
  3  6  1  0  0  0  0
 42 45  1  0  0  0  0
 42 46  1  0  0  0  0
 42 47  1  0  0  0  0
 11 14  1  0  0  0  0
 11 15  1  0  0  0  0
 11 16  1  0  0  0  0
 49 51  1  0  0  0  0
 49 52  1  0  0  0  0
 49 53  1  0  0  0  0
 21 31  1  0  0  0  0
 21 32  1  0  0  0  0
 39 44  1  0  0  0  0
  8 13  1  0  0  0  0
 18 30  1  0  0  0  0
 48 50  1  0  0  0  0
  7 12  1  0  0  0  0
 38 43  1  0  0  0  0
 17 29  1  0  0  0  0
 28 37  1  0  0  0  0
M  END
$$$$

  -OEChem-02062319033D

 53 53  0     1  0  0  0  0  0999 V2000
   -1.9298    0.2574    3.9747 C   0  0  0  0  0  0  0  0  0  0  0  0
   -0.9825   -0.3573    3.4990 O   0  0  0  0  0  0  0  0  0  0  0  0
   -2.3617   -0.0250    5.3754 C   0  0  0  0  0  0  0  0  0  0  0  0
   -3.1214   -0.8213    5.4288 H   0  0  0  0  0  0  0  0  0  0  0  0
   -1.5305   -0.3726    6.0097 H   0  0  0  0  0  0  0  0  0  0  0  0
   -2.7997    0.8299    5.9150 H   0  0  0  0  0  0  0  0  0  0  0  0
   -2.6795    1.2298    3.3336 N   0  0  0  0  0  0  0  0  0  0  0  0
   -2.4327    1.6559    1.9812 C   0  0  2  0  0  0  0  0  0  0  0  0
   -1.0977    1.0705    1.5400 C   0  0  0  0  0  0  0  0  0  0  0  0
   -0.2256    0.7177    2.3313 O   0  0  0  0  0  0  0  0  0  0  0  0
   -2.4239    3.1726    1.8718 C   0  0  0  0  0  0  0  0  0  0  0  0
   -3.4446    1.6657    3.8454 H   0  0  0  0  0  0  0  0  0  0  0  0
   -3.2368    1.2374    1.3661 H   0  0  0  0  0  0  0  0  0  0  0  0
   -1.6248    3.6099    2.4815 H   0  0  0  0  0  0  0  0  0  0  0  0
   -2.2644    3.4949    0.8375 H   0  0  0  0  0  0  0  0  0  0  0  0
   -3.3741    3.5939    2.2175 H   0  0  0  0  0  0  0  0  0  0  0  0
   -0.9750    1.0274    0.1566 N   0  0  0  0  0  0  0  0  0  0  0  0
   -0.7194    2.2004   -0.6409 C   0  0  2  0  0  0  0  0  0  0  0  0
   -1.8739    3.1674   -0.4037 C   0  0  0  0  0  0  0  0  0  0  0  0
   -1.7124    4.3750   -0.2406 O   0  0  0  0  0  0  0  0  0  0  0  0
   -0.5984    1.8708   -2.1332 C   0  0  0  0  0  0  0  0  0  0  0  0
    0.6217    1.0412   -2.4505 C   0  0  0  0  0  0  0  0  0  0  0  0
    1.8674    1.6549   -2.5832 C   0  0  0  0  0  0  0  0  0  0  0  0
    0.5037   -0.3393   -2.6119 C   0  0  0  0  0  0  0  0  0  0  0  0
    2.9949    0.8881   -2.8771 C   0  0  0  0  0  0  0  0  0  0  0  0
    1.6312   -1.1061   -2.9058 C   0  0  0  0  0  0  0  0  0  0  0  0
    2.8768   -0.4924   -3.0384 C   0  0  0  0  0  0  0  0  0  0  0  0
    3.9769   -1.2402   -3.3265 O   0  0  0  0  0  0  0  0  0  0  0  0
   -1.0286    0.1298   -0.3188 H   0  0  0  0  0  0  0  0  0  0  0  0
    0.2058    2.6446   -0.2555 H   0  0  0  0  0  0  0  0  0  0  0  0
   -0.5814    2.7949   -2.7267 H   0  0  0  0  0  0  0  0  0  0  0  0
   -1.4855    1.3234   -2.4782 H   0  0  0  0  0  0  0  0  0  0  0  0
    1.9686    2.7297   -2.4591 H   0  0  0  0  0  0  0  0  0  0  0  0
   -0.4629   -0.8260   -2.5103 H   0  0  0  0  0  0  0  0  0  0  0  0
    3.9625    1.3720   -2.9794 H   0  0  0  0  0  0  0  0  0  0  0  0
    1.5326   -2.1807   -3.0307 H   0  0  0  0  0  0  0  0  0  0  0  0
    3.7351   -2.1766   -3.4080 H   0  0  0  0  0  0  0  0  0  0  0  0
   -3.1048    2.5275   -0.4461 N   0  0  0  0  0  0  0  0  0  0  0  0
   -4.3637    3.2164   -0.2749 C   0  0  2  0  0  0  0  0  0  0  0  0
   -4.2653    4.0702    0.9824 C   0  0  0  0  0  0  0  0  0  0  0  0
   -3.4655    3.8418    1.8875 O   0  0  0  0  0  0  0  0  0  0  0  0
   -5.5221    2.2360   -0.1769 C   0  0  0  0  0  0  0  0  0  0  0  0
   -3.1217    1.5244   -0.6055 H   0  0  0  0  0  0  0  0  0  0  0  0
   -4.4906    3.8650   -1.1485 H   0  0  0  0  0  0  0  0  0  0  0  0
   -5.4124    1.5776    0.6925 H   0  0  0  0  0  0  0  0  0  0  0  0
   -6.4781    2.7603   -0.0759 H   0  0  0  0  0  0  0  0  0  0  0  0
   -5.5731    1.6026   -1.0691 H   0  0  0  0  0  0  0  0  0  0  0  0
   -5.2050    5.0915    0.9945 N   0  0  0  0  0  0  0  0  0  0  0  0
   -5.3220    6.0304    2.0858 C   0  0  0  0  0  0  0  0  0  0  0  0
   -5.8158    5.2181    0.1929 H   0  0  0  0  0  0  0  0  0  0  0  0
   -6.0636    5.6615    2.8096 H   0  0  0  0  0  0  0  0  0  0  0  0
   -4.3467    6.1380    2.5829 H   0  0  0  0  0  0  0  0  0  0  0  0
   -5.6447    7.0071    1.6960 H   0  0  0  0  0  0  0  0  0  0  0  0
 23 25  2  0  0  0  0
 22 23  1  0  0  0  0
 24 26  1  0  0  0  0
 22 24  2  0  0  0  0
 25 27  1  0  0  0  0
 26 27  2  0  0  0  0
 21 22  1  0  0  0  0
 27 28  1  0  0  0  0
  1  3  1  0  0  0  0
  1  7  1  0  0  0  0
  1  2  2  0  0  0  0
 39 40  1  0  0  0  0
 40 48  1  0  0  0  0
 40 41  2  0  0  0  0
  8  9  1  0  0  0  0
  9 17  1  0  0  0  0
  9 10  2  0  0  0  0
 18 19  1  0  0  0  0
 19 38  1  0  0  0  0
 19 20  2  0  0  0  0
 39 42  1  0  0  0  0
  8 11  1  0  0  0  0
 48 49  1  0  0  0  0
 18 21  1  0  0  0  0
 38 39  1  0  0  0  0
  7  8  1  0  0  0  0
 17 18  1  0  0  0  0
 23 33  1  0  0  0  0
 24 34  1  0  0  0  0
 25 35  1  0  0  0  0
 26 36  1  0  0  0  0
  3  4  1  0  0  0  0
  3  5  1  0  0  0  0
  3  6  1  0  0  0  0
 42 45  1  0  0  0  0
 42 46  1  0  0  0  0
 42 47  1  0  0  0  0
 11 14  1  0  0  0  0
 11 15  1  0  0  0  0
 11 16  1  0  0  0  0
 49 51  1  0  0  0  0
 49 52  1  0  0  0  0
 49 53  1  0  0  0  0
 21 31  1  0  0  0  0
 21 32  1  0  0  0  0
 39 44  1  0  0  0  0
  8 13  1  0  0  0  0
 18 30  1  0  0  0  0
 48 50  1  0  0  0  0
  7 12  1  0  0  0  0
 38 43  1  0  0  0  0
 17 29  1  0  0  0  0
 28 37  1  0  0  0  0
M  END
$$$$

  -OEChem-02062319033D

 53 53  0     1  0  0  0  0  0999 V2000
   -1.9298    0.2574    3.9747 C   0  0  0  0  0  0  0  0  0  0  0  0
   -0.9825   -0.3573    3.4990 O   0  0  0  0  0  0  0  0  0  0  0  0
   -2.3617   -0.0250    5.3754 C   0  0  0  0  0  0  0  0  0  0  0  0
   -3.1214   -0.8213    5.4288 H   0  0  0  0  0  0  0  0  0  0  0  0
   -1.5305   -0.3726    6.0097 H   0  0  0  0  0  0  0  0  0  0  0  0
   -2.7997    0.8299    5.9150 H   0  0  0  0  0  0  0  0  0  0  0  0
   -2.6795    1.2298    3.3336 N   0  0  0  0  0  0  0  0  0  0  0  0
   -2.4327    1.6559    1.9812 C   0  0  2  0  0  0  0  0  0  0  0  0
   -1.0977    1.0705    1.5400 C   0  0  0  0  0  0  0  0  0  0  0  0
   -0.2256    0.7177    2.3313 O   0  0  0  0  0  0  0  0  0  0  0  0
   -2.4239    3.1726    1.8718 C   0  0  0  0  0  0  0  0  0  0  0  0
   -3.4446    1.6657    3.8454 H   0  0  0  0  0  0  0  0  0  0  0  0
   -3.2368    1.2374    1.3661 H   0  0  0  0  0  0  0  0  0  0  0  0
   -1.6248    3.6099    2.4815 H   0  0  0  0  0  0  0  0  0  0  0  0
   -2.2644    3.4949    0.8375 H   0  0  0  0  0  0  0  0  0  0  0  0
   -3.3741    3.5939    2.2175 H   0  0  0  0  0  0  0  0  0  0  0  0
   -0.9750    1.0274    0.1566 N   0  0  0  0  0  0  0  0  0  0  0  0
   -0.4171    2.1119   -0.6113 C   0  0  2  0  0  0  0  0  0  0  0  0
   -1.2861    3.3385   -0.3569 C   0  0  0  0  0  0  0  0  0  0  0  0
   -0.8208    4.4598   -0.1642 O   0  0  0  0  0  0  0  0  0  0  0  0
   -0.3686    1.7949   -2.1104 C   0  0  0  0  0  0  0  0  0  0  0  0
    0.6001    0.6859   -2.4414 C   0  0  0  0  0  0  0  0  0  0  0  0
    1.9631    0.9605   -2.5531 C   0  0  0  0  0  0  0  0  0  0  0  0
    0.1322   -0.6136   -2.6363 C   0  0  0  0  0  0  0  0  0  0  0  0
    2.8582   -0.0644   -2.8595 C   0  0  0  0  0  0  0  0  0  0  0  0
    1.0273   -1.6385   -2.9428 C   0  0  0  0  0  0  0  0  0  0  0  0
    2.3903   -1.3639   -3.0544 C   0  0  0  0  0  0  0  0  0  0  0  0
    3.2638   -2.3636   -3.3547 O   0  0  0  0  0  0  0  0  0  0  0  0
   -1.2528    0.1845   -0.3403 H   0  0  0  0  0  0  0  0  0  0  0  0
    0.5870    2.2942   -0.2108 H   0  0  0  0  0  0  0  0  0  0  0  0
   -0.1076    2.6961   -2.6816 H   0  0  0  0  0  0  0  0  0  0  0  0
   -1.3630    1.5023   -2.4730 H   0  0  0  0  0  0  0  0  0  0  0  0
    2.3364    1.9699   -2.4028 H   0  0  0  0  0  0  0  0  0  0  0  0
   -0.9282   -0.8368   -2.5512 H   0  0  0  0  0  0  0  0  0  0  0  0
    3.9190    0.1559   -2.9454 H   0  0  0  0  0  0  0  0  0  0  0  0
    0.6565   -2.6485   -3.0938 H   0  0  0  0  0  0  0  0  0  0  0  0
    2.7899   -3.2040   -3.4598 H   0  0  0  0  0  0  0  0  0  0  0  0
   -2.6397    3.0385   -0.4208 N   0  0  0  0  0  0  0  0  0  0  0  0
   -3.6805    4.0248   -0.2395 C   0  0  2  0  0  0  0  0  0  0  0  0
   -3.3794    4.7968    1.0383 C   0  0  0  0  0  0  0  0  0  0  0  0
   -2.6754    4.3503    1.9417 O   0  0  0  0  0  0  0  0  0  0  0  0
   -5.0534    3.3743   -0.1709 C   0  0  0  0  0  0  0  0  0  0  0  0
   -2.9127    2.0775   -0.6042 H   0  0  0  0  0  0  0  0  0  0  0  0
   -3.6264    4.7031   -1.0980 H   0  0  0  0  0  0  0  0  0  0  0  0
   -5.1265    2.6911    0.6832 H   0  0  0  0  0  0  0  0  0  0  0  0
   -5.8431    4.1250   -0.0622 H   0  0  0  0  0  0  0  0  0  0  0  0
   -5.2560    2.7950   -1.0782 H   0  0  0  0  0  0  0  0  0  0  0  0
   -4.0244    6.0253    1.0701 N   0  0  0  0  0  0  0  0  0  0  0  0
   -3.9076    6.9386    2.1829 C   0  0  0  0  0  0  0  0  0  0  0  0
   -4.5731    6.3225    0.2686 H   0  0  0  0  0  0  0  0  0  0  0  0
   -4.7271    6.7576    2.8940 H   0  0  0  0  0  0  0  0  0  0  0  0
   -2.9430    6.7803    2.6873 H   0  0  0  0  0  0  0  0  0  0  0  0
   -3.9634    7.9737    1.8149 H   0  0  0  0  0  0  0  0  0  0  0  0
 23 25  2  0  0  0  0
 22 23  1  0  0  0  0
 24 26  1  0  0  0  0
 22 24  2  0  0  0  0
 25 27  1  0  0  0  0
 26 27  2  0  0  0  0
 21 22  1  0  0  0  0
 27 28  1  0  0  0  0
  1  3  1  0  0  0  0
  1  7  1  0  0  0  0
  1  2  2  0  0  0  0
 39 40  1  0  0  0  0
 40 48  1  0  0  0  0
 40 41  2  0  0  0  0
  8  9  1  0  0  0  0
  9 17  1  0  0  0  0
  9 10  2  0  0  0  0
 18 19  1  0  0  0  0
 19 38  1  0  0  0  0
 19 20  2  0  0  0  0
 39 42  1  0  0  0  0
  8 11  1  0  0  0  0
 48 49  1  0  0  0  0
 18 21  1  0  0  0  0
 38 39  1  0  0  0  0
  7  8  1  0  0  0  0
 17 18  1  0  0  0  0
 23 33  1  0  0  0  0
 24 34  1  0  0  0  0
 25 35  1  0  0  0  0
 26 36  1  0  0  0  0
  3  4  1  0  0  0  0
  3  5  1  0  0  0  0
  3  6  1  0  0  0  0
 42 45  1  0  0  0  0
 42 46  1  0  0  0  0
 42 47  1  0  0  0  0
 11 14  1  0  0  0  0
 11 15  1  0  0  0  0
 11 16  1  0  0  0  0
 49 51  1  0  0  0  0
 49 52  1  0  0  0  0
 49 53  1  0  0  0  0
 21 31  1  0  0  0  0
 21 32  1  0  0  0  0
 39 44  1  0  0  0  0
  8 13  1  0  0  0  0
 18 30  1  0  0  0  0
 48 50  1  0  0  0  0
  7 12  1  0  0  0  0
 38 43  1  0  0  0  0
 17 29  1  0  0  0  0
 28 37  1  0  0  0  0
M  END
$$$$

  -OEChem-02062319033D

 53 53  0     1  0  0  0  0  0999 V2000
   -1.9298    0.2574    3.9747 C   0  0  0  0  0  0  0  0  0  0  0  0
   -0.9825   -0.3573    3.4990 O   0  0  0  0  0  0  0  0  0  0  0  0
   -2.3617   -0.0250    5.3754 C   0  0  0  0  0  0  0  0  0  0  0  0
   -3.1214   -0.8213    5.4288 H   0  0  0  0  0  0  0  0  0  0  0  0
   -1.5305   -0.3726    6.0097 H   0  0  0  0  0  0  0  0  0  0  0  0
   -2.7997    0.8299    5.9150 H   0  0  0  0  0  0  0  0  0  0  0  0
   -2.6795    1.2298    3.3336 N   0  0  0  0  0  0  0  0  0  0  0  0
   -2.4327    1.6559    1.9812 C   0  0  2  0  0  0  0  0  0  0  0  0
   -1.0977    1.0705    1.5400 C   0  0  0  0  0  0  0  0  0  0  0  0
   -0.2256    0.7177    2.3313 O   0  0  0  0  0  0  0  0  0  0  0  0
   -2.4239    3.1726    1.8718 C   0  0  0  0  0  0  0  0  0  0  0  0
   -3.4446    1.6657    3.8454 H   0  0  0  0  0  0  0  0  0  0  0  0
   -3.2368    1.2374    1.3661 H   0  0  0  0  0  0  0  0  0  0  0  0
   -1.6248    3.6099    2.4815 H   0  0  0  0  0  0  0  0  0  0  0  0
   -2.2644    3.4949    0.8375 H   0  0  0  0  0  0  0  0  0  0  0  0
   -3.3741    3.5939    2.2175 H   0  0  0  0  0  0  0  0  0  0  0  0
   -0.9750    1.0274    0.1566 N   0  0  0  0  0  0  0  0  0  0  0  0
   -0.1482    1.9479   -0.5824 C   0  0  2  0  0  0  0  0  0  0  0  0
   -0.6746    3.3512   -0.3031 C   0  0  0  0  0  0  0  0  0  0  0  0
    0.0616    4.3102   -0.0813 O   0  0  0  0  0  0  0  0  0  0  0  0
   -0.1665    1.6619   -2.0884 C   0  0  0  0  0  0  0  0  0  0  0  0
    0.4875    0.3481   -2.4409 C   0  0  0  0  0  0  0  0  0  0  0  0
    1.8764    0.2645   -2.5391 C   0  0  0  0  0  0  0  0  0  0  0  0
   -0.2972   -0.7823   -2.6691 C   0  0  0  0  0  0  0  0  0  0  0  0
    2.4806   -0.9496   -2.8654 C   0  0  0  0  0  0  0  0  0  0  0  0
    0.3070   -1.9964   -2.9955 C   0  0  0  0  0  0  0  0  0  0  0  0
    1.6960   -2.0800   -3.0936 C   0  0  0  0  0  0  0  0  0  0  0  0
    2.2857   -3.2643   -3.4133 O   0  0  0  0  0  0  0  0  0  0  0  0
   -1.4550    0.2956   -0.3617 H   0  0  0  0  0  0  0  0  0  0  0  0
    0.8646    1.8564   -0.1725 H   0  0  0  0  0  0  0  0  0  0  0  0
    0.3242    2.4776   -2.6365 H   0  0  0  0  0  0  0  0  0  0  0  0
   -1.1985    1.6435   -2.4628 H   0  0  0  0  0  0  0  0  0  0  0  0
    2.4955    1.1400   -2.3628 H   0  0  0  0  0  0  0  0  0  0  0  0
   -1.3802   -0.7264   -2.5947 H   0  0  0  0  0  0  0  0  0  0  0  0
    3.5632   -1.0084   -2.9406 H   0  0  0  0  0  0  0  0  0  0  0  0
   -0.3096   -2.8731   -3.1724 H   0  0  0  0  0  0  0  0  0  0  0  0
    1.6125   -3.9517   -3.5409 H   0  0  0  0  0  0  0  0  0  0  0  0
   -2.0590    3.4118   -0.3809 N   0  0  0  0  0  0  0  0  0  0  0  0
   -2.8125    4.6288   -0.1814 C   0  0  2  0  0  0  0  0  0  0  0  0
   -2.3369    5.2691    1.1160 C   0  0  0  0  0  0  0  0  0  0  0  0
   -1.7817    4.6366    2.0120 O   0  0  0  0  0  0  0  0  0  0  0  0
   -4.3073    4.3528   -0.1352 C   0  0  0  0  0  0  0  0  0  0  0  0
   -2.5683    2.5578   -0.5886 H   0  0  0  0  0  0  0  0  0  0  0  0
   -2.5761    5.2888   -1.0231 H   0  0  0  0  0  0  0  0  0  0  0  0
   -4.5634    3.6931    0.7019 H   0  0  0  0  0  0  0  0  0  0  0  0
   -4.8782    5.2792   -0.0126 H   0  0  0  0  0  0  0  0  0  0  0  0
   -4.6423    3.8653   -1.0571 H   0  0  0  0  0  0  0  0  0  0  0  0
   -2.6440    6.6213    1.1739 N   0  0  0  0  0  0  0  0  0  0  0  0
   -2.3082    7.4491    2.3088 C   0  0  0  0  0  0  0  0  0  0  0  0
   -3.0887    7.0673    0.3770 H   0  0  0  0  0  0  0  0  0  0  0  0
   -3.1544    7.4701    3.0112 H   0  0  0  0  0  0  0  0  0  0  0  0
   -1.4225    7.0366    2.8142 H   0  0  0  0  0  0  0  0  0  0  0  0
   -2.0914    8.4714    1.9654 H   0  0  0  0  0  0  0  0  0  0  0  0
 23 25  2  0  0  0  0
 22 23  1  0  0  0  0
 24 26  1  0  0  0  0
 22 24  2  0  0  0  0
 25 27  1  0  0  0  0
 26 27  2  0  0  0  0
 21 22  1  0  0  0  0
 27 28  1  0  0  0  0
  1  3  1  0  0  0  0
  1  7  1  0  0  0  0
  1  2  2  0  0  0  0
 39 40  1  0  0  0  0
 40 48  1  0  0  0  0
 40 41  2  0  0  0  0
  8  9  1  0  0  0  0
  9 17  1  0  0  0  0
  9 10  2  0  0  0  0
 18 19  1  0  0  0  0
 19 38  1  0  0  0  0
 19 20  2  0  0  0  0
 39 42  1  0  0  0  0
  8 11  1  0  0  0  0
 48 49  1  0  0  0  0
 18 21  1  0  0  0  0
 38 39  1  0  0  0  0
  7  8  1  0  0  0  0
 17 18  1  0  0  0  0
 23 33  1  0  0  0  0
 24 34  1  0  0  0  0
 25 35  1  0  0  0  0
 26 36  1  0  0  0  0
  3  4  1  0  0  0  0
  3  5  1  0  0  0  0
  3  6  1  0  0  0  0
 42 45  1  0  0  0  0
 42 46  1  0  0  0  0
 42 47  1  0  0  0  0
 11 14  1  0  0  0  0
 11 15  1  0  0  0  0
 11 16  1  0  0  0  0
 49 51  1  0  0  0  0
 49 52  1  0  0  0  0
 49 53  1  0  0  0  0
 21 31  1  0  0  0  0
 21 32  1  0  0  0  0
 39 44  1  0  0  0  0
  8 13  1  0  0  0  0
 18 30  1  0  0  0  0
 48 50  1  0  0  0  0
  7 12  1  0  0  0  0
 38 43  1  0  0  0  0
 17 29  1  0  0  0  0
 28 37  1  0  0  0  0
M  END
$$$$

  -OEChem-02062319033D

 53 53  0     1  0  0  0  0  0999 V2000
   -1.9298    0.2574    3.9747 C   0  0  0  0  0  0  0  0  0  0  0  0
   -0.9825   -0.3573    3.4990 O   0  0  0  0  0  0  0  0  0  0  0  0
   -2.3617   -0.0250    5.3754 C   0  0  0  0  0  0  0  0  0  0  0  0
   -3.1214   -0.8213    5.4288 H   0  0  0  0  0  0  0  0  0  0  0  0
   -1.5305   -0.3726    6.0097 H   0  0  0  0  0  0  0  0  0  0  0  0
   -2.7997    0.8299    5.9150 H   0  0  0  0  0  0  0  0  0  0  0  0
   -2.6795    1.2298    3.3336 N   0  0  0  0  0  0  0  0  0  0  0  0
   -2.4327    1.6559    1.9812 C   0  0  2  0  0  0  0  0  0  0  0  0
   -1.0977    1.0705    1.5400 C   0  0  0  0  0  0  0  0  0  0  0  0
   -0.2256    0.7177    2.3313 O   0  0  0  0  0  0  0  0  0  0  0  0
   -2.4239    3.1726    1.8718 C   0  0  0  0  0  0  0  0  0  0  0  0
   -3.4446    1.6657    3.8454 H   0  0  0  0  0  0  0  0  0  0  0  0
   -3.2368    1.2374    1.3661 H   0  0  0  0  0  0  0  0  0  0  0  0
   -1.6248    3.6099    2.4815 H   0  0  0  0  0  0  0  0  0  0  0  0
   -2.2644    3.4949    0.8375 H   0  0  0  0  0  0  0  0  0  0  0  0
   -3.3741    3.5939    2.2175 H   0  0  0  0  0  0  0  0  0  0  0  0
   -0.9750    1.0274    0.1566 N   0  0  0  0  0  0  0  0  0  0  0  0
    0.0692    1.7195   -0.5560 C   0  0  2  0  0  0  0  0  0  0  0  0
   -0.0811    3.2046   -0.2459 C   0  0  0  0  0  0  0  0  0  0  0  0
    0.8748    3.9364    0.0024 O   0  0  0  0  0  0  0  0  0  0  0  0
   -0.0056    1.4807   -2.0685 C   0  0  0  0  0  0  0  0  0  0  0  0
    0.2917    0.0509   -2.4489 C   0  0  0  0  0  0  0  0  0  0  0  0
    1.6132   -0.3859   -2.5421 C   0  0  0  0  0  0  0  0  0  0  0  0
   -0.7551   -0.8338   -2.7081 C   0  0  0  0  0  0  0  0  0  0  0  0
    1.8879   -1.7073   -2.8943 C   0  0  0  0  0  0  0  0  0  0  0  0
   -0.4805   -2.1552   -3.0604 C   0  0  0  0  0  0  0  0  0  0  0  0
    0.8410   -2.5919   -3.1535 C   0  0  0  0  0  0  0  0  0  0  0  0
    1.1093   -3.8810   -3.4984 O   0  0  0  0  0  0  0  0  0  0  0  0
   -1.6216    0.4555   -0.3815 H   0  0  0  0  0  0  0  0  0  0  0  0
    1.0196    1.3611   -0.1434 H   0  0  0  0  0  0  0  0  0  0  0  0
    0.6846    2.1541   -2.5945 H   0  0  0  0  0  0  0  0  0  0  0  0
   -1.0034    1.7372   -2.4484 H   0  0  0  0  0  0  0  0  0  0  0  0
    2.4349    0.2965   -2.3419 H   0  0  0  0  0  0  0  0  0  0  0  0
   -1.7879   -0.5023   -2.6378 H   0  0  0  0  0  0  0  0  0  0  0  0
    2.9195   -2.0415   -2.9655 H   0  0  0  0  0  0  0  0  0  0  0  0
   -1.3002   -2.8393   -3.2613 H   0  0  0  0  0  0  0  0  0  0  0  0
    0.2832   -4.3686   -3.6458 H   0  0  0  0  0  0  0  0  0  0  0  0
   -1.4023    3.6217   -0.3293 N   0  0  0  0  0  0  0  0  0  0  0  0
   -1.8190    4.9872   -0.1045 C   0  0  2  0  0  0  0  0  0  0  0  0
   -1.2088    5.4548    1.2103 C   0  0  0  0  0  0  0  0  0  0  0  0
   -0.8452    4.6812    2.0936 O   0  0  0  0  0  0  0  0  0  0  0  0
   -3.3349    5.1050   -0.0724 C   0  0  0  0  0  0  0  0  0  0  0  0
   -2.1120    2.9326   -0.5599 H   0  0  0  0  0  0  0  0  0  0  0  0
   -1.4113    5.5822   -0.9290 H   0  0  0  0  0  0  0  0  0  0  0  0
   -3.7615    4.5155    0.7473 H   0  0  0  0  0  0  0  0  0  0  0  0
   -3.6492    6.1443    0.0694 H   0  0  0  0  0  0  0  0  0  0  0  0
   -3.7739    4.7405   -1.0074 H   0  0  0  0  0  0  0  0  0  0  0  0
   -1.1578    6.8389    1.2989 N   0  0  0  0  0  0  0  0  0  0  0  0
   -0.6326    7.5273    2.4549 C   0  0  0  0  0  0  0  0  0  0  0  0
   -1.4639    7.4017    0.5107 H   0  0  0  0  0  0  0  0  0  0  0  0
   -1.4526    7.7504    3.1534 H   0  0  0  0  0  0  0  0  0  0  0  0
    0.1112    6.8894    2.9547 H   0  0  0  0  0  0  0  0  0  0  0  0
   -0.1561    8.4664    2.1371 H   0  0  0  0  0  0  0  0  0  0  0  0
 23 25  2  0  0  0  0
 22 23  1  0  0  0  0
 24 26  1  0  0  0  0
 22 24  2  0  0  0  0
 25 27  1  0  0  0  0
 26 27  2  0  0  0  0
 21 22  1  0  0  0  0
 27 28  1  0  0  0  0
  1  3  1  0  0  0  0
  1  7  1  0  0  0  0
  1  2  2  0  0  0  0
 39 40  1  0  0  0  0
 40 48  1  0  0  0  0
 40 41  2  0  0  0  0
  8  9  1  0  0  0  0
  9 17  1  0  0  0  0
  9 10  2  0  0  0  0
 18 19  1  0  0  0  0
 19 38  1  0  0  0  0
 19 20  2  0  0  0  0
 39 42  1  0  0  0  0
  8 11  1  0  0  0  0
 48 49  1  0  0  0  0
 18 21  1  0  0  0  0
 38 39  1  0  0  0  0
  7  8  1  0  0  0  0
 17 18  1  0  0  0  0
 23 33  1  0  0  0  0
 24 34  1  0  0  0  0
 25 35  1  0  0  0  0
 26 36  1  0  0  0  0
  3  4  1  0  0  0  0
  3  5  1  0  0  0  0
  3  6  1  0  0  0  0
 42 45  1  0  0  0  0
 42 46  1  0  0  0  0
 42 47  1  0  0  0  0
 11 14  1  0  0  0  0
 11 15  1  0  0  0  0
 11 16  1  0  0  0  0
 49 51  1  0  0  0  0
 49 52  1  0  0  0  0
 49 53  1  0  0  0  0
 21 31  1  0  0  0  0
 21 32  1  0  0  0  0
 39 44  1  0  0  0  0
  8 13  1  0  0  0  0
 18 30  1  0  0  0  0
 48 50  1  0  0  0  0
  7 12  1  0  0  0  0
 38 43  1  0  0  0  0
 17 29  1  0  0  0  0
 28 37  1  0  0  0  0
M  END
$$$$

  -OEChem-02062319033D

 53 53  0     1  0  0  0  0  0999 V2000
   -1.9298    0.2574    3.9747 C   0  0  0  0  0  0  0  0  0  0  0  0
   -0.9825   -0.3573    3.4990 O   0  0  0  0  0  0  0  0  0  0  0  0
   -2.3617   -0.0250    5.3754 C   0  0  0  0  0  0  0  0  0  0  0  0
   -3.1214   -0.8213    5.4288 H   0  0  0  0  0  0  0  0  0  0  0  0
   -1.5305   -0.3726    6.0097 H   0  0  0  0  0  0  0  0  0  0  0  0
   -2.7997    0.8299    5.9150 H   0  0  0  0  0  0  0  0  0  0  0  0
   -2.6795    1.2298    3.3336 N   0  0  0  0  0  0  0  0  0  0  0  0
   -2.4327    1.6559    1.9812 C   0  0  2  0  0  0  0  0  0  0  0  0
   -1.0977    1.0705    1.5400 C   0  0  0  0  0  0  0  0  0  0  0  0
   -0.2256    0.7177    2.3313 O   0  0  0  0  0  0  0  0  0  0  0  0
   -2.4239    3.1726    1.8718 C   0  0  0  0  0  0  0  0  0  0  0  0
   -3.4446    1.6657    3.8454 H   0  0  0  0  0  0  0  0  0  0  0  0
   -3.2368    1.2374    1.3661 H   0  0  0  0  0  0  0  0  0  0  0  0
   -1.6248    3.6099    2.4815 H   0  0  0  0  0  0  0  0  0  0  0  0
   -2.2644    3.4949    0.8375 H   0  0  0  0  0  0  0  0  0  0  0  0
   -3.3741    3.5939    2.2175 H   0  0  0  0  0  0  0  0  0  0  0  0
   -0.9750    1.0274    0.1566 N   0  0  0  0  0  0  0  0  0  0  0  0
    0.2200    1.4423   -0.5340 C   0  0  2  0  0  0  0  0  0  0  0  0
    0.4540    2.9088   -0.1892 C   0  0  0  0  0  0  0  0  0  0  0  0
    1.5633    3.3638    0.0813 O   0  0  0  0  0  0  0  0  0  0  0  0
    0.1029    1.2639   -2.0521 C   0  0  0  0  0  0  0  0  0  0  0  0
    0.0261   -0.1856   -2.4651 C   0  0  0  0  0  0  0  0  0  0  0  0
    1.1914   -0.9461   -2.5621 C   0  0  0  0  0  0  0  0  0  0  0  0
   -1.2104   -0.7647   -2.7506 C   0  0  0  0  0  0  0  0  0  0  0  0
    1.1203   -2.2857   -2.9443 C   0  0  0  0  0  0  0  0  0  0  0  0
   -1.2815   -2.1043   -3.1330 C   0  0  0  0  0  0  0  0  0  0  0  0
   -0.1162   -2.8647   -3.2298 C   0  0  0  0  0  0  0  0  0  0  0  0
   -0.1852   -4.1715   -3.6041 O   0  0  0  0  0  0  0  0  0  0  0  0
   -1.7411    0.6534   -0.3982 H   0  0  0  0  0  0  0  0  0  0  0  0
    1.0414    0.8421   -0.1252 H   0  0  0  0  0  0  0  0  0  0  0  0
    0.9491    1.7479   -2.5584 H   0  0  0  0  0  0  0  0  0  0  0  0
   -0.7909    1.7771   -2.4308 H   0  0  0  0  0  0  0  0  0  0  0  0
    2.1589   -0.5032   -2.3414 H   0  0  0  0  0  0  0  0  0  0  0  0
   -2.1236   -0.1798   -2.6777 H   0  0  0  0  0  0  0  0  0  0  0  0
    2.0318   -2.8729   -3.0183 H   0  0  0  0  0  0  0  0  0  0  0  0
   -2.2475   -2.5494   -3.3543 H   0  0  0  0  0  0  0  0  0  0  0  0
   -1.1074   -4.4264   -3.7673 H   0  0  0  0  0  0  0  0  0  0  0  0
   -0.7142    3.6541   -0.2693 N   0  0  0  0  0  0  0  0  0  0  0  0
   -0.7676    5.0757   -0.0140 C   0  0  2  0  0  0  0  0  0  0  0  0
   -0.0721    5.3414    1.3146 C   0  0  0  0  0  0  0  0  0  0  0  0
    0.0703    4.4811    2.1810 O   0  0  0  0  0  0  0  0  0  0  0  0
   -2.2022    5.5795    0.0132 C   0  0  0  0  0  0  0  0  0  0  0  0
   -1.5749    3.1765   -0.5199 H   0  0  0  0  0  0  0  0  0  0  0  0
   -0.2113    5.5632   -0.8220 H   0  0  0  0  0  0  0  0  0  0  0  0
   -2.7753    5.1022    0.8165 H   0  0  0  0  0  0  0  0  0  0  0  0
   -2.2398    6.6613    0.1783 H   0  0  0  0  0  0  0  0  0  0  0  0
   -2.7100    5.3609   -0.9324 H   0  0  0  0  0  0  0  0  0  0  0  0
    0.3328    6.6633    1.4366 N   0  0  0  0  0  0  0  0  0  0  0  0
    1.0048    7.1676    2.6113 C   0  0  0  0  0  0  0  0  0  0  0  0
    0.1907    7.3030    0.6604 H   0  0  0  0  0  0  0  0  0  0  0  0
    0.2622    7.5793    3.3107 H   0  0  0  0  0  0  0  0  0  0  0  0
    1.5537    6.3489    3.0995 H   0  0  0  0  0  0  0  0  0  0  0  0
    1.7106    7.9589    2.3185 H   0  0  0  0  0  0  0  0  0  0  0  0
 23 25  2  0  0  0  0
 22 23  1  0  0  0  0
 24 26  1  0  0  0  0
 22 24  2  0  0  0  0
 25 27  1  0  0  0  0
 26 27  2  0  0  0  0
 21 22  1  0  0  0  0
 27 28  1  0  0  0  0
  1  3  1  0  0  0  0
  1  7  1  0  0  0  0
  1  2  2  0  0  0  0
 39 40  1  0  0  0  0
 40 48  1  0  0  0  0
 40 41  2  0  0  0  0
  8  9  1  0  0  0  0
  9 17  1  0  0  0  0
  9 10  2  0  0  0  0
 18 19  1  0  0  0  0
 19 38  1  0  0  0  0
 19 20  2  0  0  0  0
 39 42  1  0  0  0  0
  8 11  1  0  0  0  0
 48 49  1  0  0  0  0
 18 21  1  0  0  0  0
 38 39  1  0  0  0  0
  7  8  1  0  0  0  0
 17 18  1  0  0  0  0
 23 33  1  0  0  0  0
 24 34  1  0  0  0  0
 25 35  1  0  0  0  0
 26 36  1  0  0  0  0
  3  4  1  0  0  0  0
  3  5  1  0  0  0  0
  3  6  1  0  0  0  0
 42 45  1  0  0  0  0
 42 46  1  0  0  0  0
 42 47  1  0  0  0  0
 11 14  1  0  0  0  0
 11 15  1  0  0  0  0
 11 16  1  0  0  0  0
 49 51  1  0  0  0  0
 49 52  1  0  0  0  0
 49 53  1  0  0  0  0
 21 31  1  0  0  0  0
 21 32  1  0  0  0  0
 39 44  1  0  0  0  0
  8 13  1  0  0  0  0
 18 30  1  0  0  0  0
 48 50  1  0  0  0  0
  7 12  1  0  0  0  0
 38 43  1  0  0  0  0
 17 29  1  0  0  0  0
 28 37  1  0  0  0  0
M  END
$$$$

  -OEChem-02062319033D

 53 53  0     1  0  0  0  0  0999 V2000
   -1.9298    0.2574    3.9747 C   0  0  0  0  0  0  0  0  0  0  0  0
   -0.9825   -0.3573    3.4990 O   0  0  0  0  0  0  0  0  0  0  0  0
   -2.3617   -0.0250    5.3754 C   0  0  0  0  0  0  0  0  0  0  0  0
   -3.1214   -0.8213    5.4288 H   0  0  0  0  0  0  0  0  0  0  0  0
   -1.5305   -0.3726    6.0097 H   0  0  0  0  0  0  0  0  0  0  0  0
   -2.7997    0.8299    5.9150 H   0  0  0  0  0  0  0  0  0  0  0  0
   -2.6795    1.2298    3.3336 N   0  0  0  0  0  0  0  0  0  0  0  0
   -2.4327    1.6559    1.9812 C   0  0  2  0  0  0  0  0  0  0  0  0
   -1.0977    1.0705    1.5400 C   0  0  0  0  0  0  0  0  0  0  0  0
   -0.2256    0.7177    2.3313 O   0  0  0  0  0  0  0  0  0  0  0  0
   -2.4239    3.1726    1.8718 C   0  0  0  0  0  0  0  0  0  0  0  0
   -3.4446    1.6657    3.8454 H   0  0  0  0  0  0  0  0  0  0  0  0
   -3.2368    1.2374    1.3661 H   0  0  0  0  0  0  0  0  0  0  0  0
   -1.6248    3.6099    2.4815 H   0  0  0  0  0  0  0  0  0  0  0  0
   -2.2644    3.4949    0.8375 H   0  0  0  0  0  0  0  0  0  0  0  0
   -3.3741    3.5939    2.2175 H   0  0  0  0  0  0  0  0  0  0  0  0
   -0.9750    1.0274    0.1566 N   0  0  0  0  0  0  0  0  0  0  0  0
    0.2941    1.1352   -0.5178 C   0  0  2  0  0  0  0  0  0  0  0  0
    0.8941    2.4840   -0.1370 C   0  0  0  0  0  0  0  0  0  0  0  0
    2.0802    2.6316    0.1500 O   0  0  0  0  0  0  0  0  0  0  0  0
    0.1518    1.0261   -2.0403 C   0  0  0  0  0  0  0  0  0  0  0  0
   -0.2913   -0.3453   -2.4883 C   0  0  0  0  0  0  0  0  0  0  0  0
    0.6398   -1.3782   -2.5975 C   0  0  0  0  0  0  0  0  0  0  0  0
   -1.6320   -0.5797   -2.7938 C   0  0  0  0  0  0  0  0  0  0  0  0
    0.2302   -2.6454   -3.0120 C   0  0  0  0  0  0  0  0  0  0  0  0
   -2.0416   -1.8470   -3.2084 C   0  0  0  0  0  0  0  0  0  0  0  0
   -1.1104   -2.8798   -3.3175 C   0  0  0  0  0  0  0  0  0  0  0  0
   -1.5097   -4.1162   -3.7233 O   0  0  0  0  0  0  0  0  0  0  0  0
   -1.8054    0.8757   -0.4109 H   0  0  0  0  0  0  0  0  0  0  0  0
    0.9286    0.3348   -0.1194 H   0  0  0  0  0  0  0  0  0  0  0  0
    1.0996    1.2866   -2.5307 H   0  0  0  0  0  0  0  0  0  0  0  0
   -0.5755    1.7605   -2.4112 H   0  0  0  0  0  0  0  0  0  0  0  0
    1.6862   -1.2045   -2.3615 H   0  0  0  0  0  0  0  0  0  0  0  0
   -2.3645    0.2192   -2.7114 H   0  0  0  0  0  0  0  0  0  0  0  0
    0.9604   -3.4460   -3.0954 H   0  0  0  0  0  0  0  0  0  0  0  0
   -3.0871   -2.0231   -3.4452 H   0  0  0  0  0  0  0  0  0  0  0  0
   -2.4645   -4.1211   -3.8971 H   0  0  0  0  0  0  0  0  0  0  0  0
   -0.0417    3.5068   -0.2050 N   0  0  0  0  0  0  0  0  0  0  0  0
    0.2701    4.8881    0.0838 C   0  0  2  0  0  0  0  0  0  0  0  0
    0.9959    4.9365    1.4219 C   0  0  0  0  0  0  0  0  0  0  0  0
    0.9023    4.0500    2.2682 O   0  0  0  0  0  0  0  0  0  0  0  0
   -0.9866    5.7440    0.1159 C   0  0  0  0  0  0  0  0  0  0  0  0
   -0.9936    3.2727   -0.4713 H   0  0  0  0  0  0  0  0  0  0  0  0
    0.9420    5.2333   -0.7095 H   0  0  0  0  0  0  0  0  0  0  0  0
   -1.6721    5.4131    0.9046 H   0  0  0  0  0  0  0  0  0  0  0  0
   -0.7460    6.7951    0.3065 H   0  0  0  0  0  0  0  0  0  0  0  0
   -1.5231    5.6844   -0.8373 H   0  0  0  0  0  0  0  0  0  0  0  0
    1.7262    6.1064    1.5774 N   0  0  0  0  0  0  0  0  0  0  0  0
    2.4924    6.3948    2.7673 C   0  0  0  0  0  0  0  0  0  0  0  0
    1.7623    6.7779    0.8161 H   0  0  0  0  0  0  0  0  0  0  0  0
    1.8734    6.9686    3.4726 H   0  0  0  0  0  0  0  0  0  0  0  0
    2.8065    5.4517    3.2385 H   0  0  0  0  0  0  0  0  0  0  0  0
    3.3814    6.9835    2.4970 H   0  0  0  0  0  0  0  0  0  0  0  0
 23 25  2  0  0  0  0
 22 23  1  0  0  0  0
 24 26  1  0  0  0  0
 22 24  2  0  0  0  0
 25 27  1  0  0  0  0
 26 27  2  0  0  0  0
 21 22  1  0  0  0  0
 27 28  1  0  0  0  0
  1  3  1  0  0  0  0
  1  7  1  0  0  0  0
  1  2  2  0  0  0  0
 39 40  1  0  0  0  0
 40 48  1  0  0  0  0
 40 41  2  0  0  0  0
  8  9  1  0  0  0  0
  9 17  1  0  0  0  0
  9 10  2  0  0  0  0
 18 19  1  0  0  0  0
 19 38  1  0  0  0  0
 19 20  2  0  0  0  0
 39 42  1  0  0  0  0
  8 11  1  0  0  0  0
 48 49  1  0  0  0  0
 18 21  1  0  0  0  0
 38 39  1  0  0  0  0
  7  8  1  0  0  0  0
 17 18  1  0  0  0  0
 23 33  1  0  0  0  0
 24 34  1  0  0  0  0
 25 35  1  0  0  0  0
 26 36  1  0  0  0  0
  3  4  1  0  0  0  0
  3  5  1  0  0  0  0
  3  6  1  0  0  0  0
 42 45  1  0  0  0  0
 42 46  1  0  0  0  0
 42 47  1  0  0  0  0
 11 14  1  0  0  0  0
 11 15  1  0  0  0  0
 11 16  1  0  0  0  0
 49 51  1  0  0  0  0
 49 52  1  0  0  0  0
 49 53  1  0  0  0  0
 21 31  1  0  0  0  0
 21 32  1  0  0  0  0
 39 44  1  0  0  0  0
  8 13  1  0  0  0  0
 18 30  1  0  0  0  0
 48 50  1  0  0  0  0
  7 12  1  0  0  0  0
 38 43  1  0  0  0  0
 17 29  1  0  0  0  0
 28 37  1  0  0  0  0
M  END
$$$$

  -OEChem-02062319033D

 53 53  0     1  0  0  0  0  0999 V2000
   -1.9298    0.2574    3.9747 C   0  0  0  0  0  0  0  0  0  0  0  0
   -0.9825   -0.3573    3.4990 O   0  0  0  0  0  0  0  0  0  0  0  0
   -2.3617   -0.0250    5.3754 C   0  0  0  0  0  0  0  0  0  0  0  0
   -3.1214   -0.8213    5.4288 H   0  0  0  0  0  0  0  0  0  0  0  0
   -1.5305   -0.3726    6.0097 H   0  0  0  0  0  0  0  0  0  0  0  0
   -2.7997    0.8299    5.9150 H   0  0  0  0  0  0  0  0  0  0  0  0
   -2.6795    1.2298    3.3336 N   0  0  0  0  0  0  0  0  0  0  0  0
   -2.4327    1.6559    1.9812 C   0  0  2  0  0  0  0  0  0  0  0  0
   -1.0977    1.0705    1.5400 C   0  0  0  0  0  0  0  0  0  0  0  0
   -0.2256    0.7177    2.3313 O   0  0  0  0  0  0  0  0  0  0  0  0
   -2.4239    3.1726    1.8718 C   0  0  0  0  0  0  0  0  0  0  0  0
   -3.4446    1.6657    3.8454 H   0  0  0  0  0  0  0  0  0  0  0  0
   -3.2368    1.2374    1.3661 H   0  0  0  0  0  0  0  0  0  0  0  0
   -1.6248    3.6099    2.4815 H   0  0  0  0  0  0  0  0  0  0  0  0
   -2.2644    3.4949    0.8375 H   0  0  0  0  0  0  0  0  0  0  0  0
   -3.3741    3.5939    2.2175 H   0  0  0  0  0  0  0  0  0  0  0  0
   -0.9750    1.0274    0.1566 N   0  0  0  0  0  0  0  0  0  0  0  0
    0.2864    0.8191   -0.5087 C   0  0  2  0  0  0  0  0  0  0  0  0
    1.2093    1.9589   -0.0927 C   0  0  0  0  0  0  0  0  0  0  0  0
    2.3902    1.7896    0.2037 O   0  0  0  0  0  0  0  0  0  0  0  0
    0.1376    0.7836   -2.0340 C   0  0  0  0  0  0  0  0  0  0  0  0
   -0.6389   -0.4172   -2.5169 C   0  0  0  0  0  0  0  0  0  0  0  0
   -0.0041   -1.6525   -2.6460 C   0  0  0  0  0  0  0  0  0  0  0  0
   -1.9912   -0.2913   -2.8346 C   0  0  0  0  0  0  0  0  0  0  0  0
   -0.7217   -2.7620   -3.0928 C   0  0  0  0  0  0  0  0  0  0  0  0
   -2.7088   -1.4009   -3.2814 C   0  0  0  0  0  0  0  0  0  0  0  0
   -2.0740   -2.6362   -3.4105 C   0  0  0  0  0  0  0  0  0  0  0  0
   -2.7737   -3.7187   -3.8477 O   0  0  0  0  0  0  0  0  0  0  0  0
   -1.8102    1.1073   -0.4185 H   0  0  0  0  0  0  0  0  0  0  0  0
    0.6889   -0.1263   -0.1263 H   0  0  0  0  0  0  0  0  0  0  0  0
    1.1258    0.8015   -2.5132 H   0  0  0  0  0  0  0  0  0  0  0  0
   -0.3718    1.6885   -2.3909 H   0  0  0  0  0  0  0  0  0  0  0  0
    1.0491   -1.7597   -2.4007 H   0  0  0  0  0  0  0  0  0  0  0  0
   -2.4941    0.6674   -2.7369 H   0  0  0  0  0  0  0  0  0  0  0  0
   -0.2215   -3.7218   -3.1916 H   0  0  0  0  0  0  0  0  0  0  0  0
   -3.7618   -1.2963   -3.5276 H   0  0  0  0  0  0  0  0  0  0  0  0
   -3.6956   -3.4736   -4.0264 H   0  0  0  0  0  0  0  0  0  0  0  0
    0.5694    3.1896   -0.1410 N   0  0  0  0  0  0  0  0  0  0  0  0
    1.2233    4.4373    0.1824 C   0  0  2  0  0  0  0  0  0  0  0  0
    1.9223    4.2678    1.5249 C   0  0  0  0  0  0  0  0  0  0  0  0
    1.5941    3.4171    2.3493 O   0  0  0  0  0  0  0  0  0  0  0  0
    0.2292    5.5873    0.2285 C   0  0  0  0  0  0  0  0  0  0  0  0
   -0.4076    3.2147   -0.4176 H   0  0  0  0  0  0  0  0  0  0  0  0
    1.9702    4.6148   -0.5991 H   0  0  0  0  0  0  0  0  0  0  0  0
   -0.5270    5.4272    1.0057 H   0  0  0  0  0  0  0  0  0  0  0  0
    0.7303    6.5364    0.4455 H   0  0  0  0  0  0  0  0  0  0  0  0
   -0.2940    5.6888   -0.7284 H   0  0  0  0  0  0  0  0  0  0  0  0
    2.9275    5.2062    1.7120 N   0  0  0  0  0  0  0  0  0  0  0  0
    3.7290    5.2613    2.9122 C   0  0  0  0  0  0  0  0  0  0  0  0
    3.1437    5.8621    0.9672 H   0  0  0  0  0  0  0  0  0  0  0  0
    3.2709    5.9598    3.6280 H   0  0  0  0  0  0  0  0  0  0  0  0
    3.7843    4.2592    3.3624 H   0  0  0  0  0  0  0  0  0  0  0  0
    4.7426    5.6067    2.6606 H   0  0  0  0  0  0  0  0  0  0  0  0
 23 25  2  0  0  0  0
 22 23  1  0  0  0  0
 24 26  1  0  0  0  0
 22 24  2  0  0  0  0
 25 27  1  0  0  0  0
 26 27  2  0  0  0  0
 21 22  1  0  0  0  0
 27 28  1  0  0  0  0
  1  3  1  0  0  0  0
  1  7  1  0  0  0  0
  1  2  2  0  0  0  0
 39 40  1  0  0  0  0
 40 48  1  0  0  0  0
 40 41  2  0  0  0  0
  8  9  1  0  0  0  0
  9 17  1  0  0  0  0
  9 10  2  0  0  0  0
 18 19  1  0  0  0  0
 19 38  1  0  0  0  0
 19 20  2  0  0  0  0
 39 42  1  0  0  0  0
  8 11  1  0  0  0  0
 48 49  1  0  0  0  0
 18 21  1  0  0  0  0
 38 39  1  0  0  0  0
  7  8  1  0  0  0  0
 17 18  1  0  0  0  0
 23 33  1  0  0  0  0
 24 34  1  0  0  0  0
 25 35  1  0  0  0  0
 26 36  1  0  0  0  0
  3  4  1  0  0  0  0
  3  5  1  0  0  0  0
  3  6  1  0  0  0  0
 42 45  1  0  0  0  0
 42 46  1  0  0  0  0
 42 47  1  0  0  0  0
 11 14  1  0  0  0  0
 11 15  1  0  0  0  0
 11 16  1  0  0  0  0
 49 51  1  0  0  0  0
 49 52  1  0  0  0  0
 49 53  1  0  0  0  0
 21 31  1  0  0  0  0
 21 32  1  0  0  0  0
 39 44  1  0  0  0  0
  8 13  1  0  0  0  0
 18 30  1  0  0  0  0
 48 50  1  0  0  0  0
  7 12  1  0  0  0  0
 38 43  1  0  0  0  0
 17 29  1  0  0  0  0
 28 37  1  0  0  0  0
M  END
$$$$
