
  -OEChem-02062319143D

 53 53  0     1  0  0  0  0  0999 V2000
   -2.3504   -1.1427    3.8467 C   0  0  0  0  0  0  0  0  0  0  0  0
   -3.4738   -1.2960    3.3936 O   0  0  0  0  0  0  0  0  0  0  0  0
   -2.0266   -1.5943    5.2585 C   0  0  0  0  0  0  0  0  0  0  0  0
   -2.9289   -1.9644    5.7533 H   0  0  0  0  0  0  0  0  0  0  0  0
   -1.2845   -2.3961    5.2330 H   0  0  0  0  0  0  0  0  0  0  0  0
   -1.6276   -0.7564    5.8353 H   0  0  0  0  0  0  0  0  0  0  0  0
   -1.3691   -0.5661    3.0691 N   0  0  0  0  0  0  0  0  0  0  0  0
   -1.5314   -0.2113    1.6540 C   0  0  2  0  0  0  0  0  0  0  0  0
   -0.2187   -0.3969    0.8671 C   0  0  0  0  0  0  0  0  0  0  0  0
    0.8482   -0.4861    1.4623 O   0  0  0  0  0  0  0  0  0  0  0  0
   -1.9982    1.2459    1.5772 C   0  0  0  0  0  0  0  0  0  0  0  0
   -0.4213   -0.5485    3.4439 H   0  0  0  0  0  0  0  0  0  0  0  0
   -2.2847   -0.8588    1.1922 H   0  0  0  0  0  0  0  0  0  0  0  0
   -1.2523    1.9120    2.0241 H   0  0  0  0  0  0  0  0  0  0  0  0
   -2.1555    1.5466    0.5372 H   0  0  0  0  0  0  0  0  0  0  0  0
   -2.9424    1.3690    2.1175 H   0  0  0  0  0  0  0  0  0  0  0  0
   -0.2266   -0.4006   -0.5171 N   0  0  0  0  0  0  0  0  0  0  0  0
    0.9816   -0.5724   -1.3454 C   0  0  2  0  0  0  0  0  0  0  0  0
    2.0437    0.5177   -1.1071 C   0  0  0  0  0  0  0  0  0  0  0  0
    3.2295    0.2255   -1.0224 O   0  0  0  0  0  0  0  0  0  0  0  0
    0.5908   -0.5803   -2.8329 C   0  0  0  0  0  0  0  0  0  0  0  0
   -0.5117   -1.5752   -3.1139 C   0  0  0  0  0  0  0  0  0  0  0  0
   -0.2590   -2.9521   -3.0293 C   0  0  0  0  0  0  0  0  0  0  0  0
   -1.8020   -1.1377   -3.4527 C   0  0  0  0  0  0  0  0  0  0  0  0
   -1.2828   -3.8729   -3.2726 C   0  0  0  0  0  0  0  0  0  0  0  0
   -2.8229   -2.0649   -3.6937 C   0  0  0  0  0  0  0  0  0  0  0  0
   -2.5633   -3.4343   -3.6035 C   0  0  0  0  0  0  0  0  0  0  0  0
   -3.5491   -4.3483   -3.8385 O   0  0  0  0  0  0  0  0  0  0  0  0
   -1.1296   -0.5341   -0.9674 H   0  0  0  0  0  0  0  0  0  0  0  0
    1.4424   -1.5340   -1.0935 H   0  0  0  0  0  0  0  0  0  0  0  0
    1.4694   -0.8356   -3.4352 H   0  0  0  0  0  0  0  0  0  0  0  0
    0.2714    0.4225   -3.1357 H   0  0  0  0  0  0  0  0  0  0  0  0
    0.7329   -3.3138   -2.7731 H   0  0  0  0  0  0  0  0  0  0  0  0
   -2.0181   -0.0762   -3.5355 H   0  0  0  0  0  0  0  0  0  0  0  0
   -1.0892   -4.9389   -3.2074 H   0  0  0  0  0  0  0  0  0  0  0  0
   -3.8152   -1.7131   -3.9555 H   0  0  0  0  0  0  0  0  0  0  0  0
   -4.3783   -3.8990   -4.0642 H   0  0  0  0  0  0  0  0  0  0  0  0
    1.6649    1.8459   -1.0324 N   0  0  0  0  0  0  0  0  0  0  0  0
    2.5721    2.9077   -0.5764 C   0  0  2  0  0  0  0  0  0  0  0  0
    2.7491    2.8690    0.9602 C   0  0  0  0  0  0  0  0  0  0  0  0
    2.2764    3.7401    1.6819 O   0  0  0  0  0  0  0  0  0  0  0  0
    2.0177    4.2434   -1.0859 C   0  0  0  0  0  0  0  0  0  0  0  0
    0.6676    2.0073   -0.9322 H   0  0  0  0  0  0  0  0  0  0  0  0
    3.5629    2.7674   -1.0220 H   0  0  0  0  0  0  0  0  0  0  0  0
    1.0261    4.4378   -0.6648 H   0  0  0  0  0  0  0  0  0  0  0  0
    2.6827    5.0632   -0.7964 H   0  0  0  0  0  0  0  0  0  0  0  0
    1.9391    4.2311   -2.1771 H   0  0  0  0  0  0  0  0  0  0  0  0
    3.3883    1.7851    1.5284 N   0  0  0  0  0  0  0  0  0  0  0  0
    3.3897    1.5178    2.9595 C   0  0  0  0  0  0  0  0  0  0  0  0
    3.5893    1.0112    0.8900 H   0  0  0  0  0  0  0  0  0  0  0  0
    3.7808    2.3785    3.5118 H   0  0  0  0  0  0  0  0  0  0  0  0
    2.3742    1.3040    3.3089 H   0  0  0  0  0  0  0  0  0  0  0  0
    4.0225    0.6523    3.1784 H   0  0  0  0  0  0  0  0  0  0  0  0
  1  2  2  0  0  0  0
  1  3  1  0  0  0  0
  1  7  1  0  0  0  0
  3  4  1  0  0  0  0
  3  5  1  0  0  0  0
  3  6  1  0  0  0  0
  7  8  1  0  0  0  0
  7 12  1  0  0  0  0
  8  9  1  0  0  0  0
  8 11  1  0  0  0  0
  8 13  1  0  0  0  0
  9 10  2  0  0  0  0
  9 17  1  0  0  0  0
 11 14  1  0  0  0  0
 11 15  1  0  0  0  0
 11 16  1  0  0  0  0
 17 18  1  0  0  0  0
 17 29  1  0  0  0  0
 18 19  1  0  0  0  0
 18 21  1  0  0  0  0
 18 30  1  0  0  0  0
 19 20  2  0  0  0  0
 19 38  1  0  0  0  0
 21 22  1  0  0  0  0
 21 31  1  0  0  0  0
 21 32  1  0  0  0  0
 22 23  2  0  0  0  0
 22 24  1  0  0  0  0
 23 25  1  0  0  0  0
 23 33  1  0  0  0  0
 24 26  2  0  0  0  0
 24 34  1  0  0  0  0
 25 27  2  0  0  0  0
 25 35  1  0  0  0  0
 26 27  1  0  0  0  0
 26 36  1  0  0  0  0
 27 28  1  0  0  0  0
 28 37  1  0  0  0  0
 38 39  1  0  0  0  0
 38 43  1  0  0  0  0
 39 40  1  0  0  0  0
 39 42  1  0  0  0  0
 39 44  1  0  0  0  0
 40 41  2  0  0  0  0
 40 48  1  0  0  0  0
 42 45  1  0  0  0  0
 42 46  1  0  0  0  0
 42 47  1  0  0  0  0
 48 49  1  0  0  0  0
 48 50  1  0  0  0  0
 49 51  1  0  0  0  0
 49 52  1  0  0  0  0
 49 53  1  0  0  0  0
M  END
$$$$

  -OEChem-02062319143D

 53 53  0     1  0  0  0  0  0999 V2000
   -2.5450   -1.2053    3.8230 C   0  0  0  0  0  0  0  0  0  0  0  0
   -3.6725   -1.2639    3.3582 O   0  0  0  0  0  0  0  0  0  0  0  0
   -2.2743   -1.6900    5.2349 C   0  0  0  0  0  0  0  0  0  0  0  0
   -3.1945   -2.0730    5.6852 H   0  0  0  0  0  0  0  0  0  0  0  0
   -1.5304   -2.4904    5.2194 H   0  0  0  0  0  0  0  0  0  0  0  0
   -1.9000   -0.8654    5.8466 H   0  0  0  0  0  0  0  0  0  0  0  0
   -1.5136   -0.7004    3.0604 N   0  0  0  0  0  0  0  0  0  0  0  0
   -1.6366   -0.3135    1.6492 C   0  0  2  0  0  0  0  0  0  0  0  0
   -0.3064   -0.4923    0.8884 C   0  0  0  0  0  0  0  0  0  0  0  0
    0.7272   -0.7244    1.5033 O   0  0  0  0  0  0  0  0  0  0  0  0
   -2.0927    1.1481    1.5881 C   0  0  0  0  0  0  0  0  0  0  0  0
   -0.5698   -0.7695    3.4402 H   0  0  0  0  0  0  0  0  0  0  0  0
   -2.3830   -0.9471    1.1575 H   0  0  0  0  0  0  0  0  0  0  0  0
   -1.3590    1.7986    2.0752 H   0  0  0  0  0  0  0  0  0  0  0  0
   -2.2124    1.4720    0.5501 H   0  0  0  0  0  0  0  0  0  0  0  0
   -3.0543    1.2666    2.0977 H   0  0  0  0  0  0  0  0  0  0  0  0
   -0.2833   -0.4565   -0.4959 N   0  0  0  0  0  0  0  0  0  0  0  0
    0.8577   -0.9260   -1.3060 C   0  0  2  0  0  0  0  0  0  0  0  0
    2.1733   -0.1753   -1.0235 C   0  0  0  0  0  0  0  0  0  0  0  0
    3.2351   -0.7819   -0.9650 O   0  0  0  0  0  0  0  0  0  0  0  0
    0.5162   -0.7944   -2.8002 C   0  0  0  0  0  0  0  0  0  0  0  0
   -0.7968   -1.4668   -3.1304 C   0  0  0  0  0  0  0  0  0  0  0  0
   -0.8975   -2.8656   -3.1165 C   0  0  0  0  0  0  0  0  0  0  0  0
   -1.9336   -0.7040   -3.4428 C   0  0  0  0  0  0  0  0  0  0  0  0
   -2.1180   -3.4873   -3.3990 C   0  0  0  0  0  0  0  0  0  0  0  0
   -3.1523   -1.3329   -3.7247 C   0  0  0  0  0  0  0  0  0  0  0  0
   -3.2453   -2.7264   -3.7016 C   0  0  0  0  0  0  0  0  0  0  0  0
   -4.4267   -3.3531   -3.9744 O   0  0  0  0  0  0  0  0  0  0  0  0
   -1.1939   -0.4552   -0.9511 H   0  0  0  0  0  0  0  0  0  0  0  0
    1.0360   -1.9820   -1.0748 H   0  0  0  0  0  0  0  0  0  0  0  0
    1.3153   -1.2500   -3.3957 H   0  0  0  0  0  0  0  0  0  0  0  0
    0.4711    0.2643   -3.0762 H   0  0  0  0  0  0  0  0  0  0  0  0
   -0.0290   -3.4762   -2.8849 H   0  0  0  0  0  0  0  0  0  0  0  0
   -1.8756    0.3805   -3.4720 H   0  0  0  0  0  0  0  0  0  0  0  0
   -2.1992   -4.5696   -3.3869 H   0  0  0  0  0  0  0  0  0  0  0  0
   -4.0224   -0.7314   -3.9653 H   0  0  0  0  0  0  0  0  0  0  0  0
   -5.1171   -2.7020   -4.1739 H   0  0  0  0  0  0  0  0  0  0  0  0
    2.1722    1.2034   -0.9181 N   0  0  0  0  0  0  0  0  0  0  0  0
    3.3484    1.9805   -0.5030 C   0  0  2  0  0  0  0  0  0  0  0  0
    3.5831    1.8878    1.0240 C   0  0  0  0  0  0  0  0  0  0  0  0
    3.4675    2.8675    1.7520 O   0  0  0  0  0  0  0  0  0  0  0  0
    3.1451    3.4189   -0.9938 C   0  0  0  0  0  0  0  0  0  0  0  0
    1.2585    1.6283   -0.7923 H   0  0  0  0  0  0  0  0  0  0  0  0
    4.2449    1.5852   -0.9925 H   0  0  0  0  0  0  0  0  0  0  0  0
    2.2618    3.8653   -0.5262 H   0  0  0  0  0  0  0  0  0  0  0  0
    4.0166    4.0312   -0.7411 H   0  0  0  0  0  0  0  0  0  0  0  0
    3.0138    3.4360   -2.0799 H   0  0  0  0  0  0  0  0  0  0  0  0
    3.8763    0.6587    1.5796 N   0  0  0  0  0  0  0  0  0  0  0  0
    3.8824    0.4104    3.0136 C   0  0  0  0  0  0  0  0  0  0  0  0
    3.8011   -0.1400    0.9449 H   0  0  0  0  0  0  0  0  0  0  0  0
    4.6033    1.0648    3.5144 H   0  0  0  0  0  0  0  0  0  0  0  0
    2.8882    0.5896    3.4357 H   0  0  0  0  0  0  0  0  0  0  0  0
    4.1627   -0.6281    3.2130 H   0  0  0  0  0  0  0  0  0  0  0  0
  1  2  2  0  0  0  0
  1  3  1  0  0  0  0
  1  7  1  0  0  0  0
  3  4  1  0  0  0  0
  3  5  1  0  0  0  0
  3  6  1  0  0  0  0
  7  8  1  0  0  0  0
  7 12  1  0  0  0  0
  8  9  1  0  0  0  0
  8 11  1  0  0  0  0
  8 13  1  0  0  0  0
  9 10  2  0  0  0  0
  9 17  1  0  0  0  0
 11 14  1  0  0  0  0
 11 15  1  0  0  0  0
 11 16  1  0  0  0  0
 17 18  1  0  0  0  0
 17 29  1  0  0  0  0
 18 19  1  0  0  0  0
 18 21  1  0  0  0  0
 18 30  1  0  0  0  0
 19 20  2  0  0  0  0
 19 38  1  0  0  0  0
 21 22  1  0  0  0  0
 21 31  1  0  0  0  0
 21 32  1  0  0  0  0
 22 23  2  0  0  0  0
 22 24  1  0  0  0  0
 23 25  1  0  0  0  0
 23 33  1  0  0  0  0
 24 26  2  0  0  0  0
 24 34  1  0  0  0  0
 25 27  2  0  0  0  0
 25 35  1  0  0  0  0
 26 27  1  0  0  0  0
 26 36  1  0  0  0  0
 27 28  1  0  0  0  0
 28 37  1  0  0  0  0
 38 39  1  0  0  0  0
 38 43  1  0  0  0  0
 39 40  1  0  0  0  0
 39 42  1  0  0  0  0
 39 44  1  0  0  0  0
 40 41  2  0  0  0  0
 40 48  1  0  0  0  0
 42 45  1  0  0  0  0
 42 46  1  0  0  0  0
 42 47  1  0  0  0  0
 48 49  1  0  0  0  0
 48 50  1  0  0  0  0
 49 51  1  0  0  0  0
 49 52  1  0  0  0  0
 49 53  1  0  0  0  0
M  END
$$$$

  -OEChem-02062319143D

 53 53  0     1  0  0  0  0  0999 V2000
   -2.7923   -1.1913    3.7335 C   0  0  0  0  0  0  0  0  0  0  0  0
   -3.9021   -1.1888    3.2247 O   0  0  0  0  0  0  0  0  0  0  0  0
   -2.5974   -1.7274    5.1392 C   0  0  0  0  0  0  0  0  0  0  0  0
   -3.5545   -2.0571    5.5531 H   0  0  0  0  0  0  0  0  0  0  0  0
   -1.9090   -2.5759    5.1230 H   0  0  0  0  0  0  0  0  0  0  0  0
   -2.1863   -0.9458    5.7827 H   0  0  0  0  0  0  0  0  0  0  0  0
   -1.7113   -0.7088    3.0267 N   0  0  0  0  0  0  0  0  0  0  0  0
   -1.7619   -0.2896    1.6201 C   0  0  2  0  0  0  0  0  0  0  0  0
   -0.4085   -0.4970    0.9082 C   0  0  0  0  0  0  0  0  0  0  0  0
    0.5743   -0.8454    1.5505 O   0  0  0  0  0  0  0  0  0  0  0  0
   -2.1695    1.1865    1.5687 C   0  0  0  0  0  0  0  0  0  0  0  0
   -0.7866   -0.8419    3.4355 H   0  0  0  0  0  0  0  0  0  0  0  0
   -2.5074   -0.8891    1.0858 H   0  0  0  0  0  0  0  0  0  0  0  0
   -1.4321    1.8054    2.0902 H   0  0  0  0  0  0  0  0  0  0  0  0
   -2.2449    1.5306    0.5328 H   0  0  0  0  0  0  0  0  0  0  0  0
   -3.1434    1.3276    2.0487 H   0  0  0  0  0  0  0  0  0  0  0  0
   -0.3443   -0.4654   -0.4746 N   0  0  0  0  0  0  0  0  0  0  0  0
    0.6463   -1.2330   -1.2549 C   0  0  2  0  0  0  0  0  0  0  0  0
    2.1159   -0.8860   -0.9443 C   0  0  0  0  0  0  0  0  0  0  0  0
    2.9627   -1.7696   -0.9030 O   0  0  0  0  0  0  0  0  0  0  0  0
    0.3819   -1.0202   -2.7549 C   0  0  0  0  0  0  0  0  0  0  0  0
   -1.0601   -1.3108   -3.1060 C   0  0  0  0  0  0  0  0  0  0  0  0
   -1.5385   -2.6294   -3.0988 C   0  0  0  0  0  0  0  0  0  0  0  0
   -1.9434   -0.2669   -3.4246 C   0  0  0  0  0  0  0  0  0  0  0  0
   -2.8791   -2.8946   -3.3971 C   0  0  0  0  0  0  0  0  0  0  0  0
   -3.2842   -0.5396   -3.7219 C   0  0  0  0  0  0  0  0  0  0  0  0
   -3.7533   -1.8550   -3.7074 C   0  0  0  0  0  0  0  0  0  0  0  0
   -5.0578   -2.1355   -3.9942 O   0  0  0  0  0  0  0  0  0  0  0  0
   -1.2412   -0.3201   -0.9349 H   0  0  0  0  0  0  0  0  0  0  0  0
    0.5185   -2.2958   -1.0224 H   0  0  0  0  0  0  0  0  0  0  0  0
    1.0372   -1.6787   -3.3357 H   0  0  0  0  0  0  0  0  0  0  0  0
    0.6323    0.0097   -3.0306 H   0  0  0  0  0  0  0  0  0  0  0  0
   -0.8729   -3.4543   -2.8591 H   0  0  0  0  0  0  0  0  0  0  0  0
   -1.5926    0.7613   -3.4448 H   0  0  0  0  0  0  0  0  0  0  0  0
   -3.2526   -3.9138   -3.3914 H   0  0  0  0  0  0  0  0  0  0  0  0
   -3.9553    0.2769   -3.9669 H   0  0  0  0  0  0  0  0  0  0  0  0
   -5.5402   -1.3221   -4.2084 H   0  0  0  0  0  0  0  0  0  0  0  0
    2.5089    0.4351   -0.8335 N   0  0  0  0  0  0  0  0  0  0  0  0
    3.8708    0.8460   -0.4615 C   0  0  2  0  0  0  0  0  0  0  0  0
    4.1392    0.6639    1.0524 C   0  0  0  0  0  0  0  0  0  0  0  0
    4.3701    1.6209    1.7831 O   0  0  0  0  0  0  0  0  0  0  0  0
    4.0591    2.2928   -0.9346 C   0  0  0  0  0  0  0  0  0  0  0  0
    1.7559    1.0990   -0.6788 H   0  0  0  0  0  0  0  0  0  0  0  0
    4.5998    0.2255   -0.9938 H   0  0  0  0  0  0  0  0  0  0  0  0
    3.3572    2.9608   -0.4253 H   0  0  0  0  0  0  0  0  0  0  0  0
    5.0773    2.6315   -0.7181 H   0  0  0  0  0  0  0  0  0  0  0  0
    3.8932    2.3657   -2.0136 H   0  0  0  0  0  0  0  0  0  0  0  0
    4.0924   -0.6063    1.5909 N   0  0  0  0  0  0  0  0  0  0  0  0
    4.1256   -0.8730    3.0213 C   0  0  0  0  0  0  0  0  0  0  0  0
    3.7551   -1.3388    0.9617 H   0  0  0  0  0  0  0  0  0  0  0  0
    3.2334   -0.4631    3.5056 H   0  0  0  0  0  0  0  0  0  0  0  0
    4.1554   -1.9516    3.2014 H   0  0  0  0  0  0  0  0  0  0  0  0
    5.0142   -0.4237    3.4767 H   0  0  0  0  0  0  0  0  0  0  0  0
  1  2  2  0  0  0  0
  1  3  1  0  0  0  0
  1  7  1  0  0  0  0
  3  4  1  0  0  0  0
  3  5  1  0  0  0  0
  3  6  1  0  0  0  0
  7  8  1  0  0  0  0
  7 12  1  0  0  0  0
  8  9  1  0  0  0  0
  8 11  1  0  0  0  0
  8 13  1  0  0  0  0
  9 10  2  0  0  0  0
  9 17  1  0  0  0  0
 11 14  1  0  0  0  0
 11 15  1  0  0  0  0
 11 16  1  0  0  0  0
 17 18  1  0  0  0  0
 17 29  1  0  0  0  0
 18 19  1  0  0  0  0
 18 21  1  0  0  0  0
 18 30  1  0  0  0  0
 19 20  2  0  0  0  0
 19 38  1  0  0  0  0
 21 22  1  0  0  0  0
 21 31  1  0  0  0  0
 21 32  1  0  0  0  0
 22 23  2  0  0  0  0
 22 24  1  0  0  0  0
 23 25  1  0  0  0  0
 23 33  1  0  0  0  0
 24 26  2  0  0  0  0
 24 34  1  0  0  0  0
 25 27  2  0  0  0  0
 25 35  1  0  0  0  0
 26 27  1  0  0  0  0
 26 36  1  0  0  0  0
 27 28  1  0  0  0  0
 28 37  1  0  0  0  0
 38 39  1  0  0  0  0
 38 43  1  0  0  0  0
 39 40  1  0  0  0  0
 39 42  1  0  0  0  0
 39 44  1  0  0  0  0
 40 41  2  0  0  0  0
 40 48  1  0  0  0  0
 42 45  1  0  0  0  0
 42 46  1  0  0  0  0
 42 47  1  0  0  0  0
 48 49  1  0  0  0  0
 48 50  1  0  0  0  0
 49 51  1  0  0  0  0
 49 52  1  0  0  0  0
 49 53  1  0  0  0  0
M  END
$$$$

  -OEChem-02062319143D

 53 53  0     1  0  0  0  0  0999 V2000
   -2.9816   -1.1667    3.6584 C   0  0  0  0  0  0  0  0  0  0  0  0
   -4.0759   -1.1162    3.1195 O   0  0  0  0  0  0  0  0  0  0  0  0
   -2.8396   -1.7696    5.0431 C   0  0  0  0  0  0  0  0  0  0  0  0
   -3.8204   -2.0612    5.4291 H   0  0  0  0  0  0  0  0  0  0  0  0
   -2.2002   -2.6548    5.0007 H   0  0  0  0  0  0  0  0  0  0  0  0
   -2.3961   -1.0397    5.7248 H   0  0  0  0  0  0  0  0  0  0  0  0
   -1.8691   -0.6872    3.0004 N   0  0  0  0  0  0  0  0  0  0  0  0
   -1.8676   -0.2428    1.6007 C   0  0  2  0  0  0  0  0  0  0  0  0
   -0.4971   -0.4691    0.9284 C   0  0  0  0  0  0  0  0  0  0  0  0
    0.4396   -0.9019    1.5877 O   0  0  0  0  0  0  0  0  0  0  0  0
   -2.2490    1.2404    1.5569 C   0  0  0  0  0  0  0  0  0  0  0  0
   -0.9604   -0.8770    3.4226 H   0  0  0  0  0  0  0  0  0  0  0  0
   -2.6064   -0.8200    1.0336 H   0  0  0  0  0  0  0  0  0  0  0  0
   -1.5225    1.8391    2.1157 H   0  0  0  0  0  0  0  0  0  0  0  0
   -2.2798    1.6008    0.5243 H   0  0  0  0  0  0  0  0  0  0  0  0
   -3.2382    1.3903    2.0015 H   0  0  0  0  0  0  0  0  0  0  0  0
   -0.4035   -0.4503   -0.4523 N   0  0  0  0  0  0  0  0  0  0  0  0
    0.3657   -1.4599   -1.2066 C   0  0  2  0  0  0  0  0  0  0  0  0
    1.8693   -1.5298   -0.8725 C   0  0  0  0  0  0  0  0  0  0  0  0
    2.4404   -2.6126   -0.8383 O   0  0  0  0  0  0  0  0  0  0  0  0
    0.1939   -1.1980   -2.7128 C   0  0  0  0  0  0  0  0  0  0  0  0
   -1.2672   -1.1004   -3.0905 C   0  0  0  0  0  0  0  0  0  0  0  0
   -2.0762   -2.2460   -3.0908 C   0  0  0  0  0  0  0  0  0  0  0  0
   -1.8378    0.1379   -3.4249 C   0  0  0  0  0  0  0  0  0  0  0  0
   -3.4350   -2.1489   -3.4086 C   0  0  0  0  0  0  0  0  0  0  0  0
   -3.1979    0.2276   -3.7443 C   0  0  0  0  0  0  0  0  0  0  0  0
   -3.9985   -0.9167   -3.7342 C   0  0  0  0  0  0  0  0  0  0  0  0
   -5.3263   -0.8435   -4.0411 O   0  0  0  0  0  0  0  0  0  0  0  0
   -1.2602   -0.1499   -0.9144 H   0  0  0  0  0  0  0  0  0  0  0  0
   -0.0484   -2.4467   -0.9730 H   0  0  0  0  0  0  0  0  0  0  0  0
    0.6611   -2.0116   -3.2787 H   0  0  0  0  0  0  0  0  0  0  0  0
    0.7126   -0.2733   -2.9874 H   0  0  0  0  0  0  0  0  0  0  0  0
   -1.6545   -3.2162   -2.8423 H   0  0  0  0  0  0  0  0  0  0  0  0
   -1.2268    1.0363   -3.4400 H   0  0  0  0  0  0  0  0  0  0  0  0
   -4.0649   -3.0331   -3.4067 H   0  0  0  0  0  0  0  0  0  0  0  0
   -3.6248    1.1908   -4.0028 H   0  0  0  0  0  0  0  0  0  0  0  0
   -5.5719    0.0670   -4.2667 H   0  0  0  0  0  0  0  0  0  0  0  0
    2.6098   -0.3684   -0.7563 N   0  0  0  0  0  0  0  0  0  0  0  0
    4.0439   -0.3478   -0.4332 C   0  0  2  0  0  0  0  0  0  0  0  0
    4.3127   -0.6088    1.0687 C   0  0  0  0  0  0  0  0  0  0  0  0
    4.8616    0.2262    1.7791 O   0  0  0  0  0  0  0  0  0  0  0  0
    4.5996    0.9962   -0.9194 C   0  0  0  0  0  0  0  0  0  0  0  0
    2.0690    0.4716   -0.5704 H   0  0  0  0  0  0  0  0  0  0  0  0
    4.5565   -1.1389   -0.9907 H   0  0  0  0  0  0  0  0  0  0  0  0
    4.1239    1.8262   -0.3873 H   0  0  0  0  0  0  0  0  0  0  0  0
    5.6788    1.0461   -0.7430 H   0  0  0  0  0  0  0  0  0  0  0  0
    4.4195    1.1167   -1.9921 H   0  0  0  0  0  0  0  0  0  0  0  0
    3.9256   -1.8151    1.6173 N   0  0  0  0  0  0  0  0  0  0  0  0
    3.9903   -2.1103    3.0414 C   0  0  0  0  0  0  0  0  0  0  0  0
    3.3708   -2.4217    1.0089 H   0  0  0  0  0  0  0  0  0  0  0  0
    3.3305   -1.4385    3.6002 H   0  0  0  0  0  0  0  0  0  0  0  0
    3.6754   -3.1416    3.2277 H   0  0  0  0  0  0  0  0  0  0  0  0
    5.0139   -1.9911    3.4121 H   0  0  0  0  0  0  0  0  0  0  0  0
  1  2  2  0  0  0  0
  1  3  1  0  0  0  0
  1  7  1  0  0  0  0
  3  4  1  0  0  0  0
  3  5  1  0  0  0  0
  3  6  1  0  0  0  0
  7  8  1  0  0  0  0
  7 12  1  0  0  0  0
  8  9  1  0  0  0  0
  8 11  1  0  0  0  0
  8 13  1  0  0  0  0
  9 10  2  0  0  0  0
  9 17  1  0  0  0  0
 11 14  1  0  0  0  0
 11 15  1  0  0  0  0
 11 16  1  0  0  0  0
 17 18  1  0  0  0  0
 17 29  1  0  0  0  0
 18 19  1  0  0  0  0
 18 21  1  0  0  0  0
 18 30  1  0  0  0  0
 19 20  2  0  0  0  0
 19 38  1  0  0  0  0
 21 22  1  0  0  0  0
 21 31  1  0  0  0  0
 21 32  1  0  0  0  0
 22 23  2  0  0  0  0
 22 24  1  0  0  0  0
 23 25  1  0  0  0  0
 23 33  1  0  0  0  0
 24 26  2  0  0  0  0
 24 34  1  0  0  0  0
 25 27  2  0  0  0  0
 25 35  1  0  0  0  0
 26 27  1  0  0  0  0
 26 36  1  0  0  0  0
 27 28  1  0  0  0  0
 28 37  1  0  0  0  0
 38 39  1  0  0  0  0
 38 43  1  0  0  0  0
 39 40  1  0  0  0  0
 39 42  1  0  0  0  0
 39 44  1  0  0  0  0
 40 41  2  0  0  0  0
 40 48  1  0  0  0  0
 42 45  1  0  0  0  0
 42 46  1  0  0  0  0
 42 47  1  0  0  0  0
 48 49  1  0  0  0  0
 48 50  1  0  0  0  0
 49 51  1  0  0  0  0
 49 52  1  0  0  0  0
 49 53  1  0  0  0  0
M  END
$$$$

  -OEChem-02062319143D

 53 53  0     1  0  0  0  0  0999 V2000
   -2.1024   -1.7650    3.2524 C   0  0  0  0  0  0  0  0  0  0  0  0
   -2.3783   -2.5417    2.3515 O   0  0  0  0  0  0  0  0  0  0  0  0
   -1.7974   -2.2846    4.6444 C   0  0  0  0  0  0  0  0  0  0  0  0
   -1.8846   -3.3746    4.6676 H   0  0  0  0  0  0  0  0  0  0  0  0
   -0.7799   -2.0076    4.9315 H   0  0  0  0  0  0  0  0  0  0  0  0
   -2.5008   -1.8591    5.3642 H   0  0  0  0  0  0  0  0  0  0  0  0
   -2.0111   -0.4140    2.9872 N   0  0  0  0  0  0  0  0  0  0  0  0
   -2.0131    0.1034    1.6122 C   0  0  2  0  0  0  0  0  0  0  0  0
   -0.6785   -0.1962    0.9004 C   0  0  0  0  0  0  0  0  0  0  0  0
    0.3773    0.0927    1.4480 O   0  0  0  0  0  0  0  0  0  0  0  0
   -2.2861    1.6086    1.6729 C   0  0  0  0  0  0  0  0  0  0  0  0
   -1.5542    0.1476    3.7003 H   0  0  0  0  0  0  0  0  0  0  0  0
   -2.8163   -0.3710    1.0370 H   0  0  0  0  0  0  0  0  0  0  0  0
   -1.4980    2.1221    2.2331 H   0  0  0  0  0  0  0  0  0  0  0  0
   -2.3249    2.0283    0.6630 H   0  0  0  0  0  0  0  0  0  0  0  0
   -3.2456    1.7999    2.1631 H   0  0  0  0  0  0  0  0  0  0  0  0
   -0.5787   -0.1769   -0.4689 N   0  0  0  0  0  0  0  0  0  0  0  0
   -0.1654   -1.4295   -1.1276 C   0  0  2  0  0  0  0  0  0  0  0  0
    1.2202   -1.9565   -0.6976 C   0  0  0  0  0  0  0  0  0  0  0  0
    1.4004   -3.1642   -0.6118 O   0  0  0  0  0  0  0  0  0  0  0  0
   -0.1825   -1.2454   -2.6545 C   0  0  0  0  0  0  0  0  0  0  0  0
   -1.5543   -0.8541   -3.1552 C   0  0  0  0  0  0  0  0  0  0  0  0
   -2.5930   -1.7968   -3.1813 C   0  0  0  0  0  0  0  0  0  0  0  0
   -1.8100    0.4524   -3.5998 C   0  0  0  0  0  0  0  0  0  0  0  0
   -3.8642   -1.4346   -3.6398 C   0  0  0  0  0  0  0  0  0  0  0  0
   -3.0838    0.8086   -4.0594 C   0  0  0  0  0  0  0  0  0  0  0  0
   -4.1126   -0.1358   -4.0795 C   0  0  0  0  0  0  0  0  0  0  0  0
   -5.3577    0.1993   -4.5278 O   0  0  0  0  0  0  0  0  0  0  0  0
   -0.0170    0.6163   -0.7614 H   0  0  0  0  0  0  0  0  0  0  0  0
   -0.8909   -2.2090   -0.8666 H   0  0  0  0  0  0  0  0  0  0  0  0
    0.1155   -2.1839   -3.1355 H   0  0  0  0  0  0  0  0  0  0  0  0
    0.5529   -0.4871   -2.9431 H   0  0  0  0  0  0  0  0  0  0  0  0
   -2.4180   -2.8147   -2.8438 H   0  0  0  0  0  0  0  0  0  0  0  0
   -1.0193    1.1966   -3.5907 H   0  0  0  0  0  0  0  0  0  0  0  0
   -4.6684   -2.1631   -3.6585 H   0  0  0  0  0  0  0  0  0  0  0  0
   -3.2645    1.8221   -4.4001 H   0  0  0  0  0  0  0  0  0  0  0  0
   -5.3684    1.1201   -4.8308 H   0  0  0  0  0  0  0  0  0  0  0  0
    2.3067   -1.1073   -0.5889 N   0  0  0  0  0  0  0  0  0  0  0  0
    3.6469   -1.5726   -0.1963 C   0  0  2  0  0  0  0  0  0  0  0  0
    3.7472   -1.9013    1.3157 C   0  0  0  0  0  0  0  0  0  0  0  0
    4.5411   -1.3236    2.0495 O   0  0  0  0  0  0  0  0  0  0  0  0
    4.6424   -0.4923   -0.6371 C   0  0  0  0  0  0  0  0  0  0  0  0
    2.0644   -0.1544   -0.3262 H   0  0  0  0  0  0  0  0  0  0  0  0
    3.8899   -2.4917   -0.7402 H   0  0  0  0  0  0  0  0  0  0  0  0
    4.4461    0.4483   -0.1122 H   0  0  0  0  0  0  0  0  0  0  0  0
    5.6672   -0.8058   -0.4140 H   0  0  0  0  0  0  0  0  0  0  0  0
    4.5631   -0.3167   -1.7142 H   0  0  0  0  0  0  0  0  0  0  0  0
    2.9338   -2.8819    1.8493 N   0  0  0  0  0  0  0  0  0  0  0  0
    2.8891   -3.2248    3.2633 C   0  0  0  0  0  0  0  0  0  0  0  0
    2.2637   -3.3113    1.2064 H   0  0  0  0  0  0  0  0  0  0  0  0
    3.8702   -3.5715    3.6040 H   0  0  0  0  0  0  0  0  0  0  0  0
    2.5945   -2.3544    3.8587 H   0  0  0  0  0  0  0  0  0  0  0  0
    2.1613   -4.0240    3.4338 H   0  0  0  0  0  0  0  0  0  0  0  0
  1  2  2  0  0  0  0
  1  3  1  0  0  0  0
  1  7  1  0  0  0  0
  3  4  1  0  0  0  0
  3  5  1  0  0  0  0
  3  6  1  0  0  0  0
  7  8  1  0  0  0  0
  7 12  1  0  0  0  0
  8  9  1  0  0  0  0
  8 11  1  0  0  0  0
  8 13  1  0  0  0  0
  9 10  2  0  0  0  0
  9 17  1  0  0  0  0
 11 14  1  0  0  0  0
 11 15  1  0  0  0  0
 11 16  1  0  0  0  0
 17 18  1  0  0  0  0
 17 29  1  0  0  0  0
 18 19  1  0  0  0  0
 18 21  1  0  0  0  0
 18 30  1  0  0  0  0
 19 20  2  0  0  0  0
 19 38  1  0  0  0  0
 21 22  1  0  0  0  0
 21 31  1  0  0  0  0
 21 32  1  0  0  0  0
 22 23  2  0  0  0  0
 22 24  1  0  0  0  0
 23 25  1  0  0  0  0
 23 33  1  0  0  0  0
 24 26  2  0  0  0  0
 24 34  1  0  0  0  0
 25 27  2  0  0  0  0
 25 35  1  0  0  0  0
 26 27  1  0  0  0  0
 26 36  1  0  0  0  0
 27 28  1  0  0  0  0
 28 37  1  0  0  0  0
 38 39  1  0  0  0  0
 38 43  1  0  0  0  0
 39 40  1  0  0  0  0
 39 42  1  0  0  0  0
 39 44  1  0  0  0  0
 40 41  2  0  0  0  0
 40 48  1  0  0  0  0
 42 45  1  0  0  0  0
 42 46  1  0  0  0  0
 42 47  1  0  0  0  0
 48 49  1  0  0  0  0
 48 50  1  0  0  0  0
 49 51  1  0  0  0  0
 49 52  1  0  0  0  0
 49 53  1  0  0  0  0
M  END
$$$$

  -OEChem-02062319143D

 53 53  0     1  0  0  0  0  0999 V2000
   -2.0689   -1.8859    3.0691 C   0  0  0  0  0  0  0  0  0  0  0  0
   -2.3304   -2.5806    2.0994 O   0  0  0  0  0  0  0  0  0  0  0  0
   -1.7701   -2.5275    4.4103 C   0  0  0  0  0  0  0  0  0  0  0  0
   -1.8085   -3.6170    4.3243 H   0  0  0  0  0  0  0  0  0  0  0  0
   -0.7726   -2.2371    4.7487 H   0  0  0  0  0  0  0  0  0  0  0  0
   -2.5069   -2.2064    5.1503 H   0  0  0  0  0  0  0  0  0  0  0  0
   -1.9794   -0.5163    2.9240 N   0  0  0  0  0  0  0  0  0  0  0  0
   -1.9523    0.1102    1.5960 C   0  0  2  0  0  0  0  0  0  0  0  0
   -0.6264   -0.1959    0.8727 C   0  0  0  0  0  0  0  0  0  0  0  0
    0.4426    0.0378    1.4197 O   0  0  0  0  0  0  0  0  0  0  0  0
   -2.1554    1.6175    1.7690 C   0  0  0  0  0  0  0  0  0  0  0  0
   -1.5287   -0.0191    3.6870 H   0  0  0  0  0  0  0  0  0  0  0  0
   -2.7719   -0.2827    0.9838 H   0  0  0  0  0  0  0  0  0  0  0  0
   -1.3461    2.0509    2.3653 H   0  0  0  0  0  0  0  0  0  0  0  0
   -2.1705    2.1121    0.7928 H   0  0  0  0  0  0  0  0  0  0  0  0
   -3.1066    1.8169    2.2721 H   0  0  0  0  0  0  0  0  0  0  0  0
   -0.5139   -0.1559   -0.4927 N   0  0  0  0  0  0  0  0  0  0  0  0
   -0.4569   -1.4585   -1.1776 C   0  0  2  0  0  0  0  0  0  0  0  0
    0.7320   -2.3383   -0.7401 C   0  0  0  0  0  0  0  0  0  0  0  0
    0.5768   -3.5482   -0.6457 O   0  0  0  0  0  0  0  0  0  0  0  0
   -0.4089   -1.2500   -2.6995 C   0  0  0  0  0  0  0  0  0  0  0  0
   -1.6426   -0.5328   -3.1962 C   0  0  0  0  0  0  0  0  0  0  0  0
   -2.8691   -1.2095   -3.2732 C   0  0  0  0  0  0  0  0  0  0  0  0
   -1.5834    0.8154   -3.5811 C   0  0  0  0  0  0  0  0  0  0  0  0
   -4.0150   -0.5450   -3.7230 C   0  0  0  0  0  0  0  0  0  0  0  0
   -2.7330    1.4746   -4.0328 C   0  0  0  0  0  0  0  0  0  0  0  0
   -3.9507    0.7940   -4.1034 C   0  0  0  0  0  0  0  0  0  0  0  0
   -5.0781    1.4265   -4.5419 O   0  0  0  0  0  0  0  0  0  0  0  0
    0.2561    0.4537   -0.7495 H   0  0  0  0  0  0  0  0  0  0  0  0
   -1.3670   -2.0200   -0.9338 H   0  0  0  0  0  0  0  0  0  0  0  0
   -0.3409   -2.2241   -3.1964 H   0  0  0  0  0  0  0  0  0  0  0  0
    0.4898   -0.6858   -2.9691 H   0  0  0  0  0  0  0  0  0  0  0  0
   -2.9374   -2.2540   -2.9814 H   0  0  0  0  0  0  0  0  0  0  0  0
   -0.6438    1.3572   -3.5300 H   0  0  0  0  0  0  0  0  0  0  0  0
   -4.9650   -1.0665   -3.7814 H   0  0  0  0  0  0  0  0  0  0  0  0
   -2.6695    2.5164   -4.3275 H   0  0  0  0  0  0  0  0  0  0  0  0
   -4.8712    2.3379   -4.7992 H   0  0  0  0  0  0  0  0  0  0  0  0
    2.0053   -1.8146   -0.6027 N   0  0  0  0  0  0  0  0  0  0  0  0
    3.1405   -2.6174   -0.1177 C   0  0  2  0  0  0  0  0  0  0  0  0
    3.0586   -2.9053    1.4042 C   0  0  0  0  0  0  0  0  0  0  0  0
    3.9416   -2.5507    2.1766 O   0  0  0  0  0  0  0  0  0  0  0  0
    4.4222   -1.8751   -0.5152 C   0  0  0  0  0  0  0  0  0  0  0  0
    2.0320   -0.8197   -0.3907 H   0  0  0  0  0  0  0  0  0  0  0  0
    3.1473   -3.5875   -0.6261 H   0  0  0  0  0  0  0  0  0  0  0  0
    4.4734   -0.9019   -0.0165 H   0  0  0  0  0  0  0  0  0  0  0  0
    5.3029   -2.4580   -0.2269 H   0  0  0  0  0  0  0  0  0  0  0  0
    4.4523   -1.7173   -1.5976 H   0  0  0  0  0  0  0  0  0  0  0  0
    1.9692   -3.5914    1.9050 N   0  0  0  0  0  0  0  0  0  0  0  0
    1.7575   -3.8734    3.3167 C   0  0  0  0  0  0  0  0  0  0  0  0
    1.2491   -3.8540    1.2269 H   0  0  0  0  0  0  0  0  0  0  0  0
    2.5735   -4.4881    3.7105 H   0  0  0  0  0  0  0  0  0  0  0  0
    1.7080   -2.9415    3.8892 H   0  0  0  0  0  0  0  0  0  0  0  0
    0.8172   -4.4158    3.4546 H   0  0  0  0  0  0  0  0  0  0  0  0
  1  2  2  0  0  0  0
  1  3  1  0  0  0  0
  1  7  1  0  0  0  0
  3  4  1  0  0  0  0
  3  5  1  0  0  0  0
  3  6  1  0  0  0  0
  7  8  1  0  0  0  0
  7 12  1  0  0  0  0
  8  9  1  0  0  0  0
  8 11  1  0  0  0  0
  8 13  1  0  0  0  0
  9 10  2  0  0  0  0
  9 17  1  0  0  0  0
 11 14  1  0  0  0  0
 11 15  1  0  0  0  0
 11 16  1  0  0  0  0
 17 18  1  0  0  0  0
 17 29  1  0  0  0  0
 18 19  1  0  0  0  0
 18 21  1  0  0  0  0
 18 30  1  0  0  0  0
 19 20  2  0  0  0  0
 19 38  1  0  0  0  0
 21 22  1  0  0  0  0
 21 31  1  0  0  0  0
 21 32  1  0  0  0  0
 22 23  2  0  0  0  0
 22 24  1  0  0  0  0
 23 25  1  0  0  0  0
 23 33  1  0  0  0  0
 24 26  2  0  0  0  0
 24 34  1  0  0  0  0
 25 27  2  0  0  0  0
 25 35  1  0  0  0  0
 26 27  1  0  0  0  0
 26 36  1  0  0  0  0
 27 28  1  0  0  0  0
 28 37  1  0  0  0  0
 38 39  1  0  0  0  0
 38 43  1  0  0  0  0
 39 40  1  0  0  0  0
 39 42  1  0  0  0  0
 39 44  1  0  0  0  0
 40 41  2  0  0  0  0
 40 48  1  0  0  0  0
 42 45  1  0  0  0  0
 42 46  1  0  0  0  0
 42 47  1  0  0  0  0
 48 49  1  0  0  0  0
 48 50  1  0  0  0  0
 49 51  1  0  0  0  0
 49 52  1  0  0  0  0
 49 53  1  0  0  0  0
M  END
$$$$

  -OEChem-02062319143D

 53 53  0     1  0  0  0  0  0999 V2000
   -2.1223   -1.8530    3.2112 C   0  0  0  0  0  0  0  0  0  0  0  0
   -2.3182   -2.6474    2.3045 O   0  0  0  0  0  0  0  0  0  0  0  0
   -1.8806   -2.3478    4.6246 C   0  0  0  0  0  0  0  0  0  0  0  0
   -2.0204   -3.4310    4.6743 H   0  0  0  0  0  0  0  0  0  0  0  0
   -0.8596   -2.1091    4.9330 H   0  0  0  0  0  0  0  0  0  0  0  0
   -2.5831   -1.8723    5.3131 H   0  0  0  0  0  0  0  0  0  0  0  0
   -2.0762   -0.5011    2.9384 N   0  0  0  0  0  0  0  0  0  0  0  0
   -2.0392    0.0068    1.5605 C   0  0  2  0  0  0  0  0  0  0  0  0
   -0.6790   -0.2759    0.8904 C   0  0  0  0  0  0  0  0  0  0  0  0
    0.3671   -0.0574    1.4843 O   0  0  0  0  0  0  0  0  0  0  0  0
   -2.3297    1.5088    1.5976 C   0  0  0  0  0  0  0  0  0  0  0  0
   -1.6780    0.0840    3.6674 H   0  0  0  0  0  0  0  0  0  0  0  0
   -2.8194   -0.4822    0.9665 H   0  0  0  0  0  0  0  0  0  0  0  0
   -1.5580    2.0373    2.1665 H   0  0  0  0  0  0  0  0  0  0  0  0
   -2.3522    1.9150    0.5814 H   0  0  0  0  0  0  0  0  0  0  0  0
   -3.3010    1.6963    2.0658 H   0  0  0  0  0  0  0  0  0  0  0  0
   -0.5037   -0.2156   -0.4677 N   0  0  0  0  0  0  0  0  0  0  0  0
   -0.7344   -1.4492   -1.2357 C   0  0  2  0  0  0  0  0  0  0  0  0
    0.1868   -2.6103   -0.8128 C   0  0  0  0  0  0  0  0  0  0  0  0
   -0.2546   -3.7507   -0.8096 O   0  0  0  0  0  0  0  0  0  0  0  0
   -0.5616   -1.1733   -2.7379 C   0  0  0  0  0  0  0  0  0  0  0  0
   -1.5736   -0.1644   -3.2288 C   0  0  0  0  0  0  0  0  0  0  0  0
   -2.9020   -0.5529   -3.4569 C   0  0  0  0  0  0  0  0  0  0  0  0
   -1.2056    1.1705   -3.4566 C   0  0  0  0  0  0  0  0  0  0  0  0
   -3.8441    0.3811   -3.9012 C   0  0  0  0  0  0  0  0  0  0  0  0
   -2.1524    2.1005   -3.9027 C   0  0  0  0  0  0  0  0  0  0  0  0
   -3.4736    1.7057   -4.1247 C   0  0  0  0  0  0  0  0  0  0  0  0
   -4.4055    2.6029   -4.5604 O   0  0  0  0  0  0  0  0  0  0  0  0
    0.3833    0.2329   -0.6760 H   0  0  0  0  0  0  0  0  0  0  0  0
   -1.7634   -1.7852   -1.0628 H   0  0  0  0  0  0  0  0  0  0  0  0
   -0.6918   -2.1074   -3.2955 H   0  0  0  0  0  0  0  0  0  0  0  0
    0.4543   -0.8174   -2.9377 H   0  0  0  0  0  0  0  0  0  0  0  0
   -3.2082   -1.5819   -3.2894 H   0  0  0  0  0  0  0  0  0  0  0  0
   -0.1822    1.4911   -3.2866 H   0  0  0  0  0  0  0  0  0  0  0  0
   -4.8723    0.0824   -4.0779 H   0  0  0  0  0  0  0  0  0  0  0  0
   -1.8514    3.1283   -4.0738 H   0  0  0  0  0  0  0  0  0  0  0  0
   -3.9924    3.4665   -4.7139 H   0  0  0  0  0  0  0  0  0  0  0  0
    1.5398   -2.4160   -0.5990 N   0  0  0  0  0  0  0  0  0  0  0  0
    2.4341   -3.4933   -0.1424 C   0  0  2  0  0  0  0  0  0  0  0  0
    2.2263   -3.8548    1.3518 C   0  0  0  0  0  0  0  0  0  0  0  0
    3.1498   -3.8179    2.1569 O   0  0  0  0  0  0  0  0  0  0  0  0
    3.8686   -3.0491   -0.4530 C   0  0  0  0  0  0  0  0  0  0  0  0
    1.8098   -1.4642   -0.3627 H   0  0  0  0  0  0  0  0  0  0  0  0
    2.2349   -4.4025   -0.7196 H   0  0  0  0  0  0  0  0  0  0  0  0
    4.1219   -2.1462    0.1118 H   0  0  0  0  0  0  0  0  0  0  0  0
    4.5776   -3.8376   -0.1810 H   0  0  0  0  0  0  0  0  0  0  0  0
    3.9804   -2.8395   -1.5211 H   0  0  0  0  0  0  0  0  0  0  0  0
    0.9768   -4.2505    1.7878 N   0  0  0  0  0  0  0  0  0  0  0  0
    0.6687   -4.6311    3.1574 C   0  0  0  0  0  0  0  0  0  0  0  0
    0.2327   -4.2720    1.0852 H   0  0  0  0  0  0  0  0  0  0  0  0
    1.2530   -5.5092    3.4506 H   0  0  0  0  0  0  0  0  0  0  0  0
    0.8960   -3.8090    3.8434 H   0  0  0  0  0  0  0  0  0  0  0  0
   -0.3940   -4.8754    3.2474 H   0  0  0  0  0  0  0  0  0  0  0  0
  1  2  2  0  0  0  0
  1  3  1  0  0  0  0
  1  7  1  0  0  0  0
  3  4  1  0  0  0  0
  3  5  1  0  0  0  0
  3  6  1  0  0  0  0
  7  8  1  0  0  0  0
  7 12  1  0  0  0  0
  8  9  1  0  0  0  0
  8 11  1  0  0  0  0
  8 13  1  0  0  0  0
  9 10  2  0  0  0  0
  9 17  1  0  0  0  0
 11 14  1  0  0  0  0
 11 15  1  0  0  0  0
 11 16  1  0  0  0  0
 17 18  1  0  0  0  0
 17 29  1  0  0  0  0
 18 19  1  0  0  0  0
 18 21  1  0  0  0  0
 18 30  1  0  0  0  0
 19 20  2  0  0  0  0
 19 38  1  0  0  0  0
 21 22  1  0  0  0  0
 21 31  1  0  0  0  0
 21 32  1  0  0  0  0
 22 23  2  0  0  0  0
 22 24  1  0  0  0  0
 23 25  1  0  0  0  0
 23 33  1  0  0  0  0
 24 26  2  0  0  0  0
 24 34  1  0  0  0  0
 25 27  2  0  0  0  0
 25 35  1  0  0  0  0
 26 27  1  0  0  0  0
 26 36  1  0  0  0  0
 27 28  1  0  0  0  0
 28 37  1  0  0  0  0
 38 39  1  0  0  0  0
 38 43  1  0  0  0  0
 39 40  1  0  0  0  0
 39 42  1  0  0  0  0
 39 44  1  0  0  0  0
 40 41  2  0  0  0  0
 40 48  1  0  0  0  0
 42 45  1  0  0  0  0
 42 46  1  0  0  0  0
 42 47  1  0  0  0  0
 48 49  1  0  0  0  0
 48 50  1  0  0  0  0
 49 51  1  0  0  0  0
 49 52  1  0  0  0  0
 49 53  1  0  0  0  0
M  END
$$$$

  -OEChem-02062319143D

 53 53  0     1  0  0  0  0  0999 V2000
   -2.3500   -1.7039    3.2315 C   0  0  0  0  0  0  0  0  0  0  0  0
   -2.6290   -2.5007    2.3492 O   0  0  0  0  0  0  0  0  0  0  0  0
   -2.1424   -2.1824    4.6559 C   0  0  0  0  0  0  0  0  0  0  0  0
   -2.4889   -3.2142    4.7613 H   0  0  0  0  0  0  0  0  0  0  0  0
   -1.0806   -2.1378    4.9109 H   0  0  0  0  0  0  0  0  0  0  0  0
   -2.7038   -1.5522    5.3498 H   0  0  0  0  0  0  0  0  0  0  0  0
   -2.1771   -0.3707    2.9208 N   0  0  0  0  0  0  0  0  0  0  0  0
   -2.0933    0.0938    1.5301 C   0  0  2  0  0  0  0  0  0  0  0  0
   -0.7175   -0.2294    0.9105 C   0  0  0  0  0  0  0  0  0  0  0  0
    0.3148   -0.0427    1.5377 O   0  0  0  0  0  0  0  0  0  0  0  0
   -2.3589    1.6010    1.5113 C   0  0  0  0  0  0  0  0  0  0  0  0
   -1.7208    0.1935    3.6321 H   0  0  0  0  0  0  0  0  0  0  0  0
   -2.8665   -0.3971    0.9294 H   0  0  0  0  0  0  0  0  0  0  0  0
   -1.5914    2.1349    2.0808 H   0  0  0  0  0  0  0  0  0  0  0  0
   -2.3509    1.9747    0.4823 H   0  0  0  0  0  0  0  0  0  0  0  0
   -3.3374    1.8199    1.9499 H   0  0  0  0  0  0  0  0  0  0  0  0
   -0.5037   -0.2425   -0.4439 N   0  0  0  0  0  0  0  0  0  0  0  0
   -1.0160   -1.3710   -1.2365 C   0  0  2  0  0  0  0  0  0  0  0  0
   -0.4380   -2.7320   -0.8032 C   0  0  0  0  0  0  0  0  0  0  0  0
   -1.1470   -3.7266   -0.8494 O   0  0  0  0  0  0  0  0  0  0  0  0
   -0.7264   -1.1353   -2.7273 C   0  0  0  0  0  0  0  0  0  0  0  0
   -1.4370    0.0995   -3.2307 C   0  0  0  0  0  0  0  0  0  0  0  0
   -2.8078    0.0535   -3.5251 C   0  0  0  0  0  0  0  0  0  0  0  0
   -0.7439    1.3074   -3.4024 C   0  0  0  0  0  0  0  0  0  0  0  0
   -3.4710    1.1983   -3.9797 C   0  0  0  0  0  0  0  0  0  0  0  0
   -1.4130    2.4500   -3.8574 C   0  0  0  0  0  0  0  0  0  0  0  0
   -2.7785    2.3961   -4.1454 C   0  0  0  0  0  0  0  0  0  0  0  0
   -3.4413    3.5034   -4.5896 O   0  0  0  0  0  0  0  0  0  0  0  0
    0.4554    0.0214   -0.6499 H   0  0  0  0  0  0  0  0  0  0  0  0
   -2.1018   -1.4345   -1.1048 H   0  0  0  0  0  0  0  0  0  0  0  0
   -1.0661   -2.0026   -3.3046 H   0  0  0  0  0  0  0  0  0  0  0  0
    0.3528   -1.0424   -2.8879 H   0  0  0  0  0  0  0  0  0  0  0  0
   -3.3639   -0.8718   -3.4019 H   0  0  0  0  0  0  0  0  0  0  0  0
    0.3176    1.3638   -3.1804 H   0  0  0  0  0  0  0  0  0  0  0  0
   -4.5313    1.1650   -4.2089 H   0  0  0  0  0  0  0  0  0  0  0  0
   -0.8621    3.3756   -3.9839 H   0  0  0  0  0  0  0  0  0  0  0  0
   -2.8255    4.2463   -4.6842 H   0  0  0  0  0  0  0  0  0  0  0  0
    0.9126   -2.8850   -0.5478 N   0  0  0  0  0  0  0  0  0  0  0  0
    1.5233   -4.1719   -0.1787 C   0  0  2  0  0  0  0  0  0  0  0  0
    1.2277   -4.5831    1.2867 C   0  0  0  0  0  0  0  0  0  0  0  0
    2.1319   -4.8152    2.0811 O   0  0  0  0  0  0  0  0  0  0  0  0
    3.0240   -4.0560   -0.4749 C   0  0  0  0  0  0  0  0  0  0  0  0
    1.4221   -2.0381   -0.3090 H   0  0  0  0  0  0  0  0  0  0  0  0
    1.1186   -4.9640   -0.8177 H   0  0  0  0  0  0  0  0  0  0  0  0
    3.4827   -3.2873    0.1557 H   0  0  0  0  0  0  0  0  0  0  0  0
    3.5243   -5.0094   -0.2769 H   0  0  0  0  0  0  0  0  0  0  0  0
    3.1880   -3.7931   -1.5243 H   0  0  0  0  0  0  0  0  0  0  0  0
   -0.0806   -4.7116    1.7107 N   0  0  0  0  0  0  0  0  0  0  0  0
   -0.4681   -5.1045    3.0573 C   0  0  0  0  0  0  0  0  0  0  0  0
   -0.8106   -4.4791    1.0315 H   0  0  0  0  0  0  0  0  0  0  0  0
   -0.0664   -6.0940    3.2978 H   0  0  0  0  0  0  0  0  0  0  0  0
   -0.0923   -4.3825    3.7889 H   0  0  0  0  0  0  0  0  0  0  0  0
   -1.5587   -5.1452    3.1369 H   0  0  0  0  0  0  0  0  0  0  0  0
  1  2  2  0  0  0  0
  1  3  1  0  0  0  0
  1  7  1  0  0  0  0
  3  4  1  0  0  0  0
  3  5  1  0  0  0  0
  3  6  1  0  0  0  0
  7  8  1  0  0  0  0
  7 12  1  0  0  0  0
  8  9  1  0  0  0  0
  8 11  1  0  0  0  0
  8 13  1  0  0  0  0
  9 10  2  0  0  0  0
  9 17  1  0  0  0  0
 11 14  1  0  0  0  0
 11 15  1  0  0  0  0
 11 16  1  0  0  0  0
 17 18  1  0  0  0  0
 17 29  1  0  0  0  0
 18 19  1  0  0  0  0
 18 21  1  0  0  0  0
 18 30  1  0  0  0  0
 19 20  2  0  0  0  0
 19 38  1  0  0  0  0
 21 22  1  0  0  0  0
 21 31  1  0  0  0  0
 21 32  1  0  0  0  0
 22 23  2  0  0  0  0
 22 24  1  0  0  0  0
 23 25  1  0  0  0  0
 23 33  1  0  0  0  0
 24 26  2  0  0  0  0
 24 34  1  0  0  0  0
 25 27  2  0  0  0  0
 25 35  1  0  0  0  0
 26 27  1  0  0  0  0
 26 36  1  0  0  0  0
 27 28  1  0  0  0  0
 28 37  1  0  0  0  0
 38 39  1  0  0  0  0
 38 43  1  0  0  0  0
 39 40  1  0  0  0  0
 39 42  1  0  0  0  0
 39 44  1  0  0  0  0
 40 41  2  0  0  0  0
 40 48  1  0  0  0  0
 42 45  1  0  0  0  0
 42 46  1  0  0  0  0
 42 47  1  0  0  0  0
 48 49  1  0  0  0  0
 48 50  1  0  0  0  0
 49 51  1  0  0  0  0
 49 52  1  0  0  0  0
 49 53  1  0  0  0  0
M  END
$$$$

  -OEChem-02062319143D

 53 53  0     1  0  0  0  0  0999 V2000
   -2.6916   -1.3754    3.5952 C   0  0  0  0  0  0  0  0  0  0  0  0
   -3.4674   -2.1004    2.9936 O   0  0  0  0  0  0  0  0  0  0  0  0
   -2.3690   -1.6563    5.0508 C   0  0  0  0  0  0  0  0  0  0  0  0
   -2.8913   -2.5569    5.3859 H   0  0  0  0  0  0  0  0  0  0  0  0
   -1.2936   -1.8084    5.1717 H   0  0  0  0  0  0  0  0  0  0  0  0
   -2.6838   -0.8145    5.6721 H   0  0  0  0  0  0  0  0  0  0  0  0
   -2.0832   -0.3162    2.9542 N   0  0  0  0  0  0  0  0  0  0  0  0
   -2.0957   -0.1336    1.4950 C   0  0  2  0  0  0  0  0  0  0  0  0
   -0.7129   -0.4394    0.8805 C   0  0  0  0  0  0  0  0  0  0  0  0
    0.3093   -0.3319    1.5418 O   0  0  0  0  0  0  0  0  0  0  0  0
   -2.5122    1.3104    1.2046 C   0  0  0  0  0  0  0  0  0  0  0  0
   -1.3059    0.1091    3.4555 H   0  0  0  0  0  0  0  0  0  0  0  0
   -2.8248   -0.8033    1.0275 H   0  0  0  0  0  0  0  0  0  0  0  0
   -1.7894    2.0130    1.6315 H   0  0  0  0  0  0  0  0  0  0  0  0
   -2.5692    1.4830    0.1249 H   0  0  0  0  0  0  0  0  0  0  0  0
   -3.4963    1.5138    1.6381 H   0  0  0  0  0  0  0  0  0  0  0  0
   -0.4725   -0.4153   -0.4716 N   0  0  0  0  0  0  0  0  0  0  0  0
   -1.2108   -1.3010   -1.3848 C   0  0  2  0  0  0  0  0  0  0  0  0
   -1.0053   -2.7937   -1.0671 C   0  0  0  0  0  0  0  0  0  0  0  0
   -1.9672   -3.5479   -1.0750 O   0  0  0  0  0  0  0  0  0  0  0  0
   -0.7967   -1.0061   -2.8353 C   0  0  0  0  0  0  0  0  0  0  0  0
   -1.1881    0.4002   -3.2260 C   0  0  0  0  0  0  0  0  0  0  0  0
   -2.5122    0.6874   -3.5900 C   0  0  0  0  0  0  0  0  0  0  0  0
   -0.2453    1.4401   -3.2112 C   0  0  0  0  0  0  0  0  0  0  0  0
   -2.8845    1.9934   -3.9253 C   0  0  0  0  0  0  0  0  0  0  0  0
   -0.6241    2.7452   -3.5480 C   0  0  0  0  0  0  0  0  0  0  0  0
   -1.9456    3.0228   -3.9039 C   0  0  0  0  0  0  0  0  0  0  0  0
   -2.3280    4.2913   -4.2318 O   0  0  0  0  0  0  0  0  0  0  0  0
    0.5168   -0.2905   -0.6668 H   0  0  0  0  0  0  0  0  0  0  0  0
   -2.2837   -1.1001   -1.2915 H   0  0  0  0  0  0  0  0  0  0  0  0
   -1.2909   -1.7154   -3.5085 H   0  0  0  0  0  0  0  0  0  0  0  0
    0.2828   -1.1453   -2.9539 H   0  0  0  0  0  0  0  0  0  0  0  0
   -3.2591   -0.1014   -3.6106 H   0  0  0  0  0  0  0  0  0  0  0  0
    0.7850    1.2405   -2.9327 H   0  0  0  0  0  0  0  0  0  0  0  0
   -3.9084    2.2188   -4.2057 H   0  0  0  0  0  0  0  0  0  0  0  0
    0.1156    3.5381   -3.5282 H   0  0  0  0  0  0  0  0  0  0  0  0
   -1.5668    4.8907   -4.1943 H   0  0  0  0  0  0  0  0  0  0  0  0
    0.2519   -3.3014   -0.7945 N   0  0  0  0  0  0  0  0  0  0  0  0
    0.4836   -4.6905   -0.3691 C   0  0  2  0  0  0  0  0  0  0  0  0
    0.0881   -4.9264    1.1101 C   0  0  0  0  0  0  0  0  0  0  0  0
    0.9202   -5.2291    1.9570 O   0  0  0  0  0  0  0  0  0  0  0  0
    1.9560   -5.0149   -0.6510 C   0  0  0  0  0  0  0  0  0  0  0  0
    0.9796   -2.6214   -0.5912 H   0  0  0  0  0  0  0  0  0  0  0  0
   -0.1278   -5.3669   -0.9764 H   0  0  0  0  0  0  0  0  0  0  0  0
    2.6132   -4.3673   -0.0616 H   0  0  0  0  0  0  0  0  0  0  0  0
    2.1707   -6.0557   -0.3882 H   0  0  0  0  0  0  0  0  0  0  0  0
    2.1831   -4.8736   -1.7120 H   0  0  0  0  0  0  0  0  0  0  0  0
   -1.2320   -4.7789    1.4869 N   0  0  0  0  0  0  0  0  0  0  0  0
   -1.7124   -4.9283    2.8531 C   0  0  0  0  0  0  0  0  0  0  0  0
   -1.8829   -4.4665    0.7621 H   0  0  0  0  0  0  0  0  0  0  0  0
   -1.2553   -4.1755    3.5029 H   0  0  0  0  0  0  0  0  0  0  0  0
   -2.7990   -4.8023    2.8864 H   0  0  0  0  0  0  0  0  0  0  0  0
   -1.4686   -5.9235    3.2386 H   0  0  0  0  0  0  0  0  0  0  0  0
  1  2  2  0  0  0  0
  1  3  1  0  0  0  0
  1  7  1  0  0  0  0
  3  4  1  0  0  0  0
  3  5  1  0  0  0  0
  3  6  1  0  0  0  0
  7  8  1  0  0  0  0
  7 12  1  0  0  0  0
  8  9  1  0  0  0  0
  8 11  1  0  0  0  0
  8 13  1  0  0  0  0
  9 10  2  0  0  0  0
  9 17  1  0  0  0  0
 11 14  1  0  0  0  0
 11 15  1  0  0  0  0
 11 16  1  0  0  0  0
 17 18  1  0  0  0  0
 17 29  1  0  0  0  0
 18 19  1  0  0  0  0
 18 21  1  0  0  0  0
 18 30  1  0  0  0  0
 19 20  2  0  0  0  0
 19 38  1  0  0  0  0
 21 22  1  0  0  0  0
 21 31  1  0  0  0  0
 21 32  1  0  0  0  0
 22 23  2  0  0  0  0
 22 24  1  0  0  0  0
 23 25  1  0  0  0  0
 23 33  1  0  0  0  0
 24 26  2  0  0  0  0
 24 34  1  0  0  0  0
 25 27  2  0  0  0  0
 25 35  1  0  0  0  0
 26 27  1  0  0  0  0
 26 36  1  0  0  0  0
 27 28  1  0  0  0  0
 28 37  1  0  0  0  0
 38 39  1  0  0  0  0
 38 43  1  0  0  0  0
 39 40  1  0  0  0  0
 39 42  1  0  0  0  0
 39 44  1  0  0  0  0
 40 41  2  0  0  0  0
 40 48  1  0  0  0  0
 42 45  1  0  0  0  0
 42 46  1  0  0  0  0
 42 47  1  0  0  0  0
 48 49  1  0  0  0  0
 48 50  1  0  0  0  0
 49 51  1  0  0  0  0
 49 52  1  0  0  0  0
 49 53  1  0  0  0  0
M  END
$$$$

  -OEChem-02062319143D

 53 53  0     1  0  0  0  0  0999 V2000
   -2.9011   -0.9681    3.7721 C   0  0  0  0  0  0  0  0  0  0  0  0
   -3.9920   -1.2381    3.2959 O   0  0  0  0  0  0  0  0  0  0  0  0
   -2.6138   -1.2660    5.2316 C   0  0  0  0  0  0  0  0  0  0  0  0
   -2.2963   -0.3543    5.7438 H   0  0  0  0  0  0  0  0  0  0  0  0
   -3.5125   -1.6504    5.7223 H   0  0  0  0  0  0  0  0  0  0  0  0
   -1.8217   -2.0149    5.3106 H   0  0  0  0  0  0  0  0  0  0  0  0
   -1.9181   -0.4128    2.9816 N   0  0  0  0  0  0  0  0  0  0  0  0
   -2.0174   -0.2470    1.5252 C   0  0  2  0  0  0  0  0  0  0  0  0
   -0.6689   -0.5601    0.8402 C   0  0  0  0  0  0  0  0  0  0  0  0
    0.3735   -0.5946    1.4775 O   0  0  0  0  0  0  0  0  0  0  0  0
   -2.4616    1.1898    1.2360 C   0  0  0  0  0  0  0  0  0  0  0  0
   -0.9862   -0.3401    3.3881 H   0  0  0  0  0  0  0  0  0  0  0  0
   -2.7609   -0.9420    1.1196 H   0  0  0  0  0  0  0  0  0  0  0  0
   -1.7280    1.9034    1.6238 H   0  0  0  0  0  0  0  0  0  0  0  0
   -2.5690    1.3519    0.1591 H   0  0  0  0  0  0  0  0  0  0  0  0
   -3.4270    1.3886    1.7121 H   0  0  0  0  0  0  0  0  0  0  0  0
   -0.4708   -0.5332   -0.5203 N   0  0  0  0  0  0  0  0  0  0  0  0
   -1.4238   -1.1357   -1.4649 C   0  0  2  0  0  0  0  0  0  0  0  0
   -1.6092   -2.6444   -1.2291 C   0  0  0  0  0  0  0  0  0  0  0  0
   -2.7395   -3.1090   -1.1916 O   0  0  0  0  0  0  0  0  0  0  0  0
   -0.9588   -0.8824   -2.9076 C   0  0  0  0  0  0  0  0  0  0  0  0
   -0.9798    0.5946   -3.2230 C   0  0  0  0  0  0  0  0  0  0  0  0
   -2.1905    1.2275   -3.5417 C   0  0  0  0  0  0  0  0  0  0  0  0
    0.1978    1.3572   -3.1838 C   0  0  0  0  0  0  0  0  0  0  0  0
   -2.2206    2.6002   -3.8088 C   0  0  0  0  0  0  0  0  0  0  0  0
    0.1612    2.7308   -3.4517 C   0  0  0  0  0  0  0  0  0  0  0  0
   -1.0493    3.3538   -3.7632 C   0  0  0  0  0  0  0  0  0  0  0  0
   -1.0977    4.6931   -4.0218 O   0  0  0  0  0  0  0  0  0  0  0  0
    0.5142   -0.5537   -0.7689 H   0  0  0  0  0  0  0  0  0  0  0  0
   -2.4053   -0.6658   -1.3374 H   0  0  0  0  0  0  0  0  0  0  0  0
   -1.6247   -1.4051   -3.6033 H   0  0  0  0  0  0  0  0  0  0  0  0
    0.0472   -1.2880   -3.0559 H   0  0  0  0  0  0  0  0  0  0  0  0
   -3.1144    0.6570   -3.5798 H   0  0  0  0  0  0  0  0  0  0  0  0
    1.1465    0.8888   -2.9398 H   0  0  0  0  0  0  0  0  0  0  0  0
   -3.1567    3.0925   -4.0526 H   0  0  0  0  0  0  0  0  0  0  0  0
    1.0795    3.3069   -3.4134 H   0  0  0  0  0  0  0  0  0  0  0  0
   -0.2114    5.0800   -3.9511 H   0  0  0  0  0  0  0  0  0  0  0  0
   -0.5258   -3.4758   -1.0123 N   0  0  0  0  0  0  0  0  0  0  0  0
   -0.6665   -4.8695   -0.5619 C   0  0  2  0  0  0  0  0  0  0  0  0
   -1.0684   -4.9653    0.9324 C   0  0  0  0  0  0  0  0  0  0  0  0
   -0.3206   -5.4546    1.7700 O   0  0  0  0  0  0  0  0  0  0  0  0
    0.6540   -5.5855   -0.8721 C   0  0  0  0  0  0  0  0  0  0  0  0
    0.3681   -3.0194   -0.8499 H   0  0  0  0  0  0  0  0  0  0  0  0
   -1.4555   -5.3636   -1.1392 H   0  0  0  0  0  0  0  0  0  0  0  0
    1.4795   -5.1329   -0.3131 H   0  0  0  0  0  0  0  0  0  0  0  0
    0.5863   -6.6421   -0.5931 H   0  0  0  0  0  0  0  0  0  0  0  0
    0.8790   -5.5253   -1.9413 H   0  0  0  0  0  0  0  0  0  0  0  0
   -2.2905   -4.4635    1.3358 N   0  0  0  0  0  0  0  0  0  0  0  0
   -2.7666   -4.4708    2.7119 C   0  0  0  0  0  0  0  0  0  0  0  0
   -2.8715   -4.0371    0.6097 H   0  0  0  0  0  0  0  0  0  0  0  0
   -3.7513   -3.9965    2.7734 H   0  0  0  0  0  0  0  0  0  0  0  0
   -2.8541   -5.4979    3.0805 H   0  0  0  0  0  0  0  0  0  0  0  0
   -2.0760   -3.9206    3.3588 H   0  0  0  0  0  0  0  0  0  0  0  0
  1  2  2  0  0  0  0
  1  3  1  0  0  0  0
  1  7  1  0  0  0  0
  3  4  1  0  0  0  0
  3  5  1  0  0  0  0
  3  6  1  0  0  0  0
  7  8  1  0  0  0  0
  7 12  1  0  0  0  0
  8  9  1  0  0  0  0
  8 11  1  0  0  0  0
  8 13  1  0  0  0  0
  9 10  2  0  0  0  0
  9 17  1  0  0  0  0
 11 14  1  0  0  0  0
 11 15  1  0  0  0  0
 11 16  1  0  0  0  0
 17 18  1  0  0  0  0
 17 29  1  0  0  0  0
 18 19  1  0  0  0  0
 18 21  1  0  0  0  0
 18 30  1  0  0  0  0
 19 20  2  0  0  0  0
 19 38  1  0  0  0  0
 21 22  1  0  0  0  0
 21 31  1  0  0  0  0
 21 32  1  0  0  0  0
 22 23  2  0  0  0  0
 22 24  1  0  0  0  0
 23 25  1  0  0  0  0
 23 33  1  0  0  0  0
 24 26  2  0  0  0  0
 24 34  1  0  0  0  0
 25 27  2  0  0  0  0
 25 35  1  0  0  0  0
 26 27  1  0  0  0  0
 26 36  1  0  0  0  0
 27 28  1  0  0  0  0
 28 37  1  0  0  0  0
 38 39  1  0  0  0  0
 38 43  1  0  0  0  0
 39 40  1  0  0  0  0
 39 42  1  0  0  0  0
 39 44  1  0  0  0  0
 40 41  2  0  0  0  0
 40 48  1  0  0  0  0
 42 45  1  0  0  0  0
 42 46  1  0  0  0  0
 42 47  1  0  0  0  0
 48 49  1  0  0  0  0
 48 50  1  0  0  0  0
 49 51  1  0  0  0  0
 49 52  1  0  0  0  0
 49 53  1  0  0  0  0
M  END
$$$$

  -OEChem-02062319143D

 53 53  0     1  0  0  0  0  0999 V2000
   -3.3075   -0.7660    3.6642 C   0  0  0  0  0  0  0  0  0  0  0  0
   -4.3934   -0.8962    3.1220 O   0  0  0  0  0  0  0  0  0  0  0  0
   -3.1363   -1.1387    5.1247 C   0  0  0  0  0  0  0  0  0  0  0  0
   -2.8265   -0.2628    5.6997 H   0  0  0  0  0  0  0  0  0  0  0  0
   -4.0802   -1.5119    5.5316 H   0  0  0  0  0  0  0  0  0  0  0  0
   -2.3773   -1.9186    5.2250 H   0  0  0  0  0  0  0  0  0  0  0  0
   -2.2272   -0.3025    2.9447 N   0  0  0  0  0  0  0  0  0  0  0  0
   -2.2360   -0.0589    1.4968 C   0  0  2  0  0  0  0  0  0  0  0  0
   -0.8381   -0.3059    0.8864 C   0  0  0  0  0  0  0  0  0  0  0  0
    0.1680   -0.2990    1.5805 O   0  0  0  0  0  0  0  0  0  0  0  0
   -2.6846    1.3851    1.2501 C   0  0  0  0  0  0  0  0  0  0  0  0
   -1.3194   -0.3049    3.4086 H   0  0  0  0  0  0  0  0  0  0  0  0
   -2.9417   -0.7438    1.0151 H   0  0  0  0  0  0  0  0  0  0  0  0
   -1.9961    2.0876    1.7302 H   0  0  0  0  0  0  0  0  0  0  0  0
   -2.7120    1.6032    0.1784 H   0  0  0  0  0  0  0  0  0  0  0  0
   -3.6873    1.5449    1.6590 H   0  0  0  0  0  0  0  0  0  0  0  0
   -0.5800   -0.3899   -0.4630 N   0  0  0  0  0  0  0  0  0  0  0  0
   -1.5427   -0.8768   -1.4629 C   0  0  2  0  0  0  0  0  0  0  0  0
   -1.9864   -2.3264   -1.1977 C   0  0  0  0  0  0  0  0  0  0  0  0
   -3.1713   -2.6183   -1.2700 O   0  0  0  0  0  0  0  0  0  0  0  0
   -0.9292   -0.7764   -2.8688 C   0  0  0  0  0  0  0  0  0  0  0  0
   -0.6155    0.6573   -3.2270 C   0  0  0  0  0  0  0  0  0  0  0  0
   -1.6501    1.5403   -3.5712 C   0  0  0  0  0  0  0  0  0  0  0  0
    0.7064    1.1291   -3.2163 C   0  0  0  0  0  0  0  0  0  0  0  0
   -1.3652    2.8718   -3.8919 C   0  0  0  0  0  0  0  0  0  0  0  0
    0.9852    2.4627   -3.5395 C   0  0  0  0  0  0  0  0  0  0  0  0
   -0.0515    3.3359   -3.8768 C   0  0  0  0  0  0  0  0  0  0  0  0
    0.2075    4.6383   -4.1930 O   0  0  0  0  0  0  0  0  0  0  0  0
    0.4106   -0.4154   -0.6894 H   0  0  0  0  0  0  0  0  0  0  0  0
   -2.4404   -0.2502   -1.4350 H   0  0  0  0  0  0  0  0  0  0  0  0
   -1.6359   -1.1793   -3.6029 H   0  0  0  0  0  0  0  0  0  0  0  0
   -0.0216   -1.3866   -2.9249 H   0  0  0  0  0  0  0  0  0  0  0  0
   -2.6809    1.1977   -3.5901 H   0  0  0  0  0  0  0  0  0  0  0  0
    1.5245    0.4638   -2.9566 H   0  0  0  0  0  0  0  0  0  0  0  0
   -2.1644    3.5569   -4.1565 H   0  0  0  0  0  0  0  0  0  0  0  0
    2.0120    2.8119   -3.5257 H   0  0  0  0  0  0  0  0  0  0  0  0
    1.1603    4.8120   -4.1459 H   0  0  0  0  0  0  0  0  0  0  0  0
   -1.0644   -3.3023   -0.8687 N   0  0  0  0  0  0  0  0  0  0  0  0
   -1.4312   -4.6760   -0.4920 C   0  0  2  0  0  0  0  0  0  0  0  0
   -2.0245   -4.7636    0.9371 C   0  0  0  0  0  0  0  0  0  0  0  0
   -1.4561   -5.3757    1.8331 O   0  0  0  0  0  0  0  0  0  0  0  0
   -0.1787   -5.5431   -0.6698 C   0  0  0  0  0  0  0  0  0  0  0  0
   -0.1233   -2.9846   -0.6516 H   0  0  0  0  0  0  0  0  0  0  0  0
   -2.1968   -5.0514   -1.1799 H   0  0  0  0  0  0  0  0  0  0  0  0
    0.6197   -5.2095    0.0010 H   0  0  0  0  0  0  0  0  0  0  0  0
   -0.4067   -6.5893   -0.4414 H   0  0  0  0  0  0  0  0  0  0  0  0
    0.1824   -5.4862   -1.7013 H   0  0  0  0  0  0  0  0  0  0  0  0
   -3.2214   -4.1322    1.2110 N   0  0  0  0  0  0  0  0  0  0  0  0
   -3.8872   -4.1649    2.5054 C   0  0  0  0  0  0  0  0  0  0  0  0
   -3.6425   -3.5975    0.4473 H   0  0  0  0  0  0  0  0  0  0  0  0
   -4.1538   -5.1924    2.7732 H   0  0  0  0  0  0  0  0  0  0  0  0
   -3.2342   -3.7557    3.2823 H   0  0  0  0  0  0  0  0  0  0  0  0
   -4.8035   -3.5675    2.4725 H   0  0  0  0  0  0  0  0  0  0  0  0
  1  2  2  0  0  0  0
  1  3  1  0  0  0  0
  1  7  1  0  0  0  0
  3  4  1  0  0  0  0
  3  5  1  0  0  0  0
  3  6  1  0  0  0  0
  7  8  1  0  0  0  0
  7 12  1  0  0  0  0
  8  9  1  0  0  0  0
  8 11  1  0  0  0  0
  8 13  1  0  0  0  0
  9 10  2  0  0  0  0
  9 17  1  0  0  0  0
 11 14  1  0  0  0  0
 11 15  1  0  0  0  0
 11 16  1  0  0  0  0
 17 18  1  0  0  0  0
 17 29  1  0  0  0  0
 18 19  1  0  0  0  0
 18 21  1  0  0  0  0
 18 30  1  0  0  0  0
 19 20  2  0  0  0  0
 19 38  1  0  0  0  0
 21 22  1  0  0  0  0
 21 31  1  0  0  0  0
 21 32  1  0  0  0  0
 22 23  2  0  0  0  0
 22 24  1  0  0  0  0
 23 25  1  0  0  0  0
 23 33  1  0  0  0  0
 24 26  2  0  0  0  0
 24 34  1  0  0  0  0
 25 27  2  0  0  0  0
 25 35  1  0  0  0  0
 26 27  1  0  0  0  0
 26 36  1  0  0  0  0
 27 28  1  0  0  0  0
 28 37  1  0  0  0  0
 38 39  1  0  0  0  0
 38 43  1  0  0  0  0
 39 40  1  0  0  0  0
 39 42  1  0  0  0  0
 39 44  1  0  0  0  0
 40 41  2  0  0  0  0
 40 48  1  0  0  0  0
 42 45  1  0  0  0  0
 42 46  1  0  0  0  0
 42 47  1  0  0  0  0
 48 49  1  0  0  0  0
 48 50  1  0  0  0  0
 49 51  1  0  0  0  0
 49 52  1  0  0  0  0
 49 53  1  0  0  0  0
M  END
$$$$

  -OEChem-02062319143D

 53 53  0     1  0  0  0  0  0999 V2000
   -2.2572   -1.2750    3.3272 C   0  0  0  0  0  0  0  0  0  0  0  0
   -2.1574   -2.0968    2.4300 O   0  0  0  0  0  0  0  0  0  0  0  0
   -2.2081   -1.7155    4.7774 C   0  0  0  0  0  0  0  0  0  0  0  0
   -3.0929   -1.3564    5.3083 H   0  0  0  0  0  0  0  0  0  0  0  0
   -2.1824   -2.8076    4.8367 H   0  0  0  0  0  0  0  0  0  0  0  0
   -1.3130   -1.3152    5.2595 H   0  0  0  0  0  0  0  0  0  0  0  0
   -2.3823    0.0620    3.0053 N   0  0  0  0  0  0  0  0  0  0  0  0
   -2.2560    0.5364    1.6199 C   0  0  2  0  0  0  0  0  0  0  0  0
   -0.8704    0.2037    1.0138 C   0  0  0  0  0  0  0  0  0  0  0  0
    0.1577    0.3809    1.6510 O   0  0  0  0  0  0  0  0  0  0  0  0
   -2.4901    2.0481    1.6044 C   0  0  0  0  0  0  0  0  0  0  0  0
   -2.2285    0.7247    3.7591 H   0  0  0  0  0  0  0  0  0  0  0  0
   -3.0335    0.0585    1.0173 H   0  0  0  0  0  0  0  0  0  0  0  0
   -1.7304    2.5609    2.2034 H   0  0  0  0  0  0  0  0  0  0  0  0
   -2.4380    2.4292    0.5794 H   0  0  0  0  0  0  0  0  0  0  0  0
   -3.4778    2.2856    2.0116 H   0  0  0  0  0  0  0  0  0  0  0  0
   -0.6521   -0.1115   -0.3077 N   0  0  0  0  0  0  0  0  0  0  0  0
   -1.6623   -0.4889   -1.3095 C   0  0  2  0  0  0  0  0  0  0  0  0
   -2.4859   -1.7538   -0.9882 C   0  0  0  0  0  0  0  0  0  0  0  0
   -3.6553   -1.7903   -1.3483 O   0  0  0  0  0  0  0  0  0  0  0  0
   -0.9668   -0.6875   -2.6675 C   0  0  0  0  0  0  0  0  0  0  0  0
   -0.3391    0.5972   -3.1554 C   0  0  0  0  0  0  0  0  0  0  0  0
   -1.1337    1.5830   -3.7594 C   0  0  0  0  0  0  0  0  0  0  0  0
    1.0378    0.8268   -3.0090 C   0  0  0  0  0  0  0  0  0  0  0  0
   -0.5598    2.7801   -4.2001 C   0  0  0  0  0  0  0  0  0  0  0  0
    1.6060    2.0277   -3.4506 C   0  0  0  0  0  0  0  0  0  0  0  0
    0.8065    3.0062   -4.0455 C   0  0  0  0  0  0  0  0  0  0  0  0
    1.3497    4.1810   -4.4789 O   0  0  0  0  0  0  0  0  0  0  0  0
    0.3301   -0.1603   -0.5643 H   0  0  0  0  0  0  0  0  0  0  0  0
   -2.3756    0.3362   -1.4087 H   0  0  0  0  0  0  0  0  0  0  0  0
   -1.7002   -1.0264   -3.4078 H   0  0  0  0  0  0  0  0  0  0  0  0
   -0.2068   -1.4716   -2.5847 H   0  0  0  0  0  0  0  0  0  0  0  0
   -2.2004    1.4231   -3.8897 H   0  0  0  0  0  0  0  0  0  0  0  0
    1.6737    0.0745   -2.5515 H   0  0  0  0  0  0  0  0  0  0  0  0
   -1.1718    3.5444   -4.6683 H   0  0  0  0  0  0  0  0  0  0  0  0
    2.6713    2.1905   -3.3278 H   0  0  0  0  0  0  0  0  0  0  0  0
    2.3030    4.1927   -4.3025 H   0  0  0  0  0  0  0  0  0  0  0  0
   -1.8899   -2.9070   -0.5151 N   0  0  0  0  0  0  0  0  0  0  0  0
   -2.5631   -4.2160   -0.4317 C   0  0  2  0  0  0  0  0  0  0  0  0
   -3.5848   -4.3431    0.7293 C   0  0  0  0  0  0  0  0  0  0  0  0
   -3.5402   -5.2713    1.5304 O   0  0  0  0  0  0  0  0  0  0  0  0
   -1.4531   -5.2720   -0.3538 C   0  0  0  0  0  0  0  0  0  0  0  0
   -1.0626   -2.7687    0.0623 H   0  0  0  0  0  0  0  0  0  0  0  0
   -3.1227   -4.3876   -1.3570 H   0  0  0  0  0  0  0  0  0  0  0  0
   -0.8736   -5.1510    0.5675 H   0  0  0  0  0  0  0  0  0  0  0  0
   -1.8836   -6.2785   -0.3619 H   0  0  0  0  0  0  0  0  0  0  0  0
   -0.7772   -5.1804   -1.2093 H   0  0  0  0  0  0  0  0  0  0  0  0
   -4.6350   -3.4493    0.8062 N   0  0  0  0  0  0  0  0  0  0  0  0
   -5.5901   -3.4168    1.9032 C   0  0  0  0  0  0  0  0  0  0  0  0
   -4.6128   -2.6799    0.1340 H   0  0  0  0  0  0  0  0  0  0  0  0
   -6.1346   -4.3646    1.9650 H   0  0  0  0  0  0  0  0  0  0  0  0
   -5.0725   -3.2432    2.8523 H   0  0  0  0  0  0  0  0  0  0  0  0
   -6.3141   -2.6113    1.7490 H   0  0  0  0  0  0  0  0  0  0  0  0
  1  2  2  0  0  0  0
  1  3  1  0  0  0  0
  1  7  1  0  0  0  0
  3  4  1  0  0  0  0
  3  5  1  0  0  0  0
  3  6  1  0  0  0  0
  7  8  1  0  0  0  0
  7 12  1  0  0  0  0
  8  9  1  0  0  0  0
  8 11  1  0  0  0  0
  8 13  1  0  0  0  0
  9 10  2  0  0  0  0
  9 17  1  0  0  0  0
 11 14  1  0  0  0  0
 11 15  1  0  0  0  0
 11 16  1  0  0  0  0
 17 18  1  0  0  0  0
 17 29  1  0  0  0  0
 18 19  1  0  0  0  0
 18 21  1  0  0  0  0
 18 30  1  0  0  0  0
 19 20  2  0  0  0  0
 19 38  1  0  0  0  0
 21 22  1  0  0  0  0
 21 31  1  0  0  0  0
 21 32  1  0  0  0  0
 22 23  2  0  0  0  0
 22 24  1  0  0  0  0
 23 25  1  0  0  0  0
 23 33  1  0  0  0  0
 24 26  2  0  0  0  0
 24 34  1  0  0  0  0
 25 27  2  0  0  0  0
 25 35  1  0  0  0  0
 26 27  1  0  0  0  0
 26 36  1  0  0  0  0
 27 28  1  0  0  0  0
 28 37  1  0  0  0  0
 38 39  1  0  0  0  0
 38 43  1  0  0  0  0
 39 40  1  0  0  0  0
 39 42  1  0  0  0  0
 39 44  1  0  0  0  0
 40 41  2  0  0  0  0
 40 48  1  0  0  0  0
 42 45  1  0  0  0  0
 42 46  1  0  0  0  0
 42 47  1  0  0  0  0
 48 49  1  0  0  0  0
 48 50  1  0  0  0  0
 49 51  1  0  0  0  0
 49 52  1  0  0  0  0
 49 53  1  0  0  0  0
M  END
$$$$

  -OEChem-02062319143D

 53 53  0     1  0  0  0  0  0999 V2000
   -2.1812   -1.4189    3.0349 C   0  0  0  0  0  0  0  0  0  0  0  0
   -1.7530   -2.0949    2.1112 O   0  0  0  0  0  0  0  0  0  0  0  0
   -2.4461   -2.0636    4.3813 C   0  0  0  0  0  0  0  0  0  0  0  0
   -2.2892   -3.1444    4.3167 H   0  0  0  0  0  0  0  0  0  0  0  0
   -1.7692   -1.6515    5.1334 H   0  0  0  0  0  0  0  0  0  0  0  0
   -3.4790   -1.8799    4.6866 H   0  0  0  0  0  0  0  0  0  0  0  0
   -2.4313   -0.0698    2.8560 N   0  0  0  0  0  0  0  0  0  0  0  0
   -2.2413    0.6485    1.5842 C   0  0  2  0  0  0  0  0  0  0  0  0
   -0.8647    0.3674    0.9275 C   0  0  0  0  0  0  0  0  0  0  0  0
    0.1775    0.6013    1.5217 O   0  0  0  0  0  0  0  0  0  0  0  0
   -2.3909    2.1463    1.8617 C   0  0  0  0  0  0  0  0  0  0  0  0
   -2.6889    0.4620    3.6814 H   0  0  0  0  0  0  0  0  0  0  0  0
   -3.0360    0.3486    0.8988 H   0  0  0  0  0  0  0  0  0  0  0  0
   -1.6279    2.4842    2.5709 H   0  0  0  0  0  0  0  0  0  0  0  0
   -2.2777    2.7165    0.9342 H   0  0  0  0  0  0  0  0  0  0  0  0
   -3.3786    2.3610    2.2808 H   0  0  0  0  0  0  0  0  0  0  0  0
   -0.6768   -0.0057   -0.3855 N   0  0  0  0  0  0  0  0  0  0  0  0
   -1.7006   -0.2099   -1.4242 C   0  0  2  0  0  0  0  0  0  0  0  0
   -2.7627   -1.2907   -1.1367 C   0  0  0  0  0  0  0  0  0  0  0  0
   -3.9182   -1.0635   -1.4743 O   0  0  0  0  0  0  0  0  0  0  0  0
   -0.9959   -0.5690   -2.7442 C   0  0  0  0  0  0  0  0  0  0  0  0
   -0.0578    0.5310   -3.1831 C   0  0  0  0  0  0  0  0  0  0  0  0
   -0.5638    1.6850   -3.7994 C   0  0  0  0  0  0  0  0  0  0  0  0
    1.3255    0.4215   -2.9714 C   0  0  0  0  0  0  0  0  0  0  0  0
    0.3006    2.7139   -4.1878 C   0  0  0  0  0  0  0  0  0  0  0  0
    2.1849    1.4559   -3.3602 C   0  0  0  0  0  0  0  0  0  0  0  0
    1.6723    2.6041   -3.9678 C   0  0  0  0  0  0  0  0  0  0  0  0
    2.5009    3.6194   -4.3491 O   0  0  0  0  0  0  0  0  0  0  0  0
    0.2976    0.0224   -0.6755 H   0  0  0  0  0  0  0  0  0  0  0  0
   -2.2365    0.7345   -1.5657 H   0  0  0  0  0  0  0  0  0  0  0  0
   -1.7456   -0.7320   -3.5265 H   0  0  0  0  0  0  0  0  0  0  0  0
   -0.4443   -1.5078   -2.6254 H   0  0  0  0  0  0  0  0  0  0  0  0
   -1.6303    1.7880   -3.9778 H   0  0  0  0  0  0  0  0  0  0  0  0
    1.7399   -0.4662   -2.5017 H   0  0  0  0  0  0  0  0  0  0  0  0
   -0.0879    3.6085   -4.6636 H   0  0  0  0  0  0  0  0  0  0  0  0
    3.2510    1.3577   -3.1852 H   0  0  0  0  0  0  0  0  0  0  0  0
    3.4177    3.4068   -4.1154 H   0  0  0  0  0  0  0  0  0  0  0  0
   -2.4429   -2.5352   -0.6295 N   0  0  0  0  0  0  0  0  0  0  0  0
   -3.4446   -3.5870   -0.3734 C   0  0  2  0  0  0  0  0  0  0  0  0
   -4.3511   -3.3070    0.8572 C   0  0  0  0  0  0  0  0  0  0  0  0
   -4.5095   -4.1282    1.7542 O   0  0  0  0  0  0  0  0  0  0  0  0
   -2.6720   -4.9046   -0.2400 C   0  0  0  0  0  0  0  0  0  0  0  0
   -1.6216   -2.5424   -0.0198 H   0  0  0  0  0  0  0  0  0  0  0  0
   -4.1057   -3.6721   -1.2417 H   0  0  0  0  0  0  0  0  0  0  0  0
   -2.0098   -4.8725    0.6315 H   0  0  0  0  0  0  0  0  0  0  0  0
   -3.3655   -5.7424   -0.1173 H   0  0  0  0  0  0  0  0  0  0  0  0
   -2.0676   -5.0854   -1.1336 H   0  0  0  0  0  0  0  0  0  0  0  0
   -5.0627   -2.1240    0.9234 N   0  0  0  0  0  0  0  0  0  0  0  0
   -6.0335   -1.8107    1.9616 C   0  0  0  0  0  0  0  0  0  0  0  0
   -4.9862   -1.5155    0.1051 H   0  0  0  0  0  0  0  0  0  0  0  0
   -6.8759   -2.5087    1.9196 H   0  0  0  0  0  0  0  0  0  0  0  0
   -5.5704   -1.8753    2.9515 H   0  0  0  0  0  0  0  0  0  0  0  0
   -6.4163   -0.7951    1.8252 H   0  0  0  0  0  0  0  0  0  0  0  0
  1  2  2  0  0  0  0
  1  3  1  0  0  0  0
  1  7  1  0  0  0  0
  3  4  1  0  0  0  0
  3  5  1  0  0  0  0
  3  6  1  0  0  0  0
  7  8  1  0  0  0  0
  7 12  1  0  0  0  0
  8  9  1  0  0  0  0
  8 11  1  0  0  0  0
  8 13  1  0  0  0  0
  9 10  2  0  0  0  0
  9 17  1  0  0  0  0
 11 14  1  0  0  0  0
 11 15  1  0  0  0  0
 11 16  1  0  0  0  0
 17 18  1  0  0  0  0
 17 29  1  0  0  0  0
 18 19  1  0  0  0  0
 18 21  1  0  0  0  0
 18 30  1  0  0  0  0
 19 20  2  0  0  0  0
 19 38  1  0  0  0  0
 21 22  1  0  0  0  0
 21 31  1  0  0  0  0
 21 32  1  0  0  0  0
 22 23  2  0  0  0  0
 22 24  1  0  0  0  0
 23 25  1  0  0  0  0
 23 33  1  0  0  0  0
 24 26  2  0  0  0  0
 24 34  1  0  0  0  0
 25 27  2  0  0  0  0
 25 35  1  0  0  0  0
 26 27  1  0  0  0  0
 26 36  1  0  0  0  0
 27 28  1  0  0  0  0
 28 37  1  0  0  0  0
 38 39  1  0  0  0  0
 38 43  1  0  0  0  0
 39 40  1  0  0  0  0
 39 42  1  0  0  0  0
 39 44  1  0  0  0  0
 40 41  2  0  0  0  0
 40 48  1  0  0  0  0
 42 45  1  0  0  0  0
 42 46  1  0  0  0  0
 42 47  1  0  0  0  0
 48 49  1  0  0  0  0
 48 50  1  0  0  0  0
 49 51  1  0  0  0  0
 49 52  1  0  0  0  0
 49 53  1  0  0  0  0
M  END
$$$$

  -OEChem-02062319143D

 53 53  0     1  0  0  0  0  0999 V2000
   -2.2453   -1.4000    2.8596 C   0  0  0  0  0  0  0  0  0  0  0  0
   -1.8108   -2.0091    1.8922 O   0  0  0  0  0  0  0  0  0  0  0  0
   -2.5733   -2.1511    4.1351 C   0  0  0  0  0  0  0  0  0  0  0  0
   -2.3699   -3.2178    4.0059 H   0  0  0  0  0  0  0  0  0  0  0  0
   -1.9665   -1.7728    4.9609 H   0  0  0  0  0  0  0  0  0  0  0  0
   -3.6317   -2.0267    4.3776 H   0  0  0  0  0  0  0  0  0  0  0  0
   -2.4450   -0.0317    2.7999 N   0  0  0  0  0  0  0  0  0  0  0  0
   -2.2106    0.8081    1.6115 C   0  0  2  0  0  0  0  0  0  0  0  0
   -0.8462    0.5324    0.9249 C   0  0  0  0  0  0  0  0  0  0  0  0
    0.2056    0.7243    1.5175 O   0  0  0  0  0  0  0  0  0  0  0  0
   -2.2847    2.2700    2.0601 C   0  0  0  0  0  0  0  0  0  0  0  0
   -2.7455    0.4191    3.6580 H   0  0  0  0  0  0  0  0  0  0  0  0
   -3.0178    0.6372    0.8999 H   0  0  0  0  0  0  0  0  0  0  0  0
   -1.5126    2.4838    2.8068 H   0  0  0  0  0  0  0  0  0  0  0  0
   -2.1333    2.9373    1.2059 H   0  0  0  0  0  0  0  0  0  0  0  0
   -3.2639    2.4866    2.4978 H   0  0  0  0  0  0  0  0  0  0  0  0
   -0.6700    0.0910   -0.3703 N   0  0  0  0  0  0  0  0  0  0  0  0
   -1.6507    0.0716   -1.4704 C   0  0  2  0  0  0  0  0  0  0  0  0
   -2.9320   -0.7552   -1.2424 C   0  0  0  0  0  0  0  0  0  0  0  0
   -3.9994   -0.2842   -1.6171 O   0  0  0  0  0  0  0  0  0  0  0  0
   -0.9528   -0.4818   -2.7254 C   0  0  0  0  0  0  0  0  0  0  0  0
    0.2202    0.3789   -3.1326 C   0  0  0  0  0  0  0  0  0  0  0  0
    0.0088    1.5607   -3.8575 C   0  0  0  0  0  0  0  0  0  0  0  0
    1.5316    0.0152   -2.7878 C   0  0  0  0  0  0  0  0  0  0  0  0
    1.0922    2.3658   -4.2252 C   0  0  0  0  0  0  0  0  0  0  0  0
    2.6109    0.8272   -3.1559 C   0  0  0  0  0  0  0  0  0  0  0  0
    2.3915    2.0039   -3.8754 C   0  0  0  0  0  0  0  0  0  0  0  0
    3.4361    2.8027   -4.2405 O   0  0  0  0  0  0  0  0  0  0  0  0
    0.3127    0.0633   -0.6321 H   0  0  0  0  0  0  0  0  0  0  0  0
   -1.9640    1.1020   -1.6706 H   0  0  0  0  0  0  0  0  0  0  0  0
   -1.6691   -0.5233   -3.5535 H   0  0  0  0  0  0  0  0  0  0  0  0
   -0.6167   -1.5075   -2.5381 H   0  0  0  0  0  0  0  0  0  0  0  0
   -0.9975    1.8583   -4.1388 H   0  0  0  0  0  0  0  0  0  0  0  0
    1.7189   -0.8995   -2.2314 H   0  0  0  0  0  0  0  0  0  0  0  0
    0.9324    3.2806   -4.7867 H   0  0  0  0  0  0  0  0  0  0  0  0
    3.6177    0.5338   -2.8785 H   0  0  0  0  0  0  0  0  0  0  0  0
    4.2701    2.4325   -3.9122 H   0  0  0  0  0  0  0  0  0  0  0  0
   -2.9122   -2.0244   -0.6982 N   0  0  0  0  0  0  0  0  0  0  0  0
   -4.1349   -2.7892   -0.3952 C   0  0  2  0  0  0  0  0  0  0  0  0
   -4.9200   -2.2258    0.8199 C   0  0  0  0  0  0  0  0  0  0  0  0
   -5.0940   -2.8683    1.8501 O   0  0  0  0  0  0  0  0  0  0  0  0
   -3.7117   -4.2486   -0.1922 C   0  0  0  0  0  0  0  0  0  0  0  0
   -2.1056   -2.2136   -0.0941 H   0  0  0  0  0  0  0  0  0  0  0  0
   -4.8081   -2.7527   -1.2577 H   0  0  0  0  0  0  0  0  0  0  0  0
   -3.0347   -4.3360    0.6642 H   0  0  0  0  0  0  0  0  0  0  0  0
   -4.5889   -4.8762   -0.0057 H   0  0  0  0  0  0  0  0  0  0  0  0
   -3.1995   -4.6252   -1.0827 H   0  0  0  0  0  0  0  0  0  0  0  0
   -5.4591   -0.9561    0.7446 N   0  0  0  0  0  0  0  0  0  0  0  0
   -6.2143   -0.3191    1.8138 C   0  0  0  0  0  0  0  0  0  0  0  0
   -5.2846   -0.4461   -0.1252 H   0  0  0  0  0  0  0  0  0  0  0  0
   -7.1164   -0.8966    2.0411 H   0  0  0  0  0  0  0  0  0  0  0  0
   -5.6047   -0.2442    2.7201 H   0  0  0  0  0  0  0  0  0  0  0  0
   -6.5154    0.6891    1.5137 H   0  0  0  0  0  0  0  0  0  0  0  0
  1  2  2  0  0  0  0
  1  3  1  0  0  0  0
  1  7  1  0  0  0  0
  3  4  1  0  0  0  0
  3  5  1  0  0  0  0
  3  6  1  0  0  0  0
  7  8  1  0  0  0  0
  7 12  1  0  0  0  0
  8  9  1  0  0  0  0
  8 11  1  0  0  0  0
  8 13  1  0  0  0  0
  9 10  2  0  0  0  0
  9 17  1  0  0  0  0
 11 14  1  0  0  0  0
 11 15  1  0  0  0  0
 11 16  1  0  0  0  0
 17 18  1  0  0  0  0
 17 29  1  0  0  0  0
 18 19  1  0  0  0  0
 18 21  1  0  0  0  0
 18 30  1  0  0  0  0
 19 20  2  0  0  0  0
 19 38  1  0  0  0  0
 21 22  1  0  0  0  0
 21 31  1  0  0  0  0
 21 32  1  0  0  0  0
 22 23  2  0  0  0  0
 22 24  1  0  0  0  0
 23 25  1  0  0  0  0
 23 33  1  0  0  0  0
 24 26  2  0  0  0  0
 24 34  1  0  0  0  0
 25 27  2  0  0  0  0
 25 35  1  0  0  0  0
 26 27  1  0  0  0  0
 26 36  1  0  0  0  0
 27 28  1  0  0  0  0
 28 37  1  0  0  0  0
 38 39  1  0  0  0  0
 38 43  1  0  0  0  0
 39 40  1  0  0  0  0
 39 42  1  0  0  0  0
 39 44  1  0  0  0  0
 40 41  2  0  0  0  0
 40 48  1  0  0  0  0
 42 45  1  0  0  0  0
 42 46  1  0  0  0  0
 42 47  1  0  0  0  0
 48 49  1  0  0  0  0
 48 50  1  0  0  0  0
 49 51  1  0  0  0  0
 49 52  1  0  0  0  0
 49 53  1  0  0  0  0
M  END
$$$$

  -OEChem-02062319143D

 53 53  0     1  0  0  0  0  0999 V2000
   -2.3106   -1.3116    2.7162 C   0  0  0  0  0  0  0  0  0  0  0  0
   -1.9782   -1.8795    1.6849 O   0  0  0  0  0  0  0  0  0  0  0  0
   -2.6997   -2.1287    3.9328 C   0  0  0  0  0  0  0  0  0  0  0  0
   -2.5706   -3.1949    3.7275 H   0  0  0  0  0  0  0  0  0  0  0  0
   -2.0748   -1.8551    4.7862 H   0  0  0  0  0  0  0  0  0  0  0  0
   -3.7483   -1.9455    4.1810 H   0  0  0  0  0  0  0  0  0  0  0  0
   -2.3431    0.0695    2.7802 N   0  0  0  0  0  0  0  0  0  0  0  0
   -2.0858    0.9714    1.6452 C   0  0  2  0  0  0  0  0  0  0  0  0
   -0.7503    0.6765    0.9109 C   0  0  0  0  0  0  0  0  0  0  0  0
    0.3178    0.7800    1.4958 O   0  0  0  0  0  0  0  0  0  0  0  0
   -2.0776    2.4042    2.1856 C   0  0  0  0  0  0  0  0  0  0  0  0
   -2.6126    0.4757    3.6702 H   0  0  0  0  0  0  0  0  0  0  0  0
   -2.9148    0.8916    0.9460 H   0  0  0  0  0  0  0  0  0  0  0  0
   -1.2782    2.5342    2.9227 H   0  0  0  0  0  0  0  0  0  0  0  0
   -1.9146    3.1157    1.3697 H   0  0  0  0  0  0  0  0  0  0  0  0
   -3.0345    2.6391    2.6617 H   0  0  0  0  0  0  0  0  0  0  0  0
   -0.6195    0.1736   -0.3681 N   0  0  0  0  0  0  0  0  0  0  0  0
   -1.5361    0.3554   -1.5093 C   0  0  2  0  0  0  0  0  0  0  0  0
   -2.9798   -0.1542   -1.3294 C   0  0  0  0  0  0  0  0  0  0  0  0
   -3.9076    0.5493   -1.7117 O   0  0  0  0  0  0  0  0  0  0  0  0
   -0.9312   -0.3540   -2.7327 C   0  0  0  0  0  0  0  0  0  0  0  0
    0.4409    0.1870   -3.0624 C   0  0  0  0  0  0  0  0  0  0  0  0
    0.5760    1.4083   -3.7387 C   0  0  0  0  0  0  0  0  0  0  0  0
    1.5961   -0.5166   -2.6868 C   0  0  0  0  0  0  0  0  0  0  0  0
    1.8466    1.9174   -4.0271 C   0  0  0  0  0  0  0  0  0  0  0  0
    2.8647   -0.0006   -2.9767 C   0  0  0  0  0  0  0  0  0  0  0  0
    2.9904    1.2181   -3.6470 C   0  0  0  0  0  0  0  0  0  0  0  0
    4.2220    1.7327   -3.9319 O   0  0  0  0  0  0  0  0  0  0  0  0
    0.3604    0.0341   -0.6062 H   0  0  0  0  0  0  0  0  0  0  0  0
   -1.6015    1.4271   -1.7255 H   0  0  0  0  0  0  0  0  0  0  0  0
   -1.5884   -0.2140   -3.5982 H   0  0  0  0  0  0  0  0  0  0  0  0
   -0.8722   -1.4311   -2.5417 H   0  0  0  0  0  0  0  0  0  0  0  0
   -0.3045    1.9681   -4.0415 H   0  0  0  0  0  0  0  0  0  0  0  0
    1.5128   -1.4661   -2.1649 H   0  0  0  0  0  0  0  0  0  0  0  0
    1.9551    2.8633   -4.5480 H   0  0  0  0  0  0  0  0  0  0  0  0
    3.7469   -0.5552   -2.6758 H   0  0  0  0  0  0  0  0  0  0  0  0
    4.9147    1.1569   -3.5728 H   0  0  0  0  0  0  0  0  0  0  0  0
   -3.2571   -1.3871   -0.7718 N   0  0  0  0  0  0  0  0  0  0  0  0
   -4.6211   -1.8495   -0.4677 C   0  0  2  0  0  0  0  0  0  0  0  0
   -5.2518   -1.1022    0.7357 C   0  0  0  0  0  0  0  0  0  0  0  0
   -5.4407   -1.6400    1.8217 O   0  0  0  0  0  0  0  0  0  0  0  0
   -4.5461   -3.3647   -0.2454 C   0  0  0  0  0  0  0  0  0  0  0  0
   -2.5062   -1.7758   -0.1898 H   0  0  0  0  0  0  0  0  0  0  0  0
   -5.2662   -1.6719   -1.3344 H   0  0  0  0  0  0  0  0  0  0  0  0
   -3.9079   -3.5985    0.6128 H   0  0  0  0  0  0  0  0  0  0  0  0
   -5.5443   -3.7707   -0.0542 H   0  0  0  0  0  0  0  0  0  0  0  0
   -4.1344   -3.8588   -1.1305 H   0  0  0  0  0  0  0  0  0  0  0  0
   -5.6016    0.2257    0.5887 N   0  0  0  0  0  0  0  0  0  0  0  0
   -6.1416    1.0528    1.6585 C   0  0  0  0  0  0  0  0  0  0  0  0
   -5.3355    0.6609   -0.2986 H   0  0  0  0  0  0  0  0  0  0  0  0
   -7.0666    0.6171    2.0505 H   0  0  0  0  0  0  0  0  0  0  0  0
   -5.4187    1.1416    2.4756 H   0  0  0  0  0  0  0  0  0  0  0  0
   -6.3664    2.0552    1.2818 H   0  0  0  0  0  0  0  0  0  0  0  0
  1  2  2  0  0  0  0
  1  3  1  0  0  0  0
  1  7  1  0  0  0  0
  3  4  1  0  0  0  0
  3  5  1  0  0  0  0
  3  6  1  0  0  0  0
  7  8  1  0  0  0  0
  7 12  1  0  0  0  0
  8  9  1  0  0  0  0
  8 11  1  0  0  0  0
  8 13  1  0  0  0  0
  9 10  2  0  0  0  0
  9 17  1  0  0  0  0
 11 14  1  0  0  0  0
 11 15  1  0  0  0  0
 11 16  1  0  0  0  0
 17 18  1  0  0  0  0
 17 29  1  0  0  0  0
 18 19  1  0  0  0  0
 18 21  1  0  0  0  0
 18 30  1  0  0  0  0
 19 20  2  0  0  0  0
 19 38  1  0  0  0  0
 21 22  1  0  0  0  0
 21 31  1  0  0  0  0
 21 32  1  0  0  0  0
 22 23  2  0  0  0  0
 22 24  1  0  0  0  0
 23 25  1  0  0  0  0
 23 33  1  0  0  0  0
 24 26  2  0  0  0  0
 24 34  1  0  0  0  0
 25 27  2  0  0  0  0
 25 35  1  0  0  0  0
 26 27  1  0  0  0  0
 26 36  1  0  0  0  0
 27 28  1  0  0  0  0
 28 37  1  0  0  0  0
 38 39  1  0  0  0  0
 38 43  1  0  0  0  0
 39 40  1  0  0  0  0
 39 42  1  0  0  0  0
 39 44  1  0  0  0  0
 40 41  2  0  0  0  0
 40 48  1  0  0  0  0
 42 45  1  0  0  0  0
 42 46  1  0  0  0  0
 42 47  1  0  0  0  0
 48 49  1  0  0  0  0
 48 50  1  0  0  0  0
 49 51  1  0  0  0  0
 49 52  1  0  0  0  0
 49 53  1  0  0  0  0
M  END
$$$$

  -OEChem-02062319143D

 53 53  0     1  0  0  0  0  0999 V2000
   -2.3660   -1.1671    2.5692 C   0  0  0  0  0  0  0  0  0  0  0  0
   -2.1401   -1.6835    1.4836 O   0  0  0  0  0  0  0  0  0  0  0  0
   -2.8766   -2.0166    3.7165 C   0  0  0  0  0  0  0  0  0  0  0  0
   -2.9129   -3.0686    3.4208 H   0  0  0  0  0  0  0  0  0  0  0  0
   -2.2163   -1.9157    4.5810 H   0  0  0  0  0  0  0  0  0  0  0  0
   -3.8840   -1.6951    3.9937 H   0  0  0  0  0  0  0  0  0  0  0  0
   -2.1790    0.1885    2.7577 N   0  0  0  0  0  0  0  0  0  0  0  0
   -1.8711    1.1505    1.6880 C   0  0  2  0  0  0  0  0  0  0  0  0
   -0.5779    0.8263    0.8936 C   0  0  0  0  0  0  0  0  0  0  0  0
    0.5098    0.8570    1.4498 O   0  0  0  0  0  0  0  0  0  0  0  0
   -1.7526    2.5315    2.3400 C   0  0  0  0  0  0  0  0  0  0  0  0
   -2.4180    0.5513    3.6749 H   0  0  0  0  0  0  0  0  0  0  0  0
   -2.7136    1.1909    1.0045 H   0  0  0  0  0  0  0  0  0  0  0  0
   -0.9328    2.5470    3.0662 H   0  0  0  0  0  0  0  0  0  0  0  0
   -1.5561    3.2938    1.5794 H   0  0  0  0  0  0  0  0  0  0  0  0
   -2.6814    2.7917    2.8566 H   0  0  0  0  0  0  0  0  0  0  0  0
   -0.5157    0.2548   -0.3620 N   0  0  0  0  0  0  0  0  0  0  0  0
   -1.3379    0.6139   -1.5340 C   0  0  2  0  0  0  0  0  0  0  0  0
   -2.8640    0.4540   -1.3870 C   0  0  0  0  0  0  0  0  0  0  0  0
   -3.6063    1.3575   -1.7529 O   0  0  0  0  0  0  0  0  0  0  0  0
   -0.8835   -0.2512   -2.7230 C   0  0  0  0  0  0  0  0  0  0  0  0
    0.5894   -0.0713   -3.0078 C   0  0  0  0  0  0  0  0  0  0  0  0
    1.0419    1.0487   -3.7199 C   0  0  0  0  0  0  0  0  0  0  0  0
    1.5243   -1.0131   -2.5502 C   0  0  0  0  0  0  0  0  0  0  0  0
    2.4082    1.2245   -3.9627 C   0  0  0  0  0  0  0  0  0  0  0  0
    2.8904   -0.8299   -2.7937 C   0  0  0  0  0  0  0  0  0  0  0  0
    3.3337    0.2907   -3.4999 C   0  0  0  0  0  0  0  0  0  0  0  0
    4.6639    0.4817   -3.7394 O   0  0  0  0  0  0  0  0  0  0  0  0
    0.4433   -0.0095   -0.5796 H   0  0  0  0  0  0  0  0  0  0  0  0
   -1.1494    1.6659   -1.7739 H   0  0  0  0  0  0  0  0  0  0  0  0
   -1.4575    0.0218   -3.6156 H   0  0  0  0  0  0  0  0  0  0  0  0
   -1.0944   -1.3053   -2.5119 H   0  0  0  0  0  0  0  0  0  0  0  0
    0.3356    1.7888   -4.0851 H   0  0  0  0  0  0  0  0  0  0  0  0
    1.1924   -1.8885   -1.9978 H   0  0  0  0  0  0  0  0  0  0  0  0
    2.7620    2.0918   -4.5108 H   0  0  0  0  0  0  0  0  0  0  0  0
    3.6002   -1.5641   -2.4279 H   0  0  0  0  0  0  0  0  0  0  0  0
    5.1821   -0.2224   -3.3199 H   0  0  0  0  0  0  0  0  0  0  0  0
   -3.4146   -0.6759   -0.8141 N   0  0  0  0  0  0  0  0  0  0  0  0
   -4.8473   -0.8330   -0.5240 C   0  0  2  0  0  0  0  0  0  0  0  0
   -5.2969    0.0079    0.6958 C   0  0  0  0  0  0  0  0  0  0  0  0
   -5.5398   -0.4945    1.7883 O   0  0  0  0  0  0  0  0  0  0  0  0
   -5.1156   -2.3308   -0.3367 C   0  0  0  0  0  0  0  0  0  0  0  0
   -2.7650   -1.2524   -0.2662 H   0  0  0  0  0  0  0  0  0  0  0  0
   -5.4325   -0.4958   -1.3859 H   0  0  0  0  0  0  0  0  0  0  0  0
   -4.5475   -2.7223    0.5133 H   0  0  0  0  0  0  0  0  0  0  0  0
   -6.1800   -2.5053   -0.1509 H   0  0  0  0  0  0  0  0  0  0  0  0
   -4.8249   -2.8849   -1.2343 H   0  0  0  0  0  0  0  0  0  0  0  0
   -5.3897    1.3793    0.5595 N   0  0  0  0  0  0  0  0  0  0  0  0
   -5.7515    2.2829    1.6427 C   0  0  0  0  0  0  0  0  0  0  0  0
   -5.0545    1.7645   -0.3275 H   0  0  0  0  0  0  0  0  0  0  0  0
   -6.7852    2.1052    1.9569 H   0  0  0  0  0  0  0  0  0  0  0  0
   -5.0913    2.1353    2.5033 H   0  0  0  0  0  0  0  0  0  0  0  0
   -5.6630    3.3222    1.3123 H   0  0  0  0  0  0  0  0  0  0  0  0
  1  2  2  0  0  0  0
  1  3  1  0  0  0  0
  1  7  1  0  0  0  0
  3  4  1  0  0  0  0
  3  5  1  0  0  0  0
  3  6  1  0  0  0  0
  7  8  1  0  0  0  0
  7 12  1  0  0  0  0
  8  9  1  0  0  0  0
  8 11  1  0  0  0  0
  8 13  1  0  0  0  0
  9 10  2  0  0  0  0
  9 17  1  0  0  0  0
 11 14  1  0  0  0  0
 11 15  1  0  0  0  0
 11 16  1  0  0  0  0
 17 18  1  0  0  0  0
 17 29  1  0  0  0  0
 18 19  1  0  0  0  0
 18 21  1  0  0  0  0
 18 30  1  0  0  0  0
 19 20  2  0  0  0  0
 19 38  1  0  0  0  0
 21 22  1  0  0  0  0
 21 31  1  0  0  0  0
 21 32  1  0  0  0  0
 22 23  2  0  0  0  0
 22 24  1  0  0  0  0
 23 25  1  0  0  0  0
 23 33  1  0  0  0  0
 24 26  2  0  0  0  0
 24 34  1  0  0  0  0
 25 27  2  0  0  0  0
 25 35  1  0  0  0  0
 26 27  1  0  0  0  0
 26 36  1  0  0  0  0
 27 28  1  0  0  0  0
 28 37  1  0  0  0  0
 38 39  1  0  0  0  0
 38 43  1  0  0  0  0
 39 40  1  0  0  0  0
 39 42  1  0  0  0  0
 39 44  1  0  0  0  0
 40 41  2  0  0  0  0
 40 48  1  0  0  0  0
 42 45  1  0  0  0  0
 42 46  1  0  0  0  0
 42 47  1  0  0  0  0
 48 49  1  0  0  0  0
 48 50  1  0  0  0  0
 49 51  1  0  0  0  0
 49 52  1  0  0  0  0
 49 53  1  0  0  0  0
M  END
$$$$

  -OEChem-02062319143D

 53 53  0     1  0  0  0  0  0999 V2000
   -2.3819   -1.0995    2.4980 C   0  0  0  0  0  0  0  0  0  0  0  0
   -2.5183   -1.4396    1.3312 O   0  0  0  0  0  0  0  0  0  0  0  0
   -2.6263   -2.0987    3.6122 C   0  0  0  0  0  0  0  0  0  0  0  0
   -2.9561   -3.0548    3.1960 H   0  0  0  0  0  0  0  0  0  0  0  0
   -1.7058   -2.2596    4.1787 H   0  0  0  0  0  0  0  0  0  0  0  0
   -3.4010   -1.7231    4.2853 H   0  0  0  0  0  0  0  0  0  0  0  0
   -1.9742    0.1826    2.8049 N   0  0  0  0  0  0  0  0  0  0  0  0
   -1.6752    1.2129    1.8013 C   0  0  2  0  0  0  0  0  0  0  0  0
   -0.4160    0.8819    0.9604 C   0  0  0  0  0  0  0  0  0  0  0  0
    0.6706    0.8007    1.5137 O   0  0  0  0  0  0  0  0  0  0  0  0
   -1.4984    2.5426    2.5395 C   0  0  0  0  0  0  0  0  0  0  0  0
   -1.7704    0.3822    3.7794 H   0  0  0  0  0  0  0  0  0  0  0  0
   -2.5331    1.3238    1.1450 H   0  0  0  0  0  0  0  0  0  0  0  0
   -0.6509    2.4926    3.2309 H   0  0  0  0  0  0  0  0  0  0  0  0
   -2.4005    2.7836    3.1099 H   0  0  0  0  0  0  0  0  0  0  0  0
   -1.3156    3.3506    1.8245 H   0  0  0  0  0  0  0  0  0  0  0  0
   -0.4155    0.2844   -0.2833 N   0  0  0  0  0  0  0  0  0  0  0  0
   -1.0762    0.8295   -1.4847 C   0  0  2  0  0  0  0  0  0  0  0  0
   -2.6009    1.0403   -1.4142 C   0  0  0  0  0  0  0  0  0  0  0  0
   -3.0849    2.0866   -1.8279 O   0  0  0  0  0  0  0  0  0  0  0  0
   -0.7905   -0.1179   -2.6627 C   0  0  0  0  0  0  0  0  0  0  0  0
    0.6927   -0.3111   -2.8760 C   0  0  0  0  0  0  0  0  0  0  0  0
    1.4474    0.6611   -3.5483 C   0  0  0  0  0  0  0  0  0  0  0  0
    1.3354   -1.4622   -2.3946 C   0  0  0  0  0  0  0  0  0  0  0  0
    2.8235    0.4834   -3.7293 C   0  0  0  0  0  0  0  0  0  0  0  0
    2.7122   -1.6330   -2.5767 C   0  0  0  0  0  0  0  0  0  0  0  0
    3.4579   -0.6590   -3.2442 C   0  0  0  0  0  0  0  0  0  0  0  0
    4.8016   -0.8144   -3.4264 O   0  0  0  0  0  0  0  0  0  0  0  0
    0.5036   -0.1146   -0.4678 H   0  0  0  0  0  0  0  0  0  0  0  0
   -0.6298    1.8054   -1.7052 H   0  0  0  0  0  0  0  0  0  0  0  0
   -1.2345    0.2914   -3.5770 H   0  0  0  0  0  0  0  0  0  0  0  0
   -1.2665   -1.0871   -2.4778 H   0  0  0  0  0  0  0  0  0  0  0  0
    0.9700    1.5587   -3.9310 H   0  0  0  0  0  0  0  0  0  0  0  0
    0.7660   -2.2265   -1.8721 H   0  0  0  0  0  0  0  0  0  0  0  0
    3.4122    1.2337   -4.2472 H   0  0  0  0  0  0  0  0  0  0  0  0
    3.1929   -2.5273   -2.1948 H   0  0  0  0  0  0  0  0  0  0  0  0
    5.1026   -1.6347   -3.0059 H   0  0  0  0  0  0  0  0  0  0  0  0
   -3.4384    0.0775   -0.8839 N   0  0  0  0  0  0  0  0  0  0  0  0
   -4.8896    0.2462   -0.7163 C   0  0  2  0  0  0  0  0  0  0  0  0
   -5.2460    1.1830    0.4643 C   0  0  0  0  0  0  0  0  0  0  0  0
   -5.7946    0.7769    1.4822 O   0  0  0  0  0  0  0  0  0  0  0  0
   -5.4962   -1.1537   -0.5653 C   0  0  0  0  0  0  0  0  0  0  0  0
   -2.9841   -0.6588   -0.3305 H   0  0  0  0  0  0  0  0  0  0  0  0
   -5.3095    0.6943   -1.6228 H   0  0  0  0  0  0  0  0  0  0  0  0
   -5.1082   -1.6484    0.3309 H   0  0  0  0  0  0  0  0  0  0  0  0
   -6.5851   -1.0879   -0.4796 H   0  0  0  0  0  0  0  0  0  0  0  0
   -5.2537   -1.7700   -1.4361 H   0  0  0  0  0  0  0  0  0  0  0  0
   -4.9143    2.5212    0.3760 N   0  0  0  0  0  0  0  0  0  0  0  0
   -5.1871    3.5040    1.4151 C   0  0  0  0  0  0  0  0  0  0  0  0
   -4.4040    2.8036   -0.4651 H   0  0  0  0  0  0  0  0  0  0  0  0
   -6.2662    3.6467    1.5310 H   0  0  0  0  0  0  0  0  0  0  0  0
   -4.7700    3.1780    2.3731 H   0  0  0  0  0  0  0  0  0  0  0  0
   -4.7360    4.4654    1.1516 H   0  0  0  0  0  0  0  0  0  0  0  0
  1  2  2  0  0  0  0
  1  3  1  0  0  0  0
  1  7  1  0  0  0  0
  3  4  1  0  0  0  0
  3  5  1  0  0  0  0
  3  6  1  0  0  0  0
  7  8  1  0  0  0  0
  7 12  1  0  0  0  0
  8  9  1  0  0  0  0
  8 11  1  0  0  0  0
  8 13  1  0  0  0  0
  9 10  2  0  0  0  0
  9 17  1  0  0  0  0
 11 14  1  0  0  0  0
 11 15  1  0  0  0  0
 11 16  1  0  0  0  0
 17 18  1  0  0  0  0
 17 29  1  0  0  0  0
 18 19  1  0  0  0  0
 18 21  1  0  0  0  0
 18 30  1  0  0  0  0
 19 20  2  0  0  0  0
 19 38  1  0  0  0  0
 21 22  1  0  0  0  0
 21 31  1  0  0  0  0
 21 32  1  0  0  0  0
 22 23  2  0  0  0  0
 22 24  1  0  0  0  0
 23 25  1  0  0  0  0
 23 33  1  0  0  0  0
 24 26  2  0  0  0  0
 24 34  1  0  0  0  0
 25 27  2  0  0  0  0
 25 35  1  0  0  0  0
 26 27  1  0  0  0  0
 26 36  1  0  0  0  0
 27 28  1  0  0  0  0
 28 37  1  0  0  0  0
 38 39  1  0  0  0  0
 38 43  1  0  0  0  0
 39 40  1  0  0  0  0
 39 42  1  0  0  0  0
 39 44  1  0  0  0  0
 40 41  2  0  0  0  0
 40 48  1  0  0  0  0
 42 45  1  0  0  0  0
 42 46  1  0  0  0  0
 42 47  1  0  0  0  0
 48 49  1  0  0  0  0
 48 50  1  0  0  0  0
 49 51  1  0  0  0  0
 49 52  1  0  0  0  0
 49 53  1  0  0  0  0
M  END
$$$$

  -OEChem-02062319143D

 53 53  0     1  0  0  0  0  0999 V2000
   -2.7911   -1.1046    2.0919 C   0  0  0  0  0  0  0  0  0  0  0  0
   -3.0394   -1.0696    0.8950 O   0  0  0  0  0  0  0  0  0  0  0  0
   -3.2320   -2.2938    2.9236 C   0  0  0  0  0  0  0  0  0  0  0  0
   -3.8165   -2.9866    2.3116 H   0  0  0  0  0  0  0  0  0  0  0  0
   -2.3581   -2.8204    3.3154 H   0  0  0  0  0  0  0  0  0  0  0  0
   -3.8506   -1.9563    3.7589 H   0  0  0  0  0  0  0  0  0  0  0  0
   -2.0757   -0.0831    2.6822 N   0  0  0  0  0  0  0  0  0  0  0  0
   -1.5225    1.0601    1.9439 C   0  0  2  0  0  0  0  0  0  0  0  0
   -0.2752    0.6676    1.1144 C   0  0  0  0  0  0  0  0  0  0  0  0
    0.7537    0.3571    1.6954 O   0  0  0  0  0  0  0  0  0  0  0  0
   -1.1951    2.1596    2.9577 C   0  0  0  0  0  0  0  0  0  0  0  0
   -1.7754   -0.2249    3.6421 H   0  0  0  0  0  0  0  0  0  0  0  0
   -2.2846    1.4602    1.2808 H   0  0  0  0  0  0  0  0  0  0  0  0
   -0.8175    3.0481    2.4424 H   0  0  0  0  0  0  0  0  0  0  0  0
   -2.0942    2.4399    3.5149 H   0  0  0  0  0  0  0  0  0  0  0  0
   -0.4348    1.8208    3.6688 H   0  0  0  0  0  0  0  0  0  0  0  0
   -0.3243    0.1542   -0.1637 N   0  0  0  0  0  0  0  0  0  0  0  0
   -0.6248    0.9816   -1.3466 C   0  0  2  0  0  0  0  0  0  0  0  0
   -1.9889    1.6985   -1.3733 C   0  0  0  0  0  0  0  0  0  0  0  0
   -2.0400    2.8786   -1.6966 O   0  0  0  0  0  0  0  0  0  0  0  0
   -0.5391    0.0862   -2.5943 C   0  0  0  0  0  0  0  0  0  0  0  0
    0.8003   -0.6068   -2.6949 C   0  0  0  0  0  0  0  0  0  0  0  0
    1.9297    0.0928   -3.1436 C   0  0  0  0  0  0  0  0  0  0  0  0
    0.9325   -1.9557   -2.3307 C   0  0  0  0  0  0  0  0  0  0  0  0
    3.1703   -0.5492   -3.2225 C   0  0  0  0  0  0  0  0  0  0  0  0
    2.1762   -2.5925   -2.4128 C   0  0  0  0  0  0  0  0  0  0  0  0
    3.2969   -1.8887   -2.8589 C   0  0  0  0  0  0  0  0  0  0  0  0
    4.5147   -2.4994   -2.9435 O   0  0  0  0  0  0  0  0  0  0  0  0
    0.4815   -0.4532   -0.3059 H   0  0  0  0  0  0  0  0  0  0  0  0
    0.1436    1.7593   -1.4213 H   0  0  0  0  0  0  0  0  0  0  0  0
   -0.6959    0.6948   -3.4917 H   0  0  0  0  0  0  0  0  0  0  0  0
   -1.3408   -0.6600   -2.5646 H   0  0  0  0  0  0  0  0  0  0  0  0
    1.8493    1.1371   -3.4316 H   0  0  0  0  0  0  0  0  0  0  0  0
    0.0682   -2.5133   -1.9796 H   0  0  0  0  0  0  0  0  0  0  0  0
    4.0472   -0.0110   -3.5676 H   0  0  0  0  0  0  0  0  0  0  0  0
    2.2613   -3.6357   -2.1281 H   0  0  0  0  0  0  0  0  0  0  0  0
    4.4479   -3.4199   -2.6464 H   0  0  0  0  0  0  0  0  0  0  0  0
   -3.1578    1.0506   -1.0200 N   0  0  0  0  0  0  0  0  0  0  0  0
   -4.4769    1.6986   -0.9492 C   0  0  2  0  0  0  0  0  0  0  0  0
   -4.6308    2.6064    0.2966 C   0  0  0  0  0  0  0  0  0  0  0  0
   -5.4508    2.3763    1.1775 O   0  0  0  0  0  0  0  0  0  0  0  0
   -5.5306    0.5861   -1.0038 C   0  0  0  0  0  0  0  0  0  0  0  0
   -3.0531    0.1377   -0.5609 H   0  0  0  0  0  0  0  0  0  0  0  0
   -4.6163    2.3336   -1.8304 H   0  0  0  0  0  0  0  0  0  0  0  0
   -5.4393   -0.0740   -0.1353 H   0  0  0  0  0  0  0  0  0  0  0  0
   -6.5368    1.0163   -1.0066 H   0  0  0  0  0  0  0  0  0  0  0  0
   -5.4075   -0.0129   -1.9112 H   0  0  0  0  0  0  0  0  0  0  0  0
   -3.8024    3.7034    0.4326 N   0  0  0  0  0  0  0  0  0  0  0  0
   -3.8608    4.6431    1.5436 C   0  0  0  0  0  0  0  0  0  0  0  0
   -3.1216    3.8490   -0.3179 H   0  0  0  0  0  0  0  0  0  0  0  0
   -3.7512    4.1180    2.4980 H   0  0  0  0  0  0  0  0  0  0  0  0
   -3.0537    5.3771    1.4590 H   0  0  0  0  0  0  0  0  0  0  0  0
   -4.8170    5.1766    1.5426 H   0  0  0  0  0  0  0  0  0  0  0  0
  1  2  2  0  0  0  0
  1  3  1  0  0  0  0
  1  7  1  0  0  0  0
  3  4  1  0  0  0  0
  3  5  1  0  0  0  0
  3  6  1  0  0  0  0
  7  8  1  0  0  0  0
  7 12  1  0  0  0  0
  8  9  1  0  0  0  0
  8 11  1  0  0  0  0
  8 13  1  0  0  0  0
  9 10  2  0  0  0  0
  9 17  1  0  0  0  0
 11 14  1  0  0  0  0
 11 15  1  0  0  0  0
 11 16  1  0  0  0  0
 17 18  1  0  0  0  0
 17 29  1  0  0  0  0
 18 19  1  0  0  0  0
 18 21  1  0  0  0  0
 18 30  1  0  0  0  0
 19 20  2  0  0  0  0
 19 38  1  0  0  0  0
 21 22  1  0  0  0  0
 21 31  1  0  0  0  0
 21 32  1  0  0  0  0
 22 23  2  0  0  0  0
 22 24  1  0  0  0  0
 23 25  1  0  0  0  0
 23 33  1  0  0  0  0
 24 26  2  0  0  0  0
 24 34  1  0  0  0  0
 25 27  2  0  0  0  0
 25 35  1  0  0  0  0
 26 27  1  0  0  0  0
 26 36  1  0  0  0  0
 27 28  1  0  0  0  0
 28 37  1  0  0  0  0
 38 39  1  0  0  0  0
 38 43  1  0  0  0  0
 39 40  1  0  0  0  0
 39 42  1  0  0  0  0
 39 44  1  0  0  0  0
 40 41  2  0  0  0  0
 40 48  1  0  0  0  0
 42 45  1  0  0  0  0
 42 46  1  0  0  0  0
 42 47  1  0  0  0  0
 48 49  1  0  0  0  0
 48 50  1  0  0  0  0
 49 51  1  0  0  0  0
 49 52  1  0  0  0  0
 49 53  1  0  0  0  0
M  END
$$$$

  -OEChem-02062319143D

 53 53  0     1  0  0  0  0  0999 V2000
   -2.7318   -0.9512    1.8255 C   0  0  0  0  0  0  0  0  0  0  0  0
   -2.7204   -0.8825    0.6037 O   0  0  0  0  0  0  0  0  0  0  0  0
   -3.5804   -1.9983    2.5209 C   0  0  0  0  0  0  0  0  0  0  0  0
   -4.1307   -2.5901    1.7838 H   0  0  0  0  0  0  0  0  0  0  0  0
   -2.9448   -2.6681    3.1056 H   0  0  0  0  0  0  0  0  0  0  0  0
   -4.2983   -1.5141    3.1879 H   0  0  0  0  0  0  0  0  0  0  0  0
   -1.9379   -0.1028    2.5694 N   0  0  0  0  0  0  0  0  0  0  0  0
   -1.2321    1.0752    2.0367 C   0  0  2  0  0  0  0  0  0  0  0  0
    0.0002    0.7150    1.1596 C   0  0  0  0  0  0  0  0  0  0  0  0
    1.0341    1.3526    1.3003 O   0  0  0  0  0  0  0  0  0  0  0  0
   -0.8642    1.9432    3.2478 C   0  0  0  0  0  0  0  0  0  0  0  0
   -2.0244   -0.1784    3.5795 H   0  0  0  0  0  0  0  0  0  0  0  0
   -1.9203    1.6605    1.4301 H   0  0  0  0  0  0  0  0  0  0  0  0
   -0.1542    1.4205    3.8967 H   0  0  0  0  0  0  0  0  0  0  0  0
   -0.4053    2.8808    2.9179 H   0  0  0  0  0  0  0  0  0  0  0  0
   -1.7591    2.1889    3.8280 H   0  0  0  0  0  0  0  0  0  0  0  0
   -0.1510    0.1193   -0.0807 N   0  0  0  0  0  0  0  0  0  0  0  0
   -0.2730    0.9566   -1.2928 C   0  0  2  0  0  0  0  0  0  0  0  0
   -1.4674    1.9311   -1.3304 C   0  0  0  0  0  0  0  0  0  0  0  0
   -1.3115    3.0934   -1.6827 O   0  0  0  0  0  0  0  0  0  0  0  0
   -0.3699    0.0455   -2.5290 C   0  0  0  0  0  0  0  0  0  0  0  0
    0.8165   -0.8816   -2.6521 C   0  0  0  0  0  0  0  0  0  0  0  0
    2.0689   -0.3819   -3.0376 C   0  0  0  0  0  0  0  0  0  0  0  0
    0.6826   -2.2524   -2.3835 C   0  0  0  0  0  0  0  0  0  0  0  0
    3.1665   -1.2414   -3.1528 C   0  0  0  0  0  0  0  0  0  0  0  0
    1.7844   -3.1082   -2.5010 C   0  0  0  0  0  0  0  0  0  0  0  0
    3.0283   -2.6023   -2.8864 C   0  0  0  0  0  0  0  0  0  0  0  0
    4.1092   -3.4278   -3.0042 O   0  0  0  0  0  0  0  0  0  0  0  0
   -0.8846   -0.5889   -0.0395 H   0  0  0  0  0  0  0  0  0  0  0  0
    0.6357    1.5632   -1.3775 H   0  0  0  0  0  0  0  0  0  0  0  0
   -0.4264    0.6656   -3.4302 H   0  0  0  0  0  0  0  0  0  0  0  0
   -1.2941   -0.5398   -2.4804 H   0  0  0  0  0  0  0  0  0  0  0  0
    2.1953    0.6769   -3.2446 H   0  0  0  0  0  0  0  0  0  0  0  0
   -0.2786   -2.6571   -2.0803 H   0  0  0  0  0  0  0  0  0  0  0  0
    4.1369   -0.8555   -3.4469 H   0  0  0  0  0  0  0  0  0  0  0  0
    1.6634   -4.1648   -2.2892 H   0  0  0  0  0  0  0  0  0  0  0  0
    3.8612   -4.3347   -2.7687 H   0  0  0  0  0  0  0  0  0  0  0  0
   -2.7328    1.5203   -0.9539 N   0  0  0  0  0  0  0  0  0  0  0  0
   -3.8953    2.4114   -0.8445 C   0  0  2  0  0  0  0  0  0  0  0  0
   -3.8144    3.3148    0.4089 C   0  0  0  0  0  0  0  0  0  0  0  0
   -4.5033    3.1071    1.4017 O   0  0  0  0  0  0  0  0  0  0  0  0
   -5.1469    1.5262   -0.8581 C   0  0  0  0  0  0  0  0  0  0  0  0
   -2.8136    0.5782   -0.5615 H   0  0  0  0  0  0  0  0  0  0  0  0
   -3.9384    3.0688   -1.7194 H   0  0  0  0  0  0  0  0  0  0  0  0
   -5.1406    0.8364   -0.0080 H   0  0  0  0  0  0  0  0  0  0  0  0
   -6.0486    2.1434   -0.7972 H   0  0  0  0  0  0  0  0  0  0  0  0
   -5.1896    0.9409   -1.7817 H   0  0  0  0  0  0  0  0  0  0  0  0
   -2.8699    4.3211    0.4449 N   0  0  0  0  0  0  0  0  0  0  0  0
   -2.6125    5.1548    1.6106 C   0  0  0  0  0  0  0  0  0  0  0  0
   -2.2072    4.3383   -0.3360 H   0  0  0  0  0  0  0  0  0  0  0  0
   -2.3091    4.5403    2.4638 H   0  0  0  0  0  0  0  0  0  0  0  0
   -1.8108    5.8676    1.3942 H   0  0  0  0  0  0  0  0  0  0  0  0
   -3.5109    5.7181    1.8831 H   0  0  0  0  0  0  0  0  0  0  0  0
  1  2  2  0  0  0  0
  1  3  1  0  0  0  0
  1  7  1  0  0  0  0
  3  4  1  0  0  0  0
  3  5  1  0  0  0  0
  3  6  1  0  0  0  0
  7  8  1  0  0  0  0
  7 12  1  0  0  0  0
  8  9  1  0  0  0  0
  8 11  1  0  0  0  0
  8 13  1  0  0  0  0
  9 10  2  0  0  0  0
  9 17  1  0  0  0  0
 11 14  1  0  0  0  0
 11 15  1  0  0  0  0
 11 16  1  0  0  0  0
 17 18  1  0  0  0  0
 17 29  1  0  0  0  0
 18 19  1  0  0  0  0
 18 21  1  0  0  0  0
 18 30  1  0  0  0  0
 19 20  2  0  0  0  0
 19 38  1  0  0  0  0
 21 22  1  0  0  0  0
 21 31  1  0  0  0  0
 21 32  1  0  0  0  0
 22 23  2  0  0  0  0
 22 24  1  0  0  0  0
 23 25  1  0  0  0  0
 23 33  1  0  0  0  0
 24 26  2  0  0  0  0
 24 34  1  0  0  0  0
 25 27  2  0  0  0  0
 25 35  1  0  0  0  0
 26 27  1  0  0  0  0
 26 36  1  0  0  0  0
 27 28  1  0  0  0  0
 28 37  1  0  0  0  0
 38 39  1  0  0  0  0
 38 43  1  0  0  0  0
 39 40  1  0  0  0  0
 39 42  1  0  0  0  0
 39 44  1  0  0  0  0
 40 41  2  0  0  0  0
 40 48  1  0  0  0  0
 42 45  1  0  0  0  0
 42 46  1  0  0  0  0
 42 47  1  0  0  0  0
 48 49  1  0  0  0  0
 48 50  1  0  0  0  0
 49 51  1  0  0  0  0
 49 52  1  0  0  0  0
 49 53  1  0  0  0  0
M  END
$$$$

  -OEChem-02062319143D

 53 53  0     1  0  0  0  0  0999 V2000
   -2.5467   -0.7159    1.8020 C   0  0  0  0  0  0  0  0  0  0  0  0
   -2.6935   -0.4650    0.6135 O   0  0  0  0  0  0  0  0  0  0  0  0
   -3.3779   -1.7996    2.4610 C   0  0  0  0  0  0  0  0  0  0  0  0
   -4.0836   -2.2247    1.7415 H   0  0  0  0  0  0  0  0  0  0  0  0
   -2.7285   -2.5974    2.8298 H   0  0  0  0  0  0  0  0  0  0  0  0
   -3.9403   -1.3810    3.2996 H   0  0  0  0  0  0  0  0  0  0  0  0
   -1.5765   -0.0522    2.5246 N   0  0  0  0  0  0  0  0  0  0  0  0
   -0.8460    1.1368    2.0511 C   0  0  2  0  0  0  0  0  0  0  0  0
    0.2837    0.8091    1.0375 C   0  0  0  0  0  0  0  0  0  0  0  0
    1.3121    1.4713    1.0455 O   0  0  0  0  0  0  0  0  0  0  0  0
   -0.3214    1.8569    3.3002 C   0  0  0  0  0  0  0  0  0  0  0  0
   -1.5155   -0.2781    3.5140 H   0  0  0  0  0  0  0  0  0  0  0  0
   -1.5466    1.8134    1.5581 H   0  0  0  0  0  0  0  0  0  0  0  0
    0.4116    1.2350    3.8240 H   0  0  0  0  0  0  0  0  0  0  0  0
    0.1617    2.7990    3.0222 H   0  0  0  0  0  0  0  0  0  0  0  0
   -1.1444    2.0868    3.9840 H   0  0  0  0  0  0  0  0  0  0  0  0
   -0.0280    0.1679   -0.1475 N   0  0  0  0  0  0  0  0  0  0  0  0
   -0.0379    0.9273   -1.4133 C   0  0  2  0  0  0  0  0  0  0  0  0
   -1.0407    2.0969   -1.4356 C   0  0  0  0  0  0  0  0  0  0  0  0
   -0.7052    3.1967   -1.8563 O   0  0  0  0  0  0  0  0  0  0  0  0
   -0.3646   -0.0205   -2.5809 C   0  0  0  0  0  0  0  0  0  0  0  0
    0.5673   -1.2098   -2.6276 C   0  0  0  0  0  0  0  0  0  0  0  0
    1.9161   -1.0434   -2.9755 C   0  0  0  0  0  0  0  0  0  0  0  0
    0.0983   -2.4952   -2.3148 C   0  0  0  0  0  0  0  0  0  0  0  0
    2.7782   -2.1450   -3.0059 C   0  0  0  0  0  0  0  0  0  0  0  0
    0.9652   -3.5940   -2.3486 C   0  0  0  0  0  0  0  0  0  0  0  0
    2.3071   -3.4189   -2.6938 C   0  0  0  0  0  0  0  0  0  0  0  0
    3.1614   -4.4832   -2.7276 O   0  0  0  0  0  0  0  0  0  0  0  0
   -0.8512   -0.4247   -0.0379 H   0  0  0  0  0  0  0  0  0  0  0  0
    0.9605    1.3501   -1.5741 H   0  0  0  0  0  0  0  0  0  0  0  0
   -0.2857    0.5299   -3.5245 H   0  0  0  0  0  0  0  0  0  0  0  0
   -1.4001   -0.3662   -2.4933 H   0  0  0  0  0  0  0  0  0  0  0  0
    2.3014   -0.0568   -3.2170 H   0  0  0  0  0  0  0  0  0  0  0  0
   -0.9424   -2.6440   -2.0419 H   0  0  0  0  0  0  0  0  0  0  0  0
    3.8229   -2.0166   -3.2696 H   0  0  0  0  0  0  0  0  0  0  0  0
    0.5864   -4.5798   -2.1039 H   0  0  0  0  0  0  0  0  0  0  0  0
    2.6917   -5.2952   -2.4838 H   0  0  0  0  0  0  0  0  0  0  0  0
   -2.3310    1.9313   -0.9650 N   0  0  0  0  0  0  0  0  0  0  0  0
   -3.2852    3.0329   -0.7793 C   0  0  2  0  0  0  0  0  0  0  0  0
   -2.9260    3.9054    0.4482 C   0  0  0  0  0  0  0  0  0  0  0  0
   -3.5975    3.8866    1.4737 O   0  0  0  0  0  0  0  0  0  0  0  0
   -4.6829    2.4104   -0.6784 C   0  0  0  0  0  0  0  0  0  0  0  0
   -2.5501    1.0309   -0.5293 H   0  0  0  0  0  0  0  0  0  0  0  0
   -3.2704    3.6849   -1.6591 H   0  0  0  0  0  0  0  0  0  0  0  0
   -4.7445    1.7372    0.1831 H   0  0  0  0  0  0  0  0  0  0  0  0
   -5.4383    3.1937   -0.5610 H   0  0  0  0  0  0  0  0  0  0  0  0
   -4.9128    1.8404   -1.5839 H   0  0  0  0  0  0  0  0  0  0  0  0
   -1.7658    4.6534    0.4209 N   0  0  0  0  0  0  0  0  0  0  0  0
   -1.2641    5.4273    1.5473 C   0  0  0  0  0  0  0  0  0  0  0  0
   -1.1684    4.5247   -0.4012 H   0  0  0  0  0  0  0  0  0  0  0  0
   -0.2737    5.8303    1.3149 H   0  0  0  0  0  0  0  0  0  0  0  0
   -1.9369    6.2629    1.7647 H   0  0  0  0  0  0  0  0  0  0  0  0
   -1.1805    4.8001    2.4402 H   0  0  0  0  0  0  0  0  0  0  0  0
  1  2  2  0  0  0  0
  1  3  1  0  0  0  0
  1  7  1  0  0  0  0
  3  4  1  0  0  0  0
  3  5  1  0  0  0  0
  3  6  1  0  0  0  0
  7  8  1  0  0  0  0
  7 12  1  0  0  0  0
  8  9  1  0  0  0  0
  8 11  1  0  0  0  0
  8 13  1  0  0  0  0
  9 10  2  0  0  0  0
  9 17  1  0  0  0  0
 11 14  1  0  0  0  0
 11 15  1  0  0  0  0
 11 16  1  0  0  0  0
 17 18  1  0  0  0  0
 17 29  1  0  0  0  0
 18 19  1  0  0  0  0
 18 21  1  0  0  0  0
 18 30  1  0  0  0  0
 19 20  2  0  0  0  0
 19 38  1  0  0  0  0
 21 22  1  0  0  0  0
 21 31  1  0  0  0  0
 21 32  1  0  0  0  0
 22 23  2  0  0  0  0
 22 24  1  0  0  0  0
 23 25  1  0  0  0  0
 23 33  1  0  0  0  0
 24 26  2  0  0  0  0
 24 34  1  0  0  0  0
 25 27  2  0  0  0  0
 25 35  1  0  0  0  0
 26 27  1  0  0  0  0
 26 36  1  0  0  0  0
 27 28  1  0  0  0  0
 28 37  1  0  0  0  0
 38 39  1  0  0  0  0
 38 43  1  0  0  0  0
 39 40  1  0  0  0  0
 39 42  1  0  0  0  0
 39 44  1  0  0  0  0
 40 41  2  0  0  0  0
 40 48  1  0  0  0  0
 42 45  1  0  0  0  0
 42 46  1  0  0  0  0
 42 47  1  0  0  0  0
 48 49  1  0  0  0  0
 48 50  1  0  0  0  0
 49 51  1  0  0  0  0
 49 52  1  0  0  0  0
 49 53  1  0  0  0  0
M  END
$$$$

  -OEChem-02062319143D

 53 53  0     1  0  0  0  0  0999 V2000
   -2.6585   -0.4539    1.5416 C   0  0  0  0  0  0  0  0  0  0  0  0
   -2.6985   -0.0180    0.3991 O   0  0  0  0  0  0  0  0  0  0  0  0
   -3.6735   -1.4819    2.0026 C   0  0  0  0  0  0  0  0  0  0  0  0
   -4.3919   -1.6886    1.2040 H   0  0  0  0  0  0  0  0  0  0  0  0
   -3.1688   -2.4133    2.2712 H   0  0  0  0  0  0  0  0  0  0  0  0
   -4.2163   -1.1056    2.8734 H   0  0  0  0  0  0  0  0  0  0  0  0
   -1.6390   -0.0611    2.3849 N   0  0  0  0  0  0  0  0  0  0  0  0
   -0.7399    1.0791    2.1294 C   0  0  2  0  0  0  0  0  0  0  0  0
    0.4050    0.7745    1.1278 C   0  0  0  0  0  0  0  0  0  0  0  0
    1.4590    1.3924    1.1923 O   0  0  0  0  0  0  0  0  0  0  0  0
   -0.2099    1.5370    3.4939 C   0  0  0  0  0  0  0  0  0  0  0  0
   -1.6622   -0.4389    3.3283 H   0  0  0  0  0  0  0  0  0  0  0  0
   -1.3224    1.9042    1.7077 H   0  0  0  0  0  0  0  0  0  0  0  0
    0.4050    0.7553    3.9507 H   0  0  0  0  0  0  0  0  0  0  0  0
    0.4031    2.4369    3.3830 H   0  0  0  0  0  0  0  0  0  0  0  0
   -1.0396    1.7734    4.1673 H   0  0  0  0  0  0  0  0  0  0  0  0
    0.0979    0.1422   -0.0627 N   0  0  0  0  0  0  0  0  0  0  0  0
    0.3934    0.7972   -1.3492 C   0  0  2  0  0  0  0  0  0  0  0  0
   -0.3438    2.1420   -1.4936 C   0  0  0  0  0  0  0  0  0  0  0  0
    0.2443    3.1408   -1.8884 O   0  0  0  0  0  0  0  0  0  0  0  0
   -0.0154   -0.1227   -2.5133 C   0  0  0  0  0  0  0  0  0  0  0  0
    0.5888   -1.5042   -2.3990 C   0  0  0  0  0  0  0  0  0  0  0  0
    1.9763   -1.6865   -2.4948 C   0  0  0  0  0  0  0  0  0  0  0  0
   -0.2323   -2.6246   -2.1973 C   0  0  0  0  0  0  0  0  0  0  0  0
    2.5290   -2.9674   -2.3879 C   0  0  0  0  0  0  0  0  0  0  0  0
    0.3259   -3.9043   -2.0946 C   0  0  0  0  0  0  0  0  0  0  0  0
    1.7086   -4.0763   -2.1891 C   0  0  0  0  0  0  0  0  0  0  0  0
    2.2634   -5.3200   -2.0917 O   0  0  0  0  0  0  0  0  0  0  0  0
   -0.8142   -0.3127   -0.0292 H   0  0  0  0  0  0  0  0  0  0  0  0
    1.4693    0.9949   -1.4126 H   0  0  0  0  0  0  0  0  0  0  0  0
    0.3055    0.3296   -3.4578 H   0  0  0  0  0  0  0  0  0  0  0  0
   -1.1071   -0.2024   -2.5470 H   0  0  0  0  0  0  0  0  0  0  0  0
    2.6311   -0.8335   -2.6486 H   0  0  0  0  0  0  0  0  0  0  0  0
   -1.3092   -2.5049   -2.1220 H   0  0  0  0  0  0  0  0  0  0  0  0
    3.6025   -3.1085   -2.4588 H   0  0  0  0  0  0  0  0  0  0  0  0
   -0.3235   -4.7592   -1.9422 H   0  0  0  0  0  0  0  0  0  0  0  0
    1.5687   -5.9887   -1.9933 H   0  0  0  0  0  0  0  0  0  0  0  0
   -1.6796    2.2440   -1.1463 N   0  0  0  0  0  0  0  0  0  0  0  0
   -2.3815    3.5237   -0.9898 C   0  0  2  0  0  0  0  0  0  0  0  0
   -1.9356    4.2651    0.2938 C   0  0  0  0  0  0  0  0  0  0  0  0
   -2.6659    4.3563    1.2747 O   0  0  0  0  0  0  0  0  0  0  0  0
   -3.8845    3.2226   -1.0093 C   0  0  0  0  0  0  0  0  0  0  0  0
   -2.1022    1.4182   -0.7135 H   0  0  0  0  0  0  0  0  0  0  0  0
   -2.1560    4.1753   -1.8406 H   0  0  0  0  0  0  0  0  0  0  0  0
   -4.1549    2.5564   -0.1836 H   0  0  0  0  0  0  0  0  0  0  0  0
   -4.4576    4.1496   -0.9090 H   0  0  0  0  0  0  0  0  0  0  0  0
   -4.1644    2.7419   -1.9514 H   0  0  0  0  0  0  0  0  0  0  0  0
   -0.6468    4.7535    0.3706 N   0  0  0  0  0  0  0  0  0  0  0  0
   -0.0660    5.3268    1.5762 C   0  0  0  0  0  0  0  0  0  0  0  0
   -0.0273    4.4983   -0.4042 H   0  0  0  0  0  0  0  0  0  0  0  0
   -0.6152    6.2257    1.8743 H   0  0  0  0  0  0  0  0  0  0  0  0
   -0.0967    4.6052    2.3981 H   0  0  0  0  0  0  0  0  0  0  0  0
    0.9777    5.6022    1.3966 H   0  0  0  0  0  0  0  0  0  0  0  0
  1  2  2  0  0  0  0
  1  3  1  0  0  0  0
  1  7  1  0  0  0  0
  3  4  1  0  0  0  0
  3  5  1  0  0  0  0
  3  6  1  0  0  0  0
  7  8  1  0  0  0  0
  7 12  1  0  0  0  0
  8  9  1  0  0  0  0
  8 11  1  0  0  0  0
  8 13  1  0  0  0  0
  9 10  2  0  0  0  0
  9 17  1  0  0  0  0
 11 14  1  0  0  0  0
 11 15  1  0  0  0  0
 11 16  1  0  0  0  0
 17 18  1  0  0  0  0
 17 29  1  0  0  0  0
 18 19  1  0  0  0  0
 18 21  1  0  0  0  0
 18 30  1  0  0  0  0
 19 20  2  0  0  0  0
 19 38  1  0  0  0  0
 21 22  1  0  0  0  0
 21 31  1  0  0  0  0
 21 32  1  0  0  0  0
 22 23  2  0  0  0  0
 22 24  1  0  0  0  0
 23 25  1  0  0  0  0
 23 33  1  0  0  0  0
 24 26  2  0  0  0  0
 24 34  1  0  0  0  0
 25 27  2  0  0  0  0
 25 35  1  0  0  0  0
 26 27  1  0  0  0  0
 26 36  1  0  0  0  0
 27 28  1  0  0  0  0
 28 37  1  0  0  0  0
 38 39  1  0  0  0  0
 38 43  1  0  0  0  0
 39 40  1  0  0  0  0
 39 42  1  0  0  0  0
 39 44  1  0  0  0  0
 40 41  2  0  0  0  0
 40 48  1  0  0  0  0
 42 45  1  0  0  0  0
 42 46  1  0  0  0  0
 42 47  1  0  0  0  0
 48 49  1  0  0  0  0
 48 50  1  0  0  0  0
 49 51  1  0  0  0  0
 49 52  1  0  0  0  0
 49 53  1  0  0  0  0
M  END
$$$$

  -OEChem-02062319143D

 53 53  0     1  0  0  0  0  0999 V2000
   -2.6263   -0.1532    1.3292 C   0  0  0  0  0  0  0  0  0  0  0  0
   -2.5475    0.4623    0.2751 O   0  0  0  0  0  0  0  0  0  0  0  0
   -3.8158   -1.0558    1.5938 C   0  0  0  0  0  0  0  0  0  0  0  0
   -4.5319   -0.9880    0.7697 H   0  0  0  0  0  0  0  0  0  0  0  0
   -3.4857   -2.0933    1.6886 H   0  0  0  0  0  0  0  0  0  0  0  0
   -4.3157   -0.7535    2.5174 H   0  0  0  0  0  0  0  0  0  0  0  0
   -1.5824   -0.1012    2.2318 N   0  0  0  0  0  0  0  0  0  0  0  0
   -0.4992    0.9009    2.1966 C   0  0  2  0  0  0  0  0  0  0  0  0
    0.5903    0.6471    1.1230 C   0  0  0  0  0  0  0  0  0  0  0  0
    1.6892    1.1773    1.2146 O   0  0  0  0  0  0  0  0  0  0  0  0
    0.1015    0.9528    3.6067 C   0  0  0  0  0  0  0  0  0  0  0  0
   -1.7087   -0.6227    3.0950 H   0  0  0  0  0  0  0  0  0  0  0  0
   -0.9331    1.8830    1.9784 H   0  0  0  0  0  0  0  0  0  0  0  0
    0.5735   -0.0019    3.8593 H   0  0  0  0  0  0  0  0  0  0  0  0
    0.8598    1.7396    3.6715 H   0  0  0  0  0  0  0  0  0  0  0  0
   -0.6754    1.1701    4.3459 H   0  0  0  0  0  0  0  0  0  0  0  0
    0.2279    0.0751   -0.0815 N   0  0  0  0  0  0  0  0  0  0  0  0
    0.7269    0.6015   -1.3615 C   0  0  2  0  0  0  0  0  0  0  0  0
    0.3001    2.0696   -1.5510 C   0  0  0  0  0  0  0  0  0  0  0  0
    1.1111    2.9223   -1.8901 O   0  0  0  0  0  0  0  0  0  0  0  0
    0.1810   -0.2423   -2.5275 C   0  0  0  0  0  0  0  0  0  0  0  0
    0.3853   -1.7257   -2.3124 C   0  0  0  0  0  0  0  0  0  0  0  0
    1.6772   -2.2714   -2.2843 C   0  0  0  0  0  0  0  0  0  0  0  0
   -0.7170   -2.5762   -2.1319 C   0  0  0  0  0  0  0  0  0  0  0  0
    1.8595   -3.6430   -2.0765 C   0  0  0  0  0  0  0  0  0  0  0  0
   -0.5285   -3.9486   -1.9276 C   0  0  0  0  0  0  0  0  0  0  0  0
    0.7617   -4.4828   -1.8995 C   0  0  0  0  0  0  0  0  0  0  0  0
    0.9585   -5.8194   -1.7029 O   0  0  0  0  0  0  0  0  0  0  0  0
   -0.7417   -0.2378   -0.0923 H   0  0  0  0  0  0  0  0  0  0  0  0
    1.8213    0.5591   -1.3684 H   0  0  0  0  0  0  0  0  0  0  0  0
    0.6817    0.0595   -3.4535 H   0  0  0  0  0  0  0  0  0  0  0  0
   -0.8869   -0.0374   -2.6566 H   0  0  0  0  0  0  0  0  0  0  0  0
    2.5447   -1.6314   -2.4186 H   0  0  0  0  0  0  0  0  0  0  0  0
   -1.7254   -2.1731   -2.1517 H   0  0  0  0  0  0  0  0  0  0  0  0
    2.8586   -4.0657   -2.0519 H   0  0  0  0  0  0  0  0  0  0  0  0
   -1.3909   -4.5923   -1.7932 H   0  0  0  0  0  0  0  0  0  0  0  0
    0.1067   -6.2789   -1.6516 H   0  0  0  0  0  0  0  0  0  0  0  0
   -1.0009    2.4498   -1.2658 N   0  0  0  0  0  0  0  0  0  0  0  0
   -1.3849    3.8456   -1.0218 C   0  0  2  0  0  0  0  0  0  0  0  0
   -0.8577    4.3376    0.3482 C   0  0  0  0  0  0  0  0  0  0  0  0
   -1.6032    4.4943    1.3094 O   0  0  0  0  0  0  0  0  0  0  0  0
   -2.9115    3.9265   -1.1364 C   0  0  0  0  0  0  0  0  0  0  0  0
   -1.5925    1.7289   -0.8429 H   0  0  0  0  0  0  0  0  0  0  0  0
   -0.9533    4.4921   -1.7934 H   0  0  0  0  0  0  0  0  0  0  0  0
   -3.3889    3.2777   -0.3947 H   0  0  0  0  0  0  0  0  0  0  0  0
   -3.2500    4.9536   -0.9682 H   0  0  0  0  0  0  0  0  0  0  0  0
   -3.2347    3.6133   -2.1336 H   0  0  0  0  0  0  0  0  0  0  0  0
    0.5022    4.5065    0.5176 N   0  0  0  0  0  0  0  0  0  0  0  0
    1.1311    4.7517    1.8077 C   0  0  0  0  0  0  0  0  0  0  0  0
    1.0860    4.1683   -0.2527 H   0  0  0  0  0  0  0  0  0  0  0  0
    0.6923    5.6319    2.2890 H   0  0  0  0  0  0  0  0  0  0  0  0
    1.0030    3.8868    2.4656 H   0  0  0  0  0  0  0  0  0  0  0  0
    2.2024    4.9309    1.6747 H   0  0  0  0  0  0  0  0  0  0  0  0
  1  2  2  0  0  0  0
  1  3  1  0  0  0  0
  1  7  1  0  0  0  0
  3  4  1  0  0  0  0
  3  5  1  0  0  0  0
  3  6  1  0  0  0  0
  7  8  1  0  0  0  0
  7 12  1  0  0  0  0
  8  9  1  0  0  0  0
  8 11  1  0  0  0  0
  8 13  1  0  0  0  0
  9 10  2  0  0  0  0
  9 17  1  0  0  0  0
 11 14  1  0  0  0  0
 11 15  1  0  0  0  0
 11 16  1  0  0  0  0
 17 18  1  0  0  0  0
 17 29  1  0  0  0  0
 18 19  1  0  0  0  0
 18 21  1  0  0  0  0
 18 30  1  0  0  0  0
 19 20  2  0  0  0  0
 19 38  1  0  0  0  0
 21 22  1  0  0  0  0
 21 31  1  0  0  0  0
 21 32  1  0  0  0  0
 22 23  2  0  0  0  0
 22 24  1  0  0  0  0
 23 25  1  0  0  0  0
 23 33  1  0  0  0  0
 24 26  2  0  0  0  0
 24 34  1  0  0  0  0
 25 27  2  0  0  0  0
 25 35  1  0  0  0  0
 26 27  1  0  0  0  0
 26 36  1  0  0  0  0
 27 28  1  0  0  0  0
 28 37  1  0  0  0  0
 38 39  1  0  0  0  0
 38 43  1  0  0  0  0
 39 40  1  0  0  0  0
 39 42  1  0  0  0  0
 39 44  1  0  0  0  0
 40 41  2  0  0  0  0
 40 48  1  0  0  0  0
 42 45  1  0  0  0  0
 42 46  1  0  0  0  0
 42 47  1  0  0  0  0
 48 49  1  0  0  0  0
 48 50  1  0  0  0  0
 49 51  1  0  0  0  0
 49 52  1  0  0  0  0
 49 53  1  0  0  0  0
M  END
$$$$

  -OEChem-02062319143D

 53 53  0     1  0  0  0  0  0999 V2000
   -2.0254   -1.4015    3.4781 C   0  0  0  0  0  0  0  0  0  0  0  0
   -2.6290   -2.1188    2.6952 O   0  0  0  0  0  0  0  0  0  0  0  0
   -1.7017   -1.8970    4.8750 C   0  0  0  0  0  0  0  0  0  0  0  0
   -2.1225   -2.8946    5.0279 H   0  0  0  0  0  0  0  0  0  0  0  0
   -0.6185   -1.9469    5.0119 H   0  0  0  0  0  0  0  0  0  0  0  0
   -2.1255   -1.2188    5.6195 H   0  0  0  0  0  0  0  0  0  0  0  0
   -1.6121   -0.1460    3.0839 N   0  0  0  0  0  0  0  0  0  0  0  0
   -1.6559    0.3041    1.6866 C   0  0  2  0  0  0  0  0  0  0  0  0
   -0.3388   -0.0081    0.9455 C   0  0  0  0  0  0  0  0  0  0  0  0
    0.7287    0.1920    1.5117 O   0  0  0  0  0  0  0  0  0  0  0  0
   -1.9366    1.8089    1.6964 C   0  0  0  0  0  0  0  0  0  0  0  0
   -0.9426    0.3145    3.6956 H   0  0  0  0  0  0  0  0  0  0  0  0
   -2.4731   -0.1924    1.1527 H   0  0  0  0  0  0  0  0  0  0  0  0
   -1.1433    2.3445    2.2269 H   0  0  0  0  0  0  0  0  0  0  0  0
   -1.9948    2.1977    0.6760 H   0  0  0  0  0  0  0  0  0  0  0  0
   -2.8875    2.0143    2.1975 H   0  0  0  0  0  0  0  0  0  0  0  0
   -0.3388   -0.1574   -0.4308 N   0  0  0  0  0  0  0  0  0  0  0  0
    0.8151    0.1674   -1.2907 C   0  0  2  0  0  0  0  0  0  0  0  0
    1.2407    1.6441   -1.1936 C   0  0  0  0  0  0  0  0  0  0  0  0
    2.4222    1.9488   -1.0968 O   0  0  0  0  0  0  0  0  0  0  0  0
    0.4867   -0.1612   -2.7579 C   0  0  0  0  0  0  0  0  0  0  0  0
    0.0378   -1.5937   -2.9312 C   0  0  0  0  0  0  0  0  0  0  0  0
    0.9551   -2.6441   -2.7807 C   0  0  0  0  0  0  0  0  0  0  0  0
   -1.2968   -1.8952   -3.2469 C   0  0  0  0  0  0  0  0  0  0  0  0
    0.5409   -3.9711   -2.9363 C   0  0  0  0  0  0  0  0  0  0  0  0
   -1.7055   -3.2256   -3.3992 C   0  0  0  0  0  0  0  0  0  0  0  0
   -0.7858   -4.2651   -3.2437 C   0  0  0  0  0  0  0  0  0  0  0  0
   -1.1709   -5.5661   -3.3922 O   0  0  0  0  0  0  0  0  0  0  0  0
   -1.2134   -0.4295   -0.8714 H   0  0  0  0  0  0  0  0  0  0  0  0
    1.6694   -0.4414   -0.9734 H   0  0  0  0  0  0  0  0  0  0  0  0
    1.3775    0.0099   -3.3724 H   0  0  0  0  0  0  0  0  0  0  0  0
   -0.2915    0.5170   -3.1227 H   0  0  0  0  0  0  0  0  0  0  0  0
    1.9941   -2.4351   -2.5416 H   0  0  0  0  0  0  0  0  0  0  0  0
   -2.0232   -1.0994   -3.3817 H   0  0  0  0  0  0  0  0  0  0  0  0
    1.2489   -4.7853   -2.8186 H   0  0  0  0  0  0  0  0  0  0  0  0
   -2.7396   -3.4435   -3.6432 H   0  0  0  0  0  0  0  0  0  0  0  0
   -2.1240   -5.6164   -3.5620 H   0  0  0  0  0  0  0  0  0  0  0  0
    0.2888    2.6478   -1.2226 N   0  0  0  0  0  0  0  0  0  0  0  0
    0.5903    4.0398   -0.8607 C   0  0  2  0  0  0  0  0  0  0  0  0
    0.7450    4.1994    0.6708 C   0  0  0  0  0  0  0  0  0  0  0  0
   -0.0978    4.7853    1.3410 O   0  0  0  0  0  0  0  0  0  0  0  0
   -0.5165    4.9236   -1.4473 C   0  0  0  0  0  0  0  0  0  0  0  0
   -0.6766    2.3427   -1.1578 H   0  0  0  0  0  0  0  0  0  0  0  0
    1.5375    4.3459   -1.3181 H   0  0  0  0  0  0  0  0  0  0  0  0
   -1.4908    4.6580   -1.0247 H   0  0  0  0  0  0  0  0  0  0  0  0
   -0.3175    5.9761   -1.2216 H   0  0  0  0  0  0  0  0  0  0  0  0
   -0.5615    4.8059   -2.5341 H   0  0  0  0  0  0  0  0  0  0  0  0
    1.8056    3.5813    1.3024 N   0  0  0  0  0  0  0  0  0  0  0  0
    1.9259    3.4641    2.7487 C   0  0  0  0  0  0  0  0  0  0  0  0
    2.3667    2.9584    0.7149 H   0  0  0  0  0  0  0  0  0  0  0  0
    1.8307    4.4456    3.2252 H   0  0  0  0  0  0  0  0  0  0  0  0
    1.1495    2.8014    3.1440 H   0  0  0  0  0  0  0  0  0  0  0  0
    2.9038    3.0489    3.0108 H   0  0  0  0  0  0  0  0  0  0  0  0
  1  2  2  0  0  0  0
  1  3  1  0  0  0  0
  1  7  1  0  0  0  0
  3  4  1  0  0  0  0
  3  5  1  0  0  0  0
  3  6  1  0  0  0  0
  7  8  1  0  0  0  0
  7 12  1  0  0  0  0
  8  9  1  0  0  0  0
  8 11  1  0  0  0  0
  8 13  1  0  0  0  0
  9 10  2  0  0  0  0
  9 17  1  0  0  0  0
 11 14  1  0  0  0  0
 11 15  1  0  0  0  0
 11 16  1  0  0  0  0
 17 18  1  0  0  0  0
 17 29  1  0  0  0  0
 18 19  1  0  0  0  0
 18 21  1  0  0  0  0
 18 30  1  0  0  0  0
 19 20  2  0  0  0  0
 19 38  1  0  0  0  0
 21 22  1  0  0  0  0
 21 31  1  0  0  0  0
 21 32  1  0  0  0  0
 22 23  2  0  0  0  0
 22 24  1  0  0  0  0
 23 25  1  0  0  0  0
 23 33  1  0  0  0  0
 24 26  2  0  0  0  0
 24 34  1  0  0  0  0
 25 27  2  0  0  0  0
 25 35  1  0  0  0  0
 26 27  1  0  0  0  0
 26 36  1  0  0  0  0
 27 28  1  0  0  0  0
 28 37  1  0  0  0  0
 38 39  1  0  0  0  0
 38 43  1  0  0  0  0
 39 40  1  0  0  0  0
 39 42  1  0  0  0  0
 39 44  1  0  0  0  0
 40 41  2  0  0  0  0
 40 48  1  0  0  0  0
 42 45  1  0  0  0  0
 42 46  1  0  0  0  0
 42 47  1  0  0  0  0
 48 49  1  0  0  0  0
 48 50  1  0  0  0  0
 49 51  1  0  0  0  0
 49 52  1  0  0  0  0
 49 53  1  0  0  0  0
M  END
$$$$

  -OEChem-02062319143D

 53 53  0     1  0  0  0  0  0999 V2000
   -2.1908   -1.1017    3.7954 C   0  0  0  0  0  0  0  0  0  0  0  0
   -3.2798   -1.3677    3.3118 O   0  0  0  0  0  0  0  0  0  0  0  0
   -1.8368   -1.5879    5.1881 C   0  0  0  0  0  0  0  0  0  0  0  0
   -2.7083   -2.0527    5.6577 H   0  0  0  0  0  0  0  0  0  0  0  0
   -1.0315   -2.3244    5.1316 H   0  0  0  0  0  0  0  0  0  0  0  0
   -1.5106   -0.7480    5.8064 H   0  0  0  0  0  0  0  0  0  0  0  0
   -1.2730   -0.3720    3.0699 N   0  0  0  0  0  0  0  0  0  0  0  0
   -1.4415    0.0095    1.6617 C   0  0  2  0  0  0  0  0  0  0  0  0
   -0.1484   -0.2183    0.8544 C   0  0  0  0  0  0  0  0  0  0  0  0
    0.9376   -0.1917    1.4203 O   0  0  0  0  0  0  0  0  0  0  0  0
   -1.8418    1.4874    1.6187 C   0  0  0  0  0  0  0  0  0  0  0  0
   -0.3378   -0.2782    3.4635 H   0  0  0  0  0  0  0  0  0  0  0  0
   -2.2297   -0.5921    1.1965 H   0  0  0  0  0  0  0  0  0  0  0  0
   -1.0589    2.1113    2.0637 H   0  0  0  0  0  0  0  0  0  0  0  0
   -2.0016    1.8138    0.5872 H   0  0  0  0  0  0  0  0  0  0  0  0
   -2.7702    1.6440    2.1770 H   0  0  0  0  0  0  0  0  0  0  0  0
   -0.1857   -0.2890   -0.5275 N   0  0  0  0  0  0  0  0  0  0  0  0
    1.0077   -0.1871   -1.3882 C   0  0  2  0  0  0  0  0  0  0  0  0
    1.7444    1.1541   -1.2121 C   0  0  0  0  0  0  0  0  0  0  0  0
    2.9617    1.1928   -1.0914 O   0  0  0  0  0  0  0  0  0  0  0  0
    0.6088   -0.3634   -2.8644 C   0  0  0  0  0  0  0  0  0  0  0  0
   -0.2081   -1.6175   -3.0790 C   0  0  0  0  0  0  0  0  0  0  0  0
    0.3731   -2.8815   -2.8982 C   0  0  0  0  0  0  0  0  0  0  0  0
   -1.5589   -1.5365   -3.4532 C   0  0  0  0  0  0  0  0  0  0  0  0
   -0.3889   -4.0408   -3.0773 C   0  0  0  0  0  0  0  0  0  0  0  0
   -2.3159   -2.7008   -3.6311 C   0  0  0  0  0  0  0  0  0  0  0  0
   -1.7310   -3.9545   -3.4413 C   0  0  0  0  0  0  0  0  0  0  0  0
   -2.4589   -5.0967   -3.6090 O   0  0  0  0  0  0  0  0  0  0  0  0
   -1.0856   -0.4716   -0.9649 H   0  0  0  0  0  0  0  0  0  0  0  0
    1.7081   -0.9830   -1.1118 H   0  0  0  0  0  0  0  0  0  0  0  0
    1.5142   -0.4143   -3.4793 H   0  0  0  0  0  0  0  0  0  0  0  0
    0.0398    0.5104   -3.1990 H   0  0  0  0  0  0  0  0  0  0  0  0
    1.4180   -2.9703   -2.6139 H   0  0  0  0  0  0  0  0  0  0  0  0
   -2.0284   -0.5699   -3.6118 H   0  0  0  0  0  0  0  0  0  0  0  0
    0.0577   -5.0196   -2.9335 H   0  0  0  0  0  0  0  0  0  0  0  0
   -3.3587   -2.6230   -3.9200 H   0  0  0  0  0  0  0  0  0  0  0  0
   -3.3732   -4.8814   -3.8495 H   0  0  0  0  0  0  0  0  0  0  0  0
    1.0210    2.3327   -1.1729 N   0  0  0  0  0  0  0  0  0  0  0  0
    1.5907    3.5952   -0.6855 C   0  0  2  0  0  0  0  0  0  0  0  0
    1.6887    3.5942    0.8581 C   0  0  0  0  0  0  0  0  0  0  0  0
    0.9203    4.2562    1.5468 O   0  0  0  0  0  0  0  0  0  0  0  0
    0.7247    4.7359   -1.2320 C   0  0  0  0  0  0  0  0  0  0  0  0
    0.0142    2.2219   -1.1083 H   0  0  0  0  0  0  0  0  0  0  0  0
    2.6044    3.7269   -1.0792 H   0  0  0  0  0  0  0  0  0  0  0  0
   -0.3056    4.6459   -0.8731 H   0  0  0  0  0  0  0  0  0  0  0  0
    1.1220    5.7019   -0.9043 H   0  0  0  0  0  0  0  0  0  0  0  0
    0.7178    4.7172   -2.3260 H   0  0  0  0  0  0  0  0  0  0  0  0
    2.5902    2.7445    1.4671 N   0  0  0  0  0  0  0  0  0  0  0  0
    2.5771    2.4626    2.8955 C   0  0  0  0  0  0  0  0  0  0  0  0
    3.0468    2.0720    0.8456 H   0  0  0  0  0  0  0  0  0  0  0  0
    2.6996    3.3856    3.4715 H   0  0  0  0  0  0  0  0  0  0  0  0
    1.6331    1.9883    3.1825 H   0  0  0  0  0  0  0  0  0  0  0  0
    3.3970    1.7852    3.1516 H   0  0  0  0  0  0  0  0  0  0  0  0
  1  2  2  0  0  0  0
  1  3  1  0  0  0  0
  1  7  1  0  0  0  0
  3  4  1  0  0  0  0
  3  5  1  0  0  0  0
  3  6  1  0  0  0  0
  7  8  1  0  0  0  0
  7 12  1  0  0  0  0
  8  9  1  0  0  0  0
  8 11  1  0  0  0  0
  8 13  1  0  0  0  0
  9 10  2  0  0  0  0
  9 17  1  0  0  0  0
 11 14  1  0  0  0  0
 11 15  1  0  0  0  0
 11 16  1  0  0  0  0
 17 18  1  0  0  0  0
 17 29  1  0  0  0  0
 18 19  1  0  0  0  0
 18 21  1  0  0  0  0
 18 30  1  0  0  0  0
 19 20  2  0  0  0  0
 19 38  1  0  0  0  0
 21 22  1  0  0  0  0
 21 31  1  0  0  0  0
 21 32  1  0  0  0  0
 22 23  2  0  0  0  0
 22 24  1  0  0  0  0
 23 25  1  0  0  0  0
 23 33  1  0  0  0  0
 24 26  2  0  0  0  0
 24 34  1  0  0  0  0
 25 27  2  0  0  0  0
 25 35  1  0  0  0  0
 26 27  1  0  0  0  0
 26 36  1  0  0  0  0
 27 28  1  0  0  0  0
 28 37  1  0  0  0  0
 38 39  1  0  0  0  0
 38 43  1  0  0  0  0
 39 40  1  0  0  0  0
 39 42  1  0  0  0  0
 39 44  1  0  0  0  0
 40 41  2  0  0  0  0
 40 48  1  0  0  0  0
 42 45  1  0  0  0  0
 42 46  1  0  0  0  0
 42 47  1  0  0  0  0
 48 49  1  0  0  0  0
 48 50  1  0  0  0  0
 49 51  1  0  0  0  0
 49 52  1  0  0  0  0
 49 53  1  0  0  0  0
M  END
$$$$
