
  -OEChem-05262214473D

 49 49  0     1  0  0  0  0  0999 V2000
   -1.6183    0.5613    3.8201 C   0  0  0  0  0  0  0  0  0  0  0  0
   -0.6710   -0.0534    3.3444 O   0  0  0  0  0  0  0  0  0  0  0  0
   -2.0502    0.2789    5.2208 C   0  0  0  0  0  0  0  0  0  0  0  0
   -2.8099   -0.5175    5.2742 H   0  0  0  0  0  0  0  0  0  0  0  0
   -1.2190   -0.0687    5.8551 H   0  0  0  0  0  0  0  0  0  0  0  0
   -2.4882    1.1338    5.7604 H   0  0  0  0  0  0  0  0  0  0  0  0
   -2.3680    1.5337    3.1790 N   0  0  0  0  0  0  0  0  0  0  0  0
   -2.1212    1.9597    1.8266 C   0  0  2  0  0  0  0  0  0  0  0  0
   -0.7862    1.3744    1.3854 C   0  0  0  0  0  0  0  0  0  0  0  0
    0.0859    1.0216    2.1767 O   0  0  0  0  0  0  0  0  0  0  0  0
   -2.1124    3.4765    1.7171 C   0  0  0  0  0  0  0  0  0  0  0  0
   -3.1331    1.9695    3.6908 H   0  0  0  0  0  0  0  0  0  0  0  0
   -2.9253    1.5413    1.2115 H   0  0  0  0  0  0  0  0  0  0  0  0
   -1.3133    3.9138    2.3268 H   0  0  0  0  0  0  0  0  0  0  0  0
   -1.9529    3.7988    0.6829 H   0  0  0  0  0  0  0  0  0  0  0  0
   -3.0626    3.8977    2.0629 H   0  0  0  0  0  0  0  0  0  0  0  0
   -0.6635    1.3313    0.0020 N   0  0  0  0  0  0  0  0  0  0  0  0
    0.5138    0.8305   -0.6617 C   0  0  2  0  0  0  0  0  0  0  0  0
    0.2692    0.9458   -2.1620 C   0  0  0  0  0  0  0  0  0  0  0  0
   -0.7545    1.4325   -2.6376 O   0  0  0  0  0  0  0  0  0  0  0  0
    0.8185   -0.6231   -0.2816 C   0  0  0  0  0  0  0  0  0  0  0  0
    1.1520   -0.7862    1.1812 C   0  0  0  0  0  0  0  0  0  0  0  0
    2.3729   -0.3905    1.6676 N   0  0  0  0  0  0  0  0  0  0  0  0
    0.3656   -1.3099    2.1802 C   0  0  0  0  0  0  0  0  0  0  0  0
    2.3287   -0.6708    2.9512 C   0  0  0  0  0  0  0  0  0  0  0  0
    1.1330   -1.2296    3.3079 N   0  0  0  0  0  0  0  0  0  0  0  0
   -1.4467    1.6280   -0.5753 H   0  0  0  0  0  0  0  0  0  0  0  0
    1.3381    1.4963   -0.3802 H   0  0  0  0  0  0  0  0  0  0  0  0
    1.6435   -1.0115   -0.8941 H   0  0  0  0  0  0  0  0  0  0  0  0
   -0.0397   -1.2679   -0.5125 H   0  0  0  0  0  0  0  0  0  0  0  0
   -0.6344   -1.7190    2.1946 H   0  0  0  0  0  0  0  0  0  0  0  0
    3.1181   -0.4964    3.6686 H   0  0  0  0  0  0  0  0  0  0  0  0
    0.8655   -1.5280    4.2364 H   0  0  0  0  0  0  0  0  0  0  0  0
    1.3503    0.4868   -2.9015 N   0  0  0  0  0  0  0  0  0  0  0  0
    1.3886    0.5048   -4.3462 C   0  0  2  0  0  0  0  0  0  0  0  0
    0.1022   -0.1293   -4.8586 C   0  0  0  0  0  0  0  0  0  0  0  0
   -0.5781   -0.9026   -4.1876 O   0  0  0  0  0  0  0  0  0  0  0  0
    2.6075   -0.2338   -4.8766 C   0  0  0  0  0  0  0  0  0  0  0  0
    2.1552    0.1198   -2.4022 H   0  0  0  0  0  0  0  0  0  0  0  0
    1.4234    1.5571   -4.6485 H   0  0  0  0  0  0  0  0  0  0  0  0
    2.5902   -1.2899   -4.5837 H   0  0  0  0  0  0  0  0  0  0  0  0
    2.6503   -0.1948   -5.9701 H   0  0  0  0  0  0  0  0  0  0  0  0
    3.5308    0.2051   -4.4833 H   0  0  0  0  0  0  0  0  0  0  0  0
   -0.1739    0.2361   -6.1687 N   0  0  0  0  0  0  0  0  0  0  0  0
   -1.3327   -0.2443   -6.8844 C   0  0  0  0  0  0  0  0  0  0  0  0
    0.4350    0.8973   -6.6420 H   0  0  0  0  0  0  0  0  0  0  0  0
   -1.0675   -1.1529   -7.4449 H   0  0  0  0  0  0  0  0  0  0  0  0
   -2.1354   -0.4761   -6.1689 H   0  0  0  0  0  0  0  0  0  0  0  0
   -1.6783    0.5305   -7.5847 H   0  0  0  0  0  0  0  0  0  0  0  0
 22 24  2  0  0  0  0
 24 26  1  0  0  0  0
 23 25  2  0  0  0  0
 25 26  1  0  0  0  0
 21 22  1  0  0  0  0
 22 23  1  0  0  0  0
  1  3  1  0  0  0  0
  1  7  1  0  0  0  0
  1  2  2  0  0  0  0
 35 36  1  0  0  0  0
 36 44  1  0  0  0  0
 36 37  2  0  0  0  0
  8  9  1  0  0  0  0
  9 17  1  0  0  0  0
  9 10  2  0  0  0  0
 18 19  1  0  0  0  0
 19 34  1  0  0  0  0
 19 20  2  0  0  0  0
 35 38  1  0  0  0  0
  8 11  1  0  0  0  0
 44 45  1  0  0  0  0
 18 21  1  0  0  0  0
 34 35  1  0  0  0  0
  7  8  1  0  0  0  0
 17 18  1  0  0  0  0
 24 31  1  0  0  0  0
 25 32  1  0  0  0  0
  3  4  1  0  0  0  0
  3  5  1  0  0  0  0
  3  6  1  0  0  0  0
 38 41  1  0  0  0  0
 38 42  1  0  0  0  0
 38 43  1  0  0  0  0
 11 14  1  0  0  0  0
 11 15  1  0  0  0  0
 11 16  1  0  0  0  0
 45 47  1  0  0  0  0
 45 48  1  0  0  0  0
 45 49  1  0  0  0  0
 21 29  1  0  0  0  0
 21 30  1  0  0  0  0
 35 40  1  0  0  0  0
  8 13  1  0  0  0  0
 18 28  1  0  0  0  0
 26 33  1  0  0  0  0
 44 46  1  0  0  0  0
  7 12  1  0  0  0  0
 34 39  1  0  0  0  0
 17 27  1  0  0  0  0
M  END
$$$$

  -OEChem-05262214473D

 49 49  0     1  0  0  0  0  0999 V2000
   -1.6183    0.5613    3.8201 C   0  0  0  0  0  0  0  0  0  0  0  0
   -0.6710   -0.0534    3.3444 O   0  0  0  0  0  0  0  0  0  0  0  0
   -2.0502    0.2789    5.2208 C   0  0  0  0  0  0  0  0  0  0  0  0
   -2.8099   -0.5175    5.2742 H   0  0  0  0  0  0  0  0  0  0  0  0
   -1.2190   -0.0687    5.8551 H   0  0  0  0  0  0  0  0  0  0  0  0
   -2.4882    1.1338    5.7604 H   0  0  0  0  0  0  0  0  0  0  0  0
   -2.3680    1.5337    3.1790 N   0  0  0  0  0  0  0  0  0  0  0  0
   -2.1212    1.9597    1.8266 C   0  0  2  0  0  0  0  0  0  0  0  0
   -0.7862    1.3744    1.3854 C   0  0  0  0  0  0  0  0  0  0  0  0
    0.0859    1.0216    2.1767 O   0  0  0  0  0  0  0  0  0  0  0  0
   -2.1124    3.4765    1.7171 C   0  0  0  0  0  0  0  0  0  0  0  0
   -3.1331    1.9695    3.6908 H   0  0  0  0  0  0  0  0  0  0  0  0
   -2.9253    1.5413    1.2115 H   0  0  0  0  0  0  0  0  0  0  0  0
   -1.3133    3.9138    2.3268 H   0  0  0  0  0  0  0  0  0  0  0  0
   -1.9529    3.7988    0.6829 H   0  0  0  0  0  0  0  0  0  0  0  0
   -3.0626    3.8977    2.0629 H   0  0  0  0  0  0  0  0  0  0  0  0
   -0.6635    1.3313    0.0020 N   0  0  0  0  0  0  0  0  0  0  0  0
    0.5138    0.8305   -0.6617 C   0  0  2  0  0  0  0  0  0  0  0  0
    0.2692    0.9458   -2.1620 C   0  0  0  0  0  0  0  0  0  0  0  0
   -0.6086    1.6586   -2.6440 O   0  0  0  0  0  0  0  0  0  0  0  0
    0.8185   -0.6231   -0.2816 C   0  0  0  0  0  0  0  0  0  0  0  0
    1.1520   -0.7862    1.1812 C   0  0  0  0  0  0  0  0  0  0  0  0
    2.3729   -0.3905    1.6676 N   0  0  0  0  0  0  0  0  0  0  0  0
    0.3656   -1.3099    2.1802 C   0  0  0  0  0  0  0  0  0  0  0  0
    2.3287   -0.6708    2.9512 C   0  0  0  0  0  0  0  0  0  0  0  0
    1.1330   -1.2296    3.3079 N   0  0  0  0  0  0  0  0  0  0  0  0
   -1.4467    1.6280   -0.5753 H   0  0  0  0  0  0  0  0  0  0  0  0
    1.3381    1.4963   -0.3802 H   0  0  0  0  0  0  0  0  0  0  0  0
    1.6435   -1.0115   -0.8941 H   0  0  0  0  0  0  0  0  0  0  0  0
   -0.0397   -1.2679   -0.5125 H   0  0  0  0  0  0  0  0  0  0  0  0
   -0.6344   -1.7190    2.1946 H   0  0  0  0  0  0  0  0  0  0  0  0
    3.1181   -0.4964    3.6686 H   0  0  0  0  0  0  0  0  0  0  0  0
    0.8655   -1.5280    4.2364 H   0  0  0  0  0  0  0  0  0  0  0  0
    1.1792    0.1977   -2.8958 N   0  0  0  0  0  0  0  0  0  0  0  0
    1.1848    0.1490   -4.3403 C   0  0  2  0  0  0  0  0  0  0  0  0
   -0.2330   -0.1554   -4.8060 C   0  0  0  0  0  0  0  0  0  0  0  0
   -1.0706   -0.7028   -4.0920 O   0  0  0  0  0  0  0  0  0  0  0  0
    2.1621   -0.8963   -4.8549 C   0  0  0  0  0  0  0  0  0  0  0  0
    1.8765   -0.3428   -2.3924 H   0  0  0  0  0  0  0  0  0  0  0  0
    1.4785    1.1450   -4.6892 H   0  0  0  0  0  0  0  0  0  0  0  0
    1.8841   -1.9007   -4.5155 H   0  0  0  0  0  0  0  0  0  0  0  0
    2.1861   -0.9121   -5.9496 H   0  0  0  0  0  0  0  0  0  0  0  0
    3.1762   -0.6925   -4.4945 H   0  0  0  0  0  0  0  0  0  0  0  0
   -0.4397    0.2170   -6.1269 N   0  0  0  0  0  0  0  0  0  0  0  0
   -1.7001    0.0206   -6.8042 C   0  0  0  0  0  0  0  0  0  0  0  0
    0.3053    0.6819   -6.6374 H   0  0  0  0  0  0  0  0  0  0  0  0
   -1.6888   -0.9468   -7.3277 H   0  0  0  0  0  0  0  0  0  0  0  0
   -2.5172    0.0293   -6.0678 H   0  0  0  0  0  0  0  0  0  0  0  0
   -1.8546    0.8299   -7.5329 H   0  0  0  0  0  0  0  0  0  0  0  0
 22 24  2  0  0  0  0
 24 26  1  0  0  0  0
 23 25  2  0  0  0  0
 25 26  1  0  0  0  0
 21 22  1  0  0  0  0
 22 23  1  0  0  0  0
  1  3  1  0  0  0  0
  1  7  1  0  0  0  0
  1  2  2  0  0  0  0
 35 36  1  0  0  0  0
 36 44  1  0  0  0  0
 36 37  2  0  0  0  0
  8  9  1  0  0  0  0
  9 17  1  0  0  0  0
  9 10  2  0  0  0  0
 18 19  1  0  0  0  0
 19 34  1  0  0  0  0
 19 20  2  0  0  0  0
 35 38  1  0  0  0  0
  8 11  1  0  0  0  0
 44 45  1  0  0  0  0
 18 21  1  0  0  0  0
 34 35  1  0  0  0  0
  7  8  1  0  0  0  0
 17 18  1  0  0  0  0
 24 31  1  0  0  0  0
 25 32  1  0  0  0  0
  3  4  1  0  0  0  0
  3  5  1  0  0  0  0
  3  6  1  0  0  0  0
 38 41  1  0  0  0  0
 38 42  1  0  0  0  0
 38 43  1  0  0  0  0
 11 14  1  0  0  0  0
 11 15  1  0  0  0  0
 11 16  1  0  0  0  0
 45 47  1  0  0  0  0
 45 48  1  0  0  0  0
 45 49  1  0  0  0  0
 21 29  1  0  0  0  0
 21 30  1  0  0  0  0
 35 40  1  0  0  0  0
  8 13  1  0  0  0  0
 18 28  1  0  0  0  0
 26 33  1  0  0  0  0
 44 46  1  0  0  0  0
  7 12  1  0  0  0  0
 34 39  1  0  0  0  0
 17 27  1  0  0  0  0
M  END
$$$$

  -OEChem-05262214473D

 49 49  0     1  0  0  0  0  0999 V2000
   -1.6183    0.5613    3.8201 C   0  0  0  0  0  0  0  0  0  0  0  0
   -0.6710   -0.0534    3.3444 O   0  0  0  0  0  0  0  0  0  0  0  0
   -2.0502    0.2789    5.2208 C   0  0  0  0  0  0  0  0  0  0  0  0
   -2.8099   -0.5175    5.2742 H   0  0  0  0  0  0  0  0  0  0  0  0
   -1.2190   -0.0687    5.8551 H   0  0  0  0  0  0  0  0  0  0  0  0
   -2.4882    1.1338    5.7604 H   0  0  0  0  0  0  0  0  0  0  0  0
   -2.3680    1.5337    3.1790 N   0  0  0  0  0  0  0  0  0  0  0  0
   -2.1212    1.9597    1.8266 C   0  0  2  0  0  0  0  0  0  0  0  0
   -0.7862    1.3744    1.3854 C   0  0  0  0  0  0  0  0  0  0  0  0
    0.0859    1.0216    2.1767 O   0  0  0  0  0  0  0  0  0  0  0  0
   -2.1124    3.4765    1.7171 C   0  0  0  0  0  0  0  0  0  0  0  0
   -3.1331    1.9695    3.6908 H   0  0  0  0  0  0  0  0  0  0  0  0
   -2.9253    1.5413    1.2115 H   0  0  0  0  0  0  0  0  0  0  0  0
   -1.3133    3.9138    2.3268 H   0  0  0  0  0  0  0  0  0  0  0  0
   -1.9529    3.7988    0.6829 H   0  0  0  0  0  0  0  0  0  0  0  0
   -3.0626    3.8977    2.0629 H   0  0  0  0  0  0  0  0  0  0  0  0
   -0.6635    1.3313    0.0020 N   0  0  0  0  0  0  0  0  0  0  0  0
    0.5138    0.8305   -0.6617 C   0  0  2  0  0  0  0  0  0  0  0  0
    0.2692    0.9458   -2.1620 C   0  0  0  0  0  0  0  0  0  0  0  0
   -0.4102    1.8396   -2.6624 O   0  0  0  0  0  0  0  0  0  0  0  0
    0.8185   -0.6231   -0.2816 C   0  0  0  0  0  0  0  0  0  0  0  0
    1.1520   -0.7862    1.1812 C   0  0  0  0  0  0  0  0  0  0  0  0
    2.3729   -0.3905    1.6676 N   0  0  0  0  0  0  0  0  0  0  0  0
    0.3656   -1.3099    2.1802 C   0  0  0  0  0  0  0  0  0  0  0  0
    2.3287   -0.6708    2.9512 C   0  0  0  0  0  0  0  0  0  0  0  0
    1.1330   -1.2296    3.3079 N   0  0  0  0  0  0  0  0  0  0  0  0
   -1.4467    1.6280   -0.5753 H   0  0  0  0  0  0  0  0  0  0  0  0
    1.3381    1.4963   -0.3802 H   0  0  0  0  0  0  0  0  0  0  0  0
    1.6435   -1.0115   -0.8941 H   0  0  0  0  0  0  0  0  0  0  0  0
   -0.0397   -1.2679   -0.5125 H   0  0  0  0  0  0  0  0  0  0  0  0
   -0.6344   -1.7190    2.1946 H   0  0  0  0  0  0  0  0  0  0  0  0
    3.1181   -0.4964    3.6686 H   0  0  0  0  0  0  0  0  0  0  0  0
    0.8655   -1.5280    4.2364 H   0  0  0  0  0  0  0  0  0  0  0  0
    0.9405   -0.0378   -2.8750 N   0  0  0  0  0  0  0  0  0  0  0  0
    0.8973   -0.1425   -4.3158 C   0  0  2  0  0  0  0  0  0  0  0  0
   -0.5623   -0.0931   -4.7475 C   0  0  0  0  0  0  0  0  0  0  0  0
   -1.4935   -0.3804   -3.9982 O   0  0  0  0  0  0  0  0  0  0  0  0
    1.5636   -1.4218   -4.7978 C   0  0  0  0  0  0  0  0  0  0  0  0
    1.4897   -0.7182   -2.3582 H   0  0  0  0  0  0  0  0  0  0  0  0
    1.4259    0.7312   -4.7124 H   0  0  0  0  0  0  0  0  0  0  0  0
    1.0479   -2.3081   -4.4105 H   0  0  0  0  0  0  0  0  0  0  0  0
    1.5555   -1.4859   -5.8909 H   0  0  0  0  0  0  0  0  0  0  0  0
    2.6049   -1.4696   -4.4611 H   0  0  0  0  0  0  0  0  0  0  0  0
   -0.7004    0.2679   -6.0804 N   0  0  0  0  0  0  0  0  0  0  0  0
   -1.9859    0.3733   -6.7305 C   0  0  0  0  0  0  0  0  0  0  0  0
    0.1253    0.5071   -6.6215 H   0  0  0  0  0  0  0  0  0  0  0  0
   -2.2340   -0.5846   -7.2110 H   0  0  0  0  0  0  0  0  0  0  0  0
   -2.7552    0.6189   -5.9836 H   0  0  0  0  0  0  0  0  0  0  0  0
   -1.9477    1.1663   -7.4919 H   0  0  0  0  0  0  0  0  0  0  0  0
 22 24  2  0  0  0  0
 24 26  1  0  0  0  0
 23 25  2  0  0  0  0
 25 26  1  0  0  0  0
 21 22  1  0  0  0  0
 22 23  1  0  0  0  0
  1  3  1  0  0  0  0
  1  7  1  0  0  0  0
  1  2  2  0  0  0  0
 35 36  1  0  0  0  0
 36 44  1  0  0  0  0
 36 37  2  0  0  0  0
  8  9  1  0  0  0  0
  9 17  1  0  0  0  0
  9 10  2  0  0  0  0
 18 19  1  0  0  0  0
 19 34  1  0  0  0  0
 19 20  2  0  0  0  0
 35 38  1  0  0  0  0
  8 11  1  0  0  0  0
 44 45  1  0  0  0  0
 18 21  1  0  0  0  0
 34 35  1  0  0  0  0
  7  8  1  0  0  0  0
 17 18  1  0  0  0  0
 24 31  1  0  0  0  0
 25 32  1  0  0  0  0
  3  4  1  0  0  0  0
  3  5  1  0  0  0  0
  3  6  1  0  0  0  0
 38 41  1  0  0  0  0
 38 42  1  0  0  0  0
 38 43  1  0  0  0  0
 11 14  1  0  0  0  0
 11 15  1  0  0  0  0
 11 16  1  0  0  0  0
 45 47  1  0  0  0  0
 45 48  1  0  0  0  0
 45 49  1  0  0  0  0
 21 29  1  0  0  0  0
 21 30  1  0  0  0  0
 35 40  1  0  0  0  0
  8 13  1  0  0  0  0
 18 28  1  0  0  0  0
 26 33  1  0  0  0  0
 44 46  1  0  0  0  0
  7 12  1  0  0  0  0
 34 39  1  0  0  0  0
 17 27  1  0  0  0  0
M  END
$$$$

  -OEChem-05262214473D

 49 49  0     1  0  0  0  0  0999 V2000
   -1.6183    0.5613    3.8201 C   0  0  0  0  0  0  0  0  0  0  0  0
   -0.6710   -0.0534    3.3444 O   0  0  0  0  0  0  0  0  0  0  0  0
   -2.0502    0.2789    5.2208 C   0  0  0  0  0  0  0  0  0  0  0  0
   -2.8099   -0.5175    5.2742 H   0  0  0  0  0  0  0  0  0  0  0  0
   -1.2190   -0.0687    5.8551 H   0  0  0  0  0  0  0  0  0  0  0  0
   -2.4882    1.1338    5.7604 H   0  0  0  0  0  0  0  0  0  0  0  0
   -2.3680    1.5337    3.1790 N   0  0  0  0  0  0  0  0  0  0  0  0
   -2.1212    1.9597    1.8266 C   0  0  2  0  0  0  0  0  0  0  0  0
   -0.7862    1.3744    1.3854 C   0  0  0  0  0  0  0  0  0  0  0  0
    0.0859    1.0216    2.1767 O   0  0  0  0  0  0  0  0  0  0  0  0
   -2.1124    3.4765    1.7171 C   0  0  0  0  0  0  0  0  0  0  0  0
   -3.1331    1.9695    3.6908 H   0  0  0  0  0  0  0  0  0  0  0  0
   -2.9253    1.5413    1.2115 H   0  0  0  0  0  0  0  0  0  0  0  0
   -1.3133    3.9138    2.3268 H   0  0  0  0  0  0  0  0  0  0  0  0
   -1.9529    3.7988    0.6829 H   0  0  0  0  0  0  0  0  0  0  0  0
   -3.0626    3.8977    2.0629 H   0  0  0  0  0  0  0  0  0  0  0  0
   -0.6635    1.3313    0.0020 N   0  0  0  0  0  0  0  0  0  0  0  0
    0.5138    0.8305   -0.6617 C   0  0  2  0  0  0  0  0  0  0  0  0
    0.2692    0.9458   -2.1620 C   0  0  0  0  0  0  0  0  0  0  0  0
   -0.1729    1.9632   -2.6916 O   0  0  0  0  0  0  0  0  0  0  0  0
    0.8185   -0.6231   -0.2816 C   0  0  0  0  0  0  0  0  0  0  0  0
    1.1520   -0.7862    1.1812 C   0  0  0  0  0  0  0  0  0  0  0  0
    2.3729   -0.3905    1.6676 N   0  0  0  0  0  0  0  0  0  0  0  0
    0.3656   -1.3099    2.1802 C   0  0  0  0  0  0  0  0  0  0  0  0
    2.3287   -0.6708    2.9512 C   0  0  0  0  0  0  0  0  0  0  0  0
    1.1330   -1.2296    3.3079 N   0  0  0  0  0  0  0  0  0  0  0  0
   -1.4467    1.6280   -0.5753 H   0  0  0  0  0  0  0  0  0  0  0  0
    1.3381    1.4963   -0.3802 H   0  0  0  0  0  0  0  0  0  0  0  0
    1.6435   -1.0115   -0.8941 H   0  0  0  0  0  0  0  0  0  0  0  0
   -0.0397   -1.2679   -0.5125 H   0  0  0  0  0  0  0  0  0  0  0  0
   -0.6344   -1.7190    2.1946 H   0  0  0  0  0  0  0  0  0  0  0  0
    3.1181   -0.4964    3.6686 H   0  0  0  0  0  0  0  0  0  0  0  0
    0.8655   -1.5280    4.2364 H   0  0  0  0  0  0  0  0  0  0  0  0
    0.6503   -0.2035   -2.8405 N   0  0  0  0  0  0  0  0  0  0  0  0
    0.5460   -0.3499   -4.2745 C   0  0  2  0  0  0  0  0  0  0  0  0
   -0.8635    0.0534   -4.6871 C   0  0  0  0  0  0  0  0  0  0  0  0
   -1.8181    0.0427   -3.9128 O   0  0  0  0  0  0  0  0  0  0  0  0
    0.8528   -1.7746   -4.7090 C   0  0  0  0  0  0  0  0  0  0  0  0
    1.0211   -0.9808   -2.3020 H   0  0  0  0  0  0  0  0  0  0  0  0
    1.2692    0.3439   -4.7167 H   0  0  0  0  0  0  0  0  0  0  0  0
    0.1384   -2.4842   -4.2758 H   0  0  0  0  0  0  0  0  0  0  0  0
    0.8013   -1.8771   -5.7980 H   0  0  0  0  0  0  0  0  0  0  0  0
    1.8557   -2.0733   -4.3854 H   0  0  0  0  0  0  0  0  0  0  0  0
   -0.9385    0.3855   -6.0326 N   0  0  0  0  0  0  0  0  0  0  0  0
   -2.1706    0.7899   -6.6683 C   0  0  0  0  0  0  0  0  0  0  0  0
   -0.0928    0.3848   -6.5953 H   0  0  0  0  0  0  0  0  0  0  0  0
   -2.6661   -0.0909   -7.1026 H   0  0  0  0  0  0  0  0  0  0  0  0
   -2.8334    1.2526   -5.9222 H   0  0  0  0  0  0  0  0  0  0  0  0
   -1.9510    1.5166   -7.4644 H   0  0  0  0  0  0  0  0  0  0  0  0
 22 24  2  0  0  0  0
 24 26  1  0  0  0  0
 23 25  2  0  0  0  0
 25 26  1  0  0  0  0
 21 22  1  0  0  0  0
 22 23  1  0  0  0  0
  1  3  1  0  0  0  0
  1  7  1  0  0  0  0
  1  2  2  0  0  0  0
 35 36  1  0  0  0  0
 36 44  1  0  0  0  0
 36 37  2  0  0  0  0
  8  9  1  0  0  0  0
  9 17  1  0  0  0  0
  9 10  2  0  0  0  0
 18 19  1  0  0  0  0
 19 34  1  0  0  0  0
 19 20  2  0  0  0  0
 35 38  1  0  0  0  0
  8 11  1  0  0  0  0
 44 45  1  0  0  0  0
 18 21  1  0  0  0  0
 34 35  1  0  0  0  0
  7  8  1  0  0  0  0
 17 18  1  0  0  0  0
 24 31  1  0  0  0  0
 25 32  1  0  0  0  0
  3  4  1  0  0  0  0
  3  5  1  0  0  0  0
  3  6  1  0  0  0  0
 38 41  1  0  0  0  0
 38 42  1  0  0  0  0
 38 43  1  0  0  0  0
 11 14  1  0  0  0  0
 11 15  1  0  0  0  0
 11 16  1  0  0  0  0
 45 47  1  0  0  0  0
 45 48  1  0  0  0  0
 45 49  1  0  0  0  0
 21 29  1  0  0  0  0
 21 30  1  0  0  0  0
 35 40  1  0  0  0  0
  8 13  1  0  0  0  0
 18 28  1  0  0  0  0
 26 33  1  0  0  0  0
 44 46  1  0  0  0  0
  7 12  1  0  0  0  0
 34 39  1  0  0  0  0
 17 27  1  0  0  0  0
M  END
$$$$

  -OEChem-05262214473D

 49 49  0     1  0  0  0  0  0999 V2000
   -1.6183    0.5613    3.8201 C   0  0  0  0  0  0  0  0  0  0  0  0
   -0.6710   -0.0534    3.3444 O   0  0  0  0  0  0  0  0  0  0  0  0
   -2.0502    0.2789    5.2208 C   0  0  0  0  0  0  0  0  0  0  0  0
   -2.8099   -0.5175    5.2742 H   0  0  0  0  0  0  0  0  0  0  0  0
   -1.2190   -0.0687    5.8551 H   0  0  0  0  0  0  0  0  0  0  0  0
   -2.4882    1.1338    5.7604 H   0  0  0  0  0  0  0  0  0  0  0  0
   -2.3680    1.5337    3.1790 N   0  0  0  0  0  0  0  0  0  0  0  0
   -2.1212    1.9597    1.8266 C   0  0  2  0  0  0  0  0  0  0  0  0
   -0.7862    1.3744    1.3854 C   0  0  0  0  0  0  0  0  0  0  0  0
    0.0859    1.0216    2.1767 O   0  0  0  0  0  0  0  0  0  0  0  0
   -2.1124    3.4765    1.7171 C   0  0  0  0  0  0  0  0  0  0  0  0
   -3.1331    1.9695    3.6908 H   0  0  0  0  0  0  0  0  0  0  0  0
   -2.9253    1.5413    1.2115 H   0  0  0  0  0  0  0  0  0  0  0  0
   -1.3133    3.9138    2.3268 H   0  0  0  0  0  0  0  0  0  0  0  0
   -1.9529    3.7988    0.6829 H   0  0  0  0  0  0  0  0  0  0  0  0
   -3.0626    3.8977    2.0629 H   0  0  0  0  0  0  0  0  0  0  0  0
   -0.6635    1.3313    0.0020 N   0  0  0  0  0  0  0  0  0  0  0  0
    0.5138    0.8305   -0.6617 C   0  0  2  0  0  0  0  0  0  0  0  0
    0.2692    0.9458   -2.1620 C   0  0  0  0  0  0  0  0  0  0  0  0
    0.0873    2.0208   -2.7296 O   0  0  0  0  0  0  0  0  0  0  0  0
    0.8185   -0.6231   -0.2816 C   0  0  0  0  0  0  0  0  0  0  0  0
    1.1520   -0.7862    1.1812 C   0  0  0  0  0  0  0  0  0  0  0  0
    2.3729   -0.3905    1.6676 N   0  0  0  0  0  0  0  0  0  0  0  0
    0.3656   -1.3099    2.1802 C   0  0  0  0  0  0  0  0  0  0  0  0
    2.3287   -0.6708    2.9512 C   0  0  0  0  0  0  0  0  0  0  0  0
    1.1330   -1.2296    3.3079 N   0  0  0  0  0  0  0  0  0  0  0  0
   -1.4467    1.6280   -0.5753 H   0  0  0  0  0  0  0  0  0  0  0  0
    1.3381    1.4963   -0.3802 H   0  0  0  0  0  0  0  0  0  0  0  0
    1.6435   -1.0115   -0.8941 H   0  0  0  0  0  0  0  0  0  0  0  0
   -0.0397   -1.2679   -0.5125 H   0  0  0  0  0  0  0  0  0  0  0  0
   -0.6344   -1.7190    2.1946 H   0  0  0  0  0  0  0  0  0  0  0  0
    3.1181   -0.4964    3.6686 H   0  0  0  0  0  0  0  0  0  0  0  0
    0.8655   -1.5280    4.2364 H   0  0  0  0  0  0  0  0  0  0  0  0
    0.3284   -0.2882   -2.7945 N   0  0  0  0  0  0  0  0  0  0  0  0
    0.1545   -0.4590   -4.2191 C   0  0  2  0  0  0  0  0  0  0  0  0
   -1.1158    0.2742   -4.6290 C   0  0  0  0  0  0  0  0  0  0  0  0
   -2.0222    0.5375   -3.8415 O   0  0  0  0  0  0  0  0  0  0  0  0
    0.0780   -1.9307   -4.5947 C   0  0  0  0  0  0  0  0  0  0  0  0
    0.5027   -1.1129   -2.2276 H   0  0  0  0  0  0  0  0  0  0  0  0
    1.0192    0.0095   -4.7016 H   0  0  0  0  0  0  0  0  0  0  0  0
   -0.7822   -2.4171   -4.1205 H   0  0  0  0  0  0  0  0  0  0  0  0
   -0.0250   -2.0590   -5.6772 H   0  0  0  0  0  0  0  0  0  0  0  0
    0.9798   -2.4625   -4.2725 H   0  0  0  0  0  0  0  0  0  0  0  0
   -1.1375    0.5617   -5.9866 N   0  0  0  0  0  0  0  0  0  0  0  0
   -2.2418    1.2420   -6.6220 C   0  0  0  0  0  0  0  0  0  0  0  0
   -0.3341    0.3233   -6.5607 H   0  0  0  0  0  0  0  0  0  0  0  0
   -2.9556    0.5004   -7.0099 H   0  0  0  0  0  0  0  0  0  0  0  0
   -2.7462    1.8871   -5.8876 H   0  0  0  0  0  0  0  0  0  0  0  0
   -1.8645    1.8569   -7.4524 H   0  0  0  0  0  0  0  0  0  0  0  0
 22 24  2  0  0  0  0
 24 26  1  0  0  0  0
 23 25  2  0  0  0  0
 25 26  1  0  0  0  0
 21 22  1  0  0  0  0
 22 23  1  0  0  0  0
  1  3  1  0  0  0  0
  1  7  1  0  0  0  0
  1  2  2  0  0  0  0
 35 36  1  0  0  0  0
 36 44  1  0  0  0  0
 36 37  2  0  0  0  0
  8  9  1  0  0  0  0
  9 17  1  0  0  0  0
  9 10  2  0  0  0  0
 18 19  1  0  0  0  0
 19 34  1  0  0  0  0
 19 20  2  0  0  0  0
 35 38  1  0  0  0  0
  8 11  1  0  0  0  0
 44 45  1  0  0  0  0
 18 21  1  0  0  0  0
 34 35  1  0  0  0  0
  7  8  1  0  0  0  0
 17 18  1  0  0  0  0
 24 31  1  0  0  0  0
 25 32  1  0  0  0  0
  3  4  1  0  0  0  0
  3  5  1  0  0  0  0
  3  6  1  0  0  0  0
 38 41  1  0  0  0  0
 38 42  1  0  0  0  0
 38 43  1  0  0  0  0
 11 14  1  0  0  0  0
 11 15  1  0  0  0  0
 11 16  1  0  0  0  0
 45 47  1  0  0  0  0
 45 48  1  0  0  0  0
 45 49  1  0  0  0  0
 21 29  1  0  0  0  0
 21 30  1  0  0  0  0
 35 40  1  0  0  0  0
  8 13  1  0  0  0  0
 18 28  1  0  0  0  0
 26 33  1  0  0  0  0
 44 46  1  0  0  0  0
  7 12  1  0  0  0  0
 34 39  1  0  0  0  0
 17 27  1  0  0  0  0
M  END
$$$$

  -OEChem-05262214473D

 49 49  0     1  0  0  0  0  0999 V2000
   -1.6183    0.5613    3.8201 C   0  0  0  0  0  0  0  0  0  0  0  0
   -0.6710   -0.0534    3.3444 O   0  0  0  0  0  0  0  0  0  0  0  0
   -2.0502    0.2789    5.2208 C   0  0  0  0  0  0  0  0  0  0  0  0
   -2.8099   -0.5175    5.2742 H   0  0  0  0  0  0  0  0  0  0  0  0
   -1.2190   -0.0687    5.8551 H   0  0  0  0  0  0  0  0  0  0  0  0
   -2.4882    1.1338    5.7604 H   0  0  0  0  0  0  0  0  0  0  0  0
   -2.3680    1.5337    3.1790 N   0  0  0  0  0  0  0  0  0  0  0  0
   -2.1212    1.9597    1.8266 C   0  0  2  0  0  0  0  0  0  0  0  0
   -0.7862    1.3744    1.3854 C   0  0  0  0  0  0  0  0  0  0  0  0
    0.0859    1.0216    2.1767 O   0  0  0  0  0  0  0  0  0  0  0  0
   -2.1124    3.4765    1.7171 C   0  0  0  0  0  0  0  0  0  0  0  0
   -3.1331    1.9695    3.6908 H   0  0  0  0  0  0  0  0  0  0  0  0
   -2.9253    1.5413    1.2115 H   0  0  0  0  0  0  0  0  0  0  0  0
   -1.3133    3.9138    2.3268 H   0  0  0  0  0  0  0  0  0  0  0  0
   -1.9529    3.7988    0.6829 H   0  0  0  0  0  0  0  0  0  0  0  0
   -3.0626    3.8977    2.0629 H   0  0  0  0  0  0  0  0  0  0  0  0
   -0.6635    1.3313    0.0020 N   0  0  0  0  0  0  0  0  0  0  0  0
    0.5138    0.8305   -0.6617 C   0  0  2  0  0  0  0  0  0  0  0  0
    0.2692    0.9458   -2.1620 C   0  0  0  0  0  0  0  0  0  0  0  0
    0.3525    2.0087   -2.7738 O   0  0  0  0  0  0  0  0  0  0  0  0
    0.8185   -0.6231   -0.2816 C   0  0  0  0  0  0  0  0  0  0  0  0
    1.1520   -0.7862    1.1812 C   0  0  0  0  0  0  0  0  0  0  0  0
    2.3729   -0.3905    1.6676 N   0  0  0  0  0  0  0  0  0  0  0  0
    0.3656   -1.3099    2.1802 C   0  0  0  0  0  0  0  0  0  0  0  0
    2.3287   -0.6708    2.9512 C   0  0  0  0  0  0  0  0  0  0  0  0
    1.1330   -1.2296    3.3079 N   0  0  0  0  0  0  0  0  0  0  0  0
   -1.4467    1.6280   -0.5753 H   0  0  0  0  0  0  0  0  0  0  0  0
    1.3381    1.4963   -0.3802 H   0  0  0  0  0  0  0  0  0  0  0  0
    1.6435   -1.0115   -0.8941 H   0  0  0  0  0  0  0  0  0  0  0  0
   -0.0397   -1.2679   -0.5125 H   0  0  0  0  0  0  0  0  0  0  0  0
   -0.6344   -1.7190    2.1946 H   0  0  0  0  0  0  0  0  0  0  0  0
    3.1181   -0.4964    3.6686 H   0  0  0  0  0  0  0  0  0  0  0  0
    0.8655   -1.5280    4.2364 H   0  0  0  0  0  0  0  0  0  0  0  0
   -0.0032   -0.2862   -2.7403 N   0  0  0  0  0  0  0  0  0  0  0  0
   -0.2503   -0.4624   -4.1533 C   0  0  2  0  0  0  0  0  0  0  0  0
   -1.3022    0.5541   -4.5771 C   0  0  0  0  0  0  0  0  0  0  0  0
   -2.0919    1.0705   -3.7891 O   0  0  0  0  0  0  0  0  0  0  0  0
   -0.7078   -1.8793   -4.4626 C   0  0  0  0  0  0  0  0  0  0  0  0
   -0.0302   -1.1053   -2.1401 H   0  0  0  0  0  0  0  0  0  0  0  0
    0.6928   -0.2491   -4.6683 H   0  0  0  0  0  0  0  0  0  0  0  0
   -1.6514   -2.1113   -3.9553 H   0  0  0  0  0  0  0  0  0  0  0  0
   -0.8671   -2.0192   -5.5369 H   0  0  0  0  0  0  0  0  0  0  0  0
    0.0368   -2.6106   -4.1302 H   0  0  0  0  0  0  0  0  0  0  0  0
   -1.2839    0.7844   -5.9456 N   0  0  0  0  0  0  0  0  0  0  0  0
   -2.1944    1.6986   -6.5946 C   0  0  0  0  0  0  0  0  0  0  0  0
   -0.5822    0.3268   -6.5200 H   0  0  0  0  0  0  0  0  0  0  0  0
   -3.0829    1.1492   -6.9393 H   0  0  0  0  0  0  0  0  0  0  0  0
   -2.4998    2.4793   -5.8823 H   0  0  0  0  0  0  0  0  0  0  0  0
   -1.6941    2.1642   -7.4565 H   0  0  0  0  0  0  0  0  0  0  0  0
 22 24  2  0  0  0  0
 24 26  1  0  0  0  0
 23 25  2  0  0  0  0
 25 26  1  0  0  0  0
 21 22  1  0  0  0  0
 22 23  1  0  0  0  0
  1  3  1  0  0  0  0
  1  7  1  0  0  0  0
  1  2  2  0  0  0  0
 35 36  1  0  0  0  0
 36 44  1  0  0  0  0
 36 37  2  0  0  0  0
  8  9  1  0  0  0  0
  9 17  1  0  0  0  0
  9 10  2  0  0  0  0
 18 19  1  0  0  0  0
 19 34  1  0  0  0  0
 19 20  2  0  0  0  0
 35 38  1  0  0  0  0
  8 11  1  0  0  0  0
 44 45  1  0  0  0  0
 18 21  1  0  0  0  0
 34 35  1  0  0  0  0
  7  8  1  0  0  0  0
 17 18  1  0  0  0  0
 24 31  1  0  0  0  0
 25 32  1  0  0  0  0
  3  4  1  0  0  0  0
  3  5  1  0  0  0  0
  3  6  1  0  0  0  0
 38 41  1  0  0  0  0
 38 42  1  0  0  0  0
 38 43  1  0  0  0  0
 11 14  1  0  0  0  0
 11 15  1  0  0  0  0
 11 16  1  0  0  0  0
 45 47  1  0  0  0  0
 45 48  1  0  0  0  0
 45 49  1  0  0  0  0
 21 29  1  0  0  0  0
 21 30  1  0  0  0  0
 35 40  1  0  0  0  0
  8 13  1  0  0  0  0
 18 28  1  0  0  0  0
 26 33  1  0  0  0  0
 44 46  1  0  0  0  0
  7 12  1  0  0  0  0
 34 39  1  0  0  0  0
 17 27  1  0  0  0  0
M  END
$$$$

  -OEChem-05262214473D

 49 49  0     1  0  0  0  0  0999 V2000
   -1.6183    0.5613    3.8201 C   0  0  0  0  0  0  0  0  0  0  0  0
   -0.6710   -0.0534    3.3444 O   0  0  0  0  0  0  0  0  0  0  0  0
   -2.0502    0.2789    5.2208 C   0  0  0  0  0  0  0  0  0  0  0  0
   -2.8099   -0.5175    5.2742 H   0  0  0  0  0  0  0  0  0  0  0  0
   -1.2190   -0.0687    5.8551 H   0  0  0  0  0  0  0  0  0  0  0  0
   -2.4882    1.1338    5.7604 H   0  0  0  0  0  0  0  0  0  0  0  0
   -2.3680    1.5337    3.1790 N   0  0  0  0  0  0  0  0  0  0  0  0
   -2.1212    1.9597    1.8266 C   0  0  2  0  0  0  0  0  0  0  0  0
   -0.7862    1.3744    1.3854 C   0  0  0  0  0  0  0  0  0  0  0  0
    0.0859    1.0216    2.1767 O   0  0  0  0  0  0  0  0  0  0  0  0
   -2.1124    3.4765    1.7171 C   0  0  0  0  0  0  0  0  0  0  0  0
   -3.1331    1.9695    3.6908 H   0  0  0  0  0  0  0  0  0  0  0  0
   -2.9253    1.5413    1.2115 H   0  0  0  0  0  0  0  0  0  0  0  0
   -1.3133    3.9138    2.3268 H   0  0  0  0  0  0  0  0  0  0  0  0
   -1.9529    3.7988    0.6829 H   0  0  0  0  0  0  0  0  0  0  0  0
   -3.0626    3.8977    2.0629 H   0  0  0  0  0  0  0  0  0  0  0  0
   -0.6635    1.3313    0.0020 N   0  0  0  0  0  0  0  0  0  0  0  0
    0.5138    0.8305   -0.6617 C   0  0  2  0  0  0  0  0  0  0  0  0
    0.2692    0.9458   -2.1620 C   0  0  0  0  0  0  0  0  0  0  0  0
    0.6048    1.9275   -2.8212 O   0  0  0  0  0  0  0  0  0  0  0  0
    0.8185   -0.6231   -0.2816 C   0  0  0  0  0  0  0  0  0  0  0  0
    1.1520   -0.7862    1.1812 C   0  0  0  0  0  0  0  0  0  0  0  0
    2.3729   -0.3905    1.6676 N   0  0  0  0  0  0  0  0  0  0  0  0
    0.3656   -1.3099    2.1802 C   0  0  0  0  0  0  0  0  0  0  0  0
    2.3287   -0.6708    2.9512 C   0  0  0  0  0  0  0  0  0  0  0  0
    1.1330   -1.2296    3.3079 N   0  0  0  0  0  0  0  0  0  0  0  0
   -1.4467    1.6280   -0.5753 H   0  0  0  0  0  0  0  0  0  0  0  0
    1.3381    1.4963   -0.3802 H   0  0  0  0  0  0  0  0  0  0  0  0
    1.6435   -1.0115   -0.8941 H   0  0  0  0  0  0  0  0  0  0  0  0
   -0.0397   -1.2679   -0.5125 H   0  0  0  0  0  0  0  0  0  0  0  0
   -0.6344   -1.7190    2.1946 H   0  0  0  0  0  0  0  0  0  0  0  0
    3.1181   -0.4964    3.6686 H   0  0  0  0  0  0  0  0  0  0  0  0
    0.8655   -1.5280    4.2364 H   0  0  0  0  0  0  0  0  0  0  0  0
   -0.3219   -0.1975   -2.6815 N   0  0  0  0  0  0  0  0  0  0  0  0
   -0.6408   -0.3598   -4.0818 C   0  0  2  0  0  0  0  0  0  0  0  0
   -1.4100    0.8741   -4.5350 C   0  0  0  0  0  0  0  0  0  0  0  0
   -2.0224    1.6052   -3.7593 O   0  0  0  0  0  0  0  0  0  0  0  0
   -1.4513   -1.6240   -4.3218 C   0  0  0  0  0  0  0  0  0  0  0  0
   -0.5413   -0.9586   -2.0455 H   0  0  0  0  0  0  0  0  0  0  0  0
    0.3123   -0.4145   -4.6190 H   0  0  0  0  0  0  0  0  0  0  0  0
   -2.4098   -1.5876   -3.7914 H   0  0  0  0  0  0  0  0  0  0  0  0
   -1.6677   -1.7604   -5.3865 H   0  0  0  0  0  0  0  0  0  0  0  0
   -0.9091   -2.5076   -3.9680 H   0  0  0  0  0  0  0  0  0  0  0  0
   -1.3679    1.0386   -5.9124 N   0  0  0  0  0  0  0  0  0  0  0  0
   -2.0318    2.1288   -6.5880 C   0  0  0  0  0  0  0  0  0  0  0  0
   -0.8201    0.3951   -6.4760 H   0  0  0  0  0  0  0  0  0  0  0  0
   -3.0391    1.8113   -6.8955 H   0  0  0  0  0  0  0  0  0  0  0  0
   -2.1107    2.9887   -5.9065 H   0  0  0  0  0  0  0  0  0  0  0  0
   -1.4512    2.4173   -7.4767 H   0  0  0  0  0  0  0  0  0  0  0  0
 22 24  2  0  0  0  0
 24 26  1  0  0  0  0
 23 25  2  0  0  0  0
 25 26  1  0  0  0  0
 21 22  1  0  0  0  0
 22 23  1  0  0  0  0
  1  3  1  0  0  0  0
  1  7  1  0  0  0  0
  1  2  2  0  0  0  0
 35 36  1  0  0  0  0
 36 44  1  0  0  0  0
 36 37  2  0  0  0  0
  8  9  1  0  0  0  0
  9 17  1  0  0  0  0
  9 10  2  0  0  0  0
 18 19  1  0  0  0  0
 19 34  1  0  0  0  0
 19 20  2  0  0  0  0
 35 38  1  0  0  0  0
  8 11  1  0  0  0  0
 44 45  1  0  0  0  0
 18 21  1  0  0  0  0
 34 35  1  0  0  0  0
  7  8  1  0  0  0  0
 17 18  1  0  0  0  0
 24 31  1  0  0  0  0
 25 32  1  0  0  0  0
  3  4  1  0  0  0  0
  3  5  1  0  0  0  0
  3  6  1  0  0  0  0
 38 41  1  0  0  0  0
 38 42  1  0  0  0  0
 38 43  1  0  0  0  0
 11 14  1  0  0  0  0
 11 15  1  0  0  0  0
 11 16  1  0  0  0  0
 45 47  1  0  0  0  0
 45 48  1  0  0  0  0
 45 49  1  0  0  0  0
 21 29  1  0  0  0  0
 21 30  1  0  0  0  0
 35 40  1  0  0  0  0
  8 13  1  0  0  0  0
 18 28  1  0  0  0  0
 26 33  1  0  0  0  0
 44 46  1  0  0  0  0
  7 12  1  0  0  0  0
 34 39  1  0  0  0  0
 17 27  1  0  0  0  0
M  END
$$$$

  -OEChem-05262214473D

 49 49  0     1  0  0  0  0  0999 V2000
   -1.6183    0.5613    3.8201 C   0  0  0  0  0  0  0  0  0  0  0  0
   -0.6710   -0.0534    3.3444 O   0  0  0  0  0  0  0  0  0  0  0  0
   -2.0502    0.2789    5.2208 C   0  0  0  0  0  0  0  0  0  0  0  0
   -2.8099   -0.5175    5.2742 H   0  0  0  0  0  0  0  0  0  0  0  0
   -1.2190   -0.0687    5.8551 H   0  0  0  0  0  0  0  0  0  0  0  0
   -2.4882    1.1338    5.7604 H   0  0  0  0  0  0  0  0  0  0  0  0
   -2.3680    1.5337    3.1790 N   0  0  0  0  0  0  0  0  0  0  0  0
   -2.1212    1.9597    1.8266 C   0  0  2  0  0  0  0  0  0  0  0  0
   -0.7862    1.3744    1.3854 C   0  0  0  0  0  0  0  0  0  0  0  0
    0.0859    1.0216    2.1767 O   0  0  0  0  0  0  0  0  0  0  0  0
   -2.1124    3.4765    1.7171 C   0  0  0  0  0  0  0  0  0  0  0  0
   -3.1331    1.9695    3.6908 H   0  0  0  0  0  0  0  0  0  0  0  0
   -2.9253    1.5413    1.2115 H   0  0  0  0  0  0  0  0  0  0  0  0
   -1.3133    3.9138    2.3268 H   0  0  0  0  0  0  0  0  0  0  0  0
   -1.9529    3.7988    0.6829 H   0  0  0  0  0  0  0  0  0  0  0  0
   -3.0626    3.8977    2.0629 H   0  0  0  0  0  0  0  0  0  0  0  0
   -0.6635    1.3313    0.0020 N   0  0  0  0  0  0  0  0  0  0  0  0
    0.5138    0.8305   -0.6617 C   0  0  2  0  0  0  0  0  0  0  0  0
    0.2692    0.9458   -2.1620 C   0  0  0  0  0  0  0  0  0  0  0  0
    0.8268    1.7830   -2.8685 O   0  0  0  0  0  0  0  0  0  0  0  0
    0.8185   -0.6231   -0.2816 C   0  0  0  0  0  0  0  0  0  0  0  0
    1.1520   -0.7862    1.1812 C   0  0  0  0  0  0  0  0  0  0  0  0
    2.3729   -0.3905    1.6676 N   0  0  0  0  0  0  0  0  0  0  0  0
    0.3656   -1.3099    2.1802 C   0  0  0  0  0  0  0  0  0  0  0  0
    2.3287   -0.6708    2.9512 C   0  0  0  0  0  0  0  0  0  0  0  0
    1.1330   -1.2296    3.3079 N   0  0  0  0  0  0  0  0  0  0  0  0
   -1.4467    1.6280   -0.5753 H   0  0  0  0  0  0  0  0  0  0  0  0
    1.3381    1.4963   -0.3802 H   0  0  0  0  0  0  0  0  0  0  0  0
    1.6435   -1.0115   -0.8941 H   0  0  0  0  0  0  0  0  0  0  0  0
   -0.0397   -1.2679   -0.5125 H   0  0  0  0  0  0  0  0  0  0  0  0
   -0.6344   -1.7190    2.1946 H   0  0  0  0  0  0  0  0  0  0  0  0
    3.1181   -0.4964    3.6686 H   0  0  0  0  0  0  0  0  0  0  0  0
    0.8655   -1.5280    4.2364 H   0  0  0  0  0  0  0  0  0  0  0  0
   -0.6060   -0.0283   -2.6222 N   0  0  0  0  0  0  0  0  0  0  0  0
   -0.9906   -0.1582   -4.0093 C   0  0  2  0  0  0  0  0  0  0  0  0
   -1.4317    1.2124   -4.5054 C   0  0  0  0  0  0  0  0  0  0  0  0
   -1.8185    2.1052   -3.7541 O   0  0  0  0  0  0  0  0  0  0  0  0
   -2.1016   -1.1822   -4.1818 C   0  0  0  0  0  0  0  0  0  0  0  0
   -0.9958   -0.6827   -1.9502 H   0  0  0  0  0  0  0  0  0  0  0  0
   -0.0964   -0.4752   -4.5570 H   0  0  0  0  0  0  0  0  0  0  0  0
   -3.0058   -0.8818   -3.6400 H   0  0  0  0  0  0  0  0  0  0  0  0
   -2.3720   -1.3004   -5.2363 H   0  0  0  0  0  0  0  0  0  0  0  0
   -1.7932   -2.1604   -3.7972 H   0  0  0  0  0  0  0  0  0  0  0  0
   -1.3835    1.3069   -5.8892 N   0  0  0  0  0  0  0  0  0  0  0  0
   -1.7651    2.5032   -6.6027 C   0  0  0  0  0  0  0  0  0  0  0  0
   -1.0317    0.5234   -6.4316 H   0  0  0  0  0  0  0  0  0  0  0  0
   -2.8274    2.4414   -6.8816 H   0  0  0  0  0  0  0  0  0  0  0  0
   -1.6057    3.3807   -5.9587 H   0  0  0  0  0  0  0  0  0  0  0  0
   -1.1526    2.5992   -7.5114 H   0  0  0  0  0  0  0  0  0  0  0  0
 22 24  2  0  0  0  0
 24 26  1  0  0  0  0
 23 25  2  0  0  0  0
 25 26  1  0  0  0  0
 21 22  1  0  0  0  0
 22 23  1  0  0  0  0
  1  3  1  0  0  0  0
  1  7  1  0  0  0  0
  1  2  2  0  0  0  0
 35 36  1  0  0  0  0
 36 44  1  0  0  0  0
 36 37  2  0  0  0  0
  8  9  1  0  0  0  0
  9 17  1  0  0  0  0
  9 10  2  0  0  0  0
 18 19  1  0  0  0  0
 19 34  1  0  0  0  0
 19 20  2  0  0  0  0
 35 38  1  0  0  0  0
  8 11  1  0  0  0  0
 44 45  1  0  0  0  0
 18 21  1  0  0  0  0
 34 35  1  0  0  0  0
  7  8  1  0  0  0  0
 17 18  1  0  0  0  0
 24 31  1  0  0  0  0
 25 32  1  0  0  0  0
  3  4  1  0  0  0  0
  3  5  1  0  0  0  0
  3  6  1  0  0  0  0
 38 41  1  0  0  0  0
 38 42  1  0  0  0  0
 38 43  1  0  0  0  0
 11 14  1  0  0  0  0
 11 15  1  0  0  0  0
 11 16  1  0  0  0  0
 45 47  1  0  0  0  0
 45 48  1  0  0  0  0
 45 49  1  0  0  0  0
 21 29  1  0  0  0  0
 21 30  1  0  0  0  0
 35 40  1  0  0  0  0
  8 13  1  0  0  0  0
 18 28  1  0  0  0  0
 26 33  1  0  0  0  0
 44 46  1  0  0  0  0
  7 12  1  0  0  0  0
 34 39  1  0  0  0  0
 17 27  1  0  0  0  0
M  END
$$$$

  -OEChem-05262214473D

 49 49  0     1  0  0  0  0  0999 V2000
   -1.6183    0.5613    3.8201 C   0  0  0  0  0  0  0  0  0  0  0  0
   -0.6710   -0.0534    3.3444 O   0  0  0  0  0  0  0  0  0  0  0  0
   -2.0502    0.2789    5.2208 C   0  0  0  0  0  0  0  0  0  0  0  0
   -2.8099   -0.5175    5.2742 H   0  0  0  0  0  0  0  0  0  0  0  0
   -1.2190   -0.0687    5.8551 H   0  0  0  0  0  0  0  0  0  0  0  0
   -2.4882    1.1338    5.7604 H   0  0  0  0  0  0  0  0  0  0  0  0
   -2.3680    1.5337    3.1790 N   0  0  0  0  0  0  0  0  0  0  0  0
   -2.1212    1.9597    1.8266 C   0  0  2  0  0  0  0  0  0  0  0  0
   -0.7862    1.3744    1.3854 C   0  0  0  0  0  0  0  0  0  0  0  0
    0.0859    1.0216    2.1767 O   0  0  0  0  0  0  0  0  0  0  0  0
   -2.1124    3.4765    1.7171 C   0  0  0  0  0  0  0  0  0  0  0  0
   -3.1331    1.9695    3.6908 H   0  0  0  0  0  0  0  0  0  0  0  0
   -2.9253    1.5413    1.2115 H   0  0  0  0  0  0  0  0  0  0  0  0
   -1.3133    3.9138    2.3268 H   0  0  0  0  0  0  0  0  0  0  0  0
   -1.9529    3.7988    0.6829 H   0  0  0  0  0  0  0  0  0  0  0  0
   -3.0626    3.8977    2.0629 H   0  0  0  0  0  0  0  0  0  0  0  0
   -0.6635    1.3313    0.0020 N   0  0  0  0  0  0  0  0  0  0  0  0
    0.5138    0.8305   -0.6617 C   0  0  2  0  0  0  0  0  0  0  0  0
    0.2692    0.9458   -2.1620 C   0  0  0  0  0  0  0  0  0  0  0  0
    1.0036    1.5848   -2.9125 O   0  0  0  0  0  0  0  0  0  0  0  0
    0.8185   -0.6231   -0.2816 C   0  0  0  0  0  0  0  0  0  0  0  0
    1.1520   -0.7862    1.1812 C   0  0  0  0  0  0  0  0  0  0  0  0
    2.3729   -0.3905    1.6676 N   0  0  0  0  0  0  0  0  0  0  0  0
    0.3656   -1.3099    2.1802 C   0  0  0  0  0  0  0  0  0  0  0  0
    2.3287   -0.6708    2.9512 C   0  0  0  0  0  0  0  0  0  0  0  0
    1.1330   -1.2296    3.3079 N   0  0  0  0  0  0  0  0  0  0  0  0
   -1.4467    1.6280   -0.5753 H   0  0  0  0  0  0  0  0  0  0  0  0
    1.3381    1.4963   -0.3802 H   0  0  0  0  0  0  0  0  0  0  0  0
    1.6435   -1.0115   -0.8941 H   0  0  0  0  0  0  0  0  0  0  0  0
   -0.0397   -1.2679   -0.5125 H   0  0  0  0  0  0  0  0  0  0  0  0
   -0.6344   -1.7190    2.1946 H   0  0  0  0  0  0  0  0  0  0  0  0
    3.1181   -0.4964    3.6686 H   0  0  0  0  0  0  0  0  0  0  0  0
    0.8655   -1.5280    4.2364 H   0  0  0  0  0  0  0  0  0  0  0  0
   -0.8361    0.2101   -2.5663 N   0  0  0  0  0  0  0  0  0  0  0  0
   -1.2756    0.1285   -3.9407 C   0  0  2  0  0  0  0  0  0  0  0  0
   -1.3659    1.5459   -4.4905 C   0  0  0  0  0  0  0  0  0  0  0  0
   -1.4942    2.5365   -3.7739 O   0  0  0  0  0  0  0  0  0  0  0  0
   -2.6145   -0.5841   -4.0522 C   0  0  0  0  0  0  0  0  0  0  0  0
   -1.3626   -0.2966   -1.8607 H   0  0  0  0  0  0  0  0  0  0  0  0
   -0.5054   -0.4272   -4.4866 H   0  0  0  0  0  0  0  0  0  0  0  0
   -3.3988   -0.0420   -3.5113 H   0  0  0  0  0  0  0  0  0  0  0  0
   -2.9323   -0.6703   -5.0965 H   0  0  0  0  0  0  0  0  0  0  0  0
   -2.5555   -1.5928   -3.6293 H   0  0  0  0  0  0  0  0  0  0  0  0
   -1.3299    1.5710   -5.8777 N   0  0  0  0  0  0  0  0  0  0  0  0
   -1.4124    2.7963   -6.6377 C   0  0  0  0  0  0  0  0  0  0  0  0
   -1.2025    0.7032   -6.3899 H   0  0  0  0  0  0  0  0  0  0  0  0
   -2.4620    2.9967   -6.8985 H   0  0  0  0  0  0  0  0  0  0  0  0
   -1.0190    3.6285   -6.0353 H   0  0  0  0  0  0  0  0  0  0  0  0
   -0.8185    2.6973   -7.5583 H   0  0  0  0  0  0  0  0  0  0  0  0
 22 24  2  0  0  0  0
 24 26  1  0  0  0  0
 23 25  2  0  0  0  0
 25 26  1  0  0  0  0
 21 22  1  0  0  0  0
 22 23  1  0  0  0  0
  1  3  1  0  0  0  0
  1  7  1  0  0  0  0
  1  2  2  0  0  0  0
 35 36  1  0  0  0  0
 36 44  1  0  0  0  0
 36 37  2  0  0  0  0
  8  9  1  0  0  0  0
  9 17  1  0  0  0  0
  9 10  2  0  0  0  0
 18 19  1  0  0  0  0
 19 34  1  0  0  0  0
 19 20  2  0  0  0  0
 35 38  1  0  0  0  0
  8 11  1  0  0  0  0
 44 45  1  0  0  0  0
 18 21  1  0  0  0  0
 34 35  1  0  0  0  0
  7  8  1  0  0  0  0
 17 18  1  0  0  0  0
 24 31  1  0  0  0  0
 25 32  1  0  0  0  0
  3  4  1  0  0  0  0
  3  5  1  0  0  0  0
  3  6  1  0  0  0  0
 38 41  1  0  0  0  0
 38 42  1  0  0  0  0
 38 43  1  0  0  0  0
 11 14  1  0  0  0  0
 11 15  1  0  0  0  0
 11 16  1  0  0  0  0
 45 47  1  0  0  0  0
 45 48  1  0  0  0  0
 45 49  1  0  0  0  0
 21 29  1  0  0  0  0
 21 30  1  0  0  0  0
 35 40  1  0  0  0  0
  8 13  1  0  0  0  0
 18 28  1  0  0  0  0
 26 33  1  0  0  0  0
 44 46  1  0  0  0  0
  7 12  1  0  0  0  0
 34 39  1  0  0  0  0
 17 27  1  0  0  0  0
M  END
$$$$

  -OEChem-05262214473D

 49 49  0     1  0  0  0  0  0999 V2000
   -1.6183    0.5613    3.8201 C   0  0  0  0  0  0  0  0  0  0  0  0
   -0.6710   -0.0534    3.3444 O   0  0  0  0  0  0  0  0  0  0  0  0
   -2.0502    0.2789    5.2208 C   0  0  0  0  0  0  0  0  0  0  0  0
   -2.8099   -0.5175    5.2742 H   0  0  0  0  0  0  0  0  0  0  0  0
   -1.2190   -0.0687    5.8551 H   0  0  0  0  0  0  0  0  0  0  0  0
   -2.4882    1.1338    5.7604 H   0  0  0  0  0  0  0  0  0  0  0  0
   -2.3680    1.5337    3.1790 N   0  0  0  0  0  0  0  0  0  0  0  0
   -2.1212    1.9597    1.8266 C   0  0  2  0  0  0  0  0  0  0  0  0
   -0.7862    1.3744    1.3854 C   0  0  0  0  0  0  0  0  0  0  0  0
    0.0859    1.0216    2.1767 O   0  0  0  0  0  0  0  0  0  0  0  0
   -2.1124    3.4765    1.7171 C   0  0  0  0  0  0  0  0  0  0  0  0
   -3.1331    1.9695    3.6908 H   0  0  0  0  0  0  0  0  0  0  0  0
   -2.9253    1.5413    1.2115 H   0  0  0  0  0  0  0  0  0  0  0  0
   -1.3133    3.9138    2.3268 H   0  0  0  0  0  0  0  0  0  0  0  0
   -1.9529    3.7988    0.6829 H   0  0  0  0  0  0  0  0  0  0  0  0
   -3.0626    3.8977    2.0629 H   0  0  0  0  0  0  0  0  0  0  0  0
   -0.6635    1.3313    0.0020 N   0  0  0  0  0  0  0  0  0  0  0  0
    0.5138    0.8305   -0.6617 C   0  0  2  0  0  0  0  0  0  0  0  0
    0.2692    0.9458   -2.1620 C   0  0  0  0  0  0  0  0  0  0  0  0
    1.1229    1.3465   -2.9503 O   0  0  0  0  0  0  0  0  0  0  0  0
    0.8185   -0.6231   -0.2816 C   0  0  0  0  0  0  0  0  0  0  0  0
    1.1520   -0.7862    1.1812 C   0  0  0  0  0  0  0  0  0  0  0  0
    2.3729   -0.3905    1.6676 N   0  0  0  0  0  0  0  0  0  0  0  0
    0.3656   -1.3099    2.1802 C   0  0  0  0  0  0  0  0  0  0  0  0
    2.3287   -0.6708    2.9512 C   0  0  0  0  0  0  0  0  0  0  0  0
    1.1330   -1.2296    3.3079 N   0  0  0  0  0  0  0  0  0  0  0  0
   -1.4467    1.6280   -0.5753 H   0  0  0  0  0  0  0  0  0  0  0  0
    1.3381    1.4963   -0.3802 H   0  0  0  0  0  0  0  0  0  0  0  0
    1.6435   -1.0115   -0.8941 H   0  0  0  0  0  0  0  0  0  0  0  0
   -0.0397   -1.2679   -0.5125 H   0  0  0  0  0  0  0  0  0  0  0  0
   -0.6344   -1.7190    2.1946 H   0  0  0  0  0  0  0  0  0  0  0  0
    3.1181   -0.4964    3.6686 H   0  0  0  0  0  0  0  0  0  0  0  0
    0.8655   -1.5280    4.2364 H   0  0  0  0  0  0  0  0  0  0  0  0
   -0.9966    0.5012   -2.5178 N   0  0  0  0  0  0  0  0  0  0  0  0
   -1.4766    0.4810   -3.8809 C   0  0  2  0  0  0  0  0  0  0  0  0
   -1.2172    1.8520   -4.4912 C   0  0  0  0  0  0  0  0  0  0  0  0
   -1.0714    2.8696   -3.8172 O   0  0  0  0  0  0  0  0  0  0  0  0
   -2.9550    0.1298   -3.9418 C   0  0  0  0  0  0  0  0  0  0  0  0
   -1.6169    0.1736   -1.7831 H   0  0  0  0  0  0  0  0  0  0  0  0
   -0.8868   -0.2737   -4.4126 H   0  0  0  0  0  0  0  0  0  0  0  0
   -3.5619    0.8746   -3.4143 H   0  0  0  0  0  0  0  0  0  0  0  0
   -3.3103    0.0868   -4.9767 H   0  0  0  0  0  0  0  0  0  0  0  0
   -3.1439   -0.8433   -3.4757 H   0  0  0  0  0  0  0  0  0  0  0  0
   -1.2106    1.8129   -5.8785 N   0  0  0  0  0  0  0  0  0  0  0  0
   -0.9977    2.9881   -6.6906 C   0  0  0  0  0  0  0  0  0  0  0  0
   -1.3209    0.9220   -6.3538 H   0  0  0  0  0  0  0  0  0  0  0  0
   -1.9681    3.4394   -6.9450 H   0  0  0  0  0  0  0  0  0  0  0  0
   -0.3908    3.7152   -6.1311 H   0  0  0  0  0  0  0  0  0  0  0  0
   -0.4716    2.7051   -7.6142 H   0  0  0  0  0  0  0  0  0  0  0  0
 22 24  2  0  0  0  0
 24 26  1  0  0  0  0
 23 25  2  0  0  0  0
 25 26  1  0  0  0  0
 21 22  1  0  0  0  0
 22 23  1  0  0  0  0
  1  3  1  0  0  0  0
  1  7  1  0  0  0  0
  1  2  2  0  0  0  0
 35 36  1  0  0  0  0
 36 44  1  0  0  0  0
 36 37  2  0  0  0  0
  8  9  1  0  0  0  0
  9 17  1  0  0  0  0
  9 10  2  0  0  0  0
 18 19  1  0  0  0  0
 19 34  1  0  0  0  0
 19 20  2  0  0  0  0
 35 38  1  0  0  0  0
  8 11  1  0  0  0  0
 44 45  1  0  0  0  0
 18 21  1  0  0  0  0
 34 35  1  0  0  0  0
  7  8  1  0  0  0  0
 17 18  1  0  0  0  0
 24 31  1  0  0  0  0
 25 32  1  0  0  0  0
  3  4  1  0  0  0  0
  3  5  1  0  0  0  0
  3  6  1  0  0  0  0
 38 41  1  0  0  0  0
 38 42  1  0  0  0  0
 38 43  1  0  0  0  0
 11 14  1  0  0  0  0
 11 15  1  0  0  0  0
 11 16  1  0  0  0  0
 45 47  1  0  0  0  0
 45 48  1  0  0  0  0
 45 49  1  0  0  0  0
 21 29  1  0  0  0  0
 21 30  1  0  0  0  0
 35 40  1  0  0  0  0
  8 13  1  0  0  0  0
 18 28  1  0  0  0  0
 26 33  1  0  0  0  0
 44 46  1  0  0  0  0
  7 12  1  0  0  0  0
 34 39  1  0  0  0  0
 17 27  1  0  0  0  0
M  END
$$$$

  -OEChem-05262214473D

 49 49  0     1  0  0  0  0  0999 V2000
   -1.6183    0.5613    3.8201 C   0  0  0  0  0  0  0  0  0  0  0  0
   -0.6710   -0.0534    3.3444 O   0  0  0  0  0  0  0  0  0  0  0  0
   -2.0502    0.2789    5.2208 C   0  0  0  0  0  0  0  0  0  0  0  0
   -2.8099   -0.5175    5.2742 H   0  0  0  0  0  0  0  0  0  0  0  0
   -1.2190   -0.0687    5.8551 H   0  0  0  0  0  0  0  0  0  0  0  0
   -2.4882    1.1338    5.7604 H   0  0  0  0  0  0  0  0  0  0  0  0
   -2.3680    1.5337    3.1790 N   0  0  0  0  0  0  0  0  0  0  0  0
   -2.1212    1.9597    1.8266 C   0  0  2  0  0  0  0  0  0  0  0  0
   -0.7862    1.3744    1.3854 C   0  0  0  0  0  0  0  0  0  0  0  0
    0.0859    1.0216    2.1767 O   0  0  0  0  0  0  0  0  0  0  0  0
   -2.1124    3.4765    1.7171 C   0  0  0  0  0  0  0  0  0  0  0  0
   -3.1331    1.9695    3.6908 H   0  0  0  0  0  0  0  0  0  0  0  0
   -2.9253    1.5413    1.2115 H   0  0  0  0  0  0  0  0  0  0  0  0
   -1.3133    3.9138    2.3268 H   0  0  0  0  0  0  0  0  0  0  0  0
   -1.9529    3.7988    0.6829 H   0  0  0  0  0  0  0  0  0  0  0  0
   -3.0626    3.8977    2.0629 H   0  0  0  0  0  0  0  0  0  0  0  0
   -0.6635    1.3313    0.0020 N   0  0  0  0  0  0  0  0  0  0  0  0
    0.5138    0.8305   -0.6617 C   0  0  2  0  0  0  0  0  0  0  0  0
    0.2692    0.9458   -2.1620 C   0  0  0  0  0  0  0  0  0  0  0  0
    1.1768    1.0844   -2.9792 O   0  0  0  0  0  0  0  0  0  0  0  0
    0.8185   -0.6231   -0.2816 C   0  0  0  0  0  0  0  0  0  0  0  0
    1.1520   -0.7862    1.1812 C   0  0  0  0  0  0  0  0  0  0  0  0
    2.3729   -0.3905    1.6676 N   0  0  0  0  0  0  0  0  0  0  0  0
    0.3656   -1.3099    2.1802 C   0  0  0  0  0  0  0  0  0  0  0  0
    2.3287   -0.6708    2.9512 C   0  0  0  0  0  0  0  0  0  0  0  0
    1.1330   -1.2296    3.3079 N   0  0  0  0  0  0  0  0  0  0  0  0
   -1.4467    1.6280   -0.5753 H   0  0  0  0  0  0  0  0  0  0  0  0
    1.3381    1.4963   -0.3802 H   0  0  0  0  0  0  0  0  0  0  0  0
    1.6435   -1.0115   -0.8941 H   0  0  0  0  0  0  0  0  0  0  0  0
   -0.0397   -1.2679   -0.5125 H   0  0  0  0  0  0  0  0  0  0  0  0
   -0.6344   -1.7190    2.1946 H   0  0  0  0  0  0  0  0  0  0  0  0
    3.1181   -0.4964    3.6686 H   0  0  0  0  0  0  0  0  0  0  0  0
    0.8655   -1.5280    4.2364 H   0  0  0  0  0  0  0  0  0  0  0  0
   -1.0766    0.8253   -2.4798 N   0  0  0  0  0  0  0  0  0  0  0  0
   -1.5797    0.8751   -3.8338 C   0  0  2  0  0  0  0  0  0  0  0  0
   -0.9955    2.1097   -4.5075 C   0  0  0  0  0  0  0  0  0  0  0  0
   -0.5790    3.0819   -3.8812 O   0  0  0  0  0  0  0  0  0  0  0  0
   -3.0999    0.9106   -3.8582 C   0  0  0  0  0  0  0  0  0  0  0  0
   -1.7412    0.6957   -1.7227 H   0  0  0  0  0  0  0  0  0  0  0  0
   -1.2148   -0.0252   -4.3401 H   0  0  0  0  0  0  0  0  0  0  0  0
   -3.4841    1.8056   -3.3554 H   0  0  0  0  0  0  0  0  0  0  0  0
   -3.4801    0.9194   -4.8850 H   0  0  0  0  0  0  0  0  0  0  0  0
   -3.5184    0.0369   -3.3470 H   0  0  0  0  0  0  0  0  0  0  0  0
   -1.0337    2.0161   -5.8917 N   0  0  0  0  0  0  0  0  0  0  0  0
   -0.5493    3.0656   -6.7577 C   0  0  0  0  0  0  0  0  0  0  0  0
   -1.3788    1.1650   -6.3257 H   0  0  0  0  0  0  0  0  0  0  0  0
   -1.3791    3.7392   -7.0180 H   0  0  0  0  0  0  0  0  0  0  0  0
    0.2363    3.6350   -6.2395 H   0  0  0  0  0  0  0  0  0  0  0  0
   -0.1358    2.6219   -7.6754 H   0  0  0  0  0  0  0  0  0  0  0  0
 22 24  2  0  0  0  0
 24 26  1  0  0  0  0
 23 25  2  0  0  0  0
 25 26  1  0  0  0  0
 21 22  1  0  0  0  0
 22 23  1  0  0  0  0
  1  3  1  0  0  0  0
  1  7  1  0  0  0  0
  1  2  2  0  0  0  0
 35 36  1  0  0  0  0
 36 44  1  0  0  0  0
 36 37  2  0  0  0  0
  8  9  1  0  0  0  0
  9 17  1  0  0  0  0
  9 10  2  0  0  0  0
 18 19  1  0  0  0  0
 19 34  1  0  0  0  0
 19 20  2  0  0  0  0
 35 38  1  0  0  0  0
  8 11  1  0  0  0  0
 44 45  1  0  0  0  0
 18 21  1  0  0  0  0
 34 35  1  0  0  0  0
  7  8  1  0  0  0  0
 17 18  1  0  0  0  0
 24 31  1  0  0  0  0
 25 32  1  0  0  0  0
  3  4  1  0  0  0  0
  3  5  1  0  0  0  0
  3  6  1  0  0  0  0
 38 41  1  0  0  0  0
 38 42  1  0  0  0  0
 38 43  1  0  0  0  0
 11 14  1  0  0  0  0
 11 15  1  0  0  0  0
 11 16  1  0  0  0  0
 45 47  1  0  0  0  0
 45 48  1  0  0  0  0
 45 49  1  0  0  0  0
 21 29  1  0  0  0  0
 21 30  1  0  0  0  0
 35 40  1  0  0  0  0
  8 13  1  0  0  0  0
 18 28  1  0  0  0  0
 26 33  1  0  0  0  0
 44 46  1  0  0  0  0
  7 12  1  0  0  0  0
 34 39  1  0  0  0  0
 17 27  1  0  0  0  0
M  END
$$$$

  -OEChem-05262214473D

 49 49  0     1  0  0  0  0  0999 V2000
   -1.6183    0.5613    3.8201 C   0  0  0  0  0  0  0  0  0  0  0  0
   -0.6710   -0.0534    3.3444 O   0  0  0  0  0  0  0  0  0  0  0  0
   -2.0502    0.2789    5.2208 C   0  0  0  0  0  0  0  0  0  0  0  0
   -2.8099   -0.5175    5.2742 H   0  0  0  0  0  0  0  0  0  0  0  0
   -1.2190   -0.0687    5.8551 H   0  0  0  0  0  0  0  0  0  0  0  0
   -2.4882    1.1338    5.7604 H   0  0  0  0  0  0  0  0  0  0  0  0
   -2.3680    1.5337    3.1790 N   0  0  0  0  0  0  0  0  0  0  0  0
   -2.1212    1.9597    1.8266 C   0  0  2  0  0  0  0  0  0  0  0  0
   -0.7862    1.3744    1.3854 C   0  0  0  0  0  0  0  0  0  0  0  0
    0.0859    1.0216    2.1767 O   0  0  0  0  0  0  0  0  0  0  0  0
   -2.1124    3.4765    1.7171 C   0  0  0  0  0  0  0  0  0  0  0  0
   -3.1331    1.9695    3.6908 H   0  0  0  0  0  0  0  0  0  0  0  0
   -2.9253    1.5413    1.2115 H   0  0  0  0  0  0  0  0  0  0  0  0
   -1.3133    3.9138    2.3268 H   0  0  0  0  0  0  0  0  0  0  0  0
   -1.9529    3.7988    0.6829 H   0  0  0  0  0  0  0  0  0  0  0  0
   -3.0626    3.8977    2.0629 H   0  0  0  0  0  0  0  0  0  0  0  0
   -0.6635    1.3313    0.0020 N   0  0  0  0  0  0  0  0  0  0  0  0
    0.5138    0.8305   -0.6617 C   0  0  2  0  0  0  0  0  0  0  0  0
    0.2692    0.9458   -2.1620 C   0  0  0  0  0  0  0  0  0  0  0  0
    1.1615    0.8162   -2.9974 O   0  0  0  0  0  0  0  0  0  0  0  0
    0.8185   -0.6231   -0.2816 C   0  0  0  0  0  0  0  0  0  0  0  0
    1.1520   -0.7862    1.1812 C   0  0  0  0  0  0  0  0  0  0  0  0
    2.3729   -0.3905    1.6676 N   0  0  0  0  0  0  0  0  0  0  0  0
    0.3656   -1.3099    2.1802 C   0  0  0  0  0  0  0  0  0  0  0  0
    2.3287   -0.6708    2.9512 C   0  0  0  0  0  0  0  0  0  0  0  0
    1.1330   -1.2296    3.3079 N   0  0  0  0  0  0  0  0  0  0  0  0
   -1.4467    1.6280   -0.5753 H   0  0  0  0  0  0  0  0  0  0  0  0
    1.3381    1.4963   -0.3802 H   0  0  0  0  0  0  0  0  0  0  0  0
    1.6435   -1.0115   -0.8941 H   0  0  0  0  0  0  0  0  0  0  0  0
   -0.0397   -1.2679   -0.5125 H   0  0  0  0  0  0  0  0  0  0  0  0
   -0.6344   -1.7190    2.1946 H   0  0  0  0  0  0  0  0  0  0  0  0
    3.1181   -0.4964    3.6686 H   0  0  0  0  0  0  0  0  0  0  0  0
    0.8655   -1.5280    4.2364 H   0  0  0  0  0  0  0  0  0  0  0  0
   -1.0705    1.1604   -2.4551 N   0  0  0  0  0  0  0  0  0  0  0  0
   -1.5781    1.2840   -3.8026 C   0  0  2  0  0  0  0  0  0  0  0  0
   -0.7161    2.3014   -4.5383 C   0  0  0  0  0  0  0  0  0  0  0  0
   -0.0505    3.1589   -3.9614 O   0  0  0  0  0  0  0  0  0  0  0  0
   -3.0393    1.7052   -3.8069 C   0  0  0  0  0  0  0  0  0  0  0  0
   -1.7271    1.2342   -1.6836 H   0  0  0  0  0  0  0  0  0  0  0  0
   -1.4668    0.3014   -4.2739 H   0  0  0  0  0  0  0  0  0  0  0  0
   -3.1706    2.6875   -3.3387 H   0  0  0  0  0  0  0  0  0  0  0  0
   -3.4303    1.7707   -4.8277 H   0  0  0  0  0  0  0  0  0  0  0  0
   -3.6534    0.9877   -3.2519 H   0  0  0  0  0  0  0  0  0  0  0  0
   -0.8114    2.1668   -5.9164 N   0  0  0  0  0  0  0  0  0  0  0  0
   -0.0978    3.0234   -6.8346 C   0  0  0  0  0  0  0  0  0  0  0  0
   -1.3723    1.4157   -6.3075 H   0  0  0  0  0  0  0  0  0  0  0  0
   -0.7352    3.8757   -7.1124 H   0  0  0  0  0  0  0  0  0  0  0  0
    0.8195    3.3933   -6.3532 H   0  0  0  0  0  0  0  0  0  0  0  0
    0.1663    2.4534   -7.7376 H   0  0  0  0  0  0  0  0  0  0  0  0
 22 24  2  0  0  0  0
 24 26  1  0  0  0  0
 23 25  2  0  0  0  0
 25 26  1  0  0  0  0
 21 22  1  0  0  0  0
 22 23  1  0  0  0  0
  1  3  1  0  0  0  0
  1  7  1  0  0  0  0
  1  2  2  0  0  0  0
 35 36  1  0  0  0  0
 36 44  1  0  0  0  0
 36 37  2  0  0  0  0
  8  9  1  0  0  0  0
  9 17  1  0  0  0  0
  9 10  2  0  0  0  0
 18 19  1  0  0  0  0
 19 34  1  0  0  0  0
 19 20  2  0  0  0  0
 35 38  1  0  0  0  0
  8 11  1  0  0  0  0
 44 45  1  0  0  0  0
 18 21  1  0  0  0  0
 34 35  1  0  0  0  0
  7  8  1  0  0  0  0
 17 18  1  0  0  0  0
 24 31  1  0  0  0  0
 25 32  1  0  0  0  0
  3  4  1  0  0  0  0
  3  5  1  0  0  0  0
  3  6  1  0  0  0  0
 38 41  1  0  0  0  0
 38 42  1  0  0  0  0
 38 43  1  0  0  0  0
 11 14  1  0  0  0  0
 11 15  1  0  0  0  0
 11 16  1  0  0  0  0
 45 47  1  0  0  0  0
 45 48  1  0  0  0  0
 45 49  1  0  0  0  0
 21 29  1  0  0  0  0
 21 30  1  0  0  0  0
 35 40  1  0  0  0  0
  8 13  1  0  0  0  0
 18 28  1  0  0  0  0
 26 33  1  0  0  0  0
 44 46  1  0  0  0  0
  7 12  1  0  0  0  0
 34 39  1  0  0  0  0
 17 27  1  0  0  0  0
M  END
$$$$

  -OEChem-05262214473D

 49 49  0     1  0  0  0  0  0999 V2000
   -1.6183    0.5613    3.8201 C   0  0  0  0  0  0  0  0  0  0  0  0
   -0.6710   -0.0534    3.3444 O   0  0  0  0  0  0  0  0  0  0  0  0
   -2.0502    0.2789    5.2208 C   0  0  0  0  0  0  0  0  0  0  0  0
   -2.8099   -0.5175    5.2742 H   0  0  0  0  0  0  0  0  0  0  0  0
   -1.2190   -0.0687    5.8551 H   0  0  0  0  0  0  0  0  0  0  0  0
   -2.4882    1.1338    5.7604 H   0  0  0  0  0  0  0  0  0  0  0  0
   -2.3680    1.5337    3.1790 N   0  0  0  0  0  0  0  0  0  0  0  0
   -2.1212    1.9597    1.8266 C   0  0  2  0  0  0  0  0  0  0  0  0
   -0.7862    1.3744    1.3854 C   0  0  0  0  0  0  0  0  0  0  0  0
    0.0859    1.0216    2.1767 O   0  0  0  0  0  0  0  0  0  0  0  0
   -2.1124    3.4765    1.7171 C   0  0  0  0  0  0  0  0  0  0  0  0
   -3.1331    1.9695    3.6908 H   0  0  0  0  0  0  0  0  0  0  0  0
   -2.9253    1.5413    1.2115 H   0  0  0  0  0  0  0  0  0  0  0  0
   -1.3133    3.9138    2.3268 H   0  0  0  0  0  0  0  0  0  0  0  0
   -1.9529    3.7988    0.6829 H   0  0  0  0  0  0  0  0  0  0  0  0
   -3.0626    3.8977    2.0629 H   0  0  0  0  0  0  0  0  0  0  0  0
   -0.6635    1.3313    0.0020 N   0  0  0  0  0  0  0  0  0  0  0  0
    0.5138    0.8305   -0.6617 C   0  0  2  0  0  0  0  0  0  0  0  0
    0.2692    0.9458   -2.1620 C   0  0  0  0  0  0  0  0  0  0  0  0
    1.0781    0.5604   -3.0034 O   0  0  0  0  0  0  0  0  0  0  0  0
    0.8185   -0.6231   -0.2816 C   0  0  0  0  0  0  0  0  0  0  0  0
    1.1520   -0.7862    1.1812 C   0  0  0  0  0  0  0  0  0  0  0  0
    2.3729   -0.3905    1.6676 N   0  0  0  0  0  0  0  0  0  0  0  0
    0.3656   -1.3099    2.1802 C   0  0  0  0  0  0  0  0  0  0  0  0
    2.3287   -0.6708    2.9512 C   0  0  0  0  0  0  0  0  0  0  0  0
    1.1330   -1.2296    3.3079 N   0  0  0  0  0  0  0  0  0  0  0  0
   -1.4467    1.6280   -0.5753 H   0  0  0  0  0  0  0  0  0  0  0  0
    1.3381    1.4963   -0.3802 H   0  0  0  0  0  0  0  0  0  0  0  0
    1.6435   -1.0115   -0.8941 H   0  0  0  0  0  0  0  0  0  0  0  0
   -0.0397   -1.2679   -0.5125 H   0  0  0  0  0  0  0  0  0  0  0  0
   -0.6344   -1.7190    2.1946 H   0  0  0  0  0  0  0  0  0  0  0  0
    3.1181   -0.4964    3.6686 H   0  0  0  0  0  0  0  0  0  0  0  0
    0.8655   -1.5280    4.2364 H   0  0  0  0  0  0  0  0  0  0  0  0
   -0.9787    1.4834   -2.4452 N   0  0  0  0  0  0  0  0  0  0  0  0
   -1.4717    1.6799   -3.7895 C   0  0  2  0  0  0  0  0  0  0  0  0
   -0.3980    2.4142   -4.5815 C   0  0  0  0  0  0  0  0  0  0  0  0
    0.4780    3.0953   -4.0524 O   0  0  0  0  0  0  0  0  0  0  0  0
   -2.7775    2.4594   -3.7917 C   0  0  0  0  0  0  0  0  0  0  0  0
   -1.5756    1.7524   -1.6685 H   0  0  0  0  0  0  0  0  0  0  0  0
   -1.6258    0.6838   -4.2186 H   0  0  0  0  0  0  0  0  0  0  0  0
   -2.6429    3.4602   -3.3653 H   0  0  0  0  0  0  0  0  0  0  0  0
   -3.1643    2.5827   -4.8086 H   0  0  0  0  0  0  0  0  0  0  0  0
   -3.5397    1.9446   -3.1969 H   0  0  0  0  0  0  0  0  0  0  0  0
   -0.5587    2.2548   -5.9508 N   0  0  0  0  0  0  0  0  0  0  0  0
    0.3261    2.8644   -6.9159 C   0  0  0  0  0  0  0  0  0  0  0  0
   -1.3018    1.6569   -6.3004 H   0  0  0  0  0  0  0  0  0  0  0  0
   -0.0804    3.8397   -7.2220 H   0  0  0  0  0  0  0  0  0  0  0  0
    1.3190    3.0066   -6.4643 H   0  0  0  0  0  0  0  0  0  0  0  0
    0.4139    2.2112   -7.7966 H   0  0  0  0  0  0  0  0  0  0  0  0
 22 24  2  0  0  0  0
 24 26  1  0  0  0  0
 23 25  2  0  0  0  0
 25 26  1  0  0  0  0
 21 22  1  0  0  0  0
 22 23  1  0  0  0  0
  1  3  1  0  0  0  0
  1  7  1  0  0  0  0
  1  2  2  0  0  0  0
 35 36  1  0  0  0  0
 36 44  1  0  0  0  0
 36 37  2  0  0  0  0
  8  9  1  0  0  0  0
  9 17  1  0  0  0  0
  9 10  2  0  0  0  0
 18 19  1  0  0  0  0
 19 34  1  0  0  0  0
 19 20  2  0  0  0  0
 35 38  1  0  0  0  0
  8 11  1  0  0  0  0
 44 45  1  0  0  0  0
 18 21  1  0  0  0  0
 34 35  1  0  0  0  0
  7  8  1  0  0  0  0
 17 18  1  0  0  0  0
 24 31  1  0  0  0  0
 25 32  1  0  0  0  0
  3  4  1  0  0  0  0
  3  5  1  0  0  0  0
  3  6  1  0  0  0  0
 38 41  1  0  0  0  0
 38 42  1  0  0  0  0
 38 43  1  0  0  0  0
 11 14  1  0  0  0  0
 11 15  1  0  0  0  0
 11 16  1  0  0  0  0
 45 47  1  0  0  0  0
 45 48  1  0  0  0  0
 45 49  1  0  0  0  0
 21 29  1  0  0  0  0
 21 30  1  0  0  0  0
 35 40  1  0  0  0  0
  8 13  1  0  0  0  0
 18 28  1  0  0  0  0
 26 33  1  0  0  0  0
 44 46  1  0  0  0  0
  7 12  1  0  0  0  0
 34 39  1  0  0  0  0
 17 27  1  0  0  0  0
M  END
$$$$

  -OEChem-05262214473D

 49 49  0     1  0  0  0  0  0999 V2000
   -1.6183    0.5613    3.8201 C   0  0  0  0  0  0  0  0  0  0  0  0
   -0.6710   -0.0534    3.3444 O   0  0  0  0  0  0  0  0  0  0  0  0
   -2.0502    0.2789    5.2208 C   0  0  0  0  0  0  0  0  0  0  0  0
   -2.8099   -0.5175    5.2742 H   0  0  0  0  0  0  0  0  0  0  0  0
   -1.2190   -0.0687    5.8551 H   0  0  0  0  0  0  0  0  0  0  0  0
   -2.4882    1.1338    5.7604 H   0  0  0  0  0  0  0  0  0  0  0  0
   -2.3680    1.5337    3.1790 N   0  0  0  0  0  0  0  0  0  0  0  0
   -2.1212    1.9597    1.8266 C   0  0  2  0  0  0  0  0  0  0  0  0
   -0.7862    1.3744    1.3854 C   0  0  0  0  0  0  0  0  0  0  0  0
    0.0859    1.0216    2.1767 O   0  0  0  0  0  0  0  0  0  0  0  0
   -2.1124    3.4765    1.7171 C   0  0  0  0  0  0  0  0  0  0  0  0
   -3.1331    1.9695    3.6908 H   0  0  0  0  0  0  0  0  0  0  0  0
   -2.9253    1.5413    1.2115 H   0  0  0  0  0  0  0  0  0  0  0  0
   -1.3133    3.9138    2.3268 H   0  0  0  0  0  0  0  0  0  0  0  0
   -1.9529    3.7988    0.6829 H   0  0  0  0  0  0  0  0  0  0  0  0
   -3.0626    3.8977    2.0629 H   0  0  0  0  0  0  0  0  0  0  0  0
   -0.6635    1.3313    0.0020 N   0  0  0  0  0  0  0  0  0  0  0  0
    0.5138    0.8305   -0.6617 C   0  0  2  0  0  0  0  0  0  0  0  0
    0.2692    0.9458   -2.1620 C   0  0  0  0  0  0  0  0  0  0  0  0
    0.9322    0.3343   -2.9970 O   0  0  0  0  0  0  0  0  0  0  0  0
    0.8185   -0.6231   -0.2816 C   0  0  0  0  0  0  0  0  0  0  0  0
    1.1520   -0.7862    1.1812 C   0  0  0  0  0  0  0  0  0  0  0  0
    2.3729   -0.3905    1.6676 N   0  0  0  0  0  0  0  0  0  0  0  0
    0.3656   -1.3099    2.1802 C   0  0  0  0  0  0  0  0  0  0  0  0
    2.3287   -0.6708    2.9512 C   0  0  0  0  0  0  0  0  0  0  0  0
    1.1330   -1.2296    3.3079 N   0  0  0  0  0  0  0  0  0  0  0  0
   -1.4467    1.6280   -0.5753 H   0  0  0  0  0  0  0  0  0  0  0  0
    1.3381    1.4963   -0.3802 H   0  0  0  0  0  0  0  0  0  0  0  0
    1.6435   -1.0115   -0.8941 H   0  0  0  0  0  0  0  0  0  0  0  0
   -0.0397   -1.2679   -0.5125 H   0  0  0  0  0  0  0  0  0  0  0  0
   -0.6344   -1.7190    2.1946 H   0  0  0  0  0  0  0  0  0  0  0  0
    3.1181   -0.4964    3.6686 H   0  0  0  0  0  0  0  0  0  0  0  0
    0.8655   -1.5280    4.2364 H   0  0  0  0  0  0  0  0  0  0  0  0
   -0.8077    1.7726   -2.4509 N   0  0  0  0  0  0  0  0  0  0  0  0
   -1.2679    2.0357   -3.7954 C   0  0  2  0  0  0  0  0  0  0  0  0
   -0.0628    2.4404   -4.6342 C   0  0  0  0  0  0  0  0  0  0  0  0
    0.9705    2.8955   -4.1481 O   0  0  0  0  0  0  0  0  0  0  0  0
   -2.3321    3.1219   -3.8133 C   0  0  0  0  0  0  0  0  0  0  0  0
   -1.2969    2.2149   -1.6784 H   0  0  0  0  0  0  0  0  0  0  0  0
   -1.6808    1.0959   -4.1779 H   0  0  0  0  0  0  0  0  0  0  0  0
   -1.9368    4.0711   -3.4335 H   0  0  0  0  0  0  0  0  0  0  0  0
   -2.7001    3.3000   -4.8291 H   0  0  0  0  0  0  0  0  0  0  0  0
   -3.1851    2.8421   -3.1857 H   0  0  0  0  0  0  0  0  0  0  0  0
   -0.2930    2.2739   -5.9927 N   0  0  0  0  0  0  0  0  0  0  0  0
    0.6934    2.5996   -6.9962 C   0  0  0  0  0  0  0  0  0  0  0  0
   -1.1721    1.8723   -6.3050 H   0  0  0  0  0  0  0  0  0  0  0  0
    0.5408    3.6335   -7.3391 H   0  0  0  0  0  0  0  0  0  0  0  0
    1.7008    2.5011   -6.5654 H   0  0  0  0  0  0  0  0  0  0  0  0
    0.5902    1.9117   -7.8483 H   0  0  0  0  0  0  0  0  0  0  0  0
 22 24  2  0  0  0  0
 24 26  1  0  0  0  0
 23 25  2  0  0  0  0
 25 26  1  0  0  0  0
 21 22  1  0  0  0  0
 22 23  1  0  0  0  0
  1  3  1  0  0  0  0
  1  7  1  0  0  0  0
  1  2  2  0  0  0  0
 35 36  1  0  0  0  0
 36 44  1  0  0  0  0
 36 37  2  0  0  0  0
  8  9  1  0  0  0  0
  9 17  1  0  0  0  0
  9 10  2  0  0  0  0
 18 19  1  0  0  0  0
 19 34  1  0  0  0  0
 19 20  2  0  0  0  0
 35 38  1  0  0  0  0
  8 11  1  0  0  0  0
 44 45  1  0  0  0  0
 18 21  1  0  0  0  0
 34 35  1  0  0  0  0
  7  8  1  0  0  0  0
 17 18  1  0  0  0  0
 24 31  1  0  0  0  0
 25 32  1  0  0  0  0
  3  4  1  0  0  0  0
  3  5  1  0  0  0  0
  3  6  1  0  0  0  0
 38 41  1  0  0  0  0
 38 42  1  0  0  0  0
 38 43  1  0  0  0  0
 11 14  1  0  0  0  0
 11 15  1  0  0  0  0
 11 16  1  0  0  0  0
 45 47  1  0  0  0  0
 45 48  1  0  0  0  0
 45 49  1  0  0  0  0
 21 29  1  0  0  0  0
 21 30  1  0  0  0  0
 35 40  1  0  0  0  0
  8 13  1  0  0  0  0
 18 28  1  0  0  0  0
 26 33  1  0  0  0  0
 44 46  1  0  0  0  0
  7 12  1  0  0  0  0
 34 39  1  0  0  0  0
 17 27  1  0  0  0  0
M  END
$$$$

  -OEChem-05262214473D

 49 49  0     1  0  0  0  0  0999 V2000
   -1.6183    0.5613    3.8201 C   0  0  0  0  0  0  0  0  0  0  0  0
   -0.6710   -0.0534    3.3444 O   0  0  0  0  0  0  0  0  0  0  0  0
   -2.0502    0.2789    5.2208 C   0  0  0  0  0  0  0  0  0  0  0  0
   -2.8099   -0.5175    5.2742 H   0  0  0  0  0  0  0  0  0  0  0  0
   -1.2190   -0.0687    5.8551 H   0  0  0  0  0  0  0  0  0  0  0  0
   -2.4882    1.1338    5.7604 H   0  0  0  0  0  0  0  0  0  0  0  0
   -2.3680    1.5337    3.1790 N   0  0  0  0  0  0  0  0  0  0  0  0
   -2.1212    1.9597    1.8266 C   0  0  2  0  0  0  0  0  0  0  0  0
   -0.7862    1.3744    1.3854 C   0  0  0  0  0  0  0  0  0  0  0  0
    0.0859    1.0216    2.1767 O   0  0  0  0  0  0  0  0  0  0  0  0
   -2.1124    3.4765    1.7171 C   0  0  0  0  0  0  0  0  0  0  0  0
   -3.1331    1.9695    3.6908 H   0  0  0  0  0  0  0  0  0  0  0  0
   -2.9253    1.5413    1.2115 H   0  0  0  0  0  0  0  0  0  0  0  0
   -1.3133    3.9138    2.3268 H   0  0  0  0  0  0  0  0  0  0  0  0
   -1.9529    3.7988    0.6829 H   0  0  0  0  0  0  0  0  0  0  0  0
   -3.0626    3.8977    2.0629 H   0  0  0  0  0  0  0  0  0  0  0  0
   -0.6635    1.3313    0.0020 N   0  0  0  0  0  0  0  0  0  0  0  0
    0.5138    0.8305   -0.6617 C   0  0  2  0  0  0  0  0  0  0  0  0
    0.2692    0.9458   -2.1620 C   0  0  0  0  0  0  0  0  0  0  0  0
    0.7338    0.1533   -2.9786 O   0  0  0  0  0  0  0  0  0  0  0  0
    0.8185   -0.6231   -0.2816 C   0  0  0  0  0  0  0  0  0  0  0  0
    1.1520   -0.7862    1.1812 C   0  0  0  0  0  0  0  0  0  0  0  0
    2.3729   -0.3905    1.6676 N   0  0  0  0  0  0  0  0  0  0  0  0
    0.3656   -1.3099    2.1802 C   0  0  0  0  0  0  0  0  0  0  0  0
    2.3287   -0.6708    2.9512 C   0  0  0  0  0  0  0  0  0  0  0  0
    1.1330   -1.2296    3.3079 N   0  0  0  0  0  0  0  0  0  0  0  0
   -1.4467    1.6280   -0.5753 H   0  0  0  0  0  0  0  0  0  0  0  0
    1.3381    1.4963   -0.3802 H   0  0  0  0  0  0  0  0  0  0  0  0
    1.6435   -1.0115   -0.8941 H   0  0  0  0  0  0  0  0  0  0  0  0
   -0.0397   -1.2679   -0.5125 H   0  0  0  0  0  0  0  0  0  0  0  0
   -0.6344   -1.7190    2.1946 H   0  0  0  0  0  0  0  0  0  0  0  0
    3.1181   -0.4964    3.6686 H   0  0  0  0  0  0  0  0  0  0  0  0
    0.8655   -1.5280    4.2364 H   0  0  0  0  0  0  0  0  0  0  0  0
   -0.5689    2.0080   -2.4717 N   0  0  0  0  0  0  0  0  0  0  0  0
   -0.9805    2.3272   -3.8198 C   0  0  2  0  0  0  0  0  0  0  0  0
    0.2666    2.3780   -4.6927 C   0  0  0  0  0  0  0  0  0  0  0  0
    1.3934    2.5731   -4.2418 O   0  0  0  0  0  0  0  0  0  0  0  0
   -1.7336    3.6474   -3.8705 C   0  0  0  0  0  0  0  0  0  0  0  0
   -0.9101    2.5903   -1.7126 H   0  0  0  0  0  0  0  0  0  0  0  0
   -1.6283    1.5097   -4.1547 H   0  0  0  0  0  0  0  0  0  0  0  0
   -1.1006    4.4784   -3.5385 H   0  0  0  0  0  0  0  0  0  0  0  0
   -2.0695    3.8738   -4.8878 H   0  0  0  0  0  0  0  0  0  0  0  0
   -2.6138    3.6193   -3.2191 H   0  0  0  0  0  0  0  0  0  0  0  0
   -0.0322    2.2230   -6.0391 N   0  0  0  0  0  0  0  0  0  0  0  0
    0.9792    2.2468   -7.0699 C   0  0  0  0  0  0  0  0  0  0  0  0
   -0.9921    2.0470   -6.3209 H   0  0  0  0  0  0  0  0  0  0  0  0
    1.0861    3.2713   -7.4558 H   0  0  0  0  0  0  0  0  0  0  0  0
    1.9389    1.9115   -6.6496 H   0  0  0  0  0  0  0  0  0  0  0  0
    0.6833    1.5754   -7.8894 H   0  0  0  0  0  0  0  0  0  0  0  0
 22 24  2  0  0  0  0
 24 26  1  0  0  0  0
 23 25  2  0  0  0  0
 25 26  1  0  0  0  0
 21 22  1  0  0  0  0
 22 23  1  0  0  0  0
  1  3  1  0  0  0  0
  1  7  1  0  0  0  0
  1  2  2  0  0  0  0
 35 36  1  0  0  0  0
 36 44  1  0  0  0  0
 36 37  2  0  0  0  0
  8  9  1  0  0  0  0
  9 17  1  0  0  0  0
  9 10  2  0  0  0  0
 18 19  1  0  0  0  0
 19 34  1  0  0  0  0
 19 20  2  0  0  0  0
 35 38  1  0  0  0  0
  8 11  1  0  0  0  0
 44 45  1  0  0  0  0
 18 21  1  0  0  0  0
 34 35  1  0  0  0  0
  7  8  1  0  0  0  0
 17 18  1  0  0  0  0
 24 31  1  0  0  0  0
 25 32  1  0  0  0  0
  3  4  1  0  0  0  0
  3  5  1  0  0  0  0
  3  6  1  0  0  0  0
 38 41  1  0  0  0  0
 38 42  1  0  0  0  0
 38 43  1  0  0  0  0
 11 14  1  0  0  0  0
 11 15  1  0  0  0  0
 11 16  1  0  0  0  0
 45 47  1  0  0  0  0
 45 48  1  0  0  0  0
 45 49  1  0  0  0  0
 21 29  1  0  0  0  0
 21 30  1  0  0  0  0
 35 40  1  0  0  0  0
  8 13  1  0  0  0  0
 18 28  1  0  0  0  0
 26 33  1  0  0  0  0
 44 46  1  0  0  0  0
  7 12  1  0  0  0  0
 34 39  1  0  0  0  0
 17 27  1  0  0  0  0
M  END
$$$$

  -OEChem-05262214473D

 49 49  0     1  0  0  0  0  0999 V2000
   -1.6183    0.5613    3.8201 C   0  0  0  0  0  0  0  0  0  0  0  0
   -0.6710   -0.0534    3.3444 O   0  0  0  0  0  0  0  0  0  0  0  0
   -2.0502    0.2789    5.2208 C   0  0  0  0  0  0  0  0  0  0  0  0
   -2.8099   -0.5175    5.2742 H   0  0  0  0  0  0  0  0  0  0  0  0
   -1.2190   -0.0687    5.8551 H   0  0  0  0  0  0  0  0  0  0  0  0
   -2.4882    1.1338    5.7604 H   0  0  0  0  0  0  0  0  0  0  0  0
   -2.3680    1.5337    3.1790 N   0  0  0  0  0  0  0  0  0  0  0  0
   -2.1212    1.9597    1.8266 C   0  0  2  0  0  0  0  0  0  0  0  0
   -0.7862    1.3744    1.3854 C   0  0  0  0  0  0  0  0  0  0  0  0
    0.0859    1.0216    2.1767 O   0  0  0  0  0  0  0  0  0  0  0  0
   -2.1124    3.4765    1.7171 C   0  0  0  0  0  0  0  0  0  0  0  0
   -3.1331    1.9695    3.6908 H   0  0  0  0  0  0  0  0  0  0  0  0
   -2.9253    1.5413    1.2115 H   0  0  0  0  0  0  0  0  0  0  0  0
   -1.3133    3.9138    2.3268 H   0  0  0  0  0  0  0  0  0  0  0  0
   -1.9529    3.7988    0.6829 H   0  0  0  0  0  0  0  0  0  0  0  0
   -3.0626    3.8977    2.0629 H   0  0  0  0  0  0  0  0  0  0  0  0
   -0.6635    1.3313    0.0020 N   0  0  0  0  0  0  0  0  0  0  0  0
    0.5138    0.8305   -0.6617 C   0  0  2  0  0  0  0  0  0  0  0  0
    0.2692    0.9458   -2.1620 C   0  0  0  0  0  0  0  0  0  0  0  0
    0.4965    0.0297   -2.9494 O   0  0  0  0  0  0  0  0  0  0  0  0
    0.8185   -0.6231   -0.2816 C   0  0  0  0  0  0  0  0  0  0  0  0
    1.1520   -0.7862    1.1812 C   0  0  0  0  0  0  0  0  0  0  0  0
    2.3729   -0.3905    1.6676 N   0  0  0  0  0  0  0  0  0  0  0  0
    0.3656   -1.3099    2.1802 C   0  0  0  0  0  0  0  0  0  0  0  0
    2.3287   -0.6708    2.9512 C   0  0  0  0  0  0  0  0  0  0  0  0
    1.1330   -1.2296    3.3079 N   0  0  0  0  0  0  0  0  0  0  0  0
   -1.4467    1.6280   -0.5753 H   0  0  0  0  0  0  0  0  0  0  0  0
    1.3381    1.4963   -0.3802 H   0  0  0  0  0  0  0  0  0  0  0  0
    1.6435   -1.0115   -0.8941 H   0  0  0  0  0  0  0  0  0  0  0  0
   -0.0397   -1.2679   -0.5125 H   0  0  0  0  0  0  0  0  0  0  0  0
   -0.6344   -1.7190    2.1946 H   0  0  0  0  0  0  0  0  0  0  0  0
    3.1181   -0.4964    3.6686 H   0  0  0  0  0  0  0  0  0  0  0  0
    0.8655   -1.5280    4.2364 H   0  0  0  0  0  0  0  0  0  0  0  0
   -0.2787    2.1738   -2.5062 N   0  0  0  0  0  0  0  0  0  0  0  0
   -0.6291    2.5346   -3.8612 C   0  0  2  0  0  0  0  0  0  0  0  0
    0.5677    2.2315   -4.7530 C   0  0  0  0  0  0  0  0  0  0  0  0
    1.7180    2.1500   -4.3273 O   0  0  0  0  0  0  0  0  0  0  0  0
   -1.0227    4.0002   -3.9593 C   0  0  0  0  0  0  0  0  0  0  0  0
   -0.4415    2.8530   -1.7688 H   0  0  0  0  0  0  0  0  0  0  0  0
   -1.4716    1.8970   -4.1504 H   0  0  0  0  0  0  0  0  0  0  0  0
   -0.1911    4.6545   -3.6732 H   0  0  0  0  0  0  0  0  0  0  0  0
   -1.3153    4.2650   -4.9807 H   0  0  0  0  0  0  0  0  0  0  0  0
   -1.8646    4.2230   -3.2948 H   0  0  0  0  0  0  0  0  0  0  0  0
    0.2058    2.1054   -6.0869 N   0  0  0  0  0  0  0  0  0  0  0  0
    1.1640    1.8302   -7.1320 C   0  0  0  0  0  0  0  0  0  0  0  0
   -0.7740    2.1694   -6.3471 H   0  0  0  0  0  0  0  0  0  0  0  0
    1.5182    2.7777   -7.5642 H   0  0  0  0  0  0  0  0  0  0  0  0
    2.0170    1.2778   -6.7110 H   0  0  0  0  0  0  0  0  0  0  0  0
    0.6867    1.2251   -7.9169 H   0  0  0  0  0  0  0  0  0  0  0  0
 22 24  2  0  0  0  0
 24 26  1  0  0  0  0
 23 25  2  0  0  0  0
 25 26  1  0  0  0  0
 21 22  1  0  0  0  0
 22 23  1  0  0  0  0
  1  3  1  0  0  0  0
  1  7  1  0  0  0  0
  1  2  2  0  0  0  0
 35 36  1  0  0  0  0
 36 44  1  0  0  0  0
 36 37  2  0  0  0  0
  8  9  1  0  0  0  0
  9 17  1  0  0  0  0
  9 10  2  0  0  0  0
 18 19  1  0  0  0  0
 19 34  1  0  0  0  0
 19 20  2  0  0  0  0
 35 38  1  0  0  0  0
  8 11  1  0  0  0  0
 44 45  1  0  0  0  0
 18 21  1  0  0  0  0
 34 35  1  0  0  0  0
  7  8  1  0  0  0  0
 17 18  1  0  0  0  0
 24 31  1  0  0  0  0
 25 32  1  0  0  0  0
  3  4  1  0  0  0  0
  3  5  1  0  0  0  0
  3  6  1  0  0  0  0
 38 41  1  0  0  0  0
 38 42  1  0  0  0  0
 38 43  1  0  0  0  0
 11 14  1  0  0  0  0
 11 15  1  0  0  0  0
 11 16  1  0  0  0  0
 45 47  1  0  0  0  0
 45 48  1  0  0  0  0
 45 49  1  0  0  0  0
 21 29  1  0  0  0  0
 21 30  1  0  0  0  0
 35 40  1  0  0  0  0
  8 13  1  0  0  0  0
 18 28  1  0  0  0  0
 26 33  1  0  0  0  0
 44 46  1  0  0  0  0
  7 12  1  0  0  0  0
 34 39  1  0  0  0  0
 17 27  1  0  0  0  0
M  END
$$$$

  -OEChem-05262214473D

 49 49  0     1  0  0  0  0  0999 V2000
   -1.6183    0.5613    3.8201 C   0  0  0  0  0  0  0  0  0  0  0  0
   -0.6710   -0.0534    3.3444 O   0  0  0  0  0  0  0  0  0  0  0  0
   -2.0502    0.2789    5.2208 C   0  0  0  0  0  0  0  0  0  0  0  0
   -2.8099   -0.5175    5.2742 H   0  0  0  0  0  0  0  0  0  0  0  0
   -1.2190   -0.0687    5.8551 H   0  0  0  0  0  0  0  0  0  0  0  0
   -2.4882    1.1338    5.7604 H   0  0  0  0  0  0  0  0  0  0  0  0
   -2.3680    1.5337    3.1790 N   0  0  0  0  0  0  0  0  0  0  0  0
   -2.1212    1.9597    1.8266 C   0  0  2  0  0  0  0  0  0  0  0  0
   -0.7862    1.3744    1.3854 C   0  0  0  0  0  0  0  0  0  0  0  0
    0.0859    1.0216    2.1767 O   0  0  0  0  0  0  0  0  0  0  0  0
   -2.1124    3.4765    1.7171 C   0  0  0  0  0  0  0  0  0  0  0  0
   -3.1331    1.9695    3.6908 H   0  0  0  0  0  0  0  0  0  0  0  0
   -2.9253    1.5413    1.2115 H   0  0  0  0  0  0  0  0  0  0  0  0
   -1.3133    3.9138    2.3268 H   0  0  0  0  0  0  0  0  0  0  0  0
   -1.9529    3.7988    0.6829 H   0  0  0  0  0  0  0  0  0  0  0  0
   -3.0626    3.8977    2.0629 H   0  0  0  0  0  0  0  0  0  0  0  0
   -0.6635    1.3313    0.0020 N   0  0  0  0  0  0  0  0  0  0  0  0
    0.5138    0.8305   -0.6617 C   0  0  2  0  0  0  0  0  0  0  0  0
    0.2692    0.9458   -2.1620 C   0  0  0  0  0  0  0  0  0  0  0  0
    0.2363   -0.0279   -2.9114 O   0  0  0  0  0  0  0  0  0  0  0  0
    0.8185   -0.6231   -0.2816 C   0  0  0  0  0  0  0  0  0  0  0  0
    1.1520   -0.7862    1.1812 C   0  0  0  0  0  0  0  0  0  0  0  0
    2.3729   -0.3905    1.6676 N   0  0  0  0  0  0  0  0  0  0  0  0
    0.3656   -1.3099    2.1802 C   0  0  0  0  0  0  0  0  0  0  0  0
    2.3287   -0.6708    2.9512 C   0  0  0  0  0  0  0  0  0  0  0  0
    1.1330   -1.2296    3.3079 N   0  0  0  0  0  0  0  0  0  0  0  0
   -1.4467    1.6280   -0.5753 H   0  0  0  0  0  0  0  0  0  0  0  0
    1.3381    1.4963   -0.3802 H   0  0  0  0  0  0  0  0  0  0  0  0
    1.6435   -1.0115   -0.8941 H   0  0  0  0  0  0  0  0  0  0  0  0
   -0.0397   -1.2679   -0.5125 H   0  0  0  0  0  0  0  0  0  0  0  0
   -0.6344   -1.7190    2.1946 H   0  0  0  0  0  0  0  0  0  0  0  0
    3.1181   -0.4964    3.6686 H   0  0  0  0  0  0  0  0  0  0  0  0
    0.8655   -1.5280    4.2364 H   0  0  0  0  0  0  0  0  0  0  0  0
    0.0432    2.2585   -2.5522 N   0  0  0  0  0  0  0  0  0  0  0  0
   -0.2376    2.6437   -3.9166 C   0  0  2  0  0  0  0  0  0  0  0  0
    0.8200    2.0108   -4.8111 C   0  0  0  0  0  0  0  0  0  0  0  0
    1.9221    1.6552   -4.3986 O   0  0  0  0  0  0  0  0  0  0  0  0
   -0.2480    4.1563   -4.0736 C   0  0  0  0  0  0  0  0  0  0  0  0
    0.0769    2.9850   -1.8431 H   0  0  0  0  0  0  0  0  0  0  0  0
   -1.2216    2.2314   -4.1655 H   0  0  0  0  0  0  0  0  0  0  0  0
    0.7296    4.5874   -3.8285 H   0  0  0  0  0  0  0  0  0  0  0  0
   -0.4890    4.4468   -5.1015 H   0  0  0  0  0  0  0  0  0  0  0  0
   -0.9886    4.6122   -3.4077 H   0  0  0  0  0  0  0  0  0  0  0  0
    0.4048    1.9293   -6.1329 N   0  0  0  0  0  0  0  0  0  0  0  0
    1.2351    1.3782   -7.1784 C   0  0  0  0  0  0  0  0  0  0  0  0
   -0.5327    2.2309   -6.3817 H   0  0  0  0  0  0  0  0  0  0  0  0
    1.8077    2.1863   -7.6569 H   0  0  0  0  0  0  0  0  0  0  0  0
    1.9299    0.6433   -6.7456 H   0  0  0  0  0  0  0  0  0  0  0  0
    0.6002    0.8847   -7.9289 H   0  0  0  0  0  0  0  0  0  0  0  0
 22 24  2  0  0  0  0
 24 26  1  0  0  0  0
 23 25  2  0  0  0  0
 25 26  1  0  0  0  0
 21 22  1  0  0  0  0
 22 23  1  0  0  0  0
  1  3  1  0  0  0  0
  1  7  1  0  0  0  0
  1  2  2  0  0  0  0
 35 36  1  0  0  0  0
 36 44  1  0  0  0  0
 36 37  2  0  0  0  0
  8  9  1  0  0  0  0
  9 17  1  0  0  0  0
  9 10  2  0  0  0  0
 18 19  1  0  0  0  0
 19 34  1  0  0  0  0
 19 20  2  0  0  0  0
 35 38  1  0  0  0  0
  8 11  1  0  0  0  0
 44 45  1  0  0  0  0
 18 21  1  0  0  0  0
 34 35  1  0  0  0  0
  7  8  1  0  0  0  0
 17 18  1  0  0  0  0
 24 31  1  0  0  0  0
 25 32  1  0  0  0  0
  3  4  1  0  0  0  0
  3  5  1  0  0  0  0
  3  6  1  0  0  0  0
 38 41  1  0  0  0  0
 38 42  1  0  0  0  0
 38 43  1  0  0  0  0
 11 14  1  0  0  0  0
 11 15  1  0  0  0  0
 11 16  1  0  0  0  0
 45 47  1  0  0  0  0
 45 48  1  0  0  0  0
 45 49  1  0  0  0  0
 21 29  1  0  0  0  0
 21 30  1  0  0  0  0
 35 40  1  0  0  0  0
  8 13  1  0  0  0  0
 18 28  1  0  0  0  0
 26 33  1  0  0  0  0
 44 46  1  0  0  0  0
  7 12  1  0  0  0  0
 34 39  1  0  0  0  0
 17 27  1  0  0  0  0
M  END
$$$$

  -OEChem-05262214473D

 49 49  0     1  0  0  0  0  0999 V2000
   -1.6183    0.5613    3.8201 C   0  0  0  0  0  0  0  0  0  0  0  0
   -0.6710   -0.0534    3.3444 O   0  0  0  0  0  0  0  0  0  0  0  0
   -2.0502    0.2789    5.2208 C   0  0  0  0  0  0  0  0  0  0  0  0
   -2.8099   -0.5175    5.2742 H   0  0  0  0  0  0  0  0  0  0  0  0
   -1.2190   -0.0687    5.8551 H   0  0  0  0  0  0  0  0  0  0  0  0
   -2.4882    1.1338    5.7604 H   0  0  0  0  0  0  0  0  0  0  0  0
   -2.3680    1.5337    3.1790 N   0  0  0  0  0  0  0  0  0  0  0  0
   -2.1212    1.9597    1.8266 C   0  0  2  0  0  0  0  0  0  0  0  0
   -0.7862    1.3744    1.3854 C   0  0  0  0  0  0  0  0  0  0  0  0
    0.0859    1.0216    2.1767 O   0  0  0  0  0  0  0  0  0  0  0  0
   -2.1124    3.4765    1.7171 C   0  0  0  0  0  0  0  0  0  0  0  0
   -3.1331    1.9695    3.6908 H   0  0  0  0  0  0  0  0  0  0  0  0
   -2.9253    1.5413    1.2115 H   0  0  0  0  0  0  0  0  0  0  0  0
   -1.3133    3.9138    2.3268 H   0  0  0  0  0  0  0  0  0  0  0  0
   -1.9529    3.7988    0.6829 H   0  0  0  0  0  0  0  0  0  0  0  0
   -3.0626    3.8977    2.0629 H   0  0  0  0  0  0  0  0  0  0  0  0
   -0.6635    1.3313    0.0020 N   0  0  0  0  0  0  0  0  0  0  0  0
    0.5138    0.8305   -0.6617 C   0  0  2  0  0  0  0  0  0  0  0  0
    0.2692    0.9458   -2.1620 C   0  0  0  0  0  0  0  0  0  0  0  0
   -0.0289   -0.0158   -2.8672 O   0  0  0  0  0  0  0  0  0  0  0  0
    0.8185   -0.6231   -0.2816 C   0  0  0  0  0  0  0  0  0  0  0  0
    1.1520   -0.7862    1.1812 C   0  0  0  0  0  0  0  0  0  0  0  0
    2.3729   -0.3905    1.6676 N   0  0  0  0  0  0  0  0  0  0  0  0
    0.3656   -1.3099    2.1802 C   0  0  0  0  0  0  0  0  0  0  0  0
    2.3287   -0.6708    2.9512 C   0  0  0  0  0  0  0  0  0  0  0  0
    1.1330   -1.2296    3.3079 N   0  0  0  0  0  0  0  0  0  0  0  0
   -1.4467    1.6280   -0.5753 H   0  0  0  0  0  0  0  0  0  0  0  0
    1.3381    1.4963   -0.3802 H   0  0  0  0  0  0  0  0  0  0  0  0
    1.6435   -1.0115   -0.8941 H   0  0  0  0  0  0  0  0  0  0  0  0
   -0.0397   -1.2679   -0.5125 H   0  0  0  0  0  0  0  0  0  0  0  0
   -0.6344   -1.7190    2.1946 H   0  0  0  0  0  0  0  0  0  0  0  0
    3.1181   -0.4964    3.6686 H   0  0  0  0  0  0  0  0  0  0  0  0
    0.8655   -1.5280    4.2364 H   0  0  0  0  0  0  0  0  0  0  0  0
    0.3748    2.2565   -2.6064 N   0  0  0  0  0  0  0  0  0  0  0  0
    0.1671    2.6470   -3.9823 C   0  0  2  0  0  0  0  0  0  0  0  0
    1.0064    1.7308   -4.8630 C   0  0  0  0  0  0  0  0  0  0  0  0
    1.9917    1.1222   -4.4509 O   0  0  0  0  0  0  0  0  0  0  0  0
    0.5379    4.1049   -4.2057 C   0  0  0  0  0  0  0  0  0  0  0  0
    0.6098    2.9774   -1.9306 H   0  0  0  0  0  0  0  0  0  0  0  0
   -0.8952    2.4900   -4.1988 H   0  0  0  0  0  0  0  0  0  0  0  0
    1.5987    4.2816   -3.9937 H   0  0  0  0  0  0  0  0  0  0  0  0
    0.3531    4.4071   -5.2418 H   0  0  0  0  0  0  0  0  0  0  0  0
   -0.0456    4.7603   -3.5501 H   0  0  0  0  0  0  0  0  0  0  0  0
    0.5513    1.7065   -6.1739 N   0  0  0  0  0  0  0  0  0  0  0  0
    1.1878    0.9215   -7.2058 C   0  0  0  0  0  0  0  0  0  0  0  0
   -0.2846    2.2274   -6.4224 H   0  0  0  0  0  0  0  0  0  0  0  0
    1.9350    1.5375   -7.7275 H   0  0  0  0  0  0  0  0  0  0  0  0
    1.6834    0.0511   -6.7509 H   0  0  0  0  0  0  0  0  0  0  0  0
    0.4297    0.5775   -7.9247 H   0  0  0  0  0  0  0  0  0  0  0  0
 22 24  2  0  0  0  0
 24 26  1  0  0  0  0
 23 25  2  0  0  0  0
 25 26  1  0  0  0  0
 21 22  1  0  0  0  0
 22 23  1  0  0  0  0
  1  3  1  0  0  0  0
  1  7  1  0  0  0  0
  1  2  2  0  0  0  0
 35 36  1  0  0  0  0
 36 44  1  0  0  0  0
 36 37  2  0  0  0  0
  8  9  1  0  0  0  0
  9 17  1  0  0  0  0
  9 10  2  0  0  0  0
 18 19  1  0  0  0  0
 19 34  1  0  0  0  0
 19 20  2  0  0  0  0
 35 38  1  0  0  0  0
  8 11  1  0  0  0  0
 44 45  1  0  0  0  0
 18 21  1  0  0  0  0
 34 35  1  0  0  0  0
  7  8  1  0  0  0  0
 17 18  1  0  0  0  0
 24 31  1  0  0  0  0
 25 32  1  0  0  0  0
  3  4  1  0  0  0  0
  3  5  1  0  0  0  0
  3  6  1  0  0  0  0
 38 41  1  0  0  0  0
 38 42  1  0  0  0  0
 38 43  1  0  0  0  0
 11 14  1  0  0  0  0
 11 15  1  0  0  0  0
 11 16  1  0  0  0  0
 45 47  1  0  0  0  0
 45 48  1  0  0  0  0
 45 49  1  0  0  0  0
 21 29  1  0  0  0  0
 21 30  1  0  0  0  0
 35 40  1  0  0  0  0
  8 13  1  0  0  0  0
 18 28  1  0  0  0  0
 26 33  1  0  0  0  0
 44 46  1  0  0  0  0
  7 12  1  0  0  0  0
 34 39  1  0  0  0  0
 17 27  1  0  0  0  0
M  END
$$$$

  -OEChem-05262214473D

 49 49  0     1  0  0  0  0  0999 V2000
   -1.6183    0.5613    3.8201 C   0  0  0  0  0  0  0  0  0  0  0  0
   -0.6710   -0.0534    3.3444 O   0  0  0  0  0  0  0  0  0  0  0  0
   -2.0502    0.2789    5.2208 C   0  0  0  0  0  0  0  0  0  0  0  0
   -2.8099   -0.5175    5.2742 H   0  0  0  0  0  0  0  0  0  0  0  0
   -1.2190   -0.0687    5.8551 H   0  0  0  0  0  0  0  0  0  0  0  0
   -2.4882    1.1338    5.7604 H   0  0  0  0  0  0  0  0  0  0  0  0
   -2.3680    1.5337    3.1790 N   0  0  0  0  0  0  0  0  0  0  0  0
   -2.1212    1.9597    1.8266 C   0  0  2  0  0  0  0  0  0  0  0  0
   -0.7862    1.3744    1.3854 C   0  0  0  0  0  0  0  0  0  0  0  0
    0.0859    1.0216    2.1767 O   0  0  0  0  0  0  0  0  0  0  0  0
   -2.1124    3.4765    1.7171 C   0  0  0  0  0  0  0  0  0  0  0  0
   -3.1331    1.9695    3.6908 H   0  0  0  0  0  0  0  0  0  0  0  0
   -2.9253    1.5413    1.2115 H   0  0  0  0  0  0  0  0  0  0  0  0
   -1.3133    3.9138    2.3268 H   0  0  0  0  0  0  0  0  0  0  0  0
   -1.9529    3.7988    0.6829 H   0  0  0  0  0  0  0  0  0  0  0  0
   -3.0626    3.8977    2.0629 H   0  0  0  0  0  0  0  0  0  0  0  0
   -0.6635    1.3313    0.0020 N   0  0  0  0  0  0  0  0  0  0  0  0
    0.5138    0.8305   -0.6617 C   0  0  2  0  0  0  0  0  0  0  0  0
    0.2692    0.9458   -2.1620 C   0  0  0  0  0  0  0  0  0  0  0  0
   -0.2812    0.0653   -2.8199 O   0  0  0  0  0  0  0  0  0  0  0  0
    0.8185   -0.6231   -0.2816 C   0  0  0  0  0  0  0  0  0  0  0  0
    1.1520   -0.7862    1.1812 C   0  0  0  0  0  0  0  0  0  0  0  0
    2.3729   -0.3905    1.6676 N   0  0  0  0  0  0  0  0  0  0  0  0
    0.3656   -1.3099    2.1802 C   0  0  0  0  0  0  0  0  0  0  0  0
    2.3287   -0.6708    2.9512 C   0  0  0  0  0  0  0  0  0  0  0  0
    1.1330   -1.2296    3.3079 N   0  0  0  0  0  0  0  0  0  0  0  0
   -1.4467    1.6280   -0.5753 H   0  0  0  0  0  0  0  0  0  0  0  0
    1.3381    1.4963   -0.3802 H   0  0  0  0  0  0  0  0  0  0  0  0
    1.6435   -1.0115   -0.8941 H   0  0  0  0  0  0  0  0  0  0  0  0
   -0.0397   -1.2679   -0.5125 H   0  0  0  0  0  0  0  0  0  0  0  0
   -0.6344   -1.7190    2.1946 H   0  0  0  0  0  0  0  0  0  0  0  0
    3.1181   -0.4964    3.6686 H   0  0  0  0  0  0  0  0  0  0  0  0
    0.8655   -1.5280    4.2364 H   0  0  0  0  0  0  0  0  0  0  0  0
    0.6935    2.1678   -2.6652 N   0  0  0  0  0  0  0  0  0  0  0  0
    0.5577    2.5444   -4.0539 C   0  0  2  0  0  0  0  0  0  0  0  0
    1.1142    1.4108   -4.9052 C   0  0  0  0  0  0  0  0  0  0  0  0
    1.9223    0.5875   -4.4807 O   0  0  0  0  0  0  0  0  0  0  0  0
    1.2813    3.8496   -4.3465 C   0  0  0  0  0  0  0  0  0  0  0  0
    1.1209    2.8307   -2.0252 H   0  0  0  0  0  0  0  0  0  0  0  0
   -0.5147    2.6553   -4.2481 H   0  0  0  0  0  0  0  0  0  0  0  0
    2.3571    3.7579   -4.1576 H   0  0  0  0  0  0  0  0  0  0  0  0
    1.1536    4.1483   -5.3922 H   0  0  0  0  0  0  0  0  0  0  0  0
    0.9002    4.6572   -3.7122 H   0  0  0  0  0  0  0  0  0  0  0  0
    0.6352    1.4523   -6.2072 N   0  0  0  0  0  0  0  0  0  0  0  0
    1.0252    0.4913   -7.2123 C   0  0  0  0  0  0  0  0  0  0  0  0
   -0.0466    2.1591   -6.4664 H   0  0  0  0  0  0  0  0  0  0  0  0
    1.8912    0.8755   -7.7713 H   0  0  0  0  0  0  0  0  0  0  0  0
    1.2944   -0.4583   -6.7267 H   0  0  0  0  0  0  0  0  0  0  0  0
    0.1868    0.3243   -7.9046 H   0  0  0  0  0  0  0  0  0  0  0  0
 22 24  2  0  0  0  0
 24 26  1  0  0  0  0
 23 25  2  0  0  0  0
 25 26  1  0  0  0  0
 21 22  1  0  0  0  0
 22 23  1  0  0  0  0
  1  3  1  0  0  0  0
  1  7  1  0  0  0  0
  1  2  2  0  0  0  0
 35 36  1  0  0  0  0
 36 44  1  0  0  0  0
 36 37  2  0  0  0  0
  8  9  1  0  0  0  0
  9 17  1  0  0  0  0
  9 10  2  0  0  0  0
 18 19  1  0  0  0  0
 19 34  1  0  0  0  0
 19 20  2  0  0  0  0
 35 38  1  0  0  0  0
  8 11  1  0  0  0  0
 44 45  1  0  0  0  0
 18 21  1  0  0  0  0
 34 35  1  0  0  0  0
  7  8  1  0  0  0  0
 17 18  1  0  0  0  0
 24 31  1  0  0  0  0
 25 32  1  0  0  0  0
  3  4  1  0  0  0  0
  3  5  1  0  0  0  0
  3  6  1  0  0  0  0
 38 41  1  0  0  0  0
 38 42  1  0  0  0  0
 38 43  1  0  0  0  0
 11 14  1  0  0  0  0
 11 15  1  0  0  0  0
 11 16  1  0  0  0  0
 45 47  1  0  0  0  0
 45 48  1  0  0  0  0
 45 49  1  0  0  0  0
 21 29  1  0  0  0  0
 21 30  1  0  0  0  0
 35 40  1  0  0  0  0
  8 13  1  0  0  0  0
 18 28  1  0  0  0  0
 26 33  1  0  0  0  0
 44 46  1  0  0  0  0
  7 12  1  0  0  0  0
 34 39  1  0  0  0  0
 17 27  1  0  0  0  0
M  END
$$$$

  -OEChem-05262214473D

 49 49  0     1  0  0  0  0  0999 V2000
   -1.6183    0.5613    3.8201 C   0  0  0  0  0  0  0  0  0  0  0  0
   -0.6710   -0.0534    3.3444 O   0  0  0  0  0  0  0  0  0  0  0  0
   -2.0502    0.2789    5.2208 C   0  0  0  0  0  0  0  0  0  0  0  0
   -2.8099   -0.5175    5.2742 H   0  0  0  0  0  0  0  0  0  0  0  0
   -1.2190   -0.0687    5.8551 H   0  0  0  0  0  0  0  0  0  0  0  0
   -2.4882    1.1338    5.7604 H   0  0  0  0  0  0  0  0  0  0  0  0
   -2.3680    1.5337    3.1790 N   0  0  0  0  0  0  0  0  0  0  0  0
   -2.1212    1.9597    1.8266 C   0  0  2  0  0  0  0  0  0  0  0  0
   -0.7862    1.3744    1.3854 C   0  0  0  0  0  0  0  0  0  0  0  0
    0.0859    1.0216    2.1767 O   0  0  0  0  0  0  0  0  0  0  0  0
   -2.1124    3.4765    1.7171 C   0  0  0  0  0  0  0  0  0  0  0  0
   -3.1331    1.9695    3.6908 H   0  0  0  0  0  0  0  0  0  0  0  0
   -2.9253    1.5413    1.2115 H   0  0  0  0  0  0  0  0  0  0  0  0
   -1.3133    3.9138    2.3268 H   0  0  0  0  0  0  0  0  0  0  0  0
   -1.9529    3.7988    0.6829 H   0  0  0  0  0  0  0  0  0  0  0  0
   -3.0626    3.8977    2.0629 H   0  0  0  0  0  0  0  0  0  0  0  0
   -0.6635    1.3313    0.0020 N   0  0  0  0  0  0  0  0  0  0  0  0
    0.5138    0.8305   -0.6617 C   0  0  2  0  0  0  0  0  0  0  0  0
    0.2692    0.9458   -2.1620 C   0  0  0  0  0  0  0  0  0  0  0  0
   -0.5032    0.2099   -2.7726 O   0  0  0  0  0  0  0  0  0  0  0  0
    0.8185   -0.6231   -0.2816 C   0  0  0  0  0  0  0  0  0  0  0  0
    1.1520   -0.7862    1.1812 C   0  0  0  0  0  0  0  0  0  0  0  0
    2.3729   -0.3905    1.6676 N   0  0  0  0  0  0  0  0  0  0  0  0
    0.3656   -1.3099    2.1802 C   0  0  0  0  0  0  0  0  0  0  0  0
    2.3287   -0.6708    2.9512 C   0  0  0  0  0  0  0  0  0  0  0  0
    1.1330   -1.2296    3.3079 N   0  0  0  0  0  0  0  0  0  0  0  0
   -1.4467    1.6280   -0.5753 H   0  0  0  0  0  0  0  0  0  0  0  0
    1.3381    1.4963   -0.3802 H   0  0  0  0  0  0  0  0  0  0  0  0
    1.6435   -1.0115   -0.8941 H   0  0  0  0  0  0  0  0  0  0  0  0
   -0.0397   -1.2679   -0.5125 H   0  0  0  0  0  0  0  0  0  0  0  0
   -0.6344   -1.7190    2.1946 H   0  0  0  0  0  0  0  0  0  0  0  0
    3.1181   -0.4964    3.6686 H   0  0  0  0  0  0  0  0  0  0  0  0
    0.8655   -1.5280    4.2364 H   0  0  0  0  0  0  0  0  0  0  0  0
    0.9776    1.9985   -2.7245 N   0  0  0  0  0  0  0  0  0  0  0  0
    0.9074    2.3429   -4.1264 C   0  0  2  0  0  0  0  0  0  0  0  0
    1.1359    1.0725   -4.9348 C   0  0  0  0  0  0  0  0  0  0  0  0
    1.7184    0.0875   -4.4859 O   0  0  0  0  0  0  0  0  0  0  0  0
    1.9316    3.4078   -4.4865 C   0  0  0  0  0  0  0  0  0  0  0  0
    1.5754    2.5549   -2.1205 H   0  0  0  0  0  0  0  0  0  0  0  0
   -0.1060    2.7161   -4.3101 H   0  0  0  0  0  0  0  0  0  0  0  0
    2.9531    3.0521   -4.3090 H   0  0  0  0  0  0  0  0  0  0  0  0
    1.8580    3.6882   -5.5424 H   0  0  0  0  0  0  0  0  0  0  0  0
    1.7844    4.3100   -3.8830 H   0  0  0  0  0  0  0  0  0  0  0  0
    0.6509    1.1840   -6.2303 N   0  0  0  0  0  0  0  0  0  0  0  0
    0.7585    0.1169   -7.1976 C   0  0  0  0  0  0  0  0  0  0  0  0
    0.1649    2.0307   -6.5108 H   0  0  0  0  0  0  0  0  0  0  0  0
    1.6795    0.2453   -7.7852 H   0  0  0  0  0  0  0  0  0  0  0  0
    0.7893   -0.8503   -6.6745 H   0  0  0  0  0  0  0  0  0  0  0  0
   -0.1118    0.1425   -7.8699 H   0  0  0  0  0  0  0  0  0  0  0  0
 22 24  2  0  0  0  0
 24 26  1  0  0  0  0
 23 25  2  0  0  0  0
 25 26  1  0  0  0  0
 21 22  1  0  0  0  0
 22 23  1  0  0  0  0
  1  3  1  0  0  0  0
  1  7  1  0  0  0  0
  1  2  2  0  0  0  0
 35 36  1  0  0  0  0
 36 44  1  0  0  0  0
 36 37  2  0  0  0  0
  8  9  1  0  0  0  0
  9 17  1  0  0  0  0
  9 10  2  0  0  0  0
 18 19  1  0  0  0  0
 19 34  1  0  0  0  0
 19 20  2  0  0  0  0
 35 38  1  0  0  0  0
  8 11  1  0  0  0  0
 44 45  1  0  0  0  0
 18 21  1  0  0  0  0
 34 35  1  0  0  0  0
  7  8  1  0  0  0  0
 17 18  1  0  0  0  0
 24 31  1  0  0  0  0
 25 32  1  0  0  0  0
  3  4  1  0  0  0  0
  3  5  1  0  0  0  0
  3  6  1  0  0  0  0
 38 41  1  0  0  0  0
 38 42  1  0  0  0  0
 38 43  1  0  0  0  0
 11 14  1  0  0  0  0
 11 15  1  0  0  0  0
 11 16  1  0  0  0  0
 45 47  1  0  0  0  0
 45 48  1  0  0  0  0
 45 49  1  0  0  0  0
 21 29  1  0  0  0  0
 21 30  1  0  0  0  0
 35 40  1  0  0  0  0
  8 13  1  0  0  0  0
 18 28  1  0  0  0  0
 26 33  1  0  0  0  0
 44 46  1  0  0  0  0
  7 12  1  0  0  0  0
 34 39  1  0  0  0  0
 17 27  1  0  0  0  0
M  END
$$$$

  -OEChem-05262214473D

 49 49  0     1  0  0  0  0  0999 V2000
   -1.6183    0.5613    3.8201 C   0  0  0  0  0  0  0  0  0  0  0  0
   -0.6710   -0.0534    3.3444 O   0  0  0  0  0  0  0  0  0  0  0  0
   -2.0502    0.2789    5.2208 C   0  0  0  0  0  0  0  0  0  0  0  0
   -2.8099   -0.5175    5.2742 H   0  0  0  0  0  0  0  0  0  0  0  0
   -1.2190   -0.0687    5.8551 H   0  0  0  0  0  0  0  0  0  0  0  0
   -2.4882    1.1338    5.7604 H   0  0  0  0  0  0  0  0  0  0  0  0
   -2.3680    1.5337    3.1790 N   0  0  0  0  0  0  0  0  0  0  0  0
   -2.1212    1.9597    1.8266 C   0  0  2  0  0  0  0  0  0  0  0  0
   -0.7862    1.3744    1.3854 C   0  0  0  0  0  0  0  0  0  0  0  0
    0.0859    1.0216    2.1767 O   0  0  0  0  0  0  0  0  0  0  0  0
   -2.1124    3.4765    1.7171 C   0  0  0  0  0  0  0  0  0  0  0  0
   -3.1331    1.9695    3.6908 H   0  0  0  0  0  0  0  0  0  0  0  0
   -2.9253    1.5413    1.2115 H   0  0  0  0  0  0  0  0  0  0  0  0
   -1.3133    3.9138    2.3268 H   0  0  0  0  0  0  0  0  0  0  0  0
   -1.9529    3.7988    0.6829 H   0  0  0  0  0  0  0  0  0  0  0  0
   -3.0626    3.8977    2.0629 H   0  0  0  0  0  0  0  0  0  0  0  0
   -0.6635    1.3313    0.0020 N   0  0  0  0  0  0  0  0  0  0  0  0
    0.5138    0.8305   -0.6617 C   0  0  2  0  0  0  0  0  0  0  0  0
    0.2692    0.9458   -2.1620 C   0  0  0  0  0  0  0  0  0  0  0  0
   -0.6800    0.4081   -2.7285 O   0  0  0  0  0  0  0  0  0  0  0  0
    0.8185   -0.6231   -0.2816 C   0  0  0  0  0  0  0  0  0  0  0  0
    1.1520   -0.7862    1.1812 C   0  0  0  0  0  0  0  0  0  0  0  0
    2.3729   -0.3905    1.6676 N   0  0  0  0  0  0  0  0  0  0  0  0
    0.3656   -1.3099    2.1802 C   0  0  0  0  0  0  0  0  0  0  0  0
    2.3287   -0.6708    2.9512 C   0  0  0  0  0  0  0  0  0  0  0  0
    1.1330   -1.2296    3.3079 N   0  0  0  0  0  0  0  0  0  0  0  0
   -1.4467    1.6280   -0.5753 H   0  0  0  0  0  0  0  0  0  0  0  0
    1.3381    1.4963   -0.3802 H   0  0  0  0  0  0  0  0  0  0  0  0
    1.6435   -1.0115   -0.8941 H   0  0  0  0  0  0  0  0  0  0  0  0
   -0.0397   -1.2679   -0.5125 H   0  0  0  0  0  0  0  0  0  0  0  0
   -0.6344   -1.7190    2.1946 H   0  0  0  0  0  0  0  0  0  0  0  0
    3.1181   -0.4964    3.6686 H   0  0  0  0  0  0  0  0  0  0  0  0
    0.8655   -1.5280    4.2364 H   0  0  0  0  0  0  0  0  0  0  0  0
    1.2077    1.7602   -2.7804 N   0  0  0  0  0  0  0  0  0  0  0  0
    1.1925    2.0561   -4.1949 C   0  0  2  0  0  0  0  0  0  0  0  0
    1.0701    0.7390   -4.9497 C   0  0  0  0  0  0  0  0  0  0  0  0
    1.3940   -0.3438   -4.4662 O   0  0  0  0  0  0  0  0  0  0  0  0
    2.4445    2.8097   -4.6161 C   0  0  0  0  0  0  0  0  0  0  0  0
    1.9422    2.1687   -2.2100 H   0  0  0  0  0  0  0  0  0  0  0  0
    0.3030    2.6680   -4.3805 H   0  0  0  0  0  0  0  0  0  0  0  0
    3.3461    2.2123   -4.4377 H   0  0  0  0  0  0  0  0  0  0  0  0
    2.4183    3.0581   -5.6822 H   0  0  0  0  0  0  0  0  0  0  0  0
    2.5466    3.7424   -4.0509 H   0  0  0  0  0  0  0  0  0  0  0  0
    0.5973    0.9199   -6.2419 N   0  0  0  0  0  0  0  0  0  0  0  0
    0.4057   -0.1762   -7.1626 C   0  0  0  0  0  0  0  0  0  0  0  0
    0.3357    1.8510   -6.5525 H   0  0  0  0  0  0  0  0  0  0  0  0
    1.3141   -0.3100   -7.7683 H   0  0  0  0  0  0  0  0  0  0  0  0
    0.2027   -1.0981   -6.5979 H   0  0  0  0  0  0  0  0  0  0  0  0
   -0.4459    0.0443   -7.8230 H   0  0  0  0  0  0  0  0  0  0  0  0
 22 24  2  0  0  0  0
 24 26  1  0  0  0  0
 23 25  2  0  0  0  0
 25 26  1  0  0  0  0
 21 22  1  0  0  0  0
 22 23  1  0  0  0  0
  1  3  1  0  0  0  0
  1  7  1  0  0  0  0
  1  2  2  0  0  0  0
 35 36  1  0  0  0  0
 36 44  1  0  0  0  0
 36 37  2  0  0  0  0
  8  9  1  0  0  0  0
  9 17  1  0  0  0  0
  9 10  2  0  0  0  0
 18 19  1  0  0  0  0
 19 34  1  0  0  0  0
 19 20  2  0  0  0  0
 35 38  1  0  0  0  0
  8 11  1  0  0  0  0
 44 45  1  0  0  0  0
 18 21  1  0  0  0  0
 34 35  1  0  0  0  0
  7  8  1  0  0  0  0
 17 18  1  0  0  0  0
 24 31  1  0  0  0  0
 25 32  1  0  0  0  0
  3  4  1  0  0  0  0
  3  5  1  0  0  0  0
  3  6  1  0  0  0  0
 38 41  1  0  0  0  0
 38 42  1  0  0  0  0
 38 43  1  0  0  0  0
 11 14  1  0  0  0  0
 11 15  1  0  0  0  0
 11 16  1  0  0  0  0
 45 47  1  0  0  0  0
 45 48  1  0  0  0  0
 45 49  1  0  0  0  0
 21 29  1  0  0  0  0
 21 30  1  0  0  0  0
 35 40  1  0  0  0  0
  8 13  1  0  0  0  0
 18 28  1  0  0  0  0
 26 33  1  0  0  0  0
 44 46  1  0  0  0  0
  7 12  1  0  0  0  0
 34 39  1  0  0  0  0
 17 27  1  0  0  0  0
M  END
$$$$

  -OEChem-05262214473D

 49 49  0     1  0  0  0  0  0999 V2000
   -1.6183    0.5613    3.8201 C   0  0  0  0  0  0  0  0  0  0  0  0
   -0.6710   -0.0534    3.3444 O   0  0  0  0  0  0  0  0  0  0  0  0
   -2.0502    0.2789    5.2208 C   0  0  0  0  0  0  0  0  0  0  0  0
   -2.8099   -0.5175    5.2742 H   0  0  0  0  0  0  0  0  0  0  0  0
   -1.2190   -0.0687    5.8551 H   0  0  0  0  0  0  0  0  0  0  0  0
   -2.4882    1.1338    5.7604 H   0  0  0  0  0  0  0  0  0  0  0  0
   -2.3680    1.5337    3.1790 N   0  0  0  0  0  0  0  0  0  0  0  0
   -2.1212    1.9597    1.8266 C   0  0  2  0  0  0  0  0  0  0  0  0
   -0.7862    1.3744    1.3854 C   0  0  0  0  0  0  0  0  0  0  0  0
    0.0859    1.0216    2.1767 O   0  0  0  0  0  0  0  0  0  0  0  0
   -2.1124    3.4765    1.7171 C   0  0  0  0  0  0  0  0  0  0  0  0
   -3.1331    1.9695    3.6908 H   0  0  0  0  0  0  0  0  0  0  0  0
   -2.9253    1.5413    1.2115 H   0  0  0  0  0  0  0  0  0  0  0  0
   -1.3133    3.9138    2.3268 H   0  0  0  0  0  0  0  0  0  0  0  0
   -1.9529    3.7988    0.6829 H   0  0  0  0  0  0  0  0  0  0  0  0
   -3.0626    3.8977    2.0629 H   0  0  0  0  0  0  0  0  0  0  0  0
   -0.6635    1.3313    0.0020 N   0  0  0  0  0  0  0  0  0  0  0  0
    0.5138    0.8305   -0.6617 C   0  0  2  0  0  0  0  0  0  0  0  0
    0.2692    0.9458   -2.1620 C   0  0  0  0  0  0  0  0  0  0  0  0
   -0.7993    0.6464   -2.6907 O   0  0  0  0  0  0  0  0  0  0  0  0
    0.8185   -0.6231   -0.2816 C   0  0  0  0  0  0  0  0  0  0  0  0
    1.1520   -0.7862    1.1812 C   0  0  0  0  0  0  0  0  0  0  0  0
    2.3729   -0.3905    1.6676 N   0  0  0  0  0  0  0  0  0  0  0  0
    0.3656   -1.3099    2.1802 C   0  0  0  0  0  0  0  0  0  0  0  0
    2.3287   -0.6708    2.9512 C   0  0  0  0  0  0  0  0  0  0  0  0
    1.1330   -1.2296    3.3079 N   0  0  0  0  0  0  0  0  0  0  0  0
   -1.4467    1.6280   -0.5753 H   0  0  0  0  0  0  0  0  0  0  0  0
    1.3381    1.4963   -0.3802 H   0  0  0  0  0  0  0  0  0  0  0  0
    1.6435   -1.0115   -0.8941 H   0  0  0  0  0  0  0  0  0  0  0  0
   -0.0397   -1.2679   -0.5125 H   0  0  0  0  0  0  0  0  0  0  0  0
   -0.6344   -1.7190    2.1946 H   0  0  0  0  0  0  0  0  0  0  0  0
    3.1181   -0.4964    3.6686 H   0  0  0  0  0  0  0  0  0  0  0  0
    0.8655   -1.5280    4.2364 H   0  0  0  0  0  0  0  0  0  0  0  0
    1.3682    1.4690   -2.8289 N   0  0  0  0  0  0  0  0  0  0  0  0
    1.3935    1.7037   -4.2548 C   0  0  2  0  0  0  0  0  0  0  0  0
    0.9214    0.4330   -4.9490 C   0  0  0  0  0  0  0  0  0  0  0  0
    0.9712   -0.6769   -4.4228 O   0  0  0  0  0  0  0  0  0  0  0  0
    2.7850    2.0958   -4.7265 C   0  0  0  0  0  0  0  0  0  0  0  0
    2.1965    1.6986   -2.2876 H   0  0  0  0  0  0  0  0  0  0  0  0
    0.6845    2.5146   -4.4545 H   0  0  0  0  0  0  0  0  0  0  0  0
    3.5092    1.2957   -4.5347 H   0  0  0  0  0  0  0  0  0  0  0  0
    2.7962    2.3010   -5.8020 H   0  0  0  0  0  0  0  0  0  0  0  0
    3.1350    2.9930   -4.2045 H   0  0  0  0  0  0  0  0  0  0  0  0
    0.4780    0.6780   -6.2410 N   0  0  0  0  0  0  0  0  0  0  0  0
   -0.0090   -0.3680   -7.1098 C   0  0  0  0  0  0  0  0  0  0  0  0
    0.4541    1.6322   -6.5886 H   0  0  0  0  0  0  0  0  0  0  0  0
    0.8202   -0.7526   -7.7218 H   0  0  0  0  0  0  0  0  0  0  0  0
   -0.4256   -1.1848   -6.5021 H   0  0  0  0  0  0  0  0  0  0  0  0
   -0.7927    0.0366   -7.7670 H   0  0  0  0  0  0  0  0  0  0  0  0
 22 24  2  0  0  0  0
 24 26  1  0  0  0  0
 23 25  2  0  0  0  0
 25 26  1  0  0  0  0
 21 22  1  0  0  0  0
 22 23  1  0  0  0  0
  1  3  1  0  0  0  0
  1  7  1  0  0  0  0
  1  2  2  0  0  0  0
 35 36  1  0  0  0  0
 36 44  1  0  0  0  0
 36 37  2  0  0  0  0
  8  9  1  0  0  0  0
  9 17  1  0  0  0  0
  9 10  2  0  0  0  0
 18 19  1  0  0  0  0
 19 34  1  0  0  0  0
 19 20  2  0  0  0  0
 35 38  1  0  0  0  0
  8 11  1  0  0  0  0
 44 45  1  0  0  0  0
 18 21  1  0  0  0  0
 34 35  1  0  0  0  0
  7  8  1  0  0  0  0
 17 18  1  0  0  0  0
 24 31  1  0  0  0  0
 25 32  1  0  0  0  0
  3  4  1  0  0  0  0
  3  5  1  0  0  0  0
  3  6  1  0  0  0  0
 38 41  1  0  0  0  0
 38 42  1  0  0  0  0
 38 43  1  0  0  0  0
 11 14  1  0  0  0  0
 11 15  1  0  0  0  0
 11 16  1  0  0  0  0
 45 47  1  0  0  0  0
 45 48  1  0  0  0  0
 45 49  1  0  0  0  0
 21 29  1  0  0  0  0
 21 30  1  0  0  0  0
 35 40  1  0  0  0  0
  8 13  1  0  0  0  0
 18 28  1  0  0  0  0
 26 33  1  0  0  0  0
 44 46  1  0  0  0  0
  7 12  1  0  0  0  0
 34 39  1  0  0  0  0
 17 27  1  0  0  0  0
M  END
$$$$

  -OEChem-05262214473D

 49 49  0     1  0  0  0  0  0999 V2000
   -1.6183    0.5613    3.8201 C   0  0  0  0  0  0  0  0  0  0  0  0
   -0.6710   -0.0534    3.3444 O   0  0  0  0  0  0  0  0  0  0  0  0
   -2.0502    0.2789    5.2208 C   0  0  0  0  0  0  0  0  0  0  0  0
   -2.8099   -0.5175    5.2742 H   0  0  0  0  0  0  0  0  0  0  0  0
   -1.2190   -0.0687    5.8551 H   0  0  0  0  0  0  0  0  0  0  0  0
   -2.4882    1.1338    5.7604 H   0  0  0  0  0  0  0  0  0  0  0  0
   -2.3680    1.5337    3.1790 N   0  0  0  0  0  0  0  0  0  0  0  0
   -2.1212    1.9597    1.8266 C   0  0  2  0  0  0  0  0  0  0  0  0
   -0.7862    1.3744    1.3854 C   0  0  0  0  0  0  0  0  0  0  0  0
    0.0859    1.0216    2.1767 O   0  0  0  0  0  0  0  0  0  0  0  0
   -2.1124    3.4765    1.7171 C   0  0  0  0  0  0  0  0  0  0  0  0
   -3.1331    1.9695    3.6908 H   0  0  0  0  0  0  0  0  0  0  0  0
   -2.9253    1.5413    1.2115 H   0  0  0  0  0  0  0  0  0  0  0  0
   -1.3133    3.9138    2.3268 H   0  0  0  0  0  0  0  0  0  0  0  0
   -1.9529    3.7988    0.6829 H   0  0  0  0  0  0  0  0  0  0  0  0
   -3.0626    3.8977    2.0629 H   0  0  0  0  0  0  0  0  0  0  0  0
   -0.6635    1.3313    0.0020 N   0  0  0  0  0  0  0  0  0  0  0  0
    0.5138    0.8305   -0.6617 C   0  0  2  0  0  0  0  0  0  0  0  0
    0.2692    0.9458   -2.1620 C   0  0  0  0  0  0  0  0  0  0  0  0
   -0.8532    0.9085   -2.6618 O   0  0  0  0  0  0  0  0  0  0  0  0
    0.8185   -0.6231   -0.2816 C   0  0  0  0  0  0  0  0  0  0  0  0
    1.1520   -0.7862    1.1812 C   0  0  0  0  0  0  0  0  0  0  0  0
    2.3729   -0.3905    1.6676 N   0  0  0  0  0  0  0  0  0  0  0  0
    0.3656   -1.3099    2.1802 C   0  0  0  0  0  0  0  0  0  0  0  0
    2.3287   -0.6708    2.9512 C   0  0  0  0  0  0  0  0  0  0  0  0
    1.1330   -1.2296    3.3079 N   0  0  0  0  0  0  0  0  0  0  0  0
   -1.4467    1.6280   -0.5753 H   0  0  0  0  0  0  0  0  0  0  0  0
    1.3381    1.4963   -0.3802 H   0  0  0  0  0  0  0  0  0  0  0  0
    1.6435   -1.0115   -0.8941 H   0  0  0  0  0  0  0  0  0  0  0  0
   -0.0397   -1.2679   -0.5125 H   0  0  0  0  0  0  0  0  0  0  0  0
   -0.6344   -1.7190    2.1946 H   0  0  0  0  0  0  0  0  0  0  0  0
    3.1181   -0.4964    3.6686 H   0  0  0  0  0  0  0  0  0  0  0  0
    0.8655   -1.5280    4.2364 H   0  0  0  0  0  0  0  0  0  0  0  0
    1.4481    1.1449   -2.8669 N   0  0  0  0  0  0  0  0  0  0  0  0
    1.4966    1.3096   -4.3019 C   0  0  2  0  0  0  0  0  0  0  0  0
    0.6997    0.1753   -4.9326 C   0  0  0  0  0  0  0  0  0  0  0  0
    0.4788   -0.8892   -4.3589 O   0  0  0  0  0  0  0  0  0  0  0  0
    2.9299    1.3150   -4.8101 C   0  0  0  0  0  0  0  0  0  0  0  0
    2.3208    1.1765   -2.3480 H   0  0  0  0  0  0  0  0  0  0  0  0
    1.0124    2.2661   -4.5270 H   0  0  0  0  0  0  0  0  0  0  0  0
    3.4314    0.3647   -4.5936 H   0  0  0  0  0  0  0  0  0  0  0  0
    2.9661    1.4684   -5.8937 H   0  0  0  0  0  0  0  0  0  0  0  0
    3.5095    2.1128   -4.3332 H   0  0  0  0  0  0  0  0  0  0  0  0
    0.3011    0.4748   -6.2278 N   0  0  0  0  0  0  0  0  0  0  0  0
   -0.4573   -0.4454   -7.0426 C   0  0  0  0  0  0  0  0  0  0  0  0
    0.5120    1.3891   -6.6167 H   0  0  0  0  0  0  0  0  0  0  0  0
    0.2312   -1.0524   -7.6489 H   0  0  0  0  0  0  0  0  0  0  0  0
   -1.0527   -1.1046   -6.3937 H   0  0  0  0  0  0  0  0  0  0  0  0
   -1.1286    0.1198   -7.7059 H   0  0  0  0  0  0  0  0  0  0  0  0
 22 24  2  0  0  0  0
 24 26  1  0  0  0  0
 23 25  2  0  0  0  0
 25 26  1  0  0  0  0
 21 22  1  0  0  0  0
 22 23  1  0  0  0  0
  1  3  1  0  0  0  0
  1  7  1  0  0  0  0
  1  2  2  0  0  0  0
 35 36  1  0  0  0  0
 36 44  1  0  0  0  0
 36 37  2  0  0  0  0
  8  9  1  0  0  0  0
  9 17  1  0  0  0  0
  9 10  2  0  0  0  0
 18 19  1  0  0  0  0
 19 34  1  0  0  0  0
 19 20  2  0  0  0  0
 35 38  1  0  0  0  0
  8 11  1  0  0  0  0
 44 45  1  0  0  0  0
 18 21  1  0  0  0  0
 34 35  1  0  0  0  0
  7  8  1  0  0  0  0
 17 18  1  0  0  0  0
 24 31  1  0  0  0  0
 25 32  1  0  0  0  0
  3  4  1  0  0  0  0
  3  5  1  0  0  0  0
  3  6  1  0  0  0  0
 38 41  1  0  0  0  0
 38 42  1  0  0  0  0
 38 43  1  0  0  0  0
 11 14  1  0  0  0  0
 11 15  1  0  0  0  0
 11 16  1  0  0  0  0
 45 47  1  0  0  0  0
 45 48  1  0  0  0  0
 45 49  1  0  0  0  0
 21 29  1  0  0  0  0
 21 30  1  0  0  0  0
 35 40  1  0  0  0  0
  8 13  1  0  0  0  0
 18 28  1  0  0  0  0
 26 33  1  0  0  0  0
 44 46  1  0  0  0  0
  7 12  1  0  0  0  0
 34 39  1  0  0  0  0
 17 27  1  0  0  0  0
M  END
$$$$

  -OEChem-05262214473D

 49 49  0     1  0  0  0  0  0999 V2000
   -1.6183    0.5613    3.8201 C   0  0  0  0  0  0  0  0  0  0  0  0
   -0.6710   -0.0534    3.3444 O   0  0  0  0  0  0  0  0  0  0  0  0
   -2.0502    0.2789    5.2208 C   0  0  0  0  0  0  0  0  0  0  0  0
   -2.8099   -0.5175    5.2742 H   0  0  0  0  0  0  0  0  0  0  0  0
   -1.2190   -0.0687    5.8551 H   0  0  0  0  0  0  0  0  0  0  0  0
   -2.4882    1.1338    5.7604 H   0  0  0  0  0  0  0  0  0  0  0  0
   -2.3680    1.5337    3.1790 N   0  0  0  0  0  0  0  0  0  0  0  0
   -2.1212    1.9597    1.8266 C   0  0  2  0  0  0  0  0  0  0  0  0
   -0.7862    1.3744    1.3854 C   0  0  0  0  0  0  0  0  0  0  0  0
    0.0859    1.0216    2.1767 O   0  0  0  0  0  0  0  0  0  0  0  0
   -2.1124    3.4765    1.7171 C   0  0  0  0  0  0  0  0  0  0  0  0
   -3.1331    1.9695    3.6908 H   0  0  0  0  0  0  0  0  0  0  0  0
   -2.9253    1.5413    1.2115 H   0  0  0  0  0  0  0  0  0  0  0  0
   -1.3133    3.9138    2.3268 H   0  0  0  0  0  0  0  0  0  0  0  0
   -1.9529    3.7988    0.6829 H   0  0  0  0  0  0  0  0  0  0  0  0
   -3.0626    3.8977    2.0629 H   0  0  0  0  0  0  0  0  0  0  0  0
   -0.6635    1.3313    0.0020 N   0  0  0  0  0  0  0  0  0  0  0  0
    0.5138    0.8305   -0.6617 C   0  0  2  0  0  0  0  0  0  0  0  0
    0.2692    0.9458   -2.1620 C   0  0  0  0  0  0  0  0  0  0  0  0
   -0.8379    1.1766   -2.6437 O   0  0  0  0  0  0  0  0  0  0  0  0
    0.8185   -0.6231   -0.2816 C   0  0  0  0  0  0  0  0  0  0  0  0
    1.1520   -0.7862    1.1812 C   0  0  0  0  0  0  0  0  0  0  0  0
    2.3729   -0.3905    1.6676 N   0  0  0  0  0  0  0  0  0  0  0  0
    0.3656   -1.3099    2.1802 C   0  0  0  0  0  0  0  0  0  0  0  0
    2.3287   -0.6708    2.9512 C   0  0  0  0  0  0  0  0  0  0  0  0
    1.1330   -1.2296    3.3079 N   0  0  0  0  0  0  0  0  0  0  0  0
   -1.4467    1.6280   -0.5753 H   0  0  0  0  0  0  0  0  0  0  0  0
    1.3381    1.4963   -0.3802 H   0  0  0  0  0  0  0  0  0  0  0  0
    1.6435   -1.0115   -0.8941 H   0  0  0  0  0  0  0  0  0  0  0  0
   -0.0397   -1.2679   -0.5125 H   0  0  0  0  0  0  0  0  0  0  0  0
   -0.6344   -1.7190    2.1946 H   0  0  0  0  0  0  0  0  0  0  0  0
    3.1181   -0.4964    3.6686 H   0  0  0  0  0  0  0  0  0  0  0  0
    0.8655   -1.5280    4.2364 H   0  0  0  0  0  0  0  0  0  0  0  0
    1.4420    0.8099   -2.8916 N   0  0  0  0  0  0  0  0  0  0  0  0
    1.4950    0.9007   -4.3331 C   0  0  2  0  0  0  0  0  0  0  0  0
    0.4203   -0.0165   -4.9018 C   0  0  0  0  0  0  0  0  0  0  0  0
   -0.0496   -0.9662   -4.2787 O   0  0  0  0  0  0  0  0  0  0  0  0
    2.8694    0.5204   -4.8613 C   0  0  0  0  0  0  0  0  0  0  0  0
    2.3067    0.6380   -2.3871 H   0  0  0  0  0  0  0  0  0  0  0  0
    1.2644    1.9395   -4.5932 H   0  0  0  0  0  0  0  0  0  0  0  0
    3.1179   -0.5172   -4.6103 H   0  0  0  0  0  0  0  0  0  0  0  0
    2.9163    0.6172   -5.9510 H   0  0  0  0  0  0  0  0  0  0  0  0
    3.6445    1.1619   -4.4283 H   0  0  0  0  0  0  0  0  0  0  0  0
    0.0788    0.3241   -6.2032 N   0  0  0  0  0  0  0  0  0  0  0  0
   -0.9089   -0.4033   -6.9658 C   0  0  0  0  0  0  0  0  0  0  0  0
    0.5055    1.1385   -6.6349 H   0  0  0  0  0  0  0  0  0  0  0  0
   -0.4127   -1.1890   -7.5544 H   0  0  0  0  0  0  0  0  0  0  0  0
   -1.6359   -0.8629   -6.2801 H   0  0  0  0  0  0  0  0  0  0  0  0
   -1.4307    0.2882   -7.6437 H   0  0  0  0  0  0  0  0  0  0  0  0
 22 24  2  0  0  0  0
 24 26  1  0  0  0  0
 23 25  2  0  0  0  0
 25 26  1  0  0  0  0
 21 22  1  0  0  0  0
 22 23  1  0  0  0  0
  1  3  1  0  0  0  0
  1  7  1  0  0  0  0
  1  2  2  0  0  0  0
 35 36  1  0  0  0  0
 36 44  1  0  0  0  0
 36 37  2  0  0  0  0
  8  9  1  0  0  0  0
  9 17  1  0  0  0  0
  9 10  2  0  0  0  0
 18 19  1  0  0  0  0
 19 34  1  0  0  0  0
 19 20  2  0  0  0  0
 35 38  1  0  0  0  0
  8 11  1  0  0  0  0
 44 45  1  0  0  0  0
 18 21  1  0  0  0  0
 34 35  1  0  0  0  0
  7  8  1  0  0  0  0
 17 18  1  0  0  0  0
 24 31  1  0  0  0  0
 25 32  1  0  0  0  0
  3  4  1  0  0  0  0
  3  5  1  0  0  0  0
  3  6  1  0  0  0  0
 38 41  1  0  0  0  0
 38 42  1  0  0  0  0
 38 43  1  0  0  0  0
 11 14  1  0  0  0  0
 11 15  1  0  0  0  0
 11 16  1  0  0  0  0
 45 47  1  0  0  0  0
 45 48  1  0  0  0  0
 45 49  1  0  0  0  0
 21 29  1  0  0  0  0
 21 30  1  0  0  0  0
 35 40  1  0  0  0  0
  8 13  1  0  0  0  0
 18 28  1  0  0  0  0
 26 33  1  0  0  0  0
 44 46  1  0  0  0  0
  7 12  1  0  0  0  0
 34 39  1  0  0  0  0
 17 27  1  0  0  0  0
M  END
$$$$

  -OEChem-05262214473D

 49 49  0     1  0  0  0  0  0999 V2000
   -1.6183    0.5613    3.8201 C   0  0  0  0  0  0  0  0  0  0  0  0
   -0.6710   -0.0534    3.3444 O   0  0  0  0  0  0  0  0  0  0  0  0
   -2.0502    0.2789    5.2208 C   0  0  0  0  0  0  0  0  0  0  0  0
   -2.8099   -0.5175    5.2742 H   0  0  0  0  0  0  0  0  0  0  0  0
   -1.2190   -0.0687    5.8551 H   0  0  0  0  0  0  0  0  0  0  0  0
   -2.4882    1.1338    5.7604 H   0  0  0  0  0  0  0  0  0  0  0  0
   -2.3680    1.5337    3.1790 N   0  0  0  0  0  0  0  0  0  0  0  0
   -2.1212    1.9597    1.8266 C   0  0  2  0  0  0  0  0  0  0  0  0
   -0.7862    1.3744    1.3854 C   0  0  0  0  0  0  0  0  0  0  0  0
    0.0859    1.0216    2.1767 O   0  0  0  0  0  0  0  0  0  0  0  0
   -2.1124    3.4765    1.7171 C   0  0  0  0  0  0  0  0  0  0  0  0
   -3.1331    1.9695    3.6908 H   0  0  0  0  0  0  0  0  0  0  0  0
   -2.9253    1.5413    1.2115 H   0  0  0  0  0  0  0  0  0  0  0  0
   -1.3133    3.9138    2.3268 H   0  0  0  0  0  0  0  0  0  0  0  0
   -1.9529    3.7988    0.6829 H   0  0  0  0  0  0  0  0  0  0  0  0
   -3.0626    3.8977    2.0629 H   0  0  0  0  0  0  0  0  0  0  0  0
   -0.6635    1.3313    0.0020 N   0  0  0  0  0  0  0  0  0  0  0  0
    0.5138    0.8305   -0.6617 C   0  0  2  0  0  0  0  0  0  0  0  0
    0.4387    1.2829   -2.1156 C   0  0  0  0  0  0  0  0  0  0  0  0
   -0.4712    1.9848   -2.5518 O   0  0  0  0  0  0  0  0  0  0  0  0
    0.6168   -0.6971   -0.5835 C   0  0  0  0  0  0  0  0  0  0  0  0
    0.7784   -1.1996    0.8304 C   0  0  0  0  0  0  0  0  0  0  0  0
    1.9788   -1.0732    1.4837 N   0  0  0  0  0  0  0  0  0  0  0  0
   -0.1591   -1.8120    1.6283 C   0  0  0  0  0  0  0  0  0  0  0  0
    1.7725   -1.6037    2.6685 C   0  0  0  0  0  0  0  0  0  0  0  0
    0.4925   -2.0653    2.8023 N   0  0  0  0  0  0  0  0  0  0  0  0
   -1.4467    1.6280   -0.5753 H   0  0  0  0  0  0  0  0  0  0  0  0
    1.3727    1.3121   -0.1798 H   0  0  0  0  0  0  0  0  0  0  0  0
    1.4529   -1.0540   -1.2002 H   0  0  0  0  0  0  0  0  0  0  0  0
   -0.2785   -1.1645   -1.0143 H   0  0  0  0  0  0  0  0  0  0  0  0
   -1.1940   -2.0830    1.4764 H   0  0  0  0  0  0  0  0  0  0  0  0
    2.4984   -1.6841    3.4654 H   0  0  0  0  0  0  0  0  0  0  0  0
    0.1000   -2.5115    3.6206 H   0  0  0  0  0  0  0  0  0  0  0  0
    1.5333    0.8506   -2.8514 N   0  0  0  0  0  0  0  0  0  0  0  0
    1.7216    1.1607   -4.2504 C   0  0  2  0  0  0  0  0  0  0  0  0
    0.4330    0.8169   -4.9858 C   0  0  0  0  0  0  0  0  0  0  0  0
   -0.3932    0.0162   -4.5530 O   0  0  0  0  0  0  0  0  0  0  0  0
    2.9003    0.3964   -4.8328 C   0  0  0  0  0  0  0  0  0  0  0  0
    2.2376    0.2881   -2.3831 H   0  0  0  0  0  0  0  0  0  0  0  0
    1.9023    2.2393   -4.3138 H   0  0  0  0  0  0  0  0  0  0  0  0
    2.7374   -0.6861   -4.7781 H   0  0  0  0  0  0  0  0  0  0  0  0
    3.0592    0.6540   -5.8852 H   0  0  0  0  0  0  0  0  0  0  0  0
    3.8208    0.6222   -4.2837 H   0  0  0  0  0  0  0  0  0  0  0  0
    0.3347    1.4768   -6.2028 N   0  0  0  0  0  0  0  0  0  0  0  0
   -0.7901    1.3075   -7.0928 C   0  0  0  0  0  0  0  0  0  0  0  0
    1.0577    2.1371   -6.4730 H   0  0  0  0  0  0  0  0  0  0  0  0
   -0.5699    0.5073   -7.8148 H   0  0  0  0  0  0  0  0  0  0  0  0
   -1.6826    1.0386   -6.5087 H   0  0  0  0  0  0  0  0  0  0  0  0
   -0.9750    2.2478   -7.6329 H   0  0  0  0  0  0  0  0  0  0  0  0
 22 24  2  0  0  0  0
 24 26  1  0  0  0  0
 23 25  2  0  0  0  0
 25 26  1  0  0  0  0
 21 22  1  0  0  0  0
 22 23  1  0  0  0  0
  1  3  1  0  0  0  0
  1  7  1  0  0  0  0
  1  2  2  0  0  0  0
 35 36  1  0  0  0  0
 36 44  1  0  0  0  0
 36 37  2  0  0  0  0
  8  9  1  0  0  0  0
  9 17  1  0  0  0  0
  9 10  2  0  0  0  0
 18 19  1  0  0  0  0
 19 34  1  0  0  0  0
 19 20  2  0  0  0  0
 35 38  1  0  0  0  0
  8 11  1  0  0  0  0
 44 45  1  0  0  0  0
 18 21  1  0  0  0  0
 34 35  1  0  0  0  0
  7  8  1  0  0  0  0
 17 18  1  0  0  0  0
 24 31  1  0  0  0  0
 25 32  1  0  0  0  0
  3  4  1  0  0  0  0
  3  5  1  0  0  0  0
  3  6  1  0  0  0  0
 38 41  1  0  0  0  0
 38 42  1  0  0  0  0
 38 43  1  0  0  0  0
 11 14  1  0  0  0  0
 11 15  1  0  0  0  0
 11 16  1  0  0  0  0
 45 47  1  0  0  0  0
 45 48  1  0  0  0  0
 45 49  1  0  0  0  0
 21 29  1  0  0  0  0
 21 30  1  0  0  0  0
 35 40  1  0  0  0  0
  8 13  1  0  0  0  0
 18 28  1  0  0  0  0
 26 33  1  0  0  0  0
 44 46  1  0  0  0  0
  7 12  1  0  0  0  0
 34 39  1  0  0  0  0
 17 27  1  0  0  0  0
M  END
$$$$

  -OEChem-05262214473D

 49 49  0     1  0  0  0  0  0999 V2000
   -1.6183    0.5613    3.8201 C   0  0  0  0  0  0  0  0  0  0  0  0
   -0.6710   -0.0534    3.3444 O   0  0  0  0  0  0  0  0  0  0  0  0
   -2.0502    0.2789    5.2208 C   0  0  0  0  0  0  0  0  0  0  0  0
   -2.8099   -0.5175    5.2742 H   0  0  0  0  0  0  0  0  0  0  0  0
   -1.2190   -0.0687    5.8551 H   0  0  0  0  0  0  0  0  0  0  0  0
   -2.4882    1.1338    5.7604 H   0  0  0  0  0  0  0  0  0  0  0  0
   -2.3680    1.5337    3.1790 N   0  0  0  0  0  0  0  0  0  0  0  0
   -2.1212    1.9597    1.8266 C   0  0  2  0  0  0  0  0  0  0  0  0
   -0.7862    1.3744    1.3854 C   0  0  0  0  0  0  0  0  0  0  0  0
    0.0859    1.0216    2.1767 O   0  0  0  0  0  0  0  0  0  0  0  0
   -2.1124    3.4765    1.7171 C   0  0  0  0  0  0  0  0  0  0  0  0
   -3.1331    1.9695    3.6908 H   0  0  0  0  0  0  0  0  0  0  0  0
   -2.9253    1.5413    1.2115 H   0  0  0  0  0  0  0  0  0  0  0  0
   -1.3133    3.9138    2.3268 H   0  0  0  0  0  0  0  0  0  0  0  0
   -1.9529    3.7988    0.6829 H   0  0  0  0  0  0  0  0  0  0  0  0
   -3.0626    3.8977    2.0629 H   0  0  0  0  0  0  0  0  0  0  0  0
   -0.6635    1.3313    0.0020 N   0  0  0  0  0  0  0  0  0  0  0  0
    0.5138    0.8305   -0.6617 C   0  0  2  0  0  0  0  0  0  0  0  0
    0.4387    1.2829   -2.1156 C   0  0  0  0  0  0  0  0  0  0  0  0
   -0.3015    2.1867   -2.4977 O   0  0  0  0  0  0  0  0  0  0  0  0
    0.6168   -0.6971   -0.5835 C   0  0  0  0  0  0  0  0  0  0  0  0
    0.7784   -1.1996    0.8304 C   0  0  0  0  0  0  0  0  0  0  0  0
    1.9788   -1.0732    1.4837 N   0  0  0  0  0  0  0  0  0  0  0  0
   -0.1591   -1.8120    1.6283 C   0  0  0  0  0  0  0  0  0  0  0  0
    1.7725   -1.6037    2.6685 C   0  0  0  0  0  0  0  0  0  0  0  0
    0.4925   -2.0653    2.8023 N   0  0  0  0  0  0  0  0  0  0  0  0
   -1.4467    1.6280   -0.5753 H   0  0  0  0  0  0  0  0  0  0  0  0
    1.3727    1.3121   -0.1798 H   0  0  0  0  0  0  0  0  0  0  0  0
    1.4529   -1.0540   -1.2002 H   0  0  0  0  0  0  0  0  0  0  0  0
   -0.2785   -1.1645   -1.0143 H   0  0  0  0  0  0  0  0  0  0  0  0
   -1.1940   -2.0830    1.4764 H   0  0  0  0  0  0  0  0  0  0  0  0
    2.4984   -1.6841    3.4654 H   0  0  0  0  0  0  0  0  0  0  0  0
    0.1000   -2.5115    3.6206 H   0  0  0  0  0  0  0  0  0  0  0  0
    1.3320    0.5911   -2.9218 N   0  0  0  0  0  0  0  0  0  0  0  0
    1.4805    0.8406   -4.3376 C   0  0  2  0  0  0  0  0  0  0  0  0
    0.0933    0.8239   -4.9661 C   0  0  0  0  0  0  0  0  0  0  0  0
   -0.8681    0.2538   -4.4545 O   0  0  0  0  0  0  0  0  0  0  0  0
    2.3852   -0.1933   -4.9897 C   0  0  0  0  0  0  0  0  0  0  0  0
    1.9104   -0.1267   -2.4953 H   0  0  0  0  0  0  0  0  0  0  0  0
    1.9158    1.8408   -4.4385 H   0  0  0  0  0  0  0  0  0  0  0  0
    1.9655   -1.2017   -4.8987 H   0  0  0  0  0  0  0  0  0  0  0  0
    2.5196    0.0137   -6.0565 H   0  0  0  0  0  0  0  0  0  0  0  0
    3.3731   -0.2005   -4.5166 H   0  0  0  0  0  0  0  0  0  0  0  0
    0.0655    1.4839   -6.1867 N   0  0  0  0  0  0  0  0  0  0  0  0
   -1.1325    1.5952   -6.9856 C   0  0  0  0  0  0  0  0  0  0  0  0
    0.9054    1.9440   -6.5252 H   0  0  0  0  0  0  0  0  0  0  0  0
   -1.1735    0.7632   -7.7040 H   0  0  0  0  0  0  0  0  0  0  0  0
   -2.0151    1.5573   -6.3301 H   0  0  0  0  0  0  0  0  0  0  0  0
   -1.1218    2.5504   -7.5312 H   0  0  0  0  0  0  0  0  0  0  0  0
 22 24  2  0  0  0  0
 24 26  1  0  0  0  0
 23 25  2  0  0  0  0
 25 26  1  0  0  0  0
 21 22  1  0  0  0  0
 22 23  1  0  0  0  0
  1  3  1  0  0  0  0
  1  7  1  0  0  0  0
  1  2  2  0  0  0  0
 35 36  1  0  0  0  0
 36 44  1  0  0  0  0
 36 37  2  0  0  0  0
  8  9  1  0  0  0  0
  9 17  1  0  0  0  0
  9 10  2  0  0  0  0
 18 19  1  0  0  0  0
 19 34  1  0  0  0  0
 19 20  2  0  0  0  0
 35 38  1  0  0  0  0
  8 11  1  0  0  0  0
 44 45  1  0  0  0  0
 18 21  1  0  0  0  0
 34 35  1  0  0  0  0
  7  8  1  0  0  0  0
 17 18  1  0  0  0  0
 24 31  1  0  0  0  0
 25 32  1  0  0  0  0
  3  4  1  0  0  0  0
  3  5  1  0  0  0  0
  3  6  1  0  0  0  0
 38 41  1  0  0  0  0
 38 42  1  0  0  0  0
 38 43  1  0  0  0  0
 11 14  1  0  0  0  0
 11 15  1  0  0  0  0
 11 16  1  0  0  0  0
 45 47  1  0  0  0  0
 45 48  1  0  0  0  0
 45 49  1  0  0  0  0
 21 29  1  0  0  0  0
 21 30  1  0  0  0  0
 35 40  1  0  0  0  0
  8 13  1  0  0  0  0
 18 28  1  0  0  0  0
 26 33  1  0  0  0  0
 44 46  1  0  0  0  0
  7 12  1  0  0  0  0
 34 39  1  0  0  0  0
 17 27  1  0  0  0  0
M  END
$$$$

  -OEChem-05262214473D

 49 49  0     1  0  0  0  0  0999 V2000
   -1.6183    0.5613    3.8201 C   0  0  0  0  0  0  0  0  0  0  0  0
   -0.6710   -0.0534    3.3444 O   0  0  0  0  0  0  0  0  0  0  0  0
   -2.0502    0.2789    5.2208 C   0  0  0  0  0  0  0  0  0  0  0  0
   -2.8099   -0.5175    5.2742 H   0  0  0  0  0  0  0  0  0  0  0  0
   -1.2190   -0.0687    5.8551 H   0  0  0  0  0  0  0  0  0  0  0  0
   -2.4882    1.1338    5.7604 H   0  0  0  0  0  0  0  0  0  0  0  0
   -2.3680    1.5337    3.1790 N   0  0  0  0  0  0  0  0  0  0  0  0
   -2.1212    1.9597    1.8266 C   0  0  2  0  0  0  0  0  0  0  0  0
   -0.7862    1.3744    1.3854 C   0  0  0  0  0  0  0  0  0  0  0  0
    0.0859    1.0216    2.1767 O   0  0  0  0  0  0  0  0  0  0  0  0
   -2.1124    3.4765    1.7171 C   0  0  0  0  0  0  0  0  0  0  0  0
   -3.1331    1.9695    3.6908 H   0  0  0  0  0  0  0  0  0  0  0  0
   -2.9253    1.5413    1.2115 H   0  0  0  0  0  0  0  0  0  0  0  0
   -1.3133    3.9138    2.3268 H   0  0  0  0  0  0  0  0  0  0  0  0
   -1.9529    3.7988    0.6829 H   0  0  0  0  0  0  0  0  0  0  0  0
   -3.0626    3.8977    2.0629 H   0  0  0  0  0  0  0  0  0  0  0  0
   -0.6635    1.3313    0.0020 N   0  0  0  0  0  0  0  0  0  0  0  0
    0.5138    0.8305   -0.6617 C   0  0  2  0  0  0  0  0  0  0  0  0
    0.4387    1.2829   -2.1156 C   0  0  0  0  0  0  0  0  0  0  0  0
   -0.0837    2.3405   -2.4611 O   0  0  0  0  0  0  0  0  0  0  0  0
    0.6168   -0.6971   -0.5835 C   0  0  0  0  0  0  0  0  0  0  0  0
    0.7784   -1.1996    0.8304 C   0  0  0  0  0  0  0  0  0  0  0  0
    1.9788   -1.0732    1.4837 N   0  0  0  0  0  0  0  0  0  0  0  0
   -0.1591   -1.8120    1.6283 C   0  0  0  0  0  0  0  0  0  0  0  0
    1.7725   -1.6037    2.6685 C   0  0  0  0  0  0  0  0  0  0  0  0
    0.4925   -2.0653    2.8023 N   0  0  0  0  0  0  0  0  0  0  0  0
   -1.4467    1.6280   -0.5753 H   0  0  0  0  0  0  0  0  0  0  0  0
    1.3727    1.3121   -0.1798 H   0  0  0  0  0  0  0  0  0  0  0  0
    1.4529   -1.0540   -1.2002 H   0  0  0  0  0  0  0  0  0  0  0  0
   -0.2785   -1.1645   -1.0143 H   0  0  0  0  0  0  0  0  0  0  0  0
   -1.1940   -2.0830    1.4764 H   0  0  0  0  0  0  0  0  0  0  0  0
    2.4984   -1.6841    3.4654 H   0  0  0  0  0  0  0  0  0  0  0  0
    0.1000   -2.5115    3.6206 H   0  0  0  0  0  0  0  0  0  0  0  0
    1.0680    0.3891   -2.9710 N   0  0  0  0  0  0  0  0  0  0  0  0
    1.1619    0.5898   -4.3992 C   0  0  2  0  0  0  0  0  0  0  0  0
   -0.2315    0.9148   -4.9211 C   0  0  0  0  0  0  0  0  0  0  0  0
   -1.2605    0.6017   -4.3260 O   0  0  0  0  0  0  0  0  0  0  0  0
    1.7301   -0.6377   -5.0942 C   0  0  0  0  0  0  0  0  0  0  0  0
    1.4834   -0.4481   -2.5732 H   0  0  0  0  0  0  0  0  0  0  0  0
    1.8209    1.4509   -4.5549 H   0  0  0  0  0  0  0  0  0  0  0  0
    1.0833   -1.5108   -4.9493 H   0  0  0  0  0  0  0  0  0  0  0  0
    1.8273   -0.4737   -6.1725 H   0  0  0  0  0  0  0  0  0  0  0  0
    2.7197   -0.8876   -4.6967 H   0  0  0  0  0  0  0  0  0  0  0  0
   -0.1915    1.5573   -6.1506 N   0  0  0  0  0  0  0  0  0  0  0  0
   -1.3840    1.9591   -6.8594 C   0  0  0  0  0  0  0  0  0  0  0  0
    0.7066    1.7944   -6.5615 H   0  0  0  0  0  0  0  0  0  0  0  0
   -1.6849    1.1608   -7.5539 H   0  0  0  0  0  0  0  0  0  0  0  0
   -2.1945    2.1426   -6.1387 H   0  0  0  0  0  0  0  0  0  0  0  0
   -1.1812    2.8802   -7.4255 H   0  0  0  0  0  0  0  0  0  0  0  0
 22 24  2  0  0  0  0
 24 26  1  0  0  0  0
 23 25  2  0  0  0  0
 25 26  1  0  0  0  0
 21 22  1  0  0  0  0
 22 23  1  0  0  0  0
  1  3  1  0  0  0  0
  1  7  1  0  0  0  0
  1  2  2  0  0  0  0
 35 36  1  0  0  0  0
 36 44  1  0  0  0  0
 36 37  2  0  0  0  0
  8  9  1  0  0  0  0
  9 17  1  0  0  0  0
  9 10  2  0  0  0  0
 18 19  1  0  0  0  0
 19 34  1  0  0  0  0
 19 20  2  0  0  0  0
 35 38  1  0  0  0  0
  8 11  1  0  0  0  0
 44 45  1  0  0  0  0
 18 21  1  0  0  0  0
 34 35  1  0  0  0  0
  7  8  1  0  0  0  0
 17 18  1  0  0  0  0
 24 31  1  0  0  0  0
 25 32  1  0  0  0  0
  3  4  1  0  0  0  0
  3  5  1  0  0  0  0
  3  6  1  0  0  0  0
 38 41  1  0  0  0  0
 38 42  1  0  0  0  0
 38 43  1  0  0  0  0
 11 14  1  0  0  0  0
 11 15  1  0  0  0  0
 11 16  1  0  0  0  0
 45 47  1  0  0  0  0
 45 48  1  0  0  0  0
 45 49  1  0  0  0  0
 21 29  1  0  0  0  0
 21 30  1  0  0  0  0
 35 40  1  0  0  0  0
  8 13  1  0  0  0  0
 18 28  1  0  0  0  0
 26 33  1  0  0  0  0
 44 46  1  0  0  0  0
  7 12  1  0  0  0  0
 34 39  1  0  0  0  0
 17 27  1  0  0  0  0
M  END
$$$$

  -OEChem-05262214473D

 49 49  0     1  0  0  0  0  0999 V2000
   -1.6183    0.5613    3.8201 C   0  0  0  0  0  0  0  0  0  0  0  0
   -0.6710   -0.0534    3.3444 O   0  0  0  0  0  0  0  0  0  0  0  0
   -2.0502    0.2789    5.2208 C   0  0  0  0  0  0  0  0  0  0  0  0
   -2.8099   -0.5175    5.2742 H   0  0  0  0  0  0  0  0  0  0  0  0
   -1.2190   -0.0687    5.8551 H   0  0  0  0  0  0  0  0  0  0  0  0
   -2.4882    1.1338    5.7604 H   0  0  0  0  0  0  0  0  0  0  0  0
   -2.3680    1.5337    3.1790 N   0  0  0  0  0  0  0  0  0  0  0  0
   -2.1212    1.9597    1.8266 C   0  0  2  0  0  0  0  0  0  0  0  0
   -0.7862    1.3744    1.3854 C   0  0  0  0  0  0  0  0  0  0  0  0
    0.0859    1.0216    2.1767 O   0  0  0  0  0  0  0  0  0  0  0  0
   -2.1124    3.4765    1.7171 C   0  0  0  0  0  0  0  0  0  0  0  0
   -3.1331    1.9695    3.6908 H   0  0  0  0  0  0  0  0  0  0  0  0
   -2.9253    1.5413    1.2115 H   0  0  0  0  0  0  0  0  0  0  0  0
   -1.3133    3.9138    2.3268 H   0  0  0  0  0  0  0  0  0  0  0  0
   -1.9529    3.7988    0.6829 H   0  0  0  0  0  0  0  0  0  0  0  0
   -3.0626    3.8977    2.0629 H   0  0  0  0  0  0  0  0  0  0  0  0
   -0.6635    1.3313    0.0020 N   0  0  0  0  0  0  0  0  0  0  0  0
    0.5138    0.8305   -0.6617 C   0  0  2  0  0  0  0  0  0  0  0  0
    0.4387    1.2829   -2.1156 C   0  0  0  0  0  0  0  0  0  0  0  0
    0.1675    2.4358   -2.4444 O   0  0  0  0  0  0  0  0  0  0  0  0
    0.6168   -0.6971   -0.5835 C   0  0  0  0  0  0  0  0  0  0  0  0
    0.7784   -1.1996    0.8304 C   0  0  0  0  0  0  0  0  0  0  0  0
    1.9788   -1.0732    1.4837 N   0  0  0  0  0  0  0  0  0  0  0  0
   -0.1591   -1.8120    1.6283 C   0  0  0  0  0  0  0  0  0  0  0  0
    1.7725   -1.6037    2.6685 C   0  0  0  0  0  0  0  0  0  0  0  0
    0.4925   -2.0653    2.8023 N   0  0  0  0  0  0  0  0  0  0  0  0
   -1.4467    1.6280   -0.5753 H   0  0  0  0  0  0  0  0  0  0  0  0
    1.3727    1.3121   -0.1798 H   0  0  0  0  0  0  0  0  0  0  0  0
    1.4529   -1.0540   -1.2002 H   0  0  0  0  0  0  0  0  0  0  0  0
   -0.2785   -1.1645   -1.0143 H   0  0  0  0  0  0  0  0  0  0  0  0
   -1.1940   -2.0830    1.4764 H   0  0  0  0  0  0  0  0  0  0  0  0
    2.4984   -1.6841    3.4654 H   0  0  0  0  0  0  0  0  0  0  0  0
    0.1000   -2.5115    3.6206 H   0  0  0  0  0  0  0  0  0  0  0  0
    0.7593    0.2586   -2.9957 N   0  0  0  0  0  0  0  0  0  0  0  0
    0.7875    0.4254   -4.4310 C   0  0  2  0  0  0  0  0  0  0  0  0
   -0.5193    1.0833   -4.8538 C   0  0  0  0  0  0  0  0  0  0  0  0
   -1.5439    1.0363   -4.1762 O   0  0  0  0  0  0  0  0  0  0  0  0
    0.9795   -0.9067   -5.1391 C   0  0  0  0  0  0  0  0  0  0  0  0
    0.9856   -0.6541   -2.6116 H   0  0  0  0  0  0  0  0  0  0  0  0
    1.6240    1.0963   -4.6551 H   0  0  0  0  0  0  0  0  0  0  0  0
    0.1511   -1.5922   -4.9265 H   0  0  0  0  0  0  0  0  0  0  0  0
    1.0293   -0.7751   -6.2251 H   0  0  0  0  0  0  0  0  0  0  0  0
    1.9051   -1.3923   -4.8117 H   0  0  0  0  0  0  0  0  0  0  0  0
   -0.4189    1.6922   -6.0969 N   0  0  0  0  0  0  0  0  0  0  0  0
   -1.5275    2.3742   -6.7229 C   0  0  0  0  0  0  0  0  0  0  0  0
    0.4749    1.6985   -6.5794 H   0  0  0  0  0  0  0  0  0  0  0  0
   -2.0692    1.6730   -7.3747 H   0  0  0  0  0  0  0  0  0  0  0  0
   -2.2087    2.7547   -5.9475 H   0  0  0  0  0  0  0  0  0  0  0  0
   -1.1490    3.2147   -7.3230 H   0  0  0  0  0  0  0  0  0  0  0  0
 22 24  2  0  0  0  0
 24 26  1  0  0  0  0
 23 25  2  0  0  0  0
 25 26  1  0  0  0  0
 21 22  1  0  0  0  0
 22 23  1  0  0  0  0
  1  3  1  0  0  0  0
  1  7  1  0  0  0  0
  1  2  2  0  0  0  0
 35 36  1  0  0  0  0
 36 44  1  0  0  0  0
 36 37  2  0  0  0  0
  8  9  1  0  0  0  0
  9 17  1  0  0  0  0
  9 10  2  0  0  0  0
 18 19  1  0  0  0  0
 19 34  1  0  0  0  0
 19 20  2  0  0  0  0
 35 38  1  0  0  0  0
  8 11  1  0  0  0  0
 44 45  1  0  0  0  0
 18 21  1  0  0  0  0
 34 35  1  0  0  0  0
  7  8  1  0  0  0  0
 17 18  1  0  0  0  0
 24 31  1  0  0  0  0
 25 32  1  0  0  0  0
  3  4  1  0  0  0  0
  3  5  1  0  0  0  0
  3  6  1  0  0  0  0
 38 41  1  0  0  0  0
 38 42  1  0  0  0  0
 38 43  1  0  0  0  0
 11 14  1  0  0  0  0
 11 15  1  0  0  0  0
 11 16  1  0  0  0  0
 45 47  1  0  0  0  0
 45 48  1  0  0  0  0
 45 49  1  0  0  0  0
 21 29  1  0  0  0  0
 21 30  1  0  0  0  0
 35 40  1  0  0  0  0
  8 13  1  0  0  0  0
 18 28  1  0  0  0  0
 26 33  1  0  0  0  0
 44 46  1  0  0  0  0
  7 12  1  0  0  0  0
 34 39  1  0  0  0  0
 17 27  1  0  0  0  0
M  END
$$$$

  -OEChem-05262214473D

 49 49  0     1  0  0  0  0  0999 V2000
   -1.6183    0.5613    3.8201 C   0  0  0  0  0  0  0  0  0  0  0  0
   -0.6710   -0.0534    3.3444 O   0  0  0  0  0  0  0  0  0  0  0  0
   -2.0502    0.2789    5.2208 C   0  0  0  0  0  0  0  0  0  0  0  0
   -2.8099   -0.5175    5.2742 H   0  0  0  0  0  0  0  0  0  0  0  0
   -1.2190   -0.0687    5.8551 H   0  0  0  0  0  0  0  0  0  0  0  0
   -2.4882    1.1338    5.7604 H   0  0  0  0  0  0  0  0  0  0  0  0
   -2.3680    1.5337    3.1790 N   0  0  0  0  0  0  0  0  0  0  0  0
   -2.1212    1.9597    1.8266 C   0  0  2  0  0  0  0  0  0  0  0  0
   -0.7862    1.3744    1.3854 C   0  0  0  0  0  0  0  0  0  0  0  0
    0.0859    1.0216    2.1767 O   0  0  0  0  0  0  0  0  0  0  0  0
   -2.1124    3.4765    1.7171 C   0  0  0  0  0  0  0  0  0  0  0  0
   -3.1331    1.9695    3.6908 H   0  0  0  0  0  0  0  0  0  0  0  0
   -2.9253    1.5413    1.2115 H   0  0  0  0  0  0  0  0  0  0  0  0
   -1.3133    3.9138    2.3268 H   0  0  0  0  0  0  0  0  0  0  0  0
   -1.9529    3.7988    0.6829 H   0  0  0  0  0  0  0  0  0  0  0  0
   -3.0626    3.8977    2.0629 H   0  0  0  0  0  0  0  0  0  0  0  0
   -0.6635    1.3313    0.0020 N   0  0  0  0  0  0  0  0  0  0  0  0
    0.5138    0.8305   -0.6617 C   0  0  2  0  0  0  0  0  0  0  0  0
    0.4387    1.2829   -2.1156 C   0  0  0  0  0  0  0  0  0  0  0  0
    0.4349    2.4660   -2.4488 O   0  0  0  0  0  0  0  0  0  0  0  0
    0.6168   -0.6971   -0.5835 C   0  0  0  0  0  0  0  0  0  0  0  0
    0.7784   -1.1996    0.8304 C   0  0  0  0  0  0  0  0  0  0  0  0
    1.9788   -1.0732    1.4837 N   0  0  0  0  0  0  0  0  0  0  0  0
   -0.1591   -1.8120    1.6283 C   0  0  0  0  0  0  0  0  0  0  0  0
    1.7725   -1.6037    2.6685 C   0  0  0  0  0  0  0  0  0  0  0  0
    0.4925   -2.0653    2.8023 N   0  0  0  0  0  0  0  0  0  0  0  0
   -1.4467    1.6280   -0.5753 H   0  0  0  0  0  0  0  0  0  0  0  0
    1.3727    1.3121   -0.1798 H   0  0  0  0  0  0  0  0  0  0  0  0
    1.4529   -1.0540   -1.2002 H   0  0  0  0  0  0  0  0  0  0  0  0
   -0.2785   -1.1645   -1.0143 H   0  0  0  0  0  0  0  0  0  0  0  0
   -1.1940   -2.0830    1.4764 H   0  0  0  0  0  0  0  0  0  0  0  0
    2.4984   -1.6841    3.4654 H   0  0  0  0  0  0  0  0  0  0  0  0
    0.1000   -2.5115    3.6206 H   0  0  0  0  0  0  0  0  0  0  0  0
    0.4271    0.2084   -2.9941 N   0  0  0  0  0  0  0  0  0  0  0  0
    0.3829    0.3586   -4.4309 C   0  0  2  0  0  0  0  0  0  0  0  0
   -0.7506    1.3180   -4.7688 C   0  0  0  0  0  0  0  0  0  0  0  0
   -1.6988    1.5280   -4.0152 O   0  0  0  0  0  0  0  0  0  0  0  0
    0.1847   -0.9817   -5.1215 C   0  0  0  0  0  0  0  0  0  0  0  0
    0.4509   -0.7307   -2.6079 H   0  0  0  0  0  0  0  0  0  0  0  0
    1.3387    0.8011   -4.7322 H   0  0  0  0  0  0  0  0  0  0  0  0
   -0.7678   -1.4404   -4.8319 H   0  0  0  0  0  0  0  0  0  0  0  0
    0.1800   -0.8700   -6.2108 H   0  0  0  0  0  0  0  0  0  0  0  0
    0.9849   -1.6802   -4.8538 H   0  0  0  0  0  0  0  0  0  0  0  0
   -0.6011    1.8792   -6.0293 N   0  0  0  0  0  0  0  0  0  0  0  0
   -1.5531    2.8123   -6.5852 C   0  0  0  0  0  0  0  0  0  0  0  0
    0.2261    1.6628   -6.5777 H   0  0  0  0  0  0  0  0  0  0  0  0
   -2.3002    2.2648   -7.1786 H   0  0  0  0  0  0  0  0  0  0  0  0
   -2.0566    3.3519   -5.7695 H   0  0  0  0  0  0  0  0  0  0  0  0
   -1.0275    3.5313   -7.2308 H   0  0  0  0  0  0  0  0  0  0  0  0
 22 24  2  0  0  0  0
 24 26  1  0  0  0  0
 23 25  2  0  0  0  0
 25 26  1  0  0  0  0
 21 22  1  0  0  0  0
 22 23  1  0  0  0  0
  1  3  1  0  0  0  0
  1  7  1  0  0  0  0
  1  2  2  0  0  0  0
 35 36  1  0  0  0  0
 36 44  1  0  0  0  0
 36 37  2  0  0  0  0
  8  9  1  0  0  0  0
  9 17  1  0  0  0  0
  9 10  2  0  0  0  0
 18 19  1  0  0  0  0
 19 34  1  0  0  0  0
 19 20  2  0  0  0  0
 35 38  1  0  0  0  0
  8 11  1  0  0  0  0
 44 45  1  0  0  0  0
 18 21  1  0  0  0  0
 34 35  1  0  0  0  0
  7  8  1  0  0  0  0
 17 18  1  0  0  0  0
 24 31  1  0  0  0  0
 25 32  1  0  0  0  0
  3  4  1  0  0  0  0
  3  5  1  0  0  0  0
  3  6  1  0  0  0  0
 38 41  1  0  0  0  0
 38 42  1  0  0  0  0
 38 43  1  0  0  0  0
 11 14  1  0  0  0  0
 11 15  1  0  0  0  0
 11 16  1  0  0  0  0
 45 47  1  0  0  0  0
 45 48  1  0  0  0  0
 45 49  1  0  0  0  0
 21 29  1  0  0  0  0
 21 30  1  0  0  0  0
 35 40  1  0  0  0  0
  8 13  1  0  0  0  0
 18 28  1  0  0  0  0
 26 33  1  0  0  0  0
 44 46  1  0  0  0  0
  7 12  1  0  0  0  0
 34 39  1  0  0  0  0
 17 27  1  0  0  0  0
M  END
$$$$

  -OEChem-05262214473D

 49 49  0     1  0  0  0  0  0999 V2000
   -1.6183    0.5613    3.8201 C   0  0  0  0  0  0  0  0  0  0  0  0
   -0.6710   -0.0534    3.3444 O   0  0  0  0  0  0  0  0  0  0  0  0
   -2.0502    0.2789    5.2208 C   0  0  0  0  0  0  0  0  0  0  0  0
   -2.8099   -0.5175    5.2742 H   0  0  0  0  0  0  0  0  0  0  0  0
   -1.2190   -0.0687    5.8551 H   0  0  0  0  0  0  0  0  0  0  0  0
   -2.4882    1.1338    5.7604 H   0  0  0  0  0  0  0  0  0  0  0  0
   -2.3680    1.5337    3.1790 N   0  0  0  0  0  0  0  0  0  0  0  0
   -2.1212    1.9597    1.8266 C   0  0  2  0  0  0  0  0  0  0  0  0
   -0.7862    1.3744    1.3854 C   0  0  0  0  0  0  0  0  0  0  0  0
    0.0859    1.0216    2.1767 O   0  0  0  0  0  0  0  0  0  0  0  0
   -2.1124    3.4765    1.7171 C   0  0  0  0  0  0  0  0  0  0  0  0
   -3.1331    1.9695    3.6908 H   0  0  0  0  0  0  0  0  0  0  0  0
   -2.9253    1.5413    1.2115 H   0  0  0  0  0  0  0  0  0  0  0  0
   -1.3133    3.9138    2.3268 H   0  0  0  0  0  0  0  0  0  0  0  0
   -1.9529    3.7988    0.6829 H   0  0  0  0  0  0  0  0  0  0  0  0
   -3.0626    3.8977    2.0629 H   0  0  0  0  0  0  0  0  0  0  0  0
   -0.6635    1.3313    0.0020 N   0  0  0  0  0  0  0  0  0  0  0  0
    0.5138    0.8305   -0.6617 C   0  0  2  0  0  0  0  0  0  0  0  0
    0.4387    1.2829   -2.1156 C   0  0  0  0  0  0  0  0  0  0  0  0
    0.7004    2.4292   -2.4740 O   0  0  0  0  0  0  0  0  0  0  0  0
    0.6168   -0.6971   -0.5835 C   0  0  0  0  0  0  0  0  0  0  0  0
    0.7784   -1.1996    0.8304 C   0  0  0  0  0  0  0  0  0  0  0  0
    1.9788   -1.0732    1.4837 N   0  0  0  0  0  0  0  0  0  0  0  0
   -0.1591   -1.8120    1.6283 C   0  0  0  0  0  0  0  0  0  0  0  0
    1.7725   -1.6037    2.6685 C   0  0  0  0  0  0  0  0  0  0  0  0
    0.4925   -2.0653    2.8023 N   0  0  0  0  0  0  0  0  0  0  0  0
   -1.4467    1.6280   -0.5753 H   0  0  0  0  0  0  0  0  0  0  0  0
    1.3727    1.3121   -0.1798 H   0  0  0  0  0  0  0  0  0  0  0  0
    1.4529   -1.0540   -1.2002 H   0  0  0  0  0  0  0  0  0  0  0  0
   -0.2785   -1.1645   -1.0143 H   0  0  0  0  0  0  0  0  0  0  0  0
   -1.1940   -2.0830    1.4764 H   0  0  0  0  0  0  0  0  0  0  0  0
    2.4984   -1.6841    3.4654 H   0  0  0  0  0  0  0  0  0  0  0  0
    0.1000   -2.5115    3.6206 H   0  0  0  0  0  0  0  0  0  0  0  0
    0.0940    0.2420   -2.9665 N   0  0  0  0  0  0  0  0  0  0  0  0
   -0.0244    0.3940   -4.3989 C   0  0  2  0  0  0  0  0  0  0  0  0
   -0.9096    1.6028   -4.6720 C   0  0  0  0  0  0  0  0  0  0  0  0
   -1.7147    2.0431   -3.8540 O   0  0  0  0  0  0  0  0  0  0  0  0
   -0.6002   -0.8579   -5.0424 C   0  0  0  0  0  0  0  0  0  0  0  0
   -0.0841   -0.6727   -2.5622 H   0  0  0  0  0  0  0  0  0  0  0  0
    0.9842    0.5854   -4.7810 H   0  0  0  0  0  0  0  0  0  0  0  0
   -1.6106   -1.0658   -4.6718 H   0  0  0  0  0  0  0  0  0  0  0  0
   -0.6626   -0.7518   -6.1305 H   0  0  0  0  0  0  0  0  0  0  0  0
    0.0217   -1.7317   -4.8201 H   0  0  0  0  0  0  0  0  0  0  0  0
   -0.7257    2.1057   -5.9524 N   0  0  0  0  0  0  0  0  0  0  0  0
   -1.4591    3.2436   -6.4559 C   0  0  0  0  0  0  0  0  0  0  0  0
   -0.0230    1.6897   -6.5564 H   0  0  0  0  0  0  0  0  0  0  0  0
   -2.3622    2.8961   -6.9790 H   0  0  0  0  0  0  0  0  0  0  0  0
   -1.7486    3.8934   -5.6169 H   0  0  0  0  0  0  0  0  0  0  0  0
   -0.8248    3.8082   -7.1551 H   0  0  0  0  0  0  0  0  0  0  0  0
 22 24  2  0  0  0  0
 24 26  1  0  0  0  0
 23 25  2  0  0  0  0
 25 26  1  0  0  0  0
 21 22  1  0  0  0  0
 22 23  1  0  0  0  0
  1  3  1  0  0  0  0
  1  7  1  0  0  0  0
  1  2  2  0  0  0  0
 35 36  1  0  0  0  0
 36 44  1  0  0  0  0
 36 37  2  0  0  0  0
  8  9  1  0  0  0  0
  9 17  1  0  0  0  0
  9 10  2  0  0  0  0
 18 19  1  0  0  0  0
 19 34  1  0  0  0  0
 19 20  2  0  0  0  0
 35 38  1  0  0  0  0
  8 11  1  0  0  0  0
 44 45  1  0  0  0  0
 18 21  1  0  0  0  0
 34 35  1  0  0  0  0
  7  8  1  0  0  0  0
 17 18  1  0  0  0  0
 24 31  1  0  0  0  0
 25 32  1  0  0  0  0
  3  4  1  0  0  0  0
  3  5  1  0  0  0  0
  3  6  1  0  0  0  0
 38 41  1  0  0  0  0
 38 42  1  0  0  0  0
 38 43  1  0  0  0  0
 11 14  1  0  0  0  0
 11 15  1  0  0  0  0
 11 16  1  0  0  0  0
 45 47  1  0  0  0  0
 45 48  1  0  0  0  0
 45 49  1  0  0  0  0
 21 29  1  0  0  0  0
 21 30  1  0  0  0  0
 35 40  1  0  0  0  0
  8 13  1  0  0  0  0
 18 28  1  0  0  0  0
 26 33  1  0  0  0  0
 44 46  1  0  0  0  0
  7 12  1  0  0  0  0
 34 39  1  0  0  0  0
 17 27  1  0  0  0  0
M  END
$$$$

  -OEChem-05262214473D

 49 49  0     1  0  0  0  0  0999 V2000
   -1.6183    0.5613    3.8201 C   0  0  0  0  0  0  0  0  0  0  0  0
   -0.6710   -0.0534    3.3444 O   0  0  0  0  0  0  0  0  0  0  0  0
   -2.0502    0.2789    5.2208 C   0  0  0  0  0  0  0  0  0  0  0  0
   -2.8099   -0.5175    5.2742 H   0  0  0  0  0  0  0  0  0  0  0  0
   -1.2190   -0.0687    5.8551 H   0  0  0  0  0  0  0  0  0  0  0  0
   -2.4882    1.1338    5.7604 H   0  0  0  0  0  0  0  0  0  0  0  0
   -2.3680    1.5337    3.1790 N   0  0  0  0  0  0  0  0  0  0  0  0
   -2.1212    1.9597    1.8266 C   0  0  2  0  0  0  0  0  0  0  0  0
   -0.7862    1.3744    1.3854 C   0  0  0  0  0  0  0  0  0  0  0  0
    0.0859    1.0216    2.1767 O   0  0  0  0  0  0  0  0  0  0  0  0
   -2.1124    3.4765    1.7171 C   0  0  0  0  0  0  0  0  0  0  0  0
   -3.1331    1.9695    3.6908 H   0  0  0  0  0  0  0  0  0  0  0  0
   -2.9253    1.5413    1.2115 H   0  0  0  0  0  0  0  0  0  0  0  0
   -1.3133    3.9138    2.3268 H   0  0  0  0  0  0  0  0  0  0  0  0
   -1.9529    3.7988    0.6829 H   0  0  0  0  0  0  0  0  0  0  0  0
   -3.0626    3.8977    2.0629 H   0  0  0  0  0  0  0  0  0  0  0  0
   -0.6635    1.3313    0.0020 N   0  0  0  0  0  0  0  0  0  0  0  0
    0.5138    0.8305   -0.6617 C   0  0  2  0  0  0  0  0  0  0  0  0
    0.4387    1.2829   -2.1156 C   0  0  0  0  0  0  0  0  0  0  0  0
    0.9458    2.3277   -2.5182 O   0  0  0  0  0  0  0  0  0  0  0  0
    0.6168   -0.6971   -0.5835 C   0  0  0  0  0  0  0  0  0  0  0  0
    0.7784   -1.1996    0.8304 C   0  0  0  0  0  0  0  0  0  0  0  0
    1.9788   -1.0732    1.4837 N   0  0  0  0  0  0  0  0  0  0  0  0
   -0.1591   -1.8120    1.6283 C   0  0  0  0  0  0  0  0  0  0  0  0
    1.7725   -1.6037    2.6685 C   0  0  0  0  0  0  0  0  0  0  0  0
    0.4925   -2.0653    2.8023 N   0  0  0  0  0  0  0  0  0  0  0  0
   -1.4467    1.6280   -0.5753 H   0  0  0  0  0  0  0  0  0  0  0  0
    1.3727    1.3121   -0.1798 H   0  0  0  0  0  0  0  0  0  0  0  0
    1.4529   -1.0540   -1.2002 H   0  0  0  0  0  0  0  0  0  0  0  0
   -0.2785   -1.1645   -1.0143 H   0  0  0  0  0  0  0  0  0  0  0  0
   -1.1940   -2.0830    1.4764 H   0  0  0  0  0  0  0  0  0  0  0  0
    2.4984   -1.6841    3.4654 H   0  0  0  0  0  0  0  0  0  0  0  0
    0.1000   -2.5115    3.6206 H   0  0  0  0  0  0  0  0  0  0  0  0
   -0.2175    0.3569   -2.9147 N   0  0  0  0  0  0  0  0  0  0  0  0
   -0.4067    0.5291   -4.3371 C   0  0  2  0  0  0  0  0  0  0  0  0
   -0.9854    1.9184   -4.5698 C   0  0  0  0  0  0  0  0  0  0  0  0
   -1.5906    2.5467   -3.7037 O   0  0  0  0  0  0  0  0  0  0  0  0
   -1.3217   -0.5434   -4.9073 C   0  0  0  0  0  0  0  0  0  0  0  0
   -0.5831   -0.4840   -2.4777 H   0  0  0  0  0  0  0  0  0  0  0  0
    0.5849    0.4639   -4.7982 H   0  0  0  0  0  0  0  0  0  0  0  0
   -2.3199   -0.4939   -4.4572 H   0  0  0  0  0  0  0  0  0  0  0  0
   -1.4412   -0.4286   -5.9897 H   0  0  0  0  0  0  0  0  0  0  0  0
   -0.9188   -1.5433   -4.7129 H   0  0  0  0  0  0  0  0  0  0  0  0
   -0.7842    2.3563   -5.8714 N   0  0  0  0  0  0  0  0  0  0  0  0
   -1.2519    3.6386   -6.3436 C   0  0  0  0  0  0  0  0  0  0  0  0
   -0.2553    1.7775   -6.5171 H   0  0  0  0  0  0  0  0  0  0  0  0
   -2.2509    3.5236   -6.7894 H   0  0  0  0  0  0  0  0  0  0  0  0
   -1.3057    4.3425   -5.5001 H   0  0  0  0  0  0  0  0  0  0  0  0
   -0.5550    4.0266   -7.1011 H   0  0  0  0  0  0  0  0  0  0  0  0
 22 24  2  0  0  0  0
 24 26  1  0  0  0  0
 23 25  2  0  0  0  0
 25 26  1  0  0  0  0
 21 22  1  0  0  0  0
 22 23  1  0  0  0  0
  1  3  1  0  0  0  0
  1  7  1  0  0  0  0
  1  2  2  0  0  0  0
 35 36  1  0  0  0  0
 36 44  1  0  0  0  0
 36 37  2  0  0  0  0
  8  9  1  0  0  0  0
  9 17  1  0  0  0  0
  9 10  2  0  0  0  0
 18 19  1  0  0  0  0
 19 34  1  0  0  0  0
 19 20  2  0  0  0  0
 35 38  1  0  0  0  0
  8 11  1  0  0  0  0
 44 45  1  0  0  0  0
 18 21  1  0  0  0  0
 34 35  1  0  0  0  0
  7  8  1  0  0  0  0
 17 18  1  0  0  0  0
 24 31  1  0  0  0  0
 25 32  1  0  0  0  0
  3  4  1  0  0  0  0
  3  5  1  0  0  0  0
  3  6  1  0  0  0  0
 38 41  1  0  0  0  0
 38 42  1  0  0  0  0
 38 43  1  0  0  0  0
 11 14  1  0  0  0  0
 11 15  1  0  0  0  0
 11 16  1  0  0  0  0
 45 47  1  0  0  0  0
 45 48  1  0  0  0  0
 45 49  1  0  0  0  0
 21 29  1  0  0  0  0
 21 30  1  0  0  0  0
 35 40  1  0  0  0  0
  8 13  1  0  0  0  0
 18 28  1  0  0  0  0
 26 33  1  0  0  0  0
 44 46  1  0  0  0  0
  7 12  1  0  0  0  0
 34 39  1  0  0  0  0
 17 27  1  0  0  0  0
M  END
$$$$

  -OEChem-05262214473D

 49 49  0     1  0  0  0  0  0999 V2000
   -1.6183    0.5613    3.8201 C   0  0  0  0  0  0  0  0  0  0  0  0
   -0.6710   -0.0534    3.3444 O   0  0  0  0  0  0  0  0  0  0  0  0
   -2.0502    0.2789    5.2208 C   0  0  0  0  0  0  0  0  0  0  0  0
   -2.8099   -0.5175    5.2742 H   0  0  0  0  0  0  0  0  0  0  0  0
   -1.2190   -0.0687    5.8551 H   0  0  0  0  0  0  0  0  0  0  0  0
   -2.4882    1.1338    5.7604 H   0  0  0  0  0  0  0  0  0  0  0  0
   -2.3680    1.5337    3.1790 N   0  0  0  0  0  0  0  0  0  0  0  0
   -2.1212    1.9597    1.8266 C   0  0  2  0  0  0  0  0  0  0  0  0
   -0.7862    1.3744    1.3854 C   0  0  0  0  0  0  0  0  0  0  0  0
    0.0859    1.0216    2.1767 O   0  0  0  0  0  0  0  0  0  0  0  0
   -2.1124    3.4765    1.7171 C   0  0  0  0  0  0  0  0  0  0  0  0
   -3.1331    1.9695    3.6908 H   0  0  0  0  0  0  0  0  0  0  0  0
   -2.9253    1.5413    1.2115 H   0  0  0  0  0  0  0  0  0  0  0  0
   -1.3133    3.9138    2.3268 H   0  0  0  0  0  0  0  0  0  0  0  0
   -1.9529    3.7988    0.6829 H   0  0  0  0  0  0  0  0  0  0  0  0
   -3.0626    3.8977    2.0629 H   0  0  0  0  0  0  0  0  0  0  0  0
   -0.6635    1.3313    0.0020 N   0  0  0  0  0  0  0  0  0  0  0  0
    0.5138    0.8305   -0.6617 C   0  0  2  0  0  0  0  0  0  0  0  0
    0.4387    1.2829   -2.1156 C   0  0  0  0  0  0  0  0  0  0  0  0
    1.1543    2.1686   -2.5785 O   0  0  0  0  0  0  0  0  0  0  0  0
    0.6168   -0.6971   -0.5835 C   0  0  0  0  0  0  0  0  0  0  0  0
    0.7784   -1.1996    0.8304 C   0  0  0  0  0  0  0  0  0  0  0  0
    1.9788   -1.0732    1.4837 N   0  0  0  0  0  0  0  0  0  0  0  0
   -0.1591   -1.8120    1.6283 C   0  0  0  0  0  0  0  0  0  0  0  0
    1.7725   -1.6037    2.6685 C   0  0  0  0  0  0  0  0  0  0  0  0
    0.4925   -2.0653    2.8023 N   0  0  0  0  0  0  0  0  0  0  0  0
   -1.4467    1.6280   -0.5753 H   0  0  0  0  0  0  0  0  0  0  0  0
    1.3727    1.3121   -0.1798 H   0  0  0  0  0  0  0  0  0  0  0  0
    1.4529   -1.0540   -1.2002 H   0  0  0  0  0  0  0  0  0  0  0  0
   -0.2785   -1.1645   -1.0143 H   0  0  0  0  0  0  0  0  0  0  0  0
   -1.1940   -2.0830    1.4764 H   0  0  0  0  0  0  0  0  0  0  0  0
    2.4984   -1.6841    3.4654 H   0  0  0  0  0  0  0  0  0  0  0  0
    0.1000   -2.5115    3.6206 H   0  0  0  0  0  0  0  0  0  0  0  0
   -0.4859    0.5455   -2.8421 N   0  0  0  0  0  0  0  0  0  0  0  0
   -0.7378    0.7547   -4.2498 C   0  0  2  0  0  0  0  0  0  0  0  0
   -0.9729    2.2433   -4.4694 C   0  0  0  0  0  0  0  0  0  0  0  0
   -1.3348    3.0044   -3.5745 O   0  0  0  0  0  0  0  0  0  0  0  0
   -1.9306   -0.0599   -4.7255 C   0  0  0  0  0  0  0  0  0  0  0  0
   -1.0120   -0.1775   -2.3602 H   0  0  0  0  0  0  0  0  0  0  0  0
    0.1678    0.4449   -4.7826 H   0  0  0  0  0  0  0  0  0  0  0  0
   -2.8474    0.2364   -4.2028 H   0  0  0  0  0  0  0  0  0  0  0  0
   -2.1026    0.0775   -5.7981 H   0  0  0  0  0  0  0  0  0  0  0  0
   -1.7724   -1.1277   -4.5395 H   0  0  0  0  0  0  0  0  0  0  0  0
   -0.7727    2.6138   -5.7918 N   0  0  0  0  0  0  0  0  0  0  0  0
   -0.9457    3.9704   -6.2562 C   0  0  0  0  0  0  0  0  0  0  0  0
   -0.4550    1.9202   -6.4624 H   0  0  0  0  0  0  0  0  0  0  0  0
   -1.9740    4.1047   -6.6229 H   0  0  0  0  0  0  0  0  0  0  0  0
   -0.7581    4.6684   -5.4269 H   0  0  0  0  0  0  0  0  0  0  0  0
   -0.2362    4.1717   -7.0724 H   0  0  0  0  0  0  0  0  0  0  0  0
 22 24  2  0  0  0  0
 24 26  1  0  0  0  0
 23 25  2  0  0  0  0
 25 26  1  0  0  0  0
 21 22  1  0  0  0  0
 22 23  1  0  0  0  0
  1  3  1  0  0  0  0
  1  7  1  0  0  0  0
  1  2  2  0  0  0  0
 35 36  1  0  0  0  0
 36 44  1  0  0  0  0
 36 37  2  0  0  0  0
  8  9  1  0  0  0  0
  9 17  1  0  0  0  0
  9 10  2  0  0  0  0
 18 19  1  0  0  0  0
 19 34  1  0  0  0  0
 19 20  2  0  0  0  0
 35 38  1  0  0  0  0
  8 11  1  0  0  0  0
 44 45  1  0  0  0  0
 18 21  1  0  0  0  0
 34 35  1  0  0  0  0
  7  8  1  0  0  0  0
 17 18  1  0  0  0  0
 24 31  1  0  0  0  0
 25 32  1  0  0  0  0
  3  4  1  0  0  0  0
  3  5  1  0  0  0  0
  3  6  1  0  0  0  0
 38 41  1  0  0  0  0
 38 42  1  0  0  0  0
 38 43  1  0  0  0  0
 11 14  1  0  0  0  0
 11 15  1  0  0  0  0
 11 16  1  0  0  0  0
 45 47  1  0  0  0  0
 45 48  1  0  0  0  0
 45 49  1  0  0  0  0
 21 29  1  0  0  0  0
 21 30  1  0  0  0  0
 35 40  1  0  0  0  0
  8 13  1  0  0  0  0
 18 28  1  0  0  0  0
 26 33  1  0  0  0  0
 44 46  1  0  0  0  0
  7 12  1  0  0  0  0
 34 39  1  0  0  0  0
 17 27  1  0  0  0  0
M  END
$$$$

  -OEChem-05262214473D

 49 49  0     1  0  0  0  0  0999 V2000
   -1.6183    0.5613    3.8201 C   0  0  0  0  0  0  0  0  0  0  0  0
   -0.6710   -0.0534    3.3444 O   0  0  0  0  0  0  0  0  0  0  0  0
   -2.0502    0.2789    5.2208 C   0  0  0  0  0  0  0  0  0  0  0  0
   -2.8099   -0.5175    5.2742 H   0  0  0  0  0  0  0  0  0  0  0  0
   -1.2190   -0.0687    5.8551 H   0  0  0  0  0  0  0  0  0  0  0  0
   -2.4882    1.1338    5.7604 H   0  0  0  0  0  0  0  0  0  0  0  0
   -2.3680    1.5337    3.1790 N   0  0  0  0  0  0  0  0  0  0  0  0
   -2.1212    1.9597    1.8266 C   0  0  2  0  0  0  0  0  0  0  0  0
   -0.7862    1.3744    1.3854 C   0  0  0  0  0  0  0  0  0  0  0  0
    0.0859    1.0216    2.1767 O   0  0  0  0  0  0  0  0  0  0  0  0
   -2.1124    3.4765    1.7171 C   0  0  0  0  0  0  0  0  0  0  0  0
   -3.1331    1.9695    3.6908 H   0  0  0  0  0  0  0  0  0  0  0  0
   -2.9253    1.5413    1.2115 H   0  0  0  0  0  0  0  0  0  0  0  0
   -1.3133    3.9138    2.3268 H   0  0  0  0  0  0  0  0  0  0  0  0
   -1.9529    3.7988    0.6829 H   0  0  0  0  0  0  0  0  0  0  0  0
   -3.0626    3.8977    2.0629 H   0  0  0  0  0  0  0  0  0  0  0  0
   -0.6635    1.3313    0.0020 N   0  0  0  0  0  0  0  0  0  0  0  0
    0.5138    0.8305   -0.6617 C   0  0  2  0  0  0  0  0  0  0  0  0
    0.4387    1.2829   -2.1156 C   0  0  0  0  0  0  0  0  0  0  0  0
    1.3119    1.9627   -2.6507 O   0  0  0  0  0  0  0  0  0  0  0  0
    0.6168   -0.6971   -0.5835 C   0  0  0  0  0  0  0  0  0  0  0  0
    0.7784   -1.1996    0.8304 C   0  0  0  0  0  0  0  0  0  0  0  0
    1.9788   -1.0732    1.4837 N   0  0  0  0  0  0  0  0  0  0  0  0
   -0.1591   -1.8120    1.6283 C   0  0  0  0  0  0  0  0  0  0  0  0
    1.7725   -1.6037    2.6685 C   0  0  0  0  0  0  0  0  0  0  0  0
    0.4925   -2.0653    2.8023 N   0  0  0  0  0  0  0  0  0  0  0  0
   -1.4467    1.6280   -0.5753 H   0  0  0  0  0  0  0  0  0  0  0  0
    1.3727    1.3121   -0.1798 H   0  0  0  0  0  0  0  0  0  0  0  0
    1.4529   -1.0540   -1.2002 H   0  0  0  0  0  0  0  0  0  0  0  0
   -0.2785   -1.1645   -1.0143 H   0  0  0  0  0  0  0  0  0  0  0  0
   -1.1940   -2.0830    1.4764 H   0  0  0  0  0  0  0  0  0  0  0  0
    2.4984   -1.6841    3.4654 H   0  0  0  0  0  0  0  0  0  0  0  0
    0.1000   -2.5115    3.6206 H   0  0  0  0  0  0  0  0  0  0  0  0
   -0.6931    0.7949   -2.7538 N   0  0  0  0  0  0  0  0  0  0  0  0
   -0.9953    1.0555   -4.1429 C   0  0  2  0  0  0  0  0  0  0  0  0
   -0.8729    2.5553   -4.3775 C   0  0  0  0  0  0  0  0  0  0  0  0
   -0.9648    3.3851   -3.4752 O   0  0  0  0  0  0  0  0  0  0  0  0
   -2.3855    0.5597   -4.5092 C   0  0  0  0  0  0  0  0  0  0  0  0
   -1.3416    0.2259   -2.2177 H   0  0  0  0  0  0  0  0  0  0  0  0
   -0.2385    0.5296   -4.7353 H   0  0  0  0  0  0  0  0  0  0  0  0
   -3.1571    1.0752   -3.9258 H   0  0  0  0  0  0  0  0  0  0  0  0
   -2.6019    0.7321   -5.5686 H   0  0  0  0  0  0  0  0  0  0  0  0
   -2.4811   -0.5135   -4.3118 H   0  0  0  0  0  0  0  0  0  0  0  0
   -0.6920    2.8607   -5.7192 N   0  0  0  0  0  0  0  0  0  0  0  0
   -0.5612    4.2165   -6.1995 C   0  0  0  0  0  0  0  0  0  0  0  0
   -0.6084    2.1079   -6.3961 H   0  0  0  0  0  0  0  0  0  0  0  0
   -1.5503    4.5998   -6.4907 H   0  0  0  0  0  0  0  0  0  0  0  0
   -0.1431    4.8489   -5.4025 H   0  0  0  0  0  0  0  0  0  0  0  0
    0.1097    4.2335   -7.0710 H   0  0  0  0  0  0  0  0  0  0  0  0
 22 24  2  0  0  0  0
 24 26  1  0  0  0  0
 23 25  2  0  0  0  0
 25 26  1  0  0  0  0
 21 22  1  0  0  0  0
 22 23  1  0  0  0  0
  1  3  1  0  0  0  0
  1  7  1  0  0  0  0
  1  2  2  0  0  0  0
 35 36  1  0  0  0  0
 36 44  1  0  0  0  0
 36 37  2  0  0  0  0
  8  9  1  0  0  0  0
  9 17  1  0  0  0  0
  9 10  2  0  0  0  0
 18 19  1  0  0  0  0
 19 34  1  0  0  0  0
 19 20  2  0  0  0  0
 35 38  1  0  0  0  0
  8 11  1  0  0  0  0
 44 45  1  0  0  0  0
 18 21  1  0  0  0  0
 34 35  1  0  0  0  0
  7  8  1  0  0  0  0
 17 18  1  0  0  0  0
 24 31  1  0  0  0  0
 25 32  1  0  0  0  0
  3  4  1  0  0  0  0
  3  5  1  0  0  0  0
  3  6  1  0  0  0  0
 38 41  1  0  0  0  0
 38 42  1  0  0  0  0
 38 43  1  0  0  0  0
 11 14  1  0  0  0  0
 11 15  1  0  0  0  0
 11 16  1  0  0  0  0
 45 47  1  0  0  0  0
 45 48  1  0  0  0  0
 45 49  1  0  0  0  0
 21 29  1  0  0  0  0
 21 30  1  0  0  0  0
 35 40  1  0  0  0  0
  8 13  1  0  0  0  0
 18 28  1  0  0  0  0
 26 33  1  0  0  0  0
 44 46  1  0  0  0  0
  7 12  1  0  0  0  0
 34 39  1  0  0  0  0
 17 27  1  0  0  0  0
M  END
$$$$

  -OEChem-05262214473D

 49 49  0     1  0  0  0  0  0999 V2000
   -1.6183    0.5613    3.8201 C   0  0  0  0  0  0  0  0  0  0  0  0
   -0.6710   -0.0534    3.3444 O   0  0  0  0  0  0  0  0  0  0  0  0
   -2.0502    0.2789    5.2208 C   0  0  0  0  0  0  0  0  0  0  0  0
   -2.8099   -0.5175    5.2742 H   0  0  0  0  0  0  0  0  0  0  0  0
   -1.2190   -0.0687    5.8551 H   0  0  0  0  0  0  0  0  0  0  0  0
   -2.4882    1.1338    5.7604 H   0  0  0  0  0  0  0  0  0  0  0  0
   -2.3680    1.5337    3.1790 N   0  0  0  0  0  0  0  0  0  0  0  0
   -2.1212    1.9597    1.8266 C   0  0  2  0  0  0  0  0  0  0  0  0
   -0.7862    1.3744    1.3854 C   0  0  0  0  0  0  0  0  0  0  0  0
    0.0859    1.0216    2.1767 O   0  0  0  0  0  0  0  0  0  0  0  0
   -2.1124    3.4765    1.7171 C   0  0  0  0  0  0  0  0  0  0  0  0
   -3.1331    1.9695    3.6908 H   0  0  0  0  0  0  0  0  0  0  0  0
   -2.9253    1.5413    1.2115 H   0  0  0  0  0  0  0  0  0  0  0  0
   -1.3133    3.9138    2.3268 H   0  0  0  0  0  0  0  0  0  0  0  0
   -1.9529    3.7988    0.6829 H   0  0  0  0  0  0  0  0  0  0  0  0
   -3.0626    3.8977    2.0629 H   0  0  0  0  0  0  0  0  0  0  0  0
   -0.6635    1.3313    0.0020 N   0  0  0  0  0  0  0  0  0  0  0  0
    0.5138    0.8305   -0.6617 C   0  0  2  0  0  0  0  0  0  0  0  0
    0.4387    1.2829   -2.1156 C   0  0  0  0  0  0  0  0  0  0  0  0
    1.4077    1.7239   -2.7300 O   0  0  0  0  0  0  0  0  0  0  0  0
    0.6168   -0.6971   -0.5835 C   0  0  0  0  0  0  0  0  0  0  0  0
    0.7784   -1.1996    0.8304 C   0  0  0  0  0  0  0  0  0  0  0  0
    1.9788   -1.0732    1.4837 N   0  0  0  0  0  0  0  0  0  0  0  0
   -0.1591   -1.8120    1.6283 C   0  0  0  0  0  0  0  0  0  0  0  0
    1.7725   -1.6037    2.6685 C   0  0  0  0  0  0  0  0  0  0  0  0
    0.4925   -2.0653    2.8023 N   0  0  0  0  0  0  0  0  0  0  0  0
   -1.4467    1.6280   -0.5753 H   0  0  0  0  0  0  0  0  0  0  0  0
    1.3727    1.3121   -0.1798 H   0  0  0  0  0  0  0  0  0  0  0  0
    1.4529   -1.0540   -1.2002 H   0  0  0  0  0  0  0  0  0  0  0  0
   -0.2785   -1.1645   -1.0143 H   0  0  0  0  0  0  0  0  0  0  0  0
   -1.1940   -2.0830    1.4764 H   0  0  0  0  0  0  0  0  0  0  0  0
    2.4984   -1.6841    3.4654 H   0  0  0  0  0  0  0  0  0  0  0  0
    0.1000   -2.5115    3.6206 H   0  0  0  0  0  0  0  0  0  0  0  0
   -0.8249    1.0880   -2.6558 N   0  0  0  0  0  0  0  0  0  0  0  0
   -1.1615    1.4109   -4.0237 C   0  0  2  0  0  0  0  0  0  0  0  0
   -0.6922    2.8332   -4.3003 C   0  0  0  0  0  0  0  0  0  0  0  0
   -0.5059    3.6627   -3.4125 O   0  0  0  0  0  0  0  0  0  0  0  0
   -2.6553    1.2733   -4.2732 C   0  0  0  0  0  0  0  0  0  0  0  0
   -1.5494    0.6988   -2.0598 H   0  0  0  0  0  0  0  0  0  0  0  0
   -0.6065    0.7124   -4.6594 H   0  0  0  0  0  0  0  0  0  0  0  0
   -3.2280    1.9654   -3.6451 H   0  0  0  0  0  0  0  0  0  0  0  0
   -2.9050    1.4906   -5.3170 H   0  0  0  0  0  0  0  0  0  0  0  0
   -2.9966    0.2577   -4.0452 H   0  0  0  0  0  0  0  0  0  0  0  0
   -0.5474    3.0801   -5.6584 N   0  0  0  0  0  0  0  0  0  0  0  0
   -0.1248    4.3600   -6.1773 C   0  0  0  0  0  0  0  0  0  0  0  0
   -0.7052    2.3280   -6.3226 H   0  0  0  0  0  0  0  0  0  0  0  0
   -1.0086    4.9751   -6.4019 H   0  0  0  0  0  0  0  0  0  0  0  0
    0.4974    4.8718   -5.4284 H   0  0  0  0  0  0  0  0  0  0  0  0
    0.4592    4.2078   -7.0970 H   0  0  0  0  0  0  0  0  0  0  0  0
 22 24  2  0  0  0  0
 24 26  1  0  0  0  0
 23 25  2  0  0  0  0
 25 26  1  0  0  0  0
 21 22  1  0  0  0  0
 22 23  1  0  0  0  0
  1  3  1  0  0  0  0
  1  7  1  0  0  0  0
  1  2  2  0  0  0  0
 35 36  1  0  0  0  0
 36 44  1  0  0  0  0
 36 37  2  0  0  0  0
  8  9  1  0  0  0  0
  9 17  1  0  0  0  0
  9 10  2  0  0  0  0
 18 19  1  0  0  0  0
 19 34  1  0  0  0  0
 19 20  2  0  0  0  0
 35 38  1  0  0  0  0
  8 11  1  0  0  0  0
 44 45  1  0  0  0  0
 18 21  1  0  0  0  0
 34 35  1  0  0  0  0
  7  8  1  0  0  0  0
 17 18  1  0  0  0  0
 24 31  1  0  0  0  0
 25 32  1  0  0  0  0
  3  4  1  0  0  0  0
  3  5  1  0  0  0  0
  3  6  1  0  0  0  0
 38 41  1  0  0  0  0
 38 42  1  0  0  0  0
 38 43  1  0  0  0  0
 11 14  1  0  0  0  0
 11 15  1  0  0  0  0
 11 16  1  0  0  0  0
 45 47  1  0  0  0  0
 45 48  1  0  0  0  0
 45 49  1  0  0  0  0
 21 29  1  0  0  0  0
 21 30  1  0  0  0  0
 35 40  1  0  0  0  0
  8 13  1  0  0  0  0
 18 28  1  0  0  0  0
 26 33  1  0  0  0  0
 44 46  1  0  0  0  0
  7 12  1  0  0  0  0
 34 39  1  0  0  0  0
 17 27  1  0  0  0  0
M  END
$$$$

  -OEChem-05262214473D

 49 49  0     1  0  0  0  0  0999 V2000
   -1.6183    0.5613    3.8201 C   0  0  0  0  0  0  0  0  0  0  0  0
   -0.6710   -0.0534    3.3444 O   0  0  0  0  0  0  0  0  0  0  0  0
   -2.0502    0.2789    5.2208 C   0  0  0  0  0  0  0  0  0  0  0  0
   -2.8099   -0.5175    5.2742 H   0  0  0  0  0  0  0  0  0  0  0  0
   -1.2190   -0.0687    5.8551 H   0  0  0  0  0  0  0  0  0  0  0  0
   -2.4882    1.1338    5.7604 H   0  0  0  0  0  0  0  0  0  0  0  0
   -2.3680    1.5337    3.1790 N   0  0  0  0  0  0  0  0  0  0  0  0
   -2.1212    1.9597    1.8266 C   0  0  2  0  0  0  0  0  0  0  0  0
   -0.7862    1.3744    1.3854 C   0  0  0  0  0  0  0  0  0  0  0  0
    0.0859    1.0216    2.1767 O   0  0  0  0  0  0  0  0  0  0  0  0
   -2.1124    3.4765    1.7171 C   0  0  0  0  0  0  0  0  0  0  0  0
   -3.1331    1.9695    3.6908 H   0  0  0  0  0  0  0  0  0  0  0  0
   -2.9253    1.5413    1.2115 H   0  0  0  0  0  0  0  0  0  0  0  0
   -1.3133    3.9138    2.3268 H   0  0  0  0  0  0  0  0  0  0  0  0
   -1.9529    3.7988    0.6829 H   0  0  0  0  0  0  0  0  0  0  0  0
   -3.0626    3.8977    2.0629 H   0  0  0  0  0  0  0  0  0  0  0  0
   -0.6635    1.3313    0.0020 N   0  0  0  0  0  0  0  0  0  0  0  0
    0.5138    0.8305   -0.6617 C   0  0  2  0  0  0  0  0  0  0  0  0
    0.4387    1.2829   -2.1156 C   0  0  0  0  0  0  0  0  0  0  0  0
    1.4352    1.4687   -2.8108 O   0  0  0  0  0  0  0  0  0  0  0  0
    0.6168   -0.6971   -0.5835 C   0  0  0  0  0  0  0  0  0  0  0  0
    0.7784   -1.1996    0.8304 C   0  0  0  0  0  0  0  0  0  0  0  0
    1.9788   -1.0732    1.4837 N   0  0  0  0  0  0  0  0  0  0  0  0
   -0.1591   -1.8120    1.6283 C   0  0  0  0  0  0  0  0  0  0  0  0
    1.7725   -1.6037    2.6685 C   0  0  0  0  0  0  0  0  0  0  0  0
    0.4925   -2.0653    2.8023 N   0  0  0  0  0  0  0  0  0  0  0  0
   -1.4467    1.6280   -0.5753 H   0  0  0  0  0  0  0  0  0  0  0  0
    1.3727    1.3121   -0.1798 H   0  0  0  0  0  0  0  0  0  0  0  0
    1.4529   -1.0540   -1.2002 H   0  0  0  0  0  0  0  0  0  0  0  0
   -0.2785   -1.1645   -1.0143 H   0  0  0  0  0  0  0  0  0  0  0  0
   -1.1940   -2.0830    1.4764 H   0  0  0  0  0  0  0  0  0  0  0  0
    2.4984   -1.6841    3.4654 H   0  0  0  0  0  0  0  0  0  0  0  0
    0.1000   -2.5115    3.6206 H   0  0  0  0  0  0  0  0  0  0  0  0
   -0.8723    1.4049   -2.5548 N   0  0  0  0  0  0  0  0  0  0  0  0
   -1.2252    1.7968   -3.9004 C   0  0  2  0  0  0  0  0  0  0  0  0
   -0.4432    3.0579   -4.2433 C   0  0  0  0  0  0  0  0  0  0  0  0
    0.0108    3.8183   -3.3907 O   0  0  0  0  0  0  0  0  0  0  0  0
   -2.7217    2.0322   -4.0336 C   0  0  0  0  0  0  0  0  0  0  0  0
   -1.6214    1.2088   -1.8974 H   0  0  0  0  0  0  0  0  0  0  0  0
   -0.9109    0.9808   -4.5602 H   0  0  0  0  0  0  0  0  0  0  0  0
   -3.0552    2.8463   -3.3799 H   0  0  0  0  0  0  0  0  0  0  0  0
   -2.9912    2.3012   -5.0603 H   0  0  0  0  0  0  0  0  0  0  0  0
   -3.2837    1.1333   -3.7580 H   0  0  0  0  0  0  0  0  0  0  0  0
   -0.3490    3.2572   -5.6135 N   0  0  0  0  0  0  0  0  0  0  0  0
    0.3339    4.3912   -6.1913 C   0  0  0  0  0  0  0  0  0  0  0  0
   -0.7387    2.5655   -6.2470 H   0  0  0  0  0  0  0  0  0  0  0  0
   -0.3860    5.2051   -6.3625 H   0  0  0  0  0  0  0  0  0  0  0  0
    1.1197    4.7356   -5.5029 H   0  0  0  0  0  0  0  0  0  0  0  0
    0.7884    4.0965   -7.1487 H   0  0  0  0  0  0  0  0  0  0  0  0
 22 24  2  0  0  0  0
 24 26  1  0  0  0  0
 23 25  2  0  0  0  0
 25 26  1  0  0  0  0
 21 22  1  0  0  0  0
 22 23  1  0  0  0  0
  1  3  1  0  0  0  0
  1  7  1  0  0  0  0
  1  2  2  0  0  0  0
 35 36  1  0  0  0  0
 36 44  1  0  0  0  0
 36 37  2  0  0  0  0
  8  9  1  0  0  0  0
  9 17  1  0  0  0  0
  9 10  2  0  0  0  0
 18 19  1  0  0  0  0
 19 34  1  0  0  0  0
 19 20  2  0  0  0  0
 35 38  1  0  0  0  0
  8 11  1  0  0  0  0
 44 45  1  0  0  0  0
 18 21  1  0  0  0  0
 34 35  1  0  0  0  0
  7  8  1  0  0  0  0
 17 18  1  0  0  0  0
 24 31  1  0  0  0  0
 25 32  1  0  0  0  0
  3  4  1  0  0  0  0
  3  5  1  0  0  0  0
  3  6  1  0  0  0  0
 38 41  1  0  0  0  0
 38 42  1  0  0  0  0
 38 43  1  0  0  0  0
 11 14  1  0  0  0  0
 11 15  1  0  0  0  0
 11 16  1  0  0  0  0
 45 47  1  0  0  0  0
 45 48  1  0  0  0  0
 45 49  1  0  0  0  0
 21 29  1  0  0  0  0
 21 30  1  0  0  0  0
 35 40  1  0  0  0  0
  8 13  1  0  0  0  0
 18 28  1  0  0  0  0
 26 33  1  0  0  0  0
 44 46  1  0  0  0  0
  7 12  1  0  0  0  0
 34 39  1  0  0  0  0
 17 27  1  0  0  0  0
M  END
$$$$

  -OEChem-05262214473D

 49 49  0     1  0  0  0  0  0999 V2000
   -1.6183    0.5613    3.8201 C   0  0  0  0  0  0  0  0  0  0  0  0
   -0.6710   -0.0534    3.3444 O   0  0  0  0  0  0  0  0  0  0  0  0
   -2.0502    0.2789    5.2208 C   0  0  0  0  0  0  0  0  0  0  0  0
   -2.8099   -0.5175    5.2742 H   0  0  0  0  0  0  0  0  0  0  0  0
   -1.2190   -0.0687    5.8551 H   0  0  0  0  0  0  0  0  0  0  0  0
   -2.4882    1.1338    5.7604 H   0  0  0  0  0  0  0  0  0  0  0  0
   -2.3680    1.5337    3.1790 N   0  0  0  0  0  0  0  0  0  0  0  0
   -2.1212    1.9597    1.8266 C   0  0  2  0  0  0  0  0  0  0  0  0
   -0.7862    1.3744    1.3854 C   0  0  0  0  0  0  0  0  0  0  0  0
    0.0859    1.0216    2.1767 O   0  0  0  0  0  0  0  0  0  0  0  0
   -2.1124    3.4765    1.7171 C   0  0  0  0  0  0  0  0  0  0  0  0
   -3.1331    1.9695    3.6908 H   0  0  0  0  0  0  0  0  0  0  0  0
   -2.9253    1.5413    1.2115 H   0  0  0  0  0  0  0  0  0  0  0  0
   -1.3133    3.9138    2.3268 H   0  0  0  0  0  0  0  0  0  0  0  0
   -1.9529    3.7988    0.6829 H   0  0  0  0  0  0  0  0  0  0  0  0
   -3.0626    3.8977    2.0629 H   0  0  0  0  0  0  0  0  0  0  0  0
   -0.6635    1.3313    0.0020 N   0  0  0  0  0  0  0  0  0  0  0  0
    0.5138    0.8305   -0.6617 C   0  0  2  0  0  0  0  0  0  0  0  0
    0.4387    1.2829   -2.1156 C   0  0  0  0  0  0  0  0  0  0  0  0
    1.3926    1.2143   -2.8878 O   0  0  0  0  0  0  0  0  0  0  0  0
    0.6168   -0.6971   -0.5835 C   0  0  0  0  0  0  0  0  0  0  0  0
    0.7784   -1.1996    0.8304 C   0  0  0  0  0  0  0  0  0  0  0  0
    1.9788   -1.0732    1.4837 N   0  0  0  0  0  0  0  0  0  0  0  0
   -0.1591   -1.8120    1.6283 C   0  0  0  0  0  0  0  0  0  0  0  0
    1.7725   -1.6037    2.6685 C   0  0  0  0  0  0  0  0  0  0  0  0
    0.4925   -2.0653    2.8023 N   0  0  0  0  0  0  0  0  0  0  0  0
   -1.4467    1.6280   -0.5753 H   0  0  0  0  0  0  0  0  0  0  0  0
    1.3727    1.3121   -0.1798 H   0  0  0  0  0  0  0  0  0  0  0  0
    1.4529   -1.0540   -1.2002 H   0  0  0  0  0  0  0  0  0  0  0  0
   -0.2785   -1.1645   -1.0143 H   0  0  0  0  0  0  0  0  0  0  0  0
   -1.1940   -2.0830    1.4764 H   0  0  0  0  0  0  0  0  0  0  0  0
    2.4984   -1.6841    3.4654 H   0  0  0  0  0  0  0  0  0  0  0  0
    0.1000   -2.5115    3.6206 H   0  0  0  0  0  0  0  0  0  0  0  0
   -0.8321    1.7240   -2.4575 N   0  0  0  0  0  0  0  0  0  0  0  0
   -1.1820    2.1869   -3.7812 C   0  0  2  0  0  0  0  0  0  0  0  0
   -0.1428    3.2143   -4.2101 C   0  0  0  0  0  0  0  0  0  0  0  0
    0.5499    3.8414   -3.4114 O   0  0  0  0  0  0  0  0  0  0  0  0
   -2.5801    2.7846   -3.8068 C   0  0  0  0  0  0  0  0  0  0  0  0
   -1.5525    1.7213   -1.7414 H   0  0  0  0  0  0  0  0  0  0  0  0
   -1.1311    1.3164   -4.4444 H   0  0  0  0  0  0  0  0  0  0  0  0
   -2.6504    3.6580   -3.1482 H   0  0  0  0  0  0  0  0  0  0  0  0
   -2.8546    3.1088   -4.8160 H   0  0  0  0  0  0  0  0  0  0  0  0
   -3.3228    2.0535   -3.4696 H   0  0  0  0  0  0  0  0  0  0  0  0
   -0.1101    3.3798   -5.5877 N   0  0  0  0  0  0  0  0  0  0  0  0
    0.7835    4.3079   -6.2404 C   0  0  0  0  0  0  0  0  0  0  0  0
   -0.7067    2.8040   -6.1744 H   0  0  0  0  0  0  0  0  0  0  0  0
    0.2752    5.2740   -6.3751 H   0  0  0  0  0  0  0  0  0  0  0  0
    1.6815    4.4494   -5.6210 H   0  0  0  0  0  0  0  0  0  0  0  0
    1.0750    3.9070   -7.2224 H   0  0  0  0  0  0  0  0  0  0  0  0
 22 24  2  0  0  0  0
 24 26  1  0  0  0  0
 23 25  2  0  0  0  0
 25 26  1  0  0  0  0
 21 22  1  0  0  0  0
 22 23  1  0  0  0  0
  1  3  1  0  0  0  0
  1  7  1  0  0  0  0
  1  2  2  0  0  0  0
 35 36  1  0  0  0  0
 36 44  1  0  0  0  0
 36 37  2  0  0  0  0
  8  9  1  0  0  0  0
  9 17  1  0  0  0  0
  9 10  2  0  0  0  0
 18 19  1  0  0  0  0
 19 34  1  0  0  0  0
 19 20  2  0  0  0  0
 35 38  1  0  0  0  0
  8 11  1  0  0  0  0
 44 45  1  0  0  0  0
 18 21  1  0  0  0  0
 34 35  1  0  0  0  0
  7  8  1  0  0  0  0
 17 18  1  0  0  0  0
 24 31  1  0  0  0  0
 25 32  1  0  0  0  0
  3  4  1  0  0  0  0
  3  5  1  0  0  0  0
  3  6  1  0  0  0  0
 38 41  1  0  0  0  0
 38 42  1  0  0  0  0
 38 43  1  0  0  0  0
 11 14  1  0  0  0  0
 11 15  1  0  0  0  0
 11 16  1  0  0  0  0
 45 47  1  0  0  0  0
 45 48  1  0  0  0  0
 45 49  1  0  0  0  0
 21 29  1  0  0  0  0
 21 30  1  0  0  0  0
 35 40  1  0  0  0  0
  8 13  1  0  0  0  0
 18 28  1  0  0  0  0
 26 33  1  0  0  0  0
 44 46  1  0  0  0  0
  7 12  1  0  0  0  0
 34 39  1  0  0  0  0
 17 27  1  0  0  0  0
M  END
$$$$

  -OEChem-05262214473D

 49 49  0     1  0  0  0  0  0999 V2000
   -1.6183    0.5613    3.8201 C   0  0  0  0  0  0  0  0  0  0  0  0
   -0.6710   -0.0534    3.3444 O   0  0  0  0  0  0  0  0  0  0  0  0
   -2.0502    0.2789    5.2208 C   0  0  0  0  0  0  0  0  0  0  0  0
   -2.8099   -0.5175    5.2742 H   0  0  0  0  0  0  0  0  0  0  0  0
   -1.2190   -0.0687    5.8551 H   0  0  0  0  0  0  0  0  0  0  0  0
   -2.4882    1.1338    5.7604 H   0  0  0  0  0  0  0  0  0  0  0  0
   -2.3680    1.5337    3.1790 N   0  0  0  0  0  0  0  0  0  0  0  0
   -2.1212    1.9597    1.8266 C   0  0  2  0  0  0  0  0  0  0  0  0
   -0.7862    1.3744    1.3854 C   0  0  0  0  0  0  0  0  0  0  0  0
    0.0859    1.0216    2.1767 O   0  0  0  0  0  0  0  0  0  0  0  0
   -2.1124    3.4765    1.7171 C   0  0  0  0  0  0  0  0  0  0  0  0
   -3.1331    1.9695    3.6908 H   0  0  0  0  0  0  0  0  0  0  0  0
   -2.9253    1.5413    1.2115 H   0  0  0  0  0  0  0  0  0  0  0  0
   -1.3133    3.9138    2.3268 H   0  0  0  0  0  0  0  0  0  0  0  0
   -1.9529    3.7988    0.6829 H   0  0  0  0  0  0  0  0  0  0  0  0
   -3.0626    3.8977    2.0629 H   0  0  0  0  0  0  0  0  0  0  0  0
   -0.6635    1.3313    0.0020 N   0  0  0  0  0  0  0  0  0  0  0  0
    0.5138    0.8305   -0.6617 C   0  0  2  0  0  0  0  0  0  0  0  0
    0.4387    1.2829   -2.1156 C   0  0  0  0  0  0  0  0  0  0  0  0
    1.2827    0.9781   -2.9556 O   0  0  0  0  0  0  0  0  0  0  0  0
    0.6168   -0.6971   -0.5835 C   0  0  0  0  0  0  0  0  0  0  0  0
    0.7784   -1.1996    0.8304 C   0  0  0  0  0  0  0  0  0  0  0  0
    1.9788   -1.0732    1.4837 N   0  0  0  0  0  0  0  0  0  0  0  0
   -0.1591   -1.8120    1.6283 C   0  0  0  0  0  0  0  0  0  0  0  0
    1.7725   -1.6037    2.6685 C   0  0  0  0  0  0  0  0  0  0  0  0
    0.4925   -2.0653    2.8023 N   0  0  0  0  0  0  0  0  0  0  0  0
   -1.4467    1.6280   -0.5753 H   0  0  0  0  0  0  0  0  0  0  0  0
    1.3727    1.3121   -0.1798 H   0  0  0  0  0  0  0  0  0  0  0  0
    1.4529   -1.0540   -1.2002 H   0  0  0  0  0  0  0  0  0  0  0  0
   -0.2785   -1.1645   -1.0143 H   0  0  0  0  0  0  0  0  0  0  0  0
   -1.1940   -2.0830    1.4764 H   0  0  0  0  0  0  0  0  0  0  0  0
    2.4984   -1.6841    3.4654 H   0  0  0  0  0  0  0  0  0  0  0  0
    0.1000   -2.5115    3.6206 H   0  0  0  0  0  0  0  0  0  0  0  0
   -0.7071    2.0235   -2.3708 N   0  0  0  0  0  0  0  0  0  0  0  0
   -1.0348    2.5545   -3.6744 C   0  0  2  0  0  0  0  0  0  0  0  0
    0.1885    3.2916   -4.2031 C   0  0  0  0  0  0  0  0  0  0  0  0
    1.0748    3.7304   -3.4730 O   0  0  0  0  0  0  0  0  0  0  0  0
   -2.2402    3.4793   -3.6082 C   0  0  0  0  0  0  0  0  0  0  0  0
   -1.3475    2.2013   -1.6027 H   0  0  0  0  0  0  0  0  0  0  0  0
   -1.2521    1.6964   -4.3199 H   0  0  0  0  0  0  0  0  0  0  0  0
   -2.0413    4.3450   -2.9659 H   0  0  0  0  0  0  0  0  0  0  0  0
   -2.5046    3.8582   -4.6009 H   0  0  0  0  0  0  0  0  0  0  0  0
   -3.1112    2.9557   -3.1998 H   0  0  0  0  0  0  0  0  0  0  0  0
    0.1528    3.4397   -5.5826 N   0  0  0  0  0  0  0  0  0  0  0  0
    1.1936    4.1158   -6.3213 C   0  0  0  0  0  0  0  0  0  0  0  0
   -0.6113    3.0275   -6.1098 H   0  0  0  0  0  0  0  0  0  0  0  0
    0.9300    5.1773   -6.4391 H   0  0  0  0  0  0  0  0  0  0  0  0
    2.1444    4.0327   -5.7745 H   0  0  0  0  0  0  0  0  0  0  0  0
    1.2993    3.6522   -7.3133 H   0  0  0  0  0  0  0  0  0  0  0  0
 22 24  2  0  0  0  0
 24 26  1  0  0  0  0
 23 25  2  0  0  0  0
 25 26  1  0  0  0  0
 21 22  1  0  0  0  0
 22 23  1  0  0  0  0
  1  3  1  0  0  0  0
  1  7  1  0  0  0  0
  1  2  2  0  0  0  0
 35 36  1  0  0  0  0
 36 44  1  0  0  0  0
 36 37  2  0  0  0  0
  8  9  1  0  0  0  0
  9 17  1  0  0  0  0
  9 10  2  0  0  0  0
 18 19  1  0  0  0  0
 19 34  1  0  0  0  0
 19 20  2  0  0  0  0
 35 38  1  0  0  0  0
  8 11  1  0  0  0  0
 44 45  1  0  0  0  0
 18 21  1  0  0  0  0
 34 35  1  0  0  0  0
  7  8  1  0  0  0  0
 17 18  1  0  0  0  0
 24 31  1  0  0  0  0
 25 32  1  0  0  0  0
  3  4  1  0  0  0  0
  3  5  1  0  0  0  0
  3  6  1  0  0  0  0
 38 41  1  0  0  0  0
 38 42  1  0  0  0  0
 38 43  1  0  0  0  0
 11 14  1  0  0  0  0
 11 15  1  0  0  0  0
 11 16  1  0  0  0  0
 45 47  1  0  0  0  0
 45 48  1  0  0  0  0
 45 49  1  0  0  0  0
 21 29  1  0  0  0  0
 21 30  1  0  0  0  0
 35 40  1  0  0  0  0
  8 13  1  0  0  0  0
 18 28  1  0  0  0  0
 26 33  1  0  0  0  0
 44 46  1  0  0  0  0
  7 12  1  0  0  0  0
 34 39  1  0  0  0  0
 17 27  1  0  0  0  0
M  END
$$$$

  -OEChem-05262214473D

 49 49  0     1  0  0  0  0  0999 V2000
   -1.6183    0.5613    3.8201 C   0  0  0  0  0  0  0  0  0  0  0  0
   -0.6710   -0.0534    3.3444 O   0  0  0  0  0  0  0  0  0  0  0  0
   -2.0502    0.2789    5.2208 C   0  0  0  0  0  0  0  0  0  0  0  0
   -2.8099   -0.5175    5.2742 H   0  0  0  0  0  0  0  0  0  0  0  0
   -1.2190   -0.0687    5.8551 H   0  0  0  0  0  0  0  0  0  0  0  0
   -2.4882    1.1338    5.7604 H   0  0  0  0  0  0  0  0  0  0  0  0
   -2.3680    1.5337    3.1790 N   0  0  0  0  0  0  0  0  0  0  0  0
   -2.1212    1.9597    1.8266 C   0  0  2  0  0  0  0  0  0  0  0  0
   -0.7862    1.3744    1.3854 C   0  0  0  0  0  0  0  0  0  0  0  0
    0.0859    1.0216    2.1767 O   0  0  0  0  0  0  0  0  0  0  0  0
   -2.1124    3.4765    1.7171 C   0  0  0  0  0  0  0  0  0  0  0  0
   -3.1331    1.9695    3.6908 H   0  0  0  0  0  0  0  0  0  0  0  0
   -2.9253    1.5413    1.2115 H   0  0  0  0  0  0  0  0  0  0  0  0
   -1.3133    3.9138    2.3268 H   0  0  0  0  0  0  0  0  0  0  0  0
   -1.9529    3.7988    0.6829 H   0  0  0  0  0  0  0  0  0  0  0  0
   -3.0626    3.8977    2.0629 H   0  0  0  0  0  0  0  0  0  0  0  0
   -0.6635    1.3313    0.0020 N   0  0  0  0  0  0  0  0  0  0  0  0
    0.5138    0.8305   -0.6617 C   0  0  2  0  0  0  0  0  0  0  0  0
    0.4387    1.2829   -2.1156 C   0  0  0  0  0  0  0  0  0  0  0  0
    1.1131    0.7762   -3.0097 O   0  0  0  0  0  0  0  0  0  0  0  0
    0.6168   -0.6971   -0.5835 C   0  0  0  0  0  0  0  0  0  0  0  0
    0.7784   -1.1996    0.8304 C   0  0  0  0  0  0  0  0  0  0  0  0
    1.9788   -1.0732    1.4837 N   0  0  0  0  0  0  0  0  0  0  0  0
   -0.1591   -1.8120    1.6283 C   0  0  0  0  0  0  0  0  0  0  0  0
    1.7725   -1.6037    2.6685 C   0  0  0  0  0  0  0  0  0  0  0  0
    0.4925   -2.0653    2.8023 N   0  0  0  0  0  0  0  0  0  0  0  0
   -1.4467    1.6280   -0.5753 H   0  0  0  0  0  0  0  0  0  0  0  0
    1.3727    1.3121   -0.1798 H   0  0  0  0  0  0  0  0  0  0  0  0
    1.4529   -1.0540   -1.2002 H   0  0  0  0  0  0  0  0  0  0  0  0
   -0.2785   -1.1645   -1.0143 H   0  0  0  0  0  0  0  0  0  0  0  0
   -1.1940   -2.0830    1.4764 H   0  0  0  0  0  0  0  0  0  0  0  0
    2.4984   -1.6841    3.4654 H   0  0  0  0  0  0  0  0  0  0  0  0
    0.1000   -2.5115    3.6206 H   0  0  0  0  0  0  0  0  0  0  0  0
   -0.5057    2.2831   -2.3004 N   0  0  0  0  0  0  0  0  0  0  0  0
   -0.7937    2.8746   -3.5873 C   0  0  2  0  0  0  0  0  0  0  0  0
    0.5282    3.2846   -4.2229 C   0  0  0  0  0  0  0  0  0  0  0  0
    1.5496    3.4928   -3.5714 O   0  0  0  0  0  0  0  0  0  0  0  0
   -1.7251    4.0690   -3.4512 C   0  0  0  0  0  0  0  0  0  0  0  0
   -1.0203    2.6162   -1.4905 H   0  0  0  0  0  0  0  0  0  0  0  0
   -1.2656    2.0949   -4.1952 H   0  0  0  0  0  0  0  0  0  0  0  0
   -1.2694    4.8606   -2.8453 H   0  0  0  0  0  0  0  0  0  0  0  0
   -1.9651    4.4984   -4.4295 H   0  0  0  0  0  0  0  0  0  0  0  0
   -2.6635    3.7783   -2.9669 H   0  0  0  0  0  0  0  0  0  0  0  0
    0.4220    3.4326   -5.5987 N   0  0  0  0  0  0  0  0  0  0  0  0
    1.5360    3.8281   -6.4286 C   0  0  0  0  0  0  0  0  0  0  0  0
   -0.4590    3.2206   -6.0576 H   0  0  0  0  0  0  0  0  0  0  0  0
    1.5336    4.9214   -6.5498 H   0  0  0  0  0  0  0  0  0  0  0  0
    2.4769    3.5141   -5.9531 H   0  0  0  0  0  0  0  0  0  0  0  0
    1.4462    3.3497   -7.4150 H   0  0  0  0  0  0  0  0  0  0  0  0
 22 24  2  0  0  0  0
 24 26  1  0  0  0  0
 23 25  2  0  0  0  0
 25 26  1  0  0  0  0
 21 22  1  0  0  0  0
 22 23  1  0  0  0  0
  1  3  1  0  0  0  0
  1  7  1  0  0  0  0
  1  2  2  0  0  0  0
 35 36  1  0  0  0  0
 36 44  1  0  0  0  0
 36 37  2  0  0  0  0
  8  9  1  0  0  0  0
  9 17  1  0  0  0  0
  9 10  2  0  0  0  0
 18 19  1  0  0  0  0
 19 34  1  0  0  0  0
 19 20  2  0  0  0  0
 35 38  1  0  0  0  0
  8 11  1  0  0  0  0
 44 45  1  0  0  0  0
 18 21  1  0  0  0  0
 34 35  1  0  0  0  0
  7  8  1  0  0  0  0
 17 18  1  0  0  0  0
 24 31  1  0  0  0  0
 25 32  1  0  0  0  0
  3  4  1  0  0  0  0
  3  5  1  0  0  0  0
  3  6  1  0  0  0  0
 38 41  1  0  0  0  0
 38 42  1  0  0  0  0
 38 43  1  0  0  0  0
 11 14  1  0  0  0  0
 11 15  1  0  0  0  0
 11 16  1  0  0  0  0
 45 47  1  0  0  0  0
 45 48  1  0  0  0  0
 45 49  1  0  0  0  0
 21 29  1  0  0  0  0
 21 30  1  0  0  0  0
 35 40  1  0  0  0  0
  8 13  1  0  0  0  0
 18 28  1  0  0  0  0
 26 33  1  0  0  0  0
 44 46  1  0  0  0  0
  7 12  1  0  0  0  0
 34 39  1  0  0  0  0
 17 27  1  0  0  0  0
M  END
$$$$

  -OEChem-05262214473D

 49 49  0     1  0  0  0  0  0999 V2000
   -1.6183    0.5613    3.8201 C   0  0  0  0  0  0  0  0  0  0  0  0
   -0.6710   -0.0534    3.3444 O   0  0  0  0  0  0  0  0  0  0  0  0
   -2.0502    0.2789    5.2208 C   0  0  0  0  0  0  0  0  0  0  0  0
   -2.8099   -0.5175    5.2742 H   0  0  0  0  0  0  0  0  0  0  0  0
   -1.2190   -0.0687    5.8551 H   0  0  0  0  0  0  0  0  0  0  0  0
   -2.4882    1.1338    5.7604 H   0  0  0  0  0  0  0  0  0  0  0  0
   -2.3680    1.5337    3.1790 N   0  0  0  0  0  0  0  0  0  0  0  0
   -2.1212    1.9597    1.8266 C   0  0  2  0  0  0  0  0  0  0  0  0
   -0.7862    1.3744    1.3854 C   0  0  0  0  0  0  0  0  0  0  0  0
    0.0859    1.0216    2.1767 O   0  0  0  0  0  0  0  0  0  0  0  0
   -2.1124    3.4765    1.7171 C   0  0  0  0  0  0  0  0  0  0  0  0
   -3.1331    1.9695    3.6908 H   0  0  0  0  0  0  0  0  0  0  0  0
   -2.9253    1.5413    1.2115 H   0  0  0  0  0  0  0  0  0  0  0  0
   -1.3133    3.9138    2.3268 H   0  0  0  0  0  0  0  0  0  0  0  0
   -1.9529    3.7988    0.6829 H   0  0  0  0  0  0  0  0  0  0  0  0
   -3.0626    3.8977    2.0629 H   0  0  0  0  0  0  0  0  0  0  0  0
   -0.6635    1.3313    0.0020 N   0  0  0  0  0  0  0  0  0  0  0  0
    0.5138    0.8305   -0.6617 C   0  0  2  0  0  0  0  0  0  0  0  0
    0.4387    1.2829   -2.1156 C   0  0  0  0  0  0  0  0  0  0  0  0
    0.8952    0.6224   -3.0463 O   0  0  0  0  0  0  0  0  0  0  0  0
    0.6168   -0.6971   -0.5835 C   0  0  0  0  0  0  0  0  0  0  0  0
    0.7784   -1.1996    0.8304 C   0  0  0  0  0  0  0  0  0  0  0  0
    1.9788   -1.0732    1.4837 N   0  0  0  0  0  0  0  0  0  0  0  0
   -0.1591   -1.8120    1.6283 C   0  0  0  0  0  0  0  0  0  0  0  0
    1.7725   -1.6037    2.6685 C   0  0  0  0  0  0  0  0  0  0  0  0
    0.4925   -2.0653    2.8023 N   0  0  0  0  0  0  0  0  0  0  0  0
   -1.4467    1.6280   -0.5753 H   0  0  0  0  0  0  0  0  0  0  0  0
    1.3727    1.3121   -0.1798 H   0  0  0  0  0  0  0  0  0  0  0  0
    1.4529   -1.0540   -1.2002 H   0  0  0  0  0  0  0  0  0  0  0  0
   -0.2785   -1.1645   -1.0143 H   0  0  0  0  0  0  0  0  0  0  0  0
   -1.1940   -2.0830    1.4764 H   0  0  0  0  0  0  0  0  0  0  0  0
    2.4984   -1.6841    3.4654 H   0  0  0  0  0  0  0  0  0  0  0  0
    0.1000   -2.5115    3.6206 H   0  0  0  0  0  0  0  0  0  0  0  0
   -0.2417    2.4850   -2.2512 N   0  0  0  0  0  0  0  0  0  0  0  0
   -0.4751    3.1254   -3.5257 C   0  0  2  0  0  0  0  0  0  0  0  0
    0.8530    3.1938   -4.2679 C   0  0  0  0  0  0  0  0  0  0  0  0
    1.9421    3.1449   -3.7000 O   0  0  0  0  0  0  0  0  0  0  0  0
   -1.0699    4.5135   -3.3468 C   0  0  0  0  0  0  0  0  0  0  0  0
   -0.5933    2.9375   -1.4125 H   0  0  0  0  0  0  0  0  0  0  0  0
   -1.1707    2.4848   -4.0787 H   0  0  0  0  0  0  0  0  0  0  0  0
   -0.3872    5.1696   -2.7946 H   0  0  0  0  0  0  0  0  0  0  0  0
   -1.2727    4.9859   -4.3136 H   0  0  0  0  0  0  0  0  0  0  0  0
   -2.0101    4.4654   -2.7868 H   0  0  0  0  0  0  0  0  0  0  0  0
    0.6790    3.3592   -5.6348 N   0  0  0  0  0  0  0  0  0  0  0  0
    1.7875    3.4642   -6.5548 C   0  0  0  0  0  0  0  0  0  0  0  0
   -0.2603    3.3702   -6.0213 H   0  0  0  0  0  0  0  0  0  0  0  0
    2.0450    4.5238   -6.7000 H   0  0  0  0  0  0  0  0  0  0  0  0
    2.6563    2.9288   -6.1445 H   0  0  0  0  0  0  0  0  0  0  0  0
    1.5055    3.0199   -7.5207 H   0  0  0  0  0  0  0  0  0  0  0  0
 22 24  2  0  0  0  0
 24 26  1  0  0  0  0
 23 25  2  0  0  0  0
 25 26  1  0  0  0  0
 21 22  1  0  0  0  0
 22 23  1  0  0  0  0
  1  3  1  0  0  0  0
  1  7  1  0  0  0  0
  1  2  2  0  0  0  0
 35 36  1  0  0  0  0
 36 44  1  0  0  0  0
 36 37  2  0  0  0  0
  8  9  1  0  0  0  0
  9 17  1  0  0  0  0
  9 10  2  0  0  0  0
 18 19  1  0  0  0  0
 19 34  1  0  0  0  0
 19 20  2  0  0  0  0
 35 38  1  0  0  0  0
  8 11  1  0  0  0  0
 44 45  1  0  0  0  0
 18 21  1  0  0  0  0
 34 35  1  0  0  0  0
  7  8  1  0  0  0  0
 17 18  1  0  0  0  0
 24 31  1  0  0  0  0
 25 32  1  0  0  0  0
  3  4  1  0  0  0  0
  3  5  1  0  0  0  0
  3  6  1  0  0  0  0
 38 41  1  0  0  0  0
 38 42  1  0  0  0  0
 38 43  1  0  0  0  0
 11 14  1  0  0  0  0
 11 15  1  0  0  0  0
 11 16  1  0  0  0  0
 45 47  1  0  0  0  0
 45 48  1  0  0  0  0
 45 49  1  0  0  0  0
 21 29  1  0  0  0  0
 21 30  1  0  0  0  0
 35 40  1  0  0  0  0
  8 13  1  0  0  0  0
 18 28  1  0  0  0  0
 26 33  1  0  0  0  0
 44 46  1  0  0  0  0
  7 12  1  0  0  0  0
 34 39  1  0  0  0  0
 17 27  1  0  0  0  0
M  END
$$$$

  -OEChem-05262214473D

 49 49  0     1  0  0  0  0  0999 V2000
   -1.6183    0.5613    3.8201 C   0  0  0  0  0  0  0  0  0  0  0  0
   -0.6710   -0.0534    3.3444 O   0  0  0  0  0  0  0  0  0  0  0  0
   -2.0502    0.2789    5.2208 C   0  0  0  0  0  0  0  0  0  0  0  0
   -2.8099   -0.5175    5.2742 H   0  0  0  0  0  0  0  0  0  0  0  0
   -1.2190   -0.0687    5.8551 H   0  0  0  0  0  0  0  0  0  0  0  0
   -2.4882    1.1338    5.7604 H   0  0  0  0  0  0  0  0  0  0  0  0
   -2.3680    1.5337    3.1790 N   0  0  0  0  0  0  0  0  0  0  0  0
   -2.1212    1.9597    1.8266 C   0  0  2  0  0  0  0  0  0  0  0  0
   -0.7862    1.3744    1.3854 C   0  0  0  0  0  0  0  0  0  0  0  0
    0.0859    1.0216    2.1767 O   0  0  0  0  0  0  0  0  0  0  0  0
   -2.1124    3.4765    1.7171 C   0  0  0  0  0  0  0  0  0  0  0  0
   -3.1331    1.9695    3.6908 H   0  0  0  0  0  0  0  0  0  0  0  0
   -2.9253    1.5413    1.2115 H   0  0  0  0  0  0  0  0  0  0  0  0
   -1.3133    3.9138    2.3268 H   0  0  0  0  0  0  0  0  0  0  0  0
   -1.9529    3.7988    0.6829 H   0  0  0  0  0  0  0  0  0  0  0  0
   -3.0626    3.8977    2.0629 H   0  0  0  0  0  0  0  0  0  0  0  0
   -0.6635    1.3313    0.0020 N   0  0  0  0  0  0  0  0  0  0  0  0
    0.5138    0.8305   -0.6617 C   0  0  2  0  0  0  0  0  0  0  0  0
    0.4387    1.2829   -2.1156 C   0  0  0  0  0  0  0  0  0  0  0  0
    0.6440    0.5271   -3.0630 O   0  0  0  0  0  0  0  0  0  0  0  0
    0.6168   -0.6971   -0.5835 C   0  0  0  0  0  0  0  0  0  0  0  0
    0.7784   -1.1996    0.8304 C   0  0  0  0  0  0  0  0  0  0  0  0
    1.9788   -1.0732    1.4837 N   0  0  0  0  0  0  0  0  0  0  0  0
   -0.1591   -1.8120    1.6283 C   0  0  0  0  0  0  0  0  0  0  0  0
    1.7725   -1.6037    2.6685 C   0  0  0  0  0  0  0  0  0  0  0  0
    0.4925   -2.0653    2.8023 N   0  0  0  0  0  0  0  0  0  0  0  0
   -1.4467    1.6280   -0.5753 H   0  0  0  0  0  0  0  0  0  0  0  0
    1.3727    1.3121   -0.1798 H   0  0  0  0  0  0  0  0  0  0  0  0
    1.4529   -1.0540   -1.2002 H   0  0  0  0  0  0  0  0  0  0  0  0
   -0.2785   -1.1645   -1.0143 H   0  0  0  0  0  0  0  0  0  0  0  0
   -1.1940   -2.0830    1.4764 H   0  0  0  0  0  0  0  0  0  0  0  0
    2.4984   -1.6841    3.4654 H   0  0  0  0  0  0  0  0  0  0  0  0
    0.1000   -2.5115    3.6206 H   0  0  0  0  0  0  0  0  0  0  0  0
    0.0669    2.6155   -2.2265 N   0  0  0  0  0  0  0  0  0  0  0  0
   -0.1008    3.2898   -3.4938 C   0  0  2  0  0  0  0  0  0  0  0  0
    1.1409    3.0252   -4.3352 C   0  0  0  0  0  0  0  0  0  0  0  0
    2.2254    2.7103   -3.8498 O   0  0  0  0  0  0  0  0  0  0  0  0
   -0.3194    4.7824   -3.3018 C   0  0  0  0  0  0  0  0  0  0  0  0
   -0.0955    3.1435   -1.3741 H   0  0  0  0  0  0  0  0  0  0  0  0
   -0.9738    2.8394   -3.9786 H   0  0  0  0  0  0  0  0  0  0  0  0
    0.5451    5.2510   -2.8174 H   0  0  0  0  0  0  0  0  0  0  0  0
   -0.4747    5.2873   -4.2610 H   0  0  0  0  0  0  0  0  0  0  0  0
   -1.1956    4.9701   -2.6718 H   0  0  0  0  0  0  0  0  0  0  0  0
    0.9064    3.2243   -5.6885 N   0  0  0  0  0  0  0  0  0  0  0  0
    1.9309    3.0491   -6.6913 C   0  0  0  0  0  0  0  0  0  0  0  0
   -0.0286    3.4661   -6.0034 H   0  0  0  0  0  0  0  0  0  0  0  0
    2.4293    4.0116   -6.8792 H   0  0  0  0  0  0  0  0  0  0  0  0
    2.6705    2.3167   -6.3357 H   0  0  0  0  0  0  0  0  0  0  0  0
    1.4734    2.6853   -7.6231 H   0  0  0  0  0  0  0  0  0  0  0  0
 22 24  2  0  0  0  0
 24 26  1  0  0  0  0
 23 25  2  0  0  0  0
 25 26  1  0  0  0  0
 21 22  1  0  0  0  0
 22 23  1  0  0  0  0
  1  3  1  0  0  0  0
  1  7  1  0  0  0  0
  1  2  2  0  0  0  0
 35 36  1  0  0  0  0
 36 44  1  0  0  0  0
 36 37  2  0  0  0  0
  8  9  1  0  0  0  0
  9 17  1  0  0  0  0
  9 10  2  0  0  0  0
 18 19  1  0  0  0  0
 19 34  1  0  0  0  0
 19 20  2  0  0  0  0
 35 38  1  0  0  0  0
  8 11  1  0  0  0  0
 44 45  1  0  0  0  0
 18 21  1  0  0  0  0
 34 35  1  0  0  0  0
  7  8  1  0  0  0  0
 17 18  1  0  0  0  0
 24 31  1  0  0  0  0
 25 32  1  0  0  0  0
  3  4  1  0  0  0  0
  3  5  1  0  0  0  0
  3  6  1  0  0  0  0
 38 41  1  0  0  0  0
 38 42  1  0  0  0  0
 38 43  1  0  0  0  0
 11 14  1  0  0  0  0
 11 15  1  0  0  0  0
 11 16  1  0  0  0  0
 45 47  1  0  0  0  0
 45 48  1  0  0  0  0
 45 49  1  0  0  0  0
 21 29  1  0  0  0  0
 21 30  1  0  0  0  0
 35 40  1  0  0  0  0
  8 13  1  0  0  0  0
 18 28  1  0  0  0  0
 26 33  1  0  0  0  0
 44 46  1  0  0  0  0
  7 12  1  0  0  0  0
 34 39  1  0  0  0  0
 17 27  1  0  0  0  0
M  END
$$$$

  -OEChem-05262214473D

 49 49  0     1  0  0  0  0  0999 V2000
   -1.6183    0.5613    3.8201 C   0  0  0  0  0  0  0  0  0  0  0  0
   -0.6710   -0.0534    3.3444 O   0  0  0  0  0  0  0  0  0  0  0  0
   -2.0502    0.2789    5.2208 C   0  0  0  0  0  0  0  0  0  0  0  0
   -2.8099   -0.5175    5.2742 H   0  0  0  0  0  0  0  0  0  0  0  0
   -1.2190   -0.0687    5.8551 H   0  0  0  0  0  0  0  0  0  0  0  0
   -2.4882    1.1338    5.7604 H   0  0  0  0  0  0  0  0  0  0  0  0
   -2.3680    1.5337    3.1790 N   0  0  0  0  0  0  0  0  0  0  0  0
   -2.1212    1.9597    1.8266 C   0  0  2  0  0  0  0  0  0  0  0  0
   -0.7862    1.3744    1.3854 C   0  0  0  0  0  0  0  0  0  0  0  0
    0.0859    1.0216    2.1767 O   0  0  0  0  0  0  0  0  0  0  0  0
   -2.1124    3.4765    1.7171 C   0  0  0  0  0  0  0  0  0  0  0  0
   -3.1331    1.9695    3.6908 H   0  0  0  0  0  0  0  0  0  0  0  0
   -2.9253    1.5413    1.2115 H   0  0  0  0  0  0  0  0  0  0  0  0
   -1.3133    3.9138    2.3268 H   0  0  0  0  0  0  0  0  0  0  0  0
   -1.9529    3.7988    0.6829 H   0  0  0  0  0  0  0  0  0  0  0  0
   -3.0626    3.8977    2.0629 H   0  0  0  0  0  0  0  0  0  0  0  0
   -0.6635    1.3313    0.0020 N   0  0  0  0  0  0  0  0  0  0  0  0
    0.5138    0.8305   -0.6617 C   0  0  2  0  0  0  0  0  0  0  0  0
    0.4387    1.2829   -2.1156 C   0  0  0  0  0  0  0  0  0  0  0  0
    0.3766    0.4969   -3.0586 O   0  0  0  0  0  0  0  0  0  0  0  0
    0.6168   -0.6971   -0.5835 C   0  0  0  0  0  0  0  0  0  0  0  0
    0.7784   -1.1996    0.8304 C   0  0  0  0  0  0  0  0  0  0  0  0
    1.9788   -1.0732    1.4837 N   0  0  0  0  0  0  0  0  0  0  0  0
   -0.1591   -1.8120    1.6283 C   0  0  0  0  0  0  0  0  0  0  0  0
    1.7725   -1.6037    2.6685 C   0  0  0  0  0  0  0  0  0  0  0  0
    0.4925   -2.0653    2.8023 N   0  0  0  0  0  0  0  0  0  0  0  0
   -1.4467    1.6280   -0.5753 H   0  0  0  0  0  0  0  0  0  0  0  0
    1.3727    1.3121   -0.1798 H   0  0  0  0  0  0  0  0  0  0  0  0
    1.4529   -1.0540   -1.2002 H   0  0  0  0  0  0  0  0  0  0  0  0
   -0.2785   -1.1645   -1.0143 H   0  0  0  0  0  0  0  0  0  0  0  0
   -1.1940   -2.0830    1.4764 H   0  0  0  0  0  0  0  0  0  0  0  0
    2.4984   -1.6841    3.4654 H   0  0  0  0  0  0  0  0  0  0  0  0
    0.1000   -2.5115    3.6206 H   0  0  0  0  0  0  0  0  0  0  0  0
    0.3991    2.6657   -2.2280 N   0  0  0  0  0  0  0  0  0  0  0  0
    0.3039    3.3566   -3.4939 C   0  0  2  0  0  0  0  0  0  0  0  0
    1.3722    2.7906   -4.4201 C   0  0  0  0  0  0  0  0  0  0  0  0
    2.3804    2.2187   -4.0108 O   0  0  0  0  0  0  0  0  0  0  0  0
    0.4754    4.8575   -3.3195 C   0  0  0  0  0  0  0  0  0  0  0  0
    0.4392    3.2201   -1.3779 H   0  0  0  0  0  0  0  0  0  0  0  0
   -0.6885    3.1346   -3.9014 H   0  0  0  0  0  0  0  0  0  0  0  0
    1.4639    5.0993   -2.9121 H   0  0  0  0  0  0  0  0  0  0  0  0
    0.3746    5.3821   -4.2753 H   0  0  0  0  0  0  0  0  0  0  0  0
   -0.2753    5.2580   -2.6297 H   0  0  0  0  0  0  0  0  0  0  0  0
    1.0886    3.0372   -5.7561 N   0  0  0  0  0  0  0  0  0  0  0  0
    1.9565    2.6110   -6.8290 C   0  0  0  0  0  0  0  0  0  0  0  0
    0.2203    3.5018   -6.0051 H   0  0  0  0  0  0  0  0  0  0  0  0
    2.6603    3.4197   -7.0753 H   0  0  0  0  0  0  0  0  0  0  0  0
    2.5184    1.7195   -6.5136 H   0  0  0  0  0  0  0  0  0  0  0  0
    1.3518    2.3688   -7.7154 H   0  0  0  0  0  0  0  0  0  0  0  0
 22 24  2  0  0  0  0
 24 26  1  0  0  0  0
 23 25  2  0  0  0  0
 25 26  1  0  0  0  0
 21 22  1  0  0  0  0
 22 23  1  0  0  0  0
  1  3  1  0  0  0  0
  1  7  1  0  0  0  0
  1  2  2  0  0  0  0
 35 36  1  0  0  0  0
 36 44  1  0  0  0  0
 36 37  2  0  0  0  0
  8  9  1  0  0  0  0
  9 17  1  0  0  0  0
  9 10  2  0  0  0  0
 18 19  1  0  0  0  0
 19 34  1  0  0  0  0
 19 20  2  0  0  0  0
 35 38  1  0  0  0  0
  8 11  1  0  0  0  0
 44 45  1  0  0  0  0
 18 21  1  0  0  0  0
 34 35  1  0  0  0  0
  7  8  1  0  0  0  0
 17 18  1  0  0  0  0
 24 31  1  0  0  0  0
 25 32  1  0  0  0  0
  3  4  1  0  0  0  0
  3  5  1  0  0  0  0
  3  6  1  0  0  0  0
 38 41  1  0  0  0  0
 38 42  1  0  0  0  0
 38 43  1  0  0  0  0
 11 14  1  0  0  0  0
 11 15  1  0  0  0  0
 11 16  1  0  0  0  0
 45 47  1  0  0  0  0
 45 48  1  0  0  0  0
 45 49  1  0  0  0  0
 21 29  1  0  0  0  0
 21 30  1  0  0  0  0
 35 40  1  0  0  0  0
  8 13  1  0  0  0  0
 18 28  1  0  0  0  0
 26 33  1  0  0  0  0
 44 46  1  0  0  0  0
  7 12  1  0  0  0  0
 34 39  1  0  0  0  0
 17 27  1  0  0  0  0
M  END
$$$$

  -OEChem-05262214473D

 49 49  0     1  0  0  0  0  0999 V2000
   -1.6183    0.5613    3.8201 C   0  0  0  0  0  0  0  0  0  0  0  0
   -0.6710   -0.0534    3.3444 O   0  0  0  0  0  0  0  0  0  0  0  0
   -2.0502    0.2789    5.2208 C   0  0  0  0  0  0  0  0  0  0  0  0
   -2.8099   -0.5175    5.2742 H   0  0  0  0  0  0  0  0  0  0  0  0
   -1.2190   -0.0687    5.8551 H   0  0  0  0  0  0  0  0  0  0  0  0
   -2.4882    1.1338    5.7604 H   0  0  0  0  0  0  0  0  0  0  0  0
   -2.3680    1.5337    3.1790 N   0  0  0  0  0  0  0  0  0  0  0  0
   -2.1212    1.9597    1.8266 C   0  0  2  0  0  0  0  0  0  0  0  0
   -0.7862    1.3744    1.3854 C   0  0  0  0  0  0  0  0  0  0  0  0
    0.0859    1.0216    2.1767 O   0  0  0  0  0  0  0  0  0  0  0  0
   -2.1124    3.4765    1.7171 C   0  0  0  0  0  0  0  0  0  0  0  0
   -3.1331    1.9695    3.6908 H   0  0  0  0  0  0  0  0  0  0  0  0
   -2.9253    1.5413    1.2115 H   0  0  0  0  0  0  0  0  0  0  0  0
   -1.3133    3.9138    2.3268 H   0  0  0  0  0  0  0  0  0  0  0  0
   -1.9529    3.7988    0.6829 H   0  0  0  0  0  0  0  0  0  0  0  0
   -3.0626    3.8977    2.0629 H   0  0  0  0  0  0  0  0  0  0  0  0
   -0.6635    1.3313    0.0020 N   0  0  0  0  0  0  0  0  0  0  0  0
    0.5138    0.8305   -0.6617 C   0  0  2  0  0  0  0  0  0  0  0  0
    0.4387    1.2829   -2.1156 C   0  0  0  0  0  0  0  0  0  0  0  0
    0.1112    0.5338   -3.0334 O   0  0  0  0  0  0  0  0  0  0  0  0
    0.6168   -0.6971   -0.5835 C   0  0  0  0  0  0  0  0  0  0  0  0
    0.7784   -1.1996    0.8304 C   0  0  0  0  0  0  0  0  0  0  0  0
    1.9788   -1.0732    1.4837 N   0  0  0  0  0  0  0  0  0  0  0  0
   -0.1591   -1.8120    1.6283 C   0  0  0  0  0  0  0  0  0  0  0  0
    1.7725   -1.6037    2.6685 C   0  0  0  0  0  0  0  0  0  0  0  0
    0.4925   -2.0653    2.8023 N   0  0  0  0  0  0  0  0  0  0  0  0
   -1.4467    1.6280   -0.5753 H   0  0  0  0  0  0  0  0  0  0  0  0
    1.3727    1.3121   -0.1798 H   0  0  0  0  0  0  0  0  0  0  0  0
    1.4529   -1.0540   -1.2002 H   0  0  0  0  0  0  0  0  0  0  0  0
   -0.2785   -1.1645   -1.0143 H   0  0  0  0  0  0  0  0  0  0  0  0
   -1.1940   -2.0830    1.4764 H   0  0  0  0  0  0  0  0  0  0  0  0
    2.4984   -1.6841    3.4654 H   0  0  0  0  0  0  0  0  0  0  0  0
    0.1000   -2.5115    3.6206 H   0  0  0  0  0  0  0  0  0  0  0  0
    0.7323    2.6322   -2.2557 N   0  0  0  0  0  0  0  0  0  0  0  0
    0.7112    3.3212   -3.5260 C   0  0  2  0  0  0  0  0  0  0  0  0
    1.5311    2.5057   -4.5170 C   0  0  0  0  0  0  0  0  0  0  0  0
    2.3963    1.7035   -4.1719 O   0  0  0  0  0  0  0  0  0  0  0  0
    1.2603    4.7336   -3.3985 C   0  0  0  0  0  0  0  0  0  0  0  0
    0.9742    3.1621   -1.4235 H   0  0  0  0  0  0  0  0  0  0  0  0
   -0.3340    3.3504   -3.8526 H   0  0  0  0  0  0  0  0  0  0  0  0
    2.3067    4.7246   -3.0722 H   0  0  0  0  0  0  0  0  0  0  0  0
    1.2172    5.2639   -4.3556 H   0  0  0  0  0  0  0  0  0  0  0  0
    0.6878    5.3095   -2.6634 H   0  0  0  0  0  0  0  0  0  0  0  0
    1.2132    2.8107   -5.8331 N   0  0  0  0  0  0  0  0  0  0  0  0
    1.8625    2.1798   -6.9583 C   0  0  0  0  0  0  0  0  0  0  0  0
    0.4693    3.4749   -6.0264 H   0  0  0  0  0  0  0  0  0  0  0  0
    2.7223    2.7885   -7.2749 H   0  0  0  0  0  0  0  0  0  0  0  0
    2.2104    1.1779   -6.6663 H   0  0  0  0  0  0  0  0  0  0  0  0
    1.1492    2.0918   -7.7911 H   0  0  0  0  0  0  0  0  0  0  0  0
 22 24  2  0  0  0  0
 24 26  1  0  0  0  0
 23 25  2  0  0  0  0
 25 26  1  0  0  0  0
 21 22  1  0  0  0  0
 22 23  1  0  0  0  0
  1  3  1  0  0  0  0
  1  7  1  0  0  0  0
  1  2  2  0  0  0  0
 35 36  1  0  0  0  0
 36 44  1  0  0  0  0
 36 37  2  0  0  0  0
  8  9  1  0  0  0  0
  9 17  1  0  0  0  0
  9 10  2  0  0  0  0
 18 19  1  0  0  0  0
 19 34  1  0  0  0  0
 19 20  2  0  0  0  0
 35 38  1  0  0  0  0
  8 11  1  0  0  0  0
 44 45  1  0  0  0  0
 18 21  1  0  0  0  0
 34 35  1  0  0  0  0
  7  8  1  0  0  0  0
 17 18  1  0  0  0  0
 24 31  1  0  0  0  0
 25 32  1  0  0  0  0
  3  4  1  0  0  0  0
  3  5  1  0  0  0  0
  3  6  1  0  0  0  0
 38 41  1  0  0  0  0
 38 42  1  0  0  0  0
 38 43  1  0  0  0  0
 11 14  1  0  0  0  0
 11 15  1  0  0  0  0
 11 16  1  0  0  0  0
 45 47  1  0  0  0  0
 45 48  1  0  0  0  0
 45 49  1  0  0  0  0
 21 29  1  0  0  0  0
 21 30  1  0  0  0  0
 35 40  1  0  0  0  0
  8 13  1  0  0  0  0
 18 28  1  0  0  0  0
 26 33  1  0  0  0  0
 44 46  1  0  0  0  0
  7 12  1  0  0  0  0
 34 39  1  0  0  0  0
 17 27  1  0  0  0  0
M  END
$$$$

  -OEChem-05262214473D

 49 49  0     1  0  0  0  0  0999 V2000
   -1.6183    0.5613    3.8201 C   0  0  0  0  0  0  0  0  0  0  0  0
   -0.6710   -0.0534    3.3444 O   0  0  0  0  0  0  0  0  0  0  0  0
   -2.0502    0.2789    5.2208 C   0  0  0  0  0  0  0  0  0  0  0  0
   -2.8099   -0.5175    5.2742 H   0  0  0  0  0  0  0  0  0  0  0  0
   -1.2190   -0.0687    5.8551 H   0  0  0  0  0  0  0  0  0  0  0  0
   -2.4882    1.1338    5.7604 H   0  0  0  0  0  0  0  0  0  0  0  0
   -2.3680    1.5337    3.1790 N   0  0  0  0  0  0  0  0  0  0  0  0
   -2.1212    1.9597    1.8266 C   0  0  2  0  0  0  0  0  0  0  0  0
   -0.7862    1.3744    1.3854 C   0  0  0  0  0  0  0  0  0  0  0  0
    0.0859    1.0216    2.1767 O   0  0  0  0  0  0  0  0  0  0  0  0
   -2.1124    3.4765    1.7171 C   0  0  0  0  0  0  0  0  0  0  0  0
   -3.1331    1.9695    3.6908 H   0  0  0  0  0  0  0  0  0  0  0  0
   -2.9253    1.5413    1.2115 H   0  0  0  0  0  0  0  0  0  0  0  0
   -1.3133    3.9138    2.3268 H   0  0  0  0  0  0  0  0  0  0  0  0
   -1.9529    3.7988    0.6829 H   0  0  0  0  0  0  0  0  0  0  0  0
   -3.0626    3.8977    2.0629 H   0  0  0  0  0  0  0  0  0  0  0  0
   -0.6635    1.3313    0.0020 N   0  0  0  0  0  0  0  0  0  0  0  0
    0.5138    0.8305   -0.6617 C   0  0  2  0  0  0  0  0  0  0  0  0
    0.4387    1.2829   -2.1156 C   0  0  0  0  0  0  0  0  0  0  0  0
   -0.1342    0.6352   -2.9892 O   0  0  0  0  0  0  0  0  0  0  0  0
    0.6168   -0.6971   -0.5835 C   0  0  0  0  0  0  0  0  0  0  0  0
    0.7784   -1.1996    0.8304 C   0  0  0  0  0  0  0  0  0  0  0  0
    1.9788   -1.0732    1.4837 N   0  0  0  0  0  0  0  0  0  0  0  0
   -0.1591   -1.8120    1.6283 C   0  0  0  0  0  0  0  0  0  0  0  0
    1.7725   -1.6037    2.6685 C   0  0  0  0  0  0  0  0  0  0  0  0
    0.4925   -2.0653    2.8023 N   0  0  0  0  0  0  0  0  0  0  0  0
   -1.4467    1.6280   -0.5753 H   0  0  0  0  0  0  0  0  0  0  0  0
    1.3727    1.3121   -0.1798 H   0  0  0  0  0  0  0  0  0  0  0  0
    1.4529   -1.0540   -1.2002 H   0  0  0  0  0  0  0  0  0  0  0  0
   -0.2785   -1.1645   -1.0143 H   0  0  0  0  0  0  0  0  0  0  0  0
   -1.1940   -2.0830    1.4764 H   0  0  0  0  0  0  0  0  0  0  0  0
    2.4984   -1.6841    3.4654 H   0  0  0  0  0  0  0  0  0  0  0  0
    0.1000   -2.5115    3.6206 H   0  0  0  0  0  0  0  0  0  0  0  0
    1.0437    2.5172   -2.3075 N   0  0  0  0  0  0  0  0  0  0  0  0
    1.0934    3.1861   -3.5877 C   0  0  2  0  0  0  0  0  0  0  0  0
    1.6069    2.1901   -4.6191 C   0  0  0  0  0  0  0  0  0  0  0  0
    2.2721    1.1999   -4.3222 O   0  0  0  0  0  0  0  0  0  0  0  0
    1.9818    4.4192   -3.5336 C   0  0  0  0  0  0  0  0  0  0  0  0
    1.4732    2.9734   -1.5080 H   0  0  0  0  0  0  0  0  0  0  0  0
    0.0653    3.4719   -3.8354 H   0  0  0  0  0  0  0  0  0  0  0  0
    3.0160    4.1527   -3.2867 H   0  0  0  0  0  0  0  0  0  0  0  0
    1.9958    4.9408   -4.4963 H   0  0  0  0  0  0  0  0  0  0  0  0
    1.6283    5.1211   -2.7706 H   0  0  0  0  0  0  0  0  0  0  0  0
    1.2717    2.5602   -5.9140 N   0  0  0  0  0  0  0  0  0  0  0  0
    1.6553    1.7847   -7.0706 C   0  0  0  0  0  0  0  0  0  0  0  0
    0.7016    3.3871   -6.0657 H   0  0  0  0  0  0  0  0  0  0  0  0
    2.6110    2.1610   -7.4644 H   0  0  0  0  0  0  0  0  0  0  0  0
    1.7676    0.7289   -6.7831 H   0  0  0  0  0  0  0  0  0  0  0  0
    0.8793    1.8734   -7.8451 H   0  0  0  0  0  0  0  0  0  0  0  0
 22 24  2  0  0  0  0
 24 26  1  0  0  0  0
 23 25  2  0  0  0  0
 25 26  1  0  0  0  0
 21 22  1  0  0  0  0
 22 23  1  0  0  0  0
  1  3  1  0  0  0  0
  1  7  1  0  0  0  0
  1  2  2  0  0  0  0
 35 36  1  0  0  0  0
 36 44  1  0  0  0  0
 36 37  2  0  0  0  0
  8  9  1  0  0  0  0
  9 17  1  0  0  0  0
  9 10  2  0  0  0  0
 18 19  1  0  0  0  0
 19 34  1  0  0  0  0
 19 20  2  0  0  0  0
 35 38  1  0  0  0  0
  8 11  1  0  0  0  0
 44 45  1  0  0  0  0
 18 21  1  0  0  0  0
 34 35  1  0  0  0  0
  7  8  1  0  0  0  0
 17 18  1  0  0  0  0
 24 31  1  0  0  0  0
 25 32  1  0  0  0  0
  3  4  1  0  0  0  0
  3  5  1  0  0  0  0
  3  6  1  0  0  0  0
 38 41  1  0  0  0  0
 38 42  1  0  0  0  0
 38 43  1  0  0  0  0
 11 14  1  0  0  0  0
 11 15  1  0  0  0  0
 11 16  1  0  0  0  0
 45 47  1  0  0  0  0
 45 48  1  0  0  0  0
 45 49  1  0  0  0  0
 21 29  1  0  0  0  0
 21 30  1  0  0  0  0
 35 40  1  0  0  0  0
  8 13  1  0  0  0  0
 18 28  1  0  0  0  0
 26 33  1  0  0  0  0
 44 46  1  0  0  0  0
  7 12  1  0  0  0  0
 34 39  1  0  0  0  0
 17 27  1  0  0  0  0
M  END
$$$$

  -OEChem-05262214473D

 49 49  0     1  0  0  0  0  0999 V2000
   -1.6183    0.5613    3.8201 C   0  0  0  0  0  0  0  0  0  0  0  0
   -0.6710   -0.0534    3.3444 O   0  0  0  0  0  0  0  0  0  0  0  0
   -2.0502    0.2789    5.2208 C   0  0  0  0  0  0  0  0  0  0  0  0
   -2.8099   -0.5175    5.2742 H   0  0  0  0  0  0  0  0  0  0  0  0
   -1.2190   -0.0687    5.8551 H   0  0  0  0  0  0  0  0  0  0  0  0
   -2.4882    1.1338    5.7604 H   0  0  0  0  0  0  0  0  0  0  0  0
   -2.3680    1.5337    3.1790 N   0  0  0  0  0  0  0  0  0  0  0  0
   -2.1212    1.9597    1.8266 C   0  0  2  0  0  0  0  0  0  0  0  0
   -0.7862    1.3744    1.3854 C   0  0  0  0  0  0  0  0  0  0  0  0
    0.0859    1.0216    2.1767 O   0  0  0  0  0  0  0  0  0  0  0  0
   -2.1124    3.4765    1.7171 C   0  0  0  0  0  0  0  0  0  0  0  0
   -3.1331    1.9695    3.6908 H   0  0  0  0  0  0  0  0  0  0  0  0
   -2.9253    1.5413    1.2115 H   0  0  0  0  0  0  0  0  0  0  0  0
   -1.3133    3.9138    2.3268 H   0  0  0  0  0  0  0  0  0  0  0  0
   -1.9529    3.7988    0.6829 H   0  0  0  0  0  0  0  0  0  0  0  0
   -3.0626    3.8977    2.0629 H   0  0  0  0  0  0  0  0  0  0  0  0
   -0.6635    1.3313    0.0020 N   0  0  0  0  0  0  0  0  0  0  0  0
    0.5138    0.8305   -0.6617 C   0  0  2  0  0  0  0  0  0  0  0  0
    0.4387    1.2829   -2.1156 C   0  0  0  0  0  0  0  0  0  0  0  0
   -0.3428    0.7943   -2.9289 O   0  0  0  0  0  0  0  0  0  0  0  0
    0.6168   -0.6971   -0.5835 C   0  0  0  0  0  0  0  0  0  0  0  0
    0.7784   -1.1996    0.8304 C   0  0  0  0  0  0  0  0  0  0  0  0
    1.9788   -1.0732    1.4837 N   0  0  0  0  0  0  0  0  0  0  0  0
   -0.1591   -1.8120    1.6283 C   0  0  0  0  0  0  0  0  0  0  0  0
    1.7725   -1.6037    2.6685 C   0  0  0  0  0  0  0  0  0  0  0  0
    0.4925   -2.0653    2.8023 N   0  0  0  0  0  0  0  0  0  0  0  0
   -1.4467    1.6280   -0.5753 H   0  0  0  0  0  0  0  0  0  0  0  0
    1.3727    1.3121   -0.1798 H   0  0  0  0  0  0  0  0  0  0  0  0
    1.4529   -1.0540   -1.2002 H   0  0  0  0  0  0  0  0  0  0  0  0
   -0.2785   -1.1645   -1.0143 H   0  0  0  0  0  0  0  0  0  0  0  0
   -1.1940   -2.0830    1.4764 H   0  0  0  0  0  0  0  0  0  0  0  0
    2.4984   -1.6841    3.4654 H   0  0  0  0  0  0  0  0  0  0  0  0
    0.1000   -2.5115    3.6206 H   0  0  0  0  0  0  0  0  0  0  0  0
    1.3122    2.3286   -2.3801 N   0  0  0  0  0  0  0  0  0  0  0  0
    1.4246    2.9605   -3.6750 C   0  0  2  0  0  0  0  0  0  0  0  0
    1.5944    1.8652   -4.7196 C   0  0  0  0  0  0  0  0  0  0  0  0
    2.0163    0.7422   -4.4514 O   0  0  0  0  0  0  0  0  0  0  0  0
    2.5908    3.9357   -3.7155 C   0  0  0  0  0  0  0  0  0  0  0  0
    1.9021    2.6669   -1.6255 H   0  0  0  0  0  0  0  0  0  0  0  0
    0.4824    3.4909   -3.8510 H   0  0  0  0  0  0  0  0  0  0  0  0
    3.5435    3.4225   -3.5412 H   0  0  0  0  0  0  0  0  0  0  0  0
    2.6572    4.4346   -4.6880 H   0  0  0  0  0  0  0  0  0  0  0  0
    2.4820    4.7056   -2.9440 H   0  0  0  0  0  0  0  0  0  0  0  0
    1.2602    2.3027   -5.9936 N   0  0  0  0  0  0  0  0  0  0  0  0
    1.3491    1.4529   -7.1580 C   0  0  0  0  0  0  0  0  0  0  0  0
    0.9013    3.2444   -6.1204 H   0  0  0  0  0  0  0  0  0  0  0  0
    2.3341    1.5799   -7.6309 H   0  0  0  0  0  0  0  0  0  0  0  0
    1.2200    0.4030   -6.8563 H   0  0  0  0  0  0  0  0  0  0  0  0
    0.5606    1.7283   -7.8738 H   0  0  0  0  0  0  0  0  0  0  0  0
 22 24  2  0  0  0  0
 24 26  1  0  0  0  0
 23 25  2  0  0  0  0
 25 26  1  0  0  0  0
 21 22  1  0  0  0  0
 22 23  1  0  0  0  0
  1  3  1  0  0  0  0
  1  7  1  0  0  0  0
  1  2  2  0  0  0  0
 35 36  1  0  0  0  0
 36 44  1  0  0  0  0
 36 37  2  0  0  0  0
  8  9  1  0  0  0  0
  9 17  1  0  0  0  0
  9 10  2  0  0  0  0
 18 19  1  0  0  0  0
 19 34  1  0  0  0  0
 19 20  2  0  0  0  0
 35 38  1  0  0  0  0
  8 11  1  0  0  0  0
 44 45  1  0  0  0  0
 18 21  1  0  0  0  0
 34 35  1  0  0  0  0
  7  8  1  0  0  0  0
 17 18  1  0  0  0  0
 24 31  1  0  0  0  0
 25 32  1  0  0  0  0
  3  4  1  0  0  0  0
  3  5  1  0  0  0  0
  3  6  1  0  0  0  0
 38 41  1  0  0  0  0
 38 42  1  0  0  0  0
 38 43  1  0  0  0  0
 11 14  1  0  0  0  0
 11 15  1  0  0  0  0
 11 16  1  0  0  0  0
 45 47  1  0  0  0  0
 45 48  1  0  0  0  0
 45 49  1  0  0  0  0
 21 29  1  0  0  0  0
 21 30  1  0  0  0  0
 35 40  1  0  0  0  0
  8 13  1  0  0  0  0
 18 28  1  0  0  0  0
 26 33  1  0  0  0  0
 44 46  1  0  0  0  0
  7 12  1  0  0  0  0
 34 39  1  0  0  0  0
 17 27  1  0  0  0  0
M  END
$$$$

  -OEChem-05262214473D

 49 49  0     1  0  0  0  0  0999 V2000
   -1.6183    0.5613    3.8201 C   0  0  0  0  0  0  0  0  0  0  0  0
   -0.6710   -0.0534    3.3444 O   0  0  0  0  0  0  0  0  0  0  0  0
   -2.0502    0.2789    5.2208 C   0  0  0  0  0  0  0  0  0  0  0  0
   -2.8099   -0.5175    5.2742 H   0  0  0  0  0  0  0  0  0  0  0  0
   -1.2190   -0.0687    5.8551 H   0  0  0  0  0  0  0  0  0  0  0  0
   -2.4882    1.1338    5.7604 H   0  0  0  0  0  0  0  0  0  0  0  0
   -2.3680    1.5337    3.1790 N   0  0  0  0  0  0  0  0  0  0  0  0
   -2.1212    1.9597    1.8266 C   0  0  2  0  0  0  0  0  0  0  0  0
   -0.7862    1.3744    1.3854 C   0  0  0  0  0  0  0  0  0  0  0  0
    0.0859    1.0216    2.1767 O   0  0  0  0  0  0  0  0  0  0  0  0
   -2.1124    3.4765    1.7171 C   0  0  0  0  0  0  0  0  0  0  0  0
   -3.1331    1.9695    3.6908 H   0  0  0  0  0  0  0  0  0  0  0  0
   -2.9253    1.5413    1.2115 H   0  0  0  0  0  0  0  0  0  0  0  0
   -1.3133    3.9138    2.3268 H   0  0  0  0  0  0  0  0  0  0  0  0
   -1.9529    3.7988    0.6829 H   0  0  0  0  0  0  0  0  0  0  0  0
   -3.0626    3.8977    2.0629 H   0  0  0  0  0  0  0  0  0  0  0  0
   -0.6635    1.3313    0.0020 N   0  0  0  0  0  0  0  0  0  0  0  0
    0.5138    0.8305   -0.6617 C   0  0  2  0  0  0  0  0  0  0  0  0
    0.4387    1.2829   -2.1156 C   0  0  0  0  0  0  0  0  0  0  0  0
   -0.5003    1.0003   -2.8567 O   0  0  0  0  0  0  0  0  0  0  0  0
    0.6168   -0.6971   -0.5835 C   0  0  0  0  0  0  0  0  0  0  0  0
    0.7784   -1.1996    0.8304 C   0  0  0  0  0  0  0  0  0  0  0  0
    1.9788   -1.0732    1.4837 N   0  0  0  0  0  0  0  0  0  0  0  0
   -0.1591   -1.8120    1.6283 C   0  0  0  0  0  0  0  0  0  0  0  0
    1.7725   -1.6037    2.6685 C   0  0  0  0  0  0  0  0  0  0  0  0
    0.4925   -2.0653    2.8023 N   0  0  0  0  0  0  0  0  0  0  0  0
   -1.4467    1.6280   -0.5753 H   0  0  0  0  0  0  0  0  0  0  0  0
    1.3727    1.3121   -0.1798 H   0  0  0  0  0  0  0  0  0  0  0  0
    1.4529   -1.0540   -1.2002 H   0  0  0  0  0  0  0  0  0  0  0  0
   -0.2785   -1.1645   -1.0143 H   0  0  0  0  0  0  0  0  0  0  0  0
   -1.1940   -2.0830    1.4764 H   0  0  0  0  0  0  0  0  0  0  0  0
    2.4984   -1.6841    3.4654 H   0  0  0  0  0  0  0  0  0  0  0  0
    0.1000   -2.5115    3.6206 H   0  0  0  0  0  0  0  0  0  0  0  0
    1.5193    2.0793   -2.4683 N   0  0  0  0  0  0  0  0  0  0  0  0
    1.6821    2.6597   -3.7819 C   0  0  2  0  0  0  0  0  0  0  0  0
    1.4944    1.5532   -4.8115 C   0  0  0  0  0  0  0  0  0  0  0  0
    1.6464    0.3616   -4.5508 O   0  0  0  0  0  0  0  0  0  0  0  0
    3.0457    3.3160   -3.9318 C   0  0  0  0  0  0  0  0  0  0  0  0
    2.2317    2.2635   -1.7681 H   0  0  0  0  0  0  0  0  0  0  0  0
    0.8887    3.4061   -3.8984 H   0  0  0  0  0  0  0  0  0  0  0  0
    3.8533    2.5837   -3.8182 H   0  0  0  0  0  0  0  0  0  0  0  0
    3.1565    3.7800   -4.9174 H   0  0  0  0  0  0  0  0  0  0  0  0
    3.1907    4.0913   -3.1717 H   0  0  0  0  0  0  0  0  0  0  0  0
    1.1795    2.0558   -6.0662 N   0  0  0  0  0  0  0  0  0  0  0  0
    0.9647    1.2068   -7.2147 C   0  0  0  0  0  0  0  0  0  0  0  0
    1.0548    3.0567   -6.1867 H   0  0  0  0  0  0  0  0  0  0  0  0
    1.9104    1.0848   -7.7631 H   0  0  0  0  0  0  0  0  0  0  0  0
    0.6049    0.2224   -6.8807 H   0  0  0  0  0  0  0  0  0  0  0  0
    0.2147    1.6665   -7.8752 H   0  0  0  0  0  0  0  0  0  0  0  0
 22 24  2  0  0  0  0
 24 26  1  0  0  0  0
 23 25  2  0  0  0  0
 25 26  1  0  0  0  0
 21 22  1  0  0  0  0
 22 23  1  0  0  0  0
  1  3  1  0  0  0  0
  1  7  1  0  0  0  0
  1  2  2  0  0  0  0
 35 36  1  0  0  0  0
 36 44  1  0  0  0  0
 36 37  2  0  0  0  0
  8  9  1  0  0  0  0
  9 17  1  0  0  0  0
  9 10  2  0  0  0  0
 18 19  1  0  0  0  0
 19 34  1  0  0  0  0
 19 20  2  0  0  0  0
 35 38  1  0  0  0  0
  8 11  1  0  0  0  0
 44 45  1  0  0  0  0
 18 21  1  0  0  0  0
 34 35  1  0  0  0  0
  7  8  1  0  0  0  0
 17 18  1  0  0  0  0
 24 31  1  0  0  0  0
 25 32  1  0  0  0  0
  3  4  1  0  0  0  0
  3  5  1  0  0  0  0
  3  6  1  0  0  0  0
 38 41  1  0  0  0  0
 38 42  1  0  0  0  0
 38 43  1  0  0  0  0
 11 14  1  0  0  0  0
 11 15  1  0  0  0  0
 11 16  1  0  0  0  0
 45 47  1  0  0  0  0
 45 48  1  0  0  0  0
 45 49  1  0  0  0  0
 21 29  1  0  0  0  0
 21 30  1  0  0  0  0
 35 40  1  0  0  0  0
  8 13  1  0  0  0  0
 18 28  1  0  0  0  0
 26 33  1  0  0  0  0
 44 46  1  0  0  0  0
  7 12  1  0  0  0  0
 34 39  1  0  0  0  0
 17 27  1  0  0  0  0
M  END
$$$$

  -OEChem-05262214473D

 49 49  0     1  0  0  0  0  0999 V2000
   -1.6183    0.5613    3.8201 C   0  0  0  0  0  0  0  0  0  0  0  0
   -0.6710   -0.0534    3.3444 O   0  0  0  0  0  0  0  0  0  0  0  0
   -2.0502    0.2789    5.2208 C   0  0  0  0  0  0  0  0  0  0  0  0
   -2.8099   -0.5175    5.2742 H   0  0  0  0  0  0  0  0  0  0  0  0
   -1.2190   -0.0687    5.8551 H   0  0  0  0  0  0  0  0  0  0  0  0
   -2.4882    1.1338    5.7604 H   0  0  0  0  0  0  0  0  0  0  0  0
   -2.3680    1.5337    3.1790 N   0  0  0  0  0  0  0  0  0  0  0  0
   -2.1212    1.9597    1.8266 C   0  0  2  0  0  0  0  0  0  0  0  0
   -0.7862    1.3744    1.3854 C   0  0  0  0  0  0  0  0  0  0  0  0
    0.0859    1.0216    2.1767 O   0  0  0  0  0  0  0  0  0  0  0  0
   -2.1124    3.4765    1.7171 C   0  0  0  0  0  0  0  0  0  0  0  0
   -3.1331    1.9695    3.6908 H   0  0  0  0  0  0  0  0  0  0  0  0
   -2.9253    1.5413    1.2115 H   0  0  0  0  0  0  0  0  0  0  0  0
   -1.3133    3.9138    2.3268 H   0  0  0  0  0  0  0  0  0  0  0  0
   -1.9529    3.7988    0.6829 H   0  0  0  0  0  0  0  0  0  0  0  0
   -3.0626    3.8977    2.0629 H   0  0  0  0  0  0  0  0  0  0  0  0
   -0.6635    1.3313    0.0020 N   0  0  0  0  0  0  0  0  0  0  0  0
    0.5138    0.8305   -0.6617 C   0  0  2  0  0  0  0  0  0  0  0  0
    0.4387    1.2829   -2.1156 C   0  0  0  0  0  0  0  0  0  0  0  0
   -0.5961    1.2390   -2.7774 O   0  0  0  0  0  0  0  0  0  0  0  0
    0.6168   -0.6971   -0.5835 C   0  0  0  0  0  0  0  0  0  0  0  0
    0.7784   -1.1996    0.8304 C   0  0  0  0  0  0  0  0  0  0  0  0
    1.9788   -1.0732    1.4837 N   0  0  0  0  0  0  0  0  0  0  0  0
   -0.1591   -1.8120    1.6283 C   0  0  0  0  0  0  0  0  0  0  0  0
    1.7725   -1.6037    2.6685 C   0  0  0  0  0  0  0  0  0  0  0  0
    0.4925   -2.0653    2.8023 N   0  0  0  0  0  0  0  0  0  0  0  0
   -1.4467    1.6280   -0.5753 H   0  0  0  0  0  0  0  0  0  0  0  0
    1.3727    1.3121   -0.1798 H   0  0  0  0  0  0  0  0  0  0  0  0
    1.4529   -1.0540   -1.2002 H   0  0  0  0  0  0  0  0  0  0  0  0
   -0.2785   -1.1645   -1.0143 H   0  0  0  0  0  0  0  0  0  0  0  0
   -1.1940   -2.0830    1.4764 H   0  0  0  0  0  0  0  0  0  0  0  0
    2.4984   -1.6841    3.4654 H   0  0  0  0  0  0  0  0  0  0  0  0
    0.1000   -2.5115    3.6206 H   0  0  0  0  0  0  0  0  0  0  0  0
    1.6511    1.7862   -2.5664 N   0  0  0  0  0  0  0  0  0  0  0  0
    1.8483    2.3042   -3.9011 C   0  0  2  0  0  0  0  0  0  0  0  0
    1.3137    1.2754   -4.8886 C   0  0  0  0  0  0  0  0  0  0  0  0
    1.1874    0.0840   -4.6135 O   0  0  0  0  0  0  0  0  0  0  0  0
    3.3155    2.6025   -4.1678 C   0  0  0  0  0  0  0  0  0  0  0  0
    2.4395    1.7906   -1.9259 H   0  0  0  0  0  0  0  0  0  0  0  0
    1.2567    3.2233   -3.9742 H   0  0  0  0  0  0  0  0  0  0  0  0
    3.9241    1.6935   -4.0989 H   0  0  0  0  0  0  0  0  0  0  0  0
    3.4595    3.0216   -5.1691 H   0  0  0  0  0  0  0  0  0  0  0  0
    3.7061    3.3201   -3.4383 H   0  0  0  0  0  0  0  0  0  0  0  0
    1.0349    1.8364   -6.1271 N   0  0  0  0  0  0  0  0  0  0  0  0
    0.5282    1.0633   -7.2369 C   0  0  0  0  0  0  0  0  0  0  0  0
    1.1516    2.8366   -6.2602 H   0  0  0  0  0  0  0  0  0  0  0  0
    1.3687    0.7095   -7.8520 H   0  0  0  0  0  0  0  0  0  0  0  0
   -0.0355    0.1995   -6.8548 H   0  0  0  0  0  0  0  0  0  0  0  0
   -0.1348    1.6922   -7.8492 H   0  0  0  0  0  0  0  0  0  0  0  0
 22 24  2  0  0  0  0
 24 26  1  0  0  0  0
 23 25  2  0  0  0  0
 25 26  1  0  0  0  0
 21 22  1  0  0  0  0
 22 23  1  0  0  0  0
  1  3  1  0  0  0  0
  1  7  1  0  0  0  0
  1  2  2  0  0  0  0
 35 36  1  0  0  0  0
 36 44  1  0  0  0  0
 36 37  2  0  0  0  0
  8  9  1  0  0  0  0
  9 17  1  0  0  0  0
  9 10  2  0  0  0  0
 18 19  1  0  0  0  0
 19 34  1  0  0  0  0
 19 20  2  0  0  0  0
 35 38  1  0  0  0  0
  8 11  1  0  0  0  0
 44 45  1  0  0  0  0
 18 21  1  0  0  0  0
 34 35  1  0  0  0  0
  7  8  1  0  0  0  0
 17 18  1  0  0  0  0
 24 31  1  0  0  0  0
 25 32  1  0  0  0  0
  3  4  1  0  0  0  0
  3  5  1  0  0  0  0
  3  6  1  0  0  0  0
 38 41  1  0  0  0  0
 38 42  1  0  0  0  0
 38 43  1  0  0  0  0
 11 14  1  0  0  0  0
 11 15  1  0  0  0  0
 11 16  1  0  0  0  0
 45 47  1  0  0  0  0
 45 48  1  0  0  0  0
 45 49  1  0  0  0  0
 21 29  1  0  0  0  0
 21 30  1  0  0  0  0
 35 40  1  0  0  0  0
  8 13  1  0  0  0  0
 18 28  1  0  0  0  0
 26 33  1  0  0  0  0
 44 46  1  0  0  0  0
  7 12  1  0  0  0  0
 34 39  1  0  0  0  0
 17 27  1  0  0  0  0
M  END
$$$$

  -OEChem-05262214473D

 49 49  0     1  0  0  0  0  0999 V2000
   -1.6183    0.5613    3.8201 C   0  0  0  0  0  0  0  0  0  0  0  0
   -0.6710   -0.0534    3.3444 O   0  0  0  0  0  0  0  0  0  0  0  0
   -2.0502    0.2789    5.2208 C   0  0  0  0  0  0  0  0  0  0  0  0
   -2.8099   -0.5175    5.2742 H   0  0  0  0  0  0  0  0  0  0  0  0
   -1.2190   -0.0687    5.8551 H   0  0  0  0  0  0  0  0  0  0  0  0
   -2.4882    1.1338    5.7604 H   0  0  0  0  0  0  0  0  0  0  0  0
   -2.3680    1.5337    3.1790 N   0  0  0  0  0  0  0  0  0  0  0  0
   -2.1212    1.9597    1.8266 C   0  0  2  0  0  0  0  0  0  0  0  0
   -0.7862    1.3744    1.3854 C   0  0  0  0  0  0  0  0  0  0  0  0
    0.0859    1.0216    2.1767 O   0  0  0  0  0  0  0  0  0  0  0  0
   -2.1124    3.4765    1.7171 C   0  0  0  0  0  0  0  0  0  0  0  0
   -3.1331    1.9695    3.6908 H   0  0  0  0  0  0  0  0  0  0  0  0
   -2.9253    1.5413    1.2115 H   0  0  0  0  0  0  0  0  0  0  0  0
   -1.3133    3.9138    2.3268 H   0  0  0  0  0  0  0  0  0  0  0  0
   -1.9529    3.7988    0.6829 H   0  0  0  0  0  0  0  0  0  0  0  0
   -3.0626    3.8977    2.0629 H   0  0  0  0  0  0  0  0  0  0  0  0
   -0.6635    1.3313    0.0020 N   0  0  0  0  0  0  0  0  0  0  0  0
    0.5138    0.8305   -0.6617 C   0  0  2  0  0  0  0  0  0  0  0  0
    0.4387    1.2829   -2.1156 C   0  0  0  0  0  0  0  0  0  0  0  0
   -0.6237    1.4943   -2.6966 O   0  0  0  0  0  0  0  0  0  0  0  0
    0.6168   -0.6971   -0.5835 C   0  0  0  0  0  0  0  0  0  0  0  0
    0.7784   -1.1996    0.8304 C   0  0  0  0  0  0  0  0  0  0  0  0
    1.9788   -1.0732    1.4837 N   0  0  0  0  0  0  0  0  0  0  0  0
   -0.1591   -1.8120    1.6283 C   0  0  0  0  0  0  0  0  0  0  0  0
    1.7725   -1.6037    2.6685 C   0  0  0  0  0  0  0  0  0  0  0  0
    0.4925   -2.0653    2.8023 N   0  0  0  0  0  0  0  0  0  0  0  0
   -1.4467    1.6280   -0.5753 H   0  0  0  0  0  0  0  0  0  0  0  0
    1.3727    1.3121   -0.1798 H   0  0  0  0  0  0  0  0  0  0  0  0
    1.4529   -1.0540   -1.2002 H   0  0  0  0  0  0  0  0  0  0  0  0
   -0.2785   -1.1645   -1.0143 H   0  0  0  0  0  0  0  0  0  0  0  0
   -1.1940   -2.0830    1.4764 H   0  0  0  0  0  0  0  0  0  0  0  0
    2.4984   -1.6841    3.4654 H   0  0  0  0  0  0  0  0  0  0  0  0
    0.1000   -2.5115    3.6206 H   0  0  0  0  0  0  0  0  0  0  0  0
    1.6985    1.4693   -2.6674 N   0  0  0  0  0  0  0  0  0  0  0  0
    1.9120    1.9183   -4.0245 C   0  0  2  0  0  0  0  0  0  0  0  0
    1.0647    1.0506   -4.9457 C   0  0  0  0  0  0  0  0  0  0  0  0
    0.6708   -0.0717   -4.6353 O   0  0  0  0  0  0  0  0  0  0  0  0
    3.3818    1.8436   -4.4073 C   0  0  0  0  0  0  0  0  0  0  0  0
    2.5115    1.2806   -2.0884 H   0  0  0  0  0  0  0  0  0  0  0  0
    1.5611    2.9549   -4.0735 H   0  0  0  0  0  0  0  0  0  0  0  0
    3.7513    0.8125   -4.3641 H   0  0  0  0  0  0  0  0  0  0  0  0
    3.5457    2.2109   -5.4258 H   0  0  0  0  0  0  0  0  0  0  0  0
    3.9932    2.4446   -3.7255 H   0  0  0  0  0  0  0  0  0  0  0  0
    0.8365    1.6593   -6.1719 N   0  0  0  0  0  0  0  0  0  0  0  0
    0.0696    1.0322   -7.2229 C   0  0  0  0  0  0  0  0  0  0  0  0
    1.1851    2.5992   -6.3358 H   0  0  0  0  0  0  0  0  0  0  0  0
    0.7461    0.4795   -7.8914 H   0  0  0  0  0  0  0  0  0  0  0  0
   -0.6579    0.3358   -6.7803 H   0  0  0  0  0  0  0  0  0  0  0  0
   -0.4641    1.8036   -7.7975 H   0  0  0  0  0  0  0  0  0  0  0  0
 22 24  2  0  0  0  0
 24 26  1  0  0  0  0
 23 25  2  0  0  0  0
 25 26  1  0  0  0  0
 21 22  1  0  0  0  0
 22 23  1  0  0  0  0
  1  3  1  0  0  0  0
  1  7  1  0  0  0  0
  1  2  2  0  0  0  0
 35 36  1  0  0  0  0
 36 44  1  0  0  0  0
 36 37  2  0  0  0  0
  8  9  1  0  0  0  0
  9 17  1  0  0  0  0
  9 10  2  0  0  0  0
 18 19  1  0  0  0  0
 19 34  1  0  0  0  0
 19 20  2  0  0  0  0
 35 38  1  0  0  0  0
  8 11  1  0  0  0  0
 44 45  1  0  0  0  0
 18 21  1  0  0  0  0
 34 35  1  0  0  0  0
  7  8  1  0  0  0  0
 17 18  1  0  0  0  0
 24 31  1  0  0  0  0
 25 32  1  0  0  0  0
  3  4  1  0  0  0  0
  3  5  1  0  0  0  0
  3  6  1  0  0  0  0
 38 41  1  0  0  0  0
 38 42  1  0  0  0  0
 38 43  1  0  0  0  0
 11 14  1  0  0  0  0
 11 15  1  0  0  0  0
 11 16  1  0  0  0  0
 45 47  1  0  0  0  0
 45 48  1  0  0  0  0
 45 49  1  0  0  0  0
 21 29  1  0  0  0  0
 21 30  1  0  0  0  0
 35 40  1  0  0  0  0
  8 13  1  0  0  0  0
 18 28  1  0  0  0  0
 26 33  1  0  0  0  0
 44 46  1  0  0  0  0
  7 12  1  0  0  0  0
 34 39  1  0  0  0  0
 17 27  1  0  0  0  0
M  END
$$$$

  -OEChem-05262214473D

 49 49  0     1  0  0  0  0  0999 V2000
   -1.6183    0.5613    3.8201 C   0  0  0  0  0  0  0  0  0  0  0  0
   -0.6710   -0.0534    3.3444 O   0  0  0  0  0  0  0  0  0  0  0  0
   -2.0502    0.2789    5.2208 C   0  0  0  0  0  0  0  0  0  0  0  0
   -2.8099   -0.5175    5.2742 H   0  0  0  0  0  0  0  0  0  0  0  0
   -1.2190   -0.0687    5.8551 H   0  0  0  0  0  0  0  0  0  0  0  0
   -2.4882    1.1338    5.7604 H   0  0  0  0  0  0  0  0  0  0  0  0
   -2.3680    1.5337    3.1790 N   0  0  0  0  0  0  0  0  0  0  0  0
   -2.1212    1.9597    1.8266 C   0  0  2  0  0  0  0  0  0  0  0  0
   -0.7862    1.3744    1.3854 C   0  0  0  0  0  0  0  0  0  0  0  0
    0.0859    1.0216    2.1767 O   0  0  0  0  0  0  0  0  0  0  0  0
   -2.1124    3.4765    1.7171 C   0  0  0  0  0  0  0  0  0  0  0  0
   -3.1331    1.9695    3.6908 H   0  0  0  0  0  0  0  0  0  0  0  0
   -2.9253    1.5413    1.2115 H   0  0  0  0  0  0  0  0  0  0  0  0
   -1.3133    3.9138    2.3268 H   0  0  0  0  0  0  0  0  0  0  0  0
   -1.9529    3.7988    0.6829 H   0  0  0  0  0  0  0  0  0  0  0  0
   -3.0626    3.8977    2.0629 H   0  0  0  0  0  0  0  0  0  0  0  0
   -0.6635    1.3313    0.0020 N   0  0  0  0  0  0  0  0  0  0  0  0
    0.5138    0.8305   -0.6617 C   0  0  2  0  0  0  0  0  0  0  0  0
    0.4387    1.2829   -2.1156 C   0  0  0  0  0  0  0  0  0  0  0  0
   -0.5810    1.7487   -2.6196 O   0  0  0  0  0  0  0  0  0  0  0  0
    0.6168   -0.6971   -0.5835 C   0  0  0  0  0  0  0  0  0  0  0  0
    0.7784   -1.1996    0.8304 C   0  0  0  0  0  0  0  0  0  0  0  0
    1.9788   -1.0732    1.4837 N   0  0  0  0  0  0  0  0  0  0  0  0
   -0.1591   -1.8120    1.6283 C   0  0  0  0  0  0  0  0  0  0  0  0
    1.7725   -1.6037    2.6685 C   0  0  0  0  0  0  0  0  0  0  0  0
    0.4925   -2.0653    2.8023 N   0  0  0  0  0  0  0  0  0  0  0  0
   -1.4467    1.6280   -0.5753 H   0  0  0  0  0  0  0  0  0  0  0  0
    1.3727    1.3121   -0.1798 H   0  0  0  0  0  0  0  0  0  0  0  0
    1.4529   -1.0540   -1.2002 H   0  0  0  0  0  0  0  0  0  0  0  0
   -0.2785   -1.1645   -1.0143 H   0  0  0  0  0  0  0  0  0  0  0  0
   -1.1940   -2.0830    1.4764 H   0  0  0  0  0  0  0  0  0  0  0  0
    2.4984   -1.6841    3.4654 H   0  0  0  0  0  0  0  0  0  0  0  0
    0.1000   -2.5115    3.6206 H   0  0  0  0  0  0  0  0  0  0  0  0
    1.6584    1.1502   -2.7646 N   0  0  0  0  0  0  0  0  0  0  0  0
    1.8687    1.5283   -4.1436 C   0  0  2  0  0  0  0  0  0  0  0  0
    0.7643    0.8942   -4.9789 C   0  0  0  0  0  0  0  0  0  0  0  0
    0.1317   -0.0948   -4.6146 O   0  0  0  0  0  0  0  0  0  0  0  0
    3.2402    1.0912   -4.6342 C   0  0  0  0  0  0  0  0  0  0  0  0
    2.4426    0.7681   -2.2443 H   0  0  0  0  0  0  0  0  0  0  0  0
    1.7813    2.6193   -4.1893 H   0  0  0  0  0  0  0  0  0  0  0  0
    3.3465    0.0009   -4.5957 H   0  0  0  0  0  0  0  0  0  0  0  0
    3.4092    1.4034   -5.6700 H   0  0  0  0  0  0  0  0  0  0  0  0
    4.0323    1.5244   -4.0139 H   0  0  0  0  0  0  0  0  0  0  0  0
    0.5976    1.5366   -6.1977 N   0  0  0  0  0  0  0  0  0  0  0  0
   -0.3801    1.1154   -7.1738 C   0  0  0  0  0  0  0  0  0  0  0  0
    1.1531    2.3606   -6.4084 H   0  0  0  0  0  0  0  0  0  0  0  0
    0.0849    0.4106   -7.8787 H   0  0  0  0  0  0  0  0  0  0  0  0
   -1.2197    0.6220   -6.6622 H   0  0  0  0  0  0  0  0  0  0  0  0
   -0.7506    1.9931   -7.7238 H   0  0  0  0  0  0  0  0  0  0  0  0
 22 24  2  0  0  0  0
 24 26  1  0  0  0  0
 23 25  2  0  0  0  0
 25 26  1  0  0  0  0
 21 22  1  0  0  0  0
 22 23  1  0  0  0  0
  1  3  1  0  0  0  0
  1  7  1  0  0  0  0
  1  2  2  0  0  0  0
 35 36  1  0  0  0  0
 36 44  1  0  0  0  0
 36 37  2  0  0  0  0
  8  9  1  0  0  0  0
  9 17  1  0  0  0  0
  9 10  2  0  0  0  0
 18 19  1  0  0  0  0
 19 34  1  0  0  0  0
 19 20  2  0  0  0  0
 35 38  1  0  0  0  0
  8 11  1  0  0  0  0
 44 45  1  0  0  0  0
 18 21  1  0  0  0  0
 34 35  1  0  0  0  0
  7  8  1  0  0  0  0
 17 18  1  0  0  0  0
 24 31  1  0  0  0  0
 25 32  1  0  0  0  0
  3  4  1  0  0  0  0
  3  5  1  0  0  0  0
  3  6  1  0  0  0  0
 38 41  1  0  0  0  0
 38 42  1  0  0  0  0
 38 43  1  0  0  0  0
 11 14  1  0  0  0  0
 11 15  1  0  0  0  0
 11 16  1  0  0  0  0
 45 47  1  0  0  0  0
 45 48  1  0  0  0  0
 45 49  1  0  0  0  0
 21 29  1  0  0  0  0
 21 30  1  0  0  0  0
 35 40  1  0  0  0  0
  8 13  1  0  0  0  0
 18 28  1  0  0  0  0
 26 33  1  0  0  0  0
 44 46  1  0  0  0  0
  7 12  1  0  0  0  0
 34 39  1  0  0  0  0
 17 27  1  0  0  0  0
M  END
$$$$

  -OEChem-05262214473D

 49 49  0     1  0  0  0  0  0999 V2000
   -1.6183    0.5613    3.8201 C   0  0  0  0  0  0  0  0  0  0  0  0
   -0.6710   -0.0534    3.3444 O   0  0  0  0  0  0  0  0  0  0  0  0
   -2.0502    0.2789    5.2208 C   0  0  0  0  0  0  0  0  0  0  0  0
   -2.8099   -0.5175    5.2742 H   0  0  0  0  0  0  0  0  0  0  0  0
   -1.2190   -0.0687    5.8551 H   0  0  0  0  0  0  0  0  0  0  0  0
   -2.4882    1.1338    5.7604 H   0  0  0  0  0  0  0  0  0  0  0  0
   -2.3680    1.5337    3.1790 N   0  0  0  0  0  0  0  0  0  0  0  0
   -2.1212    1.9597    1.8266 C   0  0  2  0  0  0  0  0  0  0  0  0
   -0.7862    1.3744    1.3854 C   0  0  0  0  0  0  0  0  0  0  0  0
    0.0859    1.0216    2.1767 O   0  0  0  0  0  0  0  0  0  0  0  0
   -2.1124    3.4765    1.7171 C   0  0  0  0  0  0  0  0  0  0  0  0
   -3.1331    1.9695    3.6908 H   0  0  0  0  0  0  0  0  0  0  0  0
   -2.9253    1.5413    1.2115 H   0  0  0  0  0  0  0  0  0  0  0  0
   -1.3133    3.9138    2.3268 H   0  0  0  0  0  0  0  0  0  0  0  0
   -1.9529    3.7988    0.6829 H   0  0  0  0  0  0  0  0  0  0  0  0
   -3.0626    3.8977    2.0629 H   0  0  0  0  0  0  0  0  0  0  0  0
   -0.6635    1.3313    0.0020 N   0  0  0  0  0  0  0  0  0  0  0  0
    0.5138    0.8305   -0.6617 C   0  0  2  0  0  0  0  0  0  0  0  0
    0.6385    1.5785   -1.9842 C   0  0  0  0  0  0  0  0  0  0  0  0
   -0.1394    2.4665   -2.3267 O   0  0  0  0  0  0  0  0  0  0  0  0
    0.4404   -0.6807   -0.9090 C   0  0  0  0  0  0  0  0  0  0  0  0
    0.3998   -1.4801    0.3705 C   0  0  0  0  0  0  0  0  0  0  0  0
    1.5333   -1.6468    1.1262 N   0  0  0  0  0  0  0  0  0  0  0  0
   -0.6761   -2.1177    0.9419 C   0  0  0  0  0  0  0  0  0  0  0  0
    1.1495   -2.3789    2.1483 C   0  0  0  0  0  0  0  0  0  0  0  0
   -0.1802   -2.6893    2.0797 N   0  0  0  0  0  0  0  0  0  0  0  0
   -1.4467    1.6280   -0.5753 H   0  0  0  0  0  0  0  0  0  0  0  0
    1.3662    1.0878   -0.0221 H   0  0  0  0  0  0  0  0  0  0  0  0
    1.2912   -1.0076   -1.5220 H   0  0  0  0  0  0  0  0  0  0  0  0
   -0.4518   -0.9300   -1.4985 H   0  0  0  0  0  0  0  0  0  0  0  0
   -1.7134   -2.2160    0.6555 H   0  0  0  0  0  0  0  0  0  0  0  0
    1.7764   -2.7145    2.9623 H   0  0  0  0  0  0  0  0  0  0  0  0
   -0.7013   -3.2400    2.7489 H   0  0  0  0  0  0  0  0  0  0  0  0
    1.7490    1.1697   -2.7096 N   0  0  0  0  0  0  0  0  0  0  0  0
    2.1128    1.7343   -3.9893 C   0  0  2  0  0  0  0  0  0  0  0  0
    0.8767    1.7183   -4.8789 C   0  0  0  0  0  0  0  0  0  0  0  0
   -0.0723    0.9590   -4.6950 O   0  0  0  0  0  0  0  0  0  0  0  0
    3.2543    0.9610   -4.6309 C   0  0  0  0  0  0  0  0  0  0  0  0
    2.3355    0.4368   -2.3215 H   0  0  0  0  0  0  0  0  0  0  0  0
    2.4161    2.7704   -3.8031 H   0  0  0  0  0  0  0  0  0  0  0  0
    2.9691   -0.0794   -4.8250 H   0  0  0  0  0  0  0  0  0  0  0  0
    3.5477    1.4071   -5.5869 H   0  0  0  0  0  0  0  0  0  0  0  0
    4.1326    0.9483   -3.9766 H   0  0  0  0  0  0  0  0  0  0  0  0
    0.9768    2.6218   -5.9277 N   0  0  0  0  0  0  0  0  0  0  0  0
   -0.0623    2.7858   -6.9173 C   0  0  0  0  0  0  0  0  0  0  0  0
    1.7917    3.2248   -5.9917 H   0  0  0  0  0  0  0  0  0  0  0  0
    0.1420    2.1299   -7.7764 H   0  0  0  0  0  0  0  0  0  0  0  0
   -1.0341    2.5197   -6.4759 H   0  0  0  0  0  0  0  0  0  0  0  0
   -0.0866    3.8330   -7.2532 H   0  0  0  0  0  0  0  0  0  0  0  0
 22 24  2  0  0  0  0
 24 26  1  0  0  0  0
 23 25  2  0  0  0  0
 25 26  1  0  0  0  0
 21 22  1  0  0  0  0
 22 23  1  0  0  0  0
  1  3  1  0  0  0  0
  1  7  1  0  0  0  0
  1  2  2  0  0  0  0
 35 36  1  0  0  0  0
 36 44  1  0  0  0  0
 36 37  2  0  0  0  0
  8  9  1  0  0  0  0
  9 17  1  0  0  0  0
  9 10  2  0  0  0  0
 18 19  1  0  0  0  0
 19 34  1  0  0  0  0
 19 20  2  0  0  0  0
 35 38  1  0  0  0  0
  8 11  1  0  0  0  0
 44 45  1  0  0  0  0
 18 21  1  0  0  0  0
 34 35  1  0  0  0  0
  7  8  1  0  0  0  0
 17 18  1  0  0  0  0
 24 31  1  0  0  0  0
 25 32  1  0  0  0  0
  3  4  1  0  0  0  0
  3  5  1  0  0  0  0
  3  6  1  0  0  0  0
 38 41  1  0  0  0  0
 38 42  1  0  0  0  0
 38 43  1  0  0  0  0
 11 14  1  0  0  0  0
 11 15  1  0  0  0  0
 11 16  1  0  0  0  0
 45 47  1  0  0  0  0
 45 48  1  0  0  0  0
 45 49  1  0  0  0  0
 21 29  1  0  0  0  0
 21 30  1  0  0  0  0
 35 40  1  0  0  0  0
  8 13  1  0  0  0  0
 18 28  1  0  0  0  0
 26 33  1  0  0  0  0
 44 46  1  0  0  0  0
  7 12  1  0  0  0  0
 34 39  1  0  0  0  0
 17 27  1  0  0  0  0
M  END
$$$$

  -OEChem-05262214473D

 49 49  0     1  0  0  0  0  0999 V2000
   -1.6183    0.5613    3.8201 C   0  0  0  0  0  0  0  0  0  0  0  0
   -0.6710   -0.0534    3.3444 O   0  0  0  0  0  0  0  0  0  0  0  0
   -2.0502    0.2789    5.2208 C   0  0  0  0  0  0  0  0  0  0  0  0
   -2.8099   -0.5175    5.2742 H   0  0  0  0  0  0  0  0  0  0  0  0
   -1.2190   -0.0687    5.8551 H   0  0  0  0  0  0  0  0  0  0  0  0
   -2.4882    1.1338    5.7604 H   0  0  0  0  0  0  0  0  0  0  0  0
   -2.3680    1.5337    3.1790 N   0  0  0  0  0  0  0  0  0  0  0  0
   -2.1212    1.9597    1.8266 C   0  0  2  0  0  0  0  0  0  0  0  0
   -0.7862    1.3744    1.3854 C   0  0  0  0  0  0  0  0  0  0  0  0
    0.0859    1.0216    2.1767 O   0  0  0  0  0  0  0  0  0  0  0  0
   -2.1124    3.4765    1.7171 C   0  0  0  0  0  0  0  0  0  0  0  0
   -3.1331    1.9695    3.6908 H   0  0  0  0  0  0  0  0  0  0  0  0
   -2.9253    1.5413    1.2115 H   0  0  0  0  0  0  0  0  0  0  0  0
   -1.3133    3.9138    2.3268 H   0  0  0  0  0  0  0  0  0  0  0  0
   -1.9529    3.7988    0.6829 H   0  0  0  0  0  0  0  0  0  0  0  0
   -3.0626    3.8977    2.0629 H   0  0  0  0  0  0  0  0  0  0  0  0
   -0.6635    1.3313    0.0020 N   0  0  0  0  0  0  0  0  0  0  0  0
    0.5138    0.8305   -0.6617 C   0  0  2  0  0  0  0  0  0  0  0  0
    0.6385    1.5785   -1.9842 C   0  0  0  0  0  0  0  0  0  0  0  0
    0.0449    2.6293   -2.2172 O   0  0  0  0  0  0  0  0  0  0  0  0
    0.4404   -0.6807   -0.9090 C   0  0  0  0  0  0  0  0  0  0  0  0
    0.3998   -1.4801    0.3705 C   0  0  0  0  0  0  0  0  0  0  0  0
    1.5333   -1.6468    1.1262 N   0  0  0  0  0  0  0  0  0  0  0  0
   -0.6761   -2.1177    0.9419 C   0  0  0  0  0  0  0  0  0  0  0  0
    1.1495   -2.3789    2.1483 C   0  0  0  0  0  0  0  0  0  0  0  0
   -0.1802   -2.6893    2.0797 N   0  0  0  0  0  0  0  0  0  0  0  0
   -1.4467    1.6280   -0.5753 H   0  0  0  0  0  0  0  0  0  0  0  0
    1.3662    1.0878   -0.0221 H   0  0  0  0  0  0  0  0  0  0  0  0
    1.2912   -1.0076   -1.5220 H   0  0  0  0  0  0  0  0  0  0  0  0
   -0.4518   -0.9300   -1.4985 H   0  0  0  0  0  0  0  0  0  0  0  0
   -1.7134   -2.2160    0.6555 H   0  0  0  0  0  0  0  0  0  0  0  0
    1.7764   -2.7145    2.9623 H   0  0  0  0  0  0  0  0  0  0  0  0
   -0.7013   -3.2400    2.7489 H   0  0  0  0  0  0  0  0  0  0  0  0
    1.5287    0.9583   -2.8499 N   0  0  0  0  0  0  0  0  0  0  0  0
    1.8483    1.4728   -4.1621 C   0  0  2  0  0  0  0  0  0  0  0  0
    0.5397    1.7648   -4.8844 C   0  0  0  0  0  0  0  0  0  0  0  0
   -0.5259    1.2303   -4.5843 O   0  0  0  0  0  0  0  0  0  0  0  0
    2.6966    0.4877   -4.9512 C   0  0  0  0  0  0  0  0  0  0  0  0
    1.9781    0.0996   -2.5459 H   0  0  0  0  0  0  0  0  0  0  0  0
    2.3986    2.4077   -4.0098 H   0  0  0  0  0  0  0  0  0  0  0  0
    2.1618   -0.4552   -5.1137 H   0  0  0  0  0  0  0  0  0  0  0  0
    2.9618    0.8909   -5.9341 H   0  0  0  0  0  0  0  0  0  0  0  0
    3.6238    0.2559   -4.4162 H   0  0  0  0  0  0  0  0  0  0  0  0
    0.7098    2.6600   -5.9312 N   0  0  0  0  0  0  0  0  0  0  0  0
   -0.3804    3.0870   -6.7769 C   0  0  0  0  0  0  0  0  0  0  0  0
    1.6254    3.0679   -6.0961 H   0  0  0  0  0  0  0  0  0  0  0  0
   -0.4381    2.4331   -7.6596 H   0  0  0  0  0  0  0  0  0  0  0  0
   -1.3244    3.0288   -6.2153 H   0  0  0  0  0  0  0  0  0  0  0  0
   -0.2091    4.1244   -7.0999 H   0  0  0  0  0  0  0  0  0  0  0  0
 22 24  2  0  0  0  0
 24 26  1  0  0  0  0
 23 25  2  0  0  0  0
 25 26  1  0  0  0  0
 21 22  1  0  0  0  0
 22 23  1  0  0  0  0
  1  3  1  0  0  0  0
  1  7  1  0  0  0  0
  1  2  2  0  0  0  0
 35 36  1  0  0  0  0
 36 44  1  0  0  0  0
 36 37  2  0  0  0  0
  8  9  1  0  0  0  0
  9 17  1  0  0  0  0
  9 10  2  0  0  0  0
 18 19  1  0  0  0  0
 19 34  1  0  0  0  0
 19 20  2  0  0  0  0
 35 38  1  0  0  0  0
  8 11  1  0  0  0  0
 44 45  1  0  0  0  0
 18 21  1  0  0  0  0
 34 35  1  0  0  0  0
  7  8  1  0  0  0  0
 17 18  1  0  0  0  0
 24 31  1  0  0  0  0
 25 32  1  0  0  0  0
  3  4  1  0  0  0  0
  3  5  1  0  0  0  0
  3  6  1  0  0  0  0
 38 41  1  0  0  0  0
 38 42  1  0  0  0  0
 38 43  1  0  0  0  0
 11 14  1  0  0  0  0
 11 15  1  0  0  0  0
 11 16  1  0  0  0  0
 45 47  1  0  0  0  0
 45 48  1  0  0  0  0
 45 49  1  0  0  0  0
 21 29  1  0  0  0  0
 21 30  1  0  0  0  0
 35 40  1  0  0  0  0
  8 13  1  0  0  0  0
 18 28  1  0  0  0  0
 26 33  1  0  0  0  0
 44 46  1  0  0  0  0
  7 12  1  0  0  0  0
 34 39  1  0  0  0  0
 17 27  1  0  0  0  0
M  END
$$$$

  -OEChem-05262214473D

 49 49  0     1  0  0  0  0  0999 V2000
   -1.6183    0.5613    3.8201 C   0  0  0  0  0  0  0  0  0  0  0  0
   -0.6710   -0.0534    3.3444 O   0  0  0  0  0  0  0  0  0  0  0  0
   -2.0502    0.2789    5.2208 C   0  0  0  0  0  0  0  0  0  0  0  0
   -2.8099   -0.5175    5.2742 H   0  0  0  0  0  0  0  0  0  0  0  0
   -1.2190   -0.0687    5.8551 H   0  0  0  0  0  0  0  0  0  0  0  0
   -2.4882    1.1338    5.7604 H   0  0  0  0  0  0  0  0  0  0  0  0
   -2.3680    1.5337    3.1790 N   0  0  0  0  0  0  0  0  0  0  0  0
   -2.1212    1.9597    1.8266 C   0  0  2  0  0  0  0  0  0  0  0  0
   -0.7862    1.3744    1.3854 C   0  0  0  0  0  0  0  0  0  0  0  0
    0.0859    1.0216    2.1767 O   0  0  0  0  0  0  0  0  0  0  0  0
   -2.1124    3.4765    1.7171 C   0  0  0  0  0  0  0  0  0  0  0  0
   -3.1331    1.9695    3.6908 H   0  0  0  0  0  0  0  0  0  0  0  0
   -2.9253    1.5413    1.2115 H   0  0  0  0  0  0  0  0  0  0  0  0
   -1.3133    3.9138    2.3268 H   0  0  0  0  0  0  0  0  0  0  0  0
   -1.9529    3.7988    0.6829 H   0  0  0  0  0  0  0  0  0  0  0  0
   -3.0626    3.8977    2.0629 H   0  0  0  0  0  0  0  0  0  0  0  0
   -0.6635    1.3313    0.0020 N   0  0  0  0  0  0  0  0  0  0  0  0
    0.5138    0.8305   -0.6617 C   0  0  2  0  0  0  0  0  0  0  0  0
    0.6385    1.5785   -1.9842 C   0  0  0  0  0  0  0  0  0  0  0  0
    0.2733    2.7429   -2.1314 O   0  0  0  0  0  0  0  0  0  0  0  0
    0.4404   -0.6807   -0.9090 C   0  0  0  0  0  0  0  0  0  0  0  0
    0.3998   -1.4801    0.3705 C   0  0  0  0  0  0  0  0  0  0  0  0
    1.5333   -1.6468    1.1262 N   0  0  0  0  0  0  0  0  0  0  0  0
   -0.6761   -2.1177    0.9419 C   0  0  0  0  0  0  0  0  0  0  0  0
    1.1495   -2.3789    2.1483 C   0  0  0  0  0  0  0  0  0  0  0  0
   -0.1802   -2.6893    2.0797 N   0  0  0  0  0  0  0  0  0  0  0  0
   -1.4467    1.6280   -0.5753 H   0  0  0  0  0  0  0  0  0  0  0  0
    1.3662    1.0878   -0.0221 H   0  0  0  0  0  0  0  0  0  0  0  0
    1.2912   -1.0076   -1.5220 H   0  0  0  0  0  0  0  0  0  0  0  0
   -0.4518   -0.9300   -1.4985 H   0  0  0  0  0  0  0  0  0  0  0  0
   -1.7134   -2.2160    0.6555 H   0  0  0  0  0  0  0  0  0  0  0  0
    1.7764   -2.7145    2.9623 H   0  0  0  0  0  0  0  0  0  0  0  0
   -0.7013   -3.2400    2.7489 H   0  0  0  0  0  0  0  0  0  0  0  0
    1.2506    0.8066   -2.9619 N   0  0  0  0  0  0  0  0  0  0  0  0
    1.5122    1.2833   -4.3010 C   0  0  2  0  0  0  0  0  0  0  0  0
    0.2238    1.8856   -4.8459 C   0  0  0  0  0  0  0  0  0  0  0  0
   -0.8890    1.5919   -4.4141 O   0  0  0  0  0  0  0  0  0  0  0  0
    2.0109    0.1625   -5.1998 C   0  0  0  0  0  0  0  0  0  0  0  0
    1.5288   -0.1410   -2.7244 H   0  0  0  0  0  0  0  0  0  0  0  0
    2.2740    2.0658   -4.2150 H   0  0  0  0  0  0  0  0  0  0  0  0
    1.2610   -0.6309   -5.2980 H   0  0  0  0  0  0  0  0  0  0  0  0
    2.2358    0.5311   -6.2061 H   0  0  0  0  0  0  0  0  0  0  0  0
    2.9211   -0.2893   -4.7908 H   0  0  0  0  0  0  0  0  0  0  0  0
    0.4600    2.7569   -5.9000 N   0  0  0  0  0  0  0  0  0  0  0  0
   -0.6021    3.4463   -6.5946 C   0  0  0  0  0  0  0  0  0  0  0  0
    1.4162    2.9558   -6.1792 H   0  0  0  0  0  0  0  0  0  0  0  0
   -0.9156    2.8538   -7.4668 H   0  0  0  0  0  0  0  0  0  0  0  0
   -1.4574    3.5803   -5.9160 H   0  0  0  0  0  0  0  0  0  0  0  0
   -0.2426    4.4302   -6.9301 H   0  0  0  0  0  0  0  0  0  0  0  0
 22 24  2  0  0  0  0
 24 26  1  0  0  0  0
 23 25  2  0  0  0  0
 25 26  1  0  0  0  0
 21 22  1  0  0  0  0
 22 23  1  0  0  0  0
  1  3  1  0  0  0  0
  1  7  1  0  0  0  0
  1  2  2  0  0  0  0
 35 36  1  0  0  0  0
 36 44  1  0  0  0  0
 36 37  2  0  0  0  0
  8  9  1  0  0  0  0
  9 17  1  0  0  0  0
  9 10  2  0  0  0  0
 18 19  1  0  0  0  0
 19 34  1  0  0  0  0
 19 20  2  0  0  0  0
 35 38  1  0  0  0  0
  8 11  1  0  0  0  0
 44 45  1  0  0  0  0
 18 21  1  0  0  0  0
 34 35  1  0  0  0  0
  7  8  1  0  0  0  0
 17 18  1  0  0  0  0
 24 31  1  0  0  0  0
 25 32  1  0  0  0  0
  3  4  1  0  0  0  0
  3  5  1  0  0  0  0
  3  6  1  0  0  0  0
 38 41  1  0  0  0  0
 38 42  1  0  0  0  0
 38 43  1  0  0  0  0
 11 14  1  0  0  0  0
 11 15  1  0  0  0  0
 11 16  1  0  0  0  0
 45 47  1  0  0  0  0
 45 48  1  0  0  0  0
 45 49  1  0  0  0  0
 21 29  1  0  0  0  0
 21 30  1  0  0  0  0
 35 40  1  0  0  0  0
  8 13  1  0  0  0  0
 18 28  1  0  0  0  0
 26 33  1  0  0  0  0
 44 46  1  0  0  0  0
  7 12  1  0  0  0  0
 34 39  1  0  0  0  0
 17 27  1  0  0  0  0
M  END
$$$$

  -OEChem-05262214473D

 49 49  0     1  0  0  0  0  0999 V2000
   -1.6183    0.5613    3.8201 C   0  0  0  0  0  0  0  0  0  0  0  0
   -0.6710   -0.0534    3.3444 O   0  0  0  0  0  0  0  0  0  0  0  0
   -2.0502    0.2789    5.2208 C   0  0  0  0  0  0  0  0  0  0  0  0
   -2.8099   -0.5175    5.2742 H   0  0  0  0  0  0  0  0  0  0  0  0
   -1.2190   -0.0687    5.8551 H   0  0  0  0  0  0  0  0  0  0  0  0
   -2.4882    1.1338    5.7604 H   0  0  0  0  0  0  0  0  0  0  0  0
   -2.3680    1.5337    3.1790 N   0  0  0  0  0  0  0  0  0  0  0  0
   -2.1212    1.9597    1.8266 C   0  0  2  0  0  0  0  0  0  0  0  0
   -0.7862    1.3744    1.3854 C   0  0  0  0  0  0  0  0  0  0  0  0
    0.0859    1.0216    2.1767 O   0  0  0  0  0  0  0  0  0  0  0  0
   -2.1124    3.4765    1.7171 C   0  0  0  0  0  0  0  0  0  0  0  0
   -3.1331    1.9695    3.6908 H   0  0  0  0  0  0  0  0  0  0  0  0
   -2.9253    1.5413    1.2115 H   0  0  0  0  0  0  0  0  0  0  0  0
   -1.3133    3.9138    2.3268 H   0  0  0  0  0  0  0  0  0  0  0  0
   -1.9529    3.7988    0.6829 H   0  0  0  0  0  0  0  0  0  0  0  0
   -3.0626    3.8977    2.0629 H   0  0  0  0  0  0  0  0  0  0  0  0
   -0.6635    1.3313    0.0020 N   0  0  0  0  0  0  0  0  0  0  0  0
    0.5138    0.8305   -0.6617 C   0  0  2  0  0  0  0  0  0  0  0  0
    0.6385    1.5785   -1.9842 C   0  0  0  0  0  0  0  0  0  0  0  0
    0.5304    2.7995   -2.0751 O   0  0  0  0  0  0  0  0  0  0  0  0
    0.4404   -0.6807   -0.9090 C   0  0  0  0  0  0  0  0  0  0  0  0
    0.3998   -1.4801    0.3705 C   0  0  0  0  0  0  0  0  0  0  0  0
    1.5333   -1.6468    1.1262 N   0  0  0  0  0  0  0  0  0  0  0  0
   -0.6761   -2.1177    0.9419 C   0  0  0  0  0  0  0  0  0  0  0  0
    1.1495   -2.3789    2.1483 C   0  0  0  0  0  0  0  0  0  0  0  0
   -0.1802   -2.6893    2.0797 N   0  0  0  0  0  0  0  0  0  0  0  0
   -1.4467    1.6280   -0.5753 H   0  0  0  0  0  0  0  0  0  0  0  0
    1.3662    1.0878   -0.0221 H   0  0  0  0  0  0  0  0  0  0  0  0
    1.2912   -1.0076   -1.5220 H   0  0  0  0  0  0  0  0  0  0  0  0
   -0.4518   -0.9300   -1.4985 H   0  0  0  0  0  0  0  0  0  0  0  0
   -1.7134   -2.2160    0.6555 H   0  0  0  0  0  0  0  0  0  0  0  0
    1.7764   -2.7145    2.9623 H   0  0  0  0  0  0  0  0  0  0  0  0
   -0.7013   -3.2400    2.7489 H   0  0  0  0  0  0  0  0  0  0  0  0
    0.9337    0.7248   -3.0381 N   0  0  0  0  0  0  0  0  0  0  0  0
    1.1274    1.1786   -4.3965 C   0  0  2  0  0  0  0  0  0  0  0  0
   -0.0492    2.0722   -4.7661 C   0  0  0  0  0  0  0  0  0  0  0  0
   -1.1369    2.0192   -4.1958 O   0  0  0  0  0  0  0  0  0  0  0  0
    1.2441    0.0076   -5.3597 C   0  0  0  0  0  0  0  0  0  0  0  0
    1.0180   -0.2688   -2.8448 H   0  0  0  0  0  0  0  0  0  0  0  0
    2.0509    1.7678   -4.4046 H   0  0  0  0  0  0  0  0  0  0  0  0
    0.3281   -0.5944   -5.3654 H   0  0  0  0  0  0  0  0  0  0  0  0
    1.4192    0.3524   -6.3842 H   0  0  0  0  0  0  0  0  0  0  0  0
    2.0723   -0.6502   -5.0750 H   0  0  0  0  0  0  0  0  0  0  0  0
    0.2445    2.9060   -5.8360 N   0  0  0  0  0  0  0  0  0  0  0  0
   -0.7125    3.8393   -6.3827 C   0  0  0  0  0  0  0  0  0  0  0  0
    1.1784    2.8963   -6.2353 H   0  0  0  0  0  0  0  0  0  0  0  0
   -1.2579    3.3632   -7.2109 H   0  0  0  0  0  0  0  0  0  0  0  0
   -1.4240    4.1365   -5.5982 H   0  0  0  0  0  0  0  0  0  0  0  0
   -0.1846    4.7295   -6.7553 H   0  0  0  0  0  0  0  0  0  0  0  0
 22 24  2  0  0  0  0
 24 26  1  0  0  0  0
 23 25  2  0  0  0  0
 25 26  1  0  0  0  0
 21 22  1  0  0  0  0
 22 23  1  0  0  0  0
  1  3  1  0  0  0  0
  1  7  1  0  0  0  0
  1  2  2  0  0  0  0
 35 36  1  0  0  0  0
 36 44  1  0  0  0  0
 36 37  2  0  0  0  0
  8  9  1  0  0  0  0
  9 17  1  0  0  0  0
  9 10  2  0  0  0  0
 18 19  1  0  0  0  0
 19 34  1  0  0  0  0
 19 20  2  0  0  0  0
 35 38  1  0  0  0  0
  8 11  1  0  0  0  0
 44 45  1  0  0  0  0
 18 21  1  0  0  0  0
 34 35  1  0  0  0  0
  7  8  1  0  0  0  0
 17 18  1  0  0  0  0
 24 31  1  0  0  0  0
 25 32  1  0  0  0  0
  3  4  1  0  0  0  0
  3  5  1  0  0  0  0
  3  6  1  0  0  0  0
 38 41  1  0  0  0  0
 38 42  1  0  0  0  0
 38 43  1  0  0  0  0
 11 14  1  0  0  0  0
 11 15  1  0  0  0  0
 11 16  1  0  0  0  0
 45 47  1  0  0  0  0
 45 48  1  0  0  0  0
 45 49  1  0  0  0  0
 21 29  1  0  0  0  0
 21 30  1  0  0  0  0
 35 40  1  0  0  0  0
  8 13  1  0  0  0  0
 18 28  1  0  0  0  0
 26 33  1  0  0  0  0
 44 46  1  0  0  0  0
  7 12  1  0  0  0  0
 34 39  1  0  0  0  0
 17 27  1  0  0  0  0
M  END
$$$$

  -OEChem-05262214473D

 49 49  0     1  0  0  0  0  0999 V2000
   -1.6183    0.5613    3.8201 C   0  0  0  0  0  0  0  0  0  0  0  0
   -0.6710   -0.0534    3.3444 O   0  0  0  0  0  0  0  0  0  0  0  0
   -2.0502    0.2789    5.2208 C   0  0  0  0  0  0  0  0  0  0  0  0
   -2.8099   -0.5175    5.2742 H   0  0  0  0  0  0  0  0  0  0  0  0
   -1.2190   -0.0687    5.8551 H   0  0  0  0  0  0  0  0  0  0  0  0
   -2.4882    1.1338    5.7604 H   0  0  0  0  0  0  0  0  0  0  0  0
   -2.3680    1.5337    3.1790 N   0  0  0  0  0  0  0  0  0  0  0  0
   -2.1212    1.9597    1.8266 C   0  0  2  0  0  0  0  0  0  0  0  0
   -0.7862    1.3744    1.3854 C   0  0  0  0  0  0  0  0  0  0  0  0
    0.0859    1.0216    2.1767 O   0  0  0  0  0  0  0  0  0  0  0  0
   -2.1124    3.4765    1.7171 C   0  0  0  0  0  0  0  0  0  0  0  0
   -3.1331    1.9695    3.6908 H   0  0  0  0  0  0  0  0  0  0  0  0
   -2.9253    1.5413    1.2115 H   0  0  0  0  0  0  0  0  0  0  0  0
   -1.3133    3.9138    2.3268 H   0  0  0  0  0  0  0  0  0  0  0  0
   -1.9529    3.7988    0.6829 H   0  0  0  0  0  0  0  0  0  0  0  0
   -3.0626    3.8977    2.0629 H   0  0  0  0  0  0  0  0  0  0  0  0
   -0.6635    1.3313    0.0020 N   0  0  0  0  0  0  0  0  0  0  0  0
    0.5138    0.8305   -0.6617 C   0  0  2  0  0  0  0  0  0  0  0  0
    0.6385    1.5785   -1.9842 C   0  0  0  0  0  0  0  0  0  0  0  0
    0.7986    2.7953   -2.0522 O   0  0  0  0  0  0  0  0  0  0  0  0
    0.4404   -0.6807   -0.9090 C   0  0  0  0  0  0  0  0  0  0  0  0
    0.3998   -1.4801    0.3705 C   0  0  0  0  0  0  0  0  0  0  0  0
    1.5333   -1.6468    1.1262 N   0  0  0  0  0  0  0  0  0  0  0  0
   -0.6761   -2.1177    0.9419 C   0  0  0  0  0  0  0  0  0  0  0  0
    1.1495   -2.3789    2.1483 C   0  0  0  0  0  0  0  0  0  0  0  0
   -0.1802   -2.6893    2.0797 N   0  0  0  0  0  0  0  0  0  0  0  0
   -1.4467    1.6280   -0.5753 H   0  0  0  0  0  0  0  0  0  0  0  0
    1.3662    1.0878   -0.0221 H   0  0  0  0  0  0  0  0  0  0  0  0
    1.2912   -1.0076   -1.5220 H   0  0  0  0  0  0  0  0  0  0  0  0
   -0.4518   -0.9300   -1.4985 H   0  0  0  0  0  0  0  0  0  0  0  0
   -1.7134   -2.2160    0.6555 H   0  0  0  0  0  0  0  0  0  0  0  0
    1.7764   -2.7145    2.9623 H   0  0  0  0  0  0  0  0  0  0  0  0
   -0.7013   -3.2400    2.7489 H   0  0  0  0  0  0  0  0  0  0  0  0
    0.5996    0.7186   -3.0731 N   0  0  0  0  0  0  0  0  0  0  0  0
    0.7200    1.1659   -4.4421 C   0  0  2  0  0  0  0  0  0  0  0  0
   -0.2609    2.3122   -4.6503 C   0  0  0  0  0  0  0  0  0  0  0  0
   -1.2528    2.4829   -3.9445 O   0  0  0  0  0  0  0  0  0  0  0  0
    0.4482    0.0335   -5.4201 C   0  0  0  0  0  0  0  0  0  0  0  0
    0.4806   -0.2750   -2.8990 H   0  0  0  0  0  0  0  0  0  0  0  0
    1.7443    1.5340   -4.5657 H   0  0  0  0  0  0  0  0  0  0  0  0
   -0.5735   -0.3483   -5.3112 H   0  0  0  0  0  0  0  0  0  0  0  0
    0.5677    0.3669   -6.4563 H   0  0  0  0  0  0  0  0  0  0  0  0
    1.1353   -0.8023   -5.2494 H   0  0  0  0  0  0  0  0  0  0  0  0
    0.0779    3.0970   -5.7437 N   0  0  0  0  0  0  0  0  0  0  0  0
   -0.7040    4.2393   -6.1557 C   0  0  0  0  0  0  0  0  0  0  0  0
    0.9283    2.8934   -6.2605 H   0  0  0  0  0  0  0  0  0  0  0  0
   -1.4416    3.9267   -6.9095 H   0  0  0  0  0  0  0  0  0  0  0  0
   -1.2265    4.6596   -5.2838 H   0  0  0  0  0  0  0  0  0  0  0  0
   -0.0393    5.0019   -6.5876 H   0  0  0  0  0  0  0  0  0  0  0  0
 22 24  2  0  0  0  0
 24 26  1  0  0  0  0
 23 25  2  0  0  0  0
 25 26  1  0  0  0  0
 21 22  1  0  0  0  0
 22 23  1  0  0  0  0
  1  3  1  0  0  0  0
  1  7  1  0  0  0  0
  1  2  2  0  0  0  0
 35 36  1  0  0  0  0
 36 44  1  0  0  0  0
 36 37  2  0  0  0  0
  8  9  1  0  0  0  0
  9 17  1  0  0  0  0
  9 10  2  0  0  0  0
 18 19  1  0  0  0  0
 19 34  1  0  0  0  0
 19 20  2  0  0  0  0
 35 38  1  0  0  0  0
  8 11  1  0  0  0  0
 44 45  1  0  0  0  0
 18 21  1  0  0  0  0
 34 35  1  0  0  0  0
  7  8  1  0  0  0  0
 17 18  1  0  0  0  0
 24 31  1  0  0  0  0
 25 32  1  0  0  0  0
  3  4  1  0  0  0  0
  3  5  1  0  0  0  0
  3  6  1  0  0  0  0
 38 41  1  0  0  0  0
 38 42  1  0  0  0  0
 38 43  1  0  0  0  0
 11 14  1  0  0  0  0
 11 15  1  0  0  0  0
 11 16  1  0  0  0  0
 45 47  1  0  0  0  0
 45 48  1  0  0  0  0
 45 49  1  0  0  0  0
 21 29  1  0  0  0  0
 21 30  1  0  0  0  0
 35 40  1  0  0  0  0
  8 13  1  0  0  0  0
 18 28  1  0  0  0  0
 26 33  1  0  0  0  0
 44 46  1  0  0  0  0
  7 12  1  0  0  0  0
 34 39  1  0  0  0  0
 17 27  1  0  0  0  0
M  END
$$$$

  -OEChem-05262214473D

 49 49  0     1  0  0  0  0  0999 V2000
   -1.6183    0.5613    3.8201 C   0  0  0  0  0  0  0  0  0  0  0  0
   -0.6710   -0.0534    3.3444 O   0  0  0  0  0  0  0  0  0  0  0  0
   -2.0502    0.2789    5.2208 C   0  0  0  0  0  0  0  0  0  0  0  0
   -2.8099   -0.5175    5.2742 H   0  0  0  0  0  0  0  0  0  0  0  0
   -1.2190   -0.0687    5.8551 H   0  0  0  0  0  0  0  0  0  0  0  0
   -2.4882    1.1338    5.7604 H   0  0  0  0  0  0  0  0  0  0  0  0
   -2.3680    1.5337    3.1790 N   0  0  0  0  0  0  0  0  0  0  0  0
   -2.1212    1.9597    1.8266 C   0  0  2  0  0  0  0  0  0  0  0  0
   -0.7862    1.3744    1.3854 C   0  0  0  0  0  0  0  0  0  0  0  0
    0.0859    1.0216    2.1767 O   0  0  0  0  0  0  0  0  0  0  0  0
   -2.1124    3.4765    1.7171 C   0  0  0  0  0  0  0  0  0  0  0  0
   -3.1331    1.9695    3.6908 H   0  0  0  0  0  0  0  0  0  0  0  0
   -2.9253    1.5413    1.2115 H   0  0  0  0  0  0  0  0  0  0  0  0
   -1.3133    3.9138    2.3268 H   0  0  0  0  0  0  0  0  0  0  0  0
   -1.9529    3.7988    0.6829 H   0  0  0  0  0  0  0  0  0  0  0  0
   -3.0626    3.8977    2.0629 H   0  0  0  0  0  0  0  0  0  0  0  0
   -0.6635    1.3313    0.0020 N   0  0  0  0  0  0  0  0  0  0  0  0
    0.5138    0.8305   -0.6617 C   0  0  2  0  0  0  0  0  0  0  0  0
    0.6385    1.5785   -1.9842 C   0  0  0  0  0  0  0  0  0  0  0  0
    1.0596    2.7305   -2.0642 O   0  0  0  0  0  0  0  0  0  0  0  0
    0.4404   -0.6807   -0.9090 C   0  0  0  0  0  0  0  0  0  0  0  0
    0.3998   -1.4801    0.3705 C   0  0  0  0  0  0  0  0  0  0  0  0
    1.5333   -1.6468    1.1262 N   0  0  0  0  0  0  0  0  0  0  0  0
   -0.6761   -2.1177    0.9419 C   0  0  0  0  0  0  0  0  0  0  0  0
    1.1495   -2.3789    2.1483 C   0  0  0  0  0  0  0  0  0  0  0  0
   -0.1802   -2.6893    2.0797 N   0  0  0  0  0  0  0  0  0  0  0  0
   -1.4467    1.6280   -0.5753 H   0  0  0  0  0  0  0  0  0  0  0  0
    1.3662    1.0878   -0.0221 H   0  0  0  0  0  0  0  0  0  0  0  0
    1.2912   -1.0076   -1.5220 H   0  0  0  0  0  0  0  0  0  0  0  0
   -0.4518   -0.9300   -1.4985 H   0  0  0  0  0  0  0  0  0  0  0  0
   -1.7134   -2.2160    0.6555 H   0  0  0  0  0  0  0  0  0  0  0  0
    1.7764   -2.7145    2.9623 H   0  0  0  0  0  0  0  0  0  0  0  0
   -0.7013   -3.2400    2.7489 H   0  0  0  0  0  0  0  0  0  0  0  0
    0.2711    0.7884   -3.0646 N   0  0  0  0  0  0  0  0  0  0  0  0
    0.3179    1.2461   -4.4347 C   0  0  2  0  0  0  0  0  0  0  0  0
   -0.3968    2.5891   -4.5066 C   0  0  0  0  0  0  0  0  0  0  0  0
   -1.2286    2.9515   -3.6772 O   0  0  0  0  0  0  0  0  0  0  0  0
   -0.3223    0.2385   -5.3768 C   0  0  0  0  0  0  0  0  0  0  0  0
   -0.0467   -0.1592   -2.8832 H   0  0  0  0  0  0  0  0  0  0  0  0
    1.3753    1.3805   -4.6873 H   0  0  0  0  0  0  0  0  0  0  0  0
   -1.3821    0.0907   -5.1392 H   0  0  0  0  0  0  0  0  0  0  0  0
   -0.2606    0.5736   -6.4175 H   0  0  0  0  0  0  0  0  0  0  0  0
    0.1740   -0.7350   -5.3020 H   0  0  0  0  0  0  0  0  0  0  0  0
   -0.0284    3.3169   -5.6293 N   0  0  0  0  0  0  0  0  0  0  0  0
   -0.5771    4.6188   -5.9291 C   0  0  0  0  0  0  0  0  0  0  0  0
    0.6829    2.9473   -6.2532 H   0  0  0  0  0  0  0  0  0  0  0  0
   -1.4543    4.5059   -6.5832 H   0  0  0  0  0  0  0  0  0  0  0  0
   -0.8784    5.1138   -4.9941 H   0  0  0  0  0  0  0  0  0  0  0  0
    0.1836    5.2289   -6.4382 H   0  0  0  0  0  0  0  0  0  0  0  0
 22 24  2  0  0  0  0
 24 26  1  0  0  0  0
 23 25  2  0  0  0  0
 25 26  1  0  0  0  0
 21 22  1  0  0  0  0
 22 23  1  0  0  0  0
  1  3  1  0  0  0  0
  1  7  1  0  0  0  0
  1  2  2  0  0  0  0
 35 36  1  0  0  0  0
 36 44  1  0  0  0  0
 36 37  2  0  0  0  0
  8  9  1  0  0  0  0
  9 17  1  0  0  0  0
  9 10  2  0  0  0  0
 18 19  1  0  0  0  0
 19 34  1  0  0  0  0
 19 20  2  0  0  0  0
 35 38  1  0  0  0  0
  8 11  1  0  0  0  0
 44 45  1  0  0  0  0
 18 21  1  0  0  0  0
 34 35  1  0  0  0  0
  7  8  1  0  0  0  0
 17 18  1  0  0  0  0
 24 31  1  0  0  0  0
 25 32  1  0  0  0  0
  3  4  1  0  0  0  0
  3  5  1  0  0  0  0
  3  6  1  0  0  0  0
 38 41  1  0  0  0  0
 38 42  1  0  0  0  0
 38 43  1  0  0  0  0
 11 14  1  0  0  0  0
 11 15  1  0  0  0  0
 11 16  1  0  0  0  0
 45 47  1  0  0  0  0
 45 48  1  0  0  0  0
 45 49  1  0  0  0  0
 21 29  1  0  0  0  0
 21 30  1  0  0  0  0
 35 40  1  0  0  0  0
  8 13  1  0  0  0  0
 18 28  1  0  0  0  0
 26 33  1  0  0  0  0
 44 46  1  0  0  0  0
  7 12  1  0  0  0  0
 34 39  1  0  0  0  0
 17 27  1  0  0  0  0
M  END
$$$$

  -OEChem-05262214473D

 49 49  0     1  0  0  0  0  0999 V2000
   -1.6183    0.5613    3.8201 C   0  0  0  0  0  0  0  0  0  0  0  0
   -0.6710   -0.0534    3.3444 O   0  0  0  0  0  0  0  0  0  0  0  0
   -2.0502    0.2789    5.2208 C   0  0  0  0  0  0  0  0  0  0  0  0
   -2.8099   -0.5175    5.2742 H   0  0  0  0  0  0  0  0  0  0  0  0
   -1.2190   -0.0687    5.8551 H   0  0  0  0  0  0  0  0  0  0  0  0
   -2.4882    1.1338    5.7604 H   0  0  0  0  0  0  0  0  0  0  0  0
   -2.3680    1.5337    3.1790 N   0  0  0  0  0  0  0  0  0  0  0  0
   -2.1212    1.9597    1.8266 C   0  0  2  0  0  0  0  0  0  0  0  0
   -0.7862    1.3744    1.3854 C   0  0  0  0  0  0  0  0  0  0  0  0
    0.0859    1.0216    2.1767 O   0  0  0  0  0  0  0  0  0  0  0  0
   -2.1124    3.4765    1.7171 C   0  0  0  0  0  0  0  0  0  0  0  0
   -3.1331    1.9695    3.6908 H   0  0  0  0  0  0  0  0  0  0  0  0
   -2.9253    1.5413    1.2115 H   0  0  0  0  0  0  0  0  0  0  0  0
   -1.3133    3.9138    2.3268 H   0  0  0  0  0  0  0  0  0  0  0  0
   -1.9529    3.7988    0.6829 H   0  0  0  0  0  0  0  0  0  0  0  0
   -3.0626    3.8977    2.0629 H   0  0  0  0  0  0  0  0  0  0  0  0
   -0.6635    1.3313    0.0020 N   0  0  0  0  0  0  0  0  0  0  0  0
    0.5138    0.8305   -0.6617 C   0  0  2  0  0  0  0  0  0  0  0  0
    0.6385    1.5785   -1.9842 C   0  0  0  0  0  0  0  0  0  0  0  0
    1.2956    2.6096   -2.1104 O   0  0  0  0  0  0  0  0  0  0  0  0
    0.4404   -0.6807   -0.9090 C   0  0  0  0  0  0  0  0  0  0  0  0
    0.3998   -1.4801    0.3705 C   0  0  0  0  0  0  0  0  0  0  0  0
    1.5333   -1.6468    1.1262 N   0  0  0  0  0  0  0  0  0  0  0  0
   -0.6761   -2.1177    0.9419 C   0  0  0  0  0  0  0  0  0  0  0  0
    1.1495   -2.3789    2.1483 C   0  0  0  0  0  0  0  0  0  0  0  0
   -0.1802   -2.6893    2.0797 N   0  0  0  0  0  0  0  0  0  0  0  0
   -1.4467    1.6280   -0.5753 H   0  0  0  0  0  0  0  0  0  0  0  0
    1.3662    1.0878   -0.0221 H   0  0  0  0  0  0  0  0  0  0  0  0
    1.2912   -1.0076   -1.5220 H   0  0  0  0  0  0  0  0  0  0  0  0
   -0.4518   -0.9300   -1.4985 H   0  0  0  0  0  0  0  0  0  0  0  0
   -1.7134   -2.2160    0.6555 H   0  0  0  0  0  0  0  0  0  0  0  0
    1.7764   -2.7145    2.9623 H   0  0  0  0  0  0  0  0  0  0  0  0
   -0.7013   -3.2400    2.7489 H   0  0  0  0  0  0  0  0  0  0  0  0
   -0.0295    0.9294   -3.0132 N   0  0  0  0  0  0  0  0  0  0  0  0
   -0.0516    1.4137   -4.3748 C   0  0  2  0  0  0  0  0  0  0  0  0
   -0.4477    2.8839   -4.3446 C   0  0  0  0  0  0  0  0  0  0  0  0
   -1.0662    3.3930   -3.4121 O   0  0  0  0  0  0  0  0  0  0  0  0
   -1.0151    0.6087   -5.2328 C   0  0  0  0  0  0  0  0  0  0  0  0
   -0.5280    0.0708   -2.7986 H   0  0  0  0  0  0  0  0  0  0  0  0
    0.9689    1.3177   -4.7612 H   0  0  0  0  0  0  0  0  0  0  0  0
   -2.0428    0.6927   -4.8610 H   0  0  0  0  0  0  0  0  0  0  0  0
   -1.0095    0.9584   -6.2705 H   0  0  0  0  0  0  0  0  0  0  0  0
   -0.7462   -0.4531   -5.2294 H   0  0  0  0  0  0  0  0  0  0  0  0
   -0.0672    3.5508   -5.5007 N   0  0  0  0  0  0  0  0  0  0  0  0
   -0.3406    4.9522   -5.7183 C   0  0  0  0  0  0  0  0  0  0  0  0
    0.4588    3.0543   -6.2138 H   0  0  0  0  0  0  0  0  0  0  0  0
   -1.2950    5.0612   -6.2541 H   0  0  0  0  0  0  0  0  0  0  0  0
   -0.4034    5.4682   -4.7488 H   0  0  0  0  0  0  0  0  0  0  0  0
    0.4688    5.3949   -6.3174 H   0  0  0  0  0  0  0  0  0  0  0  0
 22 24  2  0  0  0  0
 24 26  1  0  0  0  0
 23 25  2  0  0  0  0
 25 26  1  0  0  0  0
 21 22  1  0  0  0  0
 22 23  1  0  0  0  0
  1  3  1  0  0  0  0
  1  7  1  0  0  0  0
  1  2  2  0  0  0  0
 35 36  1  0  0  0  0
 36 44  1  0  0  0  0
 36 37  2  0  0  0  0
  8  9  1  0  0  0  0
  9 17  1  0  0  0  0
  9 10  2  0  0  0  0
 18 19  1  0  0  0  0
 19 34  1  0  0  0  0
 19 20  2  0  0  0  0
 35 38  1  0  0  0  0
  8 11  1  0  0  0  0
 44 45  1  0  0  0  0
 18 21  1  0  0  0  0
 34 35  1  0  0  0  0
  7  8  1  0  0  0  0
 17 18  1  0  0  0  0
 24 31  1  0  0  0  0
 25 32  1  0  0  0  0
  3  4  1  0  0  0  0
  3  5  1  0  0  0  0
  3  6  1  0  0  0  0
 38 41  1  0  0  0  0
 38 42  1  0  0  0  0
 38 43  1  0  0  0  0
 11 14  1  0  0  0  0
 11 15  1  0  0  0  0
 11 16  1  0  0  0  0
 45 47  1  0  0  0  0
 45 48  1  0  0  0  0
 45 49  1  0  0  0  0
 21 29  1  0  0  0  0
 21 30  1  0  0  0  0
 35 40  1  0  0  0  0
  8 13  1  0  0  0  0
 18 28  1  0  0  0  0
 26 33  1  0  0  0  0
 44 46  1  0  0  0  0
  7 12  1  0  0  0  0
 34 39  1  0  0  0  0
 17 27  1  0  0  0  0
M  END
$$$$

  -OEChem-05262214473D

 49 49  0     1  0  0  0  0  0999 V2000
   -1.6183    0.5613    3.8201 C   0  0  0  0  0  0  0  0  0  0  0  0
   -0.6710   -0.0534    3.3444 O   0  0  0  0  0  0  0  0  0  0  0  0
   -2.0502    0.2789    5.2208 C   0  0  0  0  0  0  0  0  0  0  0  0
   -2.8099   -0.5175    5.2742 H   0  0  0  0  0  0  0  0  0  0  0  0
   -1.2190   -0.0687    5.8551 H   0  0  0  0  0  0  0  0  0  0  0  0
   -2.4882    1.1338    5.7604 H   0  0  0  0  0  0  0  0  0  0  0  0
   -2.3680    1.5337    3.1790 N   0  0  0  0  0  0  0  0  0  0  0  0
   -2.1212    1.9597    1.8266 C   0  0  2  0  0  0  0  0  0  0  0  0
   -0.7862    1.3744    1.3854 C   0  0  0  0  0  0  0  0  0  0  0  0
    0.0859    1.0216    2.1767 O   0  0  0  0  0  0  0  0  0  0  0  0
   -2.1124    3.4765    1.7171 C   0  0  0  0  0  0  0  0  0  0  0  0
   -3.1331    1.9695    3.6908 H   0  0  0  0  0  0  0  0  0  0  0  0
   -2.9253    1.5413    1.2115 H   0  0  0  0  0  0  0  0  0  0  0  0
   -1.3133    3.9138    2.3268 H   0  0  0  0  0  0  0  0  0  0  0  0
   -1.9529    3.7988    0.6829 H   0  0  0  0  0  0  0  0  0  0  0  0
   -3.0626    3.8977    2.0629 H   0  0  0  0  0  0  0  0  0  0  0  0
   -0.6635    1.3313    0.0020 N   0  0  0  0  0  0  0  0  0  0  0  0
    0.5138    0.8305   -0.6617 C   0  0  2  0  0  0  0  0  0  0  0  0
    0.6385    1.5785   -1.9842 C   0  0  0  0  0  0  0  0  0  0  0  0
    1.4905    2.4408   -2.1875 O   0  0  0  0  0  0  0  0  0  0  0  0
    0.4404   -0.6807   -0.9090 C   0  0  0  0  0  0  0  0  0  0  0  0
    0.3998   -1.4801    0.3705 C   0  0  0  0  0  0  0  0  0  0  0  0
    1.5333   -1.6468    1.1262 N   0  0  0  0  0  0  0  0  0  0  0  0
   -0.6761   -2.1177    0.9419 C   0  0  0  0  0  0  0  0  0  0  0  0
    1.1495   -2.3789    2.1483 C   0  0  0  0  0  0  0  0  0  0  0  0
   -0.1802   -2.6893    2.0797 N   0  0  0  0  0  0  0  0  0  0  0  0
   -1.4467    1.6280   -0.5753 H   0  0  0  0  0  0  0  0  0  0  0  0
    1.3662    1.0878   -0.0221 H   0  0  0  0  0  0  0  0  0  0  0  0
    1.2912   -1.0076   -1.5220 H   0  0  0  0  0  0  0  0  0  0  0  0
   -0.4518   -0.9300   -1.4985 H   0  0  0  0  0  0  0  0  0  0  0  0
   -1.7134   -2.2160    0.6555 H   0  0  0  0  0  0  0  0  0  0  0  0
    1.7764   -2.7145    2.9623 H   0  0  0  0  0  0  0  0  0  0  0  0
   -0.7013   -3.2400    2.7489 H   0  0  0  0  0  0  0  0  0  0  0  0
   -0.2817    1.1320   -2.9225 N   0  0  0  0  0  0  0  0  0  0  0  0
   -0.3633    1.6572   -4.2664 C   0  0  2  0  0  0  0  0  0  0  0  0
   -0.4101    3.1768   -4.1754 C   0  0  0  0  0  0  0  0  0  0  0  0
   -0.7765    3.7774   -3.1674 O   0  0  0  0  0  0  0  0  0  0  0  0
   -1.5829    1.1187   -4.9979 C   0  0  0  0  0  0  0  0  0  0  0  0
   -0.9305    0.3991   -2.6509 H   0  0  0  0  0  0  0  0  0  0  0  0
    0.5529    1.3498   -4.7823 H   0  0  0  0  0  0  0  0  0  0  0  0
   -2.5105    1.4166   -4.4957 H   0  0  0  0  0  0  0  0  0  0  0  0
   -1.6277    1.4951   -6.0252 H   0  0  0  0  0  0  0  0  0  0  0  0
   -1.5625    0.0242   -5.0364 H   0  0  0  0  0  0  0  0  0  0  0  0
   -0.0358    3.7827   -5.3666 N   0  0  0  0  0  0  0  0  0  0  0  0
   -0.0104    5.2166   -5.5376 C   0  0  0  0  0  0  0  0  0  0  0  0
    0.2714    3.2071   -6.1451 H   0  0  0  0  0  0  0  0  0  0  0  0
   -0.9747    5.5550   -5.9446 H   0  0  0  0  0  0  0  0  0  0  0  0
    0.1662    5.6987   -4.5647 H   0  0  0  0  0  0  0  0  0  0  0  0
    0.7969    5.4886   -6.2335 H   0  0  0  0  0  0  0  0  0  0  0  0
 22 24  2  0  0  0  0
 24 26  1  0  0  0  0
 23 25  2  0  0  0  0
 25 26  1  0  0  0  0
 21 22  1  0  0  0  0
 22 23  1  0  0  0  0
  1  3  1  0  0  0  0
  1  7  1  0  0  0  0
  1  2  2  0  0  0  0
 35 36  1  0  0  0  0
 36 44  1  0  0  0  0
 36 37  2  0  0  0  0
  8  9  1  0  0  0  0
  9 17  1  0  0  0  0
  9 10  2  0  0  0  0
 18 19  1  0  0  0  0
 19 34  1  0  0  0  0
 19 20  2  0  0  0  0
 35 38  1  0  0  0  0
  8 11  1  0  0  0  0
 44 45  1  0  0  0  0
 18 21  1  0  0  0  0
 34 35  1  0  0  0  0
  7  8  1  0  0  0  0
 17 18  1  0  0  0  0
 24 31  1  0  0  0  0
 25 32  1  0  0  0  0
  3  4  1  0  0  0  0
  3  5  1  0  0  0  0
  3  6  1  0  0  0  0
 38 41  1  0  0  0  0
 38 42  1  0  0  0  0
 38 43  1  0  0  0  0
 11 14  1  0  0  0  0
 11 15  1  0  0  0  0
 11 16  1  0  0  0  0
 45 47  1  0  0  0  0
 45 48  1  0  0  0  0
 45 49  1  0  0  0  0
 21 29  1  0  0  0  0
 21 30  1  0  0  0  0
 35 40  1  0  0  0  0
  8 13  1  0  0  0  0
 18 28  1  0  0  0  0
 26 33  1  0  0  0  0
 44 46  1  0  0  0  0
  7 12  1  0  0  0  0
 34 39  1  0  0  0  0
 17 27  1  0  0  0  0
M  END
$$$$

  -OEChem-05262214473D

 49 49  0     1  0  0  0  0  0999 V2000
   -1.6183    0.5613    3.8201 C   0  0  0  0  0  0  0  0  0  0  0  0
   -0.6710   -0.0534    3.3444 O   0  0  0  0  0  0  0  0  0  0  0  0
   -2.0502    0.2789    5.2208 C   0  0  0  0  0  0  0  0  0  0  0  0
   -2.8099   -0.5175    5.2742 H   0  0  0  0  0  0  0  0  0  0  0  0
   -1.2190   -0.0687    5.8551 H   0  0  0  0  0  0  0  0  0  0  0  0
   -2.4882    1.1338    5.7604 H   0  0  0  0  0  0  0  0  0  0  0  0
   -2.3680    1.5337    3.1790 N   0  0  0  0  0  0  0  0  0  0  0  0
   -2.1212    1.9597    1.8266 C   0  0  2  0  0  0  0  0  0  0  0  0
   -0.7862    1.3744    1.3854 C   0  0  0  0  0  0  0  0  0  0  0  0
    0.0859    1.0216    2.1767 O   0  0  0  0  0  0  0  0  0  0  0  0
   -2.1124    3.4765    1.7171 C   0  0  0  0  0  0  0  0  0  0  0  0
   -3.1331    1.9695    3.6908 H   0  0  0  0  0  0  0  0  0  0  0  0
   -2.9253    1.5413    1.2115 H   0  0  0  0  0  0  0  0  0  0  0  0
   -1.3133    3.9138    2.3268 H   0  0  0  0  0  0  0  0  0  0  0  0
   -1.9529    3.7988    0.6829 H   0  0  0  0  0  0  0  0  0  0  0  0
   -3.0626    3.8977    2.0629 H   0  0  0  0  0  0  0  0  0  0  0  0
   -0.6635    1.3313    0.0020 N   0  0  0  0  0  0  0  0  0  0  0  0
    0.5138    0.8305   -0.6617 C   0  0  2  0  0  0  0  0  0  0  0  0
    0.6385    1.5785   -1.9842 C   0  0  0  0  0  0  0  0  0  0  0  0
    1.6312    2.2356   -2.2903 O   0  0  0  0  0  0  0  0  0  0  0  0
    0.4404   -0.6807   -0.9090 C   0  0  0  0  0  0  0  0  0  0  0  0
    0.3998   -1.4801    0.3705 C   0  0  0  0  0  0  0  0  0  0  0  0
    1.5333   -1.6468    1.1262 N   0  0  0  0  0  0  0  0  0  0  0  0
   -0.6761   -2.1177    0.9419 C   0  0  0  0  0  0  0  0  0  0  0  0
    1.1495   -2.3789    2.1483 C   0  0  0  0  0  0  0  0  0  0  0  0
   -0.1802   -2.6893    2.0797 N   0  0  0  0  0  0  0  0  0  0  0  0
   -1.4467    1.6280   -0.5753 H   0  0  0  0  0  0  0  0  0  0  0  0
    1.3662    1.0878   -0.0221 H   0  0  0  0  0  0  0  0  0  0  0  0
    1.2912   -1.0076   -1.5220 H   0  0  0  0  0  0  0  0  0  0  0  0
   -0.4518   -0.9300   -1.4985 H   0  0  0  0  0  0  0  0  0  0  0  0
   -1.7134   -2.2160    0.6555 H   0  0  0  0  0  0  0  0  0  0  0  0
    1.7764   -2.7145    2.9623 H   0  0  0  0  0  0  0  0  0  0  0  0
   -0.7013   -3.2400    2.7489 H   0  0  0  0  0  0  0  0  0  0  0  0
   -0.4683    1.3824   -2.7984 N   0  0  0  0  0  0  0  0  0  0  0  0
   -0.5958    1.9602   -4.1170 C   0  0  2  0  0  0  0  0  0  0  0  0
   -0.2865    3.4476   -4.0106 C   0  0  0  0  0  0  0  0  0  0  0  0
   -0.3792    4.0785   -2.9597 O   0  0  0  0  0  0  0  0  0  0  0  0
   -1.9870    1.7338   -4.6881 C   0  0  0  0  0  0  0  0  0  0  0  0
   -1.2269    0.8036   -2.4501 H   0  0  0  0  0  0  0  0  0  0  0  0
    0.1556    1.4746   -4.7491 H   0  0  0  0  0  0  0  0  0  0  0  0
   -2.7533    2.2131   -4.0681 H   0  0  0  0  0  0  0  0  0  0  0  0
   -2.0732    2.1472   -5.6985 H   0  0  0  0  0  0  0  0  0  0  0  0
   -2.2193    0.6645   -4.7362 H   0  0  0  0  0  0  0  0  0  0  0  0
    0.0637    3.9968   -5.2361 N   0  0  0  0  0  0  0  0  0  0  0  0
    0.3907    5.3941   -5.3994 C   0  0  0  0  0  0  0  0  0  0  0  0
    0.1334    3.3953   -6.0516 H   0  0  0  0  0  0  0  0  0  0  0  0
   -0.5152    5.9534   -5.6759 H   0  0  0  0  0  0  0  0  0  0  0  0
    0.7915    5.7896   -4.4544 H   0  0  0  0  0  0  0  0  0  0  0  0
    1.1455    5.5037   -6.1921 H   0  0  0  0  0  0  0  0  0  0  0  0
 22 24  2  0  0  0  0
 24 26  1  0  0  0  0
 23 25  2  0  0  0  0
 25 26  1  0  0  0  0
 21 22  1  0  0  0  0
 22 23  1  0  0  0  0
  1  3  1  0  0  0  0
  1  7  1  0  0  0  0
  1  2  2  0  0  0  0
 35 36  1  0  0  0  0
 36 44  1  0  0  0  0
 36 37  2  0  0  0  0
  8  9  1  0  0  0  0
  9 17  1  0  0  0  0
  9 10  2  0  0  0  0
 18 19  1  0  0  0  0
 19 34  1  0  0  0  0
 19 20  2  0  0  0  0
 35 38  1  0  0  0  0
  8 11  1  0  0  0  0
 44 45  1  0  0  0  0
 18 21  1  0  0  0  0
 34 35  1  0  0  0  0
  7  8  1  0  0  0  0
 17 18  1  0  0  0  0
 24 31  1  0  0  0  0
 25 32  1  0  0  0  0
  3  4  1  0  0  0  0
  3  5  1  0  0  0  0
  3  6  1  0  0  0  0
 38 41  1  0  0  0  0
 38 42  1  0  0  0  0
 38 43  1  0  0  0  0
 11 14  1  0  0  0  0
 11 15  1  0  0  0  0
 11 16  1  0  0  0  0
 45 47  1  0  0  0  0
 45 48  1  0  0  0  0
 45 49  1  0  0  0  0
 21 29  1  0  0  0  0
 21 30  1  0  0  0  0
 35 40  1  0  0  0  0
  8 13  1  0  0  0  0
 18 28  1  0  0  0  0
 26 33  1  0  0  0  0
 44 46  1  0  0  0  0
  7 12  1  0  0  0  0
 34 39  1  0  0  0  0
 17 27  1  0  0  0  0
M  END
$$$$

  -OEChem-05262214473D

 49 49  0     1  0  0  0  0  0999 V2000
   -1.6183    0.5613    3.8201 C   0  0  0  0  0  0  0  0  0  0  0  0
   -0.6710   -0.0534    3.3444 O   0  0  0  0  0  0  0  0  0  0  0  0
   -2.0502    0.2789    5.2208 C   0  0  0  0  0  0  0  0  0  0  0  0
   -2.8099   -0.5175    5.2742 H   0  0  0  0  0  0  0  0  0  0  0  0
   -1.2190   -0.0687    5.8551 H   0  0  0  0  0  0  0  0  0  0  0  0
   -2.4882    1.1338    5.7604 H   0  0  0  0  0  0  0  0  0  0  0  0
   -2.3680    1.5337    3.1790 N   0  0  0  0  0  0  0  0  0  0  0  0
   -2.1212    1.9597    1.8266 C   0  0  2  0  0  0  0  0  0  0  0  0
   -0.7862    1.3744    1.3854 C   0  0  0  0  0  0  0  0  0  0  0  0
    0.0859    1.0216    2.1767 O   0  0  0  0  0  0  0  0  0  0  0  0
   -2.1124    3.4765    1.7171 C   0  0  0  0  0  0  0  0  0  0  0  0
   -3.1331    1.9695    3.6908 H   0  0  0  0  0  0  0  0  0  0  0  0
   -2.9253    1.5413    1.2115 H   0  0  0  0  0  0  0  0  0  0  0  0
   -1.3133    3.9138    2.3268 H   0  0  0  0  0  0  0  0  0  0  0  0
   -1.9529    3.7988    0.6829 H   0  0  0  0  0  0  0  0  0  0  0  0
   -3.0626    3.8977    2.0629 H   0  0  0  0  0  0  0  0  0  0  0  0
   -0.6635    1.3313    0.0020 N   0  0  0  0  0  0  0  0  0  0  0  0
    0.5138    0.8305   -0.6617 C   0  0  2  0  0  0  0  0  0  0  0  0
    0.6385    1.5785   -1.9842 C   0  0  0  0  0  0  0  0  0  0  0  0
    1.7079    2.0080   -2.4117 O   0  0  0  0  0  0  0  0  0  0  0  0
    0.4404   -0.6807   -0.9090 C   0  0  0  0  0  0  0  0  0  0  0  0
    0.3998   -1.4801    0.3705 C   0  0  0  0  0  0  0  0  0  0  0  0
    1.5333   -1.6468    1.1262 N   0  0  0  0  0  0  0  0  0  0  0  0
   -0.6761   -2.1177    0.9419 C   0  0  0  0  0  0  0  0  0  0  0  0
    1.1495   -2.3789    2.1483 C   0  0  0  0  0  0  0  0  0  0  0  0
   -0.1802   -2.6893    2.0797 N   0  0  0  0  0  0  0  0  0  0  0  0
   -1.4467    1.6280   -0.5753 H   0  0  0  0  0  0  0  0  0  0  0  0
    1.3662    1.0878   -0.0221 H   0  0  0  0  0  0  0  0  0  0  0  0
    1.2912   -1.0076   -1.5220 H   0  0  0  0  0  0  0  0  0  0  0  0
   -0.4518   -0.9300   -1.4985 H   0  0  0  0  0  0  0  0  0  0  0  0
   -1.7134   -2.2160    0.6555 H   0  0  0  0  0  0  0  0  0  0  0  0
    1.7764   -2.7145    2.9623 H   0  0  0  0  0  0  0  0  0  0  0  0
   -0.7013   -3.2400    2.7489 H   0  0  0  0  0  0  0  0  0  0  0  0
   -0.5766    1.6635   -2.6497 N   0  0  0  0  0  0  0  0  0  0  0  0
   -0.7335    2.3019   -3.9368 C   0  0  2  0  0  0  0  0  0  0  0  0
   -0.0854    3.6780   -3.8613 C   0  0  0  0  0  0  0  0  0  0  0  0
    0.0985    4.2758   -2.8031 O   0  0  0  0  0  0  0  0  0  0  0  0
   -2.1998    2.4122   -4.3246 C   0  0  0  0  0  0  0  0  0  0  0  0
   -1.3968    1.2565   -2.2099 H   0  0  0  0  0  0  0  0  0  0  0  0
   -0.1959    1.6837   -4.6640 H   0  0  0  0  0  0  0  0  0  0  0  0
   -2.7548    3.0280   -3.6074 H   0  0  0  0  0  0  0  0  0  0  0  0
   -2.3156    2.8701   -5.3125 H   0  0  0  0  0  0  0  0  0  0  0  0
   -2.6719    1.4241   -4.3493 H   0  0  0  0  0  0  0  0  0  0  0  0
    0.2244    4.1786   -5.1182 N   0  0  0  0  0  0  0  0  0  0  0  0
    0.8357    5.4725   -5.3130 C   0  0  0  0  0  0  0  0  0  0  0  0
    0.0542    3.6062   -5.9398 H   0  0  0  0  0  0  0  0  0  0  0  0
    0.0523    6.2294   -5.4663 H   0  0  0  0  0  0  0  0  0  0  0  0
    1.4299    5.7346   -4.4252 H   0  0  0  0  0  0  0  0  0  0  0  0
    1.4909    5.4391   -6.1960 H   0  0  0  0  0  0  0  0  0  0  0  0
 22 24  2  0  0  0  0
 24 26  1  0  0  0  0
 23 25  2  0  0  0  0
 25 26  1  0  0  0  0
 21 22  1  0  0  0  0
 22 23  1  0  0  0  0
  1  3  1  0  0  0  0
  1  7  1  0  0  0  0
  1  2  2  0  0  0  0
 35 36  1  0  0  0  0
 36 44  1  0  0  0  0
 36 37  2  0  0  0  0
  8  9  1  0  0  0  0
  9 17  1  0  0  0  0
  9 10  2  0  0  0  0
 18 19  1  0  0  0  0
 19 34  1  0  0  0  0
 19 20  2  0  0  0  0
 35 38  1  0  0  0  0
  8 11  1  0  0  0  0
 44 45  1  0  0  0  0
 18 21  1  0  0  0  0
 34 35  1  0  0  0  0
  7  8  1  0  0  0  0
 17 18  1  0  0  0  0
 24 31  1  0  0  0  0
 25 32  1  0  0  0  0
  3  4  1  0  0  0  0
  3  5  1  0  0  0  0
  3  6  1  0  0  0  0
 38 41  1  0  0  0  0
 38 42  1  0  0  0  0
 38 43  1  0  0  0  0
 11 14  1  0  0  0  0
 11 15  1  0  0  0  0
 11 16  1  0  0  0  0
 45 47  1  0  0  0  0
 45 48  1  0  0  0  0
 45 49  1  0  0  0  0
 21 29  1  0  0  0  0
 21 30  1  0  0  0  0
 35 40  1  0  0  0  0
  8 13  1  0  0  0  0
 18 28  1  0  0  0  0
 26 33  1  0  0  0  0
 44 46  1  0  0  0  0
  7 12  1  0  0  0  0
 34 39  1  0  0  0  0
 17 27  1  0  0  0  0
M  END
$$$$

  -OEChem-05262214473D

 49 49  0     1  0  0  0  0  0999 V2000
   -1.6183    0.5613    3.8201 C   0  0  0  0  0  0  0  0  0  0  0  0
   -0.6710   -0.0534    3.3444 O   0  0  0  0  0  0  0  0  0  0  0  0
   -2.0502    0.2789    5.2208 C   0  0  0  0  0  0  0  0  0  0  0  0
   -2.8099   -0.5175    5.2742 H   0  0  0  0  0  0  0  0  0  0  0  0
   -1.2190   -0.0687    5.8551 H   0  0  0  0  0  0  0  0  0  0  0  0
   -2.4882    1.1338    5.7604 H   0  0  0  0  0  0  0  0  0  0  0  0
   -2.3680    1.5337    3.1790 N   0  0  0  0  0  0  0  0  0  0  0  0
   -2.1212    1.9597    1.8266 C   0  0  2  0  0  0  0  0  0  0  0  0
   -0.7862    1.3744    1.3854 C   0  0  0  0  0  0  0  0  0  0  0  0
    0.0859    1.0216    2.1767 O   0  0  0  0  0  0  0  0  0  0  0  0
   -2.1124    3.4765    1.7171 C   0  0  0  0  0  0  0  0  0  0  0  0
   -3.1331    1.9695    3.6908 H   0  0  0  0  0  0  0  0  0  0  0  0
   -2.9253    1.5413    1.2115 H   0  0  0  0  0  0  0  0  0  0  0  0
   -1.3133    3.9138    2.3268 H   0  0  0  0  0  0  0  0  0  0  0  0
   -1.9529    3.7988    0.6829 H   0  0  0  0  0  0  0  0  0  0  0  0
   -3.0626    3.8977    2.0629 H   0  0  0  0  0  0  0  0  0  0  0  0
   -0.6635    1.3313    0.0020 N   0  0  0  0  0  0  0  0  0  0  0  0
    0.5138    0.8305   -0.6617 C   0  0  2  0  0  0  0  0  0  0  0  0
    0.6385    1.5785   -1.9842 C   0  0  0  0  0  0  0  0  0  0  0  0
    1.7155    1.7735   -2.5437 O   0  0  0  0  0  0  0  0  0  0  0  0
    0.4404   -0.6807   -0.9090 C   0  0  0  0  0  0  0  0  0  0  0  0
    0.3998   -1.4801    0.3705 C   0  0  0  0  0  0  0  0  0  0  0  0
    1.5333   -1.6468    1.1262 N   0  0  0  0  0  0  0  0  0  0  0  0
   -0.6761   -2.1177    0.9419 C   0  0  0  0  0  0  0  0  0  0  0  0
    1.1495   -2.3789    2.1483 C   0  0  0  0  0  0  0  0  0  0  0  0
   -0.1802   -2.6893    2.0797 N   0  0  0  0  0  0  0  0  0  0  0  0
   -1.4467    1.6280   -0.5753 H   0  0  0  0  0  0  0  0  0  0  0  0
    1.3662    1.0878   -0.0221 H   0  0  0  0  0  0  0  0  0  0  0  0
    1.2912   -1.0076   -1.5220 H   0  0  0  0  0  0  0  0  0  0  0  0
   -0.4518   -0.9300   -1.4985 H   0  0  0  0  0  0  0  0  0  0  0  0
   -1.7134   -2.2160    0.6555 H   0  0  0  0  0  0  0  0  0  0  0  0
    1.7764   -2.7145    2.9623 H   0  0  0  0  0  0  0  0  0  0  0  0
   -0.7013   -3.2400    2.7489 H   0  0  0  0  0  0  0  0  0  0  0  0
   -0.5991    1.9562   -2.4862 N   0  0  0  0  0  0  0  0  0  0  0  0
   -0.7669    2.6590   -3.7379 C   0  0  2  0  0  0  0  0  0  0  0  0
    0.1796    3.8522   -3.7378 C   0  0  0  0  0  0  0  0  0  0  0  0
    0.6241    4.3557   -2.7083 O   0  0  0  0  0  0  0  0  0  0  0  0
   -2.2070    3.1075   -3.9320 C   0  0  0  0  0  0  0  0  0  0  0  0
   -1.4288    1.7271   -1.9468 H   0  0  0  0  0  0  0  0  0  0  0  0
   -0.4777    1.9628   -4.5328 H   0  0  0  0  0  0  0  0  0  0  0  0
   -2.5147    3.8057   -3.1449 H   0  0  0  0  0  0  0  0  0  0  0  0
   -2.3384    3.6147   -4.8935 H   0  0  0  0  0  0  0  0  0  0  0  0
   -2.8893    2.2512   -3.9020 H   0  0  0  0  0  0  0  0  0  0  0  0
    0.4353    4.3155   -5.0208 N   0  0  0  0  0  0  0  0  0  0  0  0
    1.2940    5.4466   -5.2845 C   0  0  0  0  0  0  0  0  0  0  0  0
    0.0393    3.8252   -5.8174 H   0  0  0  0  0  0  0  0  0  0  0  0
    0.6890    6.3641   -5.3301 H   0  0  0  0  0  0  0  0  0  0  0  0
    2.0379    5.5376   -4.4793 H   0  0  0  0  0  0  0  0  0  0  0  0
    1.8095    5.2993   -6.2450 H   0  0  0  0  0  0  0  0  0  0  0  0
 22 24  2  0  0  0  0
 24 26  1  0  0  0  0
 23 25  2  0  0  0  0
 25 26  1  0  0  0  0
 21 22  1  0  0  0  0
 22 23  1  0  0  0  0
  1  3  1  0  0  0  0
  1  7  1  0  0  0  0
  1  2  2  0  0  0  0
 35 36  1  0  0  0  0
 36 44  1  0  0  0  0
 36 37  2  0  0  0  0
  8  9  1  0  0  0  0
  9 17  1  0  0  0  0
  9 10  2  0  0  0  0
 18 19  1  0  0  0  0
 19 34  1  0  0  0  0
 19 20  2  0  0  0  0
 35 38  1  0  0  0  0
  8 11  1  0  0  0  0
 44 45  1  0  0  0  0
 18 21  1  0  0  0  0
 34 35  1  0  0  0  0
  7  8  1  0  0  0  0
 17 18  1  0  0  0  0
 24 31  1  0  0  0  0
 25 32  1  0  0  0  0
  3  4  1  0  0  0  0
  3  5  1  0  0  0  0
  3  6  1  0  0  0  0
 38 41  1  0  0  0  0
 38 42  1  0  0  0  0
 38 43  1  0  0  0  0
 11 14  1  0  0  0  0
 11 15  1  0  0  0  0
 11 16  1  0  0  0  0
 45 47  1  0  0  0  0
 45 48  1  0  0  0  0
 45 49  1  0  0  0  0
 21 29  1  0  0  0  0
 21 30  1  0  0  0  0
 35 40  1  0  0  0  0
  8 13  1  0  0  0  0
 18 28  1  0  0  0  0
 26 33  1  0  0  0  0
 44 46  1  0  0  0  0
  7 12  1  0  0  0  0
 34 39  1  0  0  0  0
 17 27  1  0  0  0  0
M  END
$$$$

  -OEChem-05262214473D

 49 49  0     1  0  0  0  0  0999 V2000
   -1.6183    0.5613    3.8201 C   0  0  0  0  0  0  0  0  0  0  0  0
   -0.6710   -0.0534    3.3444 O   0  0  0  0  0  0  0  0  0  0  0  0
   -2.0502    0.2789    5.2208 C   0  0  0  0  0  0  0  0  0  0  0  0
   -2.8099   -0.5175    5.2742 H   0  0  0  0  0  0  0  0  0  0  0  0
   -1.2190   -0.0687    5.8551 H   0  0  0  0  0  0  0  0  0  0  0  0
   -2.4882    1.1338    5.7604 H   0  0  0  0  0  0  0  0  0  0  0  0
   -2.3680    1.5337    3.1790 N   0  0  0  0  0  0  0  0  0  0  0  0
   -2.1212    1.9597    1.8266 C   0  0  2  0  0  0  0  0  0  0  0  0
   -0.7862    1.3744    1.3854 C   0  0  0  0  0  0  0  0  0  0  0  0
    0.0859    1.0216    2.1767 O   0  0  0  0  0  0  0  0  0  0  0  0
   -2.1124    3.4765    1.7171 C   0  0  0  0  0  0  0  0  0  0  0  0
   -3.1331    1.9695    3.6908 H   0  0  0  0  0  0  0  0  0  0  0  0
   -2.9253    1.5413    1.2115 H   0  0  0  0  0  0  0  0  0  0  0  0
   -1.3133    3.9138    2.3268 H   0  0  0  0  0  0  0  0  0  0  0  0
   -1.9529    3.7988    0.6829 H   0  0  0  0  0  0  0  0  0  0  0  0
   -3.0626    3.8977    2.0629 H   0  0  0  0  0  0  0  0  0  0  0  0
   -0.6635    1.3313    0.0020 N   0  0  0  0  0  0  0  0  0  0  0  0
    0.5138    0.8305   -0.6617 C   0  0  2  0  0  0  0  0  0  0  0  0
    0.6385    1.5785   -1.9842 C   0  0  0  0  0  0  0  0  0  0  0  0
    1.6534    1.5480   -2.6770 O   0  0  0  0  0  0  0  0  0  0  0  0
    0.4404   -0.6807   -0.9090 C   0  0  0  0  0  0  0  0  0  0  0  0
    0.3998   -1.4801    0.3705 C   0  0  0  0  0  0  0  0  0  0  0  0
    1.5333   -1.6468    1.1262 N   0  0  0  0  0  0  0  0  0  0  0  0
   -0.6761   -2.1177    0.9419 C   0  0  0  0  0  0  0  0  0  0  0  0
    1.1495   -2.3789    2.1483 C   0  0  0  0  0  0  0  0  0  0  0  0
   -0.1802   -2.6893    2.0797 N   0  0  0  0  0  0  0  0  0  0  0  0
   -1.4467    1.6280   -0.5753 H   0  0  0  0  0  0  0  0  0  0  0  0
    1.3662    1.0878   -0.0221 H   0  0  0  0  0  0  0  0  0  0  0  0
    1.2912   -1.0076   -1.5220 H   0  0  0  0  0  0  0  0  0  0  0  0
   -0.4518   -0.9300   -1.4985 H   0  0  0  0  0  0  0  0  0  0  0  0
   -1.7134   -2.2160    0.6555 H   0  0  0  0  0  0  0  0  0  0  0  0
    1.7764   -2.7145    2.9623 H   0  0  0  0  0  0  0  0  0  0  0  0
   -0.7013   -3.2400    2.7489 H   0  0  0  0  0  0  0  0  0  0  0  0
   -0.5345    2.2405   -2.3193 N   0  0  0  0  0  0  0  0  0  0  0  0
   -0.6937    3.0072   -3.5341 C   0  0  2  0  0  0  0  0  0  0  0  0
    0.4903    3.9583   -3.6485 C   0  0  0  0  0  0  0  0  0  0  0  0
    1.1617    4.3129   -2.6818 O   0  0  0  0  0  0  0  0  0  0  0  0
   -2.0079    3.7725   -3.5371 C   0  0  0  0  0  0  0  0  0  0  0  0
   -1.3206    2.1833   -1.6786 H   0  0  0  0  0  0  0  0  0  0  0  0
   -0.6706    2.2929   -4.3643 H   0  0  0  0  0  0  0  0  0  0  0  0
   -2.0494    4.4931   -2.7123 H   0  0  0  0  0  0  0  0  0  0  0  0
   -2.1401    4.3302   -4.4702 H   0  0  0  0  0  0  0  0  0  0  0  0
   -2.8568    3.0895   -3.4248 H   0  0  0  0  0  0  0  0  0  0  0  0
    0.6823    4.3984   -4.9506 N   0  0  0  0  0  0  0  0  0  0  0  0
    1.7345    5.3180   -5.3157 C   0  0  0  0  0  0  0  0  0  0  0  0
    0.0897    4.0376   -5.6925 H   0  0  0  0  0  0  0  0  0  0  0  0
    1.3516    6.3484   -5.2765 H   0  0  0  0  0  0  0  0  0  0  0  0
    2.5741    5.2119   -4.6130 H   0  0  0  0  0  0  0  0  0  0  0  0
    2.0796    5.0938   -6.3358 H   0  0  0  0  0  0  0  0  0  0  0  0
 22 24  2  0  0  0  0
 24 26  1  0  0  0  0
 23 25  2  0  0  0  0
 25 26  1  0  0  0  0
 21 22  1  0  0  0  0
 22 23  1  0  0  0  0
  1  3  1  0  0  0  0
  1  7  1  0  0  0  0
  1  2  2  0  0  0  0
 35 36  1  0  0  0  0
 36 44  1  0  0  0  0
 36 37  2  0  0  0  0
  8  9  1  0  0  0  0
  9 17  1  0  0  0  0
  9 10  2  0  0  0  0
 18 19  1  0  0  0  0
 19 34  1  0  0  0  0
 19 20  2  0  0  0  0
 35 38  1  0  0  0  0
  8 11  1  0  0  0  0
 44 45  1  0  0  0  0
 18 21  1  0  0  0  0
 34 35  1  0  0  0  0
  7  8  1  0  0  0  0
 17 18  1  0  0  0  0
 24 31  1  0  0  0  0
 25 32  1  0  0  0  0
  3  4  1  0  0  0  0
  3  5  1  0  0  0  0
  3  6  1  0  0  0  0
 38 41  1  0  0  0  0
 38 42  1  0  0  0  0
 38 43  1  0  0  0  0
 11 14  1  0  0  0  0
 11 15  1  0  0  0  0
 11 16  1  0  0  0  0
 45 47  1  0  0  0  0
 45 48  1  0  0  0  0
 45 49  1  0  0  0  0
 21 29  1  0  0  0  0
 21 30  1  0  0  0  0
 35 40  1  0  0  0  0
  8 13  1  0  0  0  0
 18 28  1  0  0  0  0
 26 33  1  0  0  0  0
 44 46  1  0  0  0  0
  7 12  1  0  0  0  0
 34 39  1  0  0  0  0
 17 27  1  0  0  0  0
M  END
$$$$

  -OEChem-05262214473D

 49 49  0     1  0  0  0  0  0999 V2000
   -1.6183    0.5613    3.8201 C   0  0  0  0  0  0  0  0  0  0  0  0
   -0.6710   -0.0534    3.3444 O   0  0  0  0  0  0  0  0  0  0  0  0
   -2.0502    0.2789    5.2208 C   0  0  0  0  0  0  0  0  0  0  0  0
   -2.8099   -0.5175    5.2742 H   0  0  0  0  0  0  0  0  0  0  0  0
   -1.2190   -0.0687    5.8551 H   0  0  0  0  0  0  0  0  0  0  0  0
   -2.4882    1.1338    5.7604 H   0  0  0  0  0  0  0  0  0  0  0  0
   -2.3680    1.5337    3.1790 N   0  0  0  0  0  0  0  0  0  0  0  0
   -2.1212    1.9597    1.8266 C   0  0  2  0  0  0  0  0  0  0  0  0
   -0.7862    1.3744    1.3854 C   0  0  0  0  0  0  0  0  0  0  0  0
    0.0859    1.0216    2.1767 O   0  0  0  0  0  0  0  0  0  0  0  0
   -2.1124    3.4765    1.7171 C   0  0  0  0  0  0  0  0  0  0  0  0
   -3.1331    1.9695    3.6908 H   0  0  0  0  0  0  0  0  0  0  0  0
   -2.9253    1.5413    1.2115 H   0  0  0  0  0  0  0  0  0  0  0  0
   -1.3133    3.9138    2.3268 H   0  0  0  0  0  0  0  0  0  0  0  0
   -1.9529    3.7988    0.6829 H   0  0  0  0  0  0  0  0  0  0  0  0
   -3.0626    3.8977    2.0629 H   0  0  0  0  0  0  0  0  0  0  0  0
   -0.6635    1.3313    0.0020 N   0  0  0  0  0  0  0  0  0  0  0  0
    0.5138    0.8305   -0.6617 C   0  0  2  0  0  0  0  0  0  0  0  0
    0.6385    1.5785   -1.9842 C   0  0  0  0  0  0  0  0  0  0  0  0
    1.5259    1.3470   -2.8027 O   0  0  0  0  0  0  0  0  0  0  0  0
    0.4404   -0.6807   -0.9090 C   0  0  0  0  0  0  0  0  0  0  0  0
    0.3998   -1.4801    0.3705 C   0  0  0  0  0  0  0  0  0  0  0  0
    1.5333   -1.6468    1.1262 N   0  0  0  0  0  0  0  0  0  0  0  0
   -0.6761   -2.1177    0.9419 C   0  0  0  0  0  0  0  0  0  0  0  0
    1.1495   -2.3789    2.1483 C   0  0  0  0  0  0  0  0  0  0  0  0
   -0.1802   -2.6893    2.0797 N   0  0  0  0  0  0  0  0  0  0  0  0
   -1.4467    1.6280   -0.5753 H   0  0  0  0  0  0  0  0  0  0  0  0
    1.3662    1.0878   -0.0221 H   0  0  0  0  0  0  0  0  0  0  0  0
    1.2912   -1.0076   -1.5220 H   0  0  0  0  0  0  0  0  0  0  0  0
   -0.4518   -0.9300   -1.4985 H   0  0  0  0  0  0  0  0  0  0  0  0
   -1.7134   -2.2160    0.6555 H   0  0  0  0  0  0  0  0  0  0  0  0
    1.7764   -2.7145    2.9623 H   0  0  0  0  0  0  0  0  0  0  0  0
   -0.7013   -3.2400    2.7489 H   0  0  0  0  0  0  0  0  0  0  0  0
   -0.3870    2.4971   -2.1603 N   0  0  0  0  0  0  0  0  0  0  0  0
   -0.5189    3.3229   -3.3391 C   0  0  2  0  0  0  0  0  0  0  0  0
    0.8256    3.9892   -3.5994 C   0  0  0  0  0  0  0  0  0  0  0  0
    1.6748    4.1503   -2.7253 O   0  0  0  0  0  0  0  0  0  0  0  0
   -1.6161    4.3617   -3.1670 C   0  0  0  0  0  0  0  0  0  0  0  0
   -1.0796    2.5939   -1.4236 H   0  0  0  0  0  0  0  0  0  0  0  0
   -0.7614    2.6515   -4.1700 H   0  0  0  0  0  0  0  0  0  0  0  0
   -1.3907    5.0435   -2.3388 H   0  0  0  0  0  0  0  0  0  0  0  0
   -1.7341    4.9677   -4.0713 H   0  0  0  0  0  0  0  0  0  0  0  0
   -2.5766    3.8818   -2.9503 H   0  0  0  0  0  0  0  0  0  0  0  0
    0.9483    4.4215   -4.9125 N   0  0  0  0  0  0  0  0  0  0  0  0
    2.1271    5.0955   -5.4045 C   0  0  0  0  0  0  0  0  0  0  0  0
    0.2018    4.2287   -5.5738 H   0  0  0  0  0  0  0  0  0  0  0  0
    1.9949    6.1833   -5.3092 H   0  0  0  0  0  0  0  0  0  0  0  0
    3.0019    4.7798   -4.8170 H   0  0  0  0  0  0  0  0  0  0  0  0
    2.2829    4.8365   -6.4622 H   0  0  0  0  0  0  0  0  0  0  0  0
 22 24  2  0  0  0  0
 24 26  1  0  0  0  0
 23 25  2  0  0  0  0
 25 26  1  0  0  0  0
 21 22  1  0  0  0  0
 22 23  1  0  0  0  0
  1  3  1  0  0  0  0
  1  7  1  0  0  0  0
  1  2  2  0  0  0  0
 35 36  1  0  0  0  0
 36 44  1  0  0  0  0
 36 37  2  0  0  0  0
  8  9  1  0  0  0  0
  9 17  1  0  0  0  0
  9 10  2  0  0  0  0
 18 19  1  0  0  0  0
 19 34  1  0  0  0  0
 19 20  2  0  0  0  0
 35 38  1  0  0  0  0
  8 11  1  0  0  0  0
 44 45  1  0  0  0  0
 18 21  1  0  0  0  0
 34 35  1  0  0  0  0
  7  8  1  0  0  0  0
 17 18  1  0  0  0  0
 24 31  1  0  0  0  0
 25 32  1  0  0  0  0
  3  4  1  0  0  0  0
  3  5  1  0  0  0  0
  3  6  1  0  0  0  0
 38 41  1  0  0  0  0
 38 42  1  0  0  0  0
 38 43  1  0  0  0  0
 11 14  1  0  0  0  0
 11 15  1  0  0  0  0
 11 16  1  0  0  0  0
 45 47  1  0  0  0  0
 45 48  1  0  0  0  0
 45 49  1  0  0  0  0
 21 29  1  0  0  0  0
 21 30  1  0  0  0  0
 35 40  1  0  0  0  0
  8 13  1  0  0  0  0
 18 28  1  0  0  0  0
 26 33  1  0  0  0  0
 44 46  1  0  0  0  0
  7 12  1  0  0  0  0
 34 39  1  0  0  0  0
 17 27  1  0  0  0  0
M  END
$$$$

  -OEChem-05262214473D

 49 49  0     1  0  0  0  0  0999 V2000
   -1.6183    0.5613    3.8201 C   0  0  0  0  0  0  0  0  0  0  0  0
   -0.6710   -0.0534    3.3444 O   0  0  0  0  0  0  0  0  0  0  0  0
   -2.0502    0.2789    5.2208 C   0  0  0  0  0  0  0  0  0  0  0  0
   -2.8099   -0.5175    5.2742 H   0  0  0  0  0  0  0  0  0  0  0  0
   -1.2190   -0.0687    5.8551 H   0  0  0  0  0  0  0  0  0  0  0  0
   -2.4882    1.1338    5.7604 H   0  0  0  0  0  0  0  0  0  0  0  0
   -2.3680    1.5337    3.1790 N   0  0  0  0  0  0  0  0  0  0  0  0
   -2.1212    1.9597    1.8266 C   0  0  2  0  0  0  0  0  0  0  0  0
   -0.7862    1.3744    1.3854 C   0  0  0  0  0  0  0  0  0  0  0  0
    0.0859    1.0216    2.1767 O   0  0  0  0  0  0  0  0  0  0  0  0
   -2.1124    3.4765    1.7171 C   0  0  0  0  0  0  0  0  0  0  0  0
   -3.1331    1.9695    3.6908 H   0  0  0  0  0  0  0  0  0  0  0  0
   -2.9253    1.5413    1.2115 H   0  0  0  0  0  0  0  0  0  0  0  0
   -1.3133    3.9138    2.3268 H   0  0  0  0  0  0  0  0  0  0  0  0
   -1.9529    3.7988    0.6829 H   0  0  0  0  0  0  0  0  0  0  0  0
   -3.0626    3.8977    2.0629 H   0  0  0  0  0  0  0  0  0  0  0  0
   -0.6635    1.3313    0.0020 N   0  0  0  0  0  0  0  0  0  0  0  0
    0.5138    0.8305   -0.6617 C   0  0  2  0  0  0  0  0  0  0  0  0
    0.6385    1.5785   -1.9842 C   0  0  0  0  0  0  0  0  0  0  0  0
    1.3416    1.1842   -2.9122 O   0  0  0  0  0  0  0  0  0  0  0  0
    0.4404   -0.6807   -0.9090 C   0  0  0  0  0  0  0  0  0  0  0  0
    0.3998   -1.4801    0.3705 C   0  0  0  0  0  0  0  0  0  0  0  0
    1.5333   -1.6468    1.1262 N   0  0  0  0  0  0  0  0  0  0  0  0
   -0.6761   -2.1177    0.9419 C   0  0  0  0  0  0  0  0  0  0  0  0
    1.1495   -2.3789    2.1483 C   0  0  0  0  0  0  0  0  0  0  0  0
   -0.1802   -2.6893    2.0797 N   0  0  0  0  0  0  0  0  0  0  0  0
   -1.4467    1.6280   -0.5753 H   0  0  0  0  0  0  0  0  0  0  0  0
    1.3662    1.0878   -0.0221 H   0  0  0  0  0  0  0  0  0  0  0  0
    1.2912   -1.0076   -1.5220 H   0  0  0  0  0  0  0  0  0  0  0  0
   -0.4518   -0.9300   -1.4985 H   0  0  0  0  0  0  0  0  0  0  0  0
   -1.7134   -2.2160    0.6555 H   0  0  0  0  0  0  0  0  0  0  0  0
    1.7764   -2.7145    2.9623 H   0  0  0  0  0  0  0  0  0  0  0  0
   -0.7013   -3.2400    2.7489 H   0  0  0  0  0  0  0  0  0  0  0  0
   -0.1667    2.7085   -2.0200 N   0  0  0  0  0  0  0  0  0  0  0  0
   -0.2544    3.5844   -3.1662 C   0  0  2  0  0  0  0  0  0  0  0  0
    1.1627    3.9427   -3.5939 C   0  0  0  0  0  0  0  0  0  0  0  0
    2.1284    3.8789   -2.8360 O   0  0  0  0  0  0  0  0  0  0  0  0
   -1.0584    4.8350   -2.8467 C   0  0  0  0  0  0  0  0  0  0  0  0
   -0.7222    2.9310   -1.1993 H   0  0  0  0  0  0  0  0  0  0  0  0
   -0.7439    3.0141   -3.9633 H   0  0  0  0  0  0  0  0  0  0  0  0
   -0.5835    5.4194   -2.0501 H   0  0  0  0  0  0  0  0  0  0  0  0
   -1.1482    5.4840   -3.7240 H   0  0  0  0  0  0  0  0  0  0  0  0
   -2.0678    4.5742   -2.5107 H   0  0  0  0  0  0  0  0  0  0  0  0
    1.2153    4.3833   -4.9089 N   0  0  0  0  0  0  0  0  0  0  0  0
    2.4452    4.7943   -5.5448 C   0  0  0  0  0  0  0  0  0  0  0  0
    0.3681    4.3857   -5.4694 H   0  0  0  0  0  0  0  0  0  0  0  0
    2.5750    5.8801   -5.4259 H   0  0  0  0  0  0  0  0  0  0  0  0
    3.2922    4.2706   -5.0776 H   0  0  0  0  0  0  0  0  0  0  0  0
    2.4054    4.5450   -6.6154 H   0  0  0  0  0  0  0  0  0  0  0  0
 22 24  2  0  0  0  0
 24 26  1  0  0  0  0
 23 25  2  0  0  0  0
 25 26  1  0  0  0  0
 21 22  1  0  0  0  0
 22 23  1  0  0  0  0
  1  3  1  0  0  0  0
  1  7  1  0  0  0  0
  1  2  2  0  0  0  0
 35 36  1  0  0  0  0
 36 44  1  0  0  0  0
 36 37  2  0  0  0  0
  8  9  1  0  0  0  0
  9 17  1  0  0  0  0
  9 10  2  0  0  0  0
 18 19  1  0  0  0  0
 19 34  1  0  0  0  0
 19 20  2  0  0  0  0
 35 38  1  0  0  0  0
  8 11  1  0  0  0  0
 44 45  1  0  0  0  0
 18 21  1  0  0  0  0
 34 35  1  0  0  0  0
  7  8  1  0  0  0  0
 17 18  1  0  0  0  0
 24 31  1  0  0  0  0
 25 32  1  0  0  0  0
  3  4  1  0  0  0  0
  3  5  1  0  0  0  0
  3  6  1  0  0  0  0
 38 41  1  0  0  0  0
 38 42  1  0  0  0  0
 38 43  1  0  0  0  0
 11 14  1  0  0  0  0
 11 15  1  0  0  0  0
 11 16  1  0  0  0  0
 45 47  1  0  0  0  0
 45 48  1  0  0  0  0
 45 49  1  0  0  0  0
 21 29  1  0  0  0  0
 21 30  1  0  0  0  0
 35 40  1  0  0  0  0
  8 13  1  0  0  0  0
 18 28  1  0  0  0  0
 26 33  1  0  0  0  0
 44 46  1  0  0  0  0
  7 12  1  0  0  0  0
 34 39  1  0  0  0  0
 17 27  1  0  0  0  0
M  END
$$$$

  -OEChem-05262214473D

 49 49  0     1  0  0  0  0  0999 V2000
   -1.6183    0.5613    3.8201 C   0  0  0  0  0  0  0  0  0  0  0  0
   -0.6710   -0.0534    3.3444 O   0  0  0  0  0  0  0  0  0  0  0  0
   -2.0502    0.2789    5.2208 C   0  0  0  0  0  0  0  0  0  0  0  0
   -2.8099   -0.5175    5.2742 H   0  0  0  0  0  0  0  0  0  0  0  0
   -1.2190   -0.0687    5.8551 H   0  0  0  0  0  0  0  0  0  0  0  0
   -2.4882    1.1338    5.7604 H   0  0  0  0  0  0  0  0  0  0  0  0
   -2.3680    1.5337    3.1790 N   0  0  0  0  0  0  0  0  0  0  0  0
   -2.1212    1.9597    1.8266 C   0  0  2  0  0  0  0  0  0  0  0  0
   -0.7862    1.3744    1.3854 C   0  0  0  0  0  0  0  0  0  0  0  0
    0.0859    1.0216    2.1767 O   0  0  0  0  0  0  0  0  0  0  0  0
   -2.1124    3.4765    1.7171 C   0  0  0  0  0  0  0  0  0  0  0  0
   -3.1331    1.9695    3.6908 H   0  0  0  0  0  0  0  0  0  0  0  0
   -2.9253    1.5413    1.2115 H   0  0  0  0  0  0  0  0  0  0  0  0
   -1.3133    3.9138    2.3268 H   0  0  0  0  0  0  0  0  0  0  0  0
   -1.9529    3.7988    0.6829 H   0  0  0  0  0  0  0  0  0  0  0  0
   -3.0626    3.8977    2.0629 H   0  0  0  0  0  0  0  0  0  0  0  0
   -0.6635    1.3313    0.0020 N   0  0  0  0  0  0  0  0  0  0  0  0
    0.5138    0.8305   -0.6617 C   0  0  2  0  0  0  0  0  0  0  0  0
    0.6385    1.5785   -1.9842 C   0  0  0  0  0  0  0  0  0  0  0  0
    1.1131    1.0706   -2.9980 O   0  0  0  0  0  0  0  0  0  0  0  0
    0.4404   -0.6807   -0.9090 C   0  0  0  0  0  0  0  0  0  0  0  0
    0.3998   -1.4801    0.3705 C   0  0  0  0  0  0  0  0  0  0  0  0
    1.5333   -1.6468    1.1262 N   0  0  0  0  0  0  0  0  0  0  0  0
   -0.6761   -2.1177    0.9419 C   0  0  0  0  0  0  0  0  0  0  0  0
    1.1495   -2.3789    2.1483 C   0  0  0  0  0  0  0  0  0  0  0  0
   -0.1802   -2.6893    2.0797 N   0  0  0  0  0  0  0  0  0  0  0  0
   -1.4467    1.6280   -0.5753 H   0  0  0  0  0  0  0  0  0  0  0  0
    1.3662    1.0878   -0.0221 H   0  0  0  0  0  0  0  0  0  0  0  0
    1.2912   -1.0076   -1.5220 H   0  0  0  0  0  0  0  0  0  0  0  0
   -0.4518   -0.9300   -1.4985 H   0  0  0  0  0  0  0  0  0  0  0  0
   -1.7134   -2.2160    0.6555 H   0  0  0  0  0  0  0  0  0  0  0  0
    1.7764   -2.7145    2.9623 H   0  0  0  0  0  0  0  0  0  0  0  0
   -0.7013   -3.2400    2.7489 H   0  0  0  0  0  0  0  0  0  0  0  0
    0.1114    2.8602   -1.9080 N   0  0  0  0  0  0  0  0  0  0  0  0
    0.0817    3.7739   -3.0273 C   0  0  2  0  0  0  0  0  0  0  0  0
    1.4785    3.8220   -3.6324 C   0  0  0  0  0  0  0  0  0  0  0  0
    2.4915    3.5173   -3.0063 O   0  0  0  0  0  0  0  0  0  0  0  0
   -0.3728    5.1602   -2.5981 C   0  0  0  0  0  0  0  0  0  0  0  0
   -0.2728    3.1717   -1.0208 H   0  0  0  0  0  0  0  0  0  0  0  0
   -0.6193    3.3561   -3.7581 H   0  0  0  0  0  0  0  0  0  0  0  0
    0.3173    5.5950   -1.8658 H   0  0  0  0  0  0  0  0  0  0  0  0
   -0.4222    5.8437   -3.4521 H   0  0  0  0  0  0  0  0  0  0  0  0
   -1.3651    5.1194   -2.1361 H   0  0  0  0  0  0  0  0  0  0  0  0
    1.4650    4.2864   -4.9402 N   0  0  0  0  0  0  0  0  0  0  0  0
    2.6669    4.4350   -5.7271 C   0  0  0  0  0  0  0  0  0  0  0  0
    0.5773    4.4977   -5.3863 H   0  0  0  0  0  0  0  0  0  0  0  0
    3.0525    5.4595   -5.6188 H   0  0  0  0  0  0  0  0  0  0  0  0
    3.4252    3.7191   -5.3770 H   0  0  0  0  0  0  0  0  0  0  0  0
    2.4388    4.2392   -6.7852 H   0  0  0  0  0  0  0  0  0  0  0  0
 22 24  2  0  0  0  0
 24 26  1  0  0  0  0
 23 25  2  0  0  0  0
 25 26  1  0  0  0  0
 21 22  1  0  0  0  0
 22 23  1  0  0  0  0
  1  3  1  0  0  0  0
  1  7  1  0  0  0  0
  1  2  2  0  0  0  0
 35 36  1  0  0  0  0
 36 44  1  0  0  0  0
 36 37  2  0  0  0  0
  8  9  1  0  0  0  0
  9 17  1  0  0  0  0
  9 10  2  0  0  0  0
 18 19  1  0  0  0  0
 19 34  1  0  0  0  0
 19 20  2  0  0  0  0
 35 38  1  0  0  0  0
  8 11  1  0  0  0  0
 44 45  1  0  0  0  0
 18 21  1  0  0  0  0
 34 35  1  0  0  0  0
  7  8  1  0  0  0  0
 17 18  1  0  0  0  0
 24 31  1  0  0  0  0
 25 32  1  0  0  0  0
  3  4  1  0  0  0  0
  3  5  1  0  0  0  0
  3  6  1  0  0  0  0
 38 41  1  0  0  0  0
 38 42  1  0  0  0  0
 38 43  1  0  0  0  0
 11 14  1  0  0  0  0
 11 15  1  0  0  0  0
 11 16  1  0  0  0  0
 45 47  1  0  0  0  0
 45 48  1  0  0  0  0
 45 49  1  0  0  0  0
 21 29  1  0  0  0  0
 21 30  1  0  0  0  0
 35 40  1  0  0  0  0
  8 13  1  0  0  0  0
 18 28  1  0  0  0  0
 26 33  1  0  0  0  0
 44 46  1  0  0  0  0
  7 12  1  0  0  0  0
 34 39  1  0  0  0  0
 17 27  1  0  0  0  0
M  END
$$$$

  -OEChem-05262214473D

 49 49  0     1  0  0  0  0  0999 V2000
   -1.6183    0.5613    3.8201 C   0  0  0  0  0  0  0  0  0  0  0  0
   -0.6710   -0.0534    3.3444 O   0  0  0  0  0  0  0  0  0  0  0  0
   -2.0502    0.2789    5.2208 C   0  0  0  0  0  0  0  0  0  0  0  0
   -2.8099   -0.5175    5.2742 H   0  0  0  0  0  0  0  0  0  0  0  0
   -1.2190   -0.0687    5.8551 H   0  0  0  0  0  0  0  0  0  0  0  0
   -2.4882    1.1338    5.7604 H   0  0  0  0  0  0  0  0  0  0  0  0
   -2.3680    1.5337    3.1790 N   0  0  0  0  0  0  0  0  0  0  0  0
   -2.1212    1.9597    1.8266 C   0  0  2  0  0  0  0  0  0  0  0  0
   -0.7862    1.3744    1.3854 C   0  0  0  0  0  0  0  0  0  0  0  0
    0.0859    1.0216    2.1767 O   0  0  0  0  0  0  0  0  0  0  0  0
   -2.1124    3.4765    1.7171 C   0  0  0  0  0  0  0  0  0  0  0  0
   -3.1331    1.9695    3.6908 H   0  0  0  0  0  0  0  0  0  0  0  0
   -2.9253    1.5413    1.2115 H   0  0  0  0  0  0  0  0  0  0  0  0
   -1.3133    3.9138    2.3268 H   0  0  0  0  0  0  0  0  0  0  0  0
   -1.9529    3.7988    0.6829 H   0  0  0  0  0  0  0  0  0  0  0  0
   -3.0626    3.8977    2.0629 H   0  0  0  0  0  0  0  0  0  0  0  0
   -0.6635    1.3313    0.0020 N   0  0  0  0  0  0  0  0  0  0  0  0
    0.5138    0.8305   -0.6617 C   0  0  2  0  0  0  0  0  0  0  0  0
    0.6385    1.5785   -1.9842 C   0  0  0  0  0  0  0  0  0  0  0  0
    0.8561    1.0140   -3.0542 O   0  0  0  0  0  0  0  0  0  0  0  0
    0.4404   -0.6807   -0.9090 C   0  0  0  0  0  0  0  0  0  0  0  0
    0.3998   -1.4801    0.3705 C   0  0  0  0  0  0  0  0  0  0  0  0
    1.5333   -1.6468    1.1262 N   0  0  0  0  0  0  0  0  0  0  0  0
   -0.6761   -2.1177    0.9419 C   0  0  0  0  0  0  0  0  0  0  0  0
    1.1495   -2.3789    2.1483 C   0  0  0  0  0  0  0  0  0  0  0  0
   -0.1802   -2.6893    2.0797 N   0  0  0  0  0  0  0  0  0  0  0  0
   -1.4467    1.6280   -0.5753 H   0  0  0  0  0  0  0  0  0  0  0  0
    1.3662    1.0878   -0.0221 H   0  0  0  0  0  0  0  0  0  0  0  0
    1.2912   -1.0076   -1.5220 H   0  0  0  0  0  0  0  0  0  0  0  0
   -0.4518   -0.9300   -1.4985 H   0  0  0  0  0  0  0  0  0  0  0  0
   -1.7134   -2.2160    0.6555 H   0  0  0  0  0  0  0  0  0  0  0  0
    1.7764   -2.7145    2.9623 H   0  0  0  0  0  0  0  0  0  0  0  0
   -0.7013   -3.2400    2.7489 H   0  0  0  0  0  0  0  0  0  0  0  0
    0.4283    2.9419   -1.8318 N   0  0  0  0  0  0  0  0  0  0  0  0
    0.4665    3.8786   -2.9318 C   0  0  2  0  0  0  0  0  0  0  0  0
    1.7515    3.6353   -3.7122 C   0  0  0  0  0  0  0  0  0  0  0  0
    2.7395    3.0901   -3.2246 O   0  0  0  0  0  0  0  0  0  0  0  0
    0.3941    5.3151   -2.4381 C   0  0  0  0  0  0  0  0  0  0  0  0
    0.2379    3.2995   -0.9003 H   0  0  0  0  0  0  0  0  0  0  0  0
   -0.3962    3.6541   -3.5685 H   0  0  0  0  0  0  0  0  0  0  0  0
    1.2503    5.5586   -1.7985 H   0  0  0  0  0  0  0  0  0  0  0  0
    0.3944    6.0225   -3.2740 H   0  0  0  0  0  0  0  0  0  0  0  0
   -0.5163    5.4804   -1.8519 H   0  0  0  0  0  0  0  0  0  0  0  0
    1.6806    4.1373   -5.0041 N   0  0  0  0  0  0  0  0  0  0  0  0
    2.7773    4.0419   -5.9390 C   0  0  0  0  0  0  0  0  0  0  0  0
    0.8150    4.5573   -5.3302 H   0  0  0  0  0  0  0  0  0  0  0  0
    3.3947    4.9501   -5.8746 H   0  0  0  0  0  0  0  0  0  0  0  0
    3.3918    3.1629   -5.6947 H   0  0  0  0  0  0  0  0  0  0  0  0
    2.3809    3.9399   -6.9600 H   0  0  0  0  0  0  0  0  0  0  0  0
 22 24  2  0  0  0  0
 24 26  1  0  0  0  0
 23 25  2  0  0  0  0
 25 26  1  0  0  0  0
 21 22  1  0  0  0  0
 22 23  1  0  0  0  0
  1  3  1  0  0  0  0
  1  7  1  0  0  0  0
  1  2  2  0  0  0  0
 35 36  1  0  0  0  0
 36 44  1  0  0  0  0
 36 37  2  0  0  0  0
  8  9  1  0  0  0  0
  9 17  1  0  0  0  0
  9 10  2  0  0  0  0
 18 19  1  0  0  0  0
 19 34  1  0  0  0  0
 19 20  2  0  0  0  0
 35 38  1  0  0  0  0
  8 11  1  0  0  0  0
 44 45  1  0  0  0  0
 18 21  1  0  0  0  0
 34 35  1  0  0  0  0
  7  8  1  0  0  0  0
 17 18  1  0  0  0  0
 24 31  1  0  0  0  0
 25 32  1  0  0  0  0
  3  4  1  0  0  0  0
  3  5  1  0  0  0  0
  3  6  1  0  0  0  0
 38 41  1  0  0  0  0
 38 42  1  0  0  0  0
 38 43  1  0  0  0  0
 11 14  1  0  0  0  0
 11 15  1  0  0  0  0
 11 16  1  0  0  0  0
 45 47  1  0  0  0  0
 45 48  1  0  0  0  0
 45 49  1  0  0  0  0
 21 29  1  0  0  0  0
 21 30  1  0  0  0  0
 35 40  1  0  0  0  0
  8 13  1  0  0  0  0
 18 28  1  0  0  0  0
 26 33  1  0  0  0  0
 44 46  1  0  0  0  0
  7 12  1  0  0  0  0
 34 39  1  0  0  0  0
 17 27  1  0  0  0  0
M  END
$$$$

  -OEChem-05262214473D

 49 49  0     1  0  0  0  0  0999 V2000
   -1.6183    0.5613    3.8201 C   0  0  0  0  0  0  0  0  0  0  0  0
   -0.6710   -0.0534    3.3444 O   0  0  0  0  0  0  0  0  0  0  0  0
   -2.0502    0.2789    5.2208 C   0  0  0  0  0  0  0  0  0  0  0  0
   -2.8099   -0.5175    5.2742 H   0  0  0  0  0  0  0  0  0  0  0  0
   -1.2190   -0.0687    5.8551 H   0  0  0  0  0  0  0  0  0  0  0  0
   -2.4882    1.1338    5.7604 H   0  0  0  0  0  0  0  0  0  0  0  0
   -2.3680    1.5337    3.1790 N   0  0  0  0  0  0  0  0  0  0  0  0
   -2.1212    1.9597    1.8266 C   0  0  2  0  0  0  0  0  0  0  0  0
   -0.7862    1.3744    1.3854 C   0  0  0  0  0  0  0  0  0  0  0  0
    0.0859    1.0216    2.1767 O   0  0  0  0  0  0  0  0  0  0  0  0
   -2.1124    3.4765    1.7171 C   0  0  0  0  0  0  0  0  0  0  0  0
   -3.1331    1.9695    3.6908 H   0  0  0  0  0  0  0  0  0  0  0  0
   -2.9253    1.5413    1.2115 H   0  0  0  0  0  0  0  0  0  0  0  0
   -1.3133    3.9138    2.3268 H   0  0  0  0  0  0  0  0  0  0  0  0
   -1.9529    3.7988    0.6829 H   0  0  0  0  0  0  0  0  0  0  0  0
   -3.0626    3.8977    2.0629 H   0  0  0  0  0  0  0  0  0  0  0  0
   -0.6635    1.3313    0.0020 N   0  0  0  0  0  0  0  0  0  0  0  0
    0.5138    0.8305   -0.6617 C   0  0  2  0  0  0  0  0  0  0  0  0
    0.6385    1.5785   -1.9842 C   0  0  0  0  0  0  0  0  0  0  0  0
    0.5879    1.0182   -3.0771 O   0  0  0  0  0  0  0  0  0  0  0  0
    0.4404   -0.6807   -0.9090 C   0  0  0  0  0  0  0  0  0  0  0  0
    0.3998   -1.4801    0.3705 C   0  0  0  0  0  0  0  0  0  0  0  0
    1.5333   -1.6468    1.1262 N   0  0  0  0  0  0  0  0  0  0  0  0
   -0.6761   -2.1177    0.9419 C   0  0  0  0  0  0  0  0  0  0  0  0
    1.1495   -2.3789    2.1483 C   0  0  0  0  0  0  0  0  0  0  0  0
   -0.1802   -2.6893    2.0797 N   0  0  0  0  0  0  0  0  0  0  0  0
   -1.4467    1.6280   -0.5753 H   0  0  0  0  0  0  0  0  0  0  0  0
    1.3662    1.0878   -0.0221 H   0  0  0  0  0  0  0  0  0  0  0  0
    1.2912   -1.0076   -1.5220 H   0  0  0  0  0  0  0  0  0  0  0  0
   -0.4518   -0.9300   -1.4985 H   0  0  0  0  0  0  0  0  0  0  0  0
   -1.7134   -2.2160    0.6555 H   0  0  0  0  0  0  0  0  0  0  0  0
    1.7764   -2.7145    2.9623 H   0  0  0  0  0  0  0  0  0  0  0  0
   -0.7013   -3.2400    2.7489 H   0  0  0  0  0  0  0  0  0  0  0  0
    0.7624    2.9481   -1.7968 N   0  0  0  0  0  0  0  0  0  0  0  0
    0.8739    3.8913   -2.8862 C   0  0  2  0  0  0  0  0  0  0  0  0
    1.9633    3.3953   -3.8280 C   0  0  0  0  0  0  0  0  0  0  0  0
    2.8553    2.6264   -3.4759 O   0  0  0  0  0  0  0  0  0  0  0  0
    1.1899    5.2892   -2.3777 C   0  0  0  0  0  0  0  0  0  0  0  0
    0.7753    3.3056   -0.8461 H   0  0  0  0  0  0  0  0  0  0  0  0
   -0.0896    3.8878   -3.4074 H   0  0  0  0  0  0  0  0  0  0  0  0
    2.1518    5.3124   -1.8526 H   0  0  0  0  0  0  0  0  0  0  0  0
    1.2459    6.0080   -3.2019 H   0  0  0  0  0  0  0  0  0  0  0  0
    0.4207    5.6324   -1.6775 H   0  0  0  0  0  0  0  0  0  0  0  0
    1.8471    3.9463   -5.0965 N   0  0  0  0  0  0  0  0  0  0  0  0
    2.7688    3.6420   -6.1660 C   0  0  0  0  0  0  0  0  0  0  0  0
    1.0652    4.5602   -5.3049 H   0  0  0  0  0  0  0  0  0  0  0  0
    3.5785    4.3866   -6.1760 H   0  0  0  0  0  0  0  0  0  0  0  0
    3.1943    2.6399   -6.0091 H   0  0  0  0  0  0  0  0  0  0  0  0
    2.2355    3.6675   -7.1278 H   0  0  0  0  0  0  0  0  0  0  0  0
 22 24  2  0  0  0  0
 24 26  1  0  0  0  0
 23 25  2  0  0  0  0
 25 26  1  0  0  0  0
 21 22  1  0  0  0  0
 22 23  1  0  0  0  0
  1  3  1  0  0  0  0
  1  7  1  0  0  0  0
  1  2  2  0  0  0  0
 35 36  1  0  0  0  0
 36 44  1  0  0  0  0
 36 37  2  0  0  0  0
  8  9  1  0  0  0  0
  9 17  1  0  0  0  0
  9 10  2  0  0  0  0
 18 19  1  0  0  0  0
 19 34  1  0  0  0  0
 19 20  2  0  0  0  0
 35 38  1  0  0  0  0
  8 11  1  0  0  0  0
 44 45  1  0  0  0  0
 18 21  1  0  0  0  0
 34 35  1  0  0  0  0
  7  8  1  0  0  0  0
 17 18  1  0  0  0  0
 24 31  1  0  0  0  0
 25 32  1  0  0  0  0
  3  4  1  0  0  0  0
  3  5  1  0  0  0  0
  3  6  1  0  0  0  0
 38 41  1  0  0  0  0
 38 42  1  0  0  0  0
 38 43  1  0  0  0  0
 11 14  1  0  0  0  0
 11 15  1  0  0  0  0
 11 16  1  0  0  0  0
 45 47  1  0  0  0  0
 45 48  1  0  0  0  0
 45 49  1  0  0  0  0
 21 29  1  0  0  0  0
 21 30  1  0  0  0  0
 35 40  1  0  0  0  0
  8 13  1  0  0  0  0
 18 28  1  0  0  0  0
 26 33  1  0  0  0  0
 44 46  1  0  0  0  0
  7 12  1  0  0  0  0
 34 39  1  0  0  0  0
 17 27  1  0  0  0  0
M  END
$$$$

  -OEChem-05262214473D

 49 49  0     1  0  0  0  0  0999 V2000
   -1.6183    0.5613    3.8201 C   0  0  0  0  0  0  0  0  0  0  0  0
   -0.6710   -0.0534    3.3444 O   0  0  0  0  0  0  0  0  0  0  0  0
   -2.0502    0.2789    5.2208 C   0  0  0  0  0  0  0  0  0  0  0  0
   -2.8099   -0.5175    5.2742 H   0  0  0  0  0  0  0  0  0  0  0  0
   -1.2190   -0.0687    5.8551 H   0  0  0  0  0  0  0  0  0  0  0  0
   -2.4882    1.1338    5.7604 H   0  0  0  0  0  0  0  0  0  0  0  0
   -2.3680    1.5337    3.1790 N   0  0  0  0  0  0  0  0  0  0  0  0
   -2.1212    1.9597    1.8266 C   0  0  2  0  0  0  0  0  0  0  0  0
   -0.7862    1.3744    1.3854 C   0  0  0  0  0  0  0  0  0  0  0  0
    0.0859    1.0216    2.1767 O   0  0  0  0  0  0  0  0  0  0  0  0
   -2.1124    3.4765    1.7171 C   0  0  0  0  0  0  0  0  0  0  0  0
   -3.1331    1.9695    3.6908 H   0  0  0  0  0  0  0  0  0  0  0  0
   -2.9253    1.5413    1.2115 H   0  0  0  0  0  0  0  0  0  0  0  0
   -1.3133    3.9138    2.3268 H   0  0  0  0  0  0  0  0  0  0  0  0
   -1.9529    3.7988    0.6829 H   0  0  0  0  0  0  0  0  0  0  0  0
   -3.0626    3.8977    2.0629 H   0  0  0  0  0  0  0  0  0  0  0  0
   -0.6635    1.3313    0.0020 N   0  0  0  0  0  0  0  0  0  0  0  0
    0.5138    0.8305   -0.6617 C   0  0  2  0  0  0  0  0  0  0  0  0
    0.6385    1.5785   -1.9842 C   0  0  0  0  0  0  0  0  0  0  0  0
    0.3269    1.0830   -3.0651 O   0  0  0  0  0  0  0  0  0  0  0  0
    0.4404   -0.6807   -0.9090 C   0  0  0  0  0  0  0  0  0  0  0  0
    0.3998   -1.4801    0.3705 C   0  0  0  0  0  0  0  0  0  0  0  0
    1.5333   -1.6468    1.1262 N   0  0  0  0  0  0  0  0  0  0  0  0
   -0.6761   -2.1177    0.9419 C   0  0  0  0  0  0  0  0  0  0  0  0
    1.1495   -2.3789    2.1483 C   0  0  0  0  0  0  0  0  0  0  0  0
   -0.1802   -2.6893    2.0797 N   0  0  0  0  0  0  0  0  0  0  0  0
   -1.4467    1.6280   -0.5753 H   0  0  0  0  0  0  0  0  0  0  0  0
    1.3662    1.0878   -0.0221 H   0  0  0  0  0  0  0  0  0  0  0  0
    1.2912   -1.0076   -1.5220 H   0  0  0  0  0  0  0  0  0  0  0  0
   -0.4518   -0.9300   -1.4985 H   0  0  0  0  0  0  0  0  0  0  0  0
   -1.7134   -2.2160    0.6555 H   0  0  0  0  0  0  0  0  0  0  0  0
    1.7764   -2.7145    2.9623 H   0  0  0  0  0  0  0  0  0  0  0  0
   -0.7013   -3.2400    2.7489 H   0  0  0  0  0  0  0  0  0  0  0  0
    1.0909    2.8784   -1.8053 N   0  0  0  0  0  0  0  0  0  0  0  0
    1.2760    3.8111   -2.8937 C   0  0  2  0  0  0  0  0  0  0  0  0
    2.0992    3.1185   -3.9717 C   0  0  0  0  0  0  0  0  0  0  0  0
    2.8312    2.1578   -3.7432 O   0  0  0  0  0  0  0  0  0  0  0  0
    1.9605    5.0842   -2.4210 C   0  0  0  0  0  0  0  0  0  0  0  0
    1.3026    3.1898   -0.8619 H   0  0  0  0  0  0  0  0  0  0  0  0
    0.2794    4.0413   -3.2858 H   0  0  0  0  0  0  0  0  0  0  0  0
    2.9605    4.8734   -2.0247 H   0  0  0  0  0  0  0  0  0  0  0  0
    2.0742    5.8013   -3.2407 H   0  0  0  0  0  0  0  0  0  0  0  0
    1.3820    5.5652   -1.6249 H   0  0  0  0  0  0  0  0  0  0  0  0
    1.9535    3.7264   -5.2108 N   0  0  0  0  0  0  0  0  0  0  0  0
    2.6419    3.2624   -6.3926 C   0  0  0  0  0  0  0  0  0  0  0  0
    1.3106    4.5063   -5.3123 H   0  0  0  0  0  0  0  0  0  0  0  0
    3.5911    3.8074   -6.5024 H   0  0  0  0  0  0  0  0  0  0  0  0
    2.8462    2.1856   -6.2989 H   0  0  0  0  0  0  0  0  0  0  0  0
    2.0126    3.4406   -7.2771 H   0  0  0  0  0  0  0  0  0  0  0  0
 22 24  2  0  0  0  0
 24 26  1  0  0  0  0
 23 25  2  0  0  0  0
 25 26  1  0  0  0  0
 21 22  1  0  0  0  0
 22 23  1  0  0  0  0
  1  3  1  0  0  0  0
  1  7  1  0  0  0  0
  1  2  2  0  0  0  0
 35 36  1  0  0  0  0
 36 44  1  0  0  0  0
 36 37  2  0  0  0  0
  8  9  1  0  0  0  0
  9 17  1  0  0  0  0
  9 10  2  0  0  0  0
 18 19  1  0  0  0  0
 19 34  1  0  0  0  0
 19 20  2  0  0  0  0
 35 38  1  0  0  0  0
  8 11  1  0  0  0  0
 44 45  1  0  0  0  0
 18 21  1  0  0  0  0
 34 35  1  0  0  0  0
  7  8  1  0  0  0  0
 17 18  1  0  0  0  0
 24 31  1  0  0  0  0
 25 32  1  0  0  0  0
  3  4  1  0  0  0  0
  3  5  1  0  0  0  0
  3  6  1  0  0  0  0
 38 41  1  0  0  0  0
 38 42  1  0  0  0  0
 38 43  1  0  0  0  0
 11 14  1  0  0  0  0
 11 15  1  0  0  0  0
 11 16  1  0  0  0  0
 45 47  1  0  0  0  0
 45 48  1  0  0  0  0
 45 49  1  0  0  0  0
 21 29  1  0  0  0  0
 21 30  1  0  0  0  0
 35 40  1  0  0  0  0
  8 13  1  0  0  0  0
 18 28  1  0  0  0  0
 26 33  1  0  0  0  0
 44 46  1  0  0  0  0
  7 12  1  0  0  0  0
 34 39  1  0  0  0  0
 17 27  1  0  0  0  0
M  END
$$$$

  -OEChem-05262214473D

 49 49  0     1  0  0  0  0  0999 V2000
   -1.6183    0.5613    3.8201 C   0  0  0  0  0  0  0  0  0  0  0  0
   -0.6710   -0.0534    3.3444 O   0  0  0  0  0  0  0  0  0  0  0  0
   -2.0502    0.2789    5.2208 C   0  0  0  0  0  0  0  0  0  0  0  0
   -2.8099   -0.5175    5.2742 H   0  0  0  0  0  0  0  0  0  0  0  0
   -1.2190   -0.0687    5.8551 H   0  0  0  0  0  0  0  0  0  0  0  0
   -2.4882    1.1338    5.7604 H   0  0  0  0  0  0  0  0  0  0  0  0
   -2.3680    1.5337    3.1790 N   0  0  0  0  0  0  0  0  0  0  0  0
   -2.1212    1.9597    1.8266 C   0  0  2  0  0  0  0  0  0  0  0  0
   -0.7862    1.3744    1.3854 C   0  0  0  0  0  0  0  0  0  0  0  0
    0.0859    1.0216    2.1767 O   0  0  0  0  0  0  0  0  0  0  0  0
   -2.1124    3.4765    1.7171 C   0  0  0  0  0  0  0  0  0  0  0  0
   -3.1331    1.9695    3.6908 H   0  0  0  0  0  0  0  0  0  0  0  0
   -2.9253    1.5413    1.2115 H   0  0  0  0  0  0  0  0  0  0  0  0
   -1.3133    3.9138    2.3268 H   0  0  0  0  0  0  0  0  0  0  0  0
   -1.9529    3.7988    0.6829 H   0  0  0  0  0  0  0  0  0  0  0  0
   -3.0626    3.8977    2.0629 H   0  0  0  0  0  0  0  0  0  0  0  0
   -0.6635    1.3313    0.0020 N   0  0  0  0  0  0  0  0  0  0  0  0
    0.5138    0.8305   -0.6617 C   0  0  2  0  0  0  0  0  0  0  0  0
    0.6385    1.5785   -1.9842 C   0  0  0  0  0  0  0  0  0  0  0  0
    0.0909    1.2039   -3.0190 O   0  0  0  0  0  0  0  0  0  0  0  0
    0.4404   -0.6807   -0.9090 C   0  0  0  0  0  0  0  0  0  0  0  0
    0.3998   -1.4801    0.3705 C   0  0  0  0  0  0  0  0  0  0  0  0
    1.5333   -1.6468    1.1262 N   0  0  0  0  0  0  0  0  0  0  0  0
   -0.6761   -2.1177    0.9419 C   0  0  0  0  0  0  0  0  0  0  0  0
    1.1495   -2.3789    2.1483 C   0  0  0  0  0  0  0  0  0  0  0  0
   -0.1802   -2.6893    2.0797 N   0  0  0  0  0  0  0  0  0  0  0  0
   -1.4467    1.6280   -0.5753 H   0  0  0  0  0  0  0  0  0  0  0  0
    1.3662    1.0878   -0.0221 H   0  0  0  0  0  0  0  0  0  0  0  0
    1.2912   -1.0076   -1.5220 H   0  0  0  0  0  0  0  0  0  0  0  0
   -0.4518   -0.9300   -1.4985 H   0  0  0  0  0  0  0  0  0  0  0  0
   -1.7134   -2.2160    0.6555 H   0  0  0  0  0  0  0  0  0  0  0  0
    1.7764   -2.7145    2.9623 H   0  0  0  0  0  0  0  0  0  0  0  0
   -0.7013   -3.2400    2.7489 H   0  0  0  0  0  0  0  0  0  0  0  0
    1.3915    2.7374   -1.8567 N   0  0  0  0  0  0  0  0  0  0  0  0
    1.6455    3.6435   -2.9536 C   0  0  2  0  0  0  0  0  0  0  0  0
    2.1500    2.8236   -4.1337 C   0  0  0  0  0  0  0  0  0  0  0  0
    2.6687    1.7162   -4.0082 O   0  0  0  0  0  0  0  0  0  0  0  0
    2.6533    4.7140   -2.5650 C   0  0  0  0  0  0  0  0  0  0  0  0
    1.7839    2.9599   -0.9466 H   0  0  0  0  0  0  0  0  0  0  0  0
    0.6858    4.1042   -3.2119 H   0  0  0  0  0  0  0  0  0  0  0  0
    3.6212    4.2715   -2.3028 H   0  0  0  0  0  0  0  0  0  0  0  0
    2.8231    5.4165   -3.3877 H   0  0  0  0  0  0  0  0  0  0  0  0
    2.3022    5.2833   -1.6975 H   0  0  0  0  0  0  0  0  0  0  0  0
    1.9922    3.4925   -5.3394 N   0  0  0  0  0  0  0  0  0  0  0  0
    2.4054    2.9291   -6.6035 C   0  0  0  0  0  0  0  0  0  0  0  0
    1.5347    4.3993   -5.3516 H   0  0  0  0  0  0  0  0  0  0  0  0
    3.4319    3.2520   -6.8315 H   0  0  0  0  0  0  0  0  0  0  0  0
    2.3712    1.8312   -6.5441 H   0  0  0  0  0  0  0  0  0  0  0  0
    1.7275    3.2746   -7.3979 H   0  0  0  0  0  0  0  0  0  0  0  0
 22 24  2  0  0  0  0
 24 26  1  0  0  0  0
 23 25  2  0  0  0  0
 25 26  1  0  0  0  0
 21 22  1  0  0  0  0
 22 23  1  0  0  0  0
  1  3  1  0  0  0  0
  1  7  1  0  0  0  0
  1  2  2  0  0  0  0
 35 36  1  0  0  0  0
 36 44  1  0  0  0  0
 36 37  2  0  0  0  0
  8  9  1  0  0  0  0
  9 17  1  0  0  0  0
  9 10  2  0  0  0  0
 18 19  1  0  0  0  0
 19 34  1  0  0  0  0
 19 20  2  0  0  0  0
 35 38  1  0  0  0  0
  8 11  1  0  0  0  0
 44 45  1  0  0  0  0
 18 21  1  0  0  0  0
 34 35  1  0  0  0  0
  7  8  1  0  0  0  0
 17 18  1  0  0  0  0
 24 31  1  0  0  0  0
 25 32  1  0  0  0  0
  3  4  1  0  0  0  0
  3  5  1  0  0  0  0
  3  6  1  0  0  0  0
 38 41  1  0  0  0  0
 38 42  1  0  0  0  0
 38 43  1  0  0  0  0
 11 14  1  0  0  0  0
 11 15  1  0  0  0  0
 11 16  1  0  0  0  0
 45 47  1  0  0  0  0
 45 48  1  0  0  0  0
 45 49  1  0  0  0  0
 21 29  1  0  0  0  0
 21 30  1  0  0  0  0
 35 40  1  0  0  0  0
  8 13  1  0  0  0  0
 18 28  1  0  0  0  0
 26 33  1  0  0  0  0
 44 46  1  0  0  0  0
  7 12  1  0  0  0  0
 34 39  1  0  0  0  0
 17 27  1  0  0  0  0
M  END
$$$$

  -OEChem-05262214473D

 49 49  0     1  0  0  0  0  0999 V2000
   -1.6183    0.5613    3.8201 C   0  0  0  0  0  0  0  0  0  0  0  0
   -0.6710   -0.0534    3.3444 O   0  0  0  0  0  0  0  0  0  0  0  0
   -2.0502    0.2789    5.2208 C   0  0  0  0  0  0  0  0  0  0  0  0
   -2.8099   -0.5175    5.2742 H   0  0  0  0  0  0  0  0  0  0  0  0
   -1.2190   -0.0687    5.8551 H   0  0  0  0  0  0  0  0  0  0  0  0
   -2.4882    1.1338    5.7604 H   0  0  0  0  0  0  0  0  0  0  0  0
   -2.3680    1.5337    3.1790 N   0  0  0  0  0  0  0  0  0  0  0  0
   -2.1212    1.9597    1.8266 C   0  0  2  0  0  0  0  0  0  0  0  0
   -0.7862    1.3744    1.3854 C   0  0  0  0  0  0  0  0  0  0  0  0
    0.0859    1.0216    2.1767 O   0  0  0  0  0  0  0  0  0  0  0  0
   -2.1124    3.4765    1.7171 C   0  0  0  0  0  0  0  0  0  0  0  0
   -3.1331    1.9695    3.6908 H   0  0  0  0  0  0  0  0  0  0  0  0
   -2.9253    1.5413    1.2115 H   0  0  0  0  0  0  0  0  0  0  0  0
   -1.3133    3.9138    2.3268 H   0  0  0  0  0  0  0  0  0  0  0  0
   -1.9529    3.7988    0.6829 H   0  0  0  0  0  0  0  0  0  0  0  0
   -3.0626    3.8977    2.0629 H   0  0  0  0  0  0  0  0  0  0  0  0
   -0.6635    1.3313    0.0020 N   0  0  0  0  0  0  0  0  0  0  0  0
    0.5138    0.8305   -0.6617 C   0  0  2  0  0  0  0  0  0  0  0  0
    0.6385    1.5785   -1.9842 C   0  0  0  0  0  0  0  0  0  0  0  0
   -0.1041    1.3727   -2.9419 O   0  0  0  0  0  0  0  0  0  0  0  0
    0.4404   -0.6807   -0.9090 C   0  0  0  0  0  0  0  0  0  0  0  0
    0.3998   -1.4801    0.3705 C   0  0  0  0  0  0  0  0  0  0  0  0
    1.5333   -1.6468    1.1262 N   0  0  0  0  0  0  0  0  0  0  0  0
   -0.6761   -2.1177    0.9419 C   0  0  0  0  0  0  0  0  0  0  0  0
    1.1495   -2.3789    2.1483 C   0  0  0  0  0  0  0  0  0  0  0  0
   -0.1802   -2.6893    2.0797 N   0  0  0  0  0  0  0  0  0  0  0  0
   -1.4467    1.6280   -0.5753 H   0  0  0  0  0  0  0  0  0  0  0  0
    1.3662    1.0878   -0.0221 H   0  0  0  0  0  0  0  0  0  0  0  0
    1.2912   -1.0076   -1.5220 H   0  0  0  0  0  0  0  0  0  0  0  0
   -0.4518   -0.9300   -1.4985 H   0  0  0  0  0  0  0  0  0  0  0  0
   -1.7134   -2.2160    0.6555 H   0  0  0  0  0  0  0  0  0  0  0  0
    1.7764   -2.7145    2.9623 H   0  0  0  0  0  0  0  0  0  0  0  0
   -0.7013   -3.2400    2.7489 H   0  0  0  0  0  0  0  0  0  0  0  0
    1.6437    2.5348   -1.9475 N   0  0  0  0  0  0  0  0  0  0  0  0
    1.9571    3.3999   -3.0620 C   0  0  2  0  0  0  0  0  0  0  0  0
    2.1124    2.5308   -4.3029 C   0  0  0  0  0  0  0  0  0  0  0  0
    2.3790    1.3318   -4.2530 O   0  0  0  0  0  0  0  0  0  0  0  0
    3.2210    4.2040   -2.7999 C   0  0  0  0  0  0  0  0  0  0  0  0
    2.1865    2.6315   -1.0943 H   0  0  0  0  0  0  0  0  0  0  0  0
    1.1018    4.0721   -3.1908 H   0  0  0  0  0  0  0  0  0  0  0  0
    4.0889    3.5475   -2.6681 H   0  0  0  0  0  0  0  0  0  0  0  0
    3.4413    4.8797   -3.6330 H   0  0  0  0  0  0  0  0  0  0  0  0
    3.1185    4.8059   -1.8905 H   0  0  0  0  0  0  0  0  0  0  0  0
    1.9608    3.2606   -5.4736 N   0  0  0  0  0  0  0  0  0  0  0  0
    2.0753    2.6646   -6.7842 C   0  0  0  0  0  0  0  0  0  0  0  0
    1.7221    4.2465   -5.4204 H   0  0  0  0  0  0  0  0  0  0  0  0
    3.1116    2.7583   -7.1409 H   0  0  0  0  0  0  0  0  0  0  0  0
    1.8016    1.6007   -6.7282 H   0  0  0  0  0  0  0  0  0  0  0  0
    1.3994    3.1808   -7.4818 H   0  0  0  0  0  0  0  0  0  0  0  0
 22 24  2  0  0  0  0
 24 26  1  0  0  0  0
 23 25  2  0  0  0  0
 25 26  1  0  0  0  0
 21 22  1  0  0  0  0
 22 23  1  0  0  0  0
  1  3  1  0  0  0  0
  1  7  1  0  0  0  0
  1  2  2  0  0  0  0
 35 36  1  0  0  0  0
 36 44  1  0  0  0  0
 36 37  2  0  0  0  0
  8  9  1  0  0  0  0
  9 17  1  0  0  0  0
  9 10  2  0  0  0  0
 18 19  1  0  0  0  0
 19 34  1  0  0  0  0
 19 20  2  0  0  0  0
 35 38  1  0  0  0  0
  8 11  1  0  0  0  0
 44 45  1  0  0  0  0
 18 21  1  0  0  0  0
 34 35  1  0  0  0  0
  7  8  1  0  0  0  0
 17 18  1  0  0  0  0
 24 31  1  0  0  0  0
 25 32  1  0  0  0  0
  3  4  1  0  0  0  0
  3  5  1  0  0  0  0
  3  6  1  0  0  0  0
 38 41  1  0  0  0  0
 38 42  1  0  0  0  0
 38 43  1  0  0  0  0
 11 14  1  0  0  0  0
 11 15  1  0  0  0  0
 11 16  1  0  0  0  0
 45 47  1  0  0  0  0
 45 48  1  0  0  0  0
 45 49  1  0  0  0  0
 21 29  1  0  0  0  0
 21 30  1  0  0  0  0
 35 40  1  0  0  0  0
  8 13  1  0  0  0  0
 18 28  1  0  0  0  0
 26 33  1  0  0  0  0
 44 46  1  0  0  0  0
  7 12  1  0  0  0  0
 34 39  1  0  0  0  0
 17 27  1  0  0  0  0
M  END
$$$$

  -OEChem-05262214473D

 49 49  0     1  0  0  0  0  0999 V2000
   -1.6183    0.5613    3.8201 C   0  0  0  0  0  0  0  0  0  0  0  0
   -0.6710   -0.0534    3.3444 O   0  0  0  0  0  0  0  0  0  0  0  0
   -2.0502    0.2789    5.2208 C   0  0  0  0  0  0  0  0  0  0  0  0
   -2.8099   -0.5175    5.2742 H   0  0  0  0  0  0  0  0  0  0  0  0
   -1.2190   -0.0687    5.8551 H   0  0  0  0  0  0  0  0  0  0  0  0
   -2.4882    1.1338    5.7604 H   0  0  0  0  0  0  0  0  0  0  0  0
   -2.3680    1.5337    3.1790 N   0  0  0  0  0  0  0  0  0  0  0  0
   -2.1212    1.9597    1.8266 C   0  0  2  0  0  0  0  0  0  0  0  0
   -0.7862    1.3744    1.3854 C   0  0  0  0  0  0  0  0  0  0  0  0
    0.0859    1.0216    2.1767 O   0  0  0  0  0  0  0  0  0  0  0  0
   -2.1124    3.4765    1.7171 C   0  0  0  0  0  0  0  0  0  0  0  0
   -3.1331    1.9695    3.6908 H   0  0  0  0  0  0  0  0  0  0  0  0
   -2.9253    1.5413    1.2115 H   0  0  0  0  0  0  0  0  0  0  0  0
   -1.3133    3.9138    2.3268 H   0  0  0  0  0  0  0  0  0  0  0  0
   -1.9529    3.7988    0.6829 H   0  0  0  0  0  0  0  0  0  0  0  0
   -3.0626    3.8977    2.0629 H   0  0  0  0  0  0  0  0  0  0  0  0
   -0.6635    1.3313    0.0020 N   0  0  0  0  0  0  0  0  0  0  0  0
    0.5138    0.8305   -0.6617 C   0  0  2  0  0  0  0  0  0  0  0  0
    0.6385    1.5785   -1.9842 C   0  0  0  0  0  0  0  0  0  0  0  0
   -0.2447    1.5779   -2.8391 O   0  0  0  0  0  0  0  0  0  0  0  0
    0.4404   -0.6807   -0.9090 C   0  0  0  0  0  0  0  0  0  0  0  0
    0.3998   -1.4801    0.3705 C   0  0  0  0  0  0  0  0  0  0  0  0
    1.5333   -1.6468    1.1262 N   0  0  0  0  0  0  0  0  0  0  0  0
   -0.6761   -2.1177    0.9419 C   0  0  0  0  0  0  0  0  0  0  0  0
    1.1495   -2.3789    2.1483 C   0  0  0  0  0  0  0  0  0  0  0  0
   -0.1802   -2.6893    2.0797 N   0  0  0  0  0  0  0  0  0  0  0  0
   -1.4467    1.6280   -0.5753 H   0  0  0  0  0  0  0  0  0  0  0  0
    1.3662    1.0878   -0.0221 H   0  0  0  0  0  0  0  0  0  0  0  0
    1.2912   -1.0076   -1.5220 H   0  0  0  0  0  0  0  0  0  0  0  0
   -0.4518   -0.9300   -1.4985 H   0  0  0  0  0  0  0  0  0  0  0  0
   -1.7134   -2.2160    0.6555 H   0  0  0  0  0  0  0  0  0  0  0  0
    1.7764   -2.7145    2.9623 H   0  0  0  0  0  0  0  0  0  0  0  0
   -0.7013   -3.2400    2.7489 H   0  0  0  0  0  0  0  0  0  0  0  0
    1.8303    2.2844   -2.0715 N   0  0  0  0  0  0  0  0  0  0  0  0
    2.1897    3.0970   -3.2114 C   0  0  2  0  0  0  0  0  0  0  0  0
    1.9888    2.2599   -4.4677 C   0  0  0  0  0  0  0  0  0  0  0  0
    1.9818    1.0307   -4.4607 O   0  0  0  0  0  0  0  0  0  0  0  0
    3.6251    3.5889   -3.1097 C   0  0  0  0  0  0  0  0  0  0  0  0
    2.4828    2.2271   -1.2951 H   0  0  0  0  0  0  0  0  0  0  0  0
    1.4991    3.9472   -3.2240 H   0  0  0  0  0  0  0  0  0  0  0  0
    4.3317    2.7510   -3.0957 H   0  0  0  0  0  0  0  0  0  0  0  0
    3.8868    4.2277   -3.9597 H   0  0  0  0  0  0  0  0  0  0  0  0
    3.7753    4.1656   -2.1907 H   0  0  0  0  0  0  0  0  0  0  0  0
    1.8614    3.0465   -5.6040 N   0  0  0  0  0  0  0  0  0  0  0  0
    1.6741    2.4872   -6.9224 C   0  0  0  0  0  0  0  0  0  0  0  0
    1.8601    4.0582   -5.5139 H   0  0  0  0  0  0  0  0  0  0  0  0
    2.6520    2.3598   -7.4096 H   0  0  0  0  0  0  0  0  0  0  0  0
    1.1763    1.5098   -6.8386 H   0  0  0  0  0  0  0  0  0  0  0  0
    1.0508    3.1657   -7.5233 H   0  0  0  0  0  0  0  0  0  0  0  0
 22 24  2  0  0  0  0
 24 26  1  0  0  0  0
 23 25  2  0  0  0  0
 25 26  1  0  0  0  0
 21 22  1  0  0  0  0
 22 23  1  0  0  0  0
  1  3  1  0  0  0  0
  1  7  1  0  0  0  0
  1  2  2  0  0  0  0
 35 36  1  0  0  0  0
 36 44  1  0  0  0  0
 36 37  2  0  0  0  0
  8  9  1  0  0  0  0
  9 17  1  0  0  0  0
  9 10  2  0  0  0  0
 18 19  1  0  0  0  0
 19 34  1  0  0  0  0
 19 20  2  0  0  0  0
 35 38  1  0  0  0  0
  8 11  1  0  0  0  0
 44 45  1  0  0  0  0
 18 21  1  0  0  0  0
 34 35  1  0  0  0  0
  7  8  1  0  0  0  0
 17 18  1  0  0  0  0
 24 31  1  0  0  0  0
 25 32  1  0  0  0  0
  3  4  1  0  0  0  0
  3  5  1  0  0  0  0
  3  6  1  0  0  0  0
 38 41  1  0  0  0  0
 38 42  1  0  0  0  0
 38 43  1  0  0  0  0
 11 14  1  0  0  0  0
 11 15  1  0  0  0  0
 11 16  1  0  0  0  0
 45 47  1  0  0  0  0
 45 48  1  0  0  0  0
 45 49  1  0  0  0  0
 21 29  1  0  0  0  0
 21 30  1  0  0  0  0
 35 40  1  0  0  0  0
  8 13  1  0  0  0  0
 18 28  1  0  0  0  0
 26 33  1  0  0  0  0
 44 46  1  0  0  0  0
  7 12  1  0  0  0  0
 34 39  1  0  0  0  0
 17 27  1  0  0  0  0
M  END
$$$$

  -OEChem-05262214473D

 49 49  0     1  0  0  0  0  0999 V2000
   -1.6183    0.5613    3.8201 C   0  0  0  0  0  0  0  0  0  0  0  0
   -0.6710   -0.0534    3.3444 O   0  0  0  0  0  0  0  0  0  0  0  0
   -2.0502    0.2789    5.2208 C   0  0  0  0  0  0  0  0  0  0  0  0
   -2.8099   -0.5175    5.2742 H   0  0  0  0  0  0  0  0  0  0  0  0
   -1.2190   -0.0687    5.8551 H   0  0  0  0  0  0  0  0  0  0  0  0
   -2.4882    1.1338    5.7604 H   0  0  0  0  0  0  0  0  0  0  0  0
   -2.3680    1.5337    3.1790 N   0  0  0  0  0  0  0  0  0  0  0  0
   -2.1212    1.9597    1.8266 C   0  0  2  0  0  0  0  0  0  0  0  0
   -0.7862    1.3744    1.3854 C   0  0  0  0  0  0  0  0  0  0  0  0
    0.0859    1.0216    2.1767 O   0  0  0  0  0  0  0  0  0  0  0  0
   -2.1124    3.4765    1.7171 C   0  0  0  0  0  0  0  0  0  0  0  0
   -3.1331    1.9695    3.6908 H   0  0  0  0  0  0  0  0  0  0  0  0
   -2.9253    1.5413    1.2115 H   0  0  0  0  0  0  0  0  0  0  0  0
   -1.3133    3.9138    2.3268 H   0  0  0  0  0  0  0  0  0  0  0  0
   -1.9529    3.7988    0.6829 H   0  0  0  0  0  0  0  0  0  0  0  0
   -3.0626    3.8977    2.0629 H   0  0  0  0  0  0  0  0  0  0  0  0
   -0.6635    1.3313    0.0020 N   0  0  0  0  0  0  0  0  0  0  0  0
    0.5138    0.8305   -0.6617 C   0  0  2  0  0  0  0  0  0  0  0  0
    0.6385    1.5785   -1.9842 C   0  0  0  0  0  0  0  0  0  0  0  0
   -0.3214    1.8055   -2.7176 O   0  0  0  0  0  0  0  0  0  0  0  0
    0.4404   -0.6807   -0.9090 C   0  0  0  0  0  0  0  0  0  0  0  0
    0.3998   -1.4801    0.3705 C   0  0  0  0  0  0  0  0  0  0  0  0
    1.5333   -1.6468    1.1262 N   0  0  0  0  0  0  0  0  0  0  0  0
   -0.6761   -2.1177    0.9419 C   0  0  0  0  0  0  0  0  0  0  0  0
    1.1495   -2.3789    2.1483 C   0  0  0  0  0  0  0  0  0  0  0  0
   -0.1802   -2.6893    2.0797 N   0  0  0  0  0  0  0  0  0  0  0  0
   -1.4467    1.6280   -0.5753 H   0  0  0  0  0  0  0  0  0  0  0  0
    1.3662    1.0878   -0.0221 H   0  0  0  0  0  0  0  0  0  0  0  0
    1.2912   -1.0076   -1.5220 H   0  0  0  0  0  0  0  0  0  0  0  0
   -0.4518   -0.9300   -1.4985 H   0  0  0  0  0  0  0  0  0  0  0  0
   -1.7134   -2.2160    0.6555 H   0  0  0  0  0  0  0  0  0  0  0  0
    1.7764   -2.7145    2.9623 H   0  0  0  0  0  0  0  0  0  0  0  0
   -0.7013   -3.2400    2.7489 H   0  0  0  0  0  0  0  0  0  0  0  0
    1.9386    2.0033   -2.2202 N   0  0  0  0  0  0  0  0  0  0  0  0
    2.3274    2.7553   -3.3916 C   0  0  2  0  0  0  0  0  0  0  0  0
    1.7877    2.0296   -4.6170 C   0  0  0  0  0  0  0  0  0  0  0  0
    1.5041    0.8335   -4.6173 O   0  0  0  0  0  0  0  0  0  0  0  0
    3.8380    2.9105   -3.4733 C   0  0  0  0  0  0  0  0  0  0  0  0
    2.6527    1.7741   -1.5352 H   0  0  0  0  0  0  0  0  0  0  0  0
    1.8506    3.7381   -3.3091 H   0  0  0  0  0  0  0  0  0  0  0  0
    4.3331    1.9361   -3.5564 H   0  0  0  0  0  0  0  0  0  0  0  0
    4.1292    3.5047   -4.3457 H   0  0  0  0  0  0  0  0  0  0  0  0
    4.2279    3.4061   -2.5776 H   0  0  0  0  0  0  0  0  0  0  0  0
    1.7007    2.8647   -5.7220 N   0  0  0  0  0  0  0  0  0  0  0  0
    1.2292    2.4087   -7.0087 C   0  0  0  0  0  0  0  0  0  0  0  0
    1.9392    3.8474   -5.6256 H   0  0  0  0  0  0  0  0  0  0  0  0
    2.0846    2.0839   -7.6192 H   0  0  0  0  0  0  0  0  0  0  0  0
    0.5379    1.5648   -6.8677 H   0  0  0  0  0  0  0  0  0  0  0  0
    0.7054    3.2303   -7.5193 H   0  0  0  0  0  0  0  0  0  0  0  0
 22 24  2  0  0  0  0
 24 26  1  0  0  0  0
 23 25  2  0  0  0  0
 25 26  1  0  0  0  0
 21 22  1  0  0  0  0
 22 23  1  0  0  0  0
  1  3  1  0  0  0  0
  1  7  1  0  0  0  0
  1  2  2  0  0  0  0
 35 36  1  0  0  0  0
 36 44  1  0  0  0  0
 36 37  2  0  0  0  0
  8  9  1  0  0  0  0
  9 17  1  0  0  0  0
  9 10  2  0  0  0  0
 18 19  1  0  0  0  0
 19 34  1  0  0  0  0
 19 20  2  0  0  0  0
 35 38  1  0  0  0  0
  8 11  1  0  0  0  0
 44 45  1  0  0  0  0
 18 21  1  0  0  0  0
 34 35  1  0  0  0  0
  7  8  1  0  0  0  0
 17 18  1  0  0  0  0
 24 31  1  0  0  0  0
 25 32  1  0  0  0  0
  3  4  1  0  0  0  0
  3  5  1  0  0  0  0
  3  6  1  0  0  0  0
 38 41  1  0  0  0  0
 38 42  1  0  0  0  0
 38 43  1  0  0  0  0
 11 14  1  0  0  0  0
 11 15  1  0  0  0  0
 11 16  1  0  0  0  0
 45 47  1  0  0  0  0
 45 48  1  0  0  0  0
 45 49  1  0  0  0  0
 21 29  1  0  0  0  0
 21 30  1  0  0  0  0
 35 40  1  0  0  0  0
  8 13  1  0  0  0  0
 18 28  1  0  0  0  0
 26 33  1  0  0  0  0
 44 46  1  0  0  0  0
  7 12  1  0  0  0  0
 34 39  1  0  0  0  0
 17 27  1  0  0  0  0
M  END
$$$$

  -OEChem-05262214473D

 49 49  0     1  0  0  0  0  0999 V2000
   -1.6183    0.5613    3.8201 C   0  0  0  0  0  0  0  0  0  0  0  0
   -0.6710   -0.0534    3.3444 O   0  0  0  0  0  0  0  0  0  0  0  0
   -2.0502    0.2789    5.2208 C   0  0  0  0  0  0  0  0  0  0  0  0
   -2.8099   -0.5175    5.2742 H   0  0  0  0  0  0  0  0  0  0  0  0
   -1.2190   -0.0687    5.8551 H   0  0  0  0  0  0  0  0  0  0  0  0
   -2.4882    1.1338    5.7604 H   0  0  0  0  0  0  0  0  0  0  0  0
   -2.3680    1.5337    3.1790 N   0  0  0  0  0  0  0  0  0  0  0  0
   -2.1212    1.9597    1.8266 C   0  0  2  0  0  0  0  0  0  0  0  0
   -0.7862    1.3744    1.3854 C   0  0  0  0  0  0  0  0  0  0  0  0
    0.0859    1.0216    2.1767 O   0  0  0  0  0  0  0  0  0  0  0  0
   -2.1124    3.4765    1.7171 C   0  0  0  0  0  0  0  0  0  0  0  0
   -3.1331    1.9695    3.6908 H   0  0  0  0  0  0  0  0  0  0  0  0
   -2.9253    1.5413    1.2115 H   0  0  0  0  0  0  0  0  0  0  0  0
   -1.3133    3.9138    2.3268 H   0  0  0  0  0  0  0  0  0  0  0  0
   -1.9529    3.7988    0.6829 H   0  0  0  0  0  0  0  0  0  0  0  0
   -3.0626    3.8977    2.0629 H   0  0  0  0  0  0  0  0  0  0  0  0
   -0.6635    1.3313    0.0020 N   0  0  0  0  0  0  0  0  0  0  0  0
    0.5138    0.8305   -0.6617 C   0  0  2  0  0  0  0  0  0  0  0  0
    0.6385    1.5785   -1.9842 C   0  0  0  0  0  0  0  0  0  0  0  0
   -0.3290    2.0401   -2.5857 O   0  0  0  0  0  0  0  0  0  0  0  0
    0.4404   -0.6807   -0.9090 C   0  0  0  0  0  0  0  0  0  0  0  0
    0.3998   -1.4801    0.3705 C   0  0  0  0  0  0  0  0  0  0  0  0
    1.5333   -1.6468    1.1262 N   0  0  0  0  0  0  0  0  0  0  0  0
   -0.6761   -2.1177    0.9419 C   0  0  0  0  0  0  0  0  0  0  0  0
    1.1495   -2.3789    2.1483 C   0  0  0  0  0  0  0  0  0  0  0  0
   -0.1802   -2.6893    2.0797 N   0  0  0  0  0  0  0  0  0  0  0  0
   -1.4467    1.6280   -0.5753 H   0  0  0  0  0  0  0  0  0  0  0  0
    1.3662    1.0878   -0.0221 H   0  0  0  0  0  0  0  0  0  0  0  0
    1.2912   -1.0076   -1.5220 H   0  0  0  0  0  0  0  0  0  0  0  0
   -0.4518   -0.9300   -1.4985 H   0  0  0  0  0  0  0  0  0  0  0  0
   -1.7134   -2.2160    0.6555 H   0  0  0  0  0  0  0  0  0  0  0  0
    1.7764   -2.7145    2.9623 H   0  0  0  0  0  0  0  0  0  0  0  0
   -0.7013   -3.2400    2.7489 H   0  0  0  0  0  0  0  0  0  0  0  0
    1.9612    1.7106   -2.3837 N   0  0  0  0  0  0  0  0  0  0  0  0
    2.3608    2.3982   -3.5904 C   0  0  2  0  0  0  0  0  0  0  0  0
    1.5227    1.8554   -4.7405 C   0  0  0  0  0  0  0  0  0  0  0  0
    0.9785    0.7535   -4.7121 O   0  0  0  0  0  0  0  0  0  0  0  0
    3.8451    2.2152   -3.8659 C   0  0  0  0  0  0  0  0  0  0  0  0
    2.6847    1.3035   -1.7984 H   0  0  0  0  0  0  0  0  0  0  0  0
    2.1324    3.4590   -3.4404 H   0  0  0  0  0  0  0  0  0  0  0  0
    4.0930    1.1585   -4.0189 H   0  0  0  0  0  0  0  0  0  0  0  0
    4.1520    2.7601   -4.7647 H   0  0  0  0  0  0  0  0  0  0  0  0
    4.4453    2.5789   -3.0249 H   0  0  0  0  0  0  0  0  0  0  0  0
    1.4897    2.7278   -5.8193 N   0  0  0  0  0  0  0  0  0  0  0  0
    0.7708    2.4347   -7.0372 C   0  0  0  0  0  0  0  0  0  0  0  0
    1.9542    3.6283   -5.7481 H   0  0  0  0  0  0  0  0  0  0  0  0
    1.4478    1.9491   -7.7555 H   0  0  0  0  0  0  0  0  0  0  0  0
   -0.0701    1.7618   -6.8136 H   0  0  0  0  0  0  0  0  0  0  0  0
    0.3868    3.3701   -7.4703 H   0  0  0  0  0  0  0  0  0  0  0  0
 22 24  2  0  0  0  0
 24 26  1  0  0  0  0
 23 25  2  0  0  0  0
 25 26  1  0  0  0  0
 21 22  1  0  0  0  0
 22 23  1  0  0  0  0
  1  3  1  0  0  0  0
  1  7  1  0  0  0  0
  1  2  2  0  0  0  0
 35 36  1  0  0  0  0
 36 44  1  0  0  0  0
 36 37  2  0  0  0  0
  8  9  1  0  0  0  0
  9 17  1  0  0  0  0
  9 10  2  0  0  0  0
 18 19  1  0  0  0  0
 19 34  1  0  0  0  0
 19 20  2  0  0  0  0
 35 38  1  0  0  0  0
  8 11  1  0  0  0  0
 44 45  1  0  0  0  0
 18 21  1  0  0  0  0
 34 35  1  0  0  0  0
  7  8  1  0  0  0  0
 17 18  1  0  0  0  0
 24 31  1  0  0  0  0
 25 32  1  0  0  0  0
  3  4  1  0  0  0  0
  3  5  1  0  0  0  0
  3  6  1  0  0  0  0
 38 41  1  0  0  0  0
 38 42  1  0  0  0  0
 38 43  1  0  0  0  0
 11 14  1  0  0  0  0
 11 15  1  0  0  0  0
 11 16  1  0  0  0  0
 45 47  1  0  0  0  0
 45 48  1  0  0  0  0
 45 49  1  0  0  0  0
 21 29  1  0  0  0  0
 21 30  1  0  0  0  0
 35 40  1  0  0  0  0
  8 13  1  0  0  0  0
 18 28  1  0  0  0  0
 26 33  1  0  0  0  0
 44 46  1  0  0  0  0
  7 12  1  0  0  0  0
 34 39  1  0  0  0  0
 17 27  1  0  0  0  0
M  END
$$$$

  -OEChem-05262214473D

 49 49  0     1  0  0  0  0  0999 V2000
   -1.6183    0.5613    3.8201 C   0  0  0  0  0  0  0  0  0  0  0  0
   -0.6710   -0.0534    3.3444 O   0  0  0  0  0  0  0  0  0  0  0  0
   -2.0502    0.2789    5.2208 C   0  0  0  0  0  0  0  0  0  0  0  0
   -2.8099   -0.5175    5.2742 H   0  0  0  0  0  0  0  0  0  0  0  0
   -1.2190   -0.0687    5.8551 H   0  0  0  0  0  0  0  0  0  0  0  0
   -2.4882    1.1338    5.7604 H   0  0  0  0  0  0  0  0  0  0  0  0
   -2.3680    1.5337    3.1790 N   0  0  0  0  0  0  0  0  0  0  0  0
   -2.1212    1.9597    1.8266 C   0  0  2  0  0  0  0  0  0  0  0  0
   -0.7862    1.3744    1.3854 C   0  0  0  0  0  0  0  0  0  0  0  0
    0.0859    1.0216    2.1767 O   0  0  0  0  0  0  0  0  0  0  0  0
   -2.1124    3.4765    1.7171 C   0  0  0  0  0  0  0  0  0  0  0  0
   -3.1331    1.9695    3.6908 H   0  0  0  0  0  0  0  0  0  0  0  0
   -2.9253    1.5413    1.2115 H   0  0  0  0  0  0  0  0  0  0  0  0
   -1.3133    3.9138    2.3268 H   0  0  0  0  0  0  0  0  0  0  0  0
   -1.9529    3.7988    0.6829 H   0  0  0  0  0  0  0  0  0  0  0  0
   -3.0626    3.8977    2.0629 H   0  0  0  0  0  0  0  0  0  0  0  0
   -0.6635    1.3313    0.0020 N   0  0  0  0  0  0  0  0  0  0  0  0
    0.5138    0.8305   -0.6617 C   0  0  2  0  0  0  0  0  0  0  0  0
    0.6385    1.5785   -1.9842 C   0  0  0  0  0  0  0  0  0  0  0  0
   -0.2669    2.2655   -2.4524 O   0  0  0  0  0  0  0  0  0  0  0  0
    0.4404   -0.6807   -0.9090 C   0  0  0  0  0  0  0  0  0  0  0  0
    0.3998   -1.4801    0.3705 C   0  0  0  0  0  0  0  0  0  0  0  0
    1.5333   -1.6468    1.1262 N   0  0  0  0  0  0  0  0  0  0  0  0
   -0.6761   -2.1177    0.9419 C   0  0  0  0  0  0  0  0  0  0  0  0
    1.1495   -2.3789    2.1483 C   0  0  0  0  0  0  0  0  0  0  0  0
   -0.1802   -2.6893    2.0797 N   0  0  0  0  0  0  0  0  0  0  0  0
   -1.4467    1.6280   -0.5753 H   0  0  0  0  0  0  0  0  0  0  0  0
    1.3662    1.0878   -0.0221 H   0  0  0  0  0  0  0  0  0  0  0  0
    1.2912   -1.0076   -1.5220 H   0  0  0  0  0  0  0  0  0  0  0  0
   -0.4518   -0.9300   -1.4985 H   0  0  0  0  0  0  0  0  0  0  0  0
   -1.7134   -2.2160    0.6555 H   0  0  0  0  0  0  0  0  0  0  0  0
    1.7764   -2.7145    2.9623 H   0  0  0  0  0  0  0  0  0  0  0  0
   -0.7013   -3.2400    2.7489 H   0  0  0  0  0  0  0  0  0  0  0  0
    1.8965    1.4263   -2.5506 N   0  0  0  0  0  0  0  0  0  0  0  0
    2.2876    2.0500   -3.7943 C   0  0  2  0  0  0  0  0  0  0  0  0
    1.2120    1.7492   -4.8298 C   0  0  0  0  0  0  0  0  0  0  0  0
    0.4408    0.7963   -4.7386 O   0  0  0  0  0  0  0  0  0  0  0  0
    3.6460    1.5502   -4.2607 C   0  0  0  0  0  0  0  0  0  0  0  0
    2.5765    0.8474   -2.0666 H   0  0  0  0  0  0  0  0  0  0  0  0
    2.3253    3.1289   -3.6089 H   0  0  0  0  0  0  0  0  0  0  0  0
    3.6278    0.4710   -4.4516 H   0  0  0  0  0  0  0  0  0  0  0  0
    3.9537    2.0447   -5.1880 H   0  0  0  0  0  0  0  0  0  0  0  0
    4.4128    1.7406   -3.5021 H   0  0  0  0  0  0  0  0  0  0  0  0
    1.2428    2.6449   -5.8895 N   0  0  0  0  0  0  0  0  0  0  0  0
    0.3303    2.5633   -7.0061 C   0  0  0  0  0  0  0  0  0  0  0  0
    1.9038    3.4160   -5.8730 H   0  0  0  0  0  0  0  0  0  0  0  0
    0.7853    1.9648   -7.8091 H   0  0  0  0  0  0  0  0  0  0  0  0
   -0.6063    2.0875   -6.6800 H   0  0  0  0  0  0  0  0  0  0  0  0
    0.1166    3.5757   -7.3795 H   0  0  0  0  0  0  0  0  0  0  0  0
 22 24  2  0  0  0  0
 24 26  1  0  0  0  0
 23 25  2  0  0  0  0
 25 26  1  0  0  0  0
 21 22  1  0  0  0  0
 22 23  1  0  0  0  0
  1  3  1  0  0  0  0
  1  7  1  0  0  0  0
  1  2  2  0  0  0  0
 35 36  1  0  0  0  0
 36 44  1  0  0  0  0
 36 37  2  0  0  0  0
  8  9  1  0  0  0  0
  9 17  1  0  0  0  0
  9 10  2  0  0  0  0
 18 19  1  0  0  0  0
 19 34  1  0  0  0  0
 19 20  2  0  0  0  0
 35 38  1  0  0  0  0
  8 11  1  0  0  0  0
 44 45  1  0  0  0  0
 18 21  1  0  0  0  0
 34 35  1  0  0  0  0
  7  8  1  0  0  0  0
 17 18  1  0  0  0  0
 24 31  1  0  0  0  0
 25 32  1  0  0  0  0
  3  4  1  0  0  0  0
  3  5  1  0  0  0  0
  3  6  1  0  0  0  0
 38 41  1  0  0  0  0
 38 42  1  0  0  0  0
 38 43  1  0  0  0  0
 11 14  1  0  0  0  0
 11 15  1  0  0  0  0
 11 16  1  0  0  0  0
 45 47  1  0  0  0  0
 45 48  1  0  0  0  0
 45 49  1  0  0  0  0
 21 29  1  0  0  0  0
 21 30  1  0  0  0  0
 35 40  1  0  0  0  0
  8 13  1  0  0  0  0
 18 28  1  0  0  0  0
 26 33  1  0  0  0  0
 44 46  1  0  0  0  0
  7 12  1  0  0  0  0
 34 39  1  0  0  0  0
 17 27  1  0  0  0  0
M  END
$$$$

  -OEChem-05262214473D

 49 49  0     1  0  0  0  0  0999 V2000
   -1.6183    0.5613    3.8201 C   0  0  0  0  0  0  0  0  0  0  0  0
   -0.6710   -0.0534    3.3444 O   0  0  0  0  0  0  0  0  0  0  0  0
   -2.0502    0.2789    5.2208 C   0  0  0  0  0  0  0  0  0  0  0  0
   -2.8099   -0.5175    5.2742 H   0  0  0  0  0  0  0  0  0  0  0  0
   -1.2190   -0.0687    5.8551 H   0  0  0  0  0  0  0  0  0  0  0  0
   -2.4882    1.1338    5.7604 H   0  0  0  0  0  0  0  0  0  0  0  0
   -2.3680    1.5337    3.1790 N   0  0  0  0  0  0  0  0  0  0  0  0
   -2.1212    1.9597    1.8266 C   0  0  2  0  0  0  0  0  0  0  0  0
   -0.7862    1.3744    1.3854 C   0  0  0  0  0  0  0  0  0  0  0  0
    0.0859    1.0216    2.1767 O   0  0  0  0  0  0  0  0  0  0  0  0
   -2.1124    3.4765    1.7171 C   0  0  0  0  0  0  0  0  0  0  0  0
   -3.1331    1.9695    3.6908 H   0  0  0  0  0  0  0  0  0  0  0  0
   -2.9253    1.5413    1.2115 H   0  0  0  0  0  0  0  0  0  0  0  0
   -1.3133    3.9138    2.3268 H   0  0  0  0  0  0  0  0  0  0  0  0
   -1.9529    3.7988    0.6829 H   0  0  0  0  0  0  0  0  0  0  0  0
   -3.0626    3.8977    2.0629 H   0  0  0  0  0  0  0  0  0  0  0  0
   -0.6635    1.3313    0.0020 N   0  0  0  0  0  0  0  0  0  0  0  0
    0.5138    0.8305   -0.6617 C   0  0  2  0  0  0  0  0  0  0  0  0
    0.8549    1.8124   -1.7769 C   0  0  0  0  0  0  0  0  0  0  0  0
    0.2183    2.8445   -1.9775 O   0  0  0  0  0  0  0  0  0  0  0  0
    0.3011   -0.5750   -1.2357 C   0  0  0  0  0  0  0  0  0  0  0  0
    0.0420   -1.6088   -0.1671 C   0  0  0  0  0  0  0  0  0  0  0  0
    1.0667   -2.0721    0.6196 N   0  0  0  0  0  0  0  0  0  0  0  0
   -1.1502   -2.2064    0.1677 C   0  0  0  0  0  0  0  0  0  0  0  0
    0.5021   -2.9434    1.4259 C   0  0  0  0  0  0  0  0  0  0  0  0
   -0.8395   -3.0590    1.1893 N   0  0  0  0  0  0  0  0  0  0  0  0
   -1.4467    1.6280   -0.5753 H   0  0  0  0  0  0  0  0  0  0  0  0
    1.3190    0.8385    0.0823 H   0  0  0  0  0  0  0  0  0  0  0  0
    1.1695   -0.8755   -1.8375 H   0  0  0  0  0  0  0  0  0  0  0  0
   -0.5476   -0.5805   -1.9323 H   0  0  0  0  0  0  0  0  0  0  0  0
   -2.1571   -2.1091   -0.2123 H   0  0  0  0  0  0  0  0  0  0  0  0
    1.0016   -3.5174    2.1936 H   0  0  0  0  0  0  0  0  0  0  0  0
   -1.4837   -3.6639    1.6809 H   0  0  0  0  0  0  0  0  0  0  0  0
    1.9825    1.4222   -2.4858 N   0  0  0  0  0  0  0  0  0  0  0  0
    2.5355    2.1866   -3.5806 C   0  0  2  0  0  0  0  0  0  0  0  0
    1.4031    2.5136   -4.5451 C   0  0  0  0  0  0  0  0  0  0  0  0
    0.3628    1.8613   -4.6041 O   0  0  0  0  0  0  0  0  0  0  0  0
    3.6453    1.4215   -4.2847 C   0  0  0  0  0  0  0  0  0  0  0  0
    2.4423    0.5557   -2.2219 H   0  0  0  0  0  0  0  0  0  0  0  0
    2.9297    3.1142   -3.1514 H   0  0  0  0  0  0  0  0  0  0  0  0
    3.2694    0.4890   -4.7212 H   0  0  0  0  0  0  0  0  0  0  0  0
    4.0825    2.0133   -5.0956 H   0  0  0  0  0  0  0  0  0  0  0  0
    4.4451    1.1612   -3.5830 H   0  0  0  0  0  0  0  0  0  0  0  0
    1.7088    3.5931   -5.3621 N   0  0  0  0  0  0  0  0  0  0  0  0
    0.8011    4.0899   -6.3697 C   0  0  0  0  0  0  0  0  0  0  0  0
    2.5870    4.0862   -5.2308 H   0  0  0  0  0  0  0  0  0  0  0  0
    1.0195    3.6043   -7.3322 H   0  0  0  0  0  0  0  0  0  0  0  0
   -0.2342    3.8660   -6.0728 H   0  0  0  0  0  0  0  0  0  0  0  0
    0.9263    5.1780   -6.4714 H   0  0  0  0  0  0  0  0  0  0  0  0
 22 24  2  0  0  0  0
 24 26  1  0  0  0  0
 23 25  2  0  0  0  0
 25 26  1  0  0  0  0
 21 22  1  0  0  0  0
 22 23  1  0  0  0  0
  1  3  1  0  0  0  0
  1  7  1  0  0  0  0
  1  2  2  0  0  0  0
 35 36  1  0  0  0  0
 36 44  1  0  0  0  0
 36 37  2  0  0  0  0
  8  9  1  0  0  0  0
  9 17  1  0  0  0  0
  9 10  2  0  0  0  0
 18 19  1  0  0  0  0
 19 34  1  0  0  0  0
 19 20  2  0  0  0  0
 35 38  1  0  0  0  0
  8 11  1  0  0  0  0
 44 45  1  0  0  0  0
 18 21  1  0  0  0  0
 34 35  1  0  0  0  0
  7  8  1  0  0  0  0
 17 18  1  0  0  0  0
 24 31  1  0  0  0  0
 25 32  1  0  0  0  0
  3  4  1  0  0  0  0
  3  5  1  0  0  0  0
  3  6  1  0  0  0  0
 38 41  1  0  0  0  0
 38 42  1  0  0  0  0
 38 43  1  0  0  0  0
 11 14  1  0  0  0  0
 11 15  1  0  0  0  0
 11 16  1  0  0  0  0
 45 47  1  0  0  0  0
 45 48  1  0  0  0  0
 45 49  1  0  0  0  0
 21 29  1  0  0  0  0
 21 30  1  0  0  0  0
 35 40  1  0  0  0  0
  8 13  1  0  0  0  0
 18 28  1  0  0  0  0
 26 33  1  0  0  0  0
 44 46  1  0  0  0  0
  7 12  1  0  0  0  0
 34 39  1  0  0  0  0
 17 27  1  0  0  0  0
M  END
$$$$

  -OEChem-05262214473D

 49 49  0     1  0  0  0  0  0999 V2000
   -1.6183    0.5613    3.8201 C   0  0  0  0  0  0  0  0  0  0  0  0
   -0.6710   -0.0534    3.3444 O   0  0  0  0  0  0  0  0  0  0  0  0
   -2.0502    0.2789    5.2208 C   0  0  0  0  0  0  0  0  0  0  0  0
   -2.8099   -0.5175    5.2742 H   0  0  0  0  0  0  0  0  0  0  0  0
   -1.2190   -0.0687    5.8551 H   0  0  0  0  0  0  0  0  0  0  0  0
   -2.4882    1.1338    5.7604 H   0  0  0  0  0  0  0  0  0  0  0  0
   -2.3680    1.5337    3.1790 N   0  0  0  0  0  0  0  0  0  0  0  0
   -2.1212    1.9597    1.8266 C   0  0  2  0  0  0  0  0  0  0  0  0
   -0.7862    1.3744    1.3854 C   0  0  0  0  0  0  0  0  0  0  0  0
    0.0859    1.0216    2.1767 O   0  0  0  0  0  0  0  0  0  0  0  0
   -2.1124    3.4765    1.7171 C   0  0  0  0  0  0  0  0  0  0  0  0
   -3.1331    1.9695    3.6908 H   0  0  0  0  0  0  0  0  0  0  0  0
   -2.9253    1.5413    1.2115 H   0  0  0  0  0  0  0  0  0  0  0  0
   -1.3133    3.9138    2.3268 H   0  0  0  0  0  0  0  0  0  0  0  0
   -1.9529    3.7988    0.6829 H   0  0  0  0  0  0  0  0  0  0  0  0
   -3.0626    3.8977    2.0629 H   0  0  0  0  0  0  0  0  0  0  0  0
   -0.6635    1.3313    0.0020 N   0  0  0  0  0  0  0  0  0  0  0  0
    0.5138    0.8305   -0.6617 C   0  0  2  0  0  0  0  0  0  0  0  0
    0.8549    1.8124   -1.7769 C   0  0  0  0  0  0  0  0  0  0  0  0
    0.4070    2.9562   -1.8215 O   0  0  0  0  0  0  0  0  0  0  0  0
    0.3011   -0.5750   -1.2357 C   0  0  0  0  0  0  0  0  0  0  0  0
    0.0420   -1.6088   -0.1671 C   0  0  0  0  0  0  0  0  0  0  0  0
    1.0667   -2.0721    0.6196 N   0  0  0  0  0  0  0  0  0  0  0  0
   -1.1502   -2.2064    0.1677 C   0  0  0  0  0  0  0  0  0  0  0  0
    0.5021   -2.9434    1.4259 C   0  0  0  0  0  0  0  0  0  0  0  0
   -0.8395   -3.0590    1.1893 N   0  0  0  0  0  0  0  0  0  0  0  0
   -1.4467    1.6280   -0.5753 H   0  0  0  0  0  0  0  0  0  0  0  0
    1.3190    0.8385    0.0823 H   0  0  0  0  0  0  0  0  0  0  0  0
    1.1695   -0.8755   -1.8375 H   0  0  0  0  0  0  0  0  0  0  0  0
   -0.5476   -0.5805   -1.9323 H   0  0  0  0  0  0  0  0  0  0  0  0
   -2.1571   -2.1091   -0.2123 H   0  0  0  0  0  0  0  0  0  0  0  0
    1.0016   -3.5174    2.1936 H   0  0  0  0  0  0  0  0  0  0  0  0
   -1.4837   -3.6639    1.6809 H   0  0  0  0  0  0  0  0  0  0  0  0
    1.7560    1.2744   -2.6852 N   0  0  0  0  0  0  0  0  0  0  0  0
    2.2632    2.0026   -3.8259 C   0  0  2  0  0  0  0  0  0  0  0  0
    1.0756    2.6032   -4.5664 C   0  0  0  0  0  0  0  0  0  0  0  0
   -0.0672    2.1602   -4.4725 O   0  0  0  0  0  0  0  0  0  0  0  0
    3.0750    1.1002   -4.7420 C   0  0  0  0  0  0  0  0  0  0  0  0
    2.0751    0.3209   -2.5409 H   0  0  0  0  0  0  0  0  0  0  0  0
    2.8939    2.8072   -3.4325 H   0  0  0  0  0  0  0  0  0  0  0  0
    2.4598    0.2879   -5.1459 H   0  0  0  0  0  0  0  0  0  0  0  0
    3.4824    1.6596   -5.5907 H   0  0  0  0  0  0  0  0  0  0  0  0
    3.9114    0.6457   -4.2001 H   0  0  0  0  0  0  0  0  0  0  0  0
    1.4494    3.6653   -5.3779 N   0  0  0  0  0  0  0  0  0  0  0  0
    0.5052    4.3941   -6.1923 C   0  0  0  0  0  0  0  0  0  0  0  0
    2.4161    3.9769   -5.3793 H   0  0  0  0  0  0  0  0  0  0  0  0
    0.4672    3.9491   -7.1976 H   0  0  0  0  0  0  0  0  0  0  0  0
   -0.4922    4.3437   -5.7312 H   0  0  0  0  0  0  0  0  0  0  0  0
    0.8213    5.4449   -6.2684 H   0  0  0  0  0  0  0  0  0  0  0  0
 22 24  2  0  0  0  0
 24 26  1  0  0  0  0
 23 25  2  0  0  0  0
 25 26  1  0  0  0  0
 21 22  1  0  0  0  0
 22 23  1  0  0  0  0
  1  3  1  0  0  0  0
  1  7  1  0  0  0  0
  1  2  2  0  0  0  0
 35 36  1  0  0  0  0
 36 44  1  0  0  0  0
 36 37  2  0  0  0  0
  8  9  1  0  0  0  0
  9 17  1  0  0  0  0
  9 10  2  0  0  0  0
 18 19  1  0  0  0  0
 19 34  1  0  0  0  0
 19 20  2  0  0  0  0
 35 38  1  0  0  0  0
  8 11  1  0  0  0  0
 44 45  1  0  0  0  0
 18 21  1  0  0  0  0
 34 35  1  0  0  0  0
  7  8  1  0  0  0  0
 17 18  1  0  0  0  0
 24 31  1  0  0  0  0
 25 32  1  0  0  0  0
  3  4  1  0  0  0  0
  3  5  1  0  0  0  0
  3  6  1  0  0  0  0
 38 41  1  0  0  0  0
 38 42  1  0  0  0  0
 38 43  1  0  0  0  0
 11 14  1  0  0  0  0
 11 15  1  0  0  0  0
 11 16  1  0  0  0  0
 45 47  1  0  0  0  0
 45 48  1  0  0  0  0
 45 49  1  0  0  0  0
 21 29  1  0  0  0  0
 21 30  1  0  0  0  0
 35 40  1  0  0  0  0
  8 13  1  0  0  0  0
 18 28  1  0  0  0  0
 26 33  1  0  0  0  0
 44 46  1  0  0  0  0
  7 12  1  0  0  0  0
 34 39  1  0  0  0  0
 17 27  1  0  0  0  0
M  END
$$$$

  -OEChem-05262214473D

 49 49  0     1  0  0  0  0  0999 V2000
   -1.6183    0.5613    3.8201 C   0  0  0  0  0  0  0  0  0  0  0  0
   -0.6710   -0.0534    3.3444 O   0  0  0  0  0  0  0  0  0  0  0  0
   -2.0502    0.2789    5.2208 C   0  0  0  0  0  0  0  0  0  0  0  0
   -2.8099   -0.5175    5.2742 H   0  0  0  0  0  0  0  0  0  0  0  0
   -1.2190   -0.0687    5.8551 H   0  0  0  0  0  0  0  0  0  0  0  0
   -2.4882    1.1338    5.7604 H   0  0  0  0  0  0  0  0  0  0  0  0
   -2.3680    1.5337    3.1790 N   0  0  0  0  0  0  0  0  0  0  0  0
   -2.1212    1.9597    1.8266 C   0  0  2  0  0  0  0  0  0  0  0  0
   -0.7862    1.3744    1.3854 C   0  0  0  0  0  0  0  0  0  0  0  0
    0.0859    1.0216    2.1767 O   0  0  0  0  0  0  0  0  0  0  0  0
   -2.1124    3.4765    1.7171 C   0  0  0  0  0  0  0  0  0  0  0  0
   -3.1331    1.9695    3.6908 H   0  0  0  0  0  0  0  0  0  0  0  0
   -2.9253    1.5413    1.2115 H   0  0  0  0  0  0  0  0  0  0  0  0
   -1.3133    3.9138    2.3268 H   0  0  0  0  0  0  0  0  0  0  0  0
   -1.9529    3.7988    0.6829 H   0  0  0  0  0  0  0  0  0  0  0  0
   -3.0626    3.8977    2.0629 H   0  0  0  0  0  0  0  0  0  0  0  0
   -0.6635    1.3313    0.0020 N   0  0  0  0  0  0  0  0  0  0  0  0
    0.5138    0.8305   -0.6617 C   0  0  2  0  0  0  0  0  0  0  0  0
    0.8549    1.8124   -1.7769 C   0  0  0  0  0  0  0  0  0  0  0  0
    0.6365    3.0193   -1.6957 O   0  0  0  0  0  0  0  0  0  0  0  0
    0.3011   -0.5750   -1.2357 C   0  0  0  0  0  0  0  0  0  0  0  0
    0.0420   -1.6088   -0.1671 C   0  0  0  0  0  0  0  0  0  0  0  0
    1.0667   -2.0721    0.6196 N   0  0  0  0  0  0  0  0  0  0  0  0
   -1.1502   -2.2064    0.1677 C   0  0  0  0  0  0  0  0  0  0  0  0
    0.5021   -2.9434    1.4259 C   0  0  0  0  0  0  0  0  0  0  0  0
   -0.8395   -3.0590    1.1893 N   0  0  0  0  0  0  0  0  0  0  0  0
   -1.4467    1.6280   -0.5753 H   0  0  0  0  0  0  0  0  0  0  0  0
    1.3190    0.8385    0.0823 H   0  0  0  0  0  0  0  0  0  0  0  0
    1.1695   -0.8755   -1.8375 H   0  0  0  0  0  0  0  0  0  0  0  0
   -0.5476   -0.5805   -1.9323 H   0  0  0  0  0  0  0  0  0  0  0  0
   -2.1571   -2.1091   -0.2123 H   0  0  0  0  0  0  0  0  0  0  0  0
    1.0016   -3.5174    2.1936 H   0  0  0  0  0  0  0  0  0  0  0  0
   -1.4837   -3.6639    1.6809 H   0  0  0  0  0  0  0  0  0  0  0  0
    1.4760    1.1861   -2.8485 N   0  0  0  0  0  0  0  0  0  0  0  0
    1.9244    1.8906   -4.0281 C   0  0  2  0  0  0  0  0  0  0  0  0
    0.7726    2.7531   -4.5271 C   0  0  0  0  0  0  0  0  0  0  0  0
   -0.4041    2.5227   -4.2563 O   0  0  0  0  0  0  0  0  0  0  0  0
    2.3871    0.9243   -5.1074 C   0  0  0  0  0  0  0  0  0  0  0  0
    1.6228    0.1822   -2.8014 H   0  0  0  0  0  0  0  0  0  0  0  0
    2.7544    2.5338   -3.7160 H   0  0  0  0  0  0  0  0  0  0  0  0
    1.5689    0.2715   -5.4328 H   0  0  0  0  0  0  0  0  0  0  0  0
    2.7531    1.4601   -5.9893 H   0  0  0  0  0  0  0  0  0  0  0  0
    3.1954    0.2845   -4.7372 H   0  0  0  0  0  0  0  0  0  0  0  0
    1.2098    3.7850   -5.3457 N   0  0  0  0  0  0  0  0  0  0  0  0
    0.3066    4.7337   -5.9541 C   0  0  0  0  0  0  0  0  0  0  0  0
    2.2056    3.9123   -5.5006 H   0  0  0  0  0  0  0  0  0  0  0  0
    0.0214    4.3789   -6.9555 H   0  0  0  0  0  0  0  0  0  0  0  0
   -0.5940    4.8341   -5.3305 H   0  0  0  0  0  0  0  0  0  0  0  0
    0.8043    5.7109   -6.0394 H   0  0  0  0  0  0  0  0  0  0  0  0
 22 24  2  0  0  0  0
 24 26  1  0  0  0  0
 23 25  2  0  0  0  0
 25 26  1  0  0  0  0
 21 22  1  0  0  0  0
 22 23  1  0  0  0  0
  1  3  1  0  0  0  0
  1  7  1  0  0  0  0
  1  2  2  0  0  0  0
 35 36  1  0  0  0  0
 36 44  1  0  0  0  0
 36 37  2  0  0  0  0
  8  9  1  0  0  0  0
  9 17  1  0  0  0  0
  9 10  2  0  0  0  0
 18 19  1  0  0  0  0
 19 34  1  0  0  0  0
 19 20  2  0  0  0  0
 35 38  1  0  0  0  0
  8 11  1  0  0  0  0
 44 45  1  0  0  0  0
 18 21  1  0  0  0  0
 34 35  1  0  0  0  0
  7  8  1  0  0  0  0
 17 18  1  0  0  0  0
 24 31  1  0  0  0  0
 25 32  1  0  0  0  0
  3  4  1  0  0  0  0
  3  5  1  0  0  0  0
  3  6  1  0  0  0  0
 38 41  1  0  0  0  0
 38 42  1  0  0  0  0
 38 43  1  0  0  0  0
 11 14  1  0  0  0  0
 11 15  1  0  0  0  0
 11 16  1  0  0  0  0
 45 47  1  0  0  0  0
 45 48  1  0  0  0  0
 45 49  1  0  0  0  0
 21 29  1  0  0  0  0
 21 30  1  0  0  0  0
 35 40  1  0  0  0  0
  8 13  1  0  0  0  0
 18 28  1  0  0  0  0
 26 33  1  0  0  0  0
 44 46  1  0  0  0  0
  7 12  1  0  0  0  0
 34 39  1  0  0  0  0
 17 27  1  0  0  0  0
M  END
$$$$

  -OEChem-05262214473D

 49 49  0     1  0  0  0  0  0999 V2000
   -1.6183    0.5613    3.8201 C   0  0  0  0  0  0  0  0  0  0  0  0
   -0.6710   -0.0534    3.3444 O   0  0  0  0  0  0  0  0  0  0  0  0
   -2.0502    0.2789    5.2208 C   0  0  0  0  0  0  0  0  0  0  0  0
   -2.8099   -0.5175    5.2742 H   0  0  0  0  0  0  0  0  0  0  0  0
   -1.2190   -0.0687    5.8551 H   0  0  0  0  0  0  0  0  0  0  0  0
   -2.4882    1.1338    5.7604 H   0  0  0  0  0  0  0  0  0  0  0  0
   -2.3680    1.5337    3.1790 N   0  0  0  0  0  0  0  0  0  0  0  0
   -2.1212    1.9597    1.8266 C   0  0  2  0  0  0  0  0  0  0  0  0
   -0.7862    1.3744    1.3854 C   0  0  0  0  0  0  0  0  0  0  0  0
    0.0859    1.0216    2.1767 O   0  0  0  0  0  0  0  0  0  0  0  0
   -2.1124    3.4765    1.7171 C   0  0  0  0  0  0  0  0  0  0  0  0
   -3.1331    1.9695    3.6908 H   0  0  0  0  0  0  0  0  0  0  0  0
   -2.9253    1.5413    1.2115 H   0  0  0  0  0  0  0  0  0  0  0  0
   -1.3133    3.9138    2.3268 H   0  0  0  0  0  0  0  0  0  0  0  0
   -1.9529    3.7988    0.6829 H   0  0  0  0  0  0  0  0  0  0  0  0
   -3.0626    3.8977    2.0629 H   0  0  0  0  0  0  0  0  0  0  0  0
   -0.6635    1.3313    0.0020 N   0  0  0  0  0  0  0  0  0  0  0  0
    0.5138    0.8305   -0.6617 C   0  0  2  0  0  0  0  0  0  0  0  0
    0.8549    1.8124   -1.7769 C   0  0  0  0  0  0  0  0  0  0  0  0
    0.8911    3.0295   -1.6089 O   0  0  0  0  0  0  0  0  0  0  0  0
    0.3011   -0.5750   -1.2357 C   0  0  0  0  0  0  0  0  0  0  0  0
    0.0420   -1.6088   -0.1671 C   0  0  0  0  0  0  0  0  0  0  0  0
    1.0667   -2.0721    0.6196 N   0  0  0  0  0  0  0  0  0  0  0  0
   -1.1502   -2.2064    0.1677 C   0  0  0  0  0  0  0  0  0  0  0  0
    0.5021   -2.9434    1.4259 C   0  0  0  0  0  0  0  0  0  0  0  0
   -0.8395   -3.0590    1.1893 N   0  0  0  0  0  0  0  0  0  0  0  0
   -1.4467    1.6280   -0.5753 H   0  0  0  0  0  0  0  0  0  0  0  0
    1.3190    0.8385    0.0823 H   0  0  0  0  0  0  0  0  0  0  0  0
    1.1695   -0.8755   -1.8375 H   0  0  0  0  0  0  0  0  0  0  0  0
   -0.5476   -0.5805   -1.9323 H   0  0  0  0  0  0  0  0  0  0  0  0
   -2.1571   -2.1091   -0.2123 H   0  0  0  0  0  0  0  0  0  0  0  0
    1.0016   -3.5174    2.1936 H   0  0  0  0  0  0  0  0  0  0  0  0
   -1.4837   -3.6639    1.6809 H   0  0  0  0  0  0  0  0  0  0  0  0
    1.1616    1.1633   -2.9648 N   0  0  0  0  0  0  0  0  0  0  0  0
    1.5423    1.8584   -4.1734 C   0  0  2  0  0  0  0  0  0  0  0  0
    0.5149    2.9529   -4.4300 C   0  0  0  0  0  0  0  0  0  0  0  0
   -0.6249    2.9241   -3.9704 O   0  0  0  0  0  0  0  0  0  0  0  0
    1.6284    0.9058   -5.3557 C   0  0  0  0  0  0  0  0  0  0  0  0
    1.1162    0.1488   -2.9857 H   0  0  0  0  0  0  0  0  0  0  0  0
    2.5206    2.3125   -3.9823 H   0  0  0  0  0  0  0  0  0  0  0  0
    0.6574    0.4410   -5.5624 H   0  0  0  0  0  0  0  0  0  0  0  0
    1.9446    1.4287   -6.2644 H   0  0  0  0  0  0  0  0  0  0  0  0
    2.3460    0.1023   -5.1574 H   0  0  0  0  0  0  0  0  0  0  0  0
    1.0065    3.9442   -5.2677 N   0  0  0  0  0  0  0  0  0  0  0  0
    0.2187    5.0855   -5.6712 C   0  0  0  0  0  0  0  0  0  0  0  0
    1.9698    3.8967   -5.5864 H   0  0  0  0  0  0  0  0  0  0  0  0
   -0.2875    4.8645   -6.6224 H   0  0  0  0  0  0  0  0  0  0  0  0
   -0.5328    5.3039   -4.8982 H   0  0  0  0  0  0  0  0  0  0  0  0
    0.8764    5.9578   -5.8000 H   0  0  0  0  0  0  0  0  0  0  0  0
 22 24  2  0  0  0  0
 24 26  1  0  0  0  0
 23 25  2  0  0  0  0
 25 26  1  0  0  0  0
 21 22  1  0  0  0  0
 22 23  1  0  0  0  0
  1  3  1  0  0  0  0
  1  7  1  0  0  0  0
  1  2  2  0  0  0  0
 35 36  1  0  0  0  0
 36 44  1  0  0  0  0
 36 37  2  0  0  0  0
  8  9  1  0  0  0  0
  9 17  1  0  0  0  0
  9 10  2  0  0  0  0
 18 19  1  0  0  0  0
 19 34  1  0  0  0  0
 19 20  2  0  0  0  0
 35 38  1  0  0  0  0
  8 11  1  0  0  0  0
 44 45  1  0  0  0  0
 18 21  1  0  0  0  0
 34 35  1  0  0  0  0
  7  8  1  0  0  0  0
 17 18  1  0  0  0  0
 24 31  1  0  0  0  0
 25 32  1  0  0  0  0
  3  4  1  0  0  0  0
  3  5  1  0  0  0  0
  3  6  1  0  0  0  0
 38 41  1  0  0  0  0
 38 42  1  0  0  0  0
 38 43  1  0  0  0  0
 11 14  1  0  0  0  0
 11 15  1  0  0  0  0
 11 16  1  0  0  0  0
 45 47  1  0  0  0  0
 45 48  1  0  0  0  0
 45 49  1  0  0  0  0
 21 29  1  0  0  0  0
 21 30  1  0  0  0  0
 35 40  1  0  0  0  0
  8 13  1  0  0  0  0
 18 28  1  0  0  0  0
 26 33  1  0  0  0  0
 44 46  1  0  0  0  0
  7 12  1  0  0  0  0
 34 39  1  0  0  0  0
 17 27  1  0  0  0  0
M  END
$$$$

  -OEChem-05262214473D

 49 49  0     1  0  0  0  0  0999 V2000
   -1.6183    0.5613    3.8201 C   0  0  0  0  0  0  0  0  0  0  0  0
   -0.6710   -0.0534    3.3444 O   0  0  0  0  0  0  0  0  0  0  0  0
   -2.0502    0.2789    5.2208 C   0  0  0  0  0  0  0  0  0  0  0  0
   -2.8099   -0.5175    5.2742 H   0  0  0  0  0  0  0  0  0  0  0  0
   -1.2190   -0.0687    5.8551 H   0  0  0  0  0  0  0  0  0  0  0  0
   -2.4882    1.1338    5.7604 H   0  0  0  0  0  0  0  0  0  0  0  0
   -2.3680    1.5337    3.1790 N   0  0  0  0  0  0  0  0  0  0  0  0
   -2.1212    1.9597    1.8266 C   0  0  2  0  0  0  0  0  0  0  0  0
   -0.7862    1.3744    1.3854 C   0  0  0  0  0  0  0  0  0  0  0  0
    0.0859    1.0216    2.1767 O   0  0  0  0  0  0  0  0  0  0  0  0
   -2.1124    3.4765    1.7171 C   0  0  0  0  0  0  0  0  0  0  0  0
   -3.1331    1.9695    3.6908 H   0  0  0  0  0  0  0  0  0  0  0  0
   -2.9253    1.5413    1.2115 H   0  0  0  0  0  0  0  0  0  0  0  0
   -1.3133    3.9138    2.3268 H   0  0  0  0  0  0  0  0  0  0  0  0
   -1.9529    3.7988    0.6829 H   0  0  0  0  0  0  0  0  0  0  0  0
   -3.0626    3.8977    2.0629 H   0  0  0  0  0  0  0  0  0  0  0  0
   -0.6635    1.3313    0.0020 N   0  0  0  0  0  0  0  0  0  0  0  0
    0.5138    0.8305   -0.6617 C   0  0  2  0  0  0  0  0  0  0  0  0
    0.8549    1.8124   -1.7769 C   0  0  0  0  0  0  0  0  0  0  0  0
    1.1534    2.9861   -1.5668 O   0  0  0  0  0  0  0  0  0  0  0  0
    0.3011   -0.5750   -1.2357 C   0  0  0  0  0  0  0  0  0  0  0  0
    0.0420   -1.6088   -0.1671 C   0  0  0  0  0  0  0  0  0  0  0  0
    1.0667   -2.0721    0.6196 N   0  0  0  0  0  0  0  0  0  0  0  0
   -1.1502   -2.2064    0.1677 C   0  0  0  0  0  0  0  0  0  0  0  0
    0.5021   -2.9434    1.4259 C   0  0  0  0  0  0  0  0  0  0  0  0
   -0.8395   -3.0590    1.1893 N   0  0  0  0  0  0  0  0  0  0  0  0
   -1.4467    1.6280   -0.5753 H   0  0  0  0  0  0  0  0  0  0  0  0
    1.3190    0.8385    0.0823 H   0  0  0  0  0  0  0  0  0  0  0  0
    1.1695   -0.8755   -1.8375 H   0  0  0  0  0  0  0  0  0  0  0  0
   -0.5476   -0.5805   -1.9323 H   0  0  0  0  0  0  0  0  0  0  0  0
   -2.1571   -2.1091   -0.2123 H   0  0  0  0  0  0  0  0  0  0  0  0
    1.0016   -3.5174    2.1936 H   0  0  0  0  0  0  0  0  0  0  0  0
   -1.4837   -3.6639    1.6809 H   0  0  0  0  0  0  0  0  0  0  0  0
    0.8342    1.2076   -3.0260 N   0  0  0  0  0  0  0  0  0  0  0  0
    1.1428    1.9079   -4.2520 C   0  0  2  0  0  0  0  0  0  0  0  0
    0.3199    3.1891   -4.2816 C   0  0  0  0  0  0  0  0  0  0  0  0
   -0.7145    3.3371   -3.6342 O   0  0  0  0  0  0  0  0  0  0  0  0
    0.8506    1.0459   -5.4702 C   0  0  0  0  0  0  0  0  0  0  0  0
    0.5898    0.2232   -3.0812 H   0  0  0  0  0  0  0  0  0  0  0  0
    2.2085    2.1585   -4.2134 H   0  0  0  0  0  0  0  0  0  0  0  0
   -0.2125    0.7847   -5.5258 H   0  0  0  0  0  0  0  0  0  0  0  0
    1.1117    1.5673   -6.3971 H   0  0  0  0  0  0  0  0  0  0  0  0
    1.4209    0.1115   -5.4323 H   0  0  0  0  0  0  0  0  0  0  0  0
    0.8532    4.1319   -5.1493 N   0  0  0  0  0  0  0  0  0  0  0  0
    0.2476    5.4256   -5.3629 C   0  0  0  0  0  0  0  0  0  0  0  0
    1.7248    3.9313   -5.6309 H   0  0  0  0  0  0  0  0  0  0  0  0
   -0.4384    5.3727   -6.2211 H   0  0  0  0  0  0  0  0  0  0  0  0
   -0.3126    5.7211   -4.4635 H   0  0  0  0  0  0  0  0  0  0  0  0
    1.0327    6.1687   -5.5665 H   0  0  0  0  0  0  0  0  0  0  0  0
 22 24  2  0  0  0  0
 24 26  1  0  0  0  0
 23 25  2  0  0  0  0
 25 26  1  0  0  0  0
 21 22  1  0  0  0  0
 22 23  1  0  0  0  0
  1  3  1  0  0  0  0
  1  7  1  0  0  0  0
  1  2  2  0  0  0  0
 35 36  1  0  0  0  0
 36 44  1  0  0  0  0
 36 37  2  0  0  0  0
  8  9  1  0  0  0  0
  9 17  1  0  0  0  0
  9 10  2  0  0  0  0
 18 19  1  0  0  0  0
 19 34  1  0  0  0  0
 19 20  2  0  0  0  0
 35 38  1  0  0  0  0
  8 11  1  0  0  0  0
 44 45  1  0  0  0  0
 18 21  1  0  0  0  0
 34 35  1  0  0  0  0
  7  8  1  0  0  0  0
 17 18  1  0  0  0  0
 24 31  1  0  0  0  0
 25 32  1  0  0  0  0
  3  4  1  0  0  0  0
  3  5  1  0  0  0  0
  3  6  1  0  0  0  0
 38 41  1  0  0  0  0
 38 42  1  0  0  0  0
 38 43  1  0  0  0  0
 11 14  1  0  0  0  0
 11 15  1  0  0  0  0
 11 16  1  0  0  0  0
 45 47  1  0  0  0  0
 45 48  1  0  0  0  0
 45 49  1  0  0  0  0
 21 29  1  0  0  0  0
 21 30  1  0  0  0  0
 35 40  1  0  0  0  0
  8 13  1  0  0  0  0
 18 28  1  0  0  0  0
 26 33  1  0  0  0  0
 44 46  1  0  0  0  0
  7 12  1  0  0  0  0
 34 39  1  0  0  0  0
 17 27  1  0  0  0  0
M  END
$$$$

  -OEChem-05262214473D

 49 49  0     1  0  0  0  0  0999 V2000
   -1.6183    0.5613    3.8201 C   0  0  0  0  0  0  0  0  0  0  0  0
   -0.6710   -0.0534    3.3444 O   0  0  0  0  0  0  0  0  0  0  0  0
   -2.0502    0.2789    5.2208 C   0  0  0  0  0  0  0  0  0  0  0  0
   -2.8099   -0.5175    5.2742 H   0  0  0  0  0  0  0  0  0  0  0  0
   -1.2190   -0.0687    5.8551 H   0  0  0  0  0  0  0  0  0  0  0  0
   -2.4882    1.1338    5.7604 H   0  0  0  0  0  0  0  0  0  0  0  0
   -2.3680    1.5337    3.1790 N   0  0  0  0  0  0  0  0  0  0  0  0
   -2.1212    1.9597    1.8266 C   0  0  2  0  0  0  0  0  0  0  0  0
   -0.7862    1.3744    1.3854 C   0  0  0  0  0  0  0  0  0  0  0  0
    0.0859    1.0216    2.1767 O   0  0  0  0  0  0  0  0  0  0  0  0
   -2.1124    3.4765    1.7171 C   0  0  0  0  0  0  0  0  0  0  0  0
   -3.1331    1.9695    3.6908 H   0  0  0  0  0  0  0  0  0  0  0  0
   -2.9253    1.5413    1.2115 H   0  0  0  0  0  0  0  0  0  0  0  0
   -1.3133    3.9138    2.3268 H   0  0  0  0  0  0  0  0  0  0  0  0
   -1.9529    3.7988    0.6829 H   0  0  0  0  0  0  0  0  0  0  0  0
   -3.0626    3.8977    2.0629 H   0  0  0  0  0  0  0  0  0  0  0  0
   -0.6635    1.3313    0.0020 N   0  0  0  0  0  0  0  0  0  0  0  0
    0.5138    0.8305   -0.6617 C   0  0  2  0  0  0  0  0  0  0  0  0
    0.8549    1.8124   -1.7769 C   0  0  0  0  0  0  0  0  0  0  0  0
    1.4055    2.8921   -1.5724 O   0  0  0  0  0  0  0  0  0  0  0  0
    0.3011   -0.5750   -1.2357 C   0  0  0  0  0  0  0  0  0  0  0  0
    0.0420   -1.6088   -0.1671 C   0  0  0  0  0  0  0  0  0  0  0  0
    1.0667   -2.0721    0.6196 N   0  0  0  0  0  0  0  0  0  0  0  0
   -1.1502   -2.2064    0.1677 C   0  0  0  0  0  0  0  0  0  0  0  0
    0.5021   -2.9434    1.4259 C   0  0  0  0  0  0  0  0  0  0  0  0
   -0.8395   -3.0590    1.1893 N   0  0  0  0  0  0  0  0  0  0  0  0
   -1.4467    1.6280   -0.5753 H   0  0  0  0  0  0  0  0  0  0  0  0
    1.3190    0.8385    0.0823 H   0  0  0  0  0  0  0  0  0  0  0  0
    1.1695   -0.8755   -1.8375 H   0  0  0  0  0  0  0  0  0  0  0  0
   -0.5476   -0.5805   -1.9323 H   0  0  0  0  0  0  0  0  0  0  0  0
   -2.1571   -2.1091   -0.2123 H   0  0  0  0  0  0  0  0  0  0  0  0
    1.0016   -3.5174    2.1936 H   0  0  0  0  0  0  0  0  0  0  0  0
   -1.4837   -3.6639    1.6809 H   0  0  0  0  0  0  0  0  0  0  0  0
    0.5161    1.3159   -3.0279 N   0  0  0  0  0  0  0  0  0  0  0  0
    0.7533    2.0360   -4.2584 C   0  0  2  0  0  0  0  0  0  0  0  0
    0.2011    3.4456   -4.0922 C   0  0  0  0  0  0  0  0  0  0  0  0
   -0.6668    3.7335   -3.2706 O   0  0  0  0  0  0  0  0  0  0  0  0
    0.1068    1.3352   -5.4431 C   0  0  0  0  0  0  0  0  0  0  0  0
    0.0796    0.4003   -3.0814 H   0  0  0  0  0  0  0  0  0  0  0  0
    1.8394    2.0822   -4.3935 H   0  0  0  0  0  0  0  0  0  0  0  0
   -0.9816    1.2794   -5.3256 H   0  0  0  0  0  0  0  0  0  0  0  0
    0.3114    1.8665   -6.3784 H   0  0  0  0  0  0  0  0  0  0  0  0
    0.4832    0.3114   -5.5431 H   0  0  0  0  0  0  0  0  0  0  0  0
    0.7605    4.3354   -4.9985 N   0  0  0  0  0  0  0  0  0  0  0  0
    0.3913    5.7308   -5.0502 C   0  0  0  0  0  0  0  0  0  0  0  0
    1.4873    4.0137   -5.6310 H   0  0  0  0  0  0  0  0  0  0  0  0
   -0.4211    5.8689   -5.7789 H   0  0  0  0  0  0  0  0  0  0  0  0
    0.0516    6.0571   -4.0562 H   0  0  0  0  0  0  0  0  0  0  0  0
    1.2625    6.3294   -5.3547 H   0  0  0  0  0  0  0  0  0  0  0  0
 22 24  2  0  0  0  0
 24 26  1  0  0  0  0
 23 25  2  0  0  0  0
 25 26  1  0  0  0  0
 21 22  1  0  0  0  0
 22 23  1  0  0  0  0
  1  3  1  0  0  0  0
  1  7  1  0  0  0  0
  1  2  2  0  0  0  0
 35 36  1  0  0  0  0
 36 44  1  0  0  0  0
 36 37  2  0  0  0  0
  8  9  1  0  0  0  0
  9 17  1  0  0  0  0
  9 10  2  0  0  0  0
 18 19  1  0  0  0  0
 19 34  1  0  0  0  0
 19 20  2  0  0  0  0
 35 38  1  0  0  0  0
  8 11  1  0  0  0  0
 44 45  1  0  0  0  0
 18 21  1  0  0  0  0
 34 35  1  0  0  0  0
  7  8  1  0  0  0  0
 17 18  1  0  0  0  0
 24 31  1  0  0  0  0
 25 32  1  0  0  0  0
  3  4  1  0  0  0  0
  3  5  1  0  0  0  0
  3  6  1  0  0  0  0
 38 41  1  0  0  0  0
 38 42  1  0  0  0  0
 38 43  1  0  0  0  0
 11 14  1  0  0  0  0
 11 15  1  0  0  0  0
 11 16  1  0  0  0  0
 45 47  1  0  0  0  0
 45 48  1  0  0  0  0
 45 49  1  0  0  0  0
 21 29  1  0  0  0  0
 21 30  1  0  0  0  0
 35 40  1  0  0  0  0
  8 13  1  0  0  0  0
 18 28  1  0  0  0  0
 26 33  1  0  0  0  0
 44 46  1  0  0  0  0
  7 12  1  0  0  0  0
 34 39  1  0  0  0  0
 17 27  1  0  0  0  0
M  END
$$$$

  -OEChem-05262214473D

 49 49  0     1  0  0  0  0  0999 V2000
   -1.6183    0.5613    3.8201 C   0  0  0  0  0  0  0  0  0  0  0  0
   -0.6710   -0.0534    3.3444 O   0  0  0  0  0  0  0  0  0  0  0  0
   -2.0502    0.2789    5.2208 C   0  0  0  0  0  0  0  0  0  0  0  0
   -2.8099   -0.5175    5.2742 H   0  0  0  0  0  0  0  0  0  0  0  0
   -1.2190   -0.0687    5.8551 H   0  0  0  0  0  0  0  0  0  0  0  0
   -2.4882    1.1338    5.7604 H   0  0  0  0  0  0  0  0  0  0  0  0
   -2.3680    1.5337    3.1790 N   0  0  0  0  0  0  0  0  0  0  0  0
   -2.1212    1.9597    1.8266 C   0  0  2  0  0  0  0  0  0  0  0  0
   -0.7862    1.3744    1.3854 C   0  0  0  0  0  0  0  0  0  0  0  0
    0.0859    1.0216    2.1767 O   0  0  0  0  0  0  0  0  0  0  0  0
   -2.1124    3.4765    1.7171 C   0  0  0  0  0  0  0  0  0  0  0  0
   -3.1331    1.9695    3.6908 H   0  0  0  0  0  0  0  0  0  0  0  0
   -2.9253    1.5413    1.2115 H   0  0  0  0  0  0  0  0  0  0  0  0
   -1.3133    3.9138    2.3268 H   0  0  0  0  0  0  0  0  0  0  0  0
   -1.9529    3.7988    0.6829 H   0  0  0  0  0  0  0  0  0  0  0  0
   -3.0626    3.8977    2.0629 H   0  0  0  0  0  0  0  0  0  0  0  0
   -0.6635    1.3313    0.0020 N   0  0  0  0  0  0  0  0  0  0  0  0
    0.5138    0.8305   -0.6617 C   0  0  2  0  0  0  0  0  0  0  0  0
    0.8549    1.8124   -1.7769 C   0  0  0  0  0  0  0  0  0  0  0  0
    1.6304    2.7539   -1.6254 O   0  0  0  0  0  0  0  0  0  0  0  0
    0.3011   -0.5750   -1.2357 C   0  0  0  0  0  0  0  0  0  0  0  0
    0.0420   -1.6088   -0.1671 C   0  0  0  0  0  0  0  0  0  0  0  0
    1.0667   -2.0721    0.6196 N   0  0  0  0  0  0  0  0  0  0  0  0
   -1.1502   -2.2064    0.1677 C   0  0  0  0  0  0  0  0  0  0  0  0
    0.5021   -2.9434    1.4259 C   0  0  0  0  0  0  0  0  0  0  0  0
   -0.8395   -3.0590    1.1893 N   0  0  0  0  0  0  0  0  0  0  0  0
   -1.4467    1.6280   -0.5753 H   0  0  0  0  0  0  0  0  0  0  0  0
    1.3190    0.8385    0.0823 H   0  0  0  0  0  0  0  0  0  0  0  0
    1.1695   -0.8755   -1.8375 H   0  0  0  0  0  0  0  0  0  0  0  0
   -0.5476   -0.5805   -1.9323 H   0  0  0  0  0  0  0  0  0  0  0  0
   -2.1571   -2.1091   -0.2123 H   0  0  0  0  0  0  0  0  0  0  0  0
    1.0016   -3.5174    2.1936 H   0  0  0  0  0  0  0  0  0  0  0  0
   -1.4837   -3.6639    1.6809 H   0  0  0  0  0  0  0  0  0  0  0  0
    0.2291    1.4808   -2.9705 N   0  0  0  0  0  0  0  0  0  0  0  0
    0.4002    2.2338   -4.1922 C   0  0  2  0  0  0  0  0  0  0  0  0
    0.1665    3.7049   -3.8745 C   0  0  0  0  0  0  0  0  0  0  0  0
   -0.4850    4.0863   -2.9044 O   0  0  0  0  0  0  0  0  0  0  0  0
   -0.5524    1.7538   -5.2761 C   0  0  0  0  0  0  0  0  0  0  0  0
   -0.3798    0.6679   -2.9863 H   0  0  0  0  0  0  0  0  0  0  0  0
    1.4383    2.0888   -4.5104 H   0  0  0  0  0  0  0  0  0  0  0  0
   -1.5974    1.8911   -4.9753 H   0  0  0  0  0  0  0  0  0  0  0  0
   -0.4019    2.3060   -6.2096 H   0  0  0  0  0  0  0  0  0  0  0  0
   -0.4032    0.6884   -5.4823 H   0  0  0  0  0  0  0  0  0  0  0  0
    0.7345    4.5408   -4.8256 N   0  0  0  0  0  0  0  0  0  0  0  0
    0.6400    5.9803   -4.7545 C   0  0  0  0  0  0  0  0  0  0  0  0
    1.2734    4.1383   -5.5867 H   0  0  0  0  0  0  0  0  0  0  0  0
   -0.2366    6.3194   -5.3259 H   0  0  0  0  0  0  0  0  0  0  0  0
    0.5348    6.2892   -3.7040 H   0  0  0  0  0  0  0  0  0  0  0  0
    1.5502    6.4288   -5.1792 H   0  0  0  0  0  0  0  0  0  0  0  0
 22 24  2  0  0  0  0
 24 26  1  0  0  0  0
 23 25  2  0  0  0  0
 25 26  1  0  0  0  0
 21 22  1  0  0  0  0
 22 23  1  0  0  0  0
  1  3  1  0  0  0  0
  1  7  1  0  0  0  0
  1  2  2  0  0  0  0
 35 36  1  0  0  0  0
 36 44  1  0  0  0  0
 36 37  2  0  0  0  0
  8  9  1  0  0  0  0
  9 17  1  0  0  0  0
  9 10  2  0  0  0  0
 18 19  1  0  0  0  0
 19 34  1  0  0  0  0
 19 20  2  0  0  0  0
 35 38  1  0  0  0  0
  8 11  1  0  0  0  0
 44 45  1  0  0  0  0
 18 21  1  0  0  0  0
 34 35  1  0  0  0  0
  7  8  1  0  0  0  0
 17 18  1  0  0  0  0
 24 31  1  0  0  0  0
 25 32  1  0  0  0  0
  3  4  1  0  0  0  0
  3  5  1  0  0  0  0
  3  6  1  0  0  0  0
 38 41  1  0  0  0  0
 38 42  1  0  0  0  0
 38 43  1  0  0  0  0
 11 14  1  0  0  0  0
 11 15  1  0  0  0  0
 11 16  1  0  0  0  0
 45 47  1  0  0  0  0
 45 48  1  0  0  0  0
 45 49  1  0  0  0  0
 21 29  1  0  0  0  0
 21 30  1  0  0  0  0
 35 40  1  0  0  0  0
  8 13  1  0  0  0  0
 18 28  1  0  0  0  0
 26 33  1  0  0  0  0
 44 46  1  0  0  0  0
  7 12  1  0  0  0  0
 34 39  1  0  0  0  0
 17 27  1  0  0  0  0
M  END
$$$$

  -OEChem-05262214473D

 49 49  0     1  0  0  0  0  0999 V2000
   -1.6183    0.5613    3.8201 C   0  0  0  0  0  0  0  0  0  0  0  0
   -0.6710   -0.0534    3.3444 O   0  0  0  0  0  0  0  0  0  0  0  0
   -2.0502    0.2789    5.2208 C   0  0  0  0  0  0  0  0  0  0  0  0
   -2.8099   -0.5175    5.2742 H   0  0  0  0  0  0  0  0  0  0  0  0
   -1.2190   -0.0687    5.8551 H   0  0  0  0  0  0  0  0  0  0  0  0
   -2.4882    1.1338    5.7604 H   0  0  0  0  0  0  0  0  0  0  0  0
   -2.3680    1.5337    3.1790 N   0  0  0  0  0  0  0  0  0  0  0  0
   -2.1212    1.9597    1.8266 C   0  0  2  0  0  0  0  0  0  0  0  0
   -0.7862    1.3744    1.3854 C   0  0  0  0  0  0  0  0  0  0  0  0
    0.0859    1.0216    2.1767 O   0  0  0  0  0  0  0  0  0  0  0  0
   -2.1124    3.4765    1.7171 C   0  0  0  0  0  0  0  0  0  0  0  0
   -3.1331    1.9695    3.6908 H   0  0  0  0  0  0  0  0  0  0  0  0
   -2.9253    1.5413    1.2115 H   0  0  0  0  0  0  0  0  0  0  0  0
   -1.3133    3.9138    2.3268 H   0  0  0  0  0  0  0  0  0  0  0  0
   -1.9529    3.7988    0.6829 H   0  0  0  0  0  0  0  0  0  0  0  0
   -3.0626    3.8977    2.0629 H   0  0  0  0  0  0  0  0  0  0  0  0
   -0.6635    1.3313    0.0020 N   0  0  0  0  0  0  0  0  0  0  0  0
    0.5138    0.8305   -0.6617 C   0  0  2  0  0  0  0  0  0  0  0  0
    0.8549    1.8124   -1.7769 C   0  0  0  0  0  0  0  0  0  0  0  0
    1.8126    2.5809   -1.7219 O   0  0  0  0  0  0  0  0  0  0  0  0
    0.3011   -0.5750   -1.2357 C   0  0  0  0  0  0  0  0  0  0  0  0
    0.0420   -1.6088   -0.1671 C   0  0  0  0  0  0  0  0  0  0  0  0
    1.0667   -2.0721    0.6196 N   0  0  0  0  0  0  0  0  0  0  0  0
   -1.1502   -2.2064    0.1677 C   0  0  0  0  0  0  0  0  0  0  0  0
    0.5021   -2.9434    1.4259 C   0  0  0  0  0  0  0  0  0  0  0  0
   -0.8395   -3.0590    1.1893 N   0  0  0  0  0  0  0  0  0  0  0  0
   -1.4467    1.6280   -0.5753 H   0  0  0  0  0  0  0  0  0  0  0  0
    1.3190    0.8385    0.0823 H   0  0  0  0  0  0  0  0  0  0  0  0
    1.1695   -0.8755   -1.8375 H   0  0  0  0  0  0  0  0  0  0  0  0
   -0.5476   -0.5805   -1.9323 H   0  0  0  0  0  0  0  0  0  0  0  0
   -2.1571   -2.1091   -0.2123 H   0  0  0  0  0  0  0  0  0  0  0  0
    1.0016   -3.5174    2.1936 H   0  0  0  0  0  0  0  0  0  0  0  0
   -1.4837   -3.6639    1.6809 H   0  0  0  0  0  0  0  0  0  0  0  0
   -0.0074    1.6911   -2.8577 N   0  0  0  0  0  0  0  0  0  0  0  0
    0.1076    2.4879   -4.0580 C   0  0  2  0  0  0  0  0  0  0  0  0
    0.2184    3.9492   -3.6435 C   0  0  0  0  0  0  0  0  0  0  0  0
   -0.1817    4.3715   -2.5605 O   0  0  0  0  0  0  0  0  0  0  0  0
   -1.0820    2.2733   -4.9807 C   0  0  0  0  0  0  0  0  0  0  0  0
   -0.7570    1.0079   -2.8024 H   0  0  0  0  0  0  0  0  0  0  0  0
    1.0327    2.1778   -4.5560 H   0  0  0  0  0  0  0  0  0  0  0  0
   -2.0181    2.5784   -4.4989 H   0  0  0  0  0  0  0  0  0  0  0  0
   -0.9795    2.8558   -5.9022 H   0  0  0  0  0  0  0  0  0  0  0  0
   -1.1778    1.2169   -5.2539 H   0  0  0  0  0  0  0  0  0  0  0  0
    0.7772    4.7341   -4.6424 N   0  0  0  0  0  0  0  0  0  0  0  0
    0.9768    6.1570   -4.4959 C   0  0  0  0  0  0  0  0  0  0  0  0
    1.0978    4.2965   -5.5011 H   0  0  0  0  0  0  0  0  0  0  0  0
    0.1023    6.6933   -4.8930 H   0  0  0  0  0  0  0  0  0  0  0  0
    1.1043    6.4015   -3.4310 H   0  0  0  0  0  0  0  0  0  0  0  0
    1.8762    6.4601   -5.0519 H   0  0  0  0  0  0  0  0  0  0  0  0
 22 24  2  0  0  0  0
 24 26  1  0  0  0  0
 23 25  2  0  0  0  0
 25 26  1  0  0  0  0
 21 22  1  0  0  0  0
 22 23  1  0  0  0  0
  1  3  1  0  0  0  0
  1  7  1  0  0  0  0
  1  2  2  0  0  0  0
 35 36  1  0  0  0  0
 36 44  1  0  0  0  0
 36 37  2  0  0  0  0
  8  9  1  0  0  0  0
  9 17  1  0  0  0  0
  9 10  2  0  0  0  0
 18 19  1  0  0  0  0
 19 34  1  0  0  0  0
 19 20  2  0  0  0  0
 35 38  1  0  0  0  0
  8 11  1  0  0  0  0
 44 45  1  0  0  0  0
 18 21  1  0  0  0  0
 34 35  1  0  0  0  0
  7  8  1  0  0  0  0
 17 18  1  0  0  0  0
 24 31  1  0  0  0  0
 25 32  1  0  0  0  0
  3  4  1  0  0  0  0
  3  5  1  0  0  0  0
  3  6  1  0  0  0  0
 38 41  1  0  0  0  0
 38 42  1  0  0  0  0
 38 43  1  0  0  0  0
 11 14  1  0  0  0  0
 11 15  1  0  0  0  0
 11 16  1  0  0  0  0
 45 47  1  0  0  0  0
 45 48  1  0  0  0  0
 45 49  1  0  0  0  0
 21 29  1  0  0  0  0
 21 30  1  0  0  0  0
 35 40  1  0  0  0  0
  8 13  1  0  0  0  0
 18 28  1  0  0  0  0
 26 33  1  0  0  0  0
 44 46  1  0  0  0  0
  7 12  1  0  0  0  0
 34 39  1  0  0  0  0
 17 27  1  0  0  0  0
M  END
$$$$

  -OEChem-05262214473D

 49 49  0     1  0  0  0  0  0999 V2000
   -1.6183    0.5613    3.8201 C   0  0  0  0  0  0  0  0  0  0  0  0
   -0.6710   -0.0534    3.3444 O   0  0  0  0  0  0  0  0  0  0  0  0
   -2.0502    0.2789    5.2208 C   0  0  0  0  0  0  0  0  0  0  0  0
   -2.8099   -0.5175    5.2742 H   0  0  0  0  0  0  0  0  0  0  0  0
   -1.2190   -0.0687    5.8551 H   0  0  0  0  0  0  0  0  0  0  0  0
   -2.4882    1.1338    5.7604 H   0  0  0  0  0  0  0  0  0  0  0  0
   -2.3680    1.5337    3.1790 N   0  0  0  0  0  0  0  0  0  0  0  0
   -2.1212    1.9597    1.8266 C   0  0  2  0  0  0  0  0  0  0  0  0
   -0.7862    1.3744    1.3854 C   0  0  0  0  0  0  0  0  0  0  0  0
    0.0859    1.0216    2.1767 O   0  0  0  0  0  0  0  0  0  0  0  0
   -2.1124    3.4765    1.7171 C   0  0  0  0  0  0  0  0  0  0  0  0
   -3.1331    1.9695    3.6908 H   0  0  0  0  0  0  0  0  0  0  0  0
   -2.9253    1.5413    1.2115 H   0  0  0  0  0  0  0  0  0  0  0  0
   -1.3133    3.9138    2.3268 H   0  0  0  0  0  0  0  0  0  0  0  0
   -1.9529    3.7988    0.6829 H   0  0  0  0  0  0  0  0  0  0  0  0
   -3.0626    3.8977    2.0629 H   0  0  0  0  0  0  0  0  0  0  0  0
   -0.6635    1.3313    0.0020 N   0  0  0  0  0  0  0  0  0  0  0  0
    0.5138    0.8305   -0.6617 C   0  0  2  0  0  0  0  0  0  0  0  0
    0.8549    1.8124   -1.7769 C   0  0  0  0  0  0  0  0  0  0  0  0
    1.9397    2.3849   -1.8556 O   0  0  0  0  0  0  0  0  0  0  0  0
    0.3011   -0.5750   -1.2357 C   0  0  0  0  0  0  0  0  0  0  0  0
    0.0420   -1.6088   -0.1671 C   0  0  0  0  0  0  0  0  0  0  0  0
    1.0667   -2.0721    0.6196 N   0  0  0  0  0  0  0  0  0  0  0  0
   -1.1502   -2.2064    0.1677 C   0  0  0  0  0  0  0  0  0  0  0  0
    0.5021   -2.9434    1.4259 C   0  0  0  0  0  0  0  0  0  0  0  0
   -0.8395   -3.0590    1.1893 N   0  0  0  0  0  0  0  0  0  0  0  0
   -1.4467    1.6280   -0.5753 H   0  0  0  0  0  0  0  0  0  0  0  0
    1.3190    0.8385    0.0823 H   0  0  0  0  0  0  0  0  0  0  0  0
    1.1695   -0.8755   -1.8375 H   0  0  0  0  0  0  0  0  0  0  0  0
   -0.5476   -0.5805   -1.9323 H   0  0  0  0  0  0  0  0  0  0  0  0
   -2.1571   -2.1091   -0.2123 H   0  0  0  0  0  0  0  0  0  0  0  0
    1.0016   -3.5174    2.1936 H   0  0  0  0  0  0  0  0  0  0  0  0
   -1.4837   -3.6639    1.6809 H   0  0  0  0  0  0  0  0  0  0  0  0
   -0.1772    1.9325   -2.6971 N   0  0  0  0  0  0  0  0  0  0  0  0
   -0.1045    2.7810   -3.8648 C   0  0  2  0  0  0  0  0  0  0  0  0
    0.3533    4.1621   -3.4148 C   0  0  0  0  0  0  0  0  0  0  0  0
    0.2227    4.5696   -2.2624 O   0  0  0  0  0  0  0  0  0  0  0  0
   -1.4460    2.8583   -4.5770 C   0  0  0  0  0  0  0  0  0  0  0  0
   -1.0263    1.3970   -2.5421 H   0  0  0  0  0  0  0  0  0  0  0  0
    0.6502    2.3433   -4.5273 H   0  0  0  0  0  0  0  0  0  0  0  0
   -2.2149    3.2943   -3.9287 H   0  0  0  0  0  0  0  0  0  0  0  0
   -1.3821    3.4785   -5.4772 H   0  0  0  0  0  0  0  0  0  0  0  0
   -1.7879    1.8608   -4.8736 H   0  0  0  0  0  0  0  0  0  0  0  0
    0.8855    4.9021   -4.4613 N   0  0  0  0  0  0  0  0  0  0  0  0
    1.3787    6.2490   -4.2919 C   0  0  0  0  0  0  0  0  0  0  0  0
    0.9724    4.4776   -5.3800 H   0  0  0  0  0  0  0  0  0  0  0  0
    0.5727    6.9653   -4.5097 H   0  0  0  0  0  0  0  0  0  0  0  0
    1.7211    6.3864   -3.2556 H   0  0  0  0  0  0  0  0  0  0  0  0
    2.2183    6.4213   -4.9814 H   0  0  0  0  0  0  0  0  0  0  0  0
 22 24  2  0  0  0  0
 24 26  1  0  0  0  0
 23 25  2  0  0  0  0
 25 26  1  0  0  0  0
 21 22  1  0  0  0  0
 22 23  1  0  0  0  0
  1  3  1  0  0  0  0
  1  7  1  0  0  0  0
  1  2  2  0  0  0  0
 35 36  1  0  0  0  0
 36 44  1  0  0  0  0
 36 37  2  0  0  0  0
  8  9  1  0  0  0  0
  9 17  1  0  0  0  0
  9 10  2  0  0  0  0
 18 19  1  0  0  0  0
 19 34  1  0  0  0  0
 19 20  2  0  0  0  0
 35 38  1  0  0  0  0
  8 11  1  0  0  0  0
 44 45  1  0  0  0  0
 18 21  1  0  0  0  0
 34 35  1  0  0  0  0
  7  8  1  0  0  0  0
 17 18  1  0  0  0  0
 24 31  1  0  0  0  0
 25 32  1  0  0  0  0
  3  4  1  0  0  0  0
  3  5  1  0  0  0  0
  3  6  1  0  0  0  0
 38 41  1  0  0  0  0
 38 42  1  0  0  0  0
 38 43  1  0  0  0  0
 11 14  1  0  0  0  0
 11 15  1  0  0  0  0
 11 16  1  0  0  0  0
 45 47  1  0  0  0  0
 45 48  1  0  0  0  0
 45 49  1  0  0  0  0
 21 29  1  0  0  0  0
 21 30  1  0  0  0  0
 35 40  1  0  0  0  0
  8 13  1  0  0  0  0
 18 28  1  0  0  0  0
 26 33  1  0  0  0  0
 44 46  1  0  0  0  0
  7 12  1  0  0  0  0
 34 39  1  0  0  0  0
 17 27  1  0  0  0  0
M  END
$$$$

  -OEChem-05262214473D

 49 49  0     1  0  0  0  0  0999 V2000
   -1.6183    0.5613    3.8201 C   0  0  0  0  0  0  0  0  0  0  0  0
   -0.6710   -0.0534    3.3444 O   0  0  0  0  0  0  0  0  0  0  0  0
   -2.0502    0.2789    5.2208 C   0  0  0  0  0  0  0  0  0  0  0  0
   -2.8099   -0.5175    5.2742 H   0  0  0  0  0  0  0  0  0  0  0  0
   -1.2190   -0.0687    5.8551 H   0  0  0  0  0  0  0  0  0  0  0  0
   -2.4882    1.1338    5.7604 H   0  0  0  0  0  0  0  0  0  0  0  0
   -2.3680    1.5337    3.1790 N   0  0  0  0  0  0  0  0  0  0  0  0
   -2.1212    1.9597    1.8266 C   0  0  2  0  0  0  0  0  0  0  0  0
   -0.7862    1.3744    1.3854 C   0  0  0  0  0  0  0  0  0  0  0  0
    0.0859    1.0216    2.1767 O   0  0  0  0  0  0  0  0  0  0  0  0
   -2.1124    3.4765    1.7171 C   0  0  0  0  0  0  0  0  0  0  0  0
   -3.1331    1.9695    3.6908 H   0  0  0  0  0  0  0  0  0  0  0  0
   -2.9253    1.5413    1.2115 H   0  0  0  0  0  0  0  0  0  0  0  0
   -1.3133    3.9138    2.3268 H   0  0  0  0  0  0  0  0  0  0  0  0
   -1.9529    3.7988    0.6829 H   0  0  0  0  0  0  0  0  0  0  0  0
   -3.0626    3.8977    2.0629 H   0  0  0  0  0  0  0  0  0  0  0  0
   -0.6635    1.3313    0.0020 N   0  0  0  0  0  0  0  0  0  0  0  0
    0.5138    0.8305   -0.6617 C   0  0  2  0  0  0  0  0  0  0  0  0
    0.8549    1.8124   -1.7769 C   0  0  0  0  0  0  0  0  0  0  0  0
    2.0031    2.1793   -2.0173 O   0  0  0  0  0  0  0  0  0  0  0  0
    0.3011   -0.5750   -1.2357 C   0  0  0  0  0  0  0  0  0  0  0  0
    0.0420   -1.6088   -0.1671 C   0  0  0  0  0  0  0  0  0  0  0  0
    1.0667   -2.0721    0.6196 N   0  0  0  0  0  0  0  0  0  0  0  0
   -1.1502   -2.2064    0.1677 C   0  0  0  0  0  0  0  0  0  0  0  0
    0.5021   -2.9434    1.4259 C   0  0  0  0  0  0  0  0  0  0  0  0
   -0.8395   -3.0590    1.1893 N   0  0  0  0  0  0  0  0  0  0  0  0
   -1.4467    1.6280   -0.5753 H   0  0  0  0  0  0  0  0  0  0  0  0
    1.3190    0.8385    0.0823 H   0  0  0  0  0  0  0  0  0  0  0  0
    1.1695   -0.8755   -1.8375 H   0  0  0  0  0  0  0  0  0  0  0  0
   -0.5476   -0.5805   -1.9323 H   0  0  0  0  0  0  0  0  0  0  0  0
   -2.1571   -2.1091   -0.2123 H   0  0  0  0  0  0  0  0  0  0  0  0
    1.0016   -3.5174    2.1936 H   0  0  0  0  0  0  0  0  0  0  0  0
   -1.4837   -3.6639    1.6809 H   0  0  0  0  0  0  0  0  0  0  0  0
   -0.2687    2.1885   -2.4997 N   0  0  0  0  0  0  0  0  0  0  0  0
   -0.2217    3.0930   -3.6259 C   0  0  2  0  0  0  0  0  0  0  0  0
    0.5620    4.3289   -3.2041 C   0  0  0  0  0  0  0  0  0  0  0  0
    0.7005    4.6671   -2.0304 O   0  0  0  0  0  0  0  0  0  0  0  0
   -1.6195    3.4689   -4.0924 C   0  0  0  0  0  0  0  0  0  0  0  0
   -1.1694    1.8088   -2.2233 H   0  0  0  0  0  0  0  0  0  0  0  0
    0.3168    2.5739   -4.4263 H   0  0  0  0  0  0  0  0  0  0  0  0
   -2.1744    3.9900   -3.3038 H   0  0  0  0  0  0  0  0  0  0  0  0
   -1.5823    4.1315   -4.9634 H   0  0  0  0  0  0  0  0  0  0  0  0
   -2.1918    2.5763   -4.3672 H   0  0  0  0  0  0  0  0  0  0  0  0
    1.0522    5.0334   -4.2947 N   0  0  0  0  0  0  0  0  0  0  0  0
    1.8183    6.2500   -4.1566 C   0  0  0  0  0  0  0  0  0  0  0  0
    0.9057    4.6693   -5.2316 H   0  0  0  0  0  0  0  0  0  0  0  0
    1.1424    7.1167   -4.2021 H   0  0  0  0  0  0  0  0  0  0  0  0
    2.3432    6.2448   -3.1900 H   0  0  0  0  0  0  0  0  0  0  0  0
    2.5531    6.3150   -4.9726 H   0  0  0  0  0  0  0  0  0  0  0  0
 22 24  2  0  0  0  0
 24 26  1  0  0  0  0
 23 25  2  0  0  0  0
 25 26  1  0  0  0  0
 21 22  1  0  0  0  0
 22 23  1  0  0  0  0
  1  3  1  0  0  0  0
  1  7  1  0  0  0  0
  1  2  2  0  0  0  0
 35 36  1  0  0  0  0
 36 44  1  0  0  0  0
 36 37  2  0  0  0  0
  8  9  1  0  0  0  0
  9 17  1  0  0  0  0
  9 10  2  0  0  0  0
 18 19  1  0  0  0  0
 19 34  1  0  0  0  0
 19 20  2  0  0  0  0
 35 38  1  0  0  0  0
  8 11  1  0  0  0  0
 44 45  1  0  0  0  0
 18 21  1  0  0  0  0
 34 35  1  0  0  0  0
  7  8  1  0  0  0  0
 17 18  1  0  0  0  0
 24 31  1  0  0  0  0
 25 32  1  0  0  0  0
  3  4  1  0  0  0  0
  3  5  1  0  0  0  0
  3  6  1  0  0  0  0
 38 41  1  0  0  0  0
 38 42  1  0  0  0  0
 38 43  1  0  0  0  0
 11 14  1  0  0  0  0
 11 15  1  0  0  0  0
 11 16  1  0  0  0  0
 45 47  1  0  0  0  0
 45 48  1  0  0  0  0
 45 49  1  0  0  0  0
 21 29  1  0  0  0  0
 21 30  1  0  0  0  0
 35 40  1  0  0  0  0
  8 13  1  0  0  0  0
 18 28  1  0  0  0  0
 26 33  1  0  0  0  0
 44 46  1  0  0  0  0
  7 12  1  0  0  0  0
 34 39  1  0  0  0  0
 17 27  1  0  0  0  0
M  END
$$$$

  -OEChem-05262214473D

 49 49  0     1  0  0  0  0  0999 V2000
   -1.6183    0.5613    3.8201 C   0  0  0  0  0  0  0  0  0  0  0  0
   -0.6710   -0.0534    3.3444 O   0  0  0  0  0  0  0  0  0  0  0  0
   -2.0502    0.2789    5.2208 C   0  0  0  0  0  0  0  0  0  0  0  0
   -2.8099   -0.5175    5.2742 H   0  0  0  0  0  0  0  0  0  0  0  0
   -1.2190   -0.0687    5.8551 H   0  0  0  0  0  0  0  0  0  0  0  0
   -2.4882    1.1338    5.7604 H   0  0  0  0  0  0  0  0  0  0  0  0
   -2.3680    1.5337    3.1790 N   0  0  0  0  0  0  0  0  0  0  0  0
   -2.1212    1.9597    1.8266 C   0  0  2  0  0  0  0  0  0  0  0  0
   -0.7862    1.3744    1.3854 C   0  0  0  0  0  0  0  0  0  0  0  0
    0.0859    1.0216    2.1767 O   0  0  0  0  0  0  0  0  0  0  0  0
   -2.1124    3.4765    1.7171 C   0  0  0  0  0  0  0  0  0  0  0  0
   -3.1331    1.9695    3.6908 H   0  0  0  0  0  0  0  0  0  0  0  0
   -2.9253    1.5413    1.2115 H   0  0  0  0  0  0  0  0  0  0  0  0
   -1.3133    3.9138    2.3268 H   0  0  0  0  0  0  0  0  0  0  0  0
   -1.9529    3.7988    0.6829 H   0  0  0  0  0  0  0  0  0  0  0  0
   -3.0626    3.8977    2.0629 H   0  0  0  0  0  0  0  0  0  0  0  0
   -0.6635    1.3313    0.0020 N   0  0  0  0  0  0  0  0  0  0  0  0
    0.5138    0.8305   -0.6617 C   0  0  2  0  0  0  0  0  0  0  0  0
    0.8549    1.8124   -1.7769 C   0  0  0  0  0  0  0  0  0  0  0  0
    1.9985    1.9780   -2.1960 O   0  0  0  0  0  0  0  0  0  0  0  0
    0.3011   -0.5750   -1.2357 C   0  0  0  0  0  0  0  0  0  0  0  0
    0.0420   -1.6088   -0.1671 C   0  0  0  0  0  0  0  0  0  0  0  0
    1.0667   -2.0721    0.6196 N   0  0  0  0  0  0  0  0  0  0  0  0
   -1.1502   -2.2064    0.1677 C   0  0  0  0  0  0  0  0  0  0  0  0
    0.5021   -2.9434    1.4259 C   0  0  0  0  0  0  0  0  0  0  0  0
   -0.8395   -3.0590    1.1893 N   0  0  0  0  0  0  0  0  0  0  0  0
   -1.4467    1.6280   -0.5753 H   0  0  0  0  0  0  0  0  0  0  0  0
    1.3190    0.8385    0.0823 H   0  0  0  0  0  0  0  0  0  0  0  0
    1.1695   -0.8755   -1.8375 H   0  0  0  0  0  0  0  0  0  0  0  0
   -0.5476   -0.5805   -1.9323 H   0  0  0  0  0  0  0  0  0  0  0  0
   -2.1571   -2.1091   -0.2123 H   0  0  0  0  0  0  0  0  0  0  0  0
    1.0016   -3.5174    2.1936 H   0  0  0  0  0  0  0  0  0  0  0  0
   -1.4837   -3.6639    1.6809 H   0  0  0  0  0  0  0  0  0  0  0  0
   -0.2758    2.4416   -2.2789 N   0  0  0  0  0  0  0  0  0  0  0  0
   -0.2360    3.4028   -3.3575 C   0  0  2  0  0  0  0  0  0  0  0  0
    0.8303    4.4383   -3.0257 C   0  0  0  0  0  0  0  0  0  0  0  0
    1.2191    4.6574   -1.8803 O   0  0  0  0  0  0  0  0  0  0  0  0
   -1.5907    4.0635   -3.5602 C   0  0  0  0  0  0  0  0  0  0  0  0
   -1.1765    2.2152   -1.8676 H   0  0  0  0  0  0  0  0  0  0  0  0
    0.0552    2.8539   -4.2597 H   0  0  0  0  0  0  0  0  0  0  0  0
   -1.8994    4.6182   -2.6666 H   0  0  0  0  0  0  0  0  0  0  0  0
   -1.5664    4.7704   -4.3960 H   0  0  0  0  0  0  0  0  0  0  0  0
   -2.3622    3.3145   -3.7693 H   0  0  0  0  0  0  0  0  0  0  0  0
    1.2658    5.1191   -4.1540 N   0  0  0  0  0  0  0  0  0  0  0  0
    2.2656    6.1599   -4.0991 C   0  0  0  0  0  0  0  0  0  0  0  0
    0.9024    4.8585   -5.0661 H   0  0  0  0  0  0  0  0  0  0  0  0
    1.7727    7.1373   -3.9912 H   0  0  0  0  0  0  0  0  0  0  0  0
    2.9283    5.9865   -3.2385 H   0  0  0  0  0  0  0  0  0  0  0  0
    2.8578    6.1484   -5.0261 H   0  0  0  0  0  0  0  0  0  0  0  0
 22 24  2  0  0  0  0
 24 26  1  0  0  0  0
 23 25  2  0  0  0  0
 25 26  1  0  0  0  0
 21 22  1  0  0  0  0
 22 23  1  0  0  0  0
  1  3  1  0  0  0  0
  1  7  1  0  0  0  0
  1  2  2  0  0  0  0
 35 36  1  0  0  0  0
 36 44  1  0  0  0  0
 36 37  2  0  0  0  0
  8  9  1  0  0  0  0
  9 17  1  0  0  0  0
  9 10  2  0  0  0  0
 18 19  1  0  0  0  0
 19 34  1  0  0  0  0
 19 20  2  0  0  0  0
 35 38  1  0  0  0  0
  8 11  1  0  0  0  0
 44 45  1  0  0  0  0
 18 21  1  0  0  0  0
 34 35  1  0  0  0  0
  7  8  1  0  0  0  0
 17 18  1  0  0  0  0
 24 31  1  0  0  0  0
 25 32  1  0  0  0  0
  3  4  1  0  0  0  0
  3  5  1  0  0  0  0
  3  6  1  0  0  0  0
 38 41  1  0  0  0  0
 38 42  1  0  0  0  0
 38 43  1  0  0  0  0
 11 14  1  0  0  0  0
 11 15  1  0  0  0  0
 11 16  1  0  0  0  0
 45 47  1  0  0  0  0
 45 48  1  0  0  0  0
 45 49  1  0  0  0  0
 21 29  1  0  0  0  0
 21 30  1  0  0  0  0
 35 40  1  0  0  0  0
  8 13  1  0  0  0  0
 18 28  1  0  0  0  0
 26 33  1  0  0  0  0
 44 46  1  0  0  0  0
  7 12  1  0  0  0  0
 34 39  1  0  0  0  0
 17 27  1  0  0  0  0
M  END
$$$$

  -OEChem-05262214473D

 49 49  0     1  0  0  0  0  0999 V2000
   -1.6183    0.5613    3.8201 C   0  0  0  0  0  0  0  0  0  0  0  0
   -0.6710   -0.0534    3.3444 O   0  0  0  0  0  0  0  0  0  0  0  0
   -2.0502    0.2789    5.2208 C   0  0  0  0  0  0  0  0  0  0  0  0
   -2.8099   -0.5175    5.2742 H   0  0  0  0  0  0  0  0  0  0  0  0
   -1.2190   -0.0687    5.8551 H   0  0  0  0  0  0  0  0  0  0  0  0
   -2.4882    1.1338    5.7604 H   0  0  0  0  0  0  0  0  0  0  0  0
   -2.3680    1.5337    3.1790 N   0  0  0  0  0  0  0  0  0  0  0  0
   -2.1212    1.9597    1.8266 C   0  0  2  0  0  0  0  0  0  0  0  0
   -0.7862    1.3744    1.3854 C   0  0  0  0  0  0  0  0  0  0  0  0
    0.0859    1.0216    2.1767 O   0  0  0  0  0  0  0  0  0  0  0  0
   -2.1124    3.4765    1.7171 C   0  0  0  0  0  0  0  0  0  0  0  0
   -3.1331    1.9695    3.6908 H   0  0  0  0  0  0  0  0  0  0  0  0
   -2.9253    1.5413    1.2115 H   0  0  0  0  0  0  0  0  0  0  0  0
   -1.3133    3.9138    2.3268 H   0  0  0  0  0  0  0  0  0  0  0  0
   -1.9529    3.7988    0.6829 H   0  0  0  0  0  0  0  0  0  0  0  0
   -3.0626    3.8977    2.0629 H   0  0  0  0  0  0  0  0  0  0  0  0
   -0.6635    1.3313    0.0020 N   0  0  0  0  0  0  0  0  0  0  0  0
    0.5138    0.8305   -0.6617 C   0  0  2  0  0  0  0  0  0  0  0  0
    0.8549    1.8124   -1.7769 C   0  0  0  0  0  0  0  0  0  0  0  0
    1.9261    1.7948   -2.3794 O   0  0  0  0  0  0  0  0  0  0  0  0
    0.3011   -0.5750   -1.2357 C   0  0  0  0  0  0  0  0  0  0  0  0
    0.0420   -1.6088   -0.1671 C   0  0  0  0  0  0  0  0  0  0  0  0
    1.0667   -2.0721    0.6196 N   0  0  0  0  0  0  0  0  0  0  0  0
   -1.1502   -2.2064    0.1677 C   0  0  0  0  0  0  0  0  0  0  0  0
    0.5021   -2.9434    1.4259 C   0  0  0  0  0  0  0  0  0  0  0  0
   -0.8395   -3.0590    1.1893 N   0  0  0  0  0  0  0  0  0  0  0  0
   -1.4467    1.6280   -0.5753 H   0  0  0  0  0  0  0  0  0  0  0  0
    1.3190    0.8385    0.0823 H   0  0  0  0  0  0  0  0  0  0  0  0
    1.1695   -0.8755   -1.8375 H   0  0  0  0  0  0  0  0  0  0  0  0
   -0.5476   -0.5805   -1.9323 H   0  0  0  0  0  0  0  0  0  0  0  0
   -2.1571   -2.1091   -0.2123 H   0  0  0  0  0  0  0  0  0  0  0  0
    1.0016   -3.5174    2.1936 H   0  0  0  0  0  0  0  0  0  0  0  0
   -1.4837   -3.6639    1.6809 H   0  0  0  0  0  0  0  0  0  0  0  0
   -0.1979    2.6747   -2.0499 N   0  0  0  0  0  0  0  0  0  0  0  0
   -0.1465    3.6892   -3.0780 C   0  0  2  0  0  0  0  0  0  0  0  0
    1.1400    4.4828   -2.8918 C   0  0  0  0  0  0  0  0  0  0  0  0
    1.7433    4.5411   -1.8223 O   0  0  0  0  0  0  0  0  0  0  0  0
   -1.3617    4.6015   -3.0164 C   0  0  0  0  0  0  0  0  0  0  0  0
   -1.0471    2.5885   -1.4994 H   0  0  0  0  0  0  0  0  0  0  0  0
   -0.1166    3.1643   -4.0390 H   0  0  0  0  0  0  0  0  0  0  0  0
   -1.4086    5.1360   -2.0605 H   0  0  0  0  0  0  0  0  0  0  0  0
   -1.3354    5.3517   -3.8136 H   0  0  0  0  0  0  0  0  0  0  0  0
   -2.2873    4.0252   -3.1207 H   0  0  0  0  0  0  0  0  0  0  0  0
    1.5117    5.1532   -4.0487 N   0  0  0  0  0  0  0  0  0  0  0  0
    2.6902    5.9848   -4.1234 C   0  0  0  0  0  0  0  0  0  0  0  0
    0.9626    5.0323   -4.8946 H   0  0  0  0  0  0  0  0  0  0  0  0
    2.4205    7.0256   -3.8913 H   0  0  0  0  0  0  0  0  0  0  0  0
    3.4365    5.6290   -3.3978 H   0  0  0  0  0  0  0  0  0  0  0  0
    3.1117    5.9329   -5.1381 H   0  0  0  0  0  0  0  0  0  0  0  0
 22 24  2  0  0  0  0
 24 26  1  0  0  0  0
 23 25  2  0  0  0  0
 25 26  1  0  0  0  0
 21 22  1  0  0  0  0
 22 23  1  0  0  0  0
  1  3  1  0  0  0  0
  1  7  1  0  0  0  0
  1  2  2  0  0  0  0
 35 36  1  0  0  0  0
 36 44  1  0  0  0  0
 36 37  2  0  0  0  0
  8  9  1  0  0  0  0
  9 17  1  0  0  0  0
  9 10  2  0  0  0  0
 18 19  1  0  0  0  0
 19 34  1  0  0  0  0
 19 20  2  0  0  0  0
 35 38  1  0  0  0  0
  8 11  1  0  0  0  0
 44 45  1  0  0  0  0
 18 21  1  0  0  0  0
 34 35  1  0  0  0  0
  7  8  1  0  0  0  0
 17 18  1  0  0  0  0
 24 31  1  0  0  0  0
 25 32  1  0  0  0  0
  3  4  1  0  0  0  0
  3  5  1  0  0  0  0
  3  6  1  0  0  0  0
 38 41  1  0  0  0  0
 38 42  1  0  0  0  0
 38 43  1  0  0  0  0
 11 14  1  0  0  0  0
 11 15  1  0  0  0  0
 11 16  1  0  0  0  0
 45 47  1  0  0  0  0
 45 48  1  0  0  0  0
 45 49  1  0  0  0  0
 21 29  1  0  0  0  0
 21 30  1  0  0  0  0
 35 40  1  0  0  0  0
  8 13  1  0  0  0  0
 18 28  1  0  0  0  0
 26 33  1  0  0  0  0
 44 46  1  0  0  0  0
  7 12  1  0  0  0  0
 34 39  1  0  0  0  0
 17 27  1  0  0  0  0
M  END
$$$$

  -OEChem-05262214473D

 49 49  0     1  0  0  0  0  0999 V2000
   -1.6183    0.5613    3.8201 C   0  0  0  0  0  0  0  0  0  0  0  0
   -0.6710   -0.0534    3.3444 O   0  0  0  0  0  0  0  0  0  0  0  0
   -2.0502    0.2789    5.2208 C   0  0  0  0  0  0  0  0  0  0  0  0
   -2.8099   -0.5175    5.2742 H   0  0  0  0  0  0  0  0  0  0  0  0
   -1.2190   -0.0687    5.8551 H   0  0  0  0  0  0  0  0  0  0  0  0
   -2.4882    1.1338    5.7604 H   0  0  0  0  0  0  0  0  0  0  0  0
   -2.3680    1.5337    3.1790 N   0  0  0  0  0  0  0  0  0  0  0  0
   -2.1212    1.9597    1.8266 C   0  0  2  0  0  0  0  0  0  0  0  0
   -0.7862    1.3744    1.3854 C   0  0  0  0  0  0  0  0  0  0  0  0
    0.0859    1.0216    2.1767 O   0  0  0  0  0  0  0  0  0  0  0  0
   -2.1124    3.4765    1.7171 C   0  0  0  0  0  0  0  0  0  0  0  0
   -3.1331    1.9695    3.6908 H   0  0  0  0  0  0  0  0  0  0  0  0
   -2.9253    1.5413    1.2115 H   0  0  0  0  0  0  0  0  0  0  0  0
   -1.3133    3.9138    2.3268 H   0  0  0  0  0  0  0  0  0  0  0  0
   -1.9529    3.7988    0.6829 H   0  0  0  0  0  0  0  0  0  0  0  0
   -3.0626    3.8977    2.0629 H   0  0  0  0  0  0  0  0  0  0  0  0
   -0.6635    1.3313    0.0020 N   0  0  0  0  0  0  0  0  0  0  0  0
    0.5138    0.8305   -0.6617 C   0  0  2  0  0  0  0  0  0  0  0  0
    0.8549    1.8124   -1.7769 C   0  0  0  0  0  0  0  0  0  0  0  0
    1.7909    1.6421   -2.5551 O   0  0  0  0  0  0  0  0  0  0  0  0
    0.3011   -0.5750   -1.2357 C   0  0  0  0  0  0  0  0  0  0  0  0
    0.0420   -1.6088   -0.1671 C   0  0  0  0  0  0  0  0  0  0  0  0
    1.0667   -2.0721    0.6196 N   0  0  0  0  0  0  0  0  0  0  0  0
   -1.1502   -2.2064    0.1677 C   0  0  0  0  0  0  0  0  0  0  0  0
    0.5021   -2.9434    1.4259 C   0  0  0  0  0  0  0  0  0  0  0  0
   -0.8395   -3.0590    1.1893 N   0  0  0  0  0  0  0  0  0  0  0  0
   -1.4467    1.6280   -0.5753 H   0  0  0  0  0  0  0  0  0  0  0  0
    1.3190    0.8385    0.0823 H   0  0  0  0  0  0  0  0  0  0  0  0
    1.1695   -0.8755   -1.8375 H   0  0  0  0  0  0  0  0  0  0  0  0
   -0.5476   -0.5805   -1.9323 H   0  0  0  0  0  0  0  0  0  0  0  0
   -2.1571   -2.1091   -0.2123 H   0  0  0  0  0  0  0  0  0  0  0  0
    1.0016   -3.5174    2.1936 H   0  0  0  0  0  0  0  0  0  0  0  0
   -1.4837   -3.6639    1.6809 H   0  0  0  0  0  0  0  0  0  0  0  0
   -0.0403    2.8719   -1.8281 N   0  0  0  0  0  0  0  0  0  0  0  0
    0.0408    3.9327   -2.8063 C   0  0  2  0  0  0  0  0  0  0  0  0
    1.4698    4.4594   -2.8114 C   0  0  0  0  0  0  0  0  0  0  0  0
    2.2373    4.3263   -1.8605 O   0  0  0  0  0  0  0  0  0  0  0  0
   -0.9479    5.0463   -2.4981 C   0  0  0  0  0  0  0  0  0  0  0  0
   -0.7901    2.9033   -1.1436 H   0  0  0  0  0  0  0  0  0  0  0  0
   -0.1870    3.4838   -3.7792 H   0  0  0  0  0  0  0  0  0  0  0  0
   -0.7354    5.5081   -1.5270 H   0  0  0  0  0  0  0  0  0  0  0  0
   -0.9052    5.8357   -3.2558 H   0  0  0  0  0  0  0  0  0  0  0  0
   -1.9723    4.6600   -2.4654 H   0  0  0  0  0  0  0  0  0  0  0  0
    1.7734    5.1335   -3.9861 N   0  0  0  0  0  0  0  0  0  0  0  0
    3.0632    5.7367   -4.2278 C   0  0  0  0  0  0  0  0  0  0  0  0
    1.0822    5.1788   -4.7290 H   0  0  0  0  0  0  0  0  0  0  0  0
    3.0418    6.7893   -3.9093 H   0  0  0  0  0  0  0  0  0  0  0  0
    3.8331    5.1967   -3.6571 H   0  0  0  0  0  0  0  0  0  0  0  0
    3.2975    5.6832   -5.3012 H   0  0  0  0  0  0  0  0  0  0  0  0
 22 24  2  0  0  0  0
 24 26  1  0  0  0  0
 23 25  2  0  0  0  0
 25 26  1  0  0  0  0
 21 22  1  0  0  0  0
 22 23  1  0  0  0  0
  1  3  1  0  0  0  0
  1  7  1  0  0  0  0
  1  2  2  0  0  0  0
 35 36  1  0  0  0  0
 36 44  1  0  0  0  0
 36 37  2  0  0  0  0
  8  9  1  0  0  0  0
  9 17  1  0  0  0  0
  9 10  2  0  0  0  0
 18 19  1  0  0  0  0
 19 34  1  0  0  0  0
 19 20  2  0  0  0  0
 35 38  1  0  0  0  0
  8 11  1  0  0  0  0
 44 45  1  0  0  0  0
 18 21  1  0  0  0  0
 34 35  1  0  0  0  0
  7  8  1  0  0  0  0
 17 18  1  0  0  0  0
 24 31  1  0  0  0  0
 25 32  1  0  0  0  0
  3  4  1  0  0  0  0
  3  5  1  0  0  0  0
  3  6  1  0  0  0  0
 38 41  1  0  0  0  0
 38 42  1  0  0  0  0
 38 43  1  0  0  0  0
 11 14  1  0  0  0  0
 11 15  1  0  0  0  0
 11 16  1  0  0  0  0
 45 47  1  0  0  0  0
 45 48  1  0  0  0  0
 45 49  1  0  0  0  0
 21 29  1  0  0  0  0
 21 30  1  0  0  0  0
 35 40  1  0  0  0  0
  8 13  1  0  0  0  0
 18 28  1  0  0  0  0
 26 33  1  0  0  0  0
 44 46  1  0  0  0  0
  7 12  1  0  0  0  0
 34 39  1  0  0  0  0
 17 27  1  0  0  0  0
M  END
$$$$

  -OEChem-05262214473D

 49 49  0     1  0  0  0  0  0999 V2000
   -1.6183    0.5613    3.8201 C   0  0  0  0  0  0  0  0  0  0  0  0
   -0.6710   -0.0534    3.3444 O   0  0  0  0  0  0  0  0  0  0  0  0
   -2.0502    0.2789    5.2208 C   0  0  0  0  0  0  0  0  0  0  0  0
   -2.8099   -0.5175    5.2742 H   0  0  0  0  0  0  0  0  0  0  0  0
   -1.2190   -0.0687    5.8551 H   0  0  0  0  0  0  0  0  0  0  0  0
   -2.4882    1.1338    5.7604 H   0  0  0  0  0  0  0  0  0  0  0  0
   -2.3680    1.5337    3.1790 N   0  0  0  0  0  0  0  0  0  0  0  0
   -2.1212    1.9597    1.8266 C   0  0  2  0  0  0  0  0  0  0  0  0
   -0.7862    1.3744    1.3854 C   0  0  0  0  0  0  0  0  0  0  0  0
    0.0859    1.0216    2.1767 O   0  0  0  0  0  0  0  0  0  0  0  0
   -2.1124    3.4765    1.7171 C   0  0  0  0  0  0  0  0  0  0  0  0
   -3.1331    1.9695    3.6908 H   0  0  0  0  0  0  0  0  0  0  0  0
   -2.9253    1.5413    1.2115 H   0  0  0  0  0  0  0  0  0  0  0  0
   -1.3133    3.9138    2.3268 H   0  0  0  0  0  0  0  0  0  0  0  0
   -1.9529    3.7988    0.6829 H   0  0  0  0  0  0  0  0  0  0  0  0
   -3.0626    3.8977    2.0629 H   0  0  0  0  0  0  0  0  0  0  0  0
   -0.6635    1.3313    0.0020 N   0  0  0  0  0  0  0  0  0  0  0  0
    0.5138    0.8305   -0.6617 C   0  0  2  0  0  0  0  0  0  0  0  0
    0.8549    1.8124   -1.7769 C   0  0  0  0  0  0  0  0  0  0  0  0
    1.6022    1.5305   -2.7112 O   0  0  0  0  0  0  0  0  0  0  0  0
    0.3011   -0.5750   -1.2357 C   0  0  0  0  0  0  0  0  0  0  0  0
    0.0420   -1.6088   -0.1671 C   0  0  0  0  0  0  0  0  0  0  0  0
    1.0667   -2.0721    0.6196 N   0  0  0  0  0  0  0  0  0  0  0  0
   -1.1502   -2.2064    0.1677 C   0  0  0  0  0  0  0  0  0  0  0  0
    0.5021   -2.9434    1.4259 C   0  0  0  0  0  0  0  0  0  0  0  0
   -0.8395   -3.0590    1.1893 N   0  0  0  0  0  0  0  0  0  0  0  0
   -1.4467    1.6280   -0.5753 H   0  0  0  0  0  0  0  0  0  0  0  0
    1.3190    0.8385    0.0823 H   0  0  0  0  0  0  0  0  0  0  0  0
    1.1695   -0.8755   -1.8375 H   0  0  0  0  0  0  0  0  0  0  0  0
   -0.5476   -0.5805   -1.9323 H   0  0  0  0  0  0  0  0  0  0  0  0
   -2.1571   -2.1091   -0.2123 H   0  0  0  0  0  0  0  0  0  0  0  0
    1.0016   -3.5174    2.1936 H   0  0  0  0  0  0  0  0  0  0  0  0
   -1.4837   -3.6639    1.6809 H   0  0  0  0  0  0  0  0  0  0  0  0
    0.1863    3.0196   -1.6287 N   0  0  0  0  0  0  0  0  0  0  0  0
    0.3132    4.1167   -2.5610 C   0  0  2  0  0  0  0  0  0  0  0  0
    1.7974    4.3698   -2.7902 C   0  0  0  0  0  0  0  0  0  0  0  0
    2.6673    4.0274   -1.9921 O   0  0  0  0  0  0  0  0  0  0  0  0
   -0.3776    5.3677   -2.0408 C   0  0  0  0  0  0  0  0  0  0  0  0
   -0.4229    3.1381   -0.8246 H   0  0  0  0  0  0  0  0  0  0  0  0
   -0.1513    3.7907   -3.4981 H   0  0  0  0  0  0  0  0  0  0  0  0
    0.0742    5.7092   -1.1023 H   0  0  0  0  0  0  0  0  0  0  0  0
   -0.3051    6.1895   -2.7608 H   0  0  0  0  0  0  0  0  0  0  0  0
   -1.4386    5.1755   -1.8483 H   0  0  0  0  0  0  0  0  0  0  0  0
    2.0328    5.0613   -3.9703 N   0  0  0  0  0  0  0  0  0  0  0  0
    3.3591    5.4325   -4.4051 C   0  0  0  0  0  0  0  0  0  0  0  0
    1.2531    5.2882   -4.5805 H   0  0  0  0  0  0  0  0  0  0  0  0
    3.5941    6.4445   -4.0439 H   0  0  0  0  0  0  0  0  0  0  0  0
    4.0911    4.7190   -3.9988 H   0  0  0  0  0  0  0  0  0  0  0  0
    3.4024    5.4162   -5.5042 H   0  0  0  0  0  0  0  0  0  0  0  0
 22 24  2  0  0  0  0
 24 26  1  0  0  0  0
 23 25  2  0  0  0  0
 25 26  1  0  0  0  0
 21 22  1  0  0  0  0
 22 23  1  0  0  0  0
  1  3  1  0  0  0  0
  1  7  1  0  0  0  0
  1  2  2  0  0  0  0
 35 36  1  0  0  0  0
 36 44  1  0  0  0  0
 36 37  2  0  0  0  0
  8  9  1  0  0  0  0
  9 17  1  0  0  0  0
  9 10  2  0  0  0  0
 18 19  1  0  0  0  0
 19 34  1  0  0  0  0
 19 20  2  0  0  0  0
 35 38  1  0  0  0  0
  8 11  1  0  0  0  0
 44 45  1  0  0  0  0
 18 21  1  0  0  0  0
 34 35  1  0  0  0  0
  7  8  1  0  0  0  0
 17 18  1  0  0  0  0
 24 31  1  0  0  0  0
 25 32  1  0  0  0  0
  3  4  1  0  0  0  0
  3  5  1  0  0  0  0
  3  6  1  0  0  0  0
 38 41  1  0  0  0  0
 38 42  1  0  0  0  0
 38 43  1  0  0  0  0
 11 14  1  0  0  0  0
 11 15  1  0  0  0  0
 11 16  1  0  0  0  0
 45 47  1  0  0  0  0
 45 48  1  0  0  0  0
 45 49  1  0  0  0  0
 21 29  1  0  0  0  0
 21 30  1  0  0  0  0
 35 40  1  0  0  0  0
  8 13  1  0  0  0  0
 18 28  1  0  0  0  0
 26 33  1  0  0  0  0
 44 46  1  0  0  0  0
  7 12  1  0  0  0  0
 34 39  1  0  0  0  0
 17 27  1  0  0  0  0
M  END
$$$$

  -OEChem-05262214473D

 49 49  0     1  0  0  0  0  0999 V2000
   -1.6183    0.5613    3.8201 C   0  0  0  0  0  0  0  0  0  0  0  0
   -0.6710   -0.0534    3.3444 O   0  0  0  0  0  0  0  0  0  0  0  0
   -2.0502    0.2789    5.2208 C   0  0  0  0  0  0  0  0  0  0  0  0
   -2.8099   -0.5175    5.2742 H   0  0  0  0  0  0  0  0  0  0  0  0
   -1.2190   -0.0687    5.8551 H   0  0  0  0  0  0  0  0  0  0  0  0
   -2.4882    1.1338    5.7604 H   0  0  0  0  0  0  0  0  0  0  0  0
   -2.3680    1.5337    3.1790 N   0  0  0  0  0  0  0  0  0  0  0  0
   -2.1212    1.9597    1.8266 C   0  0  2  0  0  0  0  0  0  0  0  0
   -0.7862    1.3744    1.3854 C   0  0  0  0  0  0  0  0  0  0  0  0
    0.0859    1.0216    2.1767 O   0  0  0  0  0  0  0  0  0  0  0  0
   -2.1124    3.4765    1.7171 C   0  0  0  0  0  0  0  0  0  0  0  0
   -3.1331    1.9695    3.6908 H   0  0  0  0  0  0  0  0  0  0  0  0
   -2.9253    1.5413    1.2115 H   0  0  0  0  0  0  0  0  0  0  0  0
   -1.3133    3.9138    2.3268 H   0  0  0  0  0  0  0  0  0  0  0  0
   -1.9529    3.7988    0.6829 H   0  0  0  0  0  0  0  0  0  0  0  0
   -3.0626    3.8977    2.0629 H   0  0  0  0  0  0  0  0  0  0  0  0
   -0.6635    1.3313    0.0020 N   0  0  0  0  0  0  0  0  0  0  0  0
    0.5138    0.8305   -0.6617 C   0  0  2  0  0  0  0  0  0  0  0  0
    0.8549    1.8124   -1.7769 C   0  0  0  0  0  0  0  0  0  0  0  0
    1.3727    1.4674   -2.8369 O   0  0  0  0  0  0  0  0  0  0  0  0
    0.3011   -0.5750   -1.2357 C   0  0  0  0  0  0  0  0  0  0  0  0
    0.0420   -1.6088   -0.1671 C   0  0  0  0  0  0  0  0  0  0  0  0
    1.0667   -2.0721    0.6196 N   0  0  0  0  0  0  0  0  0  0  0  0
   -1.1502   -2.2064    0.1677 C   0  0  0  0  0  0  0  0  0  0  0  0
    0.5021   -2.9434    1.4259 C   0  0  0  0  0  0  0  0  0  0  0  0
   -0.8395   -3.0590    1.1893 N   0  0  0  0  0  0  0  0  0  0  0  0
   -1.4467    1.6280   -0.5753 H   0  0  0  0  0  0  0  0  0  0  0  0
    1.3190    0.8385    0.0823 H   0  0  0  0  0  0  0  0  0  0  0  0
    1.1695   -0.8755   -1.8375 H   0  0  0  0  0  0  0  0  0  0  0  0
   -0.5476   -0.5805   -1.9323 H   0  0  0  0  0  0  0  0  0  0  0  0
   -2.1571   -2.1091   -0.2123 H   0  0  0  0  0  0  0  0  0  0  0  0
    1.0016   -3.5174    2.1936 H   0  0  0  0  0  0  0  0  0  0  0  0
   -1.4837   -3.6639    1.6809 H   0  0  0  0  0  0  0  0  0  0  0  0
    0.4663    3.1079   -1.4654 N   0  0  0  0  0  0  0  0  0  0  0  0
    0.6520    4.2286   -2.3588 C   0  0  2  0  0  0  0  0  0  0  0  0
    2.1004    4.2199   -2.8295 C   0  0  0  0  0  0  0  0  0  0  0  0
    3.0042    3.6649   -2.2082 O   0  0  0  0  0  0  0  0  0  0  0  0
    0.3104    5.5436   -1.6755 C   0  0  0  0  0  0  0  0  0  0  0  0
    0.0294    3.2769   -0.5640 H   0  0  0  0  0  0  0  0  0  0  0  0
   -0.0118    4.0642   -3.2147 H   0  0  0  0  0  0  0  0  0  0  0  0
    0.9650    5.7256   -0.8154 H   0  0  0  0  0  0  0  0  0  0  0  0
    0.4241    6.3889   -2.3622 H   0  0  0  0  0  0  0  0  0  0  0  0
   -0.7226    5.5367   -1.3113 H   0  0  0  0  0  0  0  0  0  0  0  0
    2.2723    4.9415   -4.0025 N   0  0  0  0  0  0  0  0  0  0  0  0
    3.5577    5.0929   -4.6434 C   0  0  0  0  0  0  0  0  0  0  0  0
    1.4636    5.3528   -4.4592 H   0  0  0  0  0  0  0  0  0  0  0  0
    4.0399    6.0147   -4.2860 H   0  0  0  0  0  0  0  0  0  0  0  0
    4.1930    4.2286   -4.3994 H   0  0  0  0  0  0  0  0  0  0  0  0
    3.4194    5.1502   -5.7332 H   0  0  0  0  0  0  0  0  0  0  0  0
 22 24  2  0  0  0  0
 24 26  1  0  0  0  0
 23 25  2  0  0  0  0
 25 26  1  0  0  0  0
 21 22  1  0  0  0  0
 22 23  1  0  0  0  0
  1  3  1  0  0  0  0
  1  7  1  0  0  0  0
  1  2  2  0  0  0  0
 35 36  1  0  0  0  0
 36 44  1  0  0  0  0
 36 37  2  0  0  0  0
  8  9  1  0  0  0  0
  9 17  1  0  0  0  0
  9 10  2  0  0  0  0
 18 19  1  0  0  0  0
 19 34  1  0  0  0  0
 19 20  2  0  0  0  0
 35 38  1  0  0  0  0
  8 11  1  0  0  0  0
 44 45  1  0  0  0  0
 18 21  1  0  0  0  0
 34 35  1  0  0  0  0
  7  8  1  0  0  0  0
 17 18  1  0  0  0  0
 24 31  1  0  0  0  0
 25 32  1  0  0  0  0
  3  4  1  0  0  0  0
  3  5  1  0  0  0  0
  3  6  1  0  0  0  0
 38 41  1  0  0  0  0
 38 42  1  0  0  0  0
 38 43  1  0  0  0  0
 11 14  1  0  0  0  0
 11 15  1  0  0  0  0
 11 16  1  0  0  0  0
 45 47  1  0  0  0  0
 45 48  1  0  0  0  0
 45 49  1  0  0  0  0
 21 29  1  0  0  0  0
 21 30  1  0  0  0  0
 35 40  1  0  0  0  0
  8 13  1  0  0  0  0
 18 28  1  0  0  0  0
 26 33  1  0  0  0  0
 44 46  1  0  0  0  0
  7 12  1  0  0  0  0
 34 39  1  0  0  0  0
 17 27  1  0  0  0  0
M  END
$$$$

  -OEChem-05262214473D

 49 49  0     1  0  0  0  0  0999 V2000
   -1.6183    0.5613    3.8201 C   0  0  0  0  0  0  0  0  0  0  0  0
   -0.6710   -0.0534    3.3444 O   0  0  0  0  0  0  0  0  0  0  0  0
   -2.0502    0.2789    5.2208 C   0  0  0  0  0  0  0  0  0  0  0  0
   -2.8099   -0.5175    5.2742 H   0  0  0  0  0  0  0  0  0  0  0  0
   -1.2190   -0.0687    5.8551 H   0  0  0  0  0  0  0  0  0  0  0  0
   -2.4882    1.1338    5.7604 H   0  0  0  0  0  0  0  0  0  0  0  0
   -2.3680    1.5337    3.1790 N   0  0  0  0  0  0  0  0  0  0  0  0
   -2.1212    1.9597    1.8266 C   0  0  2  0  0  0  0  0  0  0  0  0
   -0.7862    1.3744    1.3854 C   0  0  0  0  0  0  0  0  0  0  0  0
    0.0859    1.0216    2.1767 O   0  0  0  0  0  0  0  0  0  0  0  0
   -2.1124    3.4765    1.7171 C   0  0  0  0  0  0  0  0  0  0  0  0
   -3.1331    1.9695    3.6908 H   0  0  0  0  0  0  0  0  0  0  0  0
   -2.9253    1.5413    1.2115 H   0  0  0  0  0  0  0  0  0  0  0  0
   -1.3133    3.9138    2.3268 H   0  0  0  0  0  0  0  0  0  0  0  0
   -1.9529    3.7988    0.6829 H   0  0  0  0  0  0  0  0  0  0  0  0
   -3.0626    3.8977    2.0629 H   0  0  0  0  0  0  0  0  0  0  0  0
   -0.6635    1.3313    0.0020 N   0  0  0  0  0  0  0  0  0  0  0  0
    0.5138    0.8305   -0.6617 C   0  0  2  0  0  0  0  0  0  0  0  0
    0.8549    1.8124   -1.7769 C   0  0  0  0  0  0  0  0  0  0  0  0
    1.1181    1.4572   -2.9238 O   0  0  0  0  0  0  0  0  0  0  0  0
    0.3011   -0.5750   -1.2357 C   0  0  0  0  0  0  0  0  0  0  0  0
    0.0420   -1.6088   -0.1671 C   0  0  0  0  0  0  0  0  0  0  0  0
    1.0667   -2.0721    0.6196 N   0  0  0  0  0  0  0  0  0  0  0  0
   -1.1502   -2.2064    0.1677 C   0  0  0  0  0  0  0  0  0  0  0  0
    0.5021   -2.9434    1.4259 C   0  0  0  0  0  0  0  0  0  0  0  0
   -0.8395   -3.0590    1.1893 N   0  0  0  0  0  0  0  0  0  0  0  0
   -1.4467    1.6280   -0.5753 H   0  0  0  0  0  0  0  0  0  0  0  0
    1.3190    0.8385    0.0823 H   0  0  0  0  0  0  0  0  0  0  0  0
    1.1695   -0.8755   -1.8375 H   0  0  0  0  0  0  0  0  0  0  0  0
   -0.5476   -0.5805   -1.9323 H   0  0  0  0  0  0  0  0  0  0  0  0
   -2.1571   -2.1091   -0.2123 H   0  0  0  0  0  0  0  0  0  0  0  0
    1.0016   -3.5174    2.1936 H   0  0  0  0  0  0  0  0  0  0  0  0
   -1.4837   -3.6639    1.6809 H   0  0  0  0  0  0  0  0  0  0  0  0
    0.7807    3.1307   -1.3491 N   0  0  0  0  0  0  0  0  0  0  0  0
    1.0341    4.2609   -2.2135 C   0  0  2  0  0  0  0  0  0  0  0  0
    2.3581    4.0201   -2.9266 C   0  0  0  0  0  0  0  0  0  0  0  0
    3.2250    3.2635   -2.4941 O   0  0  0  0  0  0  0  0  0  0  0  0
    1.0691    5.5621   -1.4271 C   0  0  0  0  0  0  0  0  0  0  0  0
    0.5360    3.3102   -0.3797 H   0  0  0  0  0  0  0  0  0  0  0  0
    0.2220    4.2854   -2.9483 H   0  0  0  0  0  0  0  0  0  0  0  0
    1.8765    5.5562   -0.6858 H   0  0  0  0  0  0  0  0  0  0  0  0
    1.2327    6.4203   -2.0871 H   0  0  0  0  0  0  0  0  0  0  0  0
    0.1269    5.7189   -0.8910 H   0  0  0  0  0  0  0  0  0  0  0  0
    2.4756    4.7823   -4.0804 N   0  0  0  0  0  0  0  0  0  0  0  0
    3.6456    4.7410   -4.9263 C   0  0  0  0  0  0  0  0  0  0  0  0
    1.6994    5.3683   -4.3734 H   0  0  0  0  0  0  0  0  0  0  0  0
    4.3488    5.5291   -4.6191 H   0  0  0  0  0  0  0  0  0  0  0  0
    4.1317    3.7588   -4.8318 H   0  0  0  0  0  0  0  0  0  0  0  0
    3.3473    4.9034   -5.9726 H   0  0  0  0  0  0  0  0  0  0  0  0
 22 24  2  0  0  0  0
 24 26  1  0  0  0  0
 23 25  2  0  0  0  0
 25 26  1  0  0  0  0
 21 22  1  0  0  0  0
 22 23  1  0  0  0  0
  1  3  1  0  0  0  0
  1  7  1  0  0  0  0
  1  2  2  0  0  0  0
 35 36  1  0  0  0  0
 36 44  1  0  0  0  0
 36 37  2  0  0  0  0
  8  9  1  0  0  0  0
  9 17  1  0  0  0  0
  9 10  2  0  0  0  0
 18 19  1  0  0  0  0
 19 34  1  0  0  0  0
 19 20  2  0  0  0  0
 35 38  1  0  0  0  0
  8 11  1  0  0  0  0
 44 45  1  0  0  0  0
 18 21  1  0  0  0  0
 34 35  1  0  0  0  0
  7  8  1  0  0  0  0
 17 18  1  0  0  0  0
 24 31  1  0  0  0  0
 25 32  1  0  0  0  0
  3  4  1  0  0  0  0
  3  5  1  0  0  0  0
  3  6  1  0  0  0  0
 38 41  1  0  0  0  0
 38 42  1  0  0  0  0
 38 43  1  0  0  0  0
 11 14  1  0  0  0  0
 11 15  1  0  0  0  0
 11 16  1  0  0  0  0
 45 47  1  0  0  0  0
 45 48  1  0  0  0  0
 45 49  1  0  0  0  0
 21 29  1  0  0  0  0
 21 30  1  0  0  0  0
 35 40  1  0  0  0  0
  8 13  1  0  0  0  0
 18 28  1  0  0  0  0
 26 33  1  0  0  0  0
 44 46  1  0  0  0  0
  7 12  1  0  0  0  0
 34 39  1  0  0  0  0
 17 27  1  0  0  0  0
M  END
$$$$

  -OEChem-05262214473D

 49 49  0     1  0  0  0  0  0999 V2000
   -1.6183    0.5613    3.8201 C   0  0  0  0  0  0  0  0  0  0  0  0
   -0.6710   -0.0534    3.3444 O   0  0  0  0  0  0  0  0  0  0  0  0
   -2.0502    0.2789    5.2208 C   0  0  0  0  0  0  0  0  0  0  0  0
   -2.8099   -0.5175    5.2742 H   0  0  0  0  0  0  0  0  0  0  0  0
   -1.2190   -0.0687    5.8551 H   0  0  0  0  0  0  0  0  0  0  0  0
   -2.4882    1.1338    5.7604 H   0  0  0  0  0  0  0  0  0  0  0  0
   -2.3680    1.5337    3.1790 N   0  0  0  0  0  0  0  0  0  0  0  0
   -2.1212    1.9597    1.8266 C   0  0  2  0  0  0  0  0  0  0  0  0
   -0.7862    1.3744    1.3854 C   0  0  0  0  0  0  0  0  0  0  0  0
    0.0859    1.0216    2.1767 O   0  0  0  0  0  0  0  0  0  0  0  0
   -2.1124    3.4765    1.7171 C   0  0  0  0  0  0  0  0  0  0  0  0
   -3.1331    1.9695    3.6908 H   0  0  0  0  0  0  0  0  0  0  0  0
   -2.9253    1.5413    1.2115 H   0  0  0  0  0  0  0  0  0  0  0  0
   -1.3133    3.9138    2.3268 H   0  0  0  0  0  0  0  0  0  0  0  0
   -1.9529    3.7988    0.6829 H   0  0  0  0  0  0  0  0  0  0  0  0
   -3.0626    3.8977    2.0629 H   0  0  0  0  0  0  0  0  0  0  0  0
   -0.6635    1.3313    0.0020 N   0  0  0  0  0  0  0  0  0  0  0  0
    0.5138    0.8305   -0.6617 C   0  0  2  0  0  0  0  0  0  0  0  0
    0.8549    1.8124   -1.7769 C   0  0  0  0  0  0  0  0  0  0  0  0
    0.8558    1.5006   -2.9658 O   0  0  0  0  0  0  0  0  0  0  0  0
    0.3011   -0.5750   -1.2357 C   0  0  0  0  0  0  0  0  0  0  0  0
    0.0420   -1.6088   -0.1671 C   0  0  0  0  0  0  0  0  0  0  0  0
    1.0667   -2.0721    0.6196 N   0  0  0  0  0  0  0  0  0  0  0  0
   -1.1502   -2.2064    0.1677 C   0  0  0  0  0  0  0  0  0  0  0  0
    0.5021   -2.9434    1.4259 C   0  0  0  0  0  0  0  0  0  0  0  0
   -0.8395   -3.0590    1.1893 N   0  0  0  0  0  0  0  0  0  0  0  0
   -1.4467    1.6280   -0.5753 H   0  0  0  0  0  0  0  0  0  0  0  0
    1.3190    0.8385    0.0823 H   0  0  0  0  0  0  0  0  0  0  0  0
    1.1695   -0.8755   -1.8375 H   0  0  0  0  0  0  0  0  0  0  0  0
   -0.5476   -0.5805   -1.9323 H   0  0  0  0  0  0  0  0  0  0  0  0
   -2.1571   -2.1091   -0.2123 H   0  0  0  0  0  0  0  0  0  0  0  0
    1.0016   -3.5174    2.1936 H   0  0  0  0  0  0  0  0  0  0  0  0
   -1.4837   -3.6639    1.6809 H   0  0  0  0  0  0  0  0  0  0  0  0
    1.1081    3.0865   -1.2879 N   0  0  0  0  0  0  0  0  0  0  0  0
    1.4335    4.2113   -2.1350 C   0  0  2  0  0  0  0  0  0  0  0  0
    2.5530    3.7839   -3.0749 C   0  0  0  0  0  0  0  0  0  0  0  0
    3.3146    2.8505   -2.8303 O   0  0  0  0  0  0  0  0  0  0  0  0
    1.8469    5.4219   -1.3126 C   0  0  0  0  0  0  0  0  0  0  0  0
    1.0623    3.2358   -0.2842 H   0  0  0  0  0  0  0  0  0  0  0  0
    0.5341    4.4395   -2.7172 H   0  0  0  0  0  0  0  0  0  0  0  0
    2.7464    5.2124   -0.7224 H   0  0  0  0  0  0  0  0  0  0  0  0
    2.0656    6.2817   -1.9544 H   0  0  0  0  0  0  0  0  0  0  0  0
    1.0520    5.7098   -0.6161 H   0  0  0  0  0  0  0  0  0  0  0  0
    2.6289    4.5946   -4.1988 N   0  0  0  0  0  0  0  0  0  0  0  0
    3.6167    4.4009   -5.2346 C   0  0  0  0  0  0  0  0  0  0  0  0
    1.9444    5.3337   -4.3289 H   0  0  0  0  0  0  0  0  0  0  0  0
    4.4997    5.0209   -5.0204 H   0  0  0  0  0  0  0  0  0  0  0  0
    3.9115    3.3416   -5.2665 H   0  0  0  0  0  0  0  0  0  0  0  0
    3.1910    4.6924   -6.2061 H   0  0  0  0  0  0  0  0  0  0  0  0
 22 24  2  0  0  0  0
 24 26  1  0  0  0  0
 23 25  2  0  0  0  0
 25 26  1  0  0  0  0
 21 22  1  0  0  0  0
 22 23  1  0  0  0  0
  1  3  1  0  0  0  0
  1  7  1  0  0  0  0
  1  2  2  0  0  0  0
 35 36  1  0  0  0  0
 36 44  1  0  0  0  0
 36 37  2  0  0  0  0
  8  9  1  0  0  0  0
  9 17  1  0  0  0  0
  9 10  2  0  0  0  0
 18 19  1  0  0  0  0
 19 34  1  0  0  0  0
 19 20  2  0  0  0  0
 35 38  1  0  0  0  0
  8 11  1  0  0  0  0
 44 45  1  0  0  0  0
 18 21  1  0  0  0  0
 34 35  1  0  0  0  0
  7  8  1  0  0  0  0
 17 18  1  0  0  0  0
 24 31  1  0  0  0  0
 25 32  1  0  0  0  0
  3  4  1  0  0  0  0
  3  5  1  0  0  0  0
  3  6  1  0  0  0  0
 38 41  1  0  0  0  0
 38 42  1  0  0  0  0
 38 43  1  0  0  0  0
 11 14  1  0  0  0  0
 11 15  1  0  0  0  0
 11 16  1  0  0  0  0
 45 47  1  0  0  0  0
 45 48  1  0  0  0  0
 45 49  1  0  0  0  0
 21 29  1  0  0  0  0
 21 30  1  0  0  0  0
 35 40  1  0  0  0  0
  8 13  1  0  0  0  0
 18 28  1  0  0  0  0
 26 33  1  0  0  0  0
 44 46  1  0  0  0  0
  7 12  1  0  0  0  0
 34 39  1  0  0  0  0
 17 27  1  0  0  0  0
M  END
$$$$

  -OEChem-05262214473D

 49 49  0     1  0  0  0  0  0999 V2000
   -1.6183    0.5613    3.8201 C   0  0  0  0  0  0  0  0  0  0  0  0
   -0.6710   -0.0534    3.3444 O   0  0  0  0  0  0  0  0  0  0  0  0
   -2.0502    0.2789    5.2208 C   0  0  0  0  0  0  0  0  0  0  0  0
   -2.8099   -0.5175    5.2742 H   0  0  0  0  0  0  0  0  0  0  0  0
   -1.2190   -0.0687    5.8551 H   0  0  0  0  0  0  0  0  0  0  0  0
   -2.4882    1.1338    5.7604 H   0  0  0  0  0  0  0  0  0  0  0  0
   -2.3680    1.5337    3.1790 N   0  0  0  0  0  0  0  0  0  0  0  0
   -2.1212    1.9597    1.8266 C   0  0  2  0  0  0  0  0  0  0  0  0
   -0.7862    1.3744    1.3854 C   0  0  0  0  0  0  0  0  0  0  0  0
    0.0859    1.0216    2.1767 O   0  0  0  0  0  0  0  0  0  0  0  0
   -2.1124    3.4765    1.7171 C   0  0  0  0  0  0  0  0  0  0  0  0
   -3.1331    1.9695    3.6908 H   0  0  0  0  0  0  0  0  0  0  0  0
   -2.9253    1.5413    1.2115 H   0  0  0  0  0  0  0  0  0  0  0  0
   -1.3133    3.9138    2.3268 H   0  0  0  0  0  0  0  0  0  0  0  0
   -1.9529    3.7988    0.6829 H   0  0  0  0  0  0  0  0  0  0  0  0
   -3.0626    3.8977    2.0629 H   0  0  0  0  0  0  0  0  0  0  0  0
   -0.6635    1.3313    0.0020 N   0  0  0  0  0  0  0  0  0  0  0  0
    0.5138    0.8305   -0.6617 C   0  0  2  0  0  0  0  0  0  0  0  0
    0.8549    1.8124   -1.7769 C   0  0  0  0  0  0  0  0  0  0  0  0
    0.6036    1.5945   -2.9602 O   0  0  0  0  0  0  0  0  0  0  0  0
    0.3011   -0.5750   -1.2357 C   0  0  0  0  0  0  0  0  0  0  0  0
    0.0420   -1.6088   -0.1671 C   0  0  0  0  0  0  0  0  0  0  0  0
    1.0667   -2.0721    0.6196 N   0  0  0  0  0  0  0  0  0  0  0  0
   -1.1502   -2.2064    0.1677 C   0  0  0  0  0  0  0  0  0  0  0  0
    0.5021   -2.9434    1.4259 C   0  0  0  0  0  0  0  0  0  0  0  0
   -0.8395   -3.0590    1.1893 N   0  0  0  0  0  0  0  0  0  0  0  0
   -1.4467    1.6280   -0.5753 H   0  0  0  0  0  0  0  0  0  0  0  0
    1.3190    0.8385    0.0823 H   0  0  0  0  0  0  0  0  0  0  0  0
    1.1695   -0.8755   -1.8375 H   0  0  0  0  0  0  0  0  0  0  0  0
   -0.5476   -0.5805   -1.9323 H   0  0  0  0  0  0  0  0  0  0  0  0
   -2.1571   -2.1091   -0.2123 H   0  0  0  0  0  0  0  0  0  0  0  0
    1.0016   -3.5174    2.1936 H   0  0  0  0  0  0  0  0  0  0  0  0
   -1.4837   -3.6639    1.6809 H   0  0  0  0  0  0  0  0  0  0  0  0
    1.4261    2.9782   -1.2860 N   0  0  0  0  0  0  0  0  0  0  0  0
    1.8231    4.0833   -2.1286 C   0  0  2  0  0  0  0  0  0  0  0  0
    2.6719    3.5274   -3.2644 C   0  0  0  0  0  0  0  0  0  0  0  0
    3.2669    2.4541   -3.1939 O   0  0  0  0  0  0  0  0  0  0  0  0
    2.5907    5.1327   -1.3397 C   0  0  0  0  0  0  0  0  0  0  0  0
    1.5726    3.0587   -0.2840 H   0  0  0  0  0  0  0  0  0  0  0  0
    0.9033    4.5158   -2.5371 H   0  0  0  0  0  0  0  0  0  0  0  0
    3.5155    4.7178   -0.9226 H   0  0  0  0  0  0  0  0  0  0  0  0
    2.8659    5.9825   -1.9731 H   0  0  0  0  0  0  0  0  0  0  0  0
    1.9896    5.5098   -0.5053 H   0  0  0  0  0  0  0  0  0  0  0  0
    2.7217    4.3911   -4.3496 N   0  0  0  0  0  0  0  0  0  0  0  0
    3.4730    4.0957   -5.5473 C   0  0  0  0  0  0  0  0  0  0  0  0
    2.1820    5.2513   -4.3288 H   0  0  0  0  0  0  0  0  0  0  0  0
    4.4823    4.5246   -5.4627 H   0  0  0  0  0  0  0  0  0  0  0  0
    3.5474    3.0056   -5.6737 H   0  0  0  0  0  0  0  0  0  0  0  0
    2.9612    4.5318   -6.4179 H   0  0  0  0  0  0  0  0  0  0  0  0
 22 24  2  0  0  0  0
 24 26  1  0  0  0  0
 23 25  2  0  0  0  0
 25 26  1  0  0  0  0
 21 22  1  0  0  0  0
 22 23  1  0  0  0  0
  1  3  1  0  0  0  0
  1  7  1  0  0  0  0
  1  2  2  0  0  0  0
 35 36  1  0  0  0  0
 36 44  1  0  0  0  0
 36 37  2  0  0  0  0
  8  9  1  0  0  0  0
  9 17  1  0  0  0  0
  9 10  2  0  0  0  0
 18 19  1  0  0  0  0
 19 34  1  0  0  0  0
 19 20  2  0  0  0  0
 35 38  1  0  0  0  0
  8 11  1  0  0  0  0
 44 45  1  0  0  0  0
 18 21  1  0  0  0  0
 34 35  1  0  0  0  0
  7  8  1  0  0  0  0
 17 18  1  0  0  0  0
 24 31  1  0  0  0  0
 25 32  1  0  0  0  0
  3  4  1  0  0  0  0
  3  5  1  0  0  0  0
  3  6  1  0  0  0  0
 38 41  1  0  0  0  0
 38 42  1  0  0  0  0
 38 43  1  0  0  0  0
 11 14  1  0  0  0  0
 11 15  1  0  0  0  0
 11 16  1  0  0  0  0
 45 47  1  0  0  0  0
 45 48  1  0  0  0  0
 45 49  1  0  0  0  0
 21 29  1  0  0  0  0
 21 30  1  0  0  0  0
 35 40  1  0  0  0  0
  8 13  1  0  0  0  0
 18 28  1  0  0  0  0
 26 33  1  0  0  0  0
 44 46  1  0  0  0  0
  7 12  1  0  0  0  0
 34 39  1  0  0  0  0
 17 27  1  0  0  0  0
M  END
$$$$

  -OEChem-05262214473D

 49 49  0     1  0  0  0  0  0999 V2000
   -1.6183    0.5613    3.8201 C   0  0  0  0  0  0  0  0  0  0  0  0
   -0.6710   -0.0534    3.3444 O   0  0  0  0  0  0  0  0  0  0  0  0
   -2.0502    0.2789    5.2208 C   0  0  0  0  0  0  0  0  0  0  0  0
   -2.8099   -0.5175    5.2742 H   0  0  0  0  0  0  0  0  0  0  0  0
   -1.2190   -0.0687    5.8551 H   0  0  0  0  0  0  0  0  0  0  0  0
   -2.4882    1.1338    5.7604 H   0  0  0  0  0  0  0  0  0  0  0  0
   -2.3680    1.5337    3.1790 N   0  0  0  0  0  0  0  0  0  0  0  0
   -2.1212    1.9597    1.8266 C   0  0  2  0  0  0  0  0  0  0  0  0
   -0.7862    1.3744    1.3854 C   0  0  0  0  0  0  0  0  0  0  0  0
    0.0859    1.0216    2.1767 O   0  0  0  0  0  0  0  0  0  0  0  0
   -2.1124    3.4765    1.7171 C   0  0  0  0  0  0  0  0  0  0  0  0
   -3.1331    1.9695    3.6908 H   0  0  0  0  0  0  0  0  0  0  0  0
   -2.9253    1.5413    1.2115 H   0  0  0  0  0  0  0  0  0  0  0  0
   -1.3133    3.9138    2.3268 H   0  0  0  0  0  0  0  0  0  0  0  0
   -1.9529    3.7988    0.6829 H   0  0  0  0  0  0  0  0  0  0  0  0
   -3.0626    3.8977    2.0629 H   0  0  0  0  0  0  0  0  0  0  0  0
   -0.6635    1.3313    0.0020 N   0  0  0  0  0  0  0  0  0  0  0  0
    0.5138    0.8305   -0.6617 C   0  0  2  0  0  0  0  0  0  0  0  0
    0.8549    1.8124   -1.7769 C   0  0  0  0  0  0  0  0  0  0  0  0
    0.3788    1.7327   -2.9073 O   0  0  0  0  0  0  0  0  0  0  0  0
    0.3011   -0.5750   -1.2357 C   0  0  0  0  0  0  0  0  0  0  0  0
    0.0420   -1.6088   -0.1671 C   0  0  0  0  0  0  0  0  0  0  0  0
    1.0667   -2.0721    0.6196 N   0  0  0  0  0  0  0  0  0  0  0  0
   -1.1502   -2.2064    0.1677 C   0  0  0  0  0  0  0  0  0  0  0  0
    0.5021   -2.9434    1.4259 C   0  0  0  0  0  0  0  0  0  0  0  0
   -0.8395   -3.0590    1.1893 N   0  0  0  0  0  0  0  0  0  0  0  0
   -1.4467    1.6280   -0.5753 H   0  0  0  0  0  0  0  0  0  0  0  0
    1.3190    0.8385    0.0823 H   0  0  0  0  0  0  0  0  0  0  0  0
    1.1695   -0.8755   -1.8375 H   0  0  0  0  0  0  0  0  0  0  0  0
   -0.5476   -0.5805   -1.9323 H   0  0  0  0  0  0  0  0  0  0  0  0
   -2.1571   -2.1091   -0.2123 H   0  0  0  0  0  0  0  0  0  0  0  0
    1.0016   -3.5174    2.1936 H   0  0  0  0  0  0  0  0  0  0  0  0
   -1.4837   -3.6639    1.6809 H   0  0  0  0  0  0  0  0  0  0  0  0
    1.7132    2.8133   -1.3433 N   0  0  0  0  0  0  0  0  0  0  0  0
    2.1762    3.8855   -2.1947 C   0  0  2  0  0  0  0  0  0  0  0  0
    2.7065    3.2682   -3.4821 C   0  0  0  0  0  0  0  0  0  0  0  0
    3.0851    2.1013   -3.5601 O   0  0  0  0  0  0  0  0  0  0  0  0
    3.2499    4.7140   -1.5067 C   0  0  0  0  0  0  0  0  0  0  0  0
    2.0320    2.7911   -0.3792 H   0  0  0  0  0  0  0  0  0  0  0  0
    1.3043    4.5092   -2.4202 H   0  0  0  0  0  0  0  0  0  0  0  0
    4.1314    4.1060   -1.2729 H   0  0  0  0  0  0  0  0  0  0  0  0
    3.5792    5.5430   -2.1419 H   0  0  0  0  0  0  0  0  0  0  0  0
    2.8760    5.1328   -0.5661 H   0  0  0  0  0  0  0  0  0  0  0  0
    2.7476    4.1857   -4.5225 N   0  0  0  0  0  0  0  0  0  0  0  0
    3.2242    3.8463   -5.8430 C   0  0  0  0  0  0  0  0  0  0  0  0
    2.3958    5.1268   -4.3730 H   0  0  0  0  0  0  0  0  0  0  0  0
    4.2979    4.0742   -5.9157 H   0  0  0  0  0  0  0  0  0  0  0  0
    3.0641    2.7735   -6.0259 H   0  0  0  0  0  0  0  0  0  0  0  0
    2.6735    4.4324   -6.5934 H   0  0  0  0  0  0  0  0  0  0  0  0
 22 24  2  0  0  0  0
 24 26  1  0  0  0  0
 23 25  2  0  0  0  0
 25 26  1  0  0  0  0
 21 22  1  0  0  0  0
 22 23  1  0  0  0  0
  1  3  1  0  0  0  0
  1  7  1  0  0  0  0
  1  2  2  0  0  0  0
 35 36  1  0  0  0  0
 36 44  1  0  0  0  0
 36 37  2  0  0  0  0
  8  9  1  0  0  0  0
  9 17  1  0  0  0  0
  9 10  2  0  0  0  0
 18 19  1  0  0  0  0
 19 34  1  0  0  0  0
 19 20  2  0  0  0  0
 35 38  1  0  0  0  0
  8 11  1  0  0  0  0
 44 45  1  0  0  0  0
 18 21  1  0  0  0  0
 34 35  1  0  0  0  0
  7  8  1  0  0  0  0
 17 18  1  0  0  0  0
 24 31  1  0  0  0  0
 25 32  1  0  0  0  0
  3  4  1  0  0  0  0
  3  5  1  0  0  0  0
  3  6  1  0  0  0  0
 38 41  1  0  0  0  0
 38 42  1  0  0  0  0
 38 43  1  0  0  0  0
 11 14  1  0  0  0  0
 11 15  1  0  0  0  0
 11 16  1  0  0  0  0
 45 47  1  0  0  0  0
 45 48  1  0  0  0  0
 45 49  1  0  0  0  0
 21 29  1  0  0  0  0
 21 30  1  0  0  0  0
 35 40  1  0  0  0  0
  8 13  1  0  0  0  0
 18 28  1  0  0  0  0
 26 33  1  0  0  0  0
 44 46  1  0  0  0  0
  7 12  1  0  0  0  0
 34 39  1  0  0  0  0
 17 27  1  0  0  0  0
M  END
$$$$

  -OEChem-05262214473D

 49 49  0     1  0  0  0  0  0999 V2000
   -1.6183    0.5613    3.8201 C   0  0  0  0  0  0  0  0  0  0  0  0
   -0.6710   -0.0534    3.3444 O   0  0  0  0  0  0  0  0  0  0  0  0
   -2.0502    0.2789    5.2208 C   0  0  0  0  0  0  0  0  0  0  0  0
   -2.8099   -0.5175    5.2742 H   0  0  0  0  0  0  0  0  0  0  0  0
   -1.2190   -0.0687    5.8551 H   0  0  0  0  0  0  0  0  0  0  0  0
   -2.4882    1.1338    5.7604 H   0  0  0  0  0  0  0  0  0  0  0  0
   -2.3680    1.5337    3.1790 N   0  0  0  0  0  0  0  0  0  0  0  0
   -2.1212    1.9597    1.8266 C   0  0  2  0  0  0  0  0  0  0  0  0
   -0.7862    1.3744    1.3854 C   0  0  0  0  0  0  0  0  0  0  0  0
    0.0859    1.0216    2.1767 O   0  0  0  0  0  0  0  0  0  0  0  0
   -2.1124    3.4765    1.7171 C   0  0  0  0  0  0  0  0  0  0  0  0
   -3.1331    1.9695    3.6908 H   0  0  0  0  0  0  0  0  0  0  0  0
   -2.9253    1.5413    1.2115 H   0  0  0  0  0  0  0  0  0  0  0  0
   -1.3133    3.9138    2.3268 H   0  0  0  0  0  0  0  0  0  0  0  0
   -1.9529    3.7988    0.6829 H   0  0  0  0  0  0  0  0  0  0  0  0
   -3.0626    3.8977    2.0629 H   0  0  0  0  0  0  0  0  0  0  0  0
   -0.6635    1.3313    0.0020 N   0  0  0  0  0  0  0  0  0  0  0  0
    0.5138    0.8305   -0.6617 C   0  0  2  0  0  0  0  0  0  0  0  0
    0.8549    1.8124   -1.7769 C   0  0  0  0  0  0  0  0  0  0  0  0
    0.1966    1.9057   -2.8107 O   0  0  0  0  0  0  0  0  0  0  0  0
    0.3011   -0.5750   -1.2357 C   0  0  0  0  0  0  0  0  0  0  0  0
    0.0420   -1.6088   -0.1671 C   0  0  0  0  0  0  0  0  0  0  0  0
    1.0667   -2.0721    0.6196 N   0  0  0  0  0  0  0  0  0  0  0  0
   -1.1502   -2.2064    0.1677 C   0  0  0  0  0  0  0  0  0  0  0  0
    0.5021   -2.9434    1.4259 C   0  0  0  0  0  0  0  0  0  0  0  0
   -0.8395   -3.0590    1.1893 N   0  0  0  0  0  0  0  0  0  0  0  0
   -1.4467    1.6280   -0.5753 H   0  0  0  0  0  0  0  0  0  0  0  0
    1.3190    0.8385    0.0823 H   0  0  0  0  0  0  0  0  0  0  0  0
    1.1695   -0.8755   -1.8375 H   0  0  0  0  0  0  0  0  0  0  0  0
   -0.5476   -0.5805   -1.9323 H   0  0  0  0  0  0  0  0  0  0  0  0
   -2.1571   -2.1091   -0.2123 H   0  0  0  0  0  0  0  0  0  0  0  0
    1.0016   -3.5174    2.1936 H   0  0  0  0  0  0  0  0  0  0  0  0
   -1.4837   -3.6639    1.6809 H   0  0  0  0  0  0  0  0  0  0  0  0
    1.9497    2.6030   -1.4562 N   0  0  0  0  0  0  0  0  0  0  0  0
    2.4688    3.6314   -2.3290 C   0  0  2  0  0  0  0  0  0  0  0  0
    2.6546    3.0238   -3.7131 C   0  0  0  0  0  0  0  0  0  0  0  0
    2.7817    1.8161   -3.9040 O   0  0  0  0  0  0  0  0  0  0  0  0
    3.7795    4.1945   -1.8021 C   0  0  0  0  0  0  0  0  0  0  0  0
    2.4092    2.4511   -0.5631 H   0  0  0  0  0  0  0  0  0  0  0  0
    1.7100    4.4201   -2.3746 H   0  0  0  0  0  0  0  0  0  0  0  0
    4.5520    3.4187   -1.7493 H   0  0  0  0  0  0  0  0  0  0  0  0
    4.1568    4.9932   -2.4493 H   0  0  0  0  0  0  0  0  0  0  0  0
    3.6506    4.6043   -0.7945 H   0  0  0  0  0  0  0  0  0  0  0  0
    2.7050    3.9924   -4.7058 N   0  0  0  0  0  0  0  0  0  0  0  0
    2.8875    3.6695   -6.1016 C   0  0  0  0  0  0  0  0  0  0  0  0
    2.5714    4.9686   -4.4586 H   0  0  0  0  0  0  0  0  0  0  0  0
    3.9590    3.7003   -6.3486 H   0  0  0  0  0  0  0  0  0  0  0  0
    2.4947    2.6612   -6.2990 H   0  0  0  0  0  0  0  0  0  0  0  0
    2.3475    4.4010   -6.7207 H   0  0  0  0  0  0  0  0  0  0  0  0
 22 24  2  0  0  0  0
 24 26  1  0  0  0  0
 23 25  2  0  0  0  0
 25 26  1  0  0  0  0
 21 22  1  0  0  0  0
 22 23  1  0  0  0  0
  1  3  1  0  0  0  0
  1  7  1  0  0  0  0
  1  2  2  0  0  0  0
 35 36  1  0  0  0  0
 36 44  1  0  0  0  0
 36 37  2  0  0  0  0
  8  9  1  0  0  0  0
  9 17  1  0  0  0  0
  9 10  2  0  0  0  0
 18 19  1  0  0  0  0
 19 34  1  0  0  0  0
 19 20  2  0  0  0  0
 35 38  1  0  0  0  0
  8 11  1  0  0  0  0
 44 45  1  0  0  0  0
 18 21  1  0  0  0  0
 34 35  1  0  0  0  0
  7  8  1  0  0  0  0
 17 18  1  0  0  0  0
 24 31  1  0  0  0  0
 25 32  1  0  0  0  0
  3  4  1  0  0  0  0
  3  5  1  0  0  0  0
  3  6  1  0  0  0  0
 38 41  1  0  0  0  0
 38 42  1  0  0  0  0
 38 43  1  0  0  0  0
 11 14  1  0  0  0  0
 11 15  1  0  0  0  0
 11 16  1  0  0  0  0
 45 47  1  0  0  0  0
 45 48  1  0  0  0  0
 45 49  1  0  0  0  0
 21 29  1  0  0  0  0
 21 30  1  0  0  0  0
 35 40  1  0  0  0  0
  8 13  1  0  0  0  0
 18 28  1  0  0  0  0
 26 33  1  0  0  0  0
 44 46  1  0  0  0  0
  7 12  1  0  0  0  0
 34 39  1  0  0  0  0
 17 27  1  0  0  0  0
M  END
$$$$

  -OEChem-05262214473D

 49 49  0     1  0  0  0  0  0999 V2000
   -1.6183    0.5613    3.8201 C   0  0  0  0  0  0  0  0  0  0  0  0
   -0.6710   -0.0534    3.3444 O   0  0  0  0  0  0  0  0  0  0  0  0
   -2.0502    0.2789    5.2208 C   0  0  0  0  0  0  0  0  0  0  0  0
   -2.8099   -0.5175    5.2742 H   0  0  0  0  0  0  0  0  0  0  0  0
   -1.2190   -0.0687    5.8551 H   0  0  0  0  0  0  0  0  0  0  0  0
   -2.4882    1.1338    5.7604 H   0  0  0  0  0  0  0  0  0  0  0  0
   -2.3680    1.5337    3.1790 N   0  0  0  0  0  0  0  0  0  0  0  0
   -2.1212    1.9597    1.8266 C   0  0  2  0  0  0  0  0  0  0  0  0
   -0.7862    1.3744    1.3854 C   0  0  0  0  0  0  0  0  0  0  0  0
    0.0859    1.0216    2.1767 O   0  0  0  0  0  0  0  0  0  0  0  0
   -2.1124    3.4765    1.7171 C   0  0  0  0  0  0  0  0  0  0  0  0
   -3.1331    1.9695    3.6908 H   0  0  0  0  0  0  0  0  0  0  0  0
   -2.9253    1.5413    1.2115 H   0  0  0  0  0  0  0  0  0  0  0  0
   -1.3133    3.9138    2.3268 H   0  0  0  0  0  0  0  0  0  0  0  0
   -1.9529    3.7988    0.6829 H   0  0  0  0  0  0  0  0  0  0  0  0
   -3.0626    3.8977    2.0629 H   0  0  0  0  0  0  0  0  0  0  0  0
   -0.6635    1.3313    0.0020 N   0  0  0  0  0  0  0  0  0  0  0  0
    0.5138    0.8305   -0.6617 C   0  0  2  0  0  0  0  0  0  0  0  0
    0.8549    1.8124   -1.7769 C   0  0  0  0  0  0  0  0  0  0  0  0
    0.0695    2.1017   -2.6770 O   0  0  0  0  0  0  0  0  0  0  0  0
    0.3011   -0.5750   -1.2357 C   0  0  0  0  0  0  0  0  0  0  0  0
    0.0420   -1.6088   -0.1671 C   0  0  0  0  0  0  0  0  0  0  0  0
    1.0667   -2.0721    0.6196 N   0  0  0  0  0  0  0  0  0  0  0  0
   -1.1502   -2.2064    0.1677 C   0  0  0  0  0  0  0  0  0  0  0  0
    0.5021   -2.9434    1.4259 C   0  0  0  0  0  0  0  0  0  0  0  0
   -0.8395   -3.0590    1.1893 N   0  0  0  0  0  0  0  0  0  0  0  0
   -1.4467    1.6280   -0.5753 H   0  0  0  0  0  0  0  0  0  0  0  0
    1.3190    0.8385    0.0823 H   0  0  0  0  0  0  0  0  0  0  0  0
    1.1695   -0.8755   -1.8375 H   0  0  0  0  0  0  0  0  0  0  0  0
   -0.5476   -0.5805   -1.9323 H   0  0  0  0  0  0  0  0  0  0  0  0
   -2.1571   -2.1091   -0.2123 H   0  0  0  0  0  0  0  0  0  0  0  0
    1.0016   -3.5174    2.1936 H   0  0  0  0  0  0  0  0  0  0  0  0
   -1.4837   -3.6639    1.6809 H   0  0  0  0  0  0  0  0  0  0  0  0
    2.1195    2.3616   -1.6168 N   0  0  0  0  0  0  0  0  0  0  0  0
    2.6809    3.3383   -2.5221 C   0  0  2  0  0  0  0  0  0  0  0  0
    2.5197    2.8109   -3.9418 C   0  0  0  0  0  0  0  0  0  0  0  0
    2.3774    1.6180   -4.2021 O   0  0  0  0  0  0  0  0  0  0  0  0
    4.1435    3.6095   -2.2059 C   0  0  0  0  0  0  0  0  0  0  0  0
    2.6785    2.0620   -0.8234 H   0  0  0  0  0  0  0  0  0  0  0  0
    2.0925    4.2546   -2.4033 H   0  0  0  0  0  0  0  0  0  0  0  0
    4.7488    2.7028   -2.3195 H   0  0  0  0  0  0  0  0  0  0  0  0
    4.5594    4.3706   -2.8743 H   0  0  0  0  0  0  0  0  0  0  0  0
    4.2607    3.9604   -1.1749 H   0  0  0  0  0  0  0  0  0  0  0  0
    2.5966    3.8244   -4.8868 N   0  0  0  0  0  0  0  0  0  0  0  0
    2.4856    3.5775   -6.3055 C   0  0  0  0  0  0  0  0  0  0  0  0
    2.6968    4.7874   -4.5798 H   0  0  0  0  0  0  0  0  0  0  0  0
    3.4886    3.4283   -6.7319 H   0  0  0  0  0  0  0  0  0  0  0  0
    1.8779    2.6763   -6.4743 H   0  0  0  0  0  0  0  0  0  0  0  0
    2.0054    4.4398   -6.7912 H   0  0  0  0  0  0  0  0  0  0  0  0
 22 24  2  0  0  0  0
 24 26  1  0  0  0  0
 23 25  2  0  0  0  0
 25 26  1  0  0  0  0
 21 22  1  0  0  0  0
 22 23  1  0  0  0  0
  1  3  1  0  0  0  0
  1  7  1  0  0  0  0
  1  2  2  0  0  0  0
 35 36  1  0  0  0  0
 36 44  1  0  0  0  0
 36 37  2  0  0  0  0
  8  9  1  0  0  0  0
  9 17  1  0  0  0  0
  9 10  2  0  0  0  0
 18 19  1  0  0  0  0
 19 34  1  0  0  0  0
 19 20  2  0  0  0  0
 35 38  1  0  0  0  0
  8 11  1  0  0  0  0
 44 45  1  0  0  0  0
 18 21  1  0  0  0  0
 34 35  1  0  0  0  0
  7  8  1  0  0  0  0
 17 18  1  0  0  0  0
 24 31  1  0  0  0  0
 25 32  1  0  0  0  0
  3  4  1  0  0  0  0
  3  5  1  0  0  0  0
  3  6  1  0  0  0  0
 38 41  1  0  0  0  0
 38 42  1  0  0  0  0
 38 43  1  0  0  0  0
 11 14  1  0  0  0  0
 11 15  1  0  0  0  0
 11 16  1  0  0  0  0
 45 47  1  0  0  0  0
 45 48  1  0  0  0  0
 45 49  1  0  0  0  0
 21 29  1  0  0  0  0
 21 30  1  0  0  0  0
 35 40  1  0  0  0  0
  8 13  1  0  0  0  0
 18 28  1  0  0  0  0
 26 33  1  0  0  0  0
 44 46  1  0  0  0  0
  7 12  1  0  0  0  0
 34 39  1  0  0  0  0
 17 27  1  0  0  0  0
M  END
$$$$

  -OEChem-05262214473D

 49 49  0     1  0  0  0  0  0999 V2000
   -1.6183    0.5613    3.8201 C   0  0  0  0  0  0  0  0  0  0  0  0
   -0.6710   -0.0534    3.3444 O   0  0  0  0  0  0  0  0  0  0  0  0
   -2.0502    0.2789    5.2208 C   0  0  0  0  0  0  0  0  0  0  0  0
   -2.8099   -0.5175    5.2742 H   0  0  0  0  0  0  0  0  0  0  0  0
   -1.2190   -0.0687    5.8551 H   0  0  0  0  0  0  0  0  0  0  0  0
   -2.4882    1.1338    5.7604 H   0  0  0  0  0  0  0  0  0  0  0  0
   -2.3680    1.5337    3.1790 N   0  0  0  0  0  0  0  0  0  0  0  0
   -2.1212    1.9597    1.8266 C   0  0  2  0  0  0  0  0  0  0  0  0
   -0.7862    1.3744    1.3854 C   0  0  0  0  0  0  0  0  0  0  0  0
    0.0859    1.0216    2.1767 O   0  0  0  0  0  0  0  0  0  0  0  0
   -2.1124    3.4765    1.7171 C   0  0  0  0  0  0  0  0  0  0  0  0
   -3.1331    1.9695    3.6908 H   0  0  0  0  0  0  0  0  0  0  0  0
   -2.9253    1.5413    1.2115 H   0  0  0  0  0  0  0  0  0  0  0  0
   -1.3133    3.9138    2.3268 H   0  0  0  0  0  0  0  0  0  0  0  0
   -1.9529    3.7988    0.6829 H   0  0  0  0  0  0  0  0  0  0  0  0
   -3.0626    3.8977    2.0629 H   0  0  0  0  0  0  0  0  0  0  0  0
   -0.6635    1.3313    0.0020 N   0  0  0  0  0  0  0  0  0  0  0  0
    0.5138    0.8305   -0.6617 C   0  0  2  0  0  0  0  0  0  0  0  0
    0.8549    1.8124   -1.7769 C   0  0  0  0  0  0  0  0  0  0  0  0
    0.0061    2.3074   -2.5154 O   0  0  0  0  0  0  0  0  0  0  0  0
    0.3011   -0.5750   -1.2357 C   0  0  0  0  0  0  0  0  0  0  0  0
    0.0420   -1.6088   -0.1671 C   0  0  0  0  0  0  0  0  0  0  0  0
    1.0667   -2.0721    0.6196 N   0  0  0  0  0  0  0  0  0  0  0  0
   -1.1502   -2.2064    0.1677 C   0  0  0  0  0  0  0  0  0  0  0  0
    0.5021   -2.9434    1.4259 C   0  0  0  0  0  0  0  0  0  0  0  0
   -0.8395   -3.0590    1.1893 N   0  0  0  0  0  0  0  0  0  0  0  0
   -1.4467    1.6280   -0.5753 H   0  0  0  0  0  0  0  0  0  0  0  0
    1.3190    0.8385    0.0823 H   0  0  0  0  0  0  0  0  0  0  0  0
    1.1695   -0.8755   -1.8375 H   0  0  0  0  0  0  0  0  0  0  0  0
   -0.5476   -0.5805   -1.9323 H   0  0  0  0  0  0  0  0  0  0  0  0
   -2.1571   -2.1091   -0.2123 H   0  0  0  0  0  0  0  0  0  0  0  0
    1.0016   -3.5174    2.1936 H   0  0  0  0  0  0  0  0  0  0  0  0
   -1.4837   -3.6639    1.6809 H   0  0  0  0  0  0  0  0  0  0  0  0
    2.2110    2.1056   -1.8142 N   0  0  0  0  0  0  0  0  0  0  0  0
    2.7981    3.0262   -2.7610 C   0  0  2  0  0  0  0  0  0  0  0  0
    2.3109    2.6441   -4.1525 C   0  0  0  0  0  0  0  0  0  0  0  0
    1.8996    1.5205   -4.4341 O   0  0  0  0  0  0  0  0  0  0  0  0
    4.3170    2.9990   -2.6904 C   0  0  0  0  0  0  0  0  0  0  0  0
    2.8216    1.6502   -1.1422 H   0  0  0  0  0  0  0  0  0  0  0  0
    2.4259    4.0240   -2.5043 H   0  0  0  0  0  0  0  0  0  0  0  0
    4.7083    2.0071   -2.9444 H   0  0  0  0  0  0  0  0  0  0  0  0
    4.7596    3.7175   -3.3881 H   0  0  0  0  0  0  0  0  0  0  0  0
    4.6647    3.2449   -1.6812 H   0  0  0  0  0  0  0  0  0  0  0  0
    2.4300    3.6931   -5.0534 N   0  0  0  0  0  0  0  0  0  0  0  0
    2.0460    3.5765   -6.4409 C   0  0  0  0  0  0  0  0  0  0  0  0
    2.7635    4.5957   -4.7282 H   0  0  0  0  0  0  0  0  0  0  0  0
    2.9189    3.2769   -7.0395 H   0  0  0  0  0  0  0  0  0  0  0  0
    1.2557    2.8179   -6.5400 H   0  0  0  0  0  0  0  0  0  0  0  0
    1.6706    4.5461   -6.8000 H   0  0  0  0  0  0  0  0  0  0  0  0
 22 24  2  0  0  0  0
 24 26  1  0  0  0  0
 23 25  2  0  0  0  0
 25 26  1  0  0  0  0
 21 22  1  0  0  0  0
 22 23  1  0  0  0  0
  1  3  1  0  0  0  0
  1  7  1  0  0  0  0
  1  2  2  0  0  0  0
 35 36  1  0  0  0  0
 36 44  1  0  0  0  0
 36 37  2  0  0  0  0
  8  9  1  0  0  0  0
  9 17  1  0  0  0  0
  9 10  2  0  0  0  0
 18 19  1  0  0  0  0
 19 34  1  0  0  0  0
 19 20  2  0  0  0  0
 35 38  1  0  0  0  0
  8 11  1  0  0  0  0
 44 45  1  0  0  0  0
 18 21  1  0  0  0  0
 34 35  1  0  0  0  0
  7  8  1  0  0  0  0
 17 18  1  0  0  0  0
 24 31  1  0  0  0  0
 25 32  1  0  0  0  0
  3  4  1  0  0  0  0
  3  5  1  0  0  0  0
  3  6  1  0  0  0  0
 38 41  1  0  0  0  0
 38 42  1  0  0  0  0
 38 43  1  0  0  0  0
 11 14  1  0  0  0  0
 11 15  1  0  0  0  0
 11 16  1  0  0  0  0
 45 47  1  0  0  0  0
 45 48  1  0  0  0  0
 45 49  1  0  0  0  0
 21 29  1  0  0  0  0
 21 30  1  0  0  0  0
 35 40  1  0  0  0  0
  8 13  1  0  0  0  0
 18 28  1  0  0  0  0
 26 33  1  0  0  0  0
 44 46  1  0  0  0  0
  7 12  1  0  0  0  0
 34 39  1  0  0  0  0
 17 27  1  0  0  0  0
M  END
$$$$

  -OEChem-05262214473D

 49 49  0     1  0  0  0  0  0999 V2000
   -1.6183    0.5613    3.8201 C   0  0  0  0  0  0  0  0  0  0  0  0
   -0.6710   -0.0534    3.3444 O   0  0  0  0  0  0  0  0  0  0  0  0
   -2.0502    0.2789    5.2208 C   0  0  0  0  0  0  0  0  0  0  0  0
   -2.8099   -0.5175    5.2742 H   0  0  0  0  0  0  0  0  0  0  0  0
   -1.2190   -0.0687    5.8551 H   0  0  0  0  0  0  0  0  0  0  0  0
   -2.4882    1.1338    5.7604 H   0  0  0  0  0  0  0  0  0  0  0  0
   -2.3680    1.5337    3.1790 N   0  0  0  0  0  0  0  0  0  0  0  0
   -2.1212    1.9597    1.8266 C   0  0  2  0  0  0  0  0  0  0  0  0
   -0.7862    1.3744    1.3854 C   0  0  0  0  0  0  0  0  0  0  0  0
    0.0859    1.0216    2.1767 O   0  0  0  0  0  0  0  0  0  0  0  0
   -2.1124    3.4765    1.7171 C   0  0  0  0  0  0  0  0  0  0  0  0
   -3.1331    1.9695    3.6908 H   0  0  0  0  0  0  0  0  0  0  0  0
   -2.9253    1.5413    1.2115 H   0  0  0  0  0  0  0  0  0  0  0  0
   -1.3133    3.9138    2.3268 H   0  0  0  0  0  0  0  0  0  0  0  0
   -1.9529    3.7988    0.6829 H   0  0  0  0  0  0  0  0  0  0  0  0
   -3.0626    3.8977    2.0629 H   0  0  0  0  0  0  0  0  0  0  0  0
   -0.6635    1.3313    0.0020 N   0  0  0  0  0  0  0  0  0  0  0  0
    0.5138    0.8305   -0.6617 C   0  0  2  0  0  0  0  0  0  0  0  0
    0.8549    1.8124   -1.7769 C   0  0  0  0  0  0  0  0  0  0  0  0
    0.0107    2.5087   -2.3367 O   0  0  0  0  0  0  0  0  0  0  0  0
    0.3011   -0.5750   -1.2357 C   0  0  0  0  0  0  0  0  0  0  0  0
    0.0420   -1.6088   -0.1671 C   0  0  0  0  0  0  0  0  0  0  0  0
    1.0667   -2.0721    0.6196 N   0  0  0  0  0  0  0  0  0  0  0  0
   -1.1502   -2.2064    0.1677 C   0  0  0  0  0  0  0  0  0  0  0  0
    0.5021   -2.9434    1.4259 C   0  0  0  0  0  0  0  0  0  0  0  0
   -0.8395   -3.0590    1.1893 N   0  0  0  0  0  0  0  0  0  0  0  0
   -1.4467    1.6280   -0.5753 H   0  0  0  0  0  0  0  0  0  0  0  0
    1.3190    0.8385    0.0823 H   0  0  0  0  0  0  0  0  0  0  0  0
    1.1695   -0.8755   -1.8375 H   0  0  0  0  0  0  0  0  0  0  0  0
   -0.5476   -0.5805   -1.9323 H   0  0  0  0  0  0  0  0  0  0  0  0
   -2.1571   -2.1091   -0.2123 H   0  0  0  0  0  0  0  0  0  0  0  0
    1.0016   -3.5174    2.1936 H   0  0  0  0  0  0  0  0  0  0  0  0
   -1.4837   -3.6639    1.6809 H   0  0  0  0  0  0  0  0  0  0  0  0
    2.2181    1.8524   -2.0349 N   0  0  0  0  0  0  0  0  0  0  0  0
    2.8124    2.7165   -3.0294 C   0  0  2  0  0  0  0  0  0  0  0  0
    2.0426    2.5347   -4.3309 C   0  0  0  0  0  0  0  0  0  0  0  0
    1.3810    1.5302   -4.5842 O   0  0  0  0  0  0  0  0  0  0  0  0
    4.2882    2.4044   -3.2227 C   0  0  0  0  0  0  0  0  0  0  0  0
    2.8287    1.2438   -1.4979 H   0  0  0  0  0  0  0  0  0  0  0  0
    2.6874    3.7440   -2.6709 H   0  0  0  0  0  0  0  0  0  0  0  0
    4.4333    1.3789   -3.5816 H   0  0  0  0  0  0  0  0  0  0  0  0
    4.7437    3.0786   -3.9555 H   0  0  0  0  0  0  0  0  0  0  0  0
    4.8350    2.5067   -2.2791 H   0  0  0  0  0  0  0  0  0  0  0  0
    2.2164    3.6075   -5.1941 N   0  0  0  0  0  0  0  0  0  0  0  0
    1.5987    3.6667   -6.4983 C   0  0  0  0  0  0  0  0  0  0  0  0
    2.7668    4.4065   -4.8937 H   0  0  0  0  0  0  0  0  0  0  0  0
    2.2886    3.2563   -7.2504 H   0  0  0  0  0  0  0  0  0  0  0  0
    0.6706    3.0762   -6.4915 H   0  0  0  0  0  0  0  0  0  0  0  0
    1.3659    4.7127   -6.7465 H   0  0  0  0  0  0  0  0  0  0  0  0
 22 24  2  0  0  0  0
 24 26  1  0  0  0  0
 23 25  2  0  0  0  0
 25 26  1  0  0  0  0
 21 22  1  0  0  0  0
 22 23  1  0  0  0  0
  1  3  1  0  0  0  0
  1  7  1  0  0  0  0
  1  2  2  0  0  0  0
 35 36  1  0  0  0  0
 36 44  1  0  0  0  0
 36 37  2  0  0  0  0
  8  9  1  0  0  0  0
  9 17  1  0  0  0  0
  9 10  2  0  0  0  0
 18 19  1  0  0  0  0
 19 34  1  0  0  0  0
 19 20  2  0  0  0  0
 35 38  1  0  0  0  0
  8 11  1  0  0  0  0
 44 45  1  0  0  0  0
 18 21  1  0  0  0  0
 34 35  1  0  0  0  0
  7  8  1  0  0  0  0
 17 18  1  0  0  0  0
 24 31  1  0  0  0  0
 25 32  1  0  0  0  0
  3  4  1  0  0  0  0
  3  5  1  0  0  0  0
  3  6  1  0  0  0  0
 38 41  1  0  0  0  0
 38 42  1  0  0  0  0
 38 43  1  0  0  0  0
 11 14  1  0  0  0  0
 11 15  1  0  0  0  0
 11 16  1  0  0  0  0
 45 47  1  0  0  0  0
 45 48  1  0  0  0  0
 45 49  1  0  0  0  0
 21 29  1  0  0  0  0
 21 30  1  0  0  0  0
 35 40  1  0  0  0  0
  8 13  1  0  0  0  0
 18 28  1  0  0  0  0
 26 33  1  0  0  0  0
 44 46  1  0  0  0  0
  7 12  1  0  0  0  0
 34 39  1  0  0  0  0
 17 27  1  0  0  0  0
M  END
$$$$

  -OEChem-05262214473D

 49 49  0     1  0  0  0  0  0999 V2000
   -1.6183    0.5613    3.8201 C   0  0  0  0  0  0  0  0  0  0  0  0
   -0.6710   -0.0534    3.3444 O   0  0  0  0  0  0  0  0  0  0  0  0
   -2.0502    0.2789    5.2208 C   0  0  0  0  0  0  0  0  0  0  0  0
   -2.8099   -0.5175    5.2742 H   0  0  0  0  0  0  0  0  0  0  0  0
   -1.2190   -0.0687    5.8551 H   0  0  0  0  0  0  0  0  0  0  0  0
   -2.4882    1.1338    5.7604 H   0  0  0  0  0  0  0  0  0  0  0  0
   -2.3680    1.5337    3.1790 N   0  0  0  0  0  0  0  0  0  0  0  0
   -2.1212    1.9597    1.8266 C   0  0  2  0  0  0  0  0  0  0  0  0
   -0.7862    1.3744    1.3854 C   0  0  0  0  0  0  0  0  0  0  0  0
    0.0859    1.0216    2.1767 O   0  0  0  0  0  0  0  0  0  0  0  0
   -2.1124    3.4765    1.7171 C   0  0  0  0  0  0  0  0  0  0  0  0
   -3.1331    1.9695    3.6908 H   0  0  0  0  0  0  0  0  0  0  0  0
   -2.9253    1.5413    1.2115 H   0  0  0  0  0  0  0  0  0  0  0  0
   -1.3133    3.9138    2.3268 H   0  0  0  0  0  0  0  0  0  0  0  0
   -1.9529    3.7988    0.6829 H   0  0  0  0  0  0  0  0  0  0  0  0
   -3.0626    3.8977    2.0629 H   0  0  0  0  0  0  0  0  0  0  0  0
   -0.6635    1.3313    0.0020 N   0  0  0  0  0  0  0  0  0  0  0  0
    0.5138    0.8305   -0.6617 C   0  0  2  0  0  0  0  0  0  0  0  0
    0.8549    1.8124   -1.7769 C   0  0  0  0  0  0  0  0  0  0  0  0
    0.0831    2.6919   -2.1533 O   0  0  0  0  0  0  0  0  0  0  0  0
    0.3011   -0.5750   -1.2357 C   0  0  0  0  0  0  0  0  0  0  0  0
    0.0420   -1.6088   -0.1671 C   0  0  0  0  0  0  0  0  0  0  0  0
    1.0667   -2.0721    0.6196 N   0  0  0  0  0  0  0  0  0  0  0  0
   -1.1502   -2.2064    0.1677 C   0  0  0  0  0  0  0  0  0  0  0  0
    0.5021   -2.9434    1.4259 C   0  0  0  0  0  0  0  0  0  0  0  0
   -0.8395   -3.0590    1.1893 N   0  0  0  0  0  0  0  0  0  0  0  0
   -1.4467    1.6280   -0.5753 H   0  0  0  0  0  0  0  0  0  0  0  0
    1.3190    0.8385    0.0823 H   0  0  0  0  0  0  0  0  0  0  0  0
    1.1695   -0.8755   -1.8375 H   0  0  0  0  0  0  0  0  0  0  0  0
   -0.5476   -0.5805   -1.9323 H   0  0  0  0  0  0  0  0  0  0  0  0
   -2.1571   -2.1091   -0.2123 H   0  0  0  0  0  0  0  0  0  0  0  0
    1.0016   -3.5174    2.1936 H   0  0  0  0  0  0  0  0  0  0  0  0
   -1.4837   -3.6639    1.6809 H   0  0  0  0  0  0  0  0  0  0  0  0
    2.1401    1.6193   -2.2640 N   0  0  0  0  0  0  0  0  0  0  0  0
    2.7229    2.4301   -3.3089 C   0  0  2  0  0  0  0  0  0  0  0  0
    1.7330    2.4902   -4.4648 C   0  0  0  0  0  0  0  0  0  0  0  0
    0.8568    1.6465   -4.6422 O   0  0  0  0  0  0  0  0  0  0  0  0
    4.0591    1.8664   -3.7665 C   0  0  0  0  0  0  0  0  0  0  0  0
    2.6993    0.8705   -1.8661 H   0  0  0  0  0  0  0  0  0  0  0  0
    2.8593    3.4337   -2.8916 H   0  0  0  0  0  0  0  0  0  0  0  0
    3.9425    0.8611   -4.1876 H   0  0  0  0  0  0  0  0  0  0  0  0
    4.5127    2.4973   -4.5379 H   0  0  0  0  0  0  0  0  0  0  0  0
    4.7601    1.7960   -2.9278 H   0  0  0  0  0  0  0  0  0  0  0  0
    1.9704    3.5734   -5.2994 N   0  0  0  0  0  0  0  0  0  0  0  0
    1.1740    3.8418   -6.4741 C   0  0  0  0  0  0  0  0  0  0  0  0
    2.7066    4.2327   -5.0651 H   0  0  0  0  0  0  0  0  0  0  0  0
    1.6408    3.3680   -7.3502 H   0  0  0  0  0  0  0  0  0  0  0  0
    0.1624    3.4337   -6.3321 H   0  0  0  0  0  0  0  0  0  0  0  0
    1.1120    4.9282   -6.6344 H   0  0  0  0  0  0  0  0  0  0  0  0
 22 24  2  0  0  0  0
 24 26  1  0  0  0  0
 23 25  2  0  0  0  0
 25 26  1  0  0  0  0
 21 22  1  0  0  0  0
 22 23  1  0  0  0  0
  1  3  1  0  0  0  0
  1  7  1  0  0  0  0
  1  2  2  0  0  0  0
 35 36  1  0  0  0  0
 36 44  1  0  0  0  0
 36 37  2  0  0  0  0
  8  9  1  0  0  0  0
  9 17  1  0  0  0  0
  9 10  2  0  0  0  0
 18 19  1  0  0  0  0
 19 34  1  0  0  0  0
 19 20  2  0  0  0  0
 35 38  1  0  0  0  0
  8 11  1  0  0  0  0
 44 45  1  0  0  0  0
 18 21  1  0  0  0  0
 34 35  1  0  0  0  0
  7  8  1  0  0  0  0
 17 18  1  0  0  0  0
 24 31  1  0  0  0  0
 25 32  1  0  0  0  0
  3  4  1  0  0  0  0
  3  5  1  0  0  0  0
  3  6  1  0  0  0  0
 38 41  1  0  0  0  0
 38 42  1  0  0  0  0
 38 43  1  0  0  0  0
 11 14  1  0  0  0  0
 11 15  1  0  0  0  0
 11 16  1  0  0  0  0
 45 47  1  0  0  0  0
 45 48  1  0  0  0  0
 45 49  1  0  0  0  0
 21 29  1  0  0  0  0
 21 30  1  0  0  0  0
 35 40  1  0  0  0  0
  8 13  1  0  0  0  0
 18 28  1  0  0  0  0
 26 33  1  0  0  0  0
 44 46  1  0  0  0  0
  7 12  1  0  0  0  0
 34 39  1  0  0  0  0
 17 27  1  0  0  0  0
M  END
$$$$

  -OEChem-05262214473D

 49 49  0     1  0  0  0  0  0999 V2000
   -1.6183    0.5613    3.8201 C   0  0  0  0  0  0  0  0  0  0  0  0
   -0.6710   -0.0534    3.3444 O   0  0  0  0  0  0  0  0  0  0  0  0
   -2.0502    0.2789    5.2208 C   0  0  0  0  0  0  0  0  0  0  0  0
   -2.8099   -0.5175    5.2742 H   0  0  0  0  0  0  0  0  0  0  0  0
   -1.2190   -0.0687    5.8551 H   0  0  0  0  0  0  0  0  0  0  0  0
   -2.4882    1.1338    5.7604 H   0  0  0  0  0  0  0  0  0  0  0  0
   -2.3680    1.5337    3.1790 N   0  0  0  0  0  0  0  0  0  0  0  0
   -2.1212    1.9597    1.8266 C   0  0  2  0  0  0  0  0  0  0  0  0
   -0.7862    1.3744    1.3854 C   0  0  0  0  0  0  0  0  0  0  0  0
    0.0859    1.0216    2.1767 O   0  0  0  0  0  0  0  0  0  0  0  0
   -2.1124    3.4765    1.7171 C   0  0  0  0  0  0  0  0  0  0  0  0
   -3.1331    1.9695    3.6908 H   0  0  0  0  0  0  0  0  0  0  0  0
   -2.9253    1.5413    1.2115 H   0  0  0  0  0  0  0  0  0  0  0  0
   -1.3133    3.9138    2.3268 H   0  0  0  0  0  0  0  0  0  0  0  0
   -1.9529    3.7988    0.6829 H   0  0  0  0  0  0  0  0  0  0  0  0
   -3.0626    3.8977    2.0629 H   0  0  0  0  0  0  0  0  0  0  0  0
   -0.6635    1.3313    0.0020 N   0  0  0  0  0  0  0  0  0  0  0  0
    0.5138    0.8305   -0.6617 C   0  0  2  0  0  0  0  0  0  0  0  0
    1.0731    1.9687   -1.5077 C   0  0  0  0  0  0  0  0  0  0  0  0
    0.5774    3.0933   -1.5282 O   0  0  0  0  0  0  0  0  0  0  0  0
    0.2086   -0.3873   -1.5415 C   0  0  0  0  0  0  0  0  0  0  0  0
   -0.2706   -1.5768   -0.7458 C   0  0  0  0  0  0  0  0  0  0  0  0
    0.6109   -2.3203   -0.0017 N   0  0  0  0  0  0  0  0  0  0  0  0
   -1.5491   -2.0718   -0.6415 C   0  0  0  0  0  0  0  0  0  0  0  0
   -0.1255   -3.2588    0.5505 C   0  0  0  0  0  0  0  0  0  0  0  0
   -1.4402   -3.1493    0.1917 N   0  0  0  0  0  0  0  0  0  0  0  0
   -1.4467    1.6280   -0.5753 H   0  0  0  0  0  0  0  0  0  0  0  0
    1.2343    0.5813    0.1262 H   0  0  0  0  0  0  0  0  0  0  0  0
    1.0961   -0.6667   -2.1254 H   0  0  0  0  0  0  0  0  0  0  0  0
   -0.5596   -0.1397   -2.2860 H   0  0  0  0  0  0  0  0  0  0  0  0
   -2.4949   -1.7694   -1.0678 H   0  0  0  0  0  0  0  0  0  0  0  0
    0.2266   -4.0381    1.2117 H   0  0  0  0  0  0  0  0  0  0  0  0
   -2.1939   -3.7544    0.4893 H   0  0  0  0  0  0  0  0  0  0  0  0
    2.2181    1.5909   -2.1952 N   0  0  0  0  0  0  0  0  0  0  0  0
    2.9610    2.4867   -3.0522 C   0  0  2  0  0  0  0  0  0  0  0  0
    1.9764    3.1484   -4.0073 C   0  0  0  0  0  0  0  0  0  0  0  0
    0.8825    2.6619   -4.2863 O   0  0  0  0  0  0  0  0  0  0  0  0
    4.0468    1.7465   -3.8177 C   0  0  0  0  0  0  0  0  0  0  0  0
    2.5506    0.6368   -2.0909 H   0  0  0  0  0  0  0  0  0  0  0  0
    3.4082    3.2472   -2.4030 H   0  0  0  0  0  0  0  0  0  0  0  0
    3.6178    0.9803   -4.4738 H   0  0  0  0  0  0  0  0  0  0  0  0
    4.6272    2.4313   -4.4449 H   0  0  0  0  0  0  0  0  0  0  0  0
    4.7369    1.2465   -3.1297 H   0  0  0  0  0  0  0  0  0  0  0  0
    2.4807    4.3244   -4.5446 N   0  0  0  0  0  0  0  0  0  0  0  0
    1.7412    5.1308   -5.4874 C   0  0  0  0  0  0  0  0  0  0  0  0
    3.3895    4.6626   -4.2421 H   0  0  0  0  0  0  0  0  0  0  0  0
    2.0029    4.8299   -6.5126 H   0  0  0  0  0  0  0  0  0  0  0  0
    0.6627    4.9859   -5.3269 H   0  0  0  0  0  0  0  0  0  0  0  0
    1.9946    6.1912   -5.3407 H   0  0  0  0  0  0  0  0  0  0  0  0
 22 24  2  0  0  0  0
 24 26  1  0  0  0  0
 23 25  2  0  0  0  0
 25 26  1  0  0  0  0
 21 22  1  0  0  0  0
 22 23  1  0  0  0  0
  1  3  1  0  0  0  0
  1  7  1  0  0  0  0
  1  2  2  0  0  0  0
 35 36  1  0  0  0  0
 36 44  1  0  0  0  0
 36 37  2  0  0  0  0
  8  9  1  0  0  0  0
  9 17  1  0  0  0  0
  9 10  2  0  0  0  0
 18 19  1  0  0  0  0
 19 34  1  0  0  0  0
 19 20  2  0  0  0  0
 35 38  1  0  0  0  0
  8 11  1  0  0  0  0
 44 45  1  0  0  0  0
 18 21  1  0  0  0  0
 34 35  1  0  0  0  0
  7  8  1  0  0  0  0
 17 18  1  0  0  0  0
 24 31  1  0  0  0  0
 25 32  1  0  0  0  0
  3  4  1  0  0  0  0
  3  5  1  0  0  0  0
  3  6  1  0  0  0  0
 38 41  1  0  0  0  0
 38 42  1  0  0  0  0
 38 43  1  0  0  0  0
 11 14  1  0  0  0  0
 11 15  1  0  0  0  0
 11 16  1  0  0  0  0
 45 47  1  0  0  0  0
 45 48  1  0  0  0  0
 45 49  1  0  0  0  0
 21 29  1  0  0  0  0
 21 30  1  0  0  0  0
 35 40  1  0  0  0  0
  8 13  1  0  0  0  0
 18 28  1  0  0  0  0
 26 33  1  0  0  0  0
 44 46  1  0  0  0  0
  7 12  1  0  0  0  0
 34 39  1  0  0  0  0
 17 27  1  0  0  0  0
M  END
$$$$

  -OEChem-05262214473D

 49 49  0     1  0  0  0  0  0999 V2000
   -1.6183    0.5613    3.8201 C   0  0  0  0  0  0  0  0  0  0  0  0
   -0.6710   -0.0534    3.3444 O   0  0  0  0  0  0  0  0  0  0  0  0
   -2.0502    0.2789    5.2208 C   0  0  0  0  0  0  0  0  0  0  0  0
   -2.8099   -0.5175    5.2742 H   0  0  0  0  0  0  0  0  0  0  0  0
   -1.2190   -0.0687    5.8551 H   0  0  0  0  0  0  0  0  0  0  0  0
   -2.4882    1.1338    5.7604 H   0  0  0  0  0  0  0  0  0  0  0  0
   -2.3680    1.5337    3.1790 N   0  0  0  0  0  0  0  0  0  0  0  0
   -2.1212    1.9597    1.8266 C   0  0  2  0  0  0  0  0  0  0  0  0
   -0.7862    1.3744    1.3854 C   0  0  0  0  0  0  0  0  0  0  0  0
    0.0859    1.0216    2.1767 O   0  0  0  0  0  0  0  0  0  0  0  0
   -2.1124    3.4765    1.7171 C   0  0  0  0  0  0  0  0  0  0  0  0
   -3.1331    1.9695    3.6908 H   0  0  0  0  0  0  0  0  0  0  0  0
   -2.9253    1.5413    1.2115 H   0  0  0  0  0  0  0  0  0  0  0  0
   -1.3133    3.9138    2.3268 H   0  0  0  0  0  0  0  0  0  0  0  0
   -1.9529    3.7988    0.6829 H   0  0  0  0  0  0  0  0  0  0  0  0
   -3.0626    3.8977    2.0629 H   0  0  0  0  0  0  0  0  0  0  0  0
   -0.6635    1.3313    0.0020 N   0  0  0  0  0  0  0  0  0  0  0  0
    0.5138    0.8305   -0.6617 C   0  0  2  0  0  0  0  0  0  0  0  0
    1.0731    1.9687   -1.5077 C   0  0  0  0  0  0  0  0  0  0  0  0
    0.7602    3.1451   -1.3376 O   0  0  0  0  0  0  0  0  0  0  0  0
    0.2086   -0.3873   -1.5415 C   0  0  0  0  0  0  0  0  0  0  0  0
   -0.2706   -1.5768   -0.7458 C   0  0  0  0  0  0  0  0  0  0  0  0
    0.6109   -2.3203   -0.0017 N   0  0  0  0  0  0  0  0  0  0  0  0
   -1.5491   -2.0718   -0.6415 C   0  0  0  0  0  0  0  0  0  0  0  0
   -0.1255   -3.2588    0.5505 C   0  0  0  0  0  0  0  0  0  0  0  0
   -1.4402   -3.1493    0.1917 N   0  0  0  0  0  0  0  0  0  0  0  0
   -1.4467    1.6280   -0.5753 H   0  0  0  0  0  0  0  0  0  0  0  0
    1.2343    0.5813    0.1262 H   0  0  0  0  0  0  0  0  0  0  0  0
    1.0961   -0.6667   -2.1254 H   0  0  0  0  0  0  0  0  0  0  0  0
   -0.5596   -0.1397   -2.2860 H   0  0  0  0  0  0  0  0  0  0  0  0
   -2.4949   -1.7694   -1.0678 H   0  0  0  0  0  0  0  0  0  0  0  0
    0.2266   -4.0381    1.2117 H   0  0  0  0  0  0  0  0  0  0  0  0
   -2.1939   -3.7544    0.4893 H   0  0  0  0  0  0  0  0  0  0  0  0
    1.9984    1.5178   -2.4388 N   0  0  0  0  0  0  0  0  0  0  0  0
    2.6968    2.3938   -3.3519 C   0  0  2  0  0  0  0  0  0  0  0  0
    1.6645    3.2820   -4.0338 C   0  0  0  0  0  0  0  0  0  0  0  0
    0.4765    2.9801   -4.1266 O   0  0  0  0  0  0  0  0  0  0  0  0
    3.4948    1.6025   -4.3765 C   0  0  0  0  0  0  0  0  0  0  0  0
    2.1947    0.5221   -2.4805 H   0  0  0  0  0  0  0  0  0  0  0  0
    3.3681    3.0120   -2.7459 H   0  0  0  0  0  0  0  0  0  0  0  0
    2.8390    0.9770   -4.9931 H   0  0  0  0  0  0  0  0  0  0  0  0
    4.0459    2.2674   -5.0496 H   0  0  0  0  0  0  0  0  0  0  0  0
    4.2162    0.9423   -3.8832 H   0  0  0  0  0  0  0  0  0  0  0  0
    2.2338    4.4311   -4.5643 N   0  0  0  0  0  0  0  0  0  0  0  0
    1.4638    5.4275   -5.2717 C   0  0  0  0  0  0  0  0  0  0  0  0
    3.2238    4.6092   -4.4235 H   0  0  0  0  0  0  0  0  0  0  0  0
    1.4808    5.2078   -6.3494 H   0  0  0  0  0  0  0  0  0  0  0  0
    0.4248    5.4122   -4.9108 H   0  0  0  0  0  0  0  0  0  0  0  0
    1.8992    6.4218   -5.0934 H   0  0  0  0  0  0  0  0  0  0  0  0
 22 24  2  0  0  0  0
 24 26  1  0  0  0  0
 23 25  2  0  0  0  0
 25 26  1  0  0  0  0
 21 22  1  0  0  0  0
 22 23  1  0  0  0  0
  1  3  1  0  0  0  0
  1  7  1  0  0  0  0
  1  2  2  0  0  0  0
 35 36  1  0  0  0  0
 36 44  1  0  0  0  0
 36 37  2  0  0  0  0
  8  9  1  0  0  0  0
  9 17  1  0  0  0  0
  9 10  2  0  0  0  0
 18 19  1  0  0  0  0
 19 34  1  0  0  0  0
 19 20  2  0  0  0  0
 35 38  1  0  0  0  0
  8 11  1  0  0  0  0
 44 45  1  0  0  0  0
 18 21  1  0  0  0  0
 34 35  1  0  0  0  0
  7  8  1  0  0  0  0
 17 18  1  0  0  0  0
 24 31  1  0  0  0  0
 25 32  1  0  0  0  0
  3  4  1  0  0  0  0
  3  5  1  0  0  0  0
  3  6  1  0  0  0  0
 38 41  1  0  0  0  0
 38 42  1  0  0  0  0
 38 43  1  0  0  0  0
 11 14  1  0  0  0  0
 11 15  1  0  0  0  0
 11 16  1  0  0  0  0
 45 47  1  0  0  0  0
 45 48  1  0  0  0  0
 45 49  1  0  0  0  0
 21 29  1  0  0  0  0
 21 30  1  0  0  0  0
 35 40  1  0  0  0  0
  8 13  1  0  0  0  0
 18 28  1  0  0  0  0
 26 33  1  0  0  0  0
 44 46  1  0  0  0  0
  7 12  1  0  0  0  0
 34 39  1  0  0  0  0
 17 27  1  0  0  0  0
M  END
$$$$

  -OEChem-05262214473D

 49 49  0     1  0  0  0  0  0999 V2000
   -1.6183    0.5613    3.8201 C   0  0  0  0  0  0  0  0  0  0  0  0
   -0.6710   -0.0534    3.3444 O   0  0  0  0  0  0  0  0  0  0  0  0
   -2.0502    0.2789    5.2208 C   0  0  0  0  0  0  0  0  0  0  0  0
   -2.8099   -0.5175    5.2742 H   0  0  0  0  0  0  0  0  0  0  0  0
   -1.2190   -0.0687    5.8551 H   0  0  0  0  0  0  0  0  0  0  0  0
   -2.4882    1.1338    5.7604 H   0  0  0  0  0  0  0  0  0  0  0  0
   -2.3680    1.5337    3.1790 N   0  0  0  0  0  0  0  0  0  0  0  0
   -2.1212    1.9597    1.8266 C   0  0  2  0  0  0  0  0  0  0  0  0
   -0.7862    1.3744    1.3854 C   0  0  0  0  0  0  0  0  0  0  0  0
    0.0859    1.0216    2.1767 O   0  0  0  0  0  0  0  0  0  0  0  0
   -2.1124    3.4765    1.7171 C   0  0  0  0  0  0  0  0  0  0  0  0
   -3.1331    1.9695    3.6908 H   0  0  0  0  0  0  0  0  0  0  0  0
   -2.9253    1.5413    1.2115 H   0  0  0  0  0  0  0  0  0  0  0  0
   -1.3133    3.9138    2.3268 H   0  0  0  0  0  0  0  0  0  0  0  0
   -1.9529    3.7988    0.6829 H   0  0  0  0  0  0  0  0  0  0  0  0
   -3.0626    3.8977    2.0629 H   0  0  0  0  0  0  0  0  0  0  0  0
   -0.6635    1.3313    0.0020 N   0  0  0  0  0  0  0  0  0  0  0  0
    0.5138    0.8305   -0.6617 C   0  0  2  0  0  0  0  0  0  0  0  0
    1.0731    1.9687   -1.5077 C   0  0  0  0  0  0  0  0  0  0  0  0
    0.9810    3.1509   -1.1838 O   0  0  0  0  0  0  0  0  0  0  0  0
    0.2086   -0.3873   -1.5415 C   0  0  0  0  0  0  0  0  0  0  0  0
   -0.2706   -1.5768   -0.7458 C   0  0  0  0  0  0  0  0  0  0  0  0
    0.6109   -2.3203   -0.0017 N   0  0  0  0  0  0  0  0  0  0  0  0
   -1.5491   -2.0718   -0.6415 C   0  0  0  0  0  0  0  0  0  0  0  0
   -0.1255   -3.2588    0.5505 C   0  0  0  0  0  0  0  0  0  0  0  0
   -1.4402   -3.1493    0.1917 N   0  0  0  0  0  0  0  0  0  0  0  0
   -1.4467    1.6280   -0.5753 H   0  0  0  0  0  0  0  0  0  0  0  0
    1.2343    0.5813    0.1262 H   0  0  0  0  0  0  0  0  0  0  0  0
    1.0961   -0.6667   -2.1254 H   0  0  0  0  0  0  0  0  0  0  0  0
   -0.5596   -0.1397   -2.2860 H   0  0  0  0  0  0  0  0  0  0  0  0
   -2.4949   -1.7694   -1.0678 H   0  0  0  0  0  0  0  0  0  0  0  0
    0.2266   -4.0381    1.2117 H   0  0  0  0  0  0  0  0  0  0  0  0
   -2.1939   -3.7544    0.4893 H   0  0  0  0  0  0  0  0  0  0  0  0
    1.7287    1.5019   -2.6385 N   0  0  0  0  0  0  0  0  0  0  0  0
    2.3704    2.3705   -3.5990 C   0  0  2  0  0  0  0  0  0  0  0  0
    1.3774    3.4583   -3.9864 C   0  0  0  0  0  0  0  0  0  0  0  0
    0.1609    3.3307   -3.8636 O   0  0  0  0  0  0  0  0  0  0  0  0
    2.8329    1.5957   -4.8232 C   0  0  0  0  0  0  0  0  0  0  0  0
    1.7591    0.4994   -2.7991 H   0  0  0  0  0  0  0  0  0  0  0  0
    3.2294    2.8231   -3.0918 H   0  0  0  0  0  0  0  0  0  0  0  0
    1.9859    1.1350   -5.3446 H   0  0  0  0  0  0  0  0  0  0  0  0
    3.3441    2.2500   -5.5370 H   0  0  0  0  0  0  0  0  0  0  0  0
    3.5240    0.7948   -4.5393 H   0  0  0  0  0  0  0  0  0  0  0  0
    2.0068    4.5716   -4.5255 N   0  0  0  0  0  0  0  0  0  0  0  0
    1.2801    5.7335   -4.9815 C   0  0  0  0  0  0  0  0  0  0  0  0
    3.0211    4.5986   -4.5718 H   0  0  0  0  0  0  0  0  0  0  0  0
    1.0622    5.6323   -6.0549 H   0  0  0  0  0  0  0  0  0  0  0  0
    0.3367    5.8185   -4.4224 H   0  0  0  0  0  0  0  0  0  0  0  0
    1.8880    6.6349   -4.8142 H   0  0  0  0  0  0  0  0  0  0  0  0
 22 24  2  0  0  0  0
 24 26  1  0  0  0  0
 23 25  2  0  0  0  0
 25 26  1  0  0  0  0
 21 22  1  0  0  0  0
 22 23  1  0  0  0  0
  1  3  1  0  0  0  0
  1  7  1  0  0  0  0
  1  2  2  0  0  0  0
 35 36  1  0  0  0  0
 36 44  1  0  0  0  0
 36 37  2  0  0  0  0
  8  9  1  0  0  0  0
  9 17  1  0  0  0  0
  9 10  2  0  0  0  0
 18 19  1  0  0  0  0
 19 34  1  0  0  0  0
 19 20  2  0  0  0  0
 35 38  1  0  0  0  0
  8 11  1  0  0  0  0
 44 45  1  0  0  0  0
 18 21  1  0  0  0  0
 34 35  1  0  0  0  0
  7  8  1  0  0  0  0
 17 18  1  0  0  0  0
 24 31  1  0  0  0  0
 25 32  1  0  0  0  0
  3  4  1  0  0  0  0
  3  5  1  0  0  0  0
  3  6  1  0  0  0  0
 38 41  1  0  0  0  0
 38 42  1  0  0  0  0
 38 43  1  0  0  0  0
 11 14  1  0  0  0  0
 11 15  1  0  0  0  0
 11 16  1  0  0  0  0
 45 47  1  0  0  0  0
 45 48  1  0  0  0  0
 45 49  1  0  0  0  0
 21 29  1  0  0  0  0
 21 30  1  0  0  0  0
 35 40  1  0  0  0  0
  8 13  1  0  0  0  0
 18 28  1  0  0  0  0
 26 33  1  0  0  0  0
 44 46  1  0  0  0  0
  7 12  1  0  0  0  0
 34 39  1  0  0  0  0
 17 27  1  0  0  0  0
M  END
$$$$

  -OEChem-05262214473D

 49 49  0     1  0  0  0  0  0999 V2000
   -1.6183    0.5613    3.8201 C   0  0  0  0  0  0  0  0  0  0  0  0
   -0.6710   -0.0534    3.3444 O   0  0  0  0  0  0  0  0  0  0  0  0
   -2.0502    0.2789    5.2208 C   0  0  0  0  0  0  0  0  0  0  0  0
   -2.8099   -0.5175    5.2742 H   0  0  0  0  0  0  0  0  0  0  0  0
   -1.2190   -0.0687    5.8551 H   0  0  0  0  0  0  0  0  0  0  0  0
   -2.4882    1.1338    5.7604 H   0  0  0  0  0  0  0  0  0  0  0  0
   -2.3680    1.5337    3.1790 N   0  0  0  0  0  0  0  0  0  0  0  0
   -2.1212    1.9597    1.8266 C   0  0  2  0  0  0  0  0  0  0  0  0
   -0.7862    1.3744    1.3854 C   0  0  0  0  0  0  0  0  0  0  0  0
    0.0859    1.0216    2.1767 O   0  0  0  0  0  0  0  0  0  0  0  0
   -2.1124    3.4765    1.7171 C   0  0  0  0  0  0  0  0  0  0  0  0
   -3.1331    1.9695    3.6908 H   0  0  0  0  0  0  0  0  0  0  0  0
   -2.9253    1.5413    1.2115 H   0  0  0  0  0  0  0  0  0  0  0  0
   -1.3133    3.9138    2.3268 H   0  0  0  0  0  0  0  0  0  0  0  0
   -1.9529    3.7988    0.6829 H   0  0  0  0  0  0  0  0  0  0  0  0
   -3.0626    3.8977    2.0629 H   0  0  0  0  0  0  0  0  0  0  0  0
   -0.6635    1.3313    0.0020 N   0  0  0  0  0  0  0  0  0  0  0  0
    0.5138    0.8305   -0.6617 C   0  0  2  0  0  0  0  0  0  0  0  0
    1.0731    1.9687   -1.5077 C   0  0  0  0  0  0  0  0  0  0  0  0
    1.2249    3.1101   -1.0775 O   0  0  0  0  0  0  0  0  0  0  0  0
    0.2086   -0.3873   -1.5415 C   0  0  0  0  0  0  0  0  0  0  0  0
   -0.2706   -1.5768   -0.7458 C   0  0  0  0  0  0  0  0  0  0  0  0
    0.6109   -2.3203   -0.0017 N   0  0  0  0  0  0  0  0  0  0  0  0
   -1.5491   -2.0718   -0.6415 C   0  0  0  0  0  0  0  0  0  0  0  0
   -0.1255   -3.2588    0.5505 C   0  0  0  0  0  0  0  0  0  0  0  0
   -1.4402   -3.1493    0.1917 N   0  0  0  0  0  0  0  0  0  0  0  0
   -1.4467    1.6280   -0.5753 H   0  0  0  0  0  0  0  0  0  0  0  0
    1.2343    0.5813    0.1262 H   0  0  0  0  0  0  0  0  0  0  0  0
    1.0961   -0.6667   -2.1254 H   0  0  0  0  0  0  0  0  0  0  0  0
   -0.5596   -0.1397   -2.2860 H   0  0  0  0  0  0  0  0  0  0  0  0
   -2.4949   -1.7694   -1.0678 H   0  0  0  0  0  0  0  0  0  0  0  0
    0.2266   -4.0381    1.2117 H   0  0  0  0  0  0  0  0  0  0  0  0
   -2.1939   -3.7544    0.4893 H   0  0  0  0  0  0  0  0  0  0  0  0
    1.4273    1.5443   -2.7808 N   0  0  0  0  0  0  0  0  0  0  0  0
    2.0040    2.4183   -3.7769 C   0  0  2  0  0  0  0  0  0  0  0  0
    1.1345    3.6653   -3.8684 C   0  0  0  0  0  0  0  0  0  0  0  0
   -0.0428    3.6896   -3.5154 O   0  0  0  0  0  0  0  0  0  0  0  0
    2.1063    1.7267   -5.1274 C   0  0  0  0  0  0  0  0  0  0  0  0
    1.2735    0.5703   -3.0247 H   0  0  0  0  0  0  0  0  0  0  0  0
    3.0014    2.6935   -3.4170 H   0  0  0  0  0  0  0  0  0  0  0  0
    1.1167    1.4435   -5.5042 H   0  0  0  0  0  0  0  0  0  0  0  0
    2.5695    2.3803   -5.8739 H   0  0  0  0  0  0  0  0  0  0  0  0
    2.7074    0.8140   -5.0534 H   0  0  0  0  0  0  0  0  0  0  0  0
    1.8152    4.7361   -4.4308 N   0  0  0  0  0  0  0  0  0  0  0  0
    1.2027    6.0278   -4.6367 C   0  0  0  0  0  0  0  0  0  0  0  0
    2.7951    4.6316   -4.6769 H   0  0  0  0  0  0  0  0  0  0  0  0
    0.7758    6.0746   -5.6493 H   0  0  0  0  0  0  0  0  0  0  0  0
    0.4042    6.1773   -3.8950 H   0  0  0  0  0  0  0  0  0  0  0  0
    1.9617    6.8158   -4.5221 H   0  0  0  0  0  0  0  0  0  0  0  0
 22 24  2  0  0  0  0
 24 26  1  0  0  0  0
 23 25  2  0  0  0  0
 25 26  1  0  0  0  0
 21 22  1  0  0  0  0
 22 23  1  0  0  0  0
  1  3  1  0  0  0  0
  1  7  1  0  0  0  0
  1  2  2  0  0  0  0
 35 36  1  0  0  0  0
 36 44  1  0  0  0  0
 36 37  2  0  0  0  0
  8  9  1  0  0  0  0
  9 17  1  0  0  0  0
  9 10  2  0  0  0  0
 18 19  1  0  0  0  0
 19 34  1  0  0  0  0
 19 20  2  0  0  0  0
 35 38  1  0  0  0  0
  8 11  1  0  0  0  0
 44 45  1  0  0  0  0
 18 21  1  0  0  0  0
 34 35  1  0  0  0  0
  7  8  1  0  0  0  0
 17 18  1  0  0  0  0
 24 31  1  0  0  0  0
 25 32  1  0  0  0  0
  3  4  1  0  0  0  0
  3  5  1  0  0  0  0
  3  6  1  0  0  0  0
 38 41  1  0  0  0  0
 38 42  1  0  0  0  0
 38 43  1  0  0  0  0
 11 14  1  0  0  0  0
 11 15  1  0  0  0  0
 11 16  1  0  0  0  0
 45 47  1  0  0  0  0
 45 48  1  0  0  0  0
 45 49  1  0  0  0  0
 21 29  1  0  0  0  0
 21 30  1  0  0  0  0
 35 40  1  0  0  0  0
  8 13  1  0  0  0  0
 18 28  1  0  0  0  0
 26 33  1  0  0  0  0
 44 46  1  0  0  0  0
  7 12  1  0  0  0  0
 34 39  1  0  0  0  0
 17 27  1  0  0  0  0
M  END
$$$$

  -OEChem-05262214473D

 49 49  0     1  0  0  0  0  0999 V2000
   -1.6183    0.5613    3.8201 C   0  0  0  0  0  0  0  0  0  0  0  0
   -0.6710   -0.0534    3.3444 O   0  0  0  0  0  0  0  0  0  0  0  0
   -2.0502    0.2789    5.2208 C   0  0  0  0  0  0  0  0  0  0  0  0
   -2.8099   -0.5175    5.2742 H   0  0  0  0  0  0  0  0  0  0  0  0
   -1.2190   -0.0687    5.8551 H   0  0  0  0  0  0  0  0  0  0  0  0
   -2.4882    1.1338    5.7604 H   0  0  0  0  0  0  0  0  0  0  0  0
   -2.3680    1.5337    3.1790 N   0  0  0  0  0  0  0  0  0  0  0  0
   -2.1212    1.9597    1.8266 C   0  0  2  0  0  0  0  0  0  0  0  0
   -0.7862    1.3744    1.3854 C   0  0  0  0  0  0  0  0  0  0  0  0
    0.0859    1.0216    2.1767 O   0  0  0  0  0  0  0  0  0  0  0  0
   -2.1124    3.4765    1.7171 C   0  0  0  0  0  0  0  0  0  0  0  0
   -3.1331    1.9695    3.6908 H   0  0  0  0  0  0  0  0  0  0  0  0
   -2.9253    1.5413    1.2115 H   0  0  0  0  0  0  0  0  0  0  0  0
   -1.3133    3.9138    2.3268 H   0  0  0  0  0  0  0  0  0  0  0  0
   -1.9529    3.7988    0.6829 H   0  0  0  0  0  0  0  0  0  0  0  0
   -3.0626    3.8977    2.0629 H   0  0  0  0  0  0  0  0  0  0  0  0
   -0.6635    1.3313    0.0020 N   0  0  0  0  0  0  0  0  0  0  0  0
    0.5138    0.8305   -0.6617 C   0  0  2  0  0  0  0  0  0  0  0  0
    1.0731    1.9687   -1.5077 C   0  0  0  0  0  0  0  0  0  0  0  0
    1.4752    3.0256   -1.0257 O   0  0  0  0  0  0  0  0  0  0  0  0
    0.2086   -0.3873   -1.5415 C   0  0  0  0  0  0  0  0  0  0  0  0
   -0.2706   -1.5768   -0.7458 C   0  0  0  0  0  0  0  0  0  0  0  0
    0.6109   -2.3203   -0.0017 N   0  0  0  0  0  0  0  0  0  0  0  0
   -1.5491   -2.0718   -0.6415 C   0  0  0  0  0  0  0  0  0  0  0  0
   -0.1255   -3.2588    0.5505 C   0  0  0  0  0  0  0  0  0  0  0  0
   -1.4402   -3.1493    0.1917 N   0  0  0  0  0  0  0  0  0  0  0  0
   -1.4467    1.6280   -0.5753 H   0  0  0  0  0  0  0  0  0  0  0  0
    1.2343    0.5813    0.1262 H   0  0  0  0  0  0  0  0  0  0  0  0
    1.0961   -0.6667   -2.1254 H   0  0  0  0  0  0  0  0  0  0  0  0
   -0.5596   -0.1397   -2.2860 H   0  0  0  0  0  0  0  0  0  0  0  0
   -2.4949   -1.7694   -1.0678 H   0  0  0  0  0  0  0  0  0  0  0  0
    0.2266   -4.0381    1.2117 H   0  0  0  0  0  0  0  0  0  0  0  0
   -2.1939   -3.7544    0.4893 H   0  0  0  0  0  0  0  0  0  0  0  0
    1.1148    1.6420   -2.8560 N   0  0  0  0  0  0  0  0  0  0  0  0
    1.6226    2.5341   -3.8734 C   0  0  2  0  0  0  0  0  0  0  0  0
    0.9524    3.8890   -3.6879 C   0  0  0  0  0  0  0  0  0  0  0  0
   -0.1206    4.0325   -3.1055 O   0  0  0  0  0  0  0  0  0  0  0  0
    1.3644    1.9864   -5.2684 C   0  0  0  0  0  0  0  0  0  0  0  0
    0.7711    0.7299   -3.1421 H   0  0  0  0  0  0  0  0  0  0  0  0
    2.6997    2.6319   -3.6993 H   0  0  0  0  0  0  0  0  0  0  0  0
    0.2905    1.8815   -5.4612 H   0  0  0  0  0  0  0  0  0  0  0  0
    1.7749    2.6494   -6.0372 H   0  0  0  0  0  0  0  0  0  0  0  0
    1.8220    0.9987   -5.3902 H   0  0  0  0  0  0  0  0  0  0  0  0
    1.6720    4.9136   -4.2867 N   0  0  0  0  0  0  0  0  0  0  0  0
    1.2369    6.2905   -4.2607 C   0  0  0  0  0  0  0  0  0  0  0  0
    2.5612    4.7058   -4.7316 H   0  0  0  0  0  0  0  0  0  0  0  0
    0.6410    6.5044   -5.1602 H   0  0  0  0  0  0  0  0  0  0  0  0
    0.6230    6.4641   -3.3645 H   0  0  0  0  0  0  0  0  0  0  0  0
    2.1153    6.9521   -4.2371 H   0  0  0  0  0  0  0  0  0  0  0  0
 22 24  2  0  0  0  0
 24 26  1  0  0  0  0
 23 25  2  0  0  0  0
 25 26  1  0  0  0  0
 21 22  1  0  0  0  0
 22 23  1  0  0  0  0
  1  3  1  0  0  0  0
  1  7  1  0  0  0  0
  1  2  2  0  0  0  0
 35 36  1  0  0  0  0
 36 44  1  0  0  0  0
 36 37  2  0  0  0  0
  8  9  1  0  0  0  0
  9 17  1  0  0  0  0
  9 10  2  0  0  0  0
 18 19  1  0  0  0  0
 19 34  1  0  0  0  0
 19 20  2  0  0  0  0
 35 38  1  0  0  0  0
  8 11  1  0  0  0  0
 44 45  1  0  0  0  0
 18 21  1  0  0  0  0
 34 35  1  0  0  0  0
  7  8  1  0  0  0  0
 17 18  1  0  0  0  0
 24 31  1  0  0  0  0
 25 32  1  0  0  0  0
  3  4  1  0  0  0  0
  3  5  1  0  0  0  0
  3  6  1  0  0  0  0
 38 41  1  0  0  0  0
 38 42  1  0  0  0  0
 38 43  1  0  0  0  0
 11 14  1  0  0  0  0
 11 15  1  0  0  0  0
 11 16  1  0  0  0  0
 45 47  1  0  0  0  0
 45 48  1  0  0  0  0
 45 49  1  0  0  0  0
 21 29  1  0  0  0  0
 21 30  1  0  0  0  0
 35 40  1  0  0  0  0
  8 13  1  0  0  0  0
 18 28  1  0  0  0  0
 26 33  1  0  0  0  0
 44 46  1  0  0  0  0
  7 12  1  0  0  0  0
 34 39  1  0  0  0  0
 17 27  1  0  0  0  0
M  END
$$$$

  -OEChem-05262214473D

 49 49  0     1  0  0  0  0  0999 V2000
   -1.6183    0.5613    3.8201 C   0  0  0  0  0  0  0  0  0  0  0  0
   -0.6710   -0.0534    3.3444 O   0  0  0  0  0  0  0  0  0  0  0  0
   -2.0502    0.2789    5.2208 C   0  0  0  0  0  0  0  0  0  0  0  0
   -2.8099   -0.5175    5.2742 H   0  0  0  0  0  0  0  0  0  0  0  0
   -1.2190   -0.0687    5.8551 H   0  0  0  0  0  0  0  0  0  0  0  0
   -2.4882    1.1338    5.7604 H   0  0  0  0  0  0  0  0  0  0  0  0
   -2.3680    1.5337    3.1790 N   0  0  0  0  0  0  0  0  0  0  0  0
   -2.1212    1.9597    1.8266 C   0  0  2  0  0  0  0  0  0  0  0  0
   -0.7862    1.3744    1.3854 C   0  0  0  0  0  0  0  0  0  0  0  0
    0.0859    1.0216    2.1767 O   0  0  0  0  0  0  0  0  0  0  0  0
   -2.1124    3.4765    1.7171 C   0  0  0  0  0  0  0  0  0  0  0  0
   -3.1331    1.9695    3.6908 H   0  0  0  0  0  0  0  0  0  0  0  0
   -2.9253    1.5413    1.2115 H   0  0  0  0  0  0  0  0  0  0  0  0
   -1.3133    3.9138    2.3268 H   0  0  0  0  0  0  0  0  0  0  0  0
   -1.9529    3.7988    0.6829 H   0  0  0  0  0  0  0  0  0  0  0  0
   -3.0626    3.8977    2.0629 H   0  0  0  0  0  0  0  0  0  0  0  0
   -0.6635    1.3313    0.0020 N   0  0  0  0  0  0  0  0  0  0  0  0
    0.5138    0.8305   -0.6617 C   0  0  2  0  0  0  0  0  0  0  0  0
    1.0731    1.9687   -1.5077 C   0  0  0  0  0  0  0  0  0  0  0  0
    1.7148    2.9030   -1.0321 O   0  0  0  0  0  0  0  0  0  0  0  0
    0.2086   -0.3873   -1.5415 C   0  0  0  0  0  0  0  0  0  0  0  0
   -0.2706   -1.5768   -0.7458 C   0  0  0  0  0  0  0  0  0  0  0  0
    0.6109   -2.3203   -0.0017 N   0  0  0  0  0  0  0  0  0  0  0  0
   -1.5491   -2.0718   -0.6415 C   0  0  0  0  0  0  0  0  0  0  0  0
   -0.1255   -3.2588    0.5505 C   0  0  0  0  0  0  0  0  0  0  0  0
   -1.4402   -3.1493    0.1917 N   0  0  0  0  0  0  0  0  0  0  0  0
   -1.4467    1.6280   -0.5753 H   0  0  0  0  0  0  0  0  0  0  0  0
    1.2343    0.5813    0.1262 H   0  0  0  0  0  0  0  0  0  0  0  0
    1.0961   -0.6667   -2.1254 H   0  0  0  0  0  0  0  0  0  0  0  0
   -0.5596   -0.1397   -2.2860 H   0  0  0  0  0  0  0  0  0  0  0  0
   -2.4949   -1.7694   -1.0678 H   0  0  0  0  0  0  0  0  0  0  0  0
    0.2266   -4.0381    1.2117 H   0  0  0  0  0  0  0  0  0  0  0  0
   -2.1939   -3.7544    0.4893 H   0  0  0  0  0  0  0  0  0  0  0  0
    0.8124    1.7884   -2.8590 N   0  0  0  0  0  0  0  0  0  0  0  0
    1.2521    2.7098   -3.8819 C   0  0  2  0  0  0  0  0  0  0  0  0
    0.8435    4.1141   -3.4570 C   0  0  0  0  0  0  0  0  0  0  0  0
   -0.0674    4.3360   -2.6620 O   0  0  0  0  0  0  0  0  0  0  0  0
    0.6579    2.3573   -5.2366 C   0  0  0  0  0  0  0  0  0  0  0  0
    0.2860    0.9675   -3.1432 H   0  0  0  0  0  0  0  0  0  0  0  0
    2.3449    2.6425   -3.9196 H   0  0  0  0  0  0  0  0  0  0  0  0
   -0.4363    2.4192   -5.2183 H   0  0  0  0  0  0  0  0  0  0  0  0
    1.0145    3.0390   -6.0158 H   0  0  0  0  0  0  0  0  0  0  0  0
    0.9282    1.3363   -5.5270 H   0  0  0  0  0  0  0  0  0  0  0  0
    1.5871    5.0919   -4.1029 N   0  0  0  0  0  0  0  0  0  0  0  0
    1.3803    6.5036   -3.8791 C   0  0  0  0  0  0  0  0  0  0  0  0
    2.3354    4.8164   -4.7322 H   0  0  0  0  0  0  0  0  0  0  0  0
    0.6671    6.8924   -4.6209 H   0  0  0  0  0  0  0  0  0  0  0  0
    0.9779    6.6593   -2.8672 H   0  0  0  0  0  0  0  0  0  0  0  0
    2.3384    7.0348   -3.9784 H   0  0  0  0  0  0  0  0  0  0  0  0
 22 24  2  0  0  0  0
 24 26  1  0  0  0  0
 23 25  2  0  0  0  0
 25 26  1  0  0  0  0
 21 22  1  0  0  0  0
 22 23  1  0  0  0  0
  1  3  1  0  0  0  0
  1  7  1  0  0  0  0
  1  2  2  0  0  0  0
 35 36  1  0  0  0  0
 36 44  1  0  0  0  0
 36 37  2  0  0  0  0
  8  9  1  0  0  0  0
  9 17  1  0  0  0  0
  9 10  2  0  0  0  0
 18 19  1  0  0  0  0
 19 34  1  0  0  0  0
 19 20  2  0  0  0  0
 35 38  1  0  0  0  0
  8 11  1  0  0  0  0
 44 45  1  0  0  0  0
 18 21  1  0  0  0  0
 34 35  1  0  0  0  0
  7  8  1  0  0  0  0
 17 18  1  0  0  0  0
 24 31  1  0  0  0  0
 25 32  1  0  0  0  0
  3  4  1  0  0  0  0
  3  5  1  0  0  0  0
  3  6  1  0  0  0  0
 38 41  1  0  0  0  0
 38 42  1  0  0  0  0
 38 43  1  0  0  0  0
 11 14  1  0  0  0  0
 11 15  1  0  0  0  0
 11 16  1  0  0  0  0
 45 47  1  0  0  0  0
 45 48  1  0  0  0  0
 45 49  1  0  0  0  0
 21 29  1  0  0  0  0
 21 30  1  0  0  0  0
 35 40  1  0  0  0  0
  8 13  1  0  0  0  0
 18 28  1  0  0  0  0
 26 33  1  0  0  0  0
 44 46  1  0  0  0  0
  7 12  1  0  0  0  0
 34 39  1  0  0  0  0
 17 27  1  0  0  0  0
M  END
$$$$

  -OEChem-05262214473D

 49 49  0     1  0  0  0  0  0999 V2000
   -1.6183    0.5613    3.8201 C   0  0  0  0  0  0  0  0  0  0  0  0
   -0.6710   -0.0534    3.3444 O   0  0  0  0  0  0  0  0  0  0  0  0
   -2.0502    0.2789    5.2208 C   0  0  0  0  0  0  0  0  0  0  0  0
   -2.8099   -0.5175    5.2742 H   0  0  0  0  0  0  0  0  0  0  0  0
   -1.2190   -0.0687    5.8551 H   0  0  0  0  0  0  0  0  0  0  0  0
   -2.4882    1.1338    5.7604 H   0  0  0  0  0  0  0  0  0  0  0  0
   -2.3680    1.5337    3.1790 N   0  0  0  0  0  0  0  0  0  0  0  0
   -2.1212    1.9597    1.8266 C   0  0  2  0  0  0  0  0  0  0  0  0
   -0.7862    1.3744    1.3854 C   0  0  0  0  0  0  0  0  0  0  0  0
    0.0859    1.0216    2.1767 O   0  0  0  0  0  0  0  0  0  0  0  0
   -2.1124    3.4765    1.7171 C   0  0  0  0  0  0  0  0  0  0  0  0
   -3.1331    1.9695    3.6908 H   0  0  0  0  0  0  0  0  0  0  0  0
   -2.9253    1.5413    1.2115 H   0  0  0  0  0  0  0  0  0  0  0  0
   -1.3133    3.9138    2.3268 H   0  0  0  0  0  0  0  0  0  0  0  0
   -1.9529    3.7988    0.6829 H   0  0  0  0  0  0  0  0  0  0  0  0
   -3.0626    3.8977    2.0629 H   0  0  0  0  0  0  0  0  0  0  0  0
   -0.6635    1.3313    0.0020 N   0  0  0  0  0  0  0  0  0  0  0  0
    0.5138    0.8305   -0.6617 C   0  0  2  0  0  0  0  0  0  0  0  0
    1.0731    1.9687   -1.5077 C   0  0  0  0  0  0  0  0  0  0  0  0
    1.9274    2.7509   -1.0962 O   0  0  0  0  0  0  0  0  0  0  0  0
    0.2086   -0.3873   -1.5415 C   0  0  0  0  0  0  0  0  0  0  0  0
   -0.2706   -1.5768   -0.7458 C   0  0  0  0  0  0  0  0  0  0  0  0
    0.6109   -2.3203   -0.0017 N   0  0  0  0  0  0  0  0  0  0  0  0
   -1.5491   -2.0718   -0.6415 C   0  0  0  0  0  0  0  0  0  0  0  0
   -0.1255   -3.2588    0.5505 C   0  0  0  0  0  0  0  0  0  0  0  0
   -1.4402   -3.1493    0.1917 N   0  0  0  0  0  0  0  0  0  0  0  0
   -1.4467    1.6280   -0.5753 H   0  0  0  0  0  0  0  0  0  0  0  0
    1.2343    0.5813    0.1262 H   0  0  0  0  0  0  0  0  0  0  0  0
    1.0961   -0.6667   -2.1254 H   0  0  0  0  0  0  0  0  0  0  0  0
   -0.5596   -0.1397   -2.2860 H   0  0  0  0  0  0  0  0  0  0  0  0
   -2.4949   -1.7694   -1.0678 H   0  0  0  0  0  0  0  0  0  0  0  0
    0.2266   -4.0381    1.2117 H   0  0  0  0  0  0  0  0  0  0  0  0
   -2.1939   -3.7544    0.4893 H   0  0  0  0  0  0  0  0  0  0  0  0
    0.5408    1.9735   -2.7895 N   0  0  0  0  0  0  0  0  0  0  0  0
    0.9179    2.9336   -3.8018 C   0  0  2  0  0  0  0  0  0  0  0  0
    0.8153    4.3252   -3.1917 C   0  0  0  0  0  0  0  0  0  0  0  0
    0.1133    4.5794   -2.2151 O   0  0  0  0  0  0  0  0  0  0  0  0
    0.0349    2.8139   -5.0342 C   0  0  0  0  0  0  0  0  0  0  0  0
   -0.1486    1.2667   -3.0281 H   0  0  0  0  0  0  0  0  0  0  0  0
    1.9611    2.7246   -4.0628 H   0  0  0  0  0  0  0  0  0  0  0  0
   -1.0141    3.0199   -4.7923 H   0  0  0  0  0  0  0  0  0  0  0  0
    0.3401    3.5225   -5.8113 H   0  0  0  0  0  0  0  0  0  0  0  0
    0.0870    1.8037   -5.4543 H   0  0  0  0  0  0  0  0  0  0  0  0
    1.5662    5.2588   -3.8921 N   0  0  0  0  0  0  0  0  0  0  0  0
    1.6231    6.6527   -3.5180 C   0  0  0  0  0  0  0  0  0  0  0  0
    2.1330    4.9557   -4.6786 H   0  0  0  0  0  0  0  0  0  0  0  0
    0.8522    7.2123   -4.0681 H   0  0  0  0  0  0  0  0  0  0  0  0
    1.4449    6.7496   -2.4369 H   0  0  0  0  0  0  0  0  0  0  0  0
    2.6157    7.0579   -3.7639 H   0  0  0  0  0  0  0  0  0  0  0  0
 22 24  2  0  0  0  0
 24 26  1  0  0  0  0
 23 25  2  0  0  0  0
 25 26  1  0  0  0  0
 21 22  1  0  0  0  0
 22 23  1  0  0  0  0
  1  3  1  0  0  0  0
  1  7  1  0  0  0  0
  1  2  2  0  0  0  0
 35 36  1  0  0  0  0
 36 44  1  0  0  0  0
 36 37  2  0  0  0  0
  8  9  1  0  0  0  0
  9 17  1  0  0  0  0
  9 10  2  0  0  0  0
 18 19  1  0  0  0  0
 19 34  1  0  0  0  0
 19 20  2  0  0  0  0
 35 38  1  0  0  0  0
  8 11  1  0  0  0  0
 44 45  1  0  0  0  0
 18 21  1  0  0  0  0
 34 35  1  0  0  0  0
  7  8  1  0  0  0  0
 17 18  1  0  0  0  0
 24 31  1  0  0  0  0
 25 32  1  0  0  0  0
  3  4  1  0  0  0  0
  3  5  1  0  0  0  0
  3  6  1  0  0  0  0
 38 41  1  0  0  0  0
 38 42  1  0  0  0  0
 38 43  1  0  0  0  0
 11 14  1  0  0  0  0
 11 15  1  0  0  0  0
 11 16  1  0  0  0  0
 45 47  1  0  0  0  0
 45 48  1  0  0  0  0
 45 49  1  0  0  0  0
 21 29  1  0  0  0  0
 21 30  1  0  0  0  0
 35 40  1  0  0  0  0
  8 13  1  0  0  0  0
 18 28  1  0  0  0  0
 26 33  1  0  0  0  0
 44 46  1  0  0  0  0
  7 12  1  0  0  0  0
 34 39  1  0  0  0  0
 17 27  1  0  0  0  0
M  END
$$$$

  -OEChem-05262214473D

 49 49  0     1  0  0  0  0  0999 V2000
   -1.6183    0.5613    3.8201 C   0  0  0  0  0  0  0  0  0  0  0  0
   -0.6710   -0.0534    3.3444 O   0  0  0  0  0  0  0  0  0  0  0  0
   -2.0502    0.2789    5.2208 C   0  0  0  0  0  0  0  0  0  0  0  0
   -2.8099   -0.5175    5.2742 H   0  0  0  0  0  0  0  0  0  0  0  0
   -1.2190   -0.0687    5.8551 H   0  0  0  0  0  0  0  0  0  0  0  0
   -2.4882    1.1338    5.7604 H   0  0  0  0  0  0  0  0  0  0  0  0
   -2.3680    1.5337    3.1790 N   0  0  0  0  0  0  0  0  0  0  0  0
   -2.1212    1.9597    1.8266 C   0  0  2  0  0  0  0  0  0  0  0  0
   -0.7862    1.3744    1.3854 C   0  0  0  0  0  0  0  0  0  0  0  0
    0.0859    1.0216    2.1767 O   0  0  0  0  0  0  0  0  0  0  0  0
   -2.1124    3.4765    1.7171 C   0  0  0  0  0  0  0  0  0  0  0  0
   -3.1331    1.9695    3.6908 H   0  0  0  0  0  0  0  0  0  0  0  0
   -2.9253    1.5413    1.2115 H   0  0  0  0  0  0  0  0  0  0  0  0
   -1.3133    3.9138    2.3268 H   0  0  0  0  0  0  0  0  0  0  0  0
   -1.9529    3.7988    0.6829 H   0  0  0  0  0  0  0  0  0  0  0  0
   -3.0626    3.8977    2.0629 H   0  0  0  0  0  0  0  0  0  0  0  0
   -0.6635    1.3313    0.0020 N   0  0  0  0  0  0  0  0  0  0  0  0
    0.5138    0.8305   -0.6617 C   0  0  2  0  0  0  0  0  0  0  0  0
    1.0731    1.9687   -1.5077 C   0  0  0  0  0  0  0  0  0  0  0  0
    2.0985    2.5795   -1.2137 O   0  0  0  0  0  0  0  0  0  0  0  0
    0.2086   -0.3873   -1.5415 C   0  0  0  0  0  0  0  0  0  0  0  0
   -0.2706   -1.5768   -0.7458 C   0  0  0  0  0  0  0  0  0  0  0  0
    0.6109   -2.3203   -0.0017 N   0  0  0  0  0  0  0  0  0  0  0  0
   -1.5491   -2.0718   -0.6415 C   0  0  0  0  0  0  0  0  0  0  0  0
   -0.1255   -3.2588    0.5505 C   0  0  0  0  0  0  0  0  0  0  0  0
   -1.4402   -3.1493    0.1917 N   0  0  0  0  0  0  0  0  0  0  0  0
   -1.4467    1.6280   -0.5753 H   0  0  0  0  0  0  0  0  0  0  0  0
    1.2343    0.5813    0.1262 H   0  0  0  0  0  0  0  0  0  0  0  0
    1.0961   -0.6667   -2.1254 H   0  0  0  0  0  0  0  0  0  0  0  0
   -0.5596   -0.1397   -2.2860 H   0  0  0  0  0  0  0  0  0  0  0  0
   -2.4949   -1.7694   -1.0678 H   0  0  0  0  0  0  0  0  0  0  0  0
    0.2266   -4.0381    1.2117 H   0  0  0  0  0  0  0  0  0  0  0  0
   -2.1939   -3.7544    0.4893 H   0  0  0  0  0  0  0  0  0  0  0  0
    0.3184    2.1847   -2.6523 N   0  0  0  0  0  0  0  0  0  0  0  0
    0.6427    3.1901   -3.6386 C   0  0  2  0  0  0  0  0  0  0  0  0
    0.8696    4.5080   -2.9098 C   0  0  0  0  0  0  0  0  0  0  0  0
    0.4091    4.7461   -1.7952 O   0  0  0  0  0  0  0  0  0  0  0  0
   -0.4622    3.3253   -4.6749 C   0  0  0  0  0  0  0  0  0  0  0  0
   -0.5032    1.6072   -2.8044 H   0  0  0  0  0  0  0  0  0  0  0  0
    1.5745    2.8727   -4.1192 H   0  0  0  0  0  0  0  0  0  0  0  0
   -1.4037    3.6426   -4.2120 H   0  0  0  0  0  0  0  0  0  0  0  0
   -0.2023    4.0669   -5.4374 H   0  0  0  0  0  0  0  0  0  0  0  0
   -0.6444    2.3691   -5.1772 H   0  0  0  0  0  0  0  0  0  0  0  0
    1.6107    5.4031   -3.6686 N   0  0  0  0  0  0  0  0  0  0  0  0
    1.9488    6.7275   -3.2021 C   0  0  0  0  0  0  0  0  0  0  0  0
    1.9680    5.1142   -4.5745 H   0  0  0  0  0  0  0  0  0  0  0  0
    1.1838    7.4422   -3.5396 H   0  0  0  0  0  0  0  0  0  0  0  0
    1.9922    6.7289   -2.1029 H   0  0  0  0  0  0  0  0  0  0  0  0
    2.9284    7.0201   -3.6080 H   0  0  0  0  0  0  0  0  0  0  0  0
 22 24  2  0  0  0  0
 24 26  1  0  0  0  0
 23 25  2  0  0  0  0
 25 26  1  0  0  0  0
 21 22  1  0  0  0  0
 22 23  1  0  0  0  0
  1  3  1  0  0  0  0
  1  7  1  0  0  0  0
  1  2  2  0  0  0  0
 35 36  1  0  0  0  0
 36 44  1  0  0  0  0
 36 37  2  0  0  0  0
  8  9  1  0  0  0  0
  9 17  1  0  0  0  0
  9 10  2  0  0  0  0
 18 19  1  0  0  0  0
 19 34  1  0  0  0  0
 19 20  2  0  0  0  0
 35 38  1  0  0  0  0
  8 11  1  0  0  0  0
 44 45  1  0  0  0  0
 18 21  1  0  0  0  0
 34 35  1  0  0  0  0
  7  8  1  0  0  0  0
 17 18  1  0  0  0  0
 24 31  1  0  0  0  0
 25 32  1  0  0  0  0
  3  4  1  0  0  0  0
  3  5  1  0  0  0  0
  3  6  1  0  0  0  0
 38 41  1  0  0  0  0
 38 42  1  0  0  0  0
 38 43  1  0  0  0  0
 11 14  1  0  0  0  0
 11 15  1  0  0  0  0
 11 16  1  0  0  0  0
 45 47  1  0  0  0  0
 45 48  1  0  0  0  0
 45 49  1  0  0  0  0
 21 29  1  0  0  0  0
 21 30  1  0  0  0  0
 35 40  1  0  0  0  0
  8 13  1  0  0  0  0
 18 28  1  0  0  0  0
 26 33  1  0  0  0  0
 44 46  1  0  0  0  0
  7 12  1  0  0  0  0
 34 39  1  0  0  0  0
 17 27  1  0  0  0  0
M  END
$$$$

  -OEChem-05262214473D

 49 49  0     1  0  0  0  0  0999 V2000
   -1.6183    0.5613    3.8201 C   0  0  0  0  0  0  0  0  0  0  0  0
   -0.6710   -0.0534    3.3444 O   0  0  0  0  0  0  0  0  0  0  0  0
   -2.0502    0.2789    5.2208 C   0  0  0  0  0  0  0  0  0  0  0  0
   -2.8099   -0.5175    5.2742 H   0  0  0  0  0  0  0  0  0  0  0  0
   -1.2190   -0.0687    5.8551 H   0  0  0  0  0  0  0  0  0  0  0  0
   -2.4882    1.1338    5.7604 H   0  0  0  0  0  0  0  0  0  0  0  0
   -2.3680    1.5337    3.1790 N   0  0  0  0  0  0  0  0  0  0  0  0
   -2.1212    1.9597    1.8266 C   0  0  2  0  0  0  0  0  0  0  0  0
   -0.7862    1.3744    1.3854 C   0  0  0  0  0  0  0  0  0  0  0  0
    0.0859    1.0216    2.1767 O   0  0  0  0  0  0  0  0  0  0  0  0
   -2.1124    3.4765    1.7171 C   0  0  0  0  0  0  0  0  0  0  0  0
   -3.1331    1.9695    3.6908 H   0  0  0  0  0  0  0  0  0  0  0  0
   -2.9253    1.5413    1.2115 H   0  0  0  0  0  0  0  0  0  0  0  0
   -1.3133    3.9138    2.3268 H   0  0  0  0  0  0  0  0  0  0  0  0
   -1.9529    3.7988    0.6829 H   0  0  0  0  0  0  0  0  0  0  0  0
   -3.0626    3.8977    2.0629 H   0  0  0  0  0  0  0  0  0  0  0  0
   -0.6635    1.3313    0.0020 N   0  0  0  0  0  0  0  0  0  0  0  0
    0.5138    0.8305   -0.6617 C   0  0  2  0  0  0  0  0  0  0  0  0
    1.0731    1.9687   -1.5077 C   0  0  0  0  0  0  0  0  0  0  0  0
    2.2165    2.4005   -1.3765 O   0  0  0  0  0  0  0  0  0  0  0  0
    0.2086   -0.3873   -1.5415 C   0  0  0  0  0  0  0  0  0  0  0  0
   -0.2706   -1.5768   -0.7458 C   0  0  0  0  0  0  0  0  0  0  0  0
    0.6109   -2.3203   -0.0017 N   0  0  0  0  0  0  0  0  0  0  0  0
   -1.5491   -2.0718   -0.6415 C   0  0  0  0  0  0  0  0  0  0  0  0
   -0.1255   -3.2588    0.5505 C   0  0  0  0  0  0  0  0  0  0  0  0
   -1.4402   -3.1493    0.1917 N   0  0  0  0  0  0  0  0  0  0  0  0
   -1.4467    1.6280   -0.5753 H   0  0  0  0  0  0  0  0  0  0  0  0
    1.2343    0.5813    0.1262 H   0  0  0  0  0  0  0  0  0  0  0  0
    1.0961   -0.6667   -2.1254 H   0  0  0  0  0  0  0  0  0  0  0  0
   -0.5596   -0.1397   -2.2860 H   0  0  0  0  0  0  0  0  0  0  0  0
   -2.4949   -1.7694   -1.0678 H   0  0  0  0  0  0  0  0  0  0  0  0
    0.2266   -4.0381    1.2117 H   0  0  0  0  0  0  0  0  0  0  0  0
   -2.1939   -3.7544    0.4893 H   0  0  0  0  0  0  0  0  0  0  0  0
    0.1604    2.4077   -2.4568 N   0  0  0  0  0  0  0  0  0  0  0  0
    0.4452    3.4619   -3.4035 C   0  0  2  0  0  0  0  0  0  0  0  0
    1.0028    4.6500   -2.6307 C   0  0  0  0  0  0  0  0  0  0  0  0
    0.7999    4.8247   -1.4310 O   0  0  0  0  0  0  0  0  0  0  0  0
   -0.7994    3.8565   -4.1832 C   0  0  0  0  0  0  0  0  0  0  0  0
   -0.7536    1.9658   -2.4875 H   0  0  0  0  0  0  0  0  0  0  0  0
    1.2115    3.0766   -4.0849 H   0  0  0  0  0  0  0  0  0  0  0  0
   -1.5785    4.2450   -3.5171 H   0  0  0  0  0  0  0  0  0  0  0  0
   -0.5759    4.6352   -4.9198 H   0  0  0  0  0  0  0  0  0  0  0  0
   -1.2162    2.9940   -4.7145 H   0  0  0  0  0  0  0  0  0  0  0  0
    1.7176    5.5148   -3.4476 N   0  0  0  0  0  0  0  0  0  0  0  0
    2.3352    6.7229   -2.9527 C   0  0  0  0  0  0  0  0  0  0  0  0
    1.8514    5.2811   -4.4270 H   0  0  0  0  0  0  0  0  0  0  0  0
    1.6392    7.5664   -3.0714 H   0  0  0  0  0  0  0  0  0  0  0  0
    2.5823    6.5986   -1.8880 H   0  0  0  0  0  0  0  0  0  0  0  0
    3.2550    6.9239   -3.5215 H   0  0  0  0  0  0  0  0  0  0  0  0
 22 24  2  0  0  0  0
 24 26  1  0  0  0  0
 23 25  2  0  0  0  0
 25 26  1  0  0  0  0
 21 22  1  0  0  0  0
 22 23  1  0  0  0  0
  1  3  1  0  0  0  0
  1  7  1  0  0  0  0
  1  2  2  0  0  0  0
 35 36  1  0  0  0  0
 36 44  1  0  0  0  0
 36 37  2  0  0  0  0
  8  9  1  0  0  0  0
  9 17  1  0  0  0  0
  9 10  2  0  0  0  0
 18 19  1  0  0  0  0
 19 34  1  0  0  0  0
 19 20  2  0  0  0  0
 35 38  1  0  0  0  0
  8 11  1  0  0  0  0
 44 45  1  0  0  0  0
 18 21  1  0  0  0  0
 34 35  1  0  0  0  0
  7  8  1  0  0  0  0
 17 18  1  0  0  0  0
 24 31  1  0  0  0  0
 25 32  1  0  0  0  0
  3  4  1  0  0  0  0
  3  5  1  0  0  0  0
  3  6  1  0  0  0  0
 38 41  1  0  0  0  0
 38 42  1  0  0  0  0
 38 43  1  0  0  0  0
 11 14  1  0  0  0  0
 11 15  1  0  0  0  0
 11 16  1  0  0  0  0
 45 47  1  0  0  0  0
 45 48  1  0  0  0  0
 45 49  1  0  0  0  0
 21 29  1  0  0  0  0
 21 30  1  0  0  0  0
 35 40  1  0  0  0  0
  8 13  1  0  0  0  0
 18 28  1  0  0  0  0
 26 33  1  0  0  0  0
 44 46  1  0  0  0  0
  7 12  1  0  0  0  0
 34 39  1  0  0  0  0
 17 27  1  0  0  0  0
M  END
$$$$

  -OEChem-05262214473D

 49 49  0     1  0  0  0  0  0999 V2000
   -1.6183    0.5613    3.8201 C   0  0  0  0  0  0  0  0  0  0  0  0
   -0.6710   -0.0534    3.3444 O   0  0  0  0  0  0  0  0  0  0  0  0
   -2.0502    0.2789    5.2208 C   0  0  0  0  0  0  0  0  0  0  0  0
   -2.8099   -0.5175    5.2742 H   0  0  0  0  0  0  0  0  0  0  0  0
   -1.2190   -0.0687    5.8551 H   0  0  0  0  0  0  0  0  0  0  0  0
   -2.4882    1.1338    5.7604 H   0  0  0  0  0  0  0  0  0  0  0  0
   -2.3680    1.5337    3.1790 N   0  0  0  0  0  0  0  0  0  0  0  0
   -2.1212    1.9597    1.8266 C   0  0  2  0  0  0  0  0  0  0  0  0
   -0.7862    1.3744    1.3854 C   0  0  0  0  0  0  0  0  0  0  0  0
    0.0859    1.0216    2.1767 O   0  0  0  0  0  0  0  0  0  0  0  0
   -2.1124    3.4765    1.7171 C   0  0  0  0  0  0  0  0  0  0  0  0
   -3.1331    1.9695    3.6908 H   0  0  0  0  0  0  0  0  0  0  0  0
   -2.9253    1.5413    1.2115 H   0  0  0  0  0  0  0  0  0  0  0  0
   -1.3133    3.9138    2.3268 H   0  0  0  0  0  0  0  0  0  0  0  0
   -1.9529    3.7988    0.6829 H   0  0  0  0  0  0  0  0  0  0  0  0
   -3.0626    3.8977    2.0629 H   0  0  0  0  0  0  0  0  0  0  0  0
   -0.6635    1.3313    0.0020 N   0  0  0  0  0  0  0  0  0  0  0  0
    0.5138    0.8305   -0.6617 C   0  0  2  0  0  0  0  0  0  0  0  0
    1.0731    1.9687   -1.5077 C   0  0  0  0  0  0  0  0  0  0  0  0
    2.2732    2.2262   -1.5736 O   0  0  0  0  0  0  0  0  0  0  0  0
    0.2086   -0.3873   -1.5415 C   0  0  0  0  0  0  0  0  0  0  0  0
   -0.2706   -1.5768   -0.7458 C   0  0  0  0  0  0  0  0  0  0  0  0
    0.6109   -2.3203   -0.0017 N   0  0  0  0  0  0  0  0  0  0  0  0
   -1.5491   -2.0718   -0.6415 C   0  0  0  0  0  0  0  0  0  0  0  0
   -0.1255   -3.2588    0.5505 C   0  0  0  0  0  0  0  0  0  0  0  0
   -1.4402   -3.1493    0.1917 N   0  0  0  0  0  0  0  0  0  0  0  0
   -1.4467    1.6280   -0.5753 H   0  0  0  0  0  0  0  0  0  0  0  0
    1.2343    0.5813    0.1262 H   0  0  0  0  0  0  0  0  0  0  0  0
    1.0961   -0.6667   -2.1254 H   0  0  0  0  0  0  0  0  0  0  0  0
   -0.5596   -0.1397   -2.2860 H   0  0  0  0  0  0  0  0  0  0  0  0
   -2.4949   -1.7694   -1.0678 H   0  0  0  0  0  0  0  0  0  0  0  0
    0.2266   -4.0381    1.2117 H   0  0  0  0  0  0  0  0  0  0  0  0
   -2.1939   -3.7544    0.4893 H   0  0  0  0  0  0  0  0  0  0  0  0
    0.0777    2.6272   -2.2162 N   0  0  0  0  0  0  0  0  0  0  0  0
    0.3389    3.7305   -3.1124 C   0  0  2  0  0  0  0  0  0  0  0  0
    1.2058    4.7415   -2.3734 C   0  0  0  0  0  0  0  0  0  0  0  0
    1.2592    4.8100   -1.1472 O   0  0  0  0  0  0  0  0  0  0  0  0
   -0.9539    4.3713   -3.5927 C   0  0  0  0  0  0  0  0  0  0  0  0
   -0.8827    2.3180   -2.0990 H   0  0  0  0  0  0  0  0  0  0  0  0
    0.8967    3.3224   -3.9623 H   0  0  0  0  0  0  0  0  0  0  0  0
   -1.5264    4.7859   -2.7549 H   0  0  0  0  0  0  0  0  0  0  0  0
   -0.7551    5.1887   -4.2937 H   0  0  0  0  0  0  0  0  0  0  0  0
   -1.5893    3.6358   -4.0977 H   0  0  0  0  0  0  0  0  0  0  0  0
    1.8796    5.5864   -3.2442 N   0  0  0  0  0  0  0  0  0  0  0  0
    2.7561    6.6394   -2.7869 C   0  0  0  0  0  0  0  0  0  0  0  0
    1.7912    5.4450   -4.2462 H   0  0  0  0  0  0  0  0  0  0  0  0
    2.1874    7.5765   -2.6953 H   0  0  0  0  0  0  0  0  0  0  0  0
    3.1752    6.3676   -1.8068 H   0  0  0  0  0  0  0  0  0  0  0  0
    3.5735    6.7758   -3.5102 H   0  0  0  0  0  0  0  0  0  0  0  0
 22 24  2  0  0  0  0
 24 26  1  0  0  0  0
 23 25  2  0  0  0  0
 25 26  1  0  0  0  0
 21 22  1  0  0  0  0
 22 23  1  0  0  0  0
  1  3  1  0  0  0  0
  1  7  1  0  0  0  0
  1  2  2  0  0  0  0
 35 36  1  0  0  0  0
 36 44  1  0  0  0  0
 36 37  2  0  0  0  0
  8  9  1  0  0  0  0
  9 17  1  0  0  0  0
  9 10  2  0  0  0  0
 18 19  1  0  0  0  0
 19 34  1  0  0  0  0
 19 20  2  0  0  0  0
 35 38  1  0  0  0  0
  8 11  1  0  0  0  0
 44 45  1  0  0  0  0
 18 21  1  0  0  0  0
 34 35  1  0  0  0  0
  7  8  1  0  0  0  0
 17 18  1  0  0  0  0
 24 31  1  0  0  0  0
 25 32  1  0  0  0  0
  3  4  1  0  0  0  0
  3  5  1  0  0  0  0
  3  6  1  0  0  0  0
 38 41  1  0  0  0  0
 38 42  1  0  0  0  0
 38 43  1  0  0  0  0
 11 14  1  0  0  0  0
 11 15  1  0  0  0  0
 11 16  1  0  0  0  0
 45 47  1  0  0  0  0
 45 48  1  0  0  0  0
 45 49  1  0  0  0  0
 21 29  1  0  0  0  0
 21 30  1  0  0  0  0
 35 40  1  0  0  0  0
  8 13  1  0  0  0  0
 18 28  1  0  0  0  0
 26 33  1  0  0  0  0
 44 46  1  0  0  0  0
  7 12  1  0  0  0  0
 34 39  1  0  0  0  0
 17 27  1  0  0  0  0
M  END
$$$$

  -OEChem-05262214473D

 49 49  0     1  0  0  0  0  0999 V2000
   -1.6183    0.5613    3.8201 C   0  0  0  0  0  0  0  0  0  0  0  0
   -0.6710   -0.0534    3.3444 O   0  0  0  0  0  0  0  0  0  0  0  0
   -2.0502    0.2789    5.2208 C   0  0  0  0  0  0  0  0  0  0  0  0
   -2.8099   -0.5175    5.2742 H   0  0  0  0  0  0  0  0  0  0  0  0
   -1.2190   -0.0687    5.8551 H   0  0  0  0  0  0  0  0  0  0  0  0
   -2.4882    1.1338    5.7604 H   0  0  0  0  0  0  0  0  0  0  0  0
   -2.3680    1.5337    3.1790 N   0  0  0  0  0  0  0  0  0  0  0  0
   -2.1212    1.9597    1.8266 C   0  0  2  0  0  0  0  0  0  0  0  0
   -0.7862    1.3744    1.3854 C   0  0  0  0  0  0  0  0  0  0  0  0
    0.0859    1.0216    2.1767 O   0  0  0  0  0  0  0  0  0  0  0  0
   -2.1124    3.4765    1.7171 C   0  0  0  0  0  0  0  0  0  0  0  0
   -3.1331    1.9695    3.6908 H   0  0  0  0  0  0  0  0  0  0  0  0
   -2.9253    1.5413    1.2115 H   0  0  0  0  0  0  0  0  0  0  0  0
   -1.3133    3.9138    2.3268 H   0  0  0  0  0  0  0  0  0  0  0  0
   -1.9529    3.7988    0.6829 H   0  0  0  0  0  0  0  0  0  0  0  0
   -3.0626    3.8977    2.0629 H   0  0  0  0  0  0  0  0  0  0  0  0
   -0.6635    1.3313    0.0020 N   0  0  0  0  0  0  0  0  0  0  0  0
    0.5138    0.8305   -0.6617 C   0  0  2  0  0  0  0  0  0  0  0  0
    1.0731    1.9687   -1.5077 C   0  0  0  0  0  0  0  0  0  0  0  0
    2.2650    2.0683   -1.7914 O   0  0  0  0  0  0  0  0  0  0  0  0
    0.2086   -0.3873   -1.5415 C   0  0  0  0  0  0  0  0  0  0  0  0
   -0.2706   -1.5768   -0.7458 C   0  0  0  0  0  0  0  0  0  0  0  0
    0.6109   -2.3203   -0.0017 N   0  0  0  0  0  0  0  0  0  0  0  0
   -1.5491   -2.0718   -0.6415 C   0  0  0  0  0  0  0  0  0  0  0  0
   -0.1255   -3.2588    0.5505 C   0  0  0  0  0  0  0  0  0  0  0  0
   -1.4402   -3.1493    0.1917 N   0  0  0  0  0  0  0  0  0  0  0  0
   -1.4467    1.6280   -0.5753 H   0  0  0  0  0  0  0  0  0  0  0  0
    1.2343    0.5813    0.1262 H   0  0  0  0  0  0  0  0  0  0  0  0
    1.0961   -0.6667   -2.1254 H   0  0  0  0  0  0  0  0  0  0  0  0
   -0.5596   -0.1397   -2.2860 H   0  0  0  0  0  0  0  0  0  0  0  0
   -2.4949   -1.7694   -1.0678 H   0  0  0  0  0  0  0  0  0  0  0  0
    0.2266   -4.0381    1.2117 H   0  0  0  0  0  0  0  0  0  0  0  0
   -2.1939   -3.7544    0.4893 H   0  0  0  0  0  0  0  0  0  0  0  0
    0.0758    2.8282   -1.9470 N   0  0  0  0  0  0  0  0  0  0  0  0
    0.3311    3.9776   -2.7851 C   0  0  2  0  0  0  0  0  0  0  0  0
    1.4647    4.7763   -2.1554 C   0  0  0  0  0  0  0  0  0  0  0  0
    1.7554    4.7028   -0.9633 O   0  0  0  0  0  0  0  0  0  0  0  0
   -0.9150    4.8347   -2.9435 C   0  0  0  0  0  0  0  0  0  0  0  0
   -0.8818    2.6399   -1.6653 H   0  0  0  0  0  0  0  0  0  0  0  0
    0.6517    3.5935   -3.7596 H   0  0  0  0  0  0  0  0  0  0  0  0
   -1.2512    5.2286   -1.9774 H   0  0  0  0  0  0  0  0  0  0  0  0
   -0.7277    5.6895   -3.6017 H   0  0  0  0  0  0  0  0  0  0  0  0
   -1.7383    4.2507   -3.3689 H   0  0  0  0  0  0  0  0  0  0  0  0
    2.0857    5.6130   -3.0722 N   0  0  0  0  0  0  0  0  0  0  0  0
    3.1826    6.4825   -2.7160 C   0  0  0  0  0  0  0  0  0  0  0  0
    1.7916    5.5949   -4.0443 H   0  0  0  0  0  0  0  0  0  0  0  0
    2.7911    7.4719   -2.4369 H   0  0  0  0  0  0  0  0  0  0  0  0
    3.7303    6.0516   -1.8649 H   0  0  0  0  0  0  0  0  0  0  0  0
    3.8620    6.5860   -3.5748 H   0  0  0  0  0  0  0  0  0  0  0  0
 22 24  2  0  0  0  0
 24 26  1  0  0  0  0
 23 25  2  0  0  0  0
 25 26  1  0  0  0  0
 21 22  1  0  0  0  0
 22 23  1  0  0  0  0
  1  3  1  0  0  0  0
  1  7  1  0  0  0  0
  1  2  2  0  0  0  0
 35 36  1  0  0  0  0
 36 44  1  0  0  0  0
 36 37  2  0  0  0  0
  8  9  1  0  0  0  0
  9 17  1  0  0  0  0
  9 10  2  0  0  0  0
 18 19  1  0  0  0  0
 19 34  1  0  0  0  0
 19 20  2  0  0  0  0
 35 38  1  0  0  0  0
  8 11  1  0  0  0  0
 44 45  1  0  0  0  0
 18 21  1  0  0  0  0
 34 35  1  0  0  0  0
  7  8  1  0  0  0  0
 17 18  1  0  0  0  0
 24 31  1  0  0  0  0
 25 32  1  0  0  0  0
  3  4  1  0  0  0  0
  3  5  1  0  0  0  0
  3  6  1  0  0  0  0
 38 41  1  0  0  0  0
 38 42  1  0  0  0  0
 38 43  1  0  0  0  0
 11 14  1  0  0  0  0
 11 15  1  0  0  0  0
 11 16  1  0  0  0  0
 45 47  1  0  0  0  0
 45 48  1  0  0  0  0
 45 49  1  0  0  0  0
 21 29  1  0  0  0  0
 21 30  1  0  0  0  0
 35 40  1  0  0  0  0
  8 13  1  0  0  0  0
 18 28  1  0  0  0  0
 26 33  1  0  0  0  0
 44 46  1  0  0  0  0
  7 12  1  0  0  0  0
 34 39  1  0  0  0  0
 17 27  1  0  0  0  0
M  END
$$$$

  -OEChem-05262214473D

 49 49  0     1  0  0  0  0  0999 V2000
   -1.6183    0.5613    3.8201 C   0  0  0  0  0  0  0  0  0  0  0  0
   -0.6710   -0.0534    3.3444 O   0  0  0  0  0  0  0  0  0  0  0  0
   -2.0502    0.2789    5.2208 C   0  0  0  0  0  0  0  0  0  0  0  0
   -2.8099   -0.5175    5.2742 H   0  0  0  0  0  0  0  0  0  0  0  0
   -1.2190   -0.0687    5.8551 H   0  0  0  0  0  0  0  0  0  0  0  0
   -2.4882    1.1338    5.7604 H   0  0  0  0  0  0  0  0  0  0  0  0
   -2.3680    1.5337    3.1790 N   0  0  0  0  0  0  0  0  0  0  0  0
   -2.1212    1.9597    1.8266 C   0  0  2  0  0  0  0  0  0  0  0  0
   -0.7862    1.3744    1.3854 C   0  0  0  0  0  0  0  0  0  0  0  0
    0.0859    1.0216    2.1767 O   0  0  0  0  0  0  0  0  0  0  0  0
   -2.1124    3.4765    1.7171 C   0  0  0  0  0  0  0  0  0  0  0  0
   -3.1331    1.9695    3.6908 H   0  0  0  0  0  0  0  0  0  0  0  0
   -2.9253    1.5413    1.2115 H   0  0  0  0  0  0  0  0  0  0  0  0
   -1.3133    3.9138    2.3268 H   0  0  0  0  0  0  0  0  0  0  0  0
   -1.9529    3.7988    0.6829 H   0  0  0  0  0  0  0  0  0  0  0  0
   -3.0626    3.8977    2.0629 H   0  0  0  0  0  0  0  0  0  0  0  0
   -0.6635    1.3313    0.0020 N   0  0  0  0  0  0  0  0  0  0  0  0
    0.5138    0.8305   -0.6617 C   0  0  2  0  0  0  0  0  0  0  0  0
    1.0731    1.9687   -1.5077 C   0  0  0  0  0  0  0  0  0  0  0  0
    2.1922    1.9377   -2.0152 O   0  0  0  0  0  0  0  0  0  0  0  0
    0.2086   -0.3873   -1.5415 C   0  0  0  0  0  0  0  0  0  0  0  0
   -0.2706   -1.5768   -0.7458 C   0  0  0  0  0  0  0  0  0  0  0  0
    0.6109   -2.3203   -0.0017 N   0  0  0  0  0  0  0  0  0  0  0  0
   -1.5491   -2.0718   -0.6415 C   0  0  0  0  0  0  0  0  0  0  0  0
   -0.1255   -3.2588    0.5505 C   0  0  0  0  0  0  0  0  0  0  0  0
   -1.4402   -3.1493    0.1917 N   0  0  0  0  0  0  0  0  0  0  0  0
   -1.4467    1.6280   -0.5753 H   0  0  0  0  0  0  0  0  0  0  0  0
    1.2343    0.5813    0.1262 H   0  0  0  0  0  0  0  0  0  0  0  0
    1.0961   -0.6667   -2.1254 H   0  0  0  0  0  0  0  0  0  0  0  0
   -0.5596   -0.1397   -2.2860 H   0  0  0  0  0  0  0  0  0  0  0  0
   -2.4949   -1.7694   -1.0678 H   0  0  0  0  0  0  0  0  0  0  0  0
    0.2266   -4.0381    1.2117 H   0  0  0  0  0  0  0  0  0  0  0  0
   -2.1939   -3.7544    0.4893 H   0  0  0  0  0  0  0  0  0  0  0  0
    0.1548    2.9971   -1.6675 N   0  0  0  0  0  0  0  0  0  0  0  0
    0.4223    4.1863   -2.4441 C   0  0  2  0  0  0  0  0  0  0  0  0
    1.7620    4.7520   -1.9915 C   0  0  0  0  0  0  0  0  0  0  0  0
    2.2550    4.5106   -0.8916 O   0  0  0  0  0  0  0  0  0  0  0  0
   -0.6855    5.2151   -2.2800 C   0  0  0  0  0  0  0  0  0  0  0  0
   -0.7508    2.9095   -1.2160 H   0  0  0  0  0  0  0  0  0  0  0  0
    0.4931    3.8712   -3.4908 H   0  0  0  0  0  0  0  0  0  0  0  0
   -0.7715    5.5428   -1.2375 H   0  0  0  0  0  0  0  0  0  0  0  0
   -0.4955    6.1037   -2.8911 H   0  0  0  0  0  0  0  0  0  0  0  0
   -1.6531    4.7969   -2.5778 H   0  0  0  0  0  0  0  0  0  0  0  0
    2.3218    5.5927   -2.9434 N   0  0  0  0  0  0  0  0  0  0  0  0
    3.5857    6.2629   -2.7448 C   0  0  0  0  0  0  0  0  0  0  0  0
    1.8525    5.7204   -3.8351 H   0  0  0  0  0  0  0  0  0  0  0  0
    3.4091    7.2595   -2.3140 H   0  0  0  0  0  0  0  0  0  0  0  0
    4.2100    5.6722   -2.0583 H   0  0  0  0  0  0  0  0  0  0  0  0
    4.1010    6.3673   -3.7111 H   0  0  0  0  0  0  0  0  0  0  0  0
 22 24  2  0  0  0  0
 24 26  1  0  0  0  0
 23 25  2  0  0  0  0
 25 26  1  0  0  0  0
 21 22  1  0  0  0  0
 22 23  1  0  0  0  0
  1  3  1  0  0  0  0
  1  7  1  0  0  0  0
  1  2  2  0  0  0  0
 35 36  1  0  0  0  0
 36 44  1  0  0  0  0
 36 37  2  0  0  0  0
  8  9  1  0  0  0  0
  9 17  1  0  0  0  0
  9 10  2  0  0  0  0
 18 19  1  0  0  0  0
 19 34  1  0  0  0  0
 19 20  2  0  0  0  0
 35 38  1  0  0  0  0
  8 11  1  0  0  0  0
 44 45  1  0  0  0  0
 18 21  1  0  0  0  0
 34 35  1  0  0  0  0
  7  8  1  0  0  0  0
 17 18  1  0  0  0  0
 24 31  1  0  0  0  0
 25 32  1  0  0  0  0
  3  4  1  0  0  0  0
  3  5  1  0  0  0  0
  3  6  1  0  0  0  0
 38 41  1  0  0  0  0
 38 42  1  0  0  0  0
 38 43  1  0  0  0  0
 11 14  1  0  0  0  0
 11 15  1  0  0  0  0
 11 16  1  0  0  0  0
 45 47  1  0  0  0  0
 45 48  1  0  0  0  0
 45 49  1  0  0  0  0
 21 29  1  0  0  0  0
 21 30  1  0  0  0  0
 35 40  1  0  0  0  0
  8 13  1  0  0  0  0
 18 28  1  0  0  0  0
 26 33  1  0  0  0  0
 44 46  1  0  0  0  0
  7 12  1  0  0  0  0
 34 39  1  0  0  0  0
 17 27  1  0  0  0  0
M  END
$$$$

  -OEChem-05262214473D

 49 49  0     1  0  0  0  0  0999 V2000
   -1.6183    0.5613    3.8201 C   0  0  0  0  0  0  0  0  0  0  0  0
   -0.6710   -0.0534    3.3444 O   0  0  0  0  0  0  0  0  0  0  0  0
   -2.0502    0.2789    5.2208 C   0  0  0  0  0  0  0  0  0  0  0  0
   -2.8099   -0.5175    5.2742 H   0  0  0  0  0  0  0  0  0  0  0  0
   -1.2190   -0.0687    5.8551 H   0  0  0  0  0  0  0  0  0  0  0  0
   -2.4882    1.1338    5.7604 H   0  0  0  0  0  0  0  0  0  0  0  0
   -2.3680    1.5337    3.1790 N   0  0  0  0  0  0  0  0  0  0  0  0
   -2.1212    1.9597    1.8266 C   0  0  2  0  0  0  0  0  0  0  0  0
   -0.7862    1.3744    1.3854 C   0  0  0  0  0  0  0  0  0  0  0  0
    0.0859    1.0216    2.1767 O   0  0  0  0  0  0  0  0  0  0  0  0
   -2.1124    3.4765    1.7171 C   0  0  0  0  0  0  0  0  0  0  0  0
   -3.1331    1.9695    3.6908 H   0  0  0  0  0  0  0  0  0  0  0  0
   -2.9253    1.5413    1.2115 H   0  0  0  0  0  0  0  0  0  0  0  0
   -1.3133    3.9138    2.3268 H   0  0  0  0  0  0  0  0  0  0  0  0
   -1.9529    3.7988    0.6829 H   0  0  0  0  0  0  0  0  0  0  0  0
   -3.0626    3.8977    2.0629 H   0  0  0  0  0  0  0  0  0  0  0  0
   -0.6635    1.3313    0.0020 N   0  0  0  0  0  0  0  0  0  0  0  0
    0.5138    0.8305   -0.6617 C   0  0  2  0  0  0  0  0  0  0  0  0
    1.0731    1.9687   -1.5077 C   0  0  0  0  0  0  0  0  0  0  0  0
    2.0599    1.8432   -2.2298 O   0  0  0  0  0  0  0  0  0  0  0  0
    0.2086   -0.3873   -1.5415 C   0  0  0  0  0  0  0  0  0  0  0  0
   -0.2706   -1.5768   -0.7458 C   0  0  0  0  0  0  0  0  0  0  0  0
    0.6109   -2.3203   -0.0017 N   0  0  0  0  0  0  0  0  0  0  0  0
   -1.5491   -2.0718   -0.6415 C   0  0  0  0  0  0  0  0  0  0  0  0
   -0.1255   -3.2588    0.5505 C   0  0  0  0  0  0  0  0  0  0  0  0
   -1.4402   -3.1493    0.1917 N   0  0  0  0  0  0  0  0  0  0  0  0
   -1.4467    1.6280   -0.5753 H   0  0  0  0  0  0  0  0  0  0  0  0
    1.2343    0.5813    0.1262 H   0  0  0  0  0  0  0  0  0  0  0  0
    1.0961   -0.6667   -2.1254 H   0  0  0  0  0  0  0  0  0  0  0  0
   -0.5596   -0.1397   -2.2860 H   0  0  0  0  0  0  0  0  0  0  0  0
   -2.4949   -1.7694   -1.0678 H   0  0  0  0  0  0  0  0  0  0  0  0
    0.2266   -4.0381    1.2117 H   0  0  0  0  0  0  0  0  0  0  0  0
   -2.1939   -3.7544    0.4893 H   0  0  0  0  0  0  0  0  0  0  0  0
    0.3094    3.1224   -1.3968 N   0  0  0  0  0  0  0  0  0  0  0  0
    0.6063    4.3424   -2.1124 C   0  0  2  0  0  0  0  0  0  0  0  0
    2.0773    4.6703   -1.8930 C   0  0  0  0  0  0  0  0  0  0  0  0
    2.7237    4.2464   -0.9372 O   0  0  0  0  0  0  0  0  0  0  0  0
   -0.2809    5.4866   -1.6473 C   0  0  0  0  0  0  0  0  0  0  0  0
   -0.4988    3.1085   -0.7817 H   0  0  0  0  0  0  0  0  0  0  0  0
    0.4318    4.1367   -3.1742 H   0  0  0  0  0  0  0  0  0  0  0  0
   -0.1201    5.7072   -0.5857 H   0  0  0  0  0  0  0  0  0  0  0  0
   -0.0745    6.4029   -2.2102 H   0  0  0  0  0  0  0  0  0  0  0  0
   -1.3394    5.2371   -1.7782 H   0  0  0  0  0  0  0  0  0  0  0  0
    2.5719    5.5270   -2.8665 N   0  0  0  0  0  0  0  0  0  0  0  0
    3.9380    5.9957   -2.8715 C   0  0  0  0  0  0  0  0  0  0  0  0
    1.9698    5.8130   -3.6330 H   0  0  0  0  0  0  0  0  0  0  0  0
    3.9993    6.9540   -2.3349 H   0  0  0  0  0  0  0  0  0  0  0  0
    4.5814    5.2551   -2.3738 H   0  0  0  0  0  0  0  0  0  0  0  0
    4.2740    6.1347   -3.9096 H   0  0  0  0  0  0  0  0  0  0  0  0
 22 24  2  0  0  0  0
 24 26  1  0  0  0  0
 23 25  2  0  0  0  0
 25 26  1  0  0  0  0
 21 22  1  0  0  0  0
 22 23  1  0  0  0  0
  1  3  1  0  0  0  0
  1  7  1  0  0  0  0
  1  2  2  0  0  0  0
 35 36  1  0  0  0  0
 36 44  1  0  0  0  0
 36 37  2  0  0  0  0
  8  9  1  0  0  0  0
  9 17  1  0  0  0  0
  9 10  2  0  0  0  0
 18 19  1  0  0  0  0
 19 34  1  0  0  0  0
 19 20  2  0  0  0  0
 35 38  1  0  0  0  0
  8 11  1  0  0  0  0
 44 45  1  0  0  0  0
 18 21  1  0  0  0  0
 34 35  1  0  0  0  0
  7  8  1  0  0  0  0
 17 18  1  0  0  0  0
 24 31  1  0  0  0  0
 25 32  1  0  0  0  0
  3  4  1  0  0  0  0
  3  5  1  0  0  0  0
  3  6  1  0  0  0  0
 38 41  1  0  0  0  0
 38 42  1  0  0  0  0
 38 43  1  0  0  0  0
 11 14  1  0  0  0  0
 11 15  1  0  0  0  0
 11 16  1  0  0  0  0
 45 47  1  0  0  0  0
 45 48  1  0  0  0  0
 45 49  1  0  0  0  0
 21 29  1  0  0  0  0
 21 30  1  0  0  0  0
 35 40  1  0  0  0  0
  8 13  1  0  0  0  0
 18 28  1  0  0  0  0
 26 33  1  0  0  0  0
 44 46  1  0  0  0  0
  7 12  1  0  0  0  0
 34 39  1  0  0  0  0
 17 27  1  0  0  0  0
M  END
$$$$

  -OEChem-05262214473D

 49 49  0     1  0  0  0  0  0999 V2000
   -1.6183    0.5613    3.8201 C   0  0  0  0  0  0  0  0  0  0  0  0
   -0.6710   -0.0534    3.3444 O   0  0  0  0  0  0  0  0  0  0  0  0
   -2.0502    0.2789    5.2208 C   0  0  0  0  0  0  0  0  0  0  0  0
   -2.8099   -0.5175    5.2742 H   0  0  0  0  0  0  0  0  0  0  0  0
   -1.2190   -0.0687    5.8551 H   0  0  0  0  0  0  0  0  0  0  0  0
   -2.4882    1.1338    5.7604 H   0  0  0  0  0  0  0  0  0  0  0  0
   -2.3680    1.5337    3.1790 N   0  0  0  0  0  0  0  0  0  0  0  0
   -2.1212    1.9597    1.8266 C   0  0  2  0  0  0  0  0  0  0  0  0
   -0.7862    1.3744    1.3854 C   0  0  0  0  0  0  0  0  0  0  0  0
    0.0859    1.0216    2.1767 O   0  0  0  0  0  0  0  0  0  0  0  0
   -2.1124    3.4765    1.7171 C   0  0  0  0  0  0  0  0  0  0  0  0
   -3.1331    1.9695    3.6908 H   0  0  0  0  0  0  0  0  0  0  0  0
   -2.9253    1.5413    1.2115 H   0  0  0  0  0  0  0  0  0  0  0  0
   -1.3133    3.9138    2.3268 H   0  0  0  0  0  0  0  0  0  0  0  0
   -1.9529    3.7988    0.6829 H   0  0  0  0  0  0  0  0  0  0  0  0
   -3.0626    3.8977    2.0629 H   0  0  0  0  0  0  0  0  0  0  0  0
   -0.6635    1.3313    0.0020 N   0  0  0  0  0  0  0  0  0  0  0  0
    0.5138    0.8305   -0.6617 C   0  0  2  0  0  0  0  0  0  0  0  0
    1.0731    1.9687   -1.5077 C   0  0  0  0  0  0  0  0  0  0  0  0
    1.8771    1.7914   -2.4204 O   0  0  0  0  0  0  0  0  0  0  0  0
    0.2086   -0.3873   -1.5415 C   0  0  0  0  0  0  0  0  0  0  0  0
   -0.2706   -1.5768   -0.7458 C   0  0  0  0  0  0  0  0  0  0  0  0
    0.6109   -2.3203   -0.0017 N   0  0  0  0  0  0  0  0  0  0  0  0
   -1.5491   -2.0718   -0.6415 C   0  0  0  0  0  0  0  0  0  0  0  0
   -0.1255   -3.2588    0.5505 C   0  0  0  0  0  0  0  0  0  0  0  0
   -1.4402   -3.1493    0.1917 N   0  0  0  0  0  0  0  0  0  0  0  0
   -1.4467    1.6280   -0.5753 H   0  0  0  0  0  0  0  0  0  0  0  0
    1.2343    0.5813    0.1262 H   0  0  0  0  0  0  0  0  0  0  0  0
    1.0961   -0.6667   -2.1254 H   0  0  0  0  0  0  0  0  0  0  0  0
   -0.5596   -0.1397   -2.2860 H   0  0  0  0  0  0  0  0  0  0  0  0
   -2.4949   -1.7694   -1.0678 H   0  0  0  0  0  0  0  0  0  0  0  0
    0.2266   -4.0381    1.2117 H   0  0  0  0  0  0  0  0  0  0  0  0
   -2.1939   -3.7544    0.4893 H   0  0  0  0  0  0  0  0  0  0  0  0
    0.5291    3.1954   -1.1533 N   0  0  0  0  0  0  0  0  0  0  0  0
    0.8705    4.4353   -1.8128 C   0  0  2  0  0  0  0  0  0  0  0  0
    2.3891    4.5367   -1.8665 C   0  0  0  0  0  0  0  0  0  0  0  0
    3.1297    3.9281   -1.0970 O   0  0  0  0  0  0  0  0  0  0  0  0
    0.2711    5.6306   -1.0885 C   0  0  0  0  0  0  0  0  0  0  0  0
   -0.1429    3.2232   -0.3920 H   0  0  0  0  0  0  0  0  0  0  0  0
    0.4719    4.3719   -2.8312 H   0  0  0  0  0  0  0  0  0  0  0  0
    0.6587    5.7105   -0.0663 H   0  0  0  0  0  0  0  0  0  0  0  0
    0.5067    6.5667   -1.6054 H   0  0  0  0  0  0  0  0  0  0  0  0
   -0.8187    5.5413   -1.0247 H   0  0  0  0  0  0  0  0  0  0  0  0
    2.8188    5.4202   -2.8468 N   0  0  0  0  0  0  0  0  0  0  0  0
    4.2154    5.6990   -3.0872 C   0  0  0  0  0  0  0  0  0  0  0  0
    2.1355    5.8665   -3.4515 H   0  0  0  0  0  0  0  0  0  0  0  0
    4.5215    6.5761   -2.4981 H   0  0  0  0  0  0  0  0  0  0  0  0
    4.8193    4.8289   -2.7900 H   0  0  0  0  0  0  0  0  0  0  0  0
    4.3694    5.9040   -4.1569 H   0  0  0  0  0  0  0  0  0  0  0  0
 22 24  2  0  0  0  0
 24 26  1  0  0  0  0
 23 25  2  0  0  0  0
 25 26  1  0  0  0  0
 21 22  1  0  0  0  0
 22 23  1  0  0  0  0
  1  3  1  0  0  0  0
  1  7  1  0  0  0  0
  1  2  2  0  0  0  0
 35 36  1  0  0  0  0
 36 44  1  0  0  0  0
 36 37  2  0  0  0  0
  8  9  1  0  0  0  0
  9 17  1  0  0  0  0
  9 10  2  0  0  0  0
 18 19  1  0  0  0  0
 19 34  1  0  0  0  0
 19 20  2  0  0  0  0
 35 38  1  0  0  0  0
  8 11  1  0  0  0  0
 44 45  1  0  0  0  0
 18 21  1  0  0  0  0
 34 35  1  0  0  0  0
  7  8  1  0  0  0  0
 17 18  1  0  0  0  0
 24 31  1  0  0  0  0
 25 32  1  0  0  0  0
  3  4  1  0  0  0  0
  3  5  1  0  0  0  0
  3  6  1  0  0  0  0
 38 41  1  0  0  0  0
 38 42  1  0  0  0  0
 38 43  1  0  0  0  0
 11 14  1  0  0  0  0
 11 15  1  0  0  0  0
 11 16  1  0  0  0  0
 45 47  1  0  0  0  0
 45 48  1  0  0  0  0
 45 49  1  0  0  0  0
 21 29  1  0  0  0  0
 21 30  1  0  0  0  0
 35 40  1  0  0  0  0
  8 13  1  0  0  0  0
 18 28  1  0  0  0  0
 26 33  1  0  0  0  0
 44 46  1  0  0  0  0
  7 12  1  0  0  0  0
 34 39  1  0  0  0  0
 17 27  1  0  0  0  0
M  END
$$$$

  -OEChem-05262214473D

 49 49  0     1  0  0  0  0  0999 V2000
   -1.6183    0.5613    3.8201 C   0  0  0  0  0  0  0  0  0  0  0  0
   -0.6710   -0.0534    3.3444 O   0  0  0  0  0  0  0  0  0  0  0  0
   -2.0502    0.2789    5.2208 C   0  0  0  0  0  0  0  0  0  0  0  0
   -2.8099   -0.5175    5.2742 H   0  0  0  0  0  0  0  0  0  0  0  0
   -1.2190   -0.0687    5.8551 H   0  0  0  0  0  0  0  0  0  0  0  0
   -2.4882    1.1338    5.7604 H   0  0  0  0  0  0  0  0  0  0  0  0
   -2.3680    1.5337    3.1790 N   0  0  0  0  0  0  0  0  0  0  0  0
   -2.1212    1.9597    1.8266 C   0  0  2  0  0  0  0  0  0  0  0  0
   -0.7862    1.3744    1.3854 C   0  0  0  0  0  0  0  0  0  0  0  0
    0.0859    1.0216    2.1767 O   0  0  0  0  0  0  0  0  0  0  0  0
   -2.1124    3.4765    1.7171 C   0  0  0  0  0  0  0  0  0  0  0  0
   -3.1331    1.9695    3.6908 H   0  0  0  0  0  0  0  0  0  0  0  0
   -2.9253    1.5413    1.2115 H   0  0  0  0  0  0  0  0  0  0  0  0
   -1.3133    3.9138    2.3268 H   0  0  0  0  0  0  0  0  0  0  0  0
   -1.9529    3.7988    0.6829 H   0  0  0  0  0  0  0  0  0  0  0  0
   -3.0626    3.8977    2.0629 H   0  0  0  0  0  0  0  0  0  0  0  0
   -0.6635    1.3313    0.0020 N   0  0  0  0  0  0  0  0  0  0  0  0
    0.5138    0.8305   -0.6617 C   0  0  2  0  0  0  0  0  0  0  0  0
    1.0731    1.9687   -1.5077 C   0  0  0  0  0  0  0  0  0  0  0  0
    1.6562    1.7857   -2.5742 O   0  0  0  0  0  0  0  0  0  0  0  0
    0.2086   -0.3873   -1.5415 C   0  0  0  0  0  0  0  0  0  0  0  0
   -0.2706   -1.5768   -0.7458 C   0  0  0  0  0  0  0  0  0  0  0  0
    0.6109   -2.3203   -0.0017 N   0  0  0  0  0  0  0  0  0  0  0  0
   -1.5491   -2.0718   -0.6415 C   0  0  0  0  0  0  0  0  0  0  0  0
   -0.1255   -3.2588    0.5505 C   0  0  0  0  0  0  0  0  0  0  0  0
   -1.4402   -3.1493    0.1917 N   0  0  0  0  0  0  0  0  0  0  0  0
   -1.4467    1.6280   -0.5753 H   0  0  0  0  0  0  0  0  0  0  0  0
    1.2343    0.5813    0.1262 H   0  0  0  0  0  0  0  0  0  0  0  0
    1.0961   -0.6667   -2.1254 H   0  0  0  0  0  0  0  0  0  0  0  0
   -0.5596   -0.1397   -2.2860 H   0  0  0  0  0  0  0  0  0  0  0  0
   -2.4949   -1.7694   -1.0678 H   0  0  0  0  0  0  0  0  0  0  0  0
    0.2266   -4.0381    1.2117 H   0  0  0  0  0  0  0  0  0  0  0  0
   -2.1939   -3.7544    0.4893 H   0  0  0  0  0  0  0  0  0  0  0  0
    0.7988    3.2113   -0.9535 N   0  0  0  0  0  0  0  0  0  0  0  0
    1.1969    4.4586   -1.5656 C   0  0  2  0  0  0  0  0  0  0  0  0
    2.6763    4.3604   -1.9139 C   0  0  0  0  0  0  0  0  0  0  0  0
    3.4453    3.5776   -1.3599 O   0  0  0  0  0  0  0  0  0  0  0  0
    0.9330    5.6374   -0.6418 C   0  0  0  0  0  0  0  0  0  0  0  0
    0.2927    3.2459   -0.0735 H   0  0  0  0  0  0  0  0  0  0  0  0
    0.6106    4.5608   -2.4854 H   0  0  0  0  0  0  0  0  0  0  0  0
    1.5118    5.5525    0.2852 H   0  0  0  0  0  0  0  0  0  0  0  0
    1.2086    6.5841   -1.1180 H   0  0  0  0  0  0  0  0  0  0  0  0
   -0.1265    5.6888   -0.3685 H   0  0  0  0  0  0  0  0  0  0  0  0
    3.0458    5.2798   -2.8856 N   0  0  0  0  0  0  0  0  0  0  0  0
    4.3991    5.3930   -3.3774 C   0  0  0  0  0  0  0  0  0  0  0  0
    2.3382    5.8771   -3.3033 H   0  0  0  0  0  0  0  0  0  0  0  0
    4.9400    6.1515   -2.7925 H   0  0  0  0  0  0  0  0  0  0  0  0
    4.9074    4.4226   -3.2784 H   0  0  0  0  0  0  0  0  0  0  0  0
    4.3806    5.6910   -4.4361 H   0  0  0  0  0  0  0  0  0  0  0  0
 22 24  2  0  0  0  0
 24 26  1  0  0  0  0
 23 25  2  0  0  0  0
 25 26  1  0  0  0  0
 21 22  1  0  0  0  0
 22 23  1  0  0  0  0
  1  3  1  0  0  0  0
  1  7  1  0  0  0  0
  1  2  2  0  0  0  0
 35 36  1  0  0  0  0
 36 44  1  0  0  0  0
 36 37  2  0  0  0  0
  8  9  1  0  0  0  0
  9 17  1  0  0  0  0
  9 10  2  0  0  0  0
 18 19  1  0  0  0  0
 19 34  1  0  0  0  0
 19 20  2  0  0  0  0
 35 38  1  0  0  0  0
  8 11  1  0  0  0  0
 44 45  1  0  0  0  0
 18 21  1  0  0  0  0
 34 35  1  0  0  0  0
  7  8  1  0  0  0  0
 17 18  1  0  0  0  0
 24 31  1  0  0  0  0
 25 32  1  0  0  0  0
  3  4  1  0  0  0  0
  3  5  1  0  0  0  0
  3  6  1  0  0  0  0
 38 41  1  0  0  0  0
 38 42  1  0  0  0  0
 38 43  1  0  0  0  0
 11 14  1  0  0  0  0
 11 15  1  0  0  0  0
 11 16  1  0  0  0  0
 45 47  1  0  0  0  0
 45 48  1  0  0  0  0
 45 49  1  0  0  0  0
 21 29  1  0  0  0  0
 21 30  1  0  0  0  0
 35 40  1  0  0  0  0
  8 13  1  0  0  0  0
 18 28  1  0  0  0  0
 26 33  1  0  0  0  0
 44 46  1  0  0  0  0
  7 12  1  0  0  0  0
 34 39  1  0  0  0  0
 17 27  1  0  0  0  0
M  END
$$$$

  -OEChem-05262214473D

 49 49  0     1  0  0  0  0  0999 V2000
   -1.6183    0.5613    3.8201 C   0  0  0  0  0  0  0  0  0  0  0  0
   -0.6710   -0.0534    3.3444 O   0  0  0  0  0  0  0  0  0  0  0  0
   -2.0502    0.2789    5.2208 C   0  0  0  0  0  0  0  0  0  0  0  0
   -2.8099   -0.5175    5.2742 H   0  0  0  0  0  0  0  0  0  0  0  0
   -1.2190   -0.0687    5.8551 H   0  0  0  0  0  0  0  0  0  0  0  0
   -2.4882    1.1338    5.7604 H   0  0  0  0  0  0  0  0  0  0  0  0
   -2.3680    1.5337    3.1790 N   0  0  0  0  0  0  0  0  0  0  0  0
   -2.1212    1.9597    1.8266 C   0  0  2  0  0  0  0  0  0  0  0  0
   -0.7862    1.3744    1.3854 C   0  0  0  0  0  0  0  0  0  0  0  0
    0.0859    1.0216    2.1767 O   0  0  0  0  0  0  0  0  0  0  0  0
   -2.1124    3.4765    1.7171 C   0  0  0  0  0  0  0  0  0  0  0  0
   -3.1331    1.9695    3.6908 H   0  0  0  0  0  0  0  0  0  0  0  0
   -2.9253    1.5413    1.2115 H   0  0  0  0  0  0  0  0  0  0  0  0
   -1.3133    3.9138    2.3268 H   0  0  0  0  0  0  0  0  0  0  0  0
   -1.9529    3.7988    0.6829 H   0  0  0  0  0  0  0  0  0  0  0  0
   -3.0626    3.8977    2.0629 H   0  0  0  0  0  0  0  0  0  0  0  0
   -0.6635    1.3313    0.0020 N   0  0  0  0  0  0  0  0  0  0  0  0
    0.5138    0.8305   -0.6617 C   0  0  2  0  0  0  0  0  0  0  0  0
    1.0731    1.9687   -1.5077 C   0  0  0  0  0  0  0  0  0  0  0  0
    1.4123    1.8264   -2.6805 O   0  0  0  0  0  0  0  0  0  0  0  0
    0.2086   -0.3873   -1.5415 C   0  0  0  0  0  0  0  0  0  0  0  0
   -0.2706   -1.5768   -0.7458 C   0  0  0  0  0  0  0  0  0  0  0  0
    0.6109   -2.3203   -0.0017 N   0  0  0  0  0  0  0  0  0  0  0  0
   -1.5491   -2.0718   -0.6415 C   0  0  0  0  0  0  0  0  0  0  0  0
   -0.1255   -3.2588    0.5505 C   0  0  0  0  0  0  0  0  0  0  0  0
   -1.4402   -3.1493    0.1917 N   0  0  0  0  0  0  0  0  0  0  0  0
   -1.4467    1.6280   -0.5753 H   0  0  0  0  0  0  0  0  0  0  0  0
    1.2343    0.5813    0.1262 H   0  0  0  0  0  0  0  0  0  0  0  0
    1.0961   -0.6667   -2.1254 H   0  0  0  0  0  0  0  0  0  0  0  0
   -0.5596   -0.1397   -2.2860 H   0  0  0  0  0  0  0  0  0  0  0  0
   -2.4949   -1.7694   -1.0678 H   0  0  0  0  0  0  0  0  0  0  0  0
    0.2266   -4.0381    1.2117 H   0  0  0  0  0  0  0  0  0  0  0  0
   -2.1939   -3.7544    0.4893 H   0  0  0  0  0  0  0  0  0  0  0  0
    1.1002    3.1690   -0.8112 N   0  0  0  0  0  0  0  0  0  0  0  0
    1.5633    4.4107   -1.3878 C   0  0  2  0  0  0  0  0  0  0  0  0
    2.9192    4.1534   -2.0318 C   0  0  0  0  0  0  0  0  0  0  0  0
    3.6490    3.2186   -1.7082 O   0  0  0  0  0  0  0  0  0  0  0  0
    1.6596    5.5064   -0.3376 C   0  0  0  0  0  0  0  0  0  0  0  0
    0.7783    3.1750    0.1522 H   0  0  0  0  0  0  0  0  0  0  0  0
    0.8386    4.6905   -2.1602 H   0  0  0  0  0  0  0  0  0  0  0  0
    2.3810    5.2440    0.4448 H   0  0  0  0  0  0  0  0  0  0  0  0
    1.9832    6.4538   -0.7811 H   0  0  0  0  0  0  0  0  0  0  0  0
    0.6901    5.6695    0.1455 H   0  0  0  0  0  0  0  0  0  0  0  0
    3.2374    5.1153   -2.9803 N   0  0  0  0  0  0  0  0  0  0  0  0
    4.4765    5.0987   -3.7222 C   0  0  0  0  0  0  0  0  0  0  0  0
    2.5643    5.8441   -3.1982 H   0  0  0  0  0  0  0  0  0  0  0  0
    5.2265    5.7093   -3.1981 H   0  0  0  0  0  0  0  0  0  0  0  0
    4.8398    4.0638   -3.8058 H   0  0  0  0  0  0  0  0  0  0  0  0
    4.3069    5.5101   -4.7282 H   0  0  0  0  0  0  0  0  0  0  0  0
 22 24  2  0  0  0  0
 24 26  1  0  0  0  0
 23 25  2  0  0  0  0
 25 26  1  0  0  0  0
 21 22  1  0  0  0  0
 22 23  1  0  0  0  0
  1  3  1  0  0  0  0
  1  7  1  0  0  0  0
  1  2  2  0  0  0  0
 35 36  1  0  0  0  0
 36 44  1  0  0  0  0
 36 37  2  0  0  0  0
  8  9  1  0  0  0  0
  9 17  1  0  0  0  0
  9 10  2  0  0  0  0
 18 19  1  0  0  0  0
 19 34  1  0  0  0  0
 19 20  2  0  0  0  0
 35 38  1  0  0  0  0
  8 11  1  0  0  0  0
 44 45  1  0  0  0  0
 18 21  1  0  0  0  0
 34 35  1  0  0  0  0
  7  8  1  0  0  0  0
 17 18  1  0  0  0  0
 24 31  1  0  0  0  0
 25 32  1  0  0  0  0
  3  4  1  0  0  0  0
  3  5  1  0  0  0  0
  3  6  1  0  0  0  0
 38 41  1  0  0  0  0
 38 42  1  0  0  0  0
 38 43  1  0  0  0  0
 11 14  1  0  0  0  0
 11 15  1  0  0  0  0
 11 16  1  0  0  0  0
 45 47  1  0  0  0  0
 45 48  1  0  0  0  0
 45 49  1  0  0  0  0
 21 29  1  0  0  0  0
 21 30  1  0  0  0  0
 35 40  1  0  0  0  0
  8 13  1  0  0  0  0
 18 28  1  0  0  0  0
 26 33  1  0  0  0  0
 44 46  1  0  0  0  0
  7 12  1  0  0  0  0
 34 39  1  0  0  0  0
 17 27  1  0  0  0  0
M  END
$$$$

  -OEChem-05262214473D

 49 49  0     1  0  0  0  0  0999 V2000
   -1.6183    0.5613    3.8201 C   0  0  0  0  0  0  0  0  0  0  0  0
   -0.6710   -0.0534    3.3444 O   0  0  0  0  0  0  0  0  0  0  0  0
   -2.0502    0.2789    5.2208 C   0  0  0  0  0  0  0  0  0  0  0  0
   -2.8099   -0.5175    5.2742 H   0  0  0  0  0  0  0  0  0  0  0  0
   -1.2190   -0.0687    5.8551 H   0  0  0  0  0  0  0  0  0  0  0  0
   -2.4882    1.1338    5.7604 H   0  0  0  0  0  0  0  0  0  0  0  0
   -2.3680    1.5337    3.1790 N   0  0  0  0  0  0  0  0  0  0  0  0
   -2.1212    1.9597    1.8266 C   0  0  2  0  0  0  0  0  0  0  0  0
   -0.7862    1.3744    1.3854 C   0  0  0  0  0  0  0  0  0  0  0  0
    0.0859    1.0216    2.1767 O   0  0  0  0  0  0  0  0  0  0  0  0
   -2.1124    3.4765    1.7171 C   0  0  0  0  0  0  0  0  0  0  0  0
   -3.1331    1.9695    3.6908 H   0  0  0  0  0  0  0  0  0  0  0  0
   -2.9253    1.5413    1.2115 H   0  0  0  0  0  0  0  0  0  0  0  0
   -1.3133    3.9138    2.3268 H   0  0  0  0  0  0  0  0  0  0  0  0
   -1.9529    3.7988    0.6829 H   0  0  0  0  0  0  0  0  0  0  0  0
   -3.0626    3.8977    2.0629 H   0  0  0  0  0  0  0  0  0  0  0  0
   -0.6635    1.3313    0.0020 N   0  0  0  0  0  0  0  0  0  0  0  0
    0.5138    0.8305   -0.6617 C   0  0  2  0  0  0  0  0  0  0  0  0
    1.0731    1.9687   -1.5077 C   0  0  0  0  0  0  0  0  0  0  0  0
    1.1621    1.9110   -2.7323 O   0  0  0  0  0  0  0  0  0  0  0  0
    0.2086   -0.3873   -1.5415 C   0  0  0  0  0  0  0  0  0  0  0  0
   -0.2706   -1.5768   -0.7458 C   0  0  0  0  0  0  0  0  0  0  0  0
    0.6109   -2.3203   -0.0017 N   0  0  0  0  0  0  0  0  0  0  0  0
   -1.5491   -2.0718   -0.6415 C   0  0  0  0  0  0  0  0  0  0  0  0
   -0.1255   -3.2588    0.5505 C   0  0  0  0  0  0  0  0  0  0  0  0
   -1.4402   -3.1493    0.1917 N   0  0  0  0  0  0  0  0  0  0  0  0
   -1.4467    1.6280   -0.5753 H   0  0  0  0  0  0  0  0  0  0  0  0
    1.2343    0.5813    0.1262 H   0  0  0  0  0  0  0  0  0  0  0  0
    1.0961   -0.6667   -2.1254 H   0  0  0  0  0  0  0  0  0  0  0  0
   -0.5596   -0.1397   -2.2860 H   0  0  0  0  0  0  0  0  0  0  0  0
   -2.4949   -1.7694   -1.0678 H   0  0  0  0  0  0  0  0  0  0  0  0
    0.2266   -4.0381    1.2117 H   0  0  0  0  0  0  0  0  0  0  0  0
   -2.1939   -3.7544    0.4893 H   0  0  0  0  0  0  0  0  0  0  0  0
    1.4127    3.0713   -0.7360 N   0  0  0  0  0  0  0  0  0  0  0  0
    1.9447    4.2950   -1.2913 C   0  0  2  0  0  0  0  0  0  0  0  0
    3.1013    3.9297   -2.2124 C   0  0  0  0  0  0  0  0  0  0  0  0
    3.7269    2.8757   -2.1180 O   0  0  0  0  0  0  0  0  0  0  0  0
    2.4014    5.2467   -0.1966 C   0  0  0  0  0  0  0  0  0  0  0  0
    1.2807    3.0153    0.2696 H   0  0  0  0  0  0  0  0  0  0  0  0
    1.1403    4.7521   -1.8778 H   0  0  0  0  0  0  0  0  0  0  0  0
    3.2072    4.8059    0.4017 H   0  0  0  0  0  0  0  0  0  0  0  0
    2.7777    6.1847   -0.6178 H   0  0  0  0  0  0  0  0  0  0  0  0
    1.5755    5.4848    0.4824 H   0  0  0  0  0  0  0  0  0  0  0  0
    3.3806    4.9378   -3.1244 N   0  0  0  0  0  0  0  0  0  0  0  0
    4.4423    4.8360   -4.0982 C   0  0  0  0  0  0  0  0  0  0  0  0
    2.7981    5.7698   -3.1435 H   0  0  0  0  0  0  0  0  0  0  0  0
    5.3612    5.2795   -3.6873 H   0  0  0  0  0  0  0  0  0  0  0  0
    4.6211    3.7770   -4.3362 H   0  0  0  0  0  0  0  0  0  0  0  0
    4.1533    5.3737   -5.0133 H   0  0  0  0  0  0  0  0  0  0  0  0
 22 24  2  0  0  0  0
 24 26  1  0  0  0  0
 23 25  2  0  0  0  0
 25 26  1  0  0  0  0
 21 22  1  0  0  0  0
 22 23  1  0  0  0  0
  1  3  1  0  0  0  0
  1  7  1  0  0  0  0
  1  2  2  0  0  0  0
 35 36  1  0  0  0  0
 36 44  1  0  0  0  0
 36 37  2  0  0  0  0
  8  9  1  0  0  0  0
  9 17  1  0  0  0  0
  9 10  2  0  0  0  0
 18 19  1  0  0  0  0
 19 34  1  0  0  0  0
 19 20  2  0  0  0  0
 35 38  1  0  0  0  0
  8 11  1  0  0  0  0
 44 45  1  0  0  0  0
 18 21  1  0  0  0  0
 34 35  1  0  0  0  0
  7  8  1  0  0  0  0
 17 18  1  0  0  0  0
 24 31  1  0  0  0  0
 25 32  1  0  0  0  0
  3  4  1  0  0  0  0
  3  5  1  0  0  0  0
  3  6  1  0  0  0  0
 38 41  1  0  0  0  0
 38 42  1  0  0  0  0
 38 43  1  0  0  0  0
 11 14  1  0  0  0  0
 11 15  1  0  0  0  0
 11 16  1  0  0  0  0
 45 47  1  0  0  0  0
 45 48  1  0  0  0  0
 45 49  1  0  0  0  0
 21 29  1  0  0  0  0
 21 30  1  0  0  0  0
 35 40  1  0  0  0  0
  8 13  1  0  0  0  0
 18 28  1  0  0  0  0
 26 33  1  0  0  0  0
 44 46  1  0  0  0  0
  7 12  1  0  0  0  0
 34 39  1  0  0  0  0
 17 27  1  0  0  0  0
M  END
$$$$

  -OEChem-05262214473D

 49 49  0     1  0  0  0  0  0999 V2000
   -1.6183    0.5613    3.8201 C   0  0  0  0  0  0  0  0  0  0  0  0
   -0.6710   -0.0534    3.3444 O   0  0  0  0  0  0  0  0  0  0  0  0
   -2.0502    0.2789    5.2208 C   0  0  0  0  0  0  0  0  0  0  0  0
   -2.8099   -0.5175    5.2742 H   0  0  0  0  0  0  0  0  0  0  0  0
   -1.2190   -0.0687    5.8551 H   0  0  0  0  0  0  0  0  0  0  0  0
   -2.4882    1.1338    5.7604 H   0  0  0  0  0  0  0  0  0  0  0  0
   -2.3680    1.5337    3.1790 N   0  0  0  0  0  0  0  0  0  0  0  0
   -2.1212    1.9597    1.8266 C   0  0  2  0  0  0  0  0  0  0  0  0
   -0.7862    1.3744    1.3854 C   0  0  0  0  0  0  0  0  0  0  0  0
    0.0859    1.0216    2.1767 O   0  0  0  0  0  0  0  0  0  0  0  0
   -2.1124    3.4765    1.7171 C   0  0  0  0  0  0  0  0  0  0  0  0
   -3.1331    1.9695    3.6908 H   0  0  0  0  0  0  0  0  0  0  0  0
   -2.9253    1.5413    1.2115 H   0  0  0  0  0  0  0  0  0  0  0  0
   -1.3133    3.9138    2.3268 H   0  0  0  0  0  0  0  0  0  0  0  0
   -1.9529    3.7988    0.6829 H   0  0  0  0  0  0  0  0  0  0  0  0
   -3.0626    3.8977    2.0629 H   0  0  0  0  0  0  0  0  0  0  0  0
   -0.6635    1.3313    0.0020 N   0  0  0  0  0  0  0  0  0  0  0  0
    0.5138    0.8305   -0.6617 C   0  0  2  0  0  0  0  0  0  0  0  0
    1.0731    1.9687   -1.5077 C   0  0  0  0  0  0  0  0  0  0  0  0
    0.9225    2.0335   -2.7259 O   0  0  0  0  0  0  0  0  0  0  0  0
    0.2086   -0.3873   -1.5415 C   0  0  0  0  0  0  0  0  0  0  0  0
   -0.2706   -1.5768   -0.7458 C   0  0  0  0  0  0  0  0  0  0  0  0
    0.6109   -2.3203   -0.0017 N   0  0  0  0  0  0  0  0  0  0  0  0
   -1.5491   -2.0718   -0.6415 C   0  0  0  0  0  0  0  0  0  0  0  0
   -0.1255   -3.2588    0.5505 C   0  0  0  0  0  0  0  0  0  0  0  0
   -1.4402   -3.1493    0.1917 N   0  0  0  0  0  0  0  0  0  0  0  0
   -1.4467    1.6280   -0.5753 H   0  0  0  0  0  0  0  0  0  0  0  0
    1.2343    0.5813    0.1262 H   0  0  0  0  0  0  0  0  0  0  0  0
    1.0961   -0.6667   -2.1254 H   0  0  0  0  0  0  0  0  0  0  0  0
   -0.5596   -0.1397   -2.2860 H   0  0  0  0  0  0  0  0  0  0  0  0
   -2.4949   -1.7694   -1.0678 H   0  0  0  0  0  0  0  0  0  0  0  0
    0.2266   -4.0381    1.2117 H   0  0  0  0  0  0  0  0  0  0  0  0
   -2.1939   -3.7544    0.4893 H   0  0  0  0  0  0  0  0  0  0  0  0
    1.7151    2.9249   -0.7331 N   0  0  0  0  0  0  0  0  0  0  0  0
    2.3152    4.1192   -1.2828 C   0  0  2  0  0  0  0  0  0  0  0  0
    3.2101    3.7046   -2.4432 C   0  0  0  0  0  0  0  0  0  0  0  0
    3.6736    2.5722   -2.5615 O   0  0  0  0  0  0  0  0  0  0  0  0
    3.1079    4.8758   -0.2284 C   0  0  0  0  0  0  0  0  0  0  0  0
    1.7658    2.7778    0.2707 H   0  0  0  0  0  0  0  0  0  0  0  0
    1.4951    4.7415   -1.6575 H   0  0  0  0  0  0  0  0  0  0  0  0
    3.9340    4.2683    0.1589 H   0  0  0  0  0  0  0  0  0  0  0  0
    3.5381    5.7952   -0.6392 H   0  0  0  0  0  0  0  0  0  0  0  0
    2.4693    5.1473    0.6191 H   0  0  0  0  0  0  0  0  0  0  0  0
    3.4655    4.7595   -3.3082 N   0  0  0  0  0  0  0  0  0  0  0  0
    4.2989    4.6229   -4.4798 C   0  0  0  0  0  0  0  0  0  0  0  0
    3.0240    5.6592   -3.1429 H   0  0  0  0  0  0  0  0  0  0  0  0
    5.3352    4.8914   -4.2266 H   0  0  0  0  0  0  0  0  0  0  0  0
    4.2661    3.5818   -4.8335 H   0  0  0  0  0  0  0  0  0  0  0  0
    3.9302    5.2911   -5.2719 H   0  0  0  0  0  0  0  0  0  0  0  0
 22 24  2  0  0  0  0
 24 26  1  0  0  0  0
 23 25  2  0  0  0  0
 25 26  1  0  0  0  0
 21 22  1  0  0  0  0
 22 23  1  0  0  0  0
  1  3  1  0  0  0  0
  1  7  1  0  0  0  0
  1  2  2  0  0  0  0
 35 36  1  0  0  0  0
 36 44  1  0  0  0  0
 36 37  2  0  0  0  0
  8  9  1  0  0  0  0
  9 17  1  0  0  0  0
  9 10  2  0  0  0  0
 18 19  1  0  0  0  0
 19 34  1  0  0  0  0
 19 20  2  0  0  0  0
 35 38  1  0  0  0  0
  8 11  1  0  0  0  0
 44 45  1  0  0  0  0
 18 21  1  0  0  0  0
 34 35  1  0  0  0  0
  7  8  1  0  0  0  0
 17 18  1  0  0  0  0
 24 31  1  0  0  0  0
 25 32  1  0  0  0  0
  3  4  1  0  0  0  0
  3  5  1  0  0  0  0
  3  6  1  0  0  0  0
 38 41  1  0  0  0  0
 38 42  1  0  0  0  0
 38 43  1  0  0  0  0
 11 14  1  0  0  0  0
 11 15  1  0  0  0  0
 11 16  1  0  0  0  0
 45 47  1  0  0  0  0
 45 48  1  0  0  0  0
 45 49  1  0  0  0  0
 21 29  1  0  0  0  0
 21 30  1  0  0  0  0
 35 40  1  0  0  0  0
  8 13  1  0  0  0  0
 18 28  1  0  0  0  0
 26 33  1  0  0  0  0
 44 46  1  0  0  0  0
  7 12  1  0  0  0  0
 34 39  1  0  0  0  0
 17 27  1  0  0  0  0
M  END
$$$$

  -OEChem-05262214473D

 49 49  0     1  0  0  0  0  0999 V2000
   -1.6183    0.5613    3.8201 C   0  0  0  0  0  0  0  0  0  0  0  0
   -0.6710   -0.0534    3.3444 O   0  0  0  0  0  0  0  0  0  0  0  0
   -2.0502    0.2789    5.2208 C   0  0  0  0  0  0  0  0  0  0  0  0
   -2.8099   -0.5175    5.2742 H   0  0  0  0  0  0  0  0  0  0  0  0
   -1.2190   -0.0687    5.8551 H   0  0  0  0  0  0  0  0  0  0  0  0
   -2.4882    1.1338    5.7604 H   0  0  0  0  0  0  0  0  0  0  0  0
   -2.3680    1.5337    3.1790 N   0  0  0  0  0  0  0  0  0  0  0  0
   -2.1212    1.9597    1.8266 C   0  0  2  0  0  0  0  0  0  0  0  0
   -0.7862    1.3744    1.3854 C   0  0  0  0  0  0  0  0  0  0  0  0
    0.0859    1.0216    2.1767 O   0  0  0  0  0  0  0  0  0  0  0  0
   -2.1124    3.4765    1.7171 C   0  0  0  0  0  0  0  0  0  0  0  0
   -3.1331    1.9695    3.6908 H   0  0  0  0  0  0  0  0  0  0  0  0
   -2.9253    1.5413    1.2115 H   0  0  0  0  0  0  0  0  0  0  0  0
   -1.3133    3.9138    2.3268 H   0  0  0  0  0  0  0  0  0  0  0  0
   -1.9529    3.7988    0.6829 H   0  0  0  0  0  0  0  0  0  0  0  0
   -3.0626    3.8977    2.0629 H   0  0  0  0  0  0  0  0  0  0  0  0
   -0.6635    1.3313    0.0020 N   0  0  0  0  0  0  0  0  0  0  0  0
    0.5138    0.8305   -0.6617 C   0  0  2  0  0  0  0  0  0  0  0  0
    1.0731    1.9687   -1.5077 C   0  0  0  0  0  0  0  0  0  0  0  0
    0.7099    2.1856   -2.6618 O   0  0  0  0  0  0  0  0  0  0  0  0
    0.2086   -0.3873   -1.5415 C   0  0  0  0  0  0  0  0  0  0  0  0
   -0.2706   -1.5768   -0.7458 C   0  0  0  0  0  0  0  0  0  0  0  0
    0.6109   -2.3203   -0.0017 N   0  0  0  0  0  0  0  0  0  0  0  0
   -1.5491   -2.0718   -0.6415 C   0  0  0  0  0  0  0  0  0  0  0  0
   -0.1255   -3.2588    0.5505 C   0  0  0  0  0  0  0  0  0  0  0  0
   -1.4402   -3.1493    0.1917 N   0  0  0  0  0  0  0  0  0  0  0  0
   -1.4467    1.6280   -0.5753 H   0  0  0  0  0  0  0  0  0  0  0  0
    1.2343    0.5813    0.1262 H   0  0  0  0  0  0  0  0  0  0  0  0
    1.0961   -0.6667   -2.1254 H   0  0  0  0  0  0  0  0  0  0  0  0
   -0.5596   -0.1397   -2.2860 H   0  0  0  0  0  0  0  0  0  0  0  0
   -2.4949   -1.7694   -1.0678 H   0  0  0  0  0  0  0  0  0  0  0  0
    0.2266   -4.0381    1.2117 H   0  0  0  0  0  0  0  0  0  0  0  0
   -2.1939   -3.7544    0.4893 H   0  0  0  0  0  0  0  0  0  0  0  0
    1.9868    2.7397   -0.8025 N   0  0  0  0  0  0  0  0  0  0  0  0
    2.6494    3.8955   -1.3629 C   0  0  2  0  0  0  0  0  0  0  0  0
    3.2384    3.4935   -2.7086 C   0  0  0  0  0  0  0  0  0  0  0  0
    3.4930    2.3289   -3.0084 O   0  0  0  0  0  0  0  0  0  0  0  0
    3.7309    4.4192   -0.4308 C   0  0  0  0  0  0  0  0  0  0  0  0
    2.2004    2.4786    0.1555 H   0  0  0  0  0  0  0  0  0  0  0  0
    1.8789    4.6593   -1.5143 H   0  0  0  0  0  0  0  0  0  0  0  0
    4.5119    3.6676   -0.2672 H   0  0  0  0  0  0  0  0  0  0  0  0
    4.2126    5.3117   -0.8438 H   0  0  0  0  0  0  0  0  0  0  0  0
    3.3105    4.6798    0.5465 H   0  0  0  0  0  0  0  0  0  0  0  0
    3.4864    4.5925   -3.5190 N   0  0  0  0  0  0  0  0  0  0  0  0
    4.0561    4.4738   -4.8408 C   0  0  0  0  0  0  0  0  0  0  0  0
    3.2263    5.5200   -3.1965 H   0  0  0  0  0  0  0  0  0  0  0  0
    5.1500    4.5716   -4.7793 H   0  0  0  0  0  0  0  0  0  0  0  0
    3.7991    3.4915   -5.2639 H   0  0  0  0  0  0  0  0  0  0  0  0
    3.6529    5.2679   -5.4864 H   0  0  0  0  0  0  0  0  0  0  0  0
 22 24  2  0  0  0  0
 24 26  1  0  0  0  0
 23 25  2  0  0  0  0
 25 26  1  0  0  0  0
 21 22  1  0  0  0  0
 22 23  1  0  0  0  0
  1  3  1  0  0  0  0
  1  7  1  0  0  0  0
  1  2  2  0  0  0  0
 35 36  1  0  0  0  0
 36 44  1  0  0  0  0
 36 37  2  0  0  0  0
  8  9  1  0  0  0  0
  9 17  1  0  0  0  0
  9 10  2  0  0  0  0
 18 19  1  0  0  0  0
 19 34  1  0  0  0  0
 19 20  2  0  0  0  0
 35 38  1  0  0  0  0
  8 11  1  0  0  0  0
 44 45  1  0  0  0  0
 18 21  1  0  0  0  0
 34 35  1  0  0  0  0
  7  8  1  0  0  0  0
 17 18  1  0  0  0  0
 24 31  1  0  0  0  0
 25 32  1  0  0  0  0
  3  4  1  0  0  0  0
  3  5  1  0  0  0  0
  3  6  1  0  0  0  0
 38 41  1  0  0  0  0
 38 42  1  0  0  0  0
 38 43  1  0  0  0  0
 11 14  1  0  0  0  0
 11 15  1  0  0  0  0
 11 16  1  0  0  0  0
 45 47  1  0  0  0  0
 45 48  1  0  0  0  0
 45 49  1  0  0  0  0
 21 29  1  0  0  0  0
 21 30  1  0  0  0  0
 35 40  1  0  0  0  0
  8 13  1  0  0  0  0
 18 28  1  0  0  0  0
 26 33  1  0  0  0  0
 44 46  1  0  0  0  0
  7 12  1  0  0  0  0
 34 39  1  0  0  0  0
 17 27  1  0  0  0  0
M  END
$$$$

  -OEChem-05262214473D

 49 49  0     1  0  0  0  0  0999 V2000
   -1.6183    0.5613    3.8201 C   0  0  0  0  0  0  0  0  0  0  0  0
   -0.6710   -0.0534    3.3444 O   0  0  0  0  0  0  0  0  0  0  0  0
   -2.0502    0.2789    5.2208 C   0  0  0  0  0  0  0  0  0  0  0  0
   -2.8099   -0.5175    5.2742 H   0  0  0  0  0  0  0  0  0  0  0  0
   -1.2190   -0.0687    5.8551 H   0  0  0  0  0  0  0  0  0  0  0  0
   -2.4882    1.1338    5.7604 H   0  0  0  0  0  0  0  0  0  0  0  0
   -2.3680    1.5337    3.1790 N   0  0  0  0  0  0  0  0  0  0  0  0
   -2.1212    1.9597    1.8266 C   0  0  2  0  0  0  0  0  0  0  0  0
   -0.7862    1.3744    1.3854 C   0  0  0  0  0  0  0  0  0  0  0  0
    0.0859    1.0216    2.1767 O   0  0  0  0  0  0  0  0  0  0  0  0
   -2.1124    3.4765    1.7171 C   0  0  0  0  0  0  0  0  0  0  0  0
   -3.1331    1.9695    3.6908 H   0  0  0  0  0  0  0  0  0  0  0  0
   -2.9253    1.5413    1.2115 H   0  0  0  0  0  0  0  0  0  0  0  0
   -1.3133    3.9138    2.3268 H   0  0  0  0  0  0  0  0  0  0  0  0
   -1.9529    3.7988    0.6829 H   0  0  0  0  0  0  0  0  0  0  0  0
   -3.0626    3.8977    2.0629 H   0  0  0  0  0  0  0  0  0  0  0  0
   -0.6635    1.3313    0.0020 N   0  0  0  0  0  0  0  0  0  0  0  0
    0.5138    0.8305   -0.6617 C   0  0  2  0  0  0  0  0  0  0  0  0
    1.0731    1.9687   -1.5077 C   0  0  0  0  0  0  0  0  0  0  0  0
    0.5388    2.3570   -2.5443 O   0  0  0  0  0  0  0  0  0  0  0  0
    0.2086   -0.3873   -1.5415 C   0  0  0  0  0  0  0  0  0  0  0  0
   -0.2706   -1.5768   -0.7458 C   0  0  0  0  0  0  0  0  0  0  0  0
    0.6109   -2.3203   -0.0017 N   0  0  0  0  0  0  0  0  0  0  0  0
   -1.5491   -2.0718   -0.6415 C   0  0  0  0  0  0  0  0  0  0  0  0
   -0.1255   -3.2588    0.5505 C   0  0  0  0  0  0  0  0  0  0  0  0
   -1.4402   -3.1493    0.1917 N   0  0  0  0  0  0  0  0  0  0  0  0
   -1.4467    1.6280   -0.5753 H   0  0  0  0  0  0  0  0  0  0  0  0
    1.2343    0.5813    0.1262 H   0  0  0  0  0  0  0  0  0  0  0  0
    1.0961   -0.6667   -2.1254 H   0  0  0  0  0  0  0  0  0  0  0  0
   -0.5596   -0.1397   -2.2860 H   0  0  0  0  0  0  0  0  0  0  0  0
   -2.4949   -1.7694   -1.0678 H   0  0  0  0  0  0  0  0  0  0  0  0
    0.2266   -4.0381    1.2117 H   0  0  0  0  0  0  0  0  0  0  0  0
   -2.1939   -3.7544    0.4893 H   0  0  0  0  0  0  0  0  0  0  0  0
    2.2091    2.5285   -0.9397 N   0  0  0  0  0  0  0  0  0  0  0  0
    2.9246    3.6389   -1.5260 C   0  0  2  0  0  0  0  0  0  0  0  0
    3.1840    3.3107   -2.9904 C   0  0  0  0  0  0  0  0  0  0  0  0
    3.1971    2.1622   -3.4283 O   0  0  0  0  0  0  0  0  0  0  0  0
    4.2280    3.9078   -0.7901 C   0  0  0  0  0  0  0  0  0  0  0  0
    2.5550    2.1381   -0.0681 H   0  0  0  0  0  0  0  0  0  0  0  0
    2.2655    4.5112   -1.4579 H   0  0  0  0  0  0  0  0  0  0  0  0
    4.9014    3.0449   -0.8474 H   0  0  0  0  0  0  0  0  0  0  0  0
    4.7550    4.7672   -1.2176 H   0  0  0  0  0  0  0  0  0  0  0  0
    4.0419    4.1144    0.2694 H   0  0  0  0  0  0  0  0  0  0  0  0
    3.4419    4.4483   -3.7425 N   0  0  0  0  0  0  0  0  0  0  0  0
    3.7304    4.3990   -5.1568 C   0  0  0  0  0  0  0  0  0  0  0  0
    3.3914    5.3615   -3.3006 H   0  0  0  0  0  0  0  0  0  0  0  0
    4.8185    4.3417   -5.3078 H   0  0  0  0  0  0  0  0  0  0  0  0
    3.2519    3.5121   -5.5978 H   0  0  0  0  0  0  0  0  0  0  0  0
    3.3402    5.3057   -5.6423 H   0  0  0  0  0  0  0  0  0  0  0  0
 22 24  2  0  0  0  0
 24 26  1  0  0  0  0
 23 25  2  0  0  0  0
 25 26  1  0  0  0  0
 21 22  1  0  0  0  0
 22 23  1  0  0  0  0
  1  3  1  0  0  0  0
  1  7  1  0  0  0  0
  1  2  2  0  0  0  0
 35 36  1  0  0  0  0
 36 44  1  0  0  0  0
 36 37  2  0  0  0  0
  8  9  1  0  0  0  0
  9 17  1  0  0  0  0
  9 10  2  0  0  0  0
 18 19  1  0  0  0  0
 19 34  1  0  0  0  0
 19 20  2  0  0  0  0
 35 38  1  0  0  0  0
  8 11  1  0  0  0  0
 44 45  1  0  0  0  0
 18 21  1  0  0  0  0
 34 35  1  0  0  0  0
  7  8  1  0  0  0  0
 17 18  1  0  0  0  0
 24 31  1  0  0  0  0
 25 32  1  0  0  0  0
  3  4  1  0  0  0  0
  3  5  1  0  0  0  0
  3  6  1  0  0  0  0
 38 41  1  0  0  0  0
 38 42  1  0  0  0  0
 38 43  1  0  0  0  0
 11 14  1  0  0  0  0
 11 15  1  0  0  0  0
 11 16  1  0  0  0  0
 45 47  1  0  0  0  0
 45 48  1  0  0  0  0
 45 49  1  0  0  0  0
 21 29  1  0  0  0  0
 21 30  1  0  0  0  0
 35 40  1  0  0  0  0
  8 13  1  0  0  0  0
 18 28  1  0  0  0  0
 26 33  1  0  0  0  0
 44 46  1  0  0  0  0
  7 12  1  0  0  0  0
 34 39  1  0  0  0  0
 17 27  1  0  0  0  0
M  END
$$$$

  -OEChem-05262214473D

 49 49  0     1  0  0  0  0  0999 V2000
   -1.6183    0.5613    3.8201 C   0  0  0  0  0  0  0  0  0  0  0  0
   -0.6710   -0.0534    3.3444 O   0  0  0  0  0  0  0  0  0  0  0  0
   -2.0502    0.2789    5.2208 C   0  0  0  0  0  0  0  0  0  0  0  0
   -2.8099   -0.5175    5.2742 H   0  0  0  0  0  0  0  0  0  0  0  0
   -1.2190   -0.0687    5.8551 H   0  0  0  0  0  0  0  0  0  0  0  0
   -2.4882    1.1338    5.7604 H   0  0  0  0  0  0  0  0  0  0  0  0
   -2.3680    1.5337    3.1790 N   0  0  0  0  0  0  0  0  0  0  0  0
   -2.1212    1.9597    1.8266 C   0  0  2  0  0  0  0  0  0  0  0  0
   -0.7862    1.3744    1.3854 C   0  0  0  0  0  0  0  0  0  0  0  0
    0.0859    1.0216    2.1767 O   0  0  0  0  0  0  0  0  0  0  0  0
   -2.1124    3.4765    1.7171 C   0  0  0  0  0  0  0  0  0  0  0  0
   -3.1331    1.9695    3.6908 H   0  0  0  0  0  0  0  0  0  0  0  0
   -2.9253    1.5413    1.2115 H   0  0  0  0  0  0  0  0  0  0  0  0
   -1.3133    3.9138    2.3268 H   0  0  0  0  0  0  0  0  0  0  0  0
   -1.9529    3.7988    0.6829 H   0  0  0  0  0  0  0  0  0  0  0  0
   -3.0626    3.8977    2.0629 H   0  0  0  0  0  0  0  0  0  0  0  0
   -0.6635    1.3313    0.0020 N   0  0  0  0  0  0  0  0  0  0  0  0
    0.5138    0.8305   -0.6617 C   0  0  2  0  0  0  0  0  0  0  0  0
    1.0731    1.9687   -1.5077 C   0  0  0  0  0  0  0  0  0  0  0  0
    0.4208    2.5360   -2.3815 O   0  0  0  0  0  0  0  0  0  0  0  0
    0.2086   -0.3873   -1.5415 C   0  0  0  0  0  0  0  0  0  0  0  0
   -0.2706   -1.5768   -0.7458 C   0  0  0  0  0  0  0  0  0  0  0  0
    0.6109   -2.3203   -0.0017 N   0  0  0  0  0  0  0  0  0  0  0  0
   -1.5491   -2.0718   -0.6415 C   0  0  0  0  0  0  0  0  0  0  0  0
   -0.1255   -3.2588    0.5505 C   0  0  0  0  0  0  0  0  0  0  0  0
   -1.4402   -3.1493    0.1917 N   0  0  0  0  0  0  0  0  0  0  0  0
   -1.4467    1.6280   -0.5753 H   0  0  0  0  0  0  0  0  0  0  0  0
    1.2343    0.5813    0.1262 H   0  0  0  0  0  0  0  0  0  0  0  0
    1.0961   -0.6667   -2.1254 H   0  0  0  0  0  0  0  0  0  0  0  0
   -0.5596   -0.1397   -2.2860 H   0  0  0  0  0  0  0  0  0  0  0  0
   -2.4949   -1.7694   -1.0678 H   0  0  0  0  0  0  0  0  0  0  0  0
    0.2266   -4.0381    1.2117 H   0  0  0  0  0  0  0  0  0  0  0  0
   -2.1939   -3.7544    0.4893 H   0  0  0  0  0  0  0  0  0  0  0  0
    2.3671    2.3055   -1.1353 N   0  0  0  0  0  0  0  0  0  0  0  0
    3.1221    3.3671   -1.7612 C   0  0  2  0  0  0  0  0  0  0  0  0
    3.0508    3.1687   -3.2695 C   0  0  0  0  0  0  0  0  0  0  0  0
    2.8063    2.0835   -3.7925 O   0  0  0  0  0  0  0  0  0  0  0  0
    4.5653    3.3766   -1.2818 C   0  0  0  0  0  0  0  0  0  0  0  0
    2.8054    1.7795   -0.3850 H   0  0  0  0  0  0  0  0  0  0  0  0
    2.6285    4.3073   -1.4922 H   0  0  0  0  0  0  0  0  0  0  0  0
    5.0762    2.4425   -1.5423 H   0  0  0  0  0  0  0  0  0  0  0  0
    5.1286    4.1989   -1.7352 H   0  0  0  0  0  0  0  0  0  0  0  0
    4.6137    3.4895   -0.1934 H   0  0  0  0  0  0  0  0  0  0  0  0
    3.3350    4.3365   -3.9635 N   0  0  0  0  0  0  0  0  0  0  0  0
    3.3440    4.4036   -5.4062 C   0  0  0  0  0  0  0  0  0  0  0  0
    3.5080    5.1946   -3.4481 H   0  0  0  0  0  0  0  0  0  0  0  0
    4.3630    4.2174   -5.7761 H   0  0  0  0  0  0  0  0  0  0  0  0
    2.6617    3.6424   -5.8128 H   0  0  0  0  0  0  0  0  0  0  0  0
    3.0136    5.4019   -5.7288 H   0  0  0  0  0  0  0  0  0  0  0  0
 22 24  2  0  0  0  0
 24 26  1  0  0  0  0
 23 25  2  0  0  0  0
 25 26  1  0  0  0  0
 21 22  1  0  0  0  0
 22 23  1  0  0  0  0
  1  3  1  0  0  0  0
  1  7  1  0  0  0  0
  1  2  2  0  0  0  0
 35 36  1  0  0  0  0
 36 44  1  0  0  0  0
 36 37  2  0  0  0  0
  8  9  1  0  0  0  0
  9 17  1  0  0  0  0
  9 10  2  0  0  0  0
 18 19  1  0  0  0  0
 19 34  1  0  0  0  0
 19 20  2  0  0  0  0
 35 38  1  0  0  0  0
  8 11  1  0  0  0  0
 44 45  1  0  0  0  0
 18 21  1  0  0  0  0
 34 35  1  0  0  0  0
  7  8  1  0  0  0  0
 17 18  1  0  0  0  0
 24 31  1  0  0  0  0
 25 32  1  0  0  0  0
  3  4  1  0  0  0  0
  3  5  1  0  0  0  0
  3  6  1  0  0  0  0
 38 41  1  0  0  0  0
 38 42  1  0  0  0  0
 38 43  1  0  0  0  0
 11 14  1  0  0  0  0
 11 15  1  0  0  0  0
 11 16  1  0  0  0  0
 45 47  1  0  0  0  0
 45 48  1  0  0  0  0
 45 49  1  0  0  0  0
 21 29  1  0  0  0  0
 21 30  1  0  0  0  0
 35 40  1  0  0  0  0
  8 13  1  0  0  0  0
 18 28  1  0  0  0  0
 26 33  1  0  0  0  0
 44 46  1  0  0  0  0
  7 12  1  0  0  0  0
 34 39  1  0  0  0  0
 17 27  1  0  0  0  0
M  END
$$$$

  -OEChem-05262214473D

 49 49  0     1  0  0  0  0  0999 V2000
   -1.6183    0.5613    3.8201 C   0  0  0  0  0  0  0  0  0  0  0  0
   -0.6710   -0.0534    3.3444 O   0  0  0  0  0  0  0  0  0  0  0  0
   -2.0502    0.2789    5.2208 C   0  0  0  0  0  0  0  0  0  0  0  0
   -2.8099   -0.5175    5.2742 H   0  0  0  0  0  0  0  0  0  0  0  0
   -1.2190   -0.0687    5.8551 H   0  0  0  0  0  0  0  0  0  0  0  0
   -2.4882    1.1338    5.7604 H   0  0  0  0  0  0  0  0  0  0  0  0
   -2.3680    1.5337    3.1790 N   0  0  0  0  0  0  0  0  0  0  0  0
   -2.1212    1.9597    1.8266 C   0  0  2  0  0  0  0  0  0  0  0  0
   -0.7862    1.3744    1.3854 C   0  0  0  0  0  0  0  0  0  0  0  0
    0.0859    1.0216    2.1767 O   0  0  0  0  0  0  0  0  0  0  0  0
   -2.1124    3.4765    1.7171 C   0  0  0  0  0  0  0  0  0  0  0  0
   -3.1331    1.9695    3.6908 H   0  0  0  0  0  0  0  0  0  0  0  0
   -2.9253    1.5413    1.2115 H   0  0  0  0  0  0  0  0  0  0  0  0
   -1.3133    3.9138    2.3268 H   0  0  0  0  0  0  0  0  0  0  0  0
   -1.9529    3.7988    0.6829 H   0  0  0  0  0  0  0  0  0  0  0  0
   -3.0626    3.8977    2.0629 H   0  0  0  0  0  0  0  0  0  0  0  0
   -0.6635    1.3313    0.0020 N   0  0  0  0  0  0  0  0  0  0  0  0
    0.5138    0.8305   -0.6617 C   0  0  2  0  0  0  0  0  0  0  0  0
    1.0731    1.9687   -1.5077 C   0  0  0  0  0  0  0  0  0  0  0  0
    0.3640    2.7104   -2.1844 O   0  0  0  0  0  0  0  0  0  0  0  0
    0.2086   -0.3873   -1.5415 C   0  0  0  0  0  0  0  0  0  0  0  0
   -0.2706   -1.5768   -0.7458 C   0  0  0  0  0  0  0  0  0  0  0  0
    0.6109   -2.3203   -0.0017 N   0  0  0  0  0  0  0  0  0  0  0  0
   -1.5491   -2.0718   -0.6415 C   0  0  0  0  0  0  0  0  0  0  0  0
   -0.1255   -3.2588    0.5505 C   0  0  0  0  0  0  0  0  0  0  0  0
   -1.4402   -3.1493    0.1917 N   0  0  0  0  0  0  0  0  0  0  0  0
   -1.4467    1.6280   -0.5753 H   0  0  0  0  0  0  0  0  0  0  0  0
    1.2343    0.5813    0.1262 H   0  0  0  0  0  0  0  0  0  0  0  0
    1.0961   -0.6667   -2.1254 H   0  0  0  0  0  0  0  0  0  0  0  0
   -0.5596   -0.1397   -2.2860 H   0  0  0  0  0  0  0  0  0  0  0  0
   -2.4949   -1.7694   -1.0678 H   0  0  0  0  0  0  0  0  0  0  0  0
    0.2266   -4.0381    1.2117 H   0  0  0  0  0  0  0  0  0  0  0  0
   -2.1939   -3.7544    0.4893 H   0  0  0  0  0  0  0  0  0  0  0  0
    2.4498    2.0861   -1.3758 N   0  0  0  0  0  0  0  0  0  0  0  0
    3.2284    3.0985   -2.0523 C   0  0  2  0  0  0  0  0  0  0  0  0
    2.8478    3.0772   -3.5268 C   0  0  0  0  0  0  0  0  0  0  0  0
    2.3471    2.0982   -4.0763 O   0  0  0  0  0  0  0  0  0  0  0  0
    4.7198    2.8618   -1.8723 C   0  0  0  0  0  0  0  0  0  0  0  0
    2.9346    1.4272   -0.7736 H   0  0  0  0  0  0  0  0  0  0  0  0
    2.9433    4.0615   -1.6148 H   0  0  0  0  0  0  0  0  0  0  0  0
    5.0242    1.9015   -2.3045 H   0  0  0  0  0  0  0  0  0  0  0  0
    5.3077    3.6455   -2.3613 H   0  0  0  0  0  0  0  0  0  0  0  0
    4.9868    2.8477   -0.8101 H   0  0  0  0  0  0  0  0  0  0  0  0
    3.1730    4.2650   -4.1669 N   0  0  0  0  0  0  0  0  0  0  0  0
    2.9231    4.4871   -5.5720 C   0  0  0  0  0  0  0  0  0  0  0  0
    3.5681    5.0306   -3.6289 H   0  0  0  0  0  0  0  0  0  0  0  0
    3.8148    4.2073   -6.1522 H   0  0  0  0  0  0  0  0  0  0  0  0
    2.0689    3.8734   -5.8939 H   0  0  0  0  0  0  0  0  0  0  0  0
    2.6951    5.5500   -5.7402 H   0  0  0  0  0  0  0  0  0  0  0  0
 22 24  2  0  0  0  0
 24 26  1  0  0  0  0
 23 25  2  0  0  0  0
 25 26  1  0  0  0  0
 21 22  1  0  0  0  0
 22 23  1  0  0  0  0
  1  3  1  0  0  0  0
  1  7  1  0  0  0  0
  1  2  2  0  0  0  0
 35 36  1  0  0  0  0
 36 44  1  0  0  0  0
 36 37  2  0  0  0  0
  8  9  1  0  0  0  0
  9 17  1  0  0  0  0
  9 10  2  0  0  0  0
 18 19  1  0  0  0  0
 19 34  1  0  0  0  0
 19 20  2  0  0  0  0
 35 38  1  0  0  0  0
  8 11  1  0  0  0  0
 44 45  1  0  0  0  0
 18 21  1  0  0  0  0
 34 35  1  0  0  0  0
  7  8  1  0  0  0  0
 17 18  1  0  0  0  0
 24 31  1  0  0  0  0
 25 32  1  0  0  0  0
  3  4  1  0  0  0  0
  3  5  1  0  0  0  0
  3  6  1  0  0  0  0
 38 41  1  0  0  0  0
 38 42  1  0  0  0  0
 38 43  1  0  0  0  0
 11 14  1  0  0  0  0
 11 15  1  0  0  0  0
 11 16  1  0  0  0  0
 45 47  1  0  0  0  0
 45 48  1  0  0  0  0
 45 49  1  0  0  0  0
 21 29  1  0  0  0  0
 21 30  1  0  0  0  0
 35 40  1  0  0  0  0
  8 13  1  0  0  0  0
 18 28  1  0  0  0  0
 26 33  1  0  0  0  0
 44 46  1  0  0  0  0
  7 12  1  0  0  0  0
 34 39  1  0  0  0  0
 17 27  1  0  0  0  0
M  END
$$$$

  -OEChem-05262214473D

 49 49  0     1  0  0  0  0  0999 V2000
   -1.6183    0.5613    3.8201 C   0  0  0  0  0  0  0  0  0  0  0  0
   -0.6710   -0.0534    3.3444 O   0  0  0  0  0  0  0  0  0  0  0  0
   -2.0502    0.2789    5.2208 C   0  0  0  0  0  0  0  0  0  0  0  0
   -2.8099   -0.5175    5.2742 H   0  0  0  0  0  0  0  0  0  0  0  0
   -1.2190   -0.0687    5.8551 H   0  0  0  0  0  0  0  0  0  0  0  0
   -2.4882    1.1338    5.7604 H   0  0  0  0  0  0  0  0  0  0  0  0
   -2.3680    1.5337    3.1790 N   0  0  0  0  0  0  0  0  0  0  0  0
   -2.1212    1.9597    1.8266 C   0  0  2  0  0  0  0  0  0  0  0  0
   -0.7862    1.3744    1.3854 C   0  0  0  0  0  0  0  0  0  0  0  0
    0.0859    1.0216    2.1767 O   0  0  0  0  0  0  0  0  0  0  0  0
   -2.1124    3.4765    1.7171 C   0  0  0  0  0  0  0  0  0  0  0  0
   -3.1331    1.9695    3.6908 H   0  0  0  0  0  0  0  0  0  0  0  0
   -2.9253    1.5413    1.2115 H   0  0  0  0  0  0  0  0  0  0  0  0
   -1.3133    3.9138    2.3268 H   0  0  0  0  0  0  0  0  0  0  0  0
   -1.9529    3.7988    0.6829 H   0  0  0  0  0  0  0  0  0  0  0  0
   -3.0626    3.8977    2.0629 H   0  0  0  0  0  0  0  0  0  0  0  0
   -0.6635    1.3313    0.0020 N   0  0  0  0  0  0  0  0  0  0  0  0
    0.5138    0.8305   -0.6617 C   0  0  2  0  0  0  0  0  0  0  0  0
    1.0731    1.9687   -1.5077 C   0  0  0  0  0  0  0  0  0  0  0  0
    0.3723    2.8682   -1.9666 O   0  0  0  0  0  0  0  0  0  0  0  0
    0.2086   -0.3873   -1.5415 C   0  0  0  0  0  0  0  0  0  0  0  0
   -0.2706   -1.5768   -0.7458 C   0  0  0  0  0  0  0  0  0  0  0  0
    0.6109   -2.3203   -0.0017 N   0  0  0  0  0  0  0  0  0  0  0  0
   -1.5491   -2.0718   -0.6415 C   0  0  0  0  0  0  0  0  0  0  0  0
   -0.1255   -3.2588    0.5505 C   0  0  0  0  0  0  0  0  0  0  0  0
   -1.4402   -3.1493    0.1917 N   0  0  0  0  0  0  0  0  0  0  0  0
   -1.4467    1.6280   -0.5753 H   0  0  0  0  0  0  0  0  0  0  0  0
    1.2343    0.5813    0.1262 H   0  0  0  0  0  0  0  0  0  0  0  0
    1.0961   -0.6667   -2.1254 H   0  0  0  0  0  0  0  0  0  0  0  0
   -0.5596   -0.1397   -2.2860 H   0  0  0  0  0  0  0  0  0  0  0  0
   -2.4949   -1.7694   -1.0678 H   0  0  0  0  0  0  0  0  0  0  0  0
    0.2266   -4.0381    1.2117 H   0  0  0  0  0  0  0  0  0  0  0  0
   -2.1939   -3.7544    0.4893 H   0  0  0  0  0  0  0  0  0  0  0  0
    2.4517    1.8850   -1.6450 N   0  0  0  0  0  0  0  0  0  0  0  0
    3.2362    2.8514   -2.3795 C   0  0  2  0  0  0  0  0  0  0  0  0
    2.5889    3.0424   -3.7449 C   0  0  0  0  0  0  0  0  0  0  0  0
    1.8508    2.2054   -4.2603 O   0  0  0  0  0  0  0  0  0  0  0  0
    4.6809    2.3984   -2.5215 C   0  0  0  0  0  0  0  0  0  0  0  0
    2.9336    1.1053   -1.2073 H   0  0  0  0  0  0  0  0  0  0  0  0
    3.1883    3.7905   -1.8175 H   0  0  0  0  0  0  0  0  0  0  0  0
    4.7489    1.4589   -3.0820 H   0  0  0  0  0  0  0  0  0  0  0  0
    5.2803    3.1446   -3.0533 H   0  0  0  0  0  0  0  0  0  0  0  0
    5.1358    2.2328   -1.5389 H   0  0  0  0  0  0  0  0  0  0  0  0
    2.9669    4.2384   -4.3389 N   0  0  0  0  0  0  0  0  0  0  0  0
    2.4966    4.6440   -5.6429 C   0  0  0  0  0  0  0  0  0  0  0  0
    3.5677    4.8807   -3.8308 H   0  0  0  0  0  0  0  0  0  0  0  0
    3.2111    4.3120   -6.4105 H   0  0  0  0  0  0  0  0  0  0  0  0
    1.5137    4.1894   -5.8358 H   0  0  0  0  0  0  0  0  0  0  0  0
    2.4066    5.7399   -5.6755 H   0  0  0  0  0  0  0  0  0  0  0  0
 22 24  2  0  0  0  0
 24 26  1  0  0  0  0
 23 25  2  0  0  0  0
 25 26  1  0  0  0  0
 21 22  1  0  0  0  0
 22 23  1  0  0  0  0
  1  3  1  0  0  0  0
  1  7  1  0  0  0  0
  1  2  2  0  0  0  0
 35 36  1  0  0  0  0
 36 44  1  0  0  0  0
 36 37  2  0  0  0  0
  8  9  1  0  0  0  0
  9 17  1  0  0  0  0
  9 10  2  0  0  0  0
 18 19  1  0  0  0  0
 19 34  1  0  0  0  0
 19 20  2  0  0  0  0
 35 38  1  0  0  0  0
  8 11  1  0  0  0  0
 44 45  1  0  0  0  0
 18 21  1  0  0  0  0
 34 35  1  0  0  0  0
  7  8  1  0  0  0  0
 17 18  1  0  0  0  0
 24 31  1  0  0  0  0
 25 32  1  0  0  0  0
  3  4  1  0  0  0  0
  3  5  1  0  0  0  0
  3  6  1  0  0  0  0
 38 41  1  0  0  0  0
 38 42  1  0  0  0  0
 38 43  1  0  0  0  0
 11 14  1  0  0  0  0
 11 15  1  0  0  0  0
 11 16  1  0  0  0  0
 45 47  1  0  0  0  0
 45 48  1  0  0  0  0
 45 49  1  0  0  0  0
 21 29  1  0  0  0  0
 21 30  1  0  0  0  0
 35 40  1  0  0  0  0
  8 13  1  0  0  0  0
 18 28  1  0  0  0  0
 26 33  1  0  0  0  0
 44 46  1  0  0  0  0
  7 12  1  0  0  0  0
 34 39  1  0  0  0  0
 17 27  1  0  0  0  0
M  END
$$$$

  -OEChem-05262214473D

 49 49  0     1  0  0  0  0  0999 V2000
   -1.6183    0.5613    3.8201 C   0  0  0  0  0  0  0  0  0  0  0  0
   -0.6710   -0.0534    3.3444 O   0  0  0  0  0  0  0  0  0  0  0  0
   -2.0502    0.2789    5.2208 C   0  0  0  0  0  0  0  0  0  0  0  0
   -2.8099   -0.5175    5.2742 H   0  0  0  0  0  0  0  0  0  0  0  0
   -1.2190   -0.0687    5.8551 H   0  0  0  0  0  0  0  0  0  0  0  0
   -2.4882    1.1338    5.7604 H   0  0  0  0  0  0  0  0  0  0  0  0
   -2.3680    1.5337    3.1790 N   0  0  0  0  0  0  0  0  0  0  0  0
   -2.1212    1.9597    1.8266 C   0  0  2  0  0  0  0  0  0  0  0  0
   -0.7862    1.3744    1.3854 C   0  0  0  0  0  0  0  0  0  0  0  0
    0.0859    1.0216    2.1767 O   0  0  0  0  0  0  0  0  0  0  0  0
   -2.1124    3.4765    1.7171 C   0  0  0  0  0  0  0  0  0  0  0  0
   -3.1331    1.9695    3.6908 H   0  0  0  0  0  0  0  0  0  0  0  0
   -2.9253    1.5413    1.2115 H   0  0  0  0  0  0  0  0  0  0  0  0
   -1.3133    3.9138    2.3268 H   0  0  0  0  0  0  0  0  0  0  0  0
   -1.9529    3.7988    0.6829 H   0  0  0  0  0  0  0  0  0  0  0  0
   -3.0626    3.8977    2.0629 H   0  0  0  0  0  0  0  0  0  0  0  0
   -0.6635    1.3313    0.0020 N   0  0  0  0  0  0  0  0  0  0  0  0
    0.5138    0.8305   -0.6617 C   0  0  2  0  0  0  0  0  0  0  0  0
    1.0731    1.9687   -1.5077 C   0  0  0  0  0  0  0  0  0  0  0  0
    0.4451    2.9988   -1.7427 O   0  0  0  0  0  0  0  0  0  0  0  0
    0.2086   -0.3873   -1.5415 C   0  0  0  0  0  0  0  0  0  0  0  0
   -0.2706   -1.5768   -0.7458 C   0  0  0  0  0  0  0  0  0  0  0  0
    0.6109   -2.3203   -0.0017 N   0  0  0  0  0  0  0  0  0  0  0  0
   -1.5491   -2.0718   -0.6415 C   0  0  0  0  0  0  0  0  0  0  0  0
   -0.1255   -3.2588    0.5505 C   0  0  0  0  0  0  0  0  0  0  0  0
   -1.4402   -3.1493    0.1917 N   0  0  0  0  0  0  0  0  0  0  0  0
   -1.4467    1.6280   -0.5753 H   0  0  0  0  0  0  0  0  0  0  0  0
    1.2343    0.5813    0.1262 H   0  0  0  0  0  0  0  0  0  0  0  0
    1.0961   -0.6667   -2.1254 H   0  0  0  0  0  0  0  0  0  0  0  0
   -0.5596   -0.1397   -2.2860 H   0  0  0  0  0  0  0  0  0  0  0  0
   -2.4949   -1.7694   -1.0678 H   0  0  0  0  0  0  0  0  0  0  0  0
    0.2266   -4.0381    1.2117 H   0  0  0  0  0  0  0  0  0  0  0  0
   -2.1939   -3.7544    0.4893 H   0  0  0  0  0  0  0  0  0  0  0  0
    2.3727    1.7161   -1.9245 N   0  0  0  0  0  0  0  0  0  0  0  0
    3.1450    2.6427   -2.7206 C   0  0  2  0  0  0  0  0  0  0  0  0
    2.2917    3.0667   -3.9087 C   0  0  0  0  0  0  0  0  0  0  0  0
    1.3512    2.3976   -4.3319 O   0  0  0  0  0  0  0  0  0  0  0  0
    4.4514    2.0180   -3.1850 C   0  0  0  0  0  0  0  0  0  0  0  0
    2.8027    0.8357   -1.6566 H   0  0  0  0  0  0  0  0  0  0  0  0
    3.3469    3.5128   -2.0863 H   0  0  0  0  0  0  0  0  0  0  0  0
    4.2693    1.1446   -3.8219 H   0  0  0  0  0  0  0  0  0  0  0  0
    5.0482    2.7305   -3.7640 H   0  0  0  0  0  0  0  0  0  0  0  0
    5.0506    1.6867   -2.3301 H   0  0  0  0  0  0  0  0  0  0  0  0
    2.7308    4.2587   -4.4677 N   0  0  0  0  0  0  0  0  0  0  0  0
    2.0935    4.8636   -5.6140 C   0  0  0  0  0  0  0  0  0  0  0  0
    3.5068    4.7552   -4.0400 H   0  0  0  0  0  0  0  0  0  0  0  0
    2.5931    4.5243   -6.5334 H   0  0  0  0  0  0  0  0  0  0  0  0
    1.0341    4.5689   -5.6424 H   0  0  0  0  0  0  0  0  0  0  0  0
    2.1676    5.9585   -5.5393 H   0  0  0  0  0  0  0  0  0  0  0  0
 22 24  2  0  0  0  0
 24 26  1  0  0  0  0
 23 25  2  0  0  0  0
 25 26  1  0  0  0  0
 21 22  1  0  0  0  0
 22 23  1  0  0  0  0
  1  3  1  0  0  0  0
  1  7  1  0  0  0  0
  1  2  2  0  0  0  0
 35 36  1  0  0  0  0
 36 44  1  0  0  0  0
 36 37  2  0  0  0  0
  8  9  1  0  0  0  0
  9 17  1  0  0  0  0
  9 10  2  0  0  0  0
 18 19  1  0  0  0  0
 19 34  1  0  0  0  0
 19 20  2  0  0  0  0
 35 38  1  0  0  0  0
  8 11  1  0  0  0  0
 44 45  1  0  0  0  0
 18 21  1  0  0  0  0
 34 35  1  0  0  0  0
  7  8  1  0  0  0  0
 17 18  1  0  0  0  0
 24 31  1  0  0  0  0
 25 32  1  0  0  0  0
  3  4  1  0  0  0  0
  3  5  1  0  0  0  0
  3  6  1  0  0  0  0
 38 41  1  0  0  0  0
 38 42  1  0  0  0  0
 38 43  1  0  0  0  0
 11 14  1  0  0  0  0
 11 15  1  0  0  0  0
 11 16  1  0  0  0  0
 45 47  1  0  0  0  0
 45 48  1  0  0  0  0
 45 49  1  0  0  0  0
 21 29  1  0  0  0  0
 21 30  1  0  0  0  0
 35 40  1  0  0  0  0
  8 13  1  0  0  0  0
 18 28  1  0  0  0  0
 26 33  1  0  0  0  0
 44 46  1  0  0  0  0
  7 12  1  0  0  0  0
 34 39  1  0  0  0  0
 17 27  1  0  0  0  0
M  END
$$$$

  -OEChem-05262214473D

 49 49  0     1  0  0  0  0  0999 V2000
   -1.6183    0.5613    3.8201 C   0  0  0  0  0  0  0  0  0  0  0  0
   -0.6710   -0.0534    3.3444 O   0  0  0  0  0  0  0  0  0  0  0  0
   -2.0502    0.2789    5.2208 C   0  0  0  0  0  0  0  0  0  0  0  0
   -2.8099   -0.5175    5.2742 H   0  0  0  0  0  0  0  0  0  0  0  0
   -1.2190   -0.0687    5.8551 H   0  0  0  0  0  0  0  0  0  0  0  0
   -2.4882    1.1338    5.7604 H   0  0  0  0  0  0  0  0  0  0  0  0
   -2.3680    1.5337    3.1790 N   0  0  0  0  0  0  0  0  0  0  0  0
   -2.1212    1.9597    1.8266 C   0  0  2  0  0  0  0  0  0  0  0  0
   -0.7862    1.3744    1.3854 C   0  0  0  0  0  0  0  0  0  0  0  0
    0.0859    1.0216    2.1767 O   0  0  0  0  0  0  0  0  0  0  0  0
   -2.1124    3.4765    1.7171 C   0  0  0  0  0  0  0  0  0  0  0  0
   -3.1331    1.9695    3.6908 H   0  0  0  0  0  0  0  0  0  0  0  0
   -2.9253    1.5413    1.2115 H   0  0  0  0  0  0  0  0  0  0  0  0
   -1.3133    3.9138    2.3268 H   0  0  0  0  0  0  0  0  0  0  0  0
   -1.9529    3.7988    0.6829 H   0  0  0  0  0  0  0  0  0  0  0  0
   -3.0626    3.8977    2.0629 H   0  0  0  0  0  0  0  0  0  0  0  0
   -0.6635    1.3313    0.0020 N   0  0  0  0  0  0  0  0  0  0  0  0
    0.5138    0.8305   -0.6617 C   0  0  2  0  0  0  0  0  0  0  0  0
    1.2783    2.0368   -1.1950 C   0  0  0  0  0  0  0  0  0  0  0  0
    0.9135    3.1958   -1.0093 O   0  0  0  0  0  0  0  0  0  0  0  0
    0.1691   -0.1303   -1.8055 C   0  0  0  0  0  0  0  0  0  0  0  0
   -0.5167   -1.3863   -1.3261 C   0  0  0  0  0  0  0  0  0  0  0  0
    0.1970   -2.3744   -0.6952 N   0  0  0  0  0  0  0  0  0  0  0  0
   -1.8456   -1.7232   -1.4305 C   0  0  0  0  0  0  0  0  0  0  0  0
   -0.6906   -3.3036   -0.4182 C   0  0  0  0  0  0  0  0  0  0  0  0
   -1.9416   -2.9541   -0.8450 N   0  0  0  0  0  0  0  0  0  0  0  0
   -1.4467    1.6280   -0.5753 H   0  0  0  0  0  0  0  0  0  0  0  0
    1.1179    0.3336    0.1065 H   0  0  0  0  0  0  0  0  0  0  0  0
    1.0759   -0.3954   -2.3659 H   0  0  0  0  0  0  0  0  0  0  0  0
   -0.4867    0.3622   -2.5356 H   0  0  0  0  0  0  0  0  0  0  0  0
   -2.7037   -1.2202   -1.8527 H   0  0  0  0  0  0  0  0  0  0  0  0
   -0.4958   -4.2410    0.0834 H   0  0  0  0  0  0  0  0  0  0  0  0
   -2.7835   -3.5052   -0.7447 H   0  0  0  0  0  0  0  0  0  0  0  0
    2.4396    1.6644   -1.8577 N   0  0  0  0  0  0  0  0  0  0  0  0
    3.3603    2.6141   -2.4402 C   0  0  2  0  0  0  0  0  0  0  0  0
    2.5574    3.5796   -3.3020 C   0  0  0  0  0  0  0  0  0  0  0  0
    1.4513    3.3060   -3.7634 O   0  0  0  0  0  0  0  0  0  0  0  0
    4.4313    1.9139   -3.2619 C   0  0  0  0  0  0  0  0  0  0  0  0
    2.6532    0.6745   -1.9374 H   0  0  0  0  0  0  0  0  0  0  0  0
    3.8189    3.1605   -1.6089 H   0  0  0  0  0  0  0  0  0  0  0  0
    3.9907    1.3610   -4.0995 H   0  0  0  0  0  0  0  0  0  0  0  0
    5.1445    2.6325   -3.6789 H   0  0  0  0  0  0  0  0  0  0  0  0
    4.9882    1.1982   -2.6475 H   0  0  0  0  0  0  0  0  0  0  0  0
    3.2400    4.7661   -3.5310 N   0  0  0  0  0  0  0  0  0  0  0  0
    2.6941    5.8378   -4.3306 C   0  0  0  0  0  0  0  0  0  0  0  0
    4.1444    4.9147   -3.0932 H   0  0  0  0  0  0  0  0  0  0  0  0
    3.0252    5.7232   -5.3733 H   0  0  0  0  0  0  0  0  0  0  0  0
    1.5954    5.8031   -4.2890 H   0  0  0  0  0  0  0  0  0  0  0  0
    3.0456    6.8035   -3.9384 H   0  0  0  0  0  0  0  0  0  0  0  0
 22 24  2  0  0  0  0
 24 26  1  0  0  0  0
 23 25  2  0  0  0  0
 25 26  1  0  0  0  0
 21 22  1  0  0  0  0
 22 23  1  0  0  0  0
  1  3  1  0  0  0  0
  1  7  1  0  0  0  0
  1  2  2  0  0  0  0
 35 36  1  0  0  0  0
 36 44  1  0  0  0  0
 36 37  2  0  0  0  0
  8  9  1  0  0  0  0
  9 17  1  0  0  0  0
  9 10  2  0  0  0  0
 18 19  1  0  0  0  0
 19 34  1  0  0  0  0
 19 20  2  0  0  0  0
 35 38  1  0  0  0  0
  8 11  1  0  0  0  0
 44 45  1  0  0  0  0
 18 21  1  0  0  0  0
 34 35  1  0  0  0  0
  7  8  1  0  0  0  0
 17 18  1  0  0  0  0
 24 31  1  0  0  0  0
 25 32  1  0  0  0  0
  3  4  1  0  0  0  0
  3  5  1  0  0  0  0
  3  6  1  0  0  0  0
 38 41  1  0  0  0  0
 38 42  1  0  0  0  0
 38 43  1  0  0  0  0
 11 14  1  0  0  0  0
 11 15  1  0  0  0  0
 11 16  1  0  0  0  0
 45 47  1  0  0  0  0
 45 48  1  0  0  0  0
 45 49  1  0  0  0  0
 21 29  1  0  0  0  0
 21 30  1  0  0  0  0
 35 40  1  0  0  0  0
  8 13  1  0  0  0  0
 18 28  1  0  0  0  0
 26 33  1  0  0  0  0
 44 46  1  0  0  0  0
  7 12  1  0  0  0  0
 34 39  1  0  0  0  0
 17 27  1  0  0  0  0
M  END
$$$$

  -OEChem-05262214473D

 49 49  0     1  0  0  0  0  0999 V2000
   -1.6183    0.5613    3.8201 C   0  0  0  0  0  0  0  0  0  0  0  0
   -0.6710   -0.0534    3.3444 O   0  0  0  0  0  0  0  0  0  0  0  0
   -2.0502    0.2789    5.2208 C   0  0  0  0  0  0  0  0  0  0  0  0
   -2.8099   -0.5175    5.2742 H   0  0  0  0  0  0  0  0  0  0  0  0
   -1.2190   -0.0687    5.8551 H   0  0  0  0  0  0  0  0  0  0  0  0
   -2.4882    1.1338    5.7604 H   0  0  0  0  0  0  0  0  0  0  0  0
   -2.3680    1.5337    3.1790 N   0  0  0  0  0  0  0  0  0  0  0  0
   -2.1212    1.9597    1.8266 C   0  0  2  0  0  0  0  0  0  0  0  0
   -0.7862    1.3744    1.3854 C   0  0  0  0  0  0  0  0  0  0  0  0
    0.0859    1.0216    2.1767 O   0  0  0  0  0  0  0  0  0  0  0  0
   -2.1124    3.4765    1.7171 C   0  0  0  0  0  0  0  0  0  0  0  0
   -3.1331    1.9695    3.6908 H   0  0  0  0  0  0  0  0  0  0  0  0
   -2.9253    1.5413    1.2115 H   0  0  0  0  0  0  0  0  0  0  0  0
   -1.3133    3.9138    2.3268 H   0  0  0  0  0  0  0  0  0  0  0  0
   -1.9529    3.7988    0.6829 H   0  0  0  0  0  0  0  0  0  0  0  0
   -3.0626    3.8977    2.0629 H   0  0  0  0  0  0  0  0  0  0  0  0
   -0.6635    1.3313    0.0020 N   0  0  0  0  0  0  0  0  0  0  0  0
    0.5138    0.8305   -0.6617 C   0  0  2  0  0  0  0  0  0  0  0  0
    1.2783    2.0368   -1.1950 C   0  0  0  0  0  0  0  0  0  0  0  0
    1.0803    3.1833   -0.7984 O   0  0  0  0  0  0  0  0  0  0  0  0
    0.1691   -0.1303   -1.8055 C   0  0  0  0  0  0  0  0  0  0  0  0
   -0.5167   -1.3863   -1.3261 C   0  0  0  0  0  0  0  0  0  0  0  0
    0.1970   -2.3744   -0.6952 N   0  0  0  0  0  0  0  0  0  0  0  0
   -1.8456   -1.7232   -1.4305 C   0  0  0  0  0  0  0  0  0  0  0  0
   -0.6906   -3.3036   -0.4182 C   0  0  0  0  0  0  0  0  0  0  0  0
   -1.9416   -2.9541   -0.8450 N   0  0  0  0  0  0  0  0  0  0  0  0
   -1.4467    1.6280   -0.5753 H   0  0  0  0  0  0  0  0  0  0  0  0
    1.1179    0.3336    0.1065 H   0  0  0  0  0  0  0  0  0  0  0  0
    1.0759   -0.3954   -2.3659 H   0  0  0  0  0  0  0  0  0  0  0  0
   -0.4867    0.3622   -2.5356 H   0  0  0  0  0  0  0  0  0  0  0  0
   -2.7037   -1.2202   -1.8527 H   0  0  0  0  0  0  0  0  0  0  0  0
   -0.4958   -4.2410    0.0834 H   0  0  0  0  0  0  0  0  0  0  0  0
   -2.7835   -3.5052   -0.7447 H   0  0  0  0  0  0  0  0  0  0  0  0
    2.2395    1.6719   -2.1275 N   0  0  0  0  0  0  0  0  0  0  0  0
    3.1197    2.6197   -2.7723 C   0  0  2  0  0  0  0  0  0  0  0  0
    2.2664    3.7548   -3.3228 C   0  0  0  0  0  0  0  0  0  0  0  0
    1.0683    3.6342   -3.5702 O   0  0  0  0  0  0  0  0  0  0  0  0
    3.9272    1.9604   -3.8794 C   0  0  0  0  0  0  0  0  0  0  0  0
    2.3287    0.6894   -2.3690 H   0  0  0  0  0  0  0  0  0  0  0  0
    3.7888    3.0082   -1.9967 H   0  0  0  0  0  0  0  0  0  0  0  0
    3.2737    1.5651   -4.6657 H   0  0  0  0  0  0  0  0  0  0  0  0
    4.6141    2.6730   -4.3478 H   0  0  0  0  0  0  0  0  0  0  0  0
    4.5175    1.1254   -3.4869 H   0  0  0  0  0  0  0  0  0  0  0  0
    3.0095    4.9054   -3.5460 N   0  0  0  0  0  0  0  0  0  0  0  0
    2.4301    6.1169   -4.0777 C   0  0  0  0  0  0  0  0  0  0  0  0
    3.9934    4.9216   -3.2941 H   0  0  0  0  0  0  0  0  0  0  0  0
    2.5335    6.1235   -5.1728 H   0  0  0  0  0  0  0  0  0  0  0  0
    1.3641    6.1615   -3.8099 H   0  0  0  0  0  0  0  0  0  0  0  0
    2.9511    6.9886   -3.6550 H   0  0  0  0  0  0  0  0  0  0  0  0
 22 24  2  0  0  0  0
 24 26  1  0  0  0  0
 23 25  2  0  0  0  0
 25 26  1  0  0  0  0
 21 22  1  0  0  0  0
 22 23  1  0  0  0  0
  1  3  1  0  0  0  0
  1  7  1  0  0  0  0
  1  2  2  0  0  0  0
 35 36  1  0  0  0  0
 36 44  1  0  0  0  0
 36 37  2  0  0  0  0
  8  9  1  0  0  0  0
  9 17  1  0  0  0  0
  9 10  2  0  0  0  0
 18 19  1  0  0  0  0
 19 34  1  0  0  0  0
 19 20  2  0  0  0  0
 35 38  1  0  0  0  0
  8 11  1  0  0  0  0
 44 45  1  0  0  0  0
 18 21  1  0  0  0  0
 34 35  1  0  0  0  0
  7  8  1  0  0  0  0
 17 18  1  0  0  0  0
 24 31  1  0  0  0  0
 25 32  1  0  0  0  0
  3  4  1  0  0  0  0
  3  5  1  0  0  0  0
  3  6  1  0  0  0  0
 38 41  1  0  0  0  0
 38 42  1  0  0  0  0
 38 43  1  0  0  0  0
 11 14  1  0  0  0  0
 11 15  1  0  0  0  0
 11 16  1  0  0  0  0
 45 47  1  0  0  0  0
 45 48  1  0  0  0  0
 45 49  1  0  0  0  0
 21 29  1  0  0  0  0
 21 30  1  0  0  0  0
 35 40  1  0  0  0  0
  8 13  1  0  0  0  0
 18 28  1  0  0  0  0
 26 33  1  0  0  0  0
 44 46  1  0  0  0  0
  7 12  1  0  0  0  0
 34 39  1  0  0  0  0
 17 27  1  0  0  0  0
M  END
$$$$

  -OEChem-05262214473D

 49 49  0     1  0  0  0  0  0999 V2000
   -1.6183    0.5613    3.8201 C   0  0  0  0  0  0  0  0  0  0  0  0
   -0.6710   -0.0534    3.3444 O   0  0  0  0  0  0  0  0  0  0  0  0
   -2.0502    0.2789    5.2208 C   0  0  0  0  0  0  0  0  0  0  0  0
   -2.8099   -0.5175    5.2742 H   0  0  0  0  0  0  0  0  0  0  0  0
   -1.2190   -0.0687    5.8551 H   0  0  0  0  0  0  0  0  0  0  0  0
   -2.4882    1.1338    5.7604 H   0  0  0  0  0  0  0  0  0  0  0  0
   -2.3680    1.5337    3.1790 N   0  0  0  0  0  0  0  0  0  0  0  0
   -2.1212    1.9597    1.8266 C   0  0  2  0  0  0  0  0  0  0  0  0
   -0.7862    1.3744    1.3854 C   0  0  0  0  0  0  0  0  0  0  0  0
    0.0859    1.0216    2.1767 O   0  0  0  0  0  0  0  0  0  0  0  0
   -2.1124    3.4765    1.7171 C   0  0  0  0  0  0  0  0  0  0  0  0
   -3.1331    1.9695    3.6908 H   0  0  0  0  0  0  0  0  0  0  0  0
   -2.9253    1.5413    1.2115 H   0  0  0  0  0  0  0  0  0  0  0  0
   -1.3133    3.9138    2.3268 H   0  0  0  0  0  0  0  0  0  0  0  0
   -1.9529    3.7988    0.6829 H   0  0  0  0  0  0  0  0  0  0  0  0
   -3.0626    3.8977    2.0629 H   0  0  0  0  0  0  0  0  0  0  0  0
   -0.6635    1.3313    0.0020 N   0  0  0  0  0  0  0  0  0  0  0  0
    0.5138    0.8305   -0.6617 C   0  0  2  0  0  0  0  0  0  0  0  0
    1.2783    2.0368   -1.1950 C   0  0  0  0  0  0  0  0  0  0  0  0
    1.2835    3.1287   -0.6306 O   0  0  0  0  0  0  0  0  0  0  0  0
    0.1691   -0.1303   -1.8055 C   0  0  0  0  0  0  0  0  0  0  0  0
   -0.5167   -1.3863   -1.3261 C   0  0  0  0  0  0  0  0  0  0  0  0
    0.1970   -2.3744   -0.6952 N   0  0  0  0  0  0  0  0  0  0  0  0
   -1.8456   -1.7232   -1.4305 C   0  0  0  0  0  0  0  0  0  0  0  0
   -0.6906   -3.3036   -0.4182 C   0  0  0  0  0  0  0  0  0  0  0  0
   -1.9416   -2.9541   -0.8450 N   0  0  0  0  0  0  0  0  0  0  0  0
   -1.4467    1.6280   -0.5753 H   0  0  0  0  0  0  0  0  0  0  0  0
    1.1179    0.3336    0.1065 H   0  0  0  0  0  0  0  0  0  0  0  0
    1.0759   -0.3954   -2.3659 H   0  0  0  0  0  0  0  0  0  0  0  0
   -0.4867    0.3622   -2.5356 H   0  0  0  0  0  0  0  0  0  0  0  0
   -2.7037   -1.2202   -1.8527 H   0  0  0  0  0  0  0  0  0  0  0  0
   -0.4958   -4.2410    0.0834 H   0  0  0  0  0  0  0  0  0  0  0  0
   -2.7835   -3.5052   -0.7447 H   0  0  0  0  0  0  0  0  0  0  0  0
    1.9916    1.7324   -2.3461 N   0  0  0  0  0  0  0  0  0  0  0  0
    2.8198    2.6901   -3.0430 C   0  0  2  0  0  0  0  0  0  0  0  0
    1.9969    3.9530   -3.2607 C   0  0  0  0  0  0  0  0  0  0  0  0
    0.7677    3.9607   -3.2627 O   0  0  0  0  0  0  0  0  0  0  0  0
    3.3180    2.1311   -4.3667 C   0  0  0  0  0  0  0  0  0  0  0  0
    1.9283    0.7891   -2.7174 H   0  0  0  0  0  0  0  0  0  0  0  0
    3.6665    2.9140   -2.3850 H   0  0  0  0  0  0  0  0  0  0  0  0
    2.4837    1.9007   -5.0393 H   0  0  0  0  0  0  0  0  0  0  0  0
    3.9684    2.8470   -4.8800 H   0  0  0  0  0  0  0  0  0  0  0  0
    3.8844    1.2066   -4.2108 H   0  0  0  0  0  0  0  0  0  0  0  0
    2.7965    5.0629   -3.4953 N   0  0  0  0  0  0  0  0  0  0  0  0
    2.2522    6.3776   -3.7431 C   0  0  0  0  0  0  0  0  0  0  0  0
    3.8071    4.9680   -3.4563 H   0  0  0  0  0  0  0  0  0  0  0  0
    2.1360    6.5286   -4.8265 H   0  0  0  0  0  0  0  0  0  0  0  0
    1.2713    6.4664   -3.2533 H   0  0  0  0  0  0  0  0  0  0  0  0
    2.9347    7.1392   -3.3380 H   0  0  0  0  0  0  0  0  0  0  0  0
 22 24  2  0  0  0  0
 24 26  1  0  0  0  0
 23 25  2  0  0  0  0
 25 26  1  0  0  0  0
 21 22  1  0  0  0  0
 22 23  1  0  0  0  0
  1  3  1  0  0  0  0
  1  7  1  0  0  0  0
  1  2  2  0  0  0  0
 35 36  1  0  0  0  0
 36 44  1  0  0  0  0
 36 37  2  0  0  0  0
  8  9  1  0  0  0  0
  9 17  1  0  0  0  0
  9 10  2  0  0  0  0
 18 19  1  0  0  0  0
 19 34  1  0  0  0  0
 19 20  2  0  0  0  0
 35 38  1  0  0  0  0
  8 11  1  0  0  0  0
 44 45  1  0  0  0  0
 18 21  1  0  0  0  0
 34 35  1  0  0  0  0
  7  8  1  0  0  0  0
 17 18  1  0  0  0  0
 24 31  1  0  0  0  0
 25 32  1  0  0  0  0
  3  4  1  0  0  0  0
  3  5  1  0  0  0  0
  3  6  1  0  0  0  0
 38 41  1  0  0  0  0
 38 42  1  0  0  0  0
 38 43  1  0  0  0  0
 11 14  1  0  0  0  0
 11 15  1  0  0  0  0
 11 16  1  0  0  0  0
 45 47  1  0  0  0  0
 45 48  1  0  0  0  0
 45 49  1  0  0  0  0
 21 29  1  0  0  0  0
 21 30  1  0  0  0  0
 35 40  1  0  0  0  0
  8 13  1  0  0  0  0
 18 28  1  0  0  0  0
 26 33  1  0  0  0  0
 44 46  1  0  0  0  0
  7 12  1  0  0  0  0
 34 39  1  0  0  0  0
 17 27  1  0  0  0  0
M  END
$$$$

  -OEChem-05262214473D

 49 49  0     1  0  0  0  0  0999 V2000
   -1.6183    0.5613    3.8201 C   0  0  0  0  0  0  0  0  0  0  0  0
   -0.6710   -0.0534    3.3444 O   0  0  0  0  0  0  0  0  0  0  0  0
   -2.0502    0.2789    5.2208 C   0  0  0  0  0  0  0  0  0  0  0  0
   -2.8099   -0.5175    5.2742 H   0  0  0  0  0  0  0  0  0  0  0  0
   -1.2190   -0.0687    5.8551 H   0  0  0  0  0  0  0  0  0  0  0  0
   -2.4882    1.1338    5.7604 H   0  0  0  0  0  0  0  0  0  0  0  0
   -2.3680    1.5337    3.1790 N   0  0  0  0  0  0  0  0  0  0  0  0
   -2.1212    1.9597    1.8266 C   0  0  2  0  0  0  0  0  0  0  0  0
   -0.7862    1.3744    1.3854 C   0  0  0  0  0  0  0  0  0  0  0  0
    0.0859    1.0216    2.1767 O   0  0  0  0  0  0  0  0  0  0  0  0
   -2.1124    3.4765    1.7171 C   0  0  0  0  0  0  0  0  0  0  0  0
   -3.1331    1.9695    3.6908 H   0  0  0  0  0  0  0  0  0  0  0  0
   -2.9253    1.5413    1.2115 H   0  0  0  0  0  0  0  0  0  0  0  0
   -1.3133    3.9138    2.3268 H   0  0  0  0  0  0  0  0  0  0  0  0
   -1.9529    3.7988    0.6829 H   0  0  0  0  0  0  0  0  0  0  0  0
   -3.0626    3.8977    2.0629 H   0  0  0  0  0  0  0  0  0  0  0  0
   -0.6635    1.3313    0.0020 N   0  0  0  0  0  0  0  0  0  0  0  0
    0.5138    0.8305   -0.6617 C   0  0  2  0  0  0  0  0  0  0  0  0
    1.2783    2.0368   -1.1950 C   0  0  0  0  0  0  0  0  0  0  0  0
    1.5092    3.0358   -0.5171 O   0  0  0  0  0  0  0  0  0  0  0  0
    0.1691   -0.1303   -1.8055 C   0  0  0  0  0  0  0  0  0  0  0  0
   -0.5167   -1.3863   -1.3261 C   0  0  0  0  0  0  0  0  0  0  0  0
    0.1970   -2.3744   -0.6952 N   0  0  0  0  0  0  0  0  0  0  0  0
   -1.8456   -1.7232   -1.4305 C   0  0  0  0  0  0  0  0  0  0  0  0
   -0.6906   -3.3036   -0.4182 C   0  0  0  0  0  0  0  0  0  0  0  0
   -1.9416   -2.9541   -0.8450 N   0  0  0  0  0  0  0  0  0  0  0  0
   -1.4467    1.6280   -0.5753 H   0  0  0  0  0  0  0  0  0  0  0  0
    1.1179    0.3336    0.1065 H   0  0  0  0  0  0  0  0  0  0  0  0
    1.0759   -0.3954   -2.3659 H   0  0  0  0  0  0  0  0  0  0  0  0
   -0.4867    0.3622   -2.5356 H   0  0  0  0  0  0  0  0  0  0  0  0
   -2.7037   -1.2202   -1.8527 H   0  0  0  0  0  0  0  0  0  0  0  0
   -0.4958   -4.2410    0.0834 H   0  0  0  0  0  0  0  0  0  0  0  0
   -2.7835   -3.5052   -0.7447 H   0  0  0  0  0  0  0  0  0  0  0  0
    1.7129    1.8416   -2.4987 N   0  0  0  0  0  0  0  0  0  0  0  0
    2.4811    2.8204   -3.2340 C   0  0  2  0  0  0  0  0  0  0  0  0
    1.7673    4.1609   -3.1197 C   0  0  0  0  0  0  0  0  0  0  0  0
    0.5699    4.2634   -2.8616 O   0  0  0  0  0  0  0  0  0  0  0  0
    2.6452    2.4144   -4.6904 C   0  0  0  0  0  0  0  0  0  0  0  0
    1.4792    0.9669   -2.9591 H   0  0  0  0  0  0  0  0  0  0  0  0
    3.4603    2.8846   -2.7471 H   0  0  0  0  0  0  0  0  0  0  0  0
    1.6745    2.3448   -5.1948 H   0  0  0  0  0  0  0  0  0  0  0  0
    3.2515    3.1426   -5.2393 H   0  0  0  0  0  0  0  0  0  0  0  0
    3.1319    1.4364   -4.7699 H   0  0  0  0  0  0  0  0  0  0  0  0
    2.6154    5.2277   -3.3822 N   0  0  0  0  0  0  0  0  0  0  0  0
    2.1725    6.6020   -3.3497 C   0  0  0  0  0  0  0  0  0  0  0  0
    3.5980    5.0507   -3.5689 H   0  0  0  0  0  0  0  0  0  0  0  0
    1.8595    6.9110   -4.3579 H   0  0  0  0  0  0  0  0  0  0  0  0
    1.3232    6.6971   -2.6571 H   0  0  0  0  0  0  0  0  0  0  0  0
    2.9974    7.2450   -3.0088 H   0  0  0  0  0  0  0  0  0  0  0  0
 22 24  2  0  0  0  0
 24 26  1  0  0  0  0
 23 25  2  0  0  0  0
 25 26  1  0  0  0  0
 21 22  1  0  0  0  0
 22 23  1  0  0  0  0
  1  3  1  0  0  0  0
  1  7  1  0  0  0  0
  1  2  2  0  0  0  0
 35 36  1  0  0  0  0
 36 44  1  0  0  0  0
 36 37  2  0  0  0  0
  8  9  1  0  0  0  0
  9 17  1  0  0  0  0
  9 10  2  0  0  0  0
 18 19  1  0  0  0  0
 19 34  1  0  0  0  0
 19 20  2  0  0  0  0
 35 38  1  0  0  0  0
  8 11  1  0  0  0  0
 44 45  1  0  0  0  0
 18 21  1  0  0  0  0
 34 35  1  0  0  0  0
  7  8  1  0  0  0  0
 17 18  1  0  0  0  0
 24 31  1  0  0  0  0
 25 32  1  0  0  0  0
  3  4  1  0  0  0  0
  3  5  1  0  0  0  0
  3  6  1  0  0  0  0
 38 41  1  0  0  0  0
 38 42  1  0  0  0  0
 38 43  1  0  0  0  0
 11 14  1  0  0  0  0
 11 15  1  0  0  0  0
 11 16  1  0  0  0  0
 45 47  1  0  0  0  0
 45 48  1  0  0  0  0
 45 49  1  0  0  0  0
 21 29  1  0  0  0  0
 21 30  1  0  0  0  0
 35 40  1  0  0  0  0
  8 13  1  0  0  0  0
 18 28  1  0  0  0  0
 26 33  1  0  0  0  0
 44 46  1  0  0  0  0
  7 12  1  0  0  0  0
 34 39  1  0  0  0  0
 17 27  1  0  0  0  0
M  END
$$$$

  -OEChem-05262214473D

 49 49  0     1  0  0  0  0  0999 V2000
   -1.6183    0.5613    3.8201 C   0  0  0  0  0  0  0  0  0  0  0  0
   -0.6710   -0.0534    3.3444 O   0  0  0  0  0  0  0  0  0  0  0  0
   -2.0502    0.2789    5.2208 C   0  0  0  0  0  0  0  0  0  0  0  0
   -2.8099   -0.5175    5.2742 H   0  0  0  0  0  0  0  0  0  0  0  0
   -1.2190   -0.0687    5.8551 H   0  0  0  0  0  0  0  0  0  0  0  0
   -2.4882    1.1338    5.7604 H   0  0  0  0  0  0  0  0  0  0  0  0
   -2.3680    1.5337    3.1790 N   0  0  0  0  0  0  0  0  0  0  0  0
   -2.1212    1.9597    1.8266 C   0  0  2  0  0  0  0  0  0  0  0  0
   -0.7862    1.3744    1.3854 C   0  0  0  0  0  0  0  0  0  0  0  0
    0.0859    1.0216    2.1767 O   0  0  0  0  0  0  0  0  0  0  0  0
   -2.1124    3.4765    1.7171 C   0  0  0  0  0  0  0  0  0  0  0  0
   -3.1331    1.9695    3.6908 H   0  0  0  0  0  0  0  0  0  0  0  0
   -2.9253    1.5413    1.2115 H   0  0  0  0  0  0  0  0  0  0  0  0
   -1.3133    3.9138    2.3268 H   0  0  0  0  0  0  0  0  0  0  0  0
   -1.9529    3.7988    0.6829 H   0  0  0  0  0  0  0  0  0  0  0  0
   -3.0626    3.8977    2.0629 H   0  0  0  0  0  0  0  0  0  0  0  0
   -0.6635    1.3313    0.0020 N   0  0  0  0  0  0  0  0  0  0  0  0
    0.5138    0.8305   -0.6617 C   0  0  2  0  0  0  0  0  0  0  0  0
    1.2783    2.0368   -1.1950 C   0  0  0  0  0  0  0  0  0  0  0  0
    1.7421    2.9109   -0.4658 O   0  0  0  0  0  0  0  0  0  0  0  0
    0.1691   -0.1303   -1.8055 C   0  0  0  0  0  0  0  0  0  0  0  0
   -0.5167   -1.3863   -1.3261 C   0  0  0  0  0  0  0  0  0  0  0  0
    0.1970   -2.3744   -0.6952 N   0  0  0  0  0  0  0  0  0  0  0  0
   -1.8456   -1.7232   -1.4305 C   0  0  0  0  0  0  0  0  0  0  0  0
   -0.6906   -3.3036   -0.4182 C   0  0  0  0  0  0  0  0  0  0  0  0
   -1.9416   -2.9541   -0.8450 N   0  0  0  0  0  0  0  0  0  0  0  0
   -1.4467    1.6280   -0.5753 H   0  0  0  0  0  0  0  0  0  0  0  0
    1.1179    0.3336    0.1065 H   0  0  0  0  0  0  0  0  0  0  0  0
    1.0759   -0.3954   -2.3659 H   0  0  0  0  0  0  0  0  0  0  0  0
   -0.4867    0.3622   -2.5356 H   0  0  0  0  0  0  0  0  0  0  0  0
   -2.7037   -1.2202   -1.8527 H   0  0  0  0  0  0  0  0  0  0  0  0
   -0.4958   -4.2410    0.0834 H   0  0  0  0  0  0  0  0  0  0  0  0
   -2.7835   -3.5052   -0.7447 H   0  0  0  0  0  0  0  0  0  0  0  0
    1.4223    1.9922   -2.5747 N   0  0  0  0  0  0  0  0  0  0  0  0
    2.1265    3.0017   -3.3322 C   0  0  2  0  0  0  0  0  0  0  0  0
    1.5933    4.3642   -2.9095 C   0  0  0  0  0  0  0  0  0  0  0  0
    0.4883    4.5217   -2.3944 O   0  0  0  0  0  0  0  0  0  0  0  0
    1.9547    2.7910   -4.8285 C   0  0  0  0  0  0  0  0  0  0  0  0
    1.0120    1.2107   -3.0775 H   0  0  0  0  0  0  0  0  0  0  0  0
    3.1843    2.9219   -3.0585 H   0  0  0  0  0  0  0  0  0  0  0  0
    0.9013    2.8673   -5.1216 H   0  0  0  0  0  0  0  0  0  0  0  0
    2.5121    3.5396   -5.4011 H   0  0  0  0  0  0  0  0  0  0  0  0
    2.3114    1.7990   -5.1259 H   0  0  0  0  0  0  0  0  0  0  0  0
    2.4785    5.3886   -3.2145 N   0  0  0  0  0  0  0  0  0  0  0  0
    2.1964    6.7750   -2.9242 C   0  0  0  0  0  0  0  0  0  0  0  0
    3.3805    5.1642   -3.6240 H   0  0  0  0  0  0  0  0  0  0  0  0
    1.7231    7.2445   -3.7991 H   0  0  0  0  0  0  0  0  0  0  0  0
    1.5164    6.8379   -2.0618 H   0  0  0  0  0  0  0  0  0  0  0  0
    3.1349    7.2988   -2.6900 H   0  0  0  0  0  0  0  0  0  0  0  0
 22 24  2  0  0  0  0
 24 26  1  0  0  0  0
 23 25  2  0  0  0  0
 25 26  1  0  0  0  0
 21 22  1  0  0  0  0
 22 23  1  0  0  0  0
  1  3  1  0  0  0  0
  1  7  1  0  0  0  0
  1  2  2  0  0  0  0
 35 36  1  0  0  0  0
 36 44  1  0  0  0  0
 36 37  2  0  0  0  0
  8  9  1  0  0  0  0
  9 17  1  0  0  0  0
  9 10  2  0  0  0  0
 18 19  1  0  0  0  0
 19 34  1  0  0  0  0
 19 20  2  0  0  0  0
 35 38  1  0  0  0  0
  8 11  1  0  0  0  0
 44 45  1  0  0  0  0
 18 21  1  0  0  0  0
 34 35  1  0  0  0  0
  7  8  1  0  0  0  0
 17 18  1  0  0  0  0
 24 31  1  0  0  0  0
 25 32  1  0  0  0  0
  3  4  1  0  0  0  0
  3  5  1  0  0  0  0
  3  6  1  0  0  0  0
 38 41  1  0  0  0  0
 38 42  1  0  0  0  0
 38 43  1  0  0  0  0
 11 14  1  0  0  0  0
 11 15  1  0  0  0  0
 11 16  1  0  0  0  0
 45 47  1  0  0  0  0
 45 48  1  0  0  0  0
 45 49  1  0  0  0  0
 21 29  1  0  0  0  0
 21 30  1  0  0  0  0
 35 40  1  0  0  0  0
  8 13  1  0  0  0  0
 18 28  1  0  0  0  0
 26 33  1  0  0  0  0
 44 46  1  0  0  0  0
  7 12  1  0  0  0  0
 34 39  1  0  0  0  0
 17 27  1  0  0  0  0
M  END
$$$$

  -OEChem-05262214473D

 49 49  0     1  0  0  0  0  0999 V2000
   -1.6183    0.5613    3.8201 C   0  0  0  0  0  0  0  0  0  0  0  0
   -0.6710   -0.0534    3.3444 O   0  0  0  0  0  0  0  0  0  0  0  0
   -2.0502    0.2789    5.2208 C   0  0  0  0  0  0  0  0  0  0  0  0
   -2.8099   -0.5175    5.2742 H   0  0  0  0  0  0  0  0  0  0  0  0
   -1.2190   -0.0687    5.8551 H   0  0  0  0  0  0  0  0  0  0  0  0
   -2.4882    1.1338    5.7604 H   0  0  0  0  0  0  0  0  0  0  0  0
   -2.3680    1.5337    3.1790 N   0  0  0  0  0  0  0  0  0  0  0  0
   -2.1212    1.9597    1.8266 C   0  0  2  0  0  0  0  0  0  0  0  0
   -0.7862    1.3744    1.3854 C   0  0  0  0  0  0  0  0  0  0  0  0
    0.0859    1.0216    2.1767 O   0  0  0  0  0  0  0  0  0  0  0  0
   -2.1124    3.4765    1.7171 C   0  0  0  0  0  0  0  0  0  0  0  0
   -3.1331    1.9695    3.6908 H   0  0  0  0  0  0  0  0  0  0  0  0
   -2.9253    1.5413    1.2115 H   0  0  0  0  0  0  0  0  0  0  0  0
   -1.3133    3.9138    2.3268 H   0  0  0  0  0  0  0  0  0  0  0  0
   -1.9529    3.7988    0.6829 H   0  0  0  0  0  0  0  0  0  0  0  0
   -3.0626    3.8977    2.0629 H   0  0  0  0  0  0  0  0  0  0  0  0
   -0.6635    1.3313    0.0020 N   0  0  0  0  0  0  0  0  0  0  0  0
    0.5138    0.8305   -0.6617 C   0  0  2  0  0  0  0  0  0  0  0  0
    1.2783    2.0368   -1.1950 C   0  0  0  0  0  0  0  0  0  0  0  0
    1.9662    2.7625   -0.4801 O   0  0  0  0  0  0  0  0  0  0  0  0
    0.1691   -0.1303   -1.8055 C   0  0  0  0  0  0  0  0  0  0  0  0
   -0.5167   -1.3863   -1.3261 C   0  0  0  0  0  0  0  0  0  0  0  0
    0.1970   -2.3744   -0.6952 N   0  0  0  0  0  0  0  0  0  0  0  0
   -1.8456   -1.7232   -1.4305 C   0  0  0  0  0  0  0  0  0  0  0  0
   -0.6906   -3.3036   -0.4182 C   0  0  0  0  0  0  0  0  0  0  0  0
   -1.9416   -2.9541   -0.8450 N   0  0  0  0  0  0  0  0  0  0  0  0
   -1.4467    1.6280   -0.5753 H   0  0  0  0  0  0  0  0  0  0  0  0
    1.1179    0.3336    0.1065 H   0  0  0  0  0  0  0  0  0  0  0  0
    1.0759   -0.3954   -2.3659 H   0  0  0  0  0  0  0  0  0  0  0  0
   -0.4867    0.3622   -2.5356 H   0  0  0  0  0  0  0  0  0  0  0  0
   -2.7037   -1.2202   -1.8527 H   0  0  0  0  0  0  0  0  0  0  0  0
   -0.4958   -4.2410    0.0834 H   0  0  0  0  0  0  0  0  0  0  0  0
   -2.7835   -3.5052   -0.7447 H   0  0  0  0  0  0  0  0  0  0  0  0
    1.1397    2.1738   -2.5692 N   0  0  0  0  0  0  0  0  0  0  0  0
    1.7804    3.2216   -3.3309 C   0  0  2  0  0  0  0  0  0  0  0  0
    1.4866    4.5490   -2.6444 C   0  0  0  0  0  0  0  0  0  0  0  0
    0.5286    4.7179   -1.8929 O   0  0  0  0  0  0  0  0  0  0  0  0
    1.2936    3.2352   -4.7716 C   0  0  0  0  0  0  0  0  0  0  0  0
    0.5586    1.5038   -3.0645 H   0  0  0  0  0  0  0  0  0  0  0  0
    2.8573    3.0233   -3.2980 H   0  0  0  0  0  0  0  0  0  0  0  0
    0.2167    3.4325   -4.8247 H   0  0  0  0  0  0  0  0  0  0  0  0
    1.8008    4.0111   -5.3545 H   0  0  0  0  0  0  0  0  0  0  0  0
    1.4788    2.2698   -5.2547 H   0  0  0  0  0  0  0  0  0  0  0  0
    2.3952    5.5347   -3.0036 N   0  0  0  0  0  0  0  0  0  0  0  0
    2.3223    6.8847   -2.4956 C   0  0  0  0  0  0  0  0  0  0  0  0
    3.1695    5.3006   -3.6180 H   0  0  0  0  0  0  0  0  0  0  0  0
    1.7360    7.5065   -3.1881 H   0  0  0  0  0  0  0  0  0  0  0  0
    1.8376    6.8791   -1.5081 H   0  0  0  0  0  0  0  0  0  0  0  0
    3.3379    7.2969   -2.4032 H   0  0  0  0  0  0  0  0  0  0  0  0
 22 24  2  0  0  0  0
 24 26  1  0  0  0  0
 23 25  2  0  0  0  0
 25 26  1  0  0  0  0
 21 22  1  0  0  0  0
 22 23  1  0  0  0  0
  1  3  1  0  0  0  0
  1  7  1  0  0  0  0
  1  2  2  0  0  0  0
 35 36  1  0  0  0  0
 36 44  1  0  0  0  0
 36 37  2  0  0  0  0
  8  9  1  0  0  0  0
  9 17  1  0  0  0  0
  9 10  2  0  0  0  0
 18 19  1  0  0  0  0
 19 34  1  0  0  0  0
 19 20  2  0  0  0  0
 35 38  1  0  0  0  0
  8 11  1  0  0  0  0
 44 45  1  0  0  0  0
 18 21  1  0  0  0  0
 34 35  1  0  0  0  0
  7  8  1  0  0  0  0
 17 18  1  0  0  0  0
 24 31  1  0  0  0  0
 25 32  1  0  0  0  0
  3  4  1  0  0  0  0
  3  5  1  0  0  0  0
  3  6  1  0  0  0  0
 38 41  1  0  0  0  0
 38 42  1  0  0  0  0
 38 43  1  0  0  0  0
 11 14  1  0  0  0  0
 11 15  1  0  0  0  0
 11 16  1  0  0  0  0
 45 47  1  0  0  0  0
 45 48  1  0  0  0  0
 45 49  1  0  0  0  0
 21 29  1  0  0  0  0
 21 30  1  0  0  0  0
 35 40  1  0  0  0  0
  8 13  1  0  0  0  0
 18 28  1  0  0  0  0
 26 33  1  0  0  0  0
 44 46  1  0  0  0  0
  7 12  1  0  0  0  0
 34 39  1  0  0  0  0
 17 27  1  0  0  0  0
M  END
$$$$

  -OEChem-05262214473D

 49 49  0     1  0  0  0  0  0999 V2000
   -1.6183    0.5613    3.8201 C   0  0  0  0  0  0  0  0  0  0  0  0
   -0.6710   -0.0534    3.3444 O   0  0  0  0  0  0  0  0  0  0  0  0
   -2.0502    0.2789    5.2208 C   0  0  0  0  0  0  0  0  0  0  0  0
   -2.8099   -0.5175    5.2742 H   0  0  0  0  0  0  0  0  0  0  0  0
   -1.2190   -0.0687    5.8551 H   0  0  0  0  0  0  0  0  0  0  0  0
   -2.4882    1.1338    5.7604 H   0  0  0  0  0  0  0  0  0  0  0  0
   -2.3680    1.5337    3.1790 N   0  0  0  0  0  0  0  0  0  0  0  0
   -2.1212    1.9597    1.8266 C   0  0  2  0  0  0  0  0  0  0  0  0
   -0.7862    1.3744    1.3854 C   0  0  0  0  0  0  0  0  0  0  0  0
    0.0859    1.0216    2.1767 O   0  0  0  0  0  0  0  0  0  0  0  0
   -2.1124    3.4765    1.7171 C   0  0  0  0  0  0  0  0  0  0  0  0
   -3.1331    1.9695    3.6908 H   0  0  0  0  0  0  0  0  0  0  0  0
   -2.9253    1.5413    1.2115 H   0  0  0  0  0  0  0  0  0  0  0  0
   -1.3133    3.9138    2.3268 H   0  0  0  0  0  0  0  0  0  0  0  0
   -1.9529    3.7988    0.6829 H   0  0  0  0  0  0  0  0  0  0  0  0
   -3.0626    3.8977    2.0629 H   0  0  0  0  0  0  0  0  0  0  0  0
   -0.6635    1.3313    0.0020 N   0  0  0  0  0  0  0  0  0  0  0  0
    0.5138    0.8305   -0.6617 C   0  0  2  0  0  0  0  0  0  0  0  0
    1.2783    2.0368   -1.1950 C   0  0  0  0  0  0  0  0  0  0  0  0
    2.1663    2.6007   -0.5591 O   0  0  0  0  0  0  0  0  0  0  0  0
    0.1691   -0.1303   -1.8055 C   0  0  0  0  0  0  0  0  0  0  0  0
   -0.5167   -1.3863   -1.3261 C   0  0  0  0  0  0  0  0  0  0  0  0
    0.1970   -2.3744   -0.6952 N   0  0  0  0  0  0  0  0  0  0  0  0
   -1.8456   -1.7232   -1.4305 C   0  0  0  0  0  0  0  0  0  0  0  0
   -0.6906   -3.3036   -0.4182 C   0  0  0  0  0  0  0  0  0  0  0  0
   -1.9416   -2.9541   -0.8450 N   0  0  0  0  0  0  0  0  0  0  0  0
   -1.4467    1.6280   -0.5753 H   0  0  0  0  0  0  0  0  0  0  0  0
    1.1179    0.3336    0.1065 H   0  0  0  0  0  0  0  0  0  0  0  0
    1.0759   -0.3954   -2.3659 H   0  0  0  0  0  0  0  0  0  0  0  0
   -0.4867    0.3622   -2.5356 H   0  0  0  0  0  0  0  0  0  0  0  0
   -2.7037   -1.2202   -1.8527 H   0  0  0  0  0  0  0  0  0  0  0  0
   -0.4958   -4.2410    0.0834 H   0  0  0  0  0  0  0  0  0  0  0  0
   -2.7835   -3.5052   -0.7447 H   0  0  0  0  0  0  0  0  0  0  0  0
    0.8842    2.3740   -2.4824 N   0  0  0  0  0  0  0  0  0  0  0  0
    1.4663    3.4652   -3.2302 C   0  0  2  0  0  0  0  0  0  0  0  0
    1.4545    4.7028   -2.3426 C   0  0  0  0  0  0  0  0  0  0  0  0
    0.6879    4.8386   -1.3913 O   0  0  0  0  0  0  0  0  0  0  0  0
    0.7068    3.7168   -4.5236 C   0  0  0  0  0  0  0  0  0  0  0  0
    0.1498    1.8264   -2.9210 H   0  0  0  0  0  0  0  0  0  0  0  0
    2.5016    3.1819   -3.4491 H   0  0  0  0  0  0  0  0  0  0  0  0
   -0.3327    4.0019   -4.3244 H   0  0  0  0  0  0  0  0  0  0  0  0
    1.1660    4.5248   -5.1026 H   0  0  0  0  0  0  0  0  0  0  0  0
    0.6908    2.8167   -5.1475 H   0  0  0  0  0  0  0  0  0  0  0  0
    2.3711    5.6559   -2.7639 N   0  0  0  0  0  0  0  0  0  0  0  0
    2.5416    6.9236   -2.0932 C   0  0  0  0  0  0  0  0  0  0  0  0
    2.9791    5.4508   -3.5512 H   0  0  0  0  0  0  0  0  0  0  0  0
    1.8972    7.6791   -2.5666 H   0  0  0  0  0  0  0  0  0  0  0  0
    2.2650    6.8179   -1.0338 H   0  0  0  0  0  0  0  0  0  0  0  0
    3.5926    7.2395   -2.1680 H   0  0  0  0  0  0  0  0  0  0  0  0
 22 24  2  0  0  0  0
 24 26  1  0  0  0  0
 23 25  2  0  0  0  0
 25 26  1  0  0  0  0
 21 22  1  0  0  0  0
 22 23  1  0  0  0  0
  1  3  1  0  0  0  0
  1  7  1  0  0  0  0
  1  2  2  0  0  0  0
 35 36  1  0  0  0  0
 36 44  1  0  0  0  0
 36 37  2  0  0  0  0
  8  9  1  0  0  0  0
  9 17  1  0  0  0  0
  9 10  2  0  0  0  0
 18 19  1  0  0  0  0
 19 34  1  0  0  0  0
 19 20  2  0  0  0  0
 35 38  1  0  0  0  0
  8 11  1  0  0  0  0
 44 45  1  0  0  0  0
 18 21  1  0  0  0  0
 34 35  1  0  0  0  0
  7  8  1  0  0  0  0
 17 18  1  0  0  0  0
 24 31  1  0  0  0  0
 25 32  1  0  0  0  0
  3  4  1  0  0  0  0
  3  5  1  0  0  0  0
  3  6  1  0  0  0  0
 38 41  1  0  0  0  0
 38 42  1  0  0  0  0
 38 43  1  0  0  0  0
 11 14  1  0  0  0  0
 11 15  1  0  0  0  0
 11 16  1  0  0  0  0
 45 47  1  0  0  0  0
 45 48  1  0  0  0  0
 45 49  1  0  0  0  0
 21 29  1  0  0  0  0
 21 30  1  0  0  0  0
 35 40  1  0  0  0  0
  8 13  1  0  0  0  0
 18 28  1  0  0  0  0
 26 33  1  0  0  0  0
 44 46  1  0  0  0  0
  7 12  1  0  0  0  0
 34 39  1  0  0  0  0
 17 27  1  0  0  0  0
M  END
$$$$

  -OEChem-05262214473D

 49 49  0     1  0  0  0  0  0999 V2000
   -1.6183    0.5613    3.8201 C   0  0  0  0  0  0  0  0  0  0  0  0
   -0.6710   -0.0534    3.3444 O   0  0  0  0  0  0  0  0  0  0  0  0
   -2.0502    0.2789    5.2208 C   0  0  0  0  0  0  0  0  0  0  0  0
   -2.8099   -0.5175    5.2742 H   0  0  0  0  0  0  0  0  0  0  0  0
   -1.2190   -0.0687    5.8551 H   0  0  0  0  0  0  0  0  0  0  0  0
   -2.4882    1.1338    5.7604 H   0  0  0  0  0  0  0  0  0  0  0  0
   -2.3680    1.5337    3.1790 N   0  0  0  0  0  0  0  0  0  0  0  0
   -2.1212    1.9597    1.8266 C   0  0  2  0  0  0  0  0  0  0  0  0
   -0.7862    1.3744    1.3854 C   0  0  0  0  0  0  0  0  0  0  0  0
    0.0859    1.0216    2.1767 O   0  0  0  0  0  0  0  0  0  0  0  0
   -2.1124    3.4765    1.7171 C   0  0  0  0  0  0  0  0  0  0  0  0
   -3.1331    1.9695    3.6908 H   0  0  0  0  0  0  0  0  0  0  0  0
   -2.9253    1.5413    1.2115 H   0  0  0  0  0  0  0  0  0  0  0  0
   -1.3133    3.9138    2.3268 H   0  0  0  0  0  0  0  0  0  0  0  0
   -1.9529    3.7988    0.6829 H   0  0  0  0  0  0  0  0  0  0  0  0
   -3.0626    3.8977    2.0629 H   0  0  0  0  0  0  0  0  0  0  0  0
   -0.6635    1.3313    0.0020 N   0  0  0  0  0  0  0  0  0  0  0  0
    0.5138    0.8305   -0.6617 C   0  0  2  0  0  0  0  0  0  0  0  0
    1.2783    2.0368   -1.1950 C   0  0  0  0  0  0  0  0  0  0  0  0
    2.3288    2.4366   -0.6974 O   0  0  0  0  0  0  0  0  0  0  0  0
    0.1691   -0.1303   -1.8055 C   0  0  0  0  0  0  0  0  0  0  0  0
   -0.5167   -1.3863   -1.3261 C   0  0  0  0  0  0  0  0  0  0  0  0
    0.1970   -2.3744   -0.6952 N   0  0  0  0  0  0  0  0  0  0  0  0
   -1.8456   -1.7232   -1.4305 C   0  0  0  0  0  0  0  0  0  0  0  0
   -0.6906   -3.3036   -0.4182 C   0  0  0  0  0  0  0  0  0  0  0  0
   -1.9416   -2.9541   -0.8450 N   0  0  0  0  0  0  0  0  0  0  0  0
   -1.4467    1.6280   -0.5753 H   0  0  0  0  0  0  0  0  0  0  0  0
    1.1179    0.3336    0.1065 H   0  0  0  0  0  0  0  0  0  0  0  0
    1.0759   -0.3954   -2.3659 H   0  0  0  0  0  0  0  0  0  0  0  0
   -0.4867    0.3622   -2.5356 H   0  0  0  0  0  0  0  0  0  0  0  0
   -2.7037   -1.2202   -1.8527 H   0  0  0  0  0  0  0  0  0  0  0  0
   -0.4958   -4.2410    0.0834 H   0  0  0  0  0  0  0  0  0  0  0  0
   -2.7835   -3.5052   -0.7447 H   0  0  0  0  0  0  0  0  0  0  0  0
    0.6734    2.5793   -2.3202 N   0  0  0  0  0  0  0  0  0  0  0  0
    1.2055    3.7160   -3.0370 C   0  0  2  0  0  0  0  0  0  0  0  0
    1.4993    4.8150   -2.0245 C   0  0  0  0  0  0  0  0  0  0  0  0
    0.9555    4.8757   -0.9237 O   0  0  0  0  0  0  0  0  0  0  0  0
    0.2345    4.2029   -4.1013 C   0  0  0  0  0  0  0  0  0  0  0  0
   -0.1865    2.1563   -2.6569 H   0  0  0  0  0  0  0  0  0  0  0  0
    2.1414    3.3870   -3.5017 H   0  0  0  0  0  0  0  0  0  0  0  0
   -0.7092    4.5366   -3.6547 H   0  0  0  0  0  0  0  0  0  0  0  0
    0.6509    5.0459   -4.6625 H   0  0  0  0  0  0  0  0  0  0  0  0
    0.0011    3.4023   -4.8116 H   0  0  0  0  0  0  0  0  0  0  0  0
    2.4079    5.7441   -2.5116 N   0  0  0  0  0  0  0  0  0  0  0  0
    2.8393    6.8891   -1.7443 C   0  0  0  0  0  0  0  0  0  0  0  0
    2.8226    5.6043   -3.4283 H   0  0  0  0  0  0  0  0  0  0  0  0
    2.1959    7.7505   -1.9768 H   0  0  0  0  0  0  0  0  0  0  0  0
    2.7694    6.6586   -0.6710 H   0  0  0  0  0  0  0  0  0  0  0  0
    3.8815    7.1304   -2.0004 H   0  0  0  0  0  0  0  0  0  0  0  0
 22 24  2  0  0  0  0
 24 26  1  0  0  0  0
 23 25  2  0  0  0  0
 25 26  1  0  0  0  0
 21 22  1  0  0  0  0
 22 23  1  0  0  0  0
  1  3  1  0  0  0  0
  1  7  1  0  0  0  0
  1  2  2  0  0  0  0
 35 36  1  0  0  0  0
 36 44  1  0  0  0  0
 36 37  2  0  0  0  0
  8  9  1  0  0  0  0
  9 17  1  0  0  0  0
  9 10  2  0  0  0  0
 18 19  1  0  0  0  0
 19 34  1  0  0  0  0
 19 20  2  0  0  0  0
 35 38  1  0  0  0  0
  8 11  1  0  0  0  0
 44 45  1  0  0  0  0
 18 21  1  0  0  0  0
 34 35  1  0  0  0  0
  7  8  1  0  0  0  0
 17 18  1  0  0  0  0
 24 31  1  0  0  0  0
 25 32  1  0  0  0  0
  3  4  1  0  0  0  0
  3  5  1  0  0  0  0
  3  6  1  0  0  0  0
 38 41  1  0  0  0  0
 38 42  1  0  0  0  0
 38 43  1  0  0  0  0
 11 14  1  0  0  0  0
 11 15  1  0  0  0  0
 11 16  1  0  0  0  0
 45 47  1  0  0  0  0
 45 48  1  0  0  0  0
 45 49  1  0  0  0  0
 21 29  1  0  0  0  0
 21 30  1  0  0  0  0
 35 40  1  0  0  0  0
  8 13  1  0  0  0  0
 18 28  1  0  0  0  0
 26 33  1  0  0  0  0
 44 46  1  0  0  0  0
  7 12  1  0  0  0  0
 34 39  1  0  0  0  0
 17 27  1  0  0  0  0
M  END
$$$$

  -OEChem-05262214473D

 49 49  0     1  0  0  0  0  0999 V2000
   -1.6183    0.5613    3.8201 C   0  0  0  0  0  0  0  0  0  0  0  0
   -0.6710   -0.0534    3.3444 O   0  0  0  0  0  0  0  0  0  0  0  0
   -2.0502    0.2789    5.2208 C   0  0  0  0  0  0  0  0  0  0  0  0
   -2.8099   -0.5175    5.2742 H   0  0  0  0  0  0  0  0  0  0  0  0
   -1.2190   -0.0687    5.8551 H   0  0  0  0  0  0  0  0  0  0  0  0
   -2.4882    1.1338    5.7604 H   0  0  0  0  0  0  0  0  0  0  0  0
   -2.3680    1.5337    3.1790 N   0  0  0  0  0  0  0  0  0  0  0  0
   -2.1212    1.9597    1.8266 C   0  0  2  0  0  0  0  0  0  0  0  0
   -0.7862    1.3744    1.3854 C   0  0  0  0  0  0  0  0  0  0  0  0
    0.0859    1.0216    2.1767 O   0  0  0  0  0  0  0  0  0  0  0  0
   -2.1124    3.4765    1.7171 C   0  0  0  0  0  0  0  0  0  0  0  0
   -3.1331    1.9695    3.6908 H   0  0  0  0  0  0  0  0  0  0  0  0
   -2.9253    1.5413    1.2115 H   0  0  0  0  0  0  0  0  0  0  0  0
   -1.3133    3.9138    2.3268 H   0  0  0  0  0  0  0  0  0  0  0  0
   -1.9529    3.7988    0.6829 H   0  0  0  0  0  0  0  0  0  0  0  0
   -3.0626    3.8977    2.0629 H   0  0  0  0  0  0  0  0  0  0  0  0
   -0.6635    1.3313    0.0020 N   0  0  0  0  0  0  0  0  0  0  0  0
    0.5138    0.8305   -0.6617 C   0  0  2  0  0  0  0  0  0  0  0  0
    1.2783    2.0368   -1.1950 C   0  0  0  0  0  0  0  0  0  0  0  0
    2.4425    2.2813   -0.8855 O   0  0  0  0  0  0  0  0  0  0  0  0
    0.1691   -0.1303   -1.8055 C   0  0  0  0  0  0  0  0  0  0  0  0
   -0.5167   -1.3863   -1.3261 C   0  0  0  0  0  0  0  0  0  0  0  0
    0.1970   -2.3744   -0.6952 N   0  0  0  0  0  0  0  0  0  0  0  0
   -1.8456   -1.7232   -1.4305 C   0  0  0  0  0  0  0  0  0  0  0  0
   -0.6906   -3.3036   -0.4182 C   0  0  0  0  0  0  0  0  0  0  0  0
   -1.9416   -2.9541   -0.8450 N   0  0  0  0  0  0  0  0  0  0  0  0
   -1.4467    1.6280   -0.5753 H   0  0  0  0  0  0  0  0  0  0  0  0
    1.1179    0.3336    0.1065 H   0  0  0  0  0  0  0  0  0  0  0  0
    1.0759   -0.3954   -2.3659 H   0  0  0  0  0  0  0  0  0  0  0  0
   -0.4867    0.3622   -2.5356 H   0  0  0  0  0  0  0  0  0  0  0  0
   -2.7037   -1.2202   -1.8527 H   0  0  0  0  0  0  0  0  0  0  0  0
   -0.4958   -4.2410    0.0834 H   0  0  0  0  0  0  0  0  0  0  0  0
   -2.7835   -3.5052   -0.7447 H   0  0  0  0  0  0  0  0  0  0  0  0
    0.5216    2.7757   -2.0938 N   0  0  0  0  0  0  0  0  0  0  0  0
    1.0159    3.9567   -2.7645 C   0  0  2  0  0  0  0  0  0  0  0  0
    1.6179    4.8781   -1.7118 C   0  0  0  0  0  0  0  0  0  0  0  0
    1.3132    4.8267   -0.5220 O   0  0  0  0  0  0  0  0  0  0  0  0
   -0.0913    4.6603   -3.5337 C   0  0  0  0  0  0  0  0  0  0  0  0
   -0.4273    2.4711   -2.2900 H   0  0  0  0  0  0  0  0  0  0  0  0
    1.8013    3.6245   -3.4521 H   0  0  0  0  0  0  0  0  0  0  0  0
   -0.8874    5.0004   -2.8613 H   0  0  0  0  0  0  0  0  0  0  0  0
    0.2906    5.5387   -4.0644 H   0  0  0  0  0  0  0  0  0  0  0  0
   -0.5432    3.9868   -4.2699 H   0  0  0  0  0  0  0  0  0  0  0  0
    2.5032    5.7932   -2.2641 N   0  0  0  0  0  0  0  0  0  0  0  0
    3.1953    6.7836   -1.4728 C   0  0  0  0  0  0  0  0  0  0  0  0
    2.7104    5.7509   -3.2576 H   0  0  0  0  0  0  0  0  0  0  0  0
    2.6117    7.7159   -1.4591 H   0  0  0  0  0  0  0  0  0  0  0  0
    3.3165    6.4119   -0.4446 H   0  0  0  0  0  0  0  0  0  0  0  0
    4.1851    6.9772   -1.9119 H   0  0  0  0  0  0  0  0  0  0  0  0
 22 24  2  0  0  0  0
 24 26  1  0  0  0  0
 23 25  2  0  0  0  0
 25 26  1  0  0  0  0
 21 22  1  0  0  0  0
 22 23  1  0  0  0  0
  1  3  1  0  0  0  0
  1  7  1  0  0  0  0
  1  2  2  0  0  0  0
 35 36  1  0  0  0  0
 36 44  1  0  0  0  0
 36 37  2  0  0  0  0
  8  9  1  0  0  0  0
  9 17  1  0  0  0  0
  9 10  2  0  0  0  0
 18 19  1  0  0  0  0
 19 34  1  0  0  0  0
 19 20  2  0  0  0  0
 35 38  1  0  0  0  0
  8 11  1  0  0  0  0
 44 45  1  0  0  0  0
 18 21  1  0  0  0  0
 34 35  1  0  0  0  0
  7  8  1  0  0  0  0
 17 18  1  0  0  0  0
 24 31  1  0  0  0  0
 25 32  1  0  0  0  0
  3  4  1  0  0  0  0
  3  5  1  0  0  0  0
  3  6  1  0  0  0  0
 38 41  1  0  0  0  0
 38 42  1  0  0  0  0
 38 43  1  0  0  0  0
 11 14  1  0  0  0  0
 11 15  1  0  0  0  0
 11 16  1  0  0  0  0
 45 47  1  0  0  0  0
 45 48  1  0  0  0  0
 45 49  1  0  0  0  0
 21 29  1  0  0  0  0
 21 30  1  0  0  0  0
 35 40  1  0  0  0  0
  8 13  1  0  0  0  0
 18 28  1  0  0  0  0
 26 33  1  0  0  0  0
 44 46  1  0  0  0  0
  7 12  1  0  0  0  0
 34 39  1  0  0  0  0
 17 27  1  0  0  0  0
M  END
$$$$

  -OEChem-05262214473D

 49 49  0     1  0  0  0  0  0999 V2000
   -1.6183    0.5613    3.8201 C   0  0  0  0  0  0  0  0  0  0  0  0
   -0.6710   -0.0534    3.3444 O   0  0  0  0  0  0  0  0  0  0  0  0
   -2.0502    0.2789    5.2208 C   0  0  0  0  0  0  0  0  0  0  0  0
   -2.8099   -0.5175    5.2742 H   0  0  0  0  0  0  0  0  0  0  0  0
   -1.2190   -0.0687    5.8551 H   0  0  0  0  0  0  0  0  0  0  0  0
   -2.4882    1.1338    5.7604 H   0  0  0  0  0  0  0  0  0  0  0  0
   -2.3680    1.5337    3.1790 N   0  0  0  0  0  0  0  0  0  0  0  0
   -2.1212    1.9597    1.8266 C   0  0  2  0  0  0  0  0  0  0  0  0
   -0.7862    1.3744    1.3854 C   0  0  0  0  0  0  0  0  0  0  0  0
    0.0859    1.0216    2.1767 O   0  0  0  0  0  0  0  0  0  0  0  0
   -2.1124    3.4765    1.7171 C   0  0  0  0  0  0  0  0  0  0  0  0
   -3.1331    1.9695    3.6908 H   0  0  0  0  0  0  0  0  0  0  0  0
   -2.9253    1.5413    1.2115 H   0  0  0  0  0  0  0  0  0  0  0  0
   -1.3133    3.9138    2.3268 H   0  0  0  0  0  0  0  0  0  0  0  0
   -1.9529    3.7988    0.6829 H   0  0  0  0  0  0  0  0  0  0  0  0
   -3.0626    3.8977    2.0629 H   0  0  0  0  0  0  0  0  0  0  0  0
   -0.6635    1.3313    0.0020 N   0  0  0  0  0  0  0  0  0  0  0  0
    0.5138    0.8305   -0.6617 C   0  0  2  0  0  0  0  0  0  0  0  0
    1.2783    2.0368   -1.1950 C   0  0  0  0  0  0  0  0  0  0  0  0
    2.4998    2.1455   -1.1107 O   0  0  0  0  0  0  0  0  0  0  0  0
    0.1691   -0.1303   -1.8055 C   0  0  0  0  0  0  0  0  0  0  0  0
   -0.5167   -1.3863   -1.3261 C   0  0  0  0  0  0  0  0  0  0  0  0
    0.1970   -2.3744   -0.6952 N   0  0  0  0  0  0  0  0  0  0  0  0
   -1.8456   -1.7232   -1.4305 C   0  0  0  0  0  0  0  0  0  0  0  0
   -0.6906   -3.3036   -0.4182 C   0  0  0  0  0  0  0  0  0  0  0  0
   -1.9416   -2.9541   -0.8450 N   0  0  0  0  0  0  0  0  0  0  0  0
   -1.4467    1.6280   -0.5753 H   0  0  0  0  0  0  0  0  0  0  0  0
    1.1179    0.3336    0.1065 H   0  0  0  0  0  0  0  0  0  0  0  0
    1.0759   -0.3954   -2.3659 H   0  0  0  0  0  0  0  0  0  0  0  0
   -0.4867    0.3622   -2.5356 H   0  0  0  0  0  0  0  0  0  0  0  0
   -2.7037   -1.2202   -1.8527 H   0  0  0  0  0  0  0  0  0  0  0  0
   -0.4958   -4.2410    0.0834 H   0  0  0  0  0  0  0  0  0  0  0  0
   -2.7835   -3.5052   -0.7447 H   0  0  0  0  0  0  0  0  0  0  0  0
    0.4391    2.9497   -1.8184 N   0  0  0  0  0  0  0  0  0  0  0  0
    0.9103    4.1709   -2.4311 C   0  0  2  0  0  0  0  0  0  0  0  0
    1.8021    4.8877   -1.4259 C   0  0  0  0  0  0  0  0  0  0  0  0
    1.7364    4.6947   -0.2137 O   0  0  0  0  0  0  0  0  0  0  0  0
   -0.2483    5.0580   -2.8592 C   0  0  0  0  0  0  0  0  0  0  0  0
   -0.5563    2.7494   -1.8455 H   0  0  0  0  0  0  0  0  0  0  0  0
    1.5044    3.8782   -3.3037 H   0  0  0  0  0  0  0  0  0  0  0  0
   -0.8551    5.3614   -1.9983 H   0  0  0  0  0  0  0  0  0  0  0  0
    0.1098    5.9696   -3.3489 H   0  0  0  0  0  0  0  0  0  0  0  0
   -0.9052    4.5304   -3.5593 H   0  0  0  0  0  0  0  0  0  0  0  0
    2.6503    5.7998   -2.0381 N   0  0  0  0  0  0  0  0  0  0  0  0
    3.5851    6.6141   -1.2972 C   0  0  0  0  0  0  0  0  0  0  0  0
    2.6504    5.8805   -3.0507 H   0  0  0  0  0  0  0  0  0  0  0  0
    3.1162    7.5776   -1.0486 H   0  0  0  0  0  0  0  0  0  0  0  0
    3.8690    6.0947   -0.3700 H   0  0  0  0  0  0  0  0  0  0  0  0
    4.4825    6.7902   -1.9084 H   0  0  0  0  0  0  0  0  0  0  0  0
 22 24  2  0  0  0  0
 24 26  1  0  0  0  0
 23 25  2  0  0  0  0
 25 26  1  0  0  0  0
 21 22  1  0  0  0  0
 22 23  1  0  0  0  0
  1  3  1  0  0  0  0
  1  7  1  0  0  0  0
  1  2  2  0  0  0  0
 35 36  1  0  0  0  0
 36 44  1  0  0  0  0
 36 37  2  0  0  0  0
  8  9  1  0  0  0  0
  9 17  1  0  0  0  0
  9 10  2  0  0  0  0
 18 19  1  0  0  0  0
 19 34  1  0  0  0  0
 19 20  2  0  0  0  0
 35 38  1  0  0  0  0
  8 11  1  0  0  0  0
 44 45  1  0  0  0  0
 18 21  1  0  0  0  0
 34 35  1  0  0  0  0
  7  8  1  0  0  0  0
 17 18  1  0  0  0  0
 24 31  1  0  0  0  0
 25 32  1  0  0  0  0
  3  4  1  0  0  0  0
  3  5  1  0  0  0  0
  3  6  1  0  0  0  0
 38 41  1  0  0  0  0
 38 42  1  0  0  0  0
 38 43  1  0  0  0  0
 11 14  1  0  0  0  0
 11 15  1  0  0  0  0
 11 16  1  0  0  0  0
 45 47  1  0  0  0  0
 45 48  1  0  0  0  0
 45 49  1  0  0  0  0
 21 29  1  0  0  0  0
 21 30  1  0  0  0  0
 35 40  1  0  0  0  0
  8 13  1  0  0  0  0
 18 28  1  0  0  0  0
 26 33  1  0  0  0  0
 44 46  1  0  0  0  0
  7 12  1  0  0  0  0
 34 39  1  0  0  0  0
 17 27  1  0  0  0  0
M  END
$$$$

  -OEChem-05262214473D

 49 49  0     1  0  0  0  0  0999 V2000
   -1.6183    0.5613    3.8201 C   0  0  0  0  0  0  0  0  0  0  0  0
   -0.6710   -0.0534    3.3444 O   0  0  0  0  0  0  0  0  0  0  0  0
   -2.0502    0.2789    5.2208 C   0  0  0  0  0  0  0  0  0  0  0  0
   -2.8099   -0.5175    5.2742 H   0  0  0  0  0  0  0  0  0  0  0  0
   -1.2190   -0.0687    5.8551 H   0  0  0  0  0  0  0  0  0  0  0  0
   -2.4882    1.1338    5.7604 H   0  0  0  0  0  0  0  0  0  0  0  0
   -2.3680    1.5337    3.1790 N   0  0  0  0  0  0  0  0  0  0  0  0
   -2.1212    1.9597    1.8266 C   0  0  2  0  0  0  0  0  0  0  0  0
   -0.7862    1.3744    1.3854 C   0  0  0  0  0  0  0  0  0  0  0  0
    0.0859    1.0216    2.1767 O   0  0  0  0  0  0  0  0  0  0  0  0
   -2.1124    3.4765    1.7171 C   0  0  0  0  0  0  0  0  0  0  0  0
   -3.1331    1.9695    3.6908 H   0  0  0  0  0  0  0  0  0  0  0  0
   -2.9253    1.5413    1.2115 H   0  0  0  0  0  0  0  0  0  0  0  0
   -1.3133    3.9138    2.3268 H   0  0  0  0  0  0  0  0  0  0  0  0
   -1.9529    3.7988    0.6829 H   0  0  0  0  0  0  0  0  0  0  0  0
   -3.0626    3.8977    2.0629 H   0  0  0  0  0  0  0  0  0  0  0  0
   -0.6635    1.3313    0.0020 N   0  0  0  0  0  0  0  0  0  0  0  0
    0.5138    0.8305   -0.6617 C   0  0  2  0  0  0  0  0  0  0  0  0
    1.2783    2.0368   -1.1950 C   0  0  0  0  0  0  0  0  0  0  0  0
    2.4967    2.0383   -1.3576 O   0  0  0  0  0  0  0  0  0  0  0  0
    0.1691   -0.1303   -1.8055 C   0  0  0  0  0  0  0  0  0  0  0  0
   -0.5167   -1.3863   -1.3261 C   0  0  0  0  0  0  0  0  0  0  0  0
    0.1970   -2.3744   -0.6952 N   0  0  0  0  0  0  0  0  0  0  0  0
   -1.8456   -1.7232   -1.4305 C   0  0  0  0  0  0  0  0  0  0  0  0
   -0.6906   -3.3036   -0.4182 C   0  0  0  0  0  0  0  0  0  0  0  0
   -1.9416   -2.9541   -0.8450 N   0  0  0  0  0  0  0  0  0  0  0  0
   -1.4467    1.6280   -0.5753 H   0  0  0  0  0  0  0  0  0  0  0  0
    1.1179    0.3336    0.1065 H   0  0  0  0  0  0  0  0  0  0  0  0
    1.0759   -0.3954   -2.3659 H   0  0  0  0  0  0  0  0  0  0  0  0
   -0.4867    0.3622   -2.5356 H   0  0  0  0  0  0  0  0  0  0  0  0
   -2.7037   -1.2202   -1.8527 H   0  0  0  0  0  0  0  0  0  0  0  0
   -0.4958   -4.2410    0.0834 H   0  0  0  0  0  0  0  0  0  0  0  0
   -2.7835   -3.5052   -0.7447 H   0  0  0  0  0  0  0  0  0  0  0  0
    0.4316    3.0895   -1.5130 N   0  0  0  0  0  0  0  0  0  0  0  0
    0.8960    4.3442   -2.0597 C   0  0  2  0  0  0  0  0  0  0  0  0
    2.0395    4.8432   -1.1862 C   0  0  0  0  0  0  0  0  0  0  0  0
    2.1964    4.4890   -0.0196 O   0  0  0  0  0  0  0  0  0  0  0  0
   -0.2259    5.3688   -2.1240 C   0  0  0  0  0  0  0  0  0  0  0  0
   -0.5647    2.9722   -1.3535 H   0  0  0  0  0  0  0  0  0  0  0  0
    1.2710    4.1310   -3.0666 H   0  0  0  0  0  0  0  0  0  0  0  0
   -0.6144    5.5952   -1.1244 H   0  0  0  0  0  0  0  0  0  0  0  0
    0.1206    6.3094   -2.5647 H   0  0  0  0  0  0  0  0  0  0  0  0
   -1.0600    4.9960   -2.7282 H   0  0  0  0  0  0  0  0  0  0  0  0
    2.8393    5.7636   -1.8491 N   0  0  0  0  0  0  0  0  0  0  0  0
    3.9823    6.3924   -1.2293 C   0  0  0  0  0  0  0  0  0  0  0  0
    2.6464    5.9842   -2.8217 H   0  0  0  0  0  0  0  0  0  0  0  0
    3.6750    7.3451   -0.7734 H   0  0  0  0  0  0  0  0  0  0  0  0
    4.3893    5.7286   -0.4523 H   0  0  0  0  0  0  0  0  0  0  0  0
    4.7537    6.5821   -1.9902 H   0  0  0  0  0  0  0  0  0  0  0  0
 22 24  2  0  0  0  0
 24 26  1  0  0  0  0
 23 25  2  0  0  0  0
 25 26  1  0  0  0  0
 21 22  1  0  0  0  0
 22 23  1  0  0  0  0
  1  3  1  0  0  0  0
  1  7  1  0  0  0  0
  1  2  2  0  0  0  0
 35 36  1  0  0  0  0
 36 44  1  0  0  0  0
 36 37  2  0  0  0  0
  8  9  1  0  0  0  0
  9 17  1  0  0  0  0
  9 10  2  0  0  0  0
 18 19  1  0  0  0  0
 19 34  1  0  0  0  0
 19 20  2  0  0  0  0
 35 38  1  0  0  0  0
  8 11  1  0  0  0  0
 44 45  1  0  0  0  0
 18 21  1  0  0  0  0
 34 35  1  0  0  0  0
  7  8  1  0  0  0  0
 17 18  1  0  0  0  0
 24 31  1  0  0  0  0
 25 32  1  0  0  0  0
  3  4  1  0  0  0  0
  3  5  1  0  0  0  0
  3  6  1  0  0  0  0
 38 41  1  0  0  0  0
 38 42  1  0  0  0  0
 38 43  1  0  0  0  0
 11 14  1  0  0  0  0
 11 15  1  0  0  0  0
 11 16  1  0  0  0  0
 45 47  1  0  0  0  0
 45 48  1  0  0  0  0
 45 49  1  0  0  0  0
 21 29  1  0  0  0  0
 21 30  1  0  0  0  0
 35 40  1  0  0  0  0
  8 13  1  0  0  0  0
 18 28  1  0  0  0  0
 26 33  1  0  0  0  0
 44 46  1  0  0  0  0
  7 12  1  0  0  0  0
 34 39  1  0  0  0  0
 17 27  1  0  0  0  0
M  END
$$$$

  -OEChem-05262214473D

 49 49  0     1  0  0  0  0  0999 V2000
   -1.6183    0.5613    3.8201 C   0  0  0  0  0  0  0  0  0  0  0  0
   -0.6710   -0.0534    3.3444 O   0  0  0  0  0  0  0  0  0  0  0  0
   -2.0502    0.2789    5.2208 C   0  0  0  0  0  0  0  0  0  0  0  0
   -2.8099   -0.5175    5.2742 H   0  0  0  0  0  0  0  0  0  0  0  0
   -1.2190   -0.0687    5.8551 H   0  0  0  0  0  0  0  0  0  0  0  0
   -2.4882    1.1338    5.7604 H   0  0  0  0  0  0  0  0  0  0  0  0
   -2.3680    1.5337    3.1790 N   0  0  0  0  0  0  0  0  0  0  0  0
   -2.1212    1.9597    1.8266 C   0  0  2  0  0  0  0  0  0  0  0  0
   -0.7862    1.3744    1.3854 C   0  0  0  0  0  0  0  0  0  0  0  0
    0.0859    1.0216    2.1767 O   0  0  0  0  0  0  0  0  0  0  0  0
   -2.1124    3.4765    1.7171 C   0  0  0  0  0  0  0  0  0  0  0  0
   -3.1331    1.9695    3.6908 H   0  0  0  0  0  0  0  0  0  0  0  0
   -2.9253    1.5413    1.2115 H   0  0  0  0  0  0  0  0  0  0  0  0
   -1.3133    3.9138    2.3268 H   0  0  0  0  0  0  0  0  0  0  0  0
   -1.9529    3.7988    0.6829 H   0  0  0  0  0  0  0  0  0  0  0  0
   -3.0626    3.8977    2.0629 H   0  0  0  0  0  0  0  0  0  0  0  0
   -0.6635    1.3313    0.0020 N   0  0  0  0  0  0  0  0  0  0  0  0
    0.5138    0.8305   -0.6617 C   0  0  2  0  0  0  0  0  0  0  0  0
    1.2783    2.0368   -1.1950 C   0  0  0  0  0  0  0  0  0  0  0  0
    2.4335    1.9670   -1.6094 O   0  0  0  0  0  0  0  0  0  0  0  0
    0.1691   -0.1303   -1.8055 C   0  0  0  0  0  0  0  0  0  0  0  0
   -0.5167   -1.3863   -1.3261 C   0  0  0  0  0  0  0  0  0  0  0  0
    0.1970   -2.3744   -0.6952 N   0  0  0  0  0  0  0  0  0  0  0  0
   -1.8456   -1.7232   -1.4305 C   0  0  0  0  0  0  0  0  0  0  0  0
   -0.6906   -3.3036   -0.4182 C   0  0  0  0  0  0  0  0  0  0  0  0
   -1.9416   -2.9541   -0.8450 N   0  0  0  0  0  0  0  0  0  0  0  0
   -1.4467    1.6280   -0.5753 H   0  0  0  0  0  0  0  0  0  0  0  0
    1.1179    0.3336    0.1065 H   0  0  0  0  0  0  0  0  0  0  0  0
    1.0759   -0.3954   -2.3659 H   0  0  0  0  0  0  0  0  0  0  0  0
   -0.4867    0.3622   -2.5356 H   0  0  0  0  0  0  0  0  0  0  0  0
   -2.7037   -1.2202   -1.8527 H   0  0  0  0  0  0  0  0  0  0  0  0
   -0.4958   -4.2410    0.0834 H   0  0  0  0  0  0  0  0  0  0  0  0
   -2.7835   -3.5052   -0.7447 H   0  0  0  0  0  0  0  0  0  0  0  0
    0.4995    3.1856   -1.1983 N   0  0  0  0  0  0  0  0  0  0  0  0
    0.9740    4.4647   -1.6755 C   0  0  2  0  0  0  0  0  0  0  0  0
    2.3139    4.7476   -1.0091 C   0  0  0  0  0  0  0  0  0  0  0  0
    2.6619    4.2234    0.0469 O   0  0  0  0  0  0  0  0  0  0  0  0
   -0.0255    5.5716   -1.3781 C   0  0  0  0  0  0  0  0  0  0  0  0
   -0.4519    3.1243   -0.8477 H   0  0  0  0  0  0  0  0  0  0  0  0
    1.1170    4.3655   -2.7570 H   0  0  0  0  0  0  0  0  0  0  0  0
   -0.1818    5.6858   -0.2992 H   0  0  0  0  0  0  0  0  0  0  0  0
    0.3224    6.5349   -1.7655 H   0  0  0  0  0  0  0  0  0  0  0  0
   -0.9973    5.3519   -1.8333 H   0  0  0  0  0  0  0  0  0  0  0  0
    3.0572    5.6870   -1.7099 N   0  0  0  0  0  0  0  0  0  0  0  0
    4.3598    6.1334   -1.2739 C   0  0  0  0  0  0  0  0  0  0  0  0
    2.6989    6.0550   -2.5862 H   0  0  0  0  0  0  0  0  0  0  0  0
    4.2501    7.0342   -0.6522 H   0  0  0  0  0  0  0  0  0  0  0  0
    4.8418    5.3385   -0.6858 H   0  0  0  0  0  0  0  0  0  0  0  0
    4.9799    6.3673   -2.1518 H   0  0  0  0  0  0  0  0  0  0  0  0
 22 24  2  0  0  0  0
 24 26  1  0  0  0  0
 23 25  2  0  0  0  0
 25 26  1  0  0  0  0
 21 22  1  0  0  0  0
 22 23  1  0  0  0  0
  1  3  1  0  0  0  0
  1  7  1  0  0  0  0
  1  2  2  0  0  0  0
 35 36  1  0  0  0  0
 36 44  1  0  0  0  0
 36 37  2  0  0  0  0
  8  9  1  0  0  0  0
  9 17  1  0  0  0  0
  9 10  2  0  0  0  0
 18 19  1  0  0  0  0
 19 34  1  0  0  0  0
 19 20  2  0  0  0  0
 35 38  1  0  0  0  0
  8 11  1  0  0  0  0
 44 45  1  0  0  0  0
 18 21  1  0  0  0  0
 34 35  1  0  0  0  0
  7  8  1  0  0  0  0
 17 18  1  0  0  0  0
 24 31  1  0  0  0  0
 25 32  1  0  0  0  0
  3  4  1  0  0  0  0
  3  5  1  0  0  0  0
  3  6  1  0  0  0  0
 38 41  1  0  0  0  0
 38 42  1  0  0  0  0
 38 43  1  0  0  0  0
 11 14  1  0  0  0  0
 11 15  1  0  0  0  0
 11 16  1  0  0  0  0
 45 47  1  0  0  0  0
 45 48  1  0  0  0  0
 45 49  1  0  0  0  0
 21 29  1  0  0  0  0
 21 30  1  0  0  0  0
 35 40  1  0  0  0  0
  8 13  1  0  0  0  0
 18 28  1  0  0  0  0
 26 33  1  0  0  0  0
 44 46  1  0  0  0  0
  7 12  1  0  0  0  0
 34 39  1  0  0  0  0
 17 27  1  0  0  0  0
M  END
$$$$

  -OEChem-05262214473D

 49 49  0     1  0  0  0  0  0999 V2000
   -1.6183    0.5613    3.8201 C   0  0  0  0  0  0  0  0  0  0  0  0
   -0.6710   -0.0534    3.3444 O   0  0  0  0  0  0  0  0  0  0  0  0
   -2.0502    0.2789    5.2208 C   0  0  0  0  0  0  0  0  0  0  0  0
   -2.8099   -0.5175    5.2742 H   0  0  0  0  0  0  0  0  0  0  0  0
   -1.2190   -0.0687    5.8551 H   0  0  0  0  0  0  0  0  0  0  0  0
   -2.4882    1.1338    5.7604 H   0  0  0  0  0  0  0  0  0  0  0  0
   -2.3680    1.5337    3.1790 N   0  0  0  0  0  0  0  0  0  0  0  0
   -2.1212    1.9597    1.8266 C   0  0  2  0  0  0  0  0  0  0  0  0
   -0.7862    1.3744    1.3854 C   0  0  0  0  0  0  0  0  0  0  0  0
    0.0859    1.0216    2.1767 O   0  0  0  0  0  0  0  0  0  0  0  0
   -2.1124    3.4765    1.7171 C   0  0  0  0  0  0  0  0  0  0  0  0
   -3.1331    1.9695    3.6908 H   0  0  0  0  0  0  0  0  0  0  0  0
   -2.9253    1.5413    1.2115 H   0  0  0  0  0  0  0  0  0  0  0  0
   -1.3133    3.9138    2.3268 H   0  0  0  0  0  0  0  0  0  0  0  0
   -1.9529    3.7988    0.6829 H   0  0  0  0  0  0  0  0  0  0  0  0
   -3.0626    3.8977    2.0629 H   0  0  0  0  0  0  0  0  0  0  0  0
   -0.6635    1.3313    0.0020 N   0  0  0  0  0  0  0  0  0  0  0  0
    0.5138    0.8305   -0.6617 C   0  0  2  0  0  0  0  0  0  0  0  0
    1.2783    2.0368   -1.1950 C   0  0  0  0  0  0  0  0  0  0  0  0
    2.3144    1.9367   -1.8488 O   0  0  0  0  0  0  0  0  0  0  0  0
    0.1691   -0.1303   -1.8055 C   0  0  0  0  0  0  0  0  0  0  0  0
   -0.5167   -1.3863   -1.3261 C   0  0  0  0  0  0  0  0  0  0  0  0
    0.1970   -2.3744   -0.6952 N   0  0  0  0  0  0  0  0  0  0  0  0
   -1.8456   -1.7232   -1.4305 C   0  0  0  0  0  0  0  0  0  0  0  0
   -0.6906   -3.3036   -0.4182 C   0  0  0  0  0  0  0  0  0  0  0  0
   -1.9416   -2.9541   -0.8450 N   0  0  0  0  0  0  0  0  0  0  0  0
   -1.4467    1.6280   -0.5753 H   0  0  0  0  0  0  0  0  0  0  0  0
    1.1179    0.3336    0.1065 H   0  0  0  0  0  0  0  0  0  0  0  0
    1.0759   -0.3954   -2.3659 H   0  0  0  0  0  0  0  0  0  0  0  0
   -0.4867    0.3622   -2.5356 H   0  0  0  0  0  0  0  0  0  0  0  0
   -2.7037   -1.2202   -1.8527 H   0  0  0  0  0  0  0  0  0  0  0  0
   -0.4958   -4.2410    0.0834 H   0  0  0  0  0  0  0  0  0  0  0  0
   -2.7835   -3.5052   -0.7447 H   0  0  0  0  0  0  0  0  0  0  0  0
    0.6382    3.2314   -0.8958 N   0  0  0  0  0  0  0  0  0  0  0  0
    1.1389    4.5241   -1.3047 C   0  0  2  0  0  0  0  0  0  0  0  0
    2.6065    4.6074   -0.9066 C   0  0  0  0  0  0  0  0  0  0  0  0
    3.1010    3.9160   -0.0186 O   0  0  0  0  0  0  0  0  0  0  0  0
    0.3392    5.6525   -0.6723 C   0  0  0  0  0  0  0  0  0  0  0  0
   -0.2255    3.1954   -0.3625 H   0  0  0  0  0  0  0  0  0  0  0  0
    1.0529    4.5657   -2.3960 H   0  0  0  0  0  0  0  0  0  0  0  0
    0.4133    5.6271    0.4210 H   0  0  0  0  0  0  0  0  0  0  0  0
    0.7015    6.6306   -1.0055 H   0  0  0  0  0  0  0  0  0  0  0  0
   -0.7211    5.5738   -0.9355 H   0  0  0  0  0  0  0  0  0  0  0  0
    3.2894    5.5752   -1.6301 N   0  0  0  0  0  0  0  0  0  0  0  0
    4.6918    5.8549   -1.4279 C   0  0  0  0  0  0  0  0  0  0  0  0
    2.8043    6.0881   -2.3603 H   0  0  0  0  0  0  0  0  0  0  0  0
    4.8023    6.6660   -0.6932 H   0  0  0  0  0  0  0  0  0  0  0  0
    5.1957    4.9511   -1.0546 H   0  0  0  0  0  0  0  0  0  0  0  0
    5.1459    6.1602   -2.3821 H   0  0  0  0  0  0  0  0  0  0  0  0
 22 24  2  0  0  0  0
 24 26  1  0  0  0  0
 23 25  2  0  0  0  0
 25 26  1  0  0  0  0
 21 22  1  0  0  0  0
 22 23  1  0  0  0  0
  1  3  1  0  0  0  0
  1  7  1  0  0  0  0
  1  2  2  0  0  0  0
 35 36  1  0  0  0  0
 36 44  1  0  0  0  0
 36 37  2  0  0  0  0
  8  9  1  0  0  0  0
  9 17  1  0  0  0  0
  9 10  2  0  0  0  0
 18 19  1  0  0  0  0
 19 34  1  0  0  0  0
 19 20  2  0  0  0  0
 35 38  1  0  0  0  0
  8 11  1  0  0  0  0
 44 45  1  0  0  0  0
 18 21  1  0  0  0  0
 34 35  1  0  0  0  0
  7  8  1  0  0  0  0
 17 18  1  0  0  0  0
 24 31  1  0  0  0  0
 25 32  1  0  0  0  0
  3  4  1  0  0  0  0
  3  5  1  0  0  0  0
  3  6  1  0  0  0  0
 38 41  1  0  0  0  0
 38 42  1  0  0  0  0
 38 43  1  0  0  0  0
 11 14  1  0  0  0  0
 11 15  1  0  0  0  0
 11 16  1  0  0  0  0
 45 47  1  0  0  0  0
 45 48  1  0  0  0  0
 45 49  1  0  0  0  0
 21 29  1  0  0  0  0
 21 30  1  0  0  0  0
 35 40  1  0  0  0  0
  8 13  1  0  0  0  0
 18 28  1  0  0  0  0
 26 33  1  0  0  0  0
 44 46  1  0  0  0  0
  7 12  1  0  0  0  0
 34 39  1  0  0  0  0
 17 27  1  0  0  0  0
M  END
$$$$

  -OEChem-05262214473D

 49 49  0     1  0  0  0  0  0999 V2000
   -1.6183    0.5613    3.8201 C   0  0  0  0  0  0  0  0  0  0  0  0
   -0.6710   -0.0534    3.3444 O   0  0  0  0  0  0  0  0  0  0  0  0
   -2.0502    0.2789    5.2208 C   0  0  0  0  0  0  0  0  0  0  0  0
   -2.8099   -0.5175    5.2742 H   0  0  0  0  0  0  0  0  0  0  0  0
   -1.2190   -0.0687    5.8551 H   0  0  0  0  0  0  0  0  0  0  0  0
   -2.4882    1.1338    5.7604 H   0  0  0  0  0  0  0  0  0  0  0  0
   -2.3680    1.5337    3.1790 N   0  0  0  0  0  0  0  0  0  0  0  0
   -2.1212    1.9597    1.8266 C   0  0  2  0  0  0  0  0  0  0  0  0
   -0.7862    1.3744    1.3854 C   0  0  0  0  0  0  0  0  0  0  0  0
    0.0859    1.0216    2.1767 O   0  0  0  0  0  0  0  0  0  0  0  0
   -2.1124    3.4765    1.7171 C   0  0  0  0  0  0  0  0  0  0  0  0
   -3.1331    1.9695    3.6908 H   0  0  0  0  0  0  0  0  0  0  0  0
   -2.9253    1.5413    1.2115 H   0  0  0  0  0  0  0  0  0  0  0  0
   -1.3133    3.9138    2.3268 H   0  0  0  0  0  0  0  0  0  0  0  0
   -1.9529    3.7988    0.6829 H   0  0  0  0  0  0  0  0  0  0  0  0
   -3.0626    3.8977    2.0629 H   0  0  0  0  0  0  0  0  0  0  0  0
   -0.6635    1.3313    0.0020 N   0  0  0  0  0  0  0  0  0  0  0  0
    0.5138    0.8305   -0.6617 C   0  0  2  0  0  0  0  0  0  0  0  0
    1.2783    2.0368   -1.1950 C   0  0  0  0  0  0  0  0  0  0  0  0
    2.1475    1.9492   -2.0597 O   0  0  0  0  0  0  0  0  0  0  0  0
    0.1691   -0.1303   -1.8055 C   0  0  0  0  0  0  0  0  0  0  0  0
   -0.5167   -1.3863   -1.3261 C   0  0  0  0  0  0  0  0  0  0  0  0
    0.1970   -2.3744   -0.6952 N   0  0  0  0  0  0  0  0  0  0  0  0
   -1.8456   -1.7232   -1.4305 C   0  0  0  0  0  0  0  0  0  0  0  0
   -0.6906   -3.3036   -0.4182 C   0  0  0  0  0  0  0  0  0  0  0  0
   -1.9416   -2.9541   -0.8450 N   0  0  0  0  0  0  0  0  0  0  0  0
   -1.4467    1.6280   -0.5753 H   0  0  0  0  0  0  0  0  0  0  0  0
    1.1179    0.3336    0.1065 H   0  0  0  0  0  0  0  0  0  0  0  0
    1.0759   -0.3954   -2.3659 H   0  0  0  0  0  0  0  0  0  0  0  0
   -0.4867    0.3622   -2.5356 H   0  0  0  0  0  0  0  0  0  0  0  0
   -2.7037   -1.2202   -1.8527 H   0  0  0  0  0  0  0  0  0  0  0  0
   -0.4958   -4.2410    0.0834 H   0  0  0  0  0  0  0  0  0  0  0  0
   -2.7835   -3.5052   -0.7447 H   0  0  0  0  0  0  0  0  0  0  0  0
    0.8384    3.2238   -0.6260 N   0  0  0  0  0  0  0  0  0  0  0  0
    1.3795    4.5184   -0.9726 C   0  0  2  0  0  0  0  0  0  0  0  0
    2.8975    4.4322   -0.8858 C   0  0  0  0  0  0  0  0  0  0  0  0
    3.4840    3.5879   -0.2118 O   0  0  0  0  0  0  0  0  0  0  0  0
    0.8434    5.6060   -0.0548 C   0  0  0  0  0  0  0  0  0  0  0  0
    0.0989    3.1806    0.0690 H   0  0  0  0  0  0  0  0  0  0  0  0
    1.0831    4.7181   -2.0082 H   0  0  0  0  0  0  0  0  0  0  0  0
    1.1303    5.4230    0.9872 H   0  0  0  0  0  0  0  0  0  0  0  0
    1.2319    6.5902   -0.3366 H   0  0  0  0  0  0  0  0  0  0  0  0
   -0.2505    5.6466   -0.0961 H   0  0  0  0  0  0  0  0  0  0  0  0
    3.5198    5.4358   -1.6150 N   0  0  0  0  0  0  0  0  0  0  0  0
    4.9558    5.5757   -1.6808 C   0  0  0  0  0  0  0  0  0  0  0  0
    2.9552    6.0812   -2.1594 H   0  0  0  0  0  0  0  0  0  0  0  0
    5.2939    6.2658   -0.8937 H   0  0  0  0  0  0  0  0  0  0  0  0
    5.4270    4.5927   -1.5337 H   0  0  0  0  0  0  0  0  0  0  0  0
    5.2404    5.9751   -2.6654 H   0  0  0  0  0  0  0  0  0  0  0  0
 22 24  2  0  0  0  0
 24 26  1  0  0  0  0
 23 25  2  0  0  0  0
 25 26  1  0  0  0  0
 21 22  1  0  0  0  0
 22 23  1  0  0  0  0
  1  3  1  0  0  0  0
  1  7  1  0  0  0  0
  1  2  2  0  0  0  0
 35 36  1  0  0  0  0
 36 44  1  0  0  0  0
 36 37  2  0  0  0  0
  8  9  1  0  0  0  0
  9 17  1  0  0  0  0
  9 10  2  0  0  0  0
 18 19  1  0  0  0  0
 19 34  1  0  0  0  0
 19 20  2  0  0  0  0
 35 38  1  0  0  0  0
  8 11  1  0  0  0  0
 44 45  1  0  0  0  0
 18 21  1  0  0  0  0
 34 35  1  0  0  0  0
  7  8  1  0  0  0  0
 17 18  1  0  0  0  0
 24 31  1  0  0  0  0
 25 32  1  0  0  0  0
  3  4  1  0  0  0  0
  3  5  1  0  0  0  0
  3  6  1  0  0  0  0
 38 41  1  0  0  0  0
 38 42  1  0  0  0  0
 38 43  1  0  0  0  0
 11 14  1  0  0  0  0
 11 15  1  0  0  0  0
 11 16  1  0  0  0  0
 45 47  1  0  0  0  0
 45 48  1  0  0  0  0
 45 49  1  0  0  0  0
 21 29  1  0  0  0  0
 21 30  1  0  0  0  0
 35 40  1  0  0  0  0
  8 13  1  0  0  0  0
 18 28  1  0  0  0  0
 26 33  1  0  0  0  0
 44 46  1  0  0  0  0
  7 12  1  0  0  0  0
 34 39  1  0  0  0  0
 17 27  1  0  0  0  0
M  END
$$$$

  -OEChem-05262214473D

 49 49  0     1  0  0  0  0  0999 V2000
   -1.6183    0.5613    3.8201 C   0  0  0  0  0  0  0  0  0  0  0  0
   -0.6710   -0.0534    3.3444 O   0  0  0  0  0  0  0  0  0  0  0  0
   -2.0502    0.2789    5.2208 C   0  0  0  0  0  0  0  0  0  0  0  0
   -2.8099   -0.5175    5.2742 H   0  0  0  0  0  0  0  0  0  0  0  0
   -1.2190   -0.0687    5.8551 H   0  0  0  0  0  0  0  0  0  0  0  0
   -2.4882    1.1338    5.7604 H   0  0  0  0  0  0  0  0  0  0  0  0
   -2.3680    1.5337    3.1790 N   0  0  0  0  0  0  0  0  0  0  0  0
   -2.1212    1.9597    1.8266 C   0  0  2  0  0  0  0  0  0  0  0  0
   -0.7862    1.3744    1.3854 C   0  0  0  0  0  0  0  0  0  0  0  0
    0.0859    1.0216    2.1767 O   0  0  0  0  0  0  0  0  0  0  0  0
   -2.1124    3.4765    1.7171 C   0  0  0  0  0  0  0  0  0  0  0  0
   -3.1331    1.9695    3.6908 H   0  0  0  0  0  0  0  0  0  0  0  0
   -2.9253    1.5413    1.2115 H   0  0  0  0  0  0  0  0  0  0  0  0
   -1.3133    3.9138    2.3268 H   0  0  0  0  0  0  0  0  0  0  0  0
   -1.9529    3.7988    0.6829 H   0  0  0  0  0  0  0  0  0  0  0  0
   -3.0626    3.8977    2.0629 H   0  0  0  0  0  0  0  0  0  0  0  0
   -0.6635    1.3313    0.0020 N   0  0  0  0  0  0  0  0  0  0  0  0
    0.5138    0.8305   -0.6617 C   0  0  2  0  0  0  0  0  0  0  0  0
    1.2783    2.0368   -1.1950 C   0  0  0  0  0  0  0  0  0  0  0  0
    1.9443    2.0037   -2.2276 O   0  0  0  0  0  0  0  0  0  0  0  0
    0.1691   -0.1303   -1.8055 C   0  0  0  0  0  0  0  0  0  0  0  0
   -0.5167   -1.3863   -1.3261 C   0  0  0  0  0  0  0  0  0  0  0  0
    0.1970   -2.3744   -0.6952 N   0  0  0  0  0  0  0  0  0  0  0  0
   -1.8456   -1.7232   -1.4305 C   0  0  0  0  0  0  0  0  0  0  0  0
   -0.6906   -3.3036   -0.4182 C   0  0  0  0  0  0  0  0  0  0  0  0
   -1.9416   -2.9541   -0.8450 N   0  0  0  0  0  0  0  0  0  0  0  0
   -1.4467    1.6280   -0.5753 H   0  0  0  0  0  0  0  0  0  0  0  0
    1.1179    0.3336    0.1065 H   0  0  0  0  0  0  0  0  0  0  0  0
    1.0759   -0.3954   -2.3659 H   0  0  0  0  0  0  0  0  0  0  0  0
   -0.4867    0.3622   -2.5356 H   0  0  0  0  0  0  0  0  0  0  0  0
   -2.7037   -1.2202   -1.8527 H   0  0  0  0  0  0  0  0  0  0  0  0
   -0.4958   -4.2410    0.0834 H   0  0  0  0  0  0  0  0  0  0  0  0
   -2.7835   -3.5052   -0.7447 H   0  0  0  0  0  0  0  0  0  0  0  0
    1.0863    3.1634   -0.4074 N   0  0  0  0  0  0  0  0  0  0  0  0
    1.6793    4.4480   -0.7019 C   0  0  2  0  0  0  0  0  0  0  0  0
    3.1670    4.2339   -0.9479 C   0  0  0  0  0  0  0  0  0  0  0  0
    3.7846    3.2614   -0.5193 O   0  0  0  0  0  0  0  0  0  0  0  0
    1.4526    5.4353    0.4324 C   0  0  0  0  0  0  0  0  0  0  0  0
    0.4993    3.0808    0.4175 H   0  0  0  0  0  0  0  0  0  0  0  0
    1.2054    4.8122   -1.6199 H   0  0  0  0  0  0  0  0  0  0  0  0
    1.9203    5.0874    1.3607 H   0  0  0  0  0  0  0  0  0  0  0  0
    1.8776    6.4162    0.1956 H   0  0  0  0  0  0  0  0  0  0  0  0
    0.3827    5.5654    0.6278 H   0  0  0  0  0  0  0  0  0  0  0  0
    3.7328    5.2783   -1.6657 N   0  0  0  0  0  0  0  0  0  0  0  0
    5.1337    5.3150   -2.0154 C   0  0  0  0  0  0  0  0  0  0  0  0
    3.1416    6.0348   -1.9972 H   0  0  0  0  0  0  0  0  0  0  0  0
    5.6915    5.8606   -1.2400 H   0  0  0  0  0  0  0  0  0  0  0  0
    5.5198    4.2878   -2.0903 H   0  0  0  0  0  0  0  0  0  0  0  0
    5.2568    5.8245   -2.9825 H   0  0  0  0  0  0  0  0  0  0  0  0
 22 24  2  0  0  0  0
 24 26  1  0  0  0  0
 23 25  2  0  0  0  0
 25 26  1  0  0  0  0
 21 22  1  0  0  0  0
 22 23  1  0  0  0  0
  1  3  1  0  0  0  0
  1  7  1  0  0  0  0
  1  2  2  0  0  0  0
 35 36  1  0  0  0  0
 36 44  1  0  0  0  0
 36 37  2  0  0  0  0
  8  9  1  0  0  0  0
  9 17  1  0  0  0  0
  9 10  2  0  0  0  0
 18 19  1  0  0  0  0
 19 34  1  0  0  0  0
 19 20  2  0  0  0  0
 35 38  1  0  0  0  0
  8 11  1  0  0  0  0
 44 45  1  0  0  0  0
 18 21  1  0  0  0  0
 34 35  1  0  0  0  0
  7  8  1  0  0  0  0
 17 18  1  0  0  0  0
 24 31  1  0  0  0  0
 25 32  1  0  0  0  0
  3  4  1  0  0  0  0
  3  5  1  0  0  0  0
  3  6  1  0  0  0  0
 38 41  1  0  0  0  0
 38 42  1  0  0  0  0
 38 43  1  0  0  0  0
 11 14  1  0  0  0  0
 11 15  1  0  0  0  0
 11 16  1  0  0  0  0
 45 47  1  0  0  0  0
 45 48  1  0  0  0  0
 45 49  1  0  0  0  0
 21 29  1  0  0  0  0
 21 30  1  0  0  0  0
 35 40  1  0  0  0  0
  8 13  1  0  0  0  0
 18 28  1  0  0  0  0
 26 33  1  0  0  0  0
 44 46  1  0  0  0  0
  7 12  1  0  0  0  0
 34 39  1  0  0  0  0
 17 27  1  0  0  0  0
M  END
$$$$

  -OEChem-05262214473D

 49 49  0     1  0  0  0  0  0999 V2000
   -1.6183    0.5613    3.8201 C   0  0  0  0  0  0  0  0  0  0  0  0
   -0.6710   -0.0534    3.3444 O   0  0  0  0  0  0  0  0  0  0  0  0
   -2.0502    0.2789    5.2208 C   0  0  0  0  0  0  0  0  0  0  0  0
   -2.8099   -0.5175    5.2742 H   0  0  0  0  0  0  0  0  0  0  0  0
   -1.2190   -0.0687    5.8551 H   0  0  0  0  0  0  0  0  0  0  0  0
   -2.4882    1.1338    5.7604 H   0  0  0  0  0  0  0  0  0  0  0  0
   -2.3680    1.5337    3.1790 N   0  0  0  0  0  0  0  0  0  0  0  0
   -2.1212    1.9597    1.8266 C   0  0  2  0  0  0  0  0  0  0  0  0
   -0.7862    1.3744    1.3854 C   0  0  0  0  0  0  0  0  0  0  0  0
    0.0859    1.0216    2.1767 O   0  0  0  0  0  0  0  0  0  0  0  0
   -2.1124    3.4765    1.7171 C   0  0  0  0  0  0  0  0  0  0  0  0
   -3.1331    1.9695    3.6908 H   0  0  0  0  0  0  0  0  0  0  0  0
   -2.9253    1.5413    1.2115 H   0  0  0  0  0  0  0  0  0  0  0  0
   -1.3133    3.9138    2.3268 H   0  0  0  0  0  0  0  0  0  0  0  0
   -1.9529    3.7988    0.6829 H   0  0  0  0  0  0  0  0  0  0  0  0
   -3.0626    3.8977    2.0629 H   0  0  0  0  0  0  0  0  0  0  0  0
   -0.6635    1.3313    0.0020 N   0  0  0  0  0  0  0  0  0  0  0  0
    0.5138    0.8305   -0.6617 C   0  0  2  0  0  0  0  0  0  0  0  0
    1.2783    2.0368   -1.1950 C   0  0  0  0  0  0  0  0  0  0  0  0
    1.7186    2.0966   -2.3410 O   0  0  0  0  0  0  0  0  0  0  0  0
    0.1691   -0.1303   -1.8055 C   0  0  0  0  0  0  0  0  0  0  0  0
   -0.5167   -1.3863   -1.3261 C   0  0  0  0  0  0  0  0  0  0  0  0
    0.1970   -2.3744   -0.6952 N   0  0  0  0  0  0  0  0  0  0  0  0
   -1.8456   -1.7232   -1.4305 C   0  0  0  0  0  0  0  0  0  0  0  0
   -0.6906   -3.3036   -0.4182 C   0  0  0  0  0  0  0  0  0  0  0  0
   -1.9416   -2.9541   -0.8450 N   0  0  0  0  0  0  0  0  0  0  0  0
   -1.4467    1.6280   -0.5753 H   0  0  0  0  0  0  0  0  0  0  0  0
    1.1179    0.3336    0.1065 H   0  0  0  0  0  0  0  0  0  0  0  0
    1.0759   -0.3954   -2.3659 H   0  0  0  0  0  0  0  0  0  0  0  0
   -0.4867    0.3622   -2.5356 H   0  0  0  0  0  0  0  0  0  0  0  0
   -2.7037   -1.2202   -1.8527 H   0  0  0  0  0  0  0  0  0  0  0  0
   -0.4958   -4.2410    0.0834 H   0  0  0  0  0  0  0  0  0  0  0  0
   -2.7835   -3.5052   -0.7447 H   0  0  0  0  0  0  0  0  0  0  0  0
    1.3650    3.0542   -0.2548 N   0  0  0  0  0  0  0  0  0  0  0  0
    2.0181    4.3178   -0.5109 C   0  0  2  0  0  0  0  0  0  0  0  0
    3.3966    4.0261   -1.0889 C   0  0  0  0  0  0  0  0  0  0  0  0
    3.9825    2.9587   -0.9204 O   0  0  0  0  0  0  0  0  0  0  0  0
    2.1253    5.1519    0.7561 C   0  0  0  0  0  0  0  0  0  0  0  0
    0.9484    2.9030    0.6592 H   0  0  0  0  0  0  0  0  0  0  0  0
    1.4116    4.8416   -1.2578 H   0  0  0  0  0  0  0  0  0  0  0  0
    2.7295    4.6432    1.5162 H   0  0  0  0  0  0  0  0  0  0  0  0
    2.5946    6.1206    0.5549 H   0  0  0  0  0  0  0  0  0  0  0  0
    1.1351    5.3356    1.1869 H   0  0  0  0  0  0  0  0  0  0  0  0
    3.9140    5.1135   -1.7788 N   0  0  0  0  0  0  0  0  0  0  0  0
    5.2134    5.0906   -2.4088 C   0  0  0  0  0  0  0  0  0  0  0  0
    3.3507    5.9521   -1.8847 H   0  0  0  0  0  0  0  0  0  0  0  0
    5.9679    5.4783   -1.7086 H   0  0  0  0  0  0  0  0  0  0  0  0
    5.4679    4.0571   -2.6866 H   0  0  0  0  0  0  0  0  0  0  0  0
    5.1942    5.7187   -3.3117 H   0  0  0  0  0  0  0  0  0  0  0  0
 22 24  2  0  0  0  0
 24 26  1  0  0  0  0
 23 25  2  0  0  0  0
 25 26  1  0  0  0  0
 21 22  1  0  0  0  0
 22 23  1  0  0  0  0
  1  3  1  0  0  0  0
  1  7  1  0  0  0  0
  1  2  2  0  0  0  0
 35 36  1  0  0  0  0
 36 44  1  0  0  0  0
 36 37  2  0  0  0  0
  8  9  1  0  0  0  0
  9 17  1  0  0  0  0
  9 10  2  0  0  0  0
 18 19  1  0  0  0  0
 19 34  1  0  0  0  0
 19 20  2  0  0  0  0
 35 38  1  0  0  0  0
  8 11  1  0  0  0  0
 44 45  1  0  0  0  0
 18 21  1  0  0  0  0
 34 35  1  0  0  0  0
  7  8  1  0  0  0  0
 17 18  1  0  0  0  0
 24 31  1  0  0  0  0
 25 32  1  0  0  0  0
  3  4  1  0  0  0  0
  3  5  1  0  0  0  0
  3  6  1  0  0  0  0
 38 41  1  0  0  0  0
 38 42  1  0  0  0  0
 38 43  1  0  0  0  0
 11 14  1  0  0  0  0
 11 15  1  0  0  0  0
 11 16  1  0  0  0  0
 45 47  1  0  0  0  0
 45 48  1  0  0  0  0
 45 49  1  0  0  0  0
 21 29  1  0  0  0  0
 21 30  1  0  0  0  0
 35 40  1  0  0  0  0
  8 13  1  0  0  0  0
 18 28  1  0  0  0  0
 26 33  1  0  0  0  0
 44 46  1  0  0  0  0
  7 12  1  0  0  0  0
 34 39  1  0  0  0  0
 17 27  1  0  0  0  0
M  END
$$$$

  -OEChem-05262214473D

 49 49  0     1  0  0  0  0  0999 V2000
   -1.6183    0.5613    3.8201 C   0  0  0  0  0  0  0  0  0  0  0  0
   -0.6710   -0.0534    3.3444 O   0  0  0  0  0  0  0  0  0  0  0  0
   -2.0502    0.2789    5.2208 C   0  0  0  0  0  0  0  0  0  0  0  0
   -2.8099   -0.5175    5.2742 H   0  0  0  0  0  0  0  0  0  0  0  0
   -1.2190   -0.0687    5.8551 H   0  0  0  0  0  0  0  0  0  0  0  0
   -2.4882    1.1338    5.7604 H   0  0  0  0  0  0  0  0  0  0  0  0
   -2.3680    1.5337    3.1790 N   0  0  0  0  0  0  0  0  0  0  0  0
   -2.1212    1.9597    1.8266 C   0  0  2  0  0  0  0  0  0  0  0  0
   -0.7862    1.3744    1.3854 C   0  0  0  0  0  0  0  0  0  0  0  0
    0.0859    1.0216    2.1767 O   0  0  0  0  0  0  0  0  0  0  0  0
   -2.1124    3.4765    1.7171 C   0  0  0  0  0  0  0  0  0  0  0  0
   -3.1331    1.9695    3.6908 H   0  0  0  0  0  0  0  0  0  0  0  0
   -2.9253    1.5413    1.2115 H   0  0  0  0  0  0  0  0  0  0  0  0
   -1.3133    3.9138    2.3268 H   0  0  0  0  0  0  0  0  0  0  0  0
   -1.9529    3.7988    0.6829 H   0  0  0  0  0  0  0  0  0  0  0  0
   -3.0626    3.8977    2.0629 H   0  0  0  0  0  0  0  0  0  0  0  0
   -0.6635    1.3313    0.0020 N   0  0  0  0  0  0  0  0  0  0  0  0
    0.5138    0.8305   -0.6617 C   0  0  2  0  0  0  0  0  0  0  0  0
    1.2783    2.0368   -1.1950 C   0  0  0  0  0  0  0  0  0  0  0  0
    1.4858    2.2215   -2.3924 O   0  0  0  0  0  0  0  0  0  0  0  0
    0.1691   -0.1303   -1.8055 C   0  0  0  0  0  0  0  0  0  0  0  0
   -0.5167   -1.3863   -1.3261 C   0  0  0  0  0  0  0  0  0  0  0  0
    0.1970   -2.3744   -0.6952 N   0  0  0  0  0  0  0  0  0  0  0  0
   -1.8456   -1.7232   -1.4305 C   0  0  0  0  0  0  0  0  0  0  0  0
   -0.6906   -3.3036   -0.4182 C   0  0  0  0  0  0  0  0  0  0  0  0
   -1.9416   -2.9541   -0.8450 N   0  0  0  0  0  0  0  0  0  0  0  0
   -1.4467    1.6280   -0.5753 H   0  0  0  0  0  0  0  0  0  0  0  0
    1.1179    0.3336    0.1065 H   0  0  0  0  0  0  0  0  0  0  0  0
    1.0759   -0.3954   -2.3659 H   0  0  0  0  0  0  0  0  0  0  0  0
   -0.4867    0.3622   -2.5356 H   0  0  0  0  0  0  0  0  0  0  0  0
   -2.7037   -1.2202   -1.8527 H   0  0  0  0  0  0  0  0  0  0  0  0
   -0.4958   -4.2410    0.0834 H   0  0  0  0  0  0  0  0  0  0  0  0
   -2.7835   -3.5052   -0.7447 H   0  0  0  0  0  0  0  0  0  0  0  0
    1.6556    2.9036   -0.1788 N   0  0  0  0  0  0  0  0  0  0  0  0
    2.3726    4.1365   -0.4127 C   0  0  2  0  0  0  0  0  0  0  0  0
    3.5707    3.8228   -1.2991 C   0  0  0  0  0  0  0  0  0  0  0  0
    4.0640    2.7004   -1.3876 O   0  0  0  0  0  0  0  0  0  0  0  0
    2.8158    4.7753    0.8942 C   0  0  0  0  0  0  0  0  0  0  0  0
    1.4156    2.6592    0.7775 H   0  0  0  0  0  0  0  0  0  0  0  0
    1.6876    4.8043   -0.9464 H   0  0  0  0  0  0  0  0  0  0  0  0
    3.5027    4.1208    1.4430 H   0  0  0  0  0  0  0  0  0  0  0  0
    3.3339    5.7236    0.7167 H   0  0  0  0  0  0  0  0  0  0  0  0
    1.9556    4.9730    1.5429 H   0  0  0  0  0  0  0  0  0  0  0  0
    4.0509    4.9526   -1.9465 N   0  0  0  0  0  0  0  0  0  0  0  0
    5.1895    4.9176   -2.8343 C   0  0  0  0  0  0  0  0  0  0  0  0
    3.5681    5.8386   -1.8295 H   0  0  0  0  0  0  0  0  0  0  0  0
    6.1043    5.1448   -2.2674 H   0  0  0  0  0  0  0  0  0  0  0  0
    5.2747    3.9163   -3.2818 H   0  0  0  0  0  0  0  0  0  0  0  0
    5.0566    5.6649   -3.6305 H   0  0  0  0  0  0  0  0  0  0  0  0
 22 24  2  0  0  0  0
 24 26  1  0  0  0  0
 23 25  2  0  0  0  0
 25 26  1  0  0  0  0
 21 22  1  0  0  0  0
 22 23  1  0  0  0  0
  1  3  1  0  0  0  0
  1  7  1  0  0  0  0
  1  2  2  0  0  0  0
 35 36  1  0  0  0  0
 36 44  1  0  0  0  0
 36 37  2  0  0  0  0
  8  9  1  0  0  0  0
  9 17  1  0  0  0  0
  9 10  2  0  0  0  0
 18 19  1  0  0  0  0
 19 34  1  0  0  0  0
 19 20  2  0  0  0  0
 35 38  1  0  0  0  0
  8 11  1  0  0  0  0
 44 45  1  0  0  0  0
 18 21  1  0  0  0  0
 34 35  1  0  0  0  0
  7  8  1  0  0  0  0
 17 18  1  0  0  0  0
 24 31  1  0  0  0  0
 25 32  1  0  0  0  0
  3  4  1  0  0  0  0
  3  5  1  0  0  0  0
  3  6  1  0  0  0  0
 38 41  1  0  0  0  0
 38 42  1  0  0  0  0
 38 43  1  0  0  0  0
 11 14  1  0  0  0  0
 11 15  1  0  0  0  0
 11 16  1  0  0  0  0
 45 47  1  0  0  0  0
 45 48  1  0  0  0  0
 45 49  1  0  0  0  0
 21 29  1  0  0  0  0
 21 30  1  0  0  0  0
 35 40  1  0  0  0  0
  8 13  1  0  0  0  0
 18 28  1  0  0  0  0
 26 33  1  0  0  0  0
 44 46  1  0  0  0  0
  7 12  1  0  0  0  0
 34 39  1  0  0  0  0
 17 27  1  0  0  0  0
M  END
$$$$

  -OEChem-05262214473D

 49 49  0     1  0  0  0  0  0999 V2000
   -1.6183    0.5613    3.8201 C   0  0  0  0  0  0  0  0  0  0  0  0
   -0.6710   -0.0534    3.3444 O   0  0  0  0  0  0  0  0  0  0  0  0
   -2.0502    0.2789    5.2208 C   0  0  0  0  0  0  0  0  0  0  0  0
   -2.8099   -0.5175    5.2742 H   0  0  0  0  0  0  0  0  0  0  0  0
   -1.2190   -0.0687    5.8551 H   0  0  0  0  0  0  0  0  0  0  0  0
   -2.4882    1.1338    5.7604 H   0  0  0  0  0  0  0  0  0  0  0  0
   -2.3680    1.5337    3.1790 N   0  0  0  0  0  0  0  0  0  0  0  0
   -2.1212    1.9597    1.8266 C   0  0  2  0  0  0  0  0  0  0  0  0
   -0.7862    1.3744    1.3854 C   0  0  0  0  0  0  0  0  0  0  0  0
    0.0859    1.0216    2.1767 O   0  0  0  0  0  0  0  0  0  0  0  0
   -2.1124    3.4765    1.7171 C   0  0  0  0  0  0  0  0  0  0  0  0
   -3.1331    1.9695    3.6908 H   0  0  0  0  0  0  0  0  0  0  0  0
   -2.9253    1.5413    1.2115 H   0  0  0  0  0  0  0  0  0  0  0  0
   -1.3133    3.9138    2.3268 H   0  0  0  0  0  0  0  0  0  0  0  0
   -1.9529    3.7988    0.6829 H   0  0  0  0  0  0  0  0  0  0  0  0
   -3.0626    3.8977    2.0629 H   0  0  0  0  0  0  0  0  0  0  0  0
   -0.6635    1.3313    0.0020 N   0  0  0  0  0  0  0  0  0  0  0  0
    0.5138    0.8305   -0.6617 C   0  0  2  0  0  0  0  0  0  0  0  0
    1.2783    2.0368   -1.1950 C   0  0  0  0  0  0  0  0  0  0  0  0
    1.2617    2.3699   -2.3780 O   0  0  0  0  0  0  0  0  0  0  0  0
    0.1691   -0.1303   -1.8055 C   0  0  0  0  0  0  0  0  0  0  0  0
   -0.5167   -1.3863   -1.3261 C   0  0  0  0  0  0  0  0  0  0  0  0
    0.1970   -2.3744   -0.6952 N   0  0  0  0  0  0  0  0  0  0  0  0
   -1.8456   -1.7232   -1.4305 C   0  0  0  0  0  0  0  0  0  0  0  0
   -0.6906   -3.3036   -0.4182 C   0  0  0  0  0  0  0  0  0  0  0  0
   -1.9416   -2.9541   -0.8450 N   0  0  0  0  0  0  0  0  0  0  0  0
   -1.4467    1.6280   -0.5753 H   0  0  0  0  0  0  0  0  0  0  0  0
    1.1179    0.3336    0.1065 H   0  0  0  0  0  0  0  0  0  0  0  0
    1.0759   -0.3954   -2.3659 H   0  0  0  0  0  0  0  0  0  0  0  0
   -0.4867    0.3622   -2.5356 H   0  0  0  0  0  0  0  0  0  0  0  0
   -2.7037   -1.2202   -1.8527 H   0  0  0  0  0  0  0  0  0  0  0  0
   -0.4958   -4.2410    0.0834 H   0  0  0  0  0  0  0  0  0  0  0  0
   -2.7835   -3.5052   -0.7447 H   0  0  0  0  0  0  0  0  0  0  0  0
    1.9382    2.7220   -0.1843 N   0  0  0  0  0  0  0  0  0  0  0  0
    2.7187    3.9165   -0.4140 C   0  0  2  0  0  0  0  0  0  0  0  0
    3.6774    3.6380   -1.5642 C   0  0  0  0  0  0  0  0  0  0  0  0
    4.0238    2.5042   -1.8891 O   0  0  0  0  0  0  0  0  0  0  0  0
    3.4770    4.3311    0.8374 C   0  0  0  0  0  0  0  0  0  0  0  0
    1.8690    2.3661    0.7645 H   0  0  0  0  0  0  0  0  0  0  0  0
    2.0146    4.7029   -0.7069 H   0  0  0  0  0  0  0  0  0  0  0  0
    4.1874    3.5556    1.1462 H   0  0  0  0  0  0  0  0  0  0  0  0
    4.0452    5.2521    0.6701 H   0  0  0  0  0  0  0  0  0  0  0  0
    2.7882    4.5022    1.6717 H   0  0  0  0  0  0  0  0  0  0  0  0
    4.1342    4.8066   -2.1574 N   0  0  0  0  0  0  0  0  0  0  0  0
    5.0636    4.8079   -3.2629 C   0  0  0  0  0  0  0  0  0  0  0  0
    3.7792    5.7022   -1.8356 H   0  0  0  0  0  0  0  0  0  0  0  0
    6.0915    4.8828   -2.8784 H   0  0  0  0  0  0  0  0  0  0  0  0
    4.9535    3.8751   -3.8355 H   0  0  0  0  0  0  0  0  0  0  0  0
    4.8536    5.6668   -3.9173 H   0  0  0  0  0  0  0  0  0  0  0  0
 22 24  2  0  0  0  0
 24 26  1  0  0  0  0
 23 25  2  0  0  0  0
 25 26  1  0  0  0  0
 21 22  1  0  0  0  0
 22 23  1  0  0  0  0
  1  3  1  0  0  0  0
  1  7  1  0  0  0  0
  1  2  2  0  0  0  0
 35 36  1  0  0  0  0
 36 44  1  0  0  0  0
 36 37  2  0  0  0  0
  8  9  1  0  0  0  0
  9 17  1  0  0  0  0
  9 10  2  0  0  0  0
 18 19  1  0  0  0  0
 19 34  1  0  0  0  0
 19 20  2  0  0  0  0
 35 38  1  0  0  0  0
  8 11  1  0  0  0  0
 44 45  1  0  0  0  0
 18 21  1  0  0  0  0
 34 35  1  0  0  0  0
  7  8  1  0  0  0  0
 17 18  1  0  0  0  0
 24 31  1  0  0  0  0
 25 32  1  0  0  0  0
  3  4  1  0  0  0  0
  3  5  1  0  0  0  0
  3  6  1  0  0  0  0
 38 41  1  0  0  0  0
 38 42  1  0  0  0  0
 38 43  1  0  0  0  0
 11 14  1  0  0  0  0
 11 15  1  0  0  0  0
 11 16  1  0  0  0  0
 45 47  1  0  0  0  0
 45 48  1  0  0  0  0
 45 49  1  0  0  0  0
 21 29  1  0  0  0  0
 21 30  1  0  0  0  0
 35 40  1  0  0  0  0
  8 13  1  0  0  0  0
 18 28  1  0  0  0  0
 26 33  1  0  0  0  0
 44 46  1  0  0  0  0
  7 12  1  0  0  0  0
 34 39  1  0  0  0  0
 17 27  1  0  0  0  0
M  END
$$$$

  -OEChem-05262214473D

 49 49  0     1  0  0  0  0  0999 V2000
   -1.6183    0.5613    3.8201 C   0  0  0  0  0  0  0  0  0  0  0  0
   -0.6710   -0.0534    3.3444 O   0  0  0  0  0  0  0  0  0  0  0  0
   -2.0502    0.2789    5.2208 C   0  0  0  0  0  0  0  0  0  0  0  0
   -2.8099   -0.5175    5.2742 H   0  0  0  0  0  0  0  0  0  0  0  0
   -1.2190   -0.0687    5.8551 H   0  0  0  0  0  0  0  0  0  0  0  0
   -2.4882    1.1338    5.7604 H   0  0  0  0  0  0  0  0  0  0  0  0
   -2.3680    1.5337    3.1790 N   0  0  0  0  0  0  0  0  0  0  0  0
   -2.1212    1.9597    1.8266 C   0  0  2  0  0  0  0  0  0  0  0  0
   -0.7862    1.3744    1.3854 C   0  0  0  0  0  0  0  0  0  0  0  0
    0.0859    1.0216    2.1767 O   0  0  0  0  0  0  0  0  0  0  0  0
   -2.1124    3.4765    1.7171 C   0  0  0  0  0  0  0  0  0  0  0  0
   -3.1331    1.9695    3.6908 H   0  0  0  0  0  0  0  0  0  0  0  0
   -2.9253    1.5413    1.2115 H   0  0  0  0  0  0  0  0  0  0  0  0
   -1.3133    3.9138    2.3268 H   0  0  0  0  0  0  0  0  0  0  0  0
   -1.9529    3.7988    0.6829 H   0  0  0  0  0  0  0  0  0  0  0  0
   -3.0626    3.8977    2.0629 H   0  0  0  0  0  0  0  0  0  0  0  0
   -0.6635    1.3313    0.0020 N   0  0  0  0  0  0  0  0  0  0  0  0
    0.5138    0.8305   -0.6617 C   0  0  2  0  0  0  0  0  0  0  0  0
    1.2783    2.0368   -1.1950 C   0  0  0  0  0  0  0  0  0  0  0  0
    1.0615    2.5317   -2.2990 O   0  0  0  0  0  0  0  0  0  0  0  0
    0.1691   -0.1303   -1.8055 C   0  0  0  0  0  0  0  0  0  0  0  0
   -0.5167   -1.3863   -1.3261 C   0  0  0  0  0  0  0  0  0  0  0  0
    0.1970   -2.3744   -0.6952 N   0  0  0  0  0  0  0  0  0  0  0  0
   -1.8456   -1.7232   -1.4305 C   0  0  0  0  0  0  0  0  0  0  0  0
   -0.6906   -3.3036   -0.4182 C   0  0  0  0  0  0  0  0  0  0  0  0
   -1.9416   -2.9541   -0.8450 N   0  0  0  0  0  0  0  0  0  0  0  0
   -1.4467    1.6280   -0.5753 H   0  0  0  0  0  0  0  0  0  0  0  0
    1.1179    0.3336    0.1065 H   0  0  0  0  0  0  0  0  0  0  0  0
    1.0759   -0.3954   -2.3659 H   0  0  0  0  0  0  0  0  0  0  0  0
   -0.4867    0.3622   -2.5356 H   0  0  0  0  0  0  0  0  0  0  0  0
   -2.7037   -1.2202   -1.8527 H   0  0  0  0  0  0  0  0  0  0  0  0
   -0.4958   -4.2410    0.0834 H   0  0  0  0  0  0  0  0  0  0  0  0
   -2.7835   -3.5052   -0.7447 H   0  0  0  0  0  0  0  0  0  0  0  0
    2.1936    2.5218   -0.2711 N   0  0  0  0  0  0  0  0  0  0  0  0
    3.0329    3.6729   -0.5146 C   0  0  2  0  0  0  0  0  0  0  0  0
    3.7094    3.4842   -1.8660 C   0  0  0  0  0  0  0  0  0  0  0  0
    3.8644    2.3834   -2.3907 O   0  0  0  0  0  0  0  0  0  0  0  0
    4.0637    3.8496    0.5894 C   0  0  0  0  0  0  0  0  0  0  0  0
    2.2778    2.0436    0.6211 H   0  0  0  0  0  0  0  0  0  0  0  0
    2.3703    4.5443   -0.5558 H   0  0  0  0  0  0  0  0  0  0  0  0
    4.7367    2.9862    0.6458 H   0  0  0  0  0  0  0  0  0  0  0  0
    4.6801    4.7383    0.4182 H   0  0  0  0  0  0  0  0  0  0  0  0
    3.5762    3.9553    1.5645 H   0  0  0  0  0  0  0  0  0  0  0  0
    4.1582    4.6853   -2.3972 N   0  0  0  0  0  0  0  0  0  0  0  0
    4.8443    4.7690   -3.6653 C   0  0  0  0  0  0  0  0  0  0  0  0
    3.9695    5.5521   -1.9023 H   0  0  0  0  0  0  0  0  0  0  0  0
    5.9302    4.7102   -3.4999 H   0  0  0  0  0  0  0  0  0  0  0  0
    4.5261    3.9363   -4.3099 H   0  0  0  0  0  0  0  0  0  0  0  0
    4.5990    5.7242   -4.1525 H   0  0  0  0  0  0  0  0  0  0  0  0
 22 24  2  0  0  0  0
 24 26  1  0  0  0  0
 23 25  2  0  0  0  0
 25 26  1  0  0  0  0
 21 22  1  0  0  0  0
 22 23  1  0  0  0  0
  1  3  1  0  0  0  0
  1  7  1  0  0  0  0
  1  2  2  0  0  0  0
 35 36  1  0  0  0  0
 36 44  1  0  0  0  0
 36 37  2  0  0  0  0
  8  9  1  0  0  0  0
  9 17  1  0  0  0  0
  9 10  2  0  0  0  0
 18 19  1  0  0  0  0
 19 34  1  0  0  0  0
 19 20  2  0  0  0  0
 35 38  1  0  0  0  0
  8 11  1  0  0  0  0
 44 45  1  0  0  0  0
 18 21  1  0  0  0  0
 34 35  1  0  0  0  0
  7  8  1  0  0  0  0
 17 18  1  0  0  0  0
 24 31  1  0  0  0  0
 25 32  1  0  0  0  0
  3  4  1  0  0  0  0
  3  5  1  0  0  0  0
  3  6  1  0  0  0  0
 38 41  1  0  0  0  0
 38 42  1  0  0  0  0
 38 43  1  0  0  0  0
 11 14  1  0  0  0  0
 11 15  1  0  0  0  0
 11 16  1  0  0  0  0
 45 47  1  0  0  0  0
 45 48  1  0  0  0  0
 45 49  1  0  0  0  0
 21 29  1  0  0  0  0
 21 30  1  0  0  0  0
 35 40  1  0  0  0  0
  8 13  1  0  0  0  0
 18 28  1  0  0  0  0
 26 33  1  0  0  0  0
 44 46  1  0  0  0  0
  7 12  1  0  0  0  0
 34 39  1  0  0  0  0
 17 27  1  0  0  0  0
M  END
$$$$

  -OEChem-05262214473D

 49 49  0     1  0  0  0  0  0999 V2000
   -1.6183    0.5613    3.8201 C   0  0  0  0  0  0  0  0  0  0  0  0
   -0.6710   -0.0534    3.3444 O   0  0  0  0  0  0  0  0  0  0  0  0
   -2.0502    0.2789    5.2208 C   0  0  0  0  0  0  0  0  0  0  0  0
   -2.8099   -0.5175    5.2742 H   0  0  0  0  0  0  0  0  0  0  0  0
   -1.2190   -0.0687    5.8551 H   0  0  0  0  0  0  0  0  0  0  0  0
   -2.4882    1.1338    5.7604 H   0  0  0  0  0  0  0  0  0  0  0  0
   -2.3680    1.5337    3.1790 N   0  0  0  0  0  0  0  0  0  0  0  0
   -2.1212    1.9597    1.8266 C   0  0  2  0  0  0  0  0  0  0  0  0
   -0.7862    1.3744    1.3854 C   0  0  0  0  0  0  0  0  0  0  0  0
    0.0859    1.0216    2.1767 O   0  0  0  0  0  0  0  0  0  0  0  0
   -2.1124    3.4765    1.7171 C   0  0  0  0  0  0  0  0  0  0  0  0
   -3.1331    1.9695    3.6908 H   0  0  0  0  0  0  0  0  0  0  0  0
   -2.9253    1.5413    1.2115 H   0  0  0  0  0  0  0  0  0  0  0  0
   -1.3133    3.9138    2.3268 H   0  0  0  0  0  0  0  0  0  0  0  0
   -1.9529    3.7988    0.6829 H   0  0  0  0  0  0  0  0  0  0  0  0
   -3.0626    3.8977    2.0629 H   0  0  0  0  0  0  0  0  0  0  0  0
   -0.6635    1.3313    0.0020 N   0  0  0  0  0  0  0  0  0  0  0  0
    0.5138    0.8305   -0.6617 C   0  0  2  0  0  0  0  0  0  0  0  0
    1.2783    2.0368   -1.1950 C   0  0  0  0  0  0  0  0  0  0  0  0
    0.8991    2.6958   -2.1608 O   0  0  0  0  0  0  0  0  0  0  0  0
    0.1691   -0.1303   -1.8055 C   0  0  0  0  0  0  0  0  0  0  0  0
   -0.5167   -1.3863   -1.3261 C   0  0  0  0  0  0  0  0  0  0  0  0
    0.1970   -2.3744   -0.6952 N   0  0  0  0  0  0  0  0  0  0  0  0
   -1.8456   -1.7232   -1.4305 C   0  0  0  0  0  0  0  0  0  0  0  0
   -0.6906   -3.3036   -0.4182 C   0  0  0  0  0  0  0  0  0  0  0  0
   -1.9416   -2.9541   -0.8450 N   0  0  0  0  0  0  0  0  0  0  0  0
   -1.4467    1.6280   -0.5753 H   0  0  0  0  0  0  0  0  0  0  0  0
    1.1179    0.3336    0.1065 H   0  0  0  0  0  0  0  0  0  0  0  0
    1.0759   -0.3954   -2.3659 H   0  0  0  0  0  0  0  0  0  0  0  0
   -0.4867    0.3622   -2.5356 H   0  0  0  0  0  0  0  0  0  0  0  0
   -2.7037   -1.2202   -1.8527 H   0  0  0  0  0  0  0  0  0  0  0  0
   -0.4958   -4.2410    0.0834 H   0  0  0  0  0  0  0  0  0  0  0  0
   -2.7835   -3.5052   -0.7447 H   0  0  0  0  0  0  0  0  0  0  0  0
    2.4044    2.3164   -0.4333 N   0  0  0  0  0  0  0  0  0  0  0  0
    3.2936    3.4222   -0.7078 C   0  0  2  0  0  0  0  0  0  0  0  0
    3.6646    3.3720   -2.1841 C   0  0  0  0  0  0  0  0  0  0  0  0
    3.5968    2.3463   -2.8583 O   0  0  0  0  0  0  0  0  0  0  0  0
    4.5361    3.3635    0.1671 C   0  0  0  0  0  0  0  0  0  0  0  0
    2.6141    1.7136    0.3569 H   0  0  0  0  0  0  0  0  0  0  0  0
    2.7305    4.3393   -0.5032 H   0  0  0  0  0  0  0  0  0  0  0  0
    5.1133    2.4514   -0.0238 H   0  0  0  0  0  0  0  0  0  0  0  0
    5.1952    4.2173   -0.0219 H   0  0  0  0  0  0  0  0  0  0  0  0
    4.2659    3.3697    1.2286 H   0  0  0  0  0  0  0  0  0  0  0  0
    4.1214    4.5971   -2.6494 N   0  0  0  0  0  0  0  0  0  0  0  0
    4.5466    4.8035   -4.0142 C   0  0  0  0  0  0  0  0  0  0  0  0
    4.1261    5.3985   -2.0252 H   0  0  0  0  0  0  0  0  0  0  0  0
    5.6315    4.6388   -4.0897 H   0  0  0  0  0  0  0  0  0  0  0  0
    4.0217    4.0957   -4.6726 H   0  0  0  0  0  0  0  0  0  0  0  0
    4.3100    5.8333   -4.3201 H   0  0  0  0  0  0  0  0  0  0  0  0
 22 24  2  0  0  0  0
 24 26  1  0  0  0  0
 23 25  2  0  0  0  0
 25 26  1  0  0  0  0
 21 22  1  0  0  0  0
 22 23  1  0  0  0  0
  1  3  1  0  0  0  0
  1  7  1  0  0  0  0
  1  2  2  0  0  0  0
 35 36  1  0  0  0  0
 36 44  1  0  0  0  0
 36 37  2  0  0  0  0
  8  9  1  0  0  0  0
  9 17  1  0  0  0  0
  9 10  2  0  0  0  0
 18 19  1  0  0  0  0
 19 34  1  0  0  0  0
 19 20  2  0  0  0  0
 35 38  1  0  0  0  0
  8 11  1  0  0  0  0
 44 45  1  0  0  0  0
 18 21  1  0  0  0  0
 34 35  1  0  0  0  0
  7  8  1  0  0  0  0
 17 18  1  0  0  0  0
 24 31  1  0  0  0  0
 25 32  1  0  0  0  0
  3  4  1  0  0  0  0
  3  5  1  0  0  0  0
  3  6  1  0  0  0  0
 38 41  1  0  0  0  0
 38 42  1  0  0  0  0
 38 43  1  0  0  0  0
 11 14  1  0  0  0  0
 11 15  1  0  0  0  0
 11 16  1  0  0  0  0
 45 47  1  0  0  0  0
 45 48  1  0  0  0  0
 45 49  1  0  0  0  0
 21 29  1  0  0  0  0
 21 30  1  0  0  0  0
 35 40  1  0  0  0  0
  8 13  1  0  0  0  0
 18 28  1  0  0  0  0
 26 33  1  0  0  0  0
 44 46  1  0  0  0  0
  7 12  1  0  0  0  0
 34 39  1  0  0  0  0
 17 27  1  0  0  0  0
M  END
$$$$

  -OEChem-05262214473D

 49 49  0     1  0  0  0  0  0999 V2000
   -1.6183    0.5613    3.8201 C   0  0  0  0  0  0  0  0  0  0  0  0
   -0.6710   -0.0534    3.3444 O   0  0  0  0  0  0  0  0  0  0  0  0
   -2.0502    0.2789    5.2208 C   0  0  0  0  0  0  0  0  0  0  0  0
   -2.8099   -0.5175    5.2742 H   0  0  0  0  0  0  0  0  0  0  0  0
   -1.2190   -0.0687    5.8551 H   0  0  0  0  0  0  0  0  0  0  0  0
   -2.4882    1.1338    5.7604 H   0  0  0  0  0  0  0  0  0  0  0  0
   -2.3680    1.5337    3.1790 N   0  0  0  0  0  0  0  0  0  0  0  0
   -2.1212    1.9597    1.8266 C   0  0  2  0  0  0  0  0  0  0  0  0
   -0.7862    1.3744    1.3854 C   0  0  0  0  0  0  0  0  0  0  0  0
    0.0859    1.0216    2.1767 O   0  0  0  0  0  0  0  0  0  0  0  0
   -2.1124    3.4765    1.7171 C   0  0  0  0  0  0  0  0  0  0  0  0
   -3.1331    1.9695    3.6908 H   0  0  0  0  0  0  0  0  0  0  0  0
   -2.9253    1.5413    1.2115 H   0  0  0  0  0  0  0  0  0  0  0  0
   -1.3133    3.9138    2.3268 H   0  0  0  0  0  0  0  0  0  0  0  0
   -1.9529    3.7988    0.6829 H   0  0  0  0  0  0  0  0  0  0  0  0
   -3.0626    3.8977    2.0629 H   0  0  0  0  0  0  0  0  0  0  0  0
   -0.6635    1.3313    0.0020 N   0  0  0  0  0  0  0  0  0  0  0  0
    0.5138    0.8305   -0.6617 C   0  0  2  0  0  0  0  0  0  0  0  0
    1.2783    2.0368   -1.1950 C   0  0  0  0  0  0  0  0  0  0  0  0
    0.7853    2.8511   -1.9726 O   0  0  0  0  0  0  0  0  0  0  0  0
    0.1691   -0.1303   -1.8055 C   0  0  0  0  0  0  0  0  0  0  0  0
   -0.5167   -1.3863   -1.3261 C   0  0  0  0  0  0  0  0  0  0  0  0
    0.1970   -2.3744   -0.6952 N   0  0  0  0  0  0  0  0  0  0  0  0
   -1.8456   -1.7232   -1.4305 C   0  0  0  0  0  0  0  0  0  0  0  0
   -0.6906   -3.3036   -0.4182 C   0  0  0  0  0  0  0  0  0  0  0  0
   -1.9416   -2.9541   -0.8450 N   0  0  0  0  0  0  0  0  0  0  0  0
   -1.4467    1.6280   -0.5753 H   0  0  0  0  0  0  0  0  0  0  0  0
    1.1179    0.3336    0.1065 H   0  0  0  0  0  0  0  0  0  0  0  0
    1.0759   -0.3954   -2.3659 H   0  0  0  0  0  0  0  0  0  0  0  0
   -0.4867    0.3622   -2.5356 H   0  0  0  0  0  0  0  0  0  0  0  0
   -2.7037   -1.2202   -1.8527 H   0  0  0  0  0  0  0  0  0  0  0  0
   -0.4958   -4.2410    0.0834 H   0  0  0  0  0  0  0  0  0  0  0  0
   -2.7835   -3.5052   -0.7447 H   0  0  0  0  0  0  0  0  0  0  0  0
    2.5562    2.1201   -0.6597 N   0  0  0  0  0  0  0  0  0  0  0  0
    3.4833    3.1815   -0.9804 C   0  0  2  0  0  0  0  0  0  0  0  0
    3.5461    3.3089   -2.4968 C   0  0  0  0  0  0  0  0  0  0  0  0
    3.2392    2.3954   -3.2599 O   0  0  0  0  0  0  0  0  0  0  0  0
    4.8619    2.9060   -0.4005 C   0  0  0  0  0  0  0  0  0  0  0  0
    2.8550    1.3988   -0.0099 H   0  0  0  0  0  0  0  0  0  0  0  0
    3.0706    4.1018   -0.5528 H   0  0  0  0  0  0  0  0  0  0  0  0
    5.2914    1.9877   -0.8172 H   0  0  0  0  0  0  0  0  0  0  0  0
    5.5554    3.7245   -0.6200 H   0  0  0  0  0  0  0  0  0  0  0  0
    4.8103    2.7851    0.6869 H   0  0  0  0  0  0  0  0  0  0  0  0
    4.0262    4.5480   -2.8969 N   0  0  0  0  0  0  0  0  0  0  0  0
    4.1906    4.9090   -4.2857 C   0  0  0  0  0  0  0  0  0  0  0  0
    4.2382    5.2519   -2.1960 H   0  0  0  0  0  0  0  0  0  0  0  0
    5.2158    4.6734   -4.6074 H   0  0  0  0  0  0  0  0  0  0  0  0
    3.4746    4.3423   -4.8990 H   0  0  0  0  0  0  0  0  0  0  0  0
    4.0065    5.9865   -4.4086 H   0  0  0  0  0  0  0  0  0  0  0  0
 22 24  2  0  0  0  0
 24 26  1  0  0  0  0
 23 25  2  0  0  0  0
 25 26  1  0  0  0  0
 21 22  1  0  0  0  0
 22 23  1  0  0  0  0
  1  3  1  0  0  0  0
  1  7  1  0  0  0  0
  1  2  2  0  0  0  0
 35 36  1  0  0  0  0
 36 44  1  0  0  0  0
 36 37  2  0  0  0  0
  8  9  1  0  0  0  0
  9 17  1  0  0  0  0
  9 10  2  0  0  0  0
 18 19  1  0  0  0  0
 19 34  1  0  0  0  0
 19 20  2  0  0  0  0
 35 38  1  0  0  0  0
  8 11  1  0  0  0  0
 44 45  1  0  0  0  0
 18 21  1  0  0  0  0
 34 35  1  0  0  0  0
  7  8  1  0  0  0  0
 17 18  1  0  0  0  0
 24 31  1  0  0  0  0
 25 32  1  0  0  0  0
  3  4  1  0  0  0  0
  3  5  1  0  0  0  0
  3  6  1  0  0  0  0
 38 41  1  0  0  0  0
 38 42  1  0  0  0  0
 38 43  1  0  0  0  0
 11 14  1  0  0  0  0
 11 15  1  0  0  0  0
 11 16  1  0  0  0  0
 45 47  1  0  0  0  0
 45 48  1  0  0  0  0
 45 49  1  0  0  0  0
 21 29  1  0  0  0  0
 21 30  1  0  0  0  0
 35 40  1  0  0  0  0
  8 13  1  0  0  0  0
 18 28  1  0  0  0  0
 26 33  1  0  0  0  0
 44 46  1  0  0  0  0
  7 12  1  0  0  0  0
 34 39  1  0  0  0  0
 17 27  1  0  0  0  0
M  END
$$$$

  -OEChem-05262214473D

 49 49  0     1  0  0  0  0  0999 V2000
   -1.6183    0.5613    3.8201 C   0  0  0  0  0  0  0  0  0  0  0  0
   -0.6710   -0.0534    3.3444 O   0  0  0  0  0  0  0  0  0  0  0  0
   -2.0502    0.2789    5.2208 C   0  0  0  0  0  0  0  0  0  0  0  0
   -2.8099   -0.5175    5.2742 H   0  0  0  0  0  0  0  0  0  0  0  0
   -1.2190   -0.0687    5.8551 H   0  0  0  0  0  0  0  0  0  0  0  0
   -2.4882    1.1338    5.7604 H   0  0  0  0  0  0  0  0  0  0  0  0
   -2.3680    1.5337    3.1790 N   0  0  0  0  0  0  0  0  0  0  0  0
   -2.1212    1.9597    1.8266 C   0  0  2  0  0  0  0  0  0  0  0  0
   -0.7862    1.3744    1.3854 C   0  0  0  0  0  0  0  0  0  0  0  0
    0.0859    1.0216    2.1767 O   0  0  0  0  0  0  0  0  0  0  0  0
   -2.1124    3.4765    1.7171 C   0  0  0  0  0  0  0  0  0  0  0  0
   -3.1331    1.9695    3.6908 H   0  0  0  0  0  0  0  0  0  0  0  0
   -2.9253    1.5413    1.2115 H   0  0  0  0  0  0  0  0  0  0  0  0
   -1.3133    3.9138    2.3268 H   0  0  0  0  0  0  0  0  0  0  0  0
   -1.9529    3.7988    0.6829 H   0  0  0  0  0  0  0  0  0  0  0  0
   -3.0626    3.8977    2.0629 H   0  0  0  0  0  0  0  0  0  0  0  0
   -0.6635    1.3313    0.0020 N   0  0  0  0  0  0  0  0  0  0  0  0
    0.5138    0.8305   -0.6617 C   0  0  2  0  0  0  0  0  0  0  0  0
    1.2783    2.0368   -1.1950 C   0  0  0  0  0  0  0  0  0  0  0  0
    0.7280    2.9870   -1.7474 O   0  0  0  0  0  0  0  0  0  0  0  0
    0.1691   -0.1303   -1.8055 C   0  0  0  0  0  0  0  0  0  0  0  0
   -0.5167   -1.3863   -1.3261 C   0  0  0  0  0  0  0  0  0  0  0  0
    0.1970   -2.3744   -0.6952 N   0  0  0  0  0  0  0  0  0  0  0  0
   -1.8456   -1.7232   -1.4305 C   0  0  0  0  0  0  0  0  0  0  0  0
   -0.6906   -3.3036   -0.4182 C   0  0  0  0  0  0  0  0  0  0  0  0
   -1.9416   -2.9541   -0.8450 N   0  0  0  0  0  0  0  0  0  0  0  0
   -1.4467    1.6280   -0.5753 H   0  0  0  0  0  0  0  0  0  0  0  0
    1.1179    0.3336    0.1065 H   0  0  0  0  0  0  0  0  0  0  0  0
    1.0759   -0.3954   -2.3659 H   0  0  0  0  0  0  0  0  0  0  0  0
   -0.4867    0.3622   -2.5356 H   0  0  0  0  0  0  0  0  0  0  0  0
   -2.7037   -1.2202   -1.8527 H   0  0  0  0  0  0  0  0  0  0  0  0
   -0.4958   -4.2410    0.0834 H   0  0  0  0  0  0  0  0  0  0  0  0
   -2.7835   -3.5052   -0.7447 H   0  0  0  0  0  0  0  0  0  0  0  0
    2.6387    1.9461   -0.9351 N   0  0  0  0  0  0  0  0  0  0  0  0
    3.5888    2.9672   -1.3138 C   0  0  2  0  0  0  0  0  0  0  0  0
    3.3618    3.2993   -2.7827 C   0  0  0  0  0  0  0  0  0  0  0  0
    2.8159    2.5273   -3.5683 O   0  0  0  0  0  0  0  0  0  0  0  0
    5.0189    2.5083   -1.0750 C   0  0  0  0  0  0  0  0  0  0  0  0
    2.9840    1.1205   -0.4545 H   0  0  0  0  0  0  0  0  0  0  0  0
    3.3675    3.8480   -0.7012 H   0  0  0  0  0  0  0  0  0  0  0  0
    5.2591    1.6267   -1.6803 H   0  0  0  0  0  0  0  0  0  0  0  0
    5.7363    3.2935   -1.3355 H   0  0  0  0  0  0  0  0  0  0  0  0
    5.1722    2.2415   -0.0237 H   0  0  0  0  0  0  0  0  0  0  0  0
    3.8791    4.5414   -3.1229 N   0  0  0  0  0  0  0  0  0  0  0  0
    3.8008    5.0785   -4.4614 C   0  0  0  0  0  0  0  0  0  0  0  0
    4.2983    5.1223   -2.4029 H   0  0  0  0  0  0  0  0  0  0  0  0
    4.7113    4.8117   -5.0179 H   0  0  0  0  0  0  0  0  0  0  0  0
    2.9221    4.6595   -4.9736 H   0  0  0  0  0  0  0  0  0  0  0  0
    3.7090    6.1735   -4.4121 H   0  0  0  0  0  0  0  0  0  0  0  0
 22 24  2  0  0  0  0
 24 26  1  0  0  0  0
 23 25  2  0  0  0  0
 25 26  1  0  0  0  0
 21 22  1  0  0  0  0
 22 23  1  0  0  0  0
  1  3  1  0  0  0  0
  1  7  1  0  0  0  0
  1  2  2  0  0  0  0
 35 36  1  0  0  0  0
 36 44  1  0  0  0  0
 36 37  2  0  0  0  0
  8  9  1  0  0  0  0
  9 17  1  0  0  0  0
  9 10  2  0  0  0  0
 18 19  1  0  0  0  0
 19 34  1  0  0  0  0
 19 20  2  0  0  0  0
 35 38  1  0  0  0  0
  8 11  1  0  0  0  0
 44 45  1  0  0  0  0
 18 21  1  0  0  0  0
 34 35  1  0  0  0  0
  7  8  1  0  0  0  0
 17 18  1  0  0  0  0
 24 31  1  0  0  0  0
 25 32  1  0  0  0  0
  3  4  1  0  0  0  0
  3  5  1  0  0  0  0
  3  6  1  0  0  0  0
 38 41  1  0  0  0  0
 38 42  1  0  0  0  0
 38 43  1  0  0  0  0
 11 14  1  0  0  0  0
 11 15  1  0  0  0  0
 11 16  1  0  0  0  0
 45 47  1  0  0  0  0
 45 48  1  0  0  0  0
 45 49  1  0  0  0  0
 21 29  1  0  0  0  0
 21 30  1  0  0  0  0
 35 40  1  0  0  0  0
  8 13  1  0  0  0  0
 18 28  1  0  0  0  0
 26 33  1  0  0  0  0
 44 46  1  0  0  0  0
  7 12  1  0  0  0  0
 34 39  1  0  0  0  0
 17 27  1  0  0  0  0
M  END
$$$$

  -OEChem-05262214473D

 49 49  0     1  0  0  0  0  0999 V2000
   -1.6183    0.5613    3.8201 C   0  0  0  0  0  0  0  0  0  0  0  0
   -0.6710   -0.0534    3.3444 O   0  0  0  0  0  0  0  0  0  0  0  0
   -2.0502    0.2789    5.2208 C   0  0  0  0  0  0  0  0  0  0  0  0
   -2.8099   -0.5175    5.2742 H   0  0  0  0  0  0  0  0  0  0  0  0
   -1.2190   -0.0687    5.8551 H   0  0  0  0  0  0  0  0  0  0  0  0
   -2.4882    1.1338    5.7604 H   0  0  0  0  0  0  0  0  0  0  0  0
   -2.3680    1.5337    3.1790 N   0  0  0  0  0  0  0  0  0  0  0  0
   -2.1212    1.9597    1.8266 C   0  0  2  0  0  0  0  0  0  0  0  0
   -0.7862    1.3744    1.3854 C   0  0  0  0  0  0  0  0  0  0  0  0
    0.0859    1.0216    2.1767 O   0  0  0  0  0  0  0  0  0  0  0  0
   -2.1124    3.4765    1.7171 C   0  0  0  0  0  0  0  0  0  0  0  0
   -3.1331    1.9695    3.6908 H   0  0  0  0  0  0  0  0  0  0  0  0
   -2.9253    1.5413    1.2115 H   0  0  0  0  0  0  0  0  0  0  0  0
   -1.3133    3.9138    2.3268 H   0  0  0  0  0  0  0  0  0  0  0  0
   -1.9529    3.7988    0.6829 H   0  0  0  0  0  0  0  0  0  0  0  0
   -3.0626    3.8977    2.0629 H   0  0  0  0  0  0  0  0  0  0  0  0
   -0.6635    1.3313    0.0020 N   0  0  0  0  0  0  0  0  0  0  0  0
    0.5138    0.8305   -0.6617 C   0  0  2  0  0  0  0  0  0  0  0  0
    1.2783    2.0368   -1.1950 C   0  0  0  0  0  0  0  0  0  0  0  0
    0.7311    3.0942   -1.5005 O   0  0  0  0  0  0  0  0  0  0  0  0
    0.1691   -0.1303   -1.8055 C   0  0  0  0  0  0  0  0  0  0  0  0
   -0.5167   -1.3863   -1.3261 C   0  0  0  0  0  0  0  0  0  0  0  0
    0.1970   -2.3744   -0.6952 N   0  0  0  0  0  0  0  0  0  0  0  0
   -1.8456   -1.7232   -1.4305 C   0  0  0  0  0  0  0  0  0  0  0  0
   -0.6906   -3.3036   -0.4182 C   0  0  0  0  0  0  0  0  0  0  0  0
   -1.9416   -2.9541   -0.8450 N   0  0  0  0  0  0  0  0  0  0  0  0
   -1.4467    1.6280   -0.5753 H   0  0  0  0  0  0  0  0  0  0  0  0
    1.1179    0.3336    0.1065 H   0  0  0  0  0  0  0  0  0  0  0  0
    1.0759   -0.3954   -2.3659 H   0  0  0  0  0  0  0  0  0  0  0  0
   -0.4867    0.3622   -2.5356 H   0  0  0  0  0  0  0  0  0  0  0  0
   -2.7037   -1.2202   -1.8527 H   0  0  0  0  0  0  0  0  0  0  0  0
   -0.4958   -4.2410    0.0834 H   0  0  0  0  0  0  0  0  0  0  0  0
   -2.7835   -3.5052   -0.7447 H   0  0  0  0  0  0  0  0  0  0  0  0
    2.6463    1.8063   -1.2405 N   0  0  0  0  0  0  0  0  0  0  0  0
    3.6031    2.7939   -1.6852 C   0  0  2  0  0  0  0  0  0  0  0  0
    3.1244    3.3438   -3.0224 C   0  0  0  0  0  0  0  0  0  0  0  0
    2.3559    2.7331   -3.7624 O   0  0  0  0  0  0  0  0  0  0  0  0
    4.9964    2.1975   -1.8102 C   0  0  0  0  0  0  0  0  0  0  0  0
    2.9923    0.8977   -0.9464 H   0  0  0  0  0  0  0  0  0  0  0  0
    3.6009    3.5952   -0.9383 H   0  0  0  0  0  0  0  0  0  0  0  0
    5.0184    1.3928   -2.5542 H   0  0  0  0  0  0  0  0  0  0  0  0
    5.7254    2.9537   -2.1197 H   0  0  0  0  0  0  0  0  0  0  0  0
    5.3271    1.7759   -0.8548 H   0  0  0  0  0  0  0  0  0  0  0  0
    3.6901    4.5776   -3.3119 N   0  0  0  0  0  0  0  0  0  0  0  0
    3.4036    5.3002   -4.5292 C   0  0  0  0  0  0  0  0  0  0  0  0
    4.3022    5.0186   -2.6319 H   0  0  0  0  0  0  0  0  0  0  0  0
    4.1525    5.0442   -5.2931 H   0  0  0  0  0  0  0  0  0  0  0  0
    2.4019    5.0256   -4.8914 H   0  0  0  0  0  0  0  0  0  0  0  0
    3.4379    6.3816   -4.3302 H   0  0  0  0  0  0  0  0  0  0  0  0
 22 24  2  0  0  0  0
 24 26  1  0  0  0  0
 23 25  2  0  0  0  0
 25 26  1  0  0  0  0
 21 22  1  0  0  0  0
 22 23  1  0  0  0  0
  1  3  1  0  0  0  0
  1  7  1  0  0  0  0
  1  2  2  0  0  0  0
 35 36  1  0  0  0  0
 36 44  1  0  0  0  0
 36 37  2  0  0  0  0
  8  9  1  0  0  0  0
  9 17  1  0  0  0  0
  9 10  2  0  0  0  0
 18 19  1  0  0  0  0
 19 34  1  0  0  0  0
 19 20  2  0  0  0  0
 35 38  1  0  0  0  0
  8 11  1  0  0  0  0
 44 45  1  0  0  0  0
 18 21  1  0  0  0  0
 34 35  1  0  0  0  0
  7  8  1  0  0  0  0
 17 18  1  0  0  0  0
 24 31  1  0  0  0  0
 25 32  1  0  0  0  0
  3  4  1  0  0  0  0
  3  5  1  0  0  0  0
  3  6  1  0  0  0  0
 38 41  1  0  0  0  0
 38 42  1  0  0  0  0
 38 43  1  0  0  0  0
 11 14  1  0  0  0  0
 11 15  1  0  0  0  0
 11 16  1  0  0  0  0
 45 47  1  0  0  0  0
 45 48  1  0  0  0  0
 45 49  1  0  0  0  0
 21 29  1  0  0  0  0
 21 30  1  0  0  0  0
 35 40  1  0  0  0  0
  8 13  1  0  0  0  0
 18 28  1  0  0  0  0
 26 33  1  0  0  0  0
 44 46  1  0  0  0  0
  7 12  1  0  0  0  0
 34 39  1  0  0  0  0
 17 27  1  0  0  0  0
M  END
$$$$

  -OEChem-05262214473D

 49 49  0     1  0  0  0  0  0999 V2000
   -1.6183    0.5613    3.8201 C   0  0  0  0  0  0  0  0  0  0  0  0
   -0.6710   -0.0534    3.3444 O   0  0  0  0  0  0  0  0  0  0  0  0
   -2.0502    0.2789    5.2208 C   0  0  0  0  0  0  0  0  0  0  0  0
   -2.8099   -0.5175    5.2742 H   0  0  0  0  0  0  0  0  0  0  0  0
   -1.2190   -0.0687    5.8551 H   0  0  0  0  0  0  0  0  0  0  0  0
   -2.4882    1.1338    5.7604 H   0  0  0  0  0  0  0  0  0  0  0  0
   -2.3680    1.5337    3.1790 N   0  0  0  0  0  0  0  0  0  0  0  0
   -2.1212    1.9597    1.8266 C   0  0  2  0  0  0  0  0  0  0  0  0
   -0.7862    1.3744    1.3854 C   0  0  0  0  0  0  0  0  0  0  0  0
    0.0859    1.0216    2.1767 O   0  0  0  0  0  0  0  0  0  0  0  0
   -2.1124    3.4765    1.7171 C   0  0  0  0  0  0  0  0  0  0  0  0
   -3.1331    1.9695    3.6908 H   0  0  0  0  0  0  0  0  0  0  0  0
   -2.9253    1.5413    1.2115 H   0  0  0  0  0  0  0  0  0  0  0  0
   -1.3133    3.9138    2.3268 H   0  0  0  0  0  0  0  0  0  0  0  0
   -1.9529    3.7988    0.6829 H   0  0  0  0  0  0  0  0  0  0  0  0
   -3.0626    3.8977    2.0629 H   0  0  0  0  0  0  0  0  0  0  0  0
   -0.6635    1.3313    0.0020 N   0  0  0  0  0  0  0  0  0  0  0  0
    0.5138    0.8305   -0.6617 C   0  0  2  0  0  0  0  0  0  0  0  0
    1.2783    2.0368   -1.1950 C   0  0  0  0  0  0  0  0  0  0  0  0
    0.7944    3.1654   -1.2488 O   0  0  0  0  0  0  0  0  0  0  0  0
    0.1691   -0.1303   -1.8055 C   0  0  0  0  0  0  0  0  0  0  0  0
   -0.5167   -1.3863   -1.3261 C   0  0  0  0  0  0  0  0  0  0  0  0
    0.1970   -2.3744   -0.6952 N   0  0  0  0  0  0  0  0  0  0  0  0
   -1.8456   -1.7232   -1.4305 C   0  0  0  0  0  0  0  0  0  0  0  0
   -0.6906   -3.3036   -0.4182 C   0  0  0  0  0  0  0  0  0  0  0  0
   -1.9416   -2.9541   -0.8450 N   0  0  0  0  0  0  0  0  0  0  0  0
   -1.4467    1.6280   -0.5753 H   0  0  0  0  0  0  0  0  0  0  0  0
    1.1179    0.3336    0.1065 H   0  0  0  0  0  0  0  0  0  0  0  0
    1.0759   -0.3954   -2.3659 H   0  0  0  0  0  0  0  0  0  0  0  0
   -0.4867    0.3622   -2.5356 H   0  0  0  0  0  0  0  0  0  0  0  0
   -2.7037   -1.2202   -1.8527 H   0  0  0  0  0  0  0  0  0  0  0  0
   -0.4958   -4.2410    0.0834 H   0  0  0  0  0  0  0  0  0  0  0  0
   -2.7835   -3.5052   -0.7447 H   0  0  0  0  0  0  0  0  0  0  0  0
    2.5784    1.7102   -1.5552 N   0  0  0  0  0  0  0  0  0  0  0  0
    3.5251    2.6735   -2.0694 C   0  0  2  0  0  0  0  0  0  0  0  0
    2.8500    3.4394   -3.1995 C   0  0  0  0  0  0  0  0  0  0  0  0
    1.8905    2.9987   -3.8289 O   0  0  0  0  0  0  0  0  0  0  0  0
    4.7960    1.9948   -2.5561 C   0  0  0  0  0  0  0  0  0  0  0  0
    2.8795    0.7456   -1.4522 H   0  0  0  0  0  0  0  0  0  0  0  0
    3.7548    3.3608   -1.2479 H   0  0  0  0  0  0  0  0  0  0  0  0
    4.5858    1.3022   -3.3793 H   0  0  0  0  0  0  0  0  0  0  0  0
    5.5236    2.7283   -2.9189 H   0  0  0  0  0  0  0  0  0  0  0  0
    5.2643    1.4201   -1.7497 H   0  0  0  0  0  0  0  0  0  0  0  0
    3.4721    4.6542   -3.4511 N   0  0  0  0  0  0  0  0  0  0  0  0
    3.0261    5.5592   -4.4846 C   0  0  0  0  0  0  0  0  0  0  0  0
    4.2498    4.9478   -2.8673 H   0  0  0  0  0  0  0  0  0  0  0  0
    3.5774    5.3551   -5.4144 H   0  0  0  0  0  0  0  0  0  0  0  0
    1.9494    5.4157   -4.6578 H   0  0  0  0  0  0  0  0  0  0  0  0
    3.2116    6.5964   -4.1687 H   0  0  0  0  0  0  0  0  0  0  0  0
 22 24  2  0  0  0  0
 24 26  1  0  0  0  0
 23 25  2  0  0  0  0
 25 26  1  0  0  0  0
 21 22  1  0  0  0  0
 22 23  1  0  0  0  0
  1  3  1  0  0  0  0
  1  7  1  0  0  0  0
  1  2  2  0  0  0  0
 35 36  1  0  0  0  0
 36 44  1  0  0  0  0
 36 37  2  0  0  0  0
  8  9  1  0  0  0  0
  9 17  1  0  0  0  0
  9 10  2  0  0  0  0
 18 19  1  0  0  0  0
 19 34  1  0  0  0  0
 19 20  2  0  0  0  0
 35 38  1  0  0  0  0
  8 11  1  0  0  0  0
 44 45  1  0  0  0  0
 18 21  1  0  0  0  0
 34 35  1  0  0  0  0
  7  8  1  0  0  0  0
 17 18  1  0  0  0  0
 24 31  1  0  0  0  0
 25 32  1  0  0  0  0
  3  4  1  0  0  0  0
  3  5  1  0  0  0  0
  3  6  1  0  0  0  0
 38 41  1  0  0  0  0
 38 42  1  0  0  0  0
 38 43  1  0  0  0  0
 11 14  1  0  0  0  0
 11 15  1  0  0  0  0
 11 16  1  0  0  0  0
 45 47  1  0  0  0  0
 45 48  1  0  0  0  0
 45 49  1  0  0  0  0
 21 29  1  0  0  0  0
 21 30  1  0  0  0  0
 35 40  1  0  0  0  0
  8 13  1  0  0  0  0
 18 28  1  0  0  0  0
 26 33  1  0  0  0  0
 44 46  1  0  0  0  0
  7 12  1  0  0  0  0
 34 39  1  0  0  0  0
 17 27  1  0  0  0  0
M  END
$$$$

  -OEChem-05262214473D

 49 49  0     1  0  0  0  0  0999 V2000
   -1.6183    0.5613    3.8201 C   0  0  0  0  0  0  0  0  0  0  0  0
   -0.6710   -0.0534    3.3444 O   0  0  0  0  0  0  0  0  0  0  0  0
   -2.0502    0.2789    5.2208 C   0  0  0  0  0  0  0  0  0  0  0  0
   -2.8099   -0.5175    5.2742 H   0  0  0  0  0  0  0  0  0  0  0  0
   -1.2190   -0.0687    5.8551 H   0  0  0  0  0  0  0  0  0  0  0  0
   -2.4882    1.1338    5.7604 H   0  0  0  0  0  0  0  0  0  0  0  0
   -2.3680    1.5337    3.1790 N   0  0  0  0  0  0  0  0  0  0  0  0
   -2.1212    1.9597    1.8266 C   0  0  2  0  0  0  0  0  0  0  0  0
   -0.7862    1.3744    1.3854 C   0  0  0  0  0  0  0  0  0  0  0  0
    0.0859    1.0216    2.1767 O   0  0  0  0  0  0  0  0  0  0  0  0
   -2.1124    3.4765    1.7171 C   0  0  0  0  0  0  0  0  0  0  0  0
   -3.1331    1.9695    3.6908 H   0  0  0  0  0  0  0  0  0  0  0  0
   -2.9253    1.5413    1.2115 H   0  0  0  0  0  0  0  0  0  0  0  0
   -1.3133    3.9138    2.3268 H   0  0  0  0  0  0  0  0  0  0  0  0
   -1.9529    3.7988    0.6829 H   0  0  0  0  0  0  0  0  0  0  0  0
   -3.0626    3.8977    2.0629 H   0  0  0  0  0  0  0  0  0  0  0  0
   -0.6635    1.3313    0.0020 N   0  0  0  0  0  0  0  0  0  0  0  0
    0.5138    0.8305   -0.6617 C   0  0  2  0  0  0  0  0  0  0  0  0
    1.4566    2.0120   -0.8601 C   0  0  0  0  0  0  0  0  0  0  0  0
    1.2037    3.1450   -0.4562 O   0  0  0  0  0  0  0  0  0  0  0  0
    0.1853    0.1785   -2.0097 C   0  0  0  0  0  0  0  0  0  0  0  0
   -0.6795   -1.0503   -1.8684 C   0  0  0  0  0  0  0  0  0  0  0  0
   -0.1469   -2.2306   -1.4137 N   0  0  0  0  0  0  0  0  0  0  0  0
   -2.0195   -1.1843   -2.1456 C   0  0  0  0  0  0  0  0  0  0  0  0
   -1.1547   -3.0747   -1.4141 C   0  0  0  0  0  0  0  0  0  0  0  0
   -2.3093   -2.4866   -1.8501 N   0  0  0  0  0  0  0  0  0  0  0  0
   -1.4467    1.6280   -0.5753 H   0  0  0  0  0  0  0  0  0  0  0  0
    0.9777    0.1125    0.0248 H   0  0  0  0  0  0  0  0  0  0  0  0
    1.1104   -0.0801   -2.5426 H   0  0  0  0  0  0  0  0  0  0  0  0
   -0.3341    0.8911   -2.6640 H   0  0  0  0  0  0  0  0  0  0  0  0
   -2.7694   -0.4989   -2.5136 H   0  0  0  0  0  0  0  0  0  0  0  0
   -1.1163   -4.1124   -1.1143 H   0  0  0  0  0  0  0  0  0  0  0  0
   -3.2124   -2.9334   -1.9370 H   0  0  0  0  0  0  0  0  0  0  0  0
    2.6320    1.6376   -1.4963 N   0  0  0  0  0  0  0  0  0  0  0  0
    3.7060    2.5602   -1.7861 C   0  0  2  0  0  0  0  0  0  0  0  0
    3.1065    3.7777   -2.4773 C   0  0  0  0  0  0  0  0  0  0  0  0
    2.0305    3.7499   -3.0709 O   0  0  0  0  0  0  0  0  0  0  0  0
    4.7727    1.9122   -2.6550 C   0  0  0  0  0  0  0  0  0  0  0  0
    2.7429    0.6663   -1.7720 H   0  0  0  0  0  0  0  0  0  0  0  0
    4.1340    2.8599   -0.8233 H   0  0  0  0  0  0  0  0  0  0  0  0
    4.3626    1.6052   -3.6241 H   0  0  0  0  0  0  0  0  0  0  0  0
    5.5994    2.6033   -2.8500 H   0  0  0  0  0  0  0  0  0  0  0  0
    5.1817    1.0196   -2.1694 H   0  0  0  0  0  0  0  0  0  0  0  0
    3.9349    4.8878   -2.3902 N   0  0  0  0  0  0  0  0  0  0  0  0
    3.5947    6.1625   -2.9780 C   0  0  0  0  0  0  0  0  0  0  0  0
    4.8003    4.8253   -1.8622 H   0  0  0  0  0  0  0  0  0  0  0  0
    4.0166    6.2235   -3.9921 H   0  0  0  0  0  0  0  0  0  0  0  0
    2.5004    6.2619   -3.0298 H   0  0  0  0  0  0  0  0  0  0  0  0
    4.0076    6.9732   -2.3598 H   0  0  0  0  0  0  0  0  0  0  0  0
 22 24  2  0  0  0  0
 24 26  1  0  0  0  0
 23 25  2  0  0  0  0
 25 26  1  0  0  0  0
 21 22  1  0  0  0  0
 22 23  1  0  0  0  0
  1  3  1  0  0  0  0
  1  7  1  0  0  0  0
  1  2  2  0  0  0  0
 35 36  1  0  0  0  0
 36 44  1  0  0  0  0
 36 37  2  0  0  0  0
  8  9  1  0  0  0  0
  9 17  1  0  0  0  0
  9 10  2  0  0  0  0
 18 19  1  0  0  0  0
 19 34  1  0  0  0  0
 19 20  2  0  0  0  0
 35 38  1  0  0  0  0
  8 11  1  0  0  0  0
 44 45  1  0  0  0  0
 18 21  1  0  0  0  0
 34 35  1  0  0  0  0
  7  8  1  0  0  0  0
 17 18  1  0  0  0  0
 24 31  1  0  0  0  0
 25 32  1  0  0  0  0
  3  4  1  0  0  0  0
  3  5  1  0  0  0  0
  3  6  1  0  0  0  0
 38 41  1  0  0  0  0
 38 42  1  0  0  0  0
 38 43  1  0  0  0  0
 11 14  1  0  0  0  0
 11 15  1  0  0  0  0
 11 16  1  0  0  0  0
 45 47  1  0  0  0  0
 45 48  1  0  0  0  0
 45 49  1  0  0  0  0
 21 29  1  0  0  0  0
 21 30  1  0  0  0  0
 35 40  1  0  0  0  0
  8 13  1  0  0  0  0
 18 28  1  0  0  0  0
 26 33  1  0  0  0  0
 44 46  1  0  0  0  0
  7 12  1  0  0  0  0
 34 39  1  0  0  0  0
 17 27  1  0  0  0  0
M  END
$$$$

  -OEChem-05262214473D

 49 49  0     1  0  0  0  0  0999 V2000
   -1.6183    0.5613    3.8201 C   0  0  0  0  0  0  0  0  0  0  0  0
   -0.6710   -0.0534    3.3444 O   0  0  0  0  0  0  0  0  0  0  0  0
   -2.0502    0.2789    5.2208 C   0  0  0  0  0  0  0  0  0  0  0  0
   -2.8099   -0.5175    5.2742 H   0  0  0  0  0  0  0  0  0  0  0  0
   -1.2190   -0.0687    5.8551 H   0  0  0  0  0  0  0  0  0  0  0  0
   -2.4882    1.1338    5.7604 H   0  0  0  0  0  0  0  0  0  0  0  0
   -2.3680    1.5337    3.1790 N   0  0  0  0  0  0  0  0  0  0  0  0
   -2.1212    1.9597    1.8266 C   0  0  2  0  0  0  0  0  0  0  0  0
   -0.7862    1.3744    1.3854 C   0  0  0  0  0  0  0  0  0  0  0  0
    0.0859    1.0216    2.1767 O   0  0  0  0  0  0  0  0  0  0  0  0
   -2.1124    3.4765    1.7171 C   0  0  0  0  0  0  0  0  0  0  0  0
   -3.1331    1.9695    3.6908 H   0  0  0  0  0  0  0  0  0  0  0  0
   -2.9253    1.5413    1.2115 H   0  0  0  0  0  0  0  0  0  0  0  0
   -1.3133    3.9138    2.3268 H   0  0  0  0  0  0  0  0  0  0  0  0
   -1.9529    3.7988    0.6829 H   0  0  0  0  0  0  0  0  0  0  0  0
   -3.0626    3.8977    2.0629 H   0  0  0  0  0  0  0  0  0  0  0  0
   -0.6635    1.3313    0.0020 N   0  0  0  0  0  0  0  0  0  0  0  0
    0.5138    0.8305   -0.6617 C   0  0  2  0  0  0  0  0  0  0  0  0
    1.4566    2.0120   -0.8601 C   0  0  0  0  0  0  0  0  0  0  0  0
    1.3456    3.0679   -0.2408 O   0  0  0  0  0  0  0  0  0  0  0  0
    0.1853    0.1785   -2.0097 C   0  0  0  0  0  0  0  0  0  0  0  0
   -0.6795   -1.0503   -1.8684 C   0  0  0  0  0  0  0  0  0  0  0  0
   -0.1469   -2.2306   -1.4137 N   0  0  0  0  0  0  0  0  0  0  0  0
   -2.0195   -1.1843   -2.1456 C   0  0  0  0  0  0  0  0  0  0  0  0
   -1.1547   -3.0747   -1.4141 C   0  0  0  0  0  0  0  0  0  0  0  0
   -2.3093   -2.4866   -1.8501 N   0  0  0  0  0  0  0  0  0  0  0  0
   -1.4467    1.6280   -0.5753 H   0  0  0  0  0  0  0  0  0  0  0  0
    0.9777    0.1125    0.0248 H   0  0  0  0  0  0  0  0  0  0  0  0
    1.1104   -0.0801   -2.5426 H   0  0  0  0  0  0  0  0  0  0  0  0
   -0.3341    0.8911   -2.6640 H   0  0  0  0  0  0  0  0  0  0  0  0
   -2.7694   -0.4989   -2.5136 H   0  0  0  0  0  0  0  0  0  0  0  0
   -1.1163   -4.1124   -1.1143 H   0  0  0  0  0  0  0  0  0  0  0  0
   -3.2124   -2.9334   -1.9370 H   0  0  0  0  0  0  0  0  0  0  0  0
    2.4627    1.7263   -1.7726 N   0  0  0  0  0  0  0  0  0  0  0  0
    3.5029    2.6651   -2.1266 C   0  0  2  0  0  0  0  0  0  0  0  0
    2.8402    3.9894   -2.4820 C   0  0  0  0  0  0  0  0  0  0  0  0
    1.6679    4.0778   -2.8413 O   0  0  0  0  0  0  0  0  0  0  0  0
    4.3428    2.1495   -3.2848 C   0  0  0  0  0  0  0  0  0  0  0  0
    2.4681    0.8114   -2.2138 H   0  0  0  0  0  0  0  0  0  0  0  0
    4.1273    2.7959   -1.2361 H   0  0  0  0  0  0  0  0  0  0  0  0
    3.7343    2.0122   -4.1861 H   0  0  0  0  0  0  0  0  0  0  0  0
    5.1481    2.8487   -3.5331 H   0  0  0  0  0  0  0  0  0  0  0  0
    4.7947    1.1825   -3.0384 H   0  0  0  0  0  0  0  0  0  0  0  0
    3.7238    5.0559   -2.3924 N   0  0  0  0  0  0  0  0  0  0  0  0
    3.3383    6.4152   -2.6917 C   0  0  0  0  0  0  0  0  0  0  0  0
    4.6725    4.8928   -2.0679 H   0  0  0  0  0  0  0  0  0  0  0  0
    3.5538    6.6338   -3.7480 H   0  0  0  0  0  0  0  0  0  0  0  0
    2.2617    6.5407   -2.5037 H   0  0  0  0  0  0  0  0  0  0  0  0
    3.9054    7.1066   -2.0512 H   0  0  0  0  0  0  0  0  0  0  0  0
 22 24  2  0  0  0  0
 24 26  1  0  0  0  0
 23 25  2  0  0  0  0
 25 26  1  0  0  0  0
 21 22  1  0  0  0  0
 22 23  1  0  0  0  0
  1  3  1  0  0  0  0
  1  7  1  0  0  0  0
  1  2  2  0  0  0  0
 35 36  1  0  0  0  0
 36 44  1  0  0  0  0
 36 37  2  0  0  0  0
  8  9  1  0  0  0  0
  9 17  1  0  0  0  0
  9 10  2  0  0  0  0
 18 19  1  0  0  0  0
 19 34  1  0  0  0  0
 19 20  2  0  0  0  0
 35 38  1  0  0  0  0
  8 11  1  0  0  0  0
 44 45  1  0  0  0  0
 18 21  1  0  0  0  0
 34 35  1  0  0  0  0
  7  8  1  0  0  0  0
 17 18  1  0  0  0  0
 24 31  1  0  0  0  0
 25 32  1  0  0  0  0
  3  4  1  0  0  0  0
  3  5  1  0  0  0  0
  3  6  1  0  0  0  0
 38 41  1  0  0  0  0
 38 42  1  0  0  0  0
 38 43  1  0  0  0  0
 11 14  1  0  0  0  0
 11 15  1  0  0  0  0
 11 16  1  0  0  0  0
 45 47  1  0  0  0  0
 45 48  1  0  0  0  0
 45 49  1  0  0  0  0
 21 29  1  0  0  0  0
 21 30  1  0  0  0  0
 35 40  1  0  0  0  0
  8 13  1  0  0  0  0
 18 28  1  0  0  0  0
 26 33  1  0  0  0  0
 44 46  1  0  0  0  0
  7 12  1  0  0  0  0
 34 39  1  0  0  0  0
 17 27  1  0  0  0  0
M  END
$$$$

  -OEChem-05262214473D

 49 49  0     1  0  0  0  0  0999 V2000
   -1.6183    0.5613    3.8201 C   0  0  0  0  0  0  0  0  0  0  0  0
   -0.6710   -0.0534    3.3444 O   0  0  0  0  0  0  0  0  0  0  0  0
   -2.0502    0.2789    5.2208 C   0  0  0  0  0  0  0  0  0  0  0  0
   -2.8099   -0.5175    5.2742 H   0  0  0  0  0  0  0  0  0  0  0  0
   -1.2190   -0.0687    5.8551 H   0  0  0  0  0  0  0  0  0  0  0  0
   -2.4882    1.1338    5.7604 H   0  0  0  0  0  0  0  0  0  0  0  0
   -2.3680    1.5337    3.1790 N   0  0  0  0  0  0  0  0  0  0  0  0
   -2.1212    1.9597    1.8266 C   0  0  2  0  0  0  0  0  0  0  0  0
   -0.7862    1.3744    1.3854 C   0  0  0  0  0  0  0  0  0  0  0  0
    0.0859    1.0216    2.1767 O   0  0  0  0  0  0  0  0  0  0  0  0
   -2.1124    3.4765    1.7171 C   0  0  0  0  0  0  0  0  0  0  0  0
   -3.1331    1.9695    3.6908 H   0  0  0  0  0  0  0  0  0  0  0  0
   -2.9253    1.5413    1.2115 H   0  0  0  0  0  0  0  0  0  0  0  0
   -1.3133    3.9138    2.3268 H   0  0  0  0  0  0  0  0  0  0  0  0
   -1.9529    3.7988    0.6829 H   0  0  0  0  0  0  0  0  0  0  0  0
   -3.0626    3.8977    2.0629 H   0  0  0  0  0  0  0  0  0  0  0  0
   -0.6635    1.3313    0.0020 N   0  0  0  0  0  0  0  0  0  0  0  0
    0.5138    0.8305   -0.6617 C   0  0  2  0  0  0  0  0  0  0  0  0
    1.4566    2.0120   -0.8601 C   0  0  0  0  0  0  0  0  0  0  0  0
    1.5233    2.9542   -0.0736 O   0  0  0  0  0  0  0  0  0  0  0  0
    0.1853    0.1785   -2.0097 C   0  0  0  0  0  0  0  0  0  0  0  0
   -0.6795   -1.0503   -1.8684 C   0  0  0  0  0  0  0  0  0  0  0  0
   -0.1469   -2.2306   -1.4137 N   0  0  0  0  0  0  0  0  0  0  0  0
   -2.0195   -1.1843   -2.1456 C   0  0  0  0  0  0  0  0  0  0  0  0
   -1.1547   -3.0747   -1.4141 C   0  0  0  0  0  0  0  0  0  0  0  0
   -2.3093   -2.4866   -1.8501 N   0  0  0  0  0  0  0  0  0  0  0  0
   -1.4467    1.6280   -0.5753 H   0  0  0  0  0  0  0  0  0  0  0  0
    0.9777    0.1125    0.0248 H   0  0  0  0  0  0  0  0  0  0  0  0
    1.1104   -0.0801   -2.5426 H   0  0  0  0  0  0  0  0  0  0  0  0
   -0.3341    0.8911   -2.6640 H   0  0  0  0  0  0  0  0  0  0  0  0
   -2.7694   -0.4989   -2.5136 H   0  0  0  0  0  0  0  0  0  0  0  0
   -1.1163   -4.1124   -1.1143 H   0  0  0  0  0  0  0  0  0  0  0  0
   -3.2124   -2.9334   -1.9370 H   0  0  0  0  0  0  0  0  0  0  0  0
    2.2467    1.8619   -1.9913 N   0  0  0  0  0  0  0  0  0  0  0  0
    3.2420    2.8277   -2.3980 C   0  0  2  0  0  0  0  0  0  0  0  0
    2.5891    4.2037   -2.3993 C   0  0  0  0  0  0  0  0  0  0  0  0
    1.3749    4.3699   -2.4944 O   0  0  0  0  0  0  0  0  0  0  0  0
    3.8093    2.4939   -3.7689 C   0  0  0  0  0  0  0  0  0  0  0  0
    2.1190    1.0315   -2.5621 H   0  0  0  0  0  0  0  0  0  0  0  0
    4.0360    2.8003   -1.6437 H   0  0  0  0  0  0  0  0  0  0  0  0
    3.0284    2.5164   -4.5377 H   0  0  0  0  0  0  0  0  0  0  0  0
    4.5835    3.2103   -4.0631 H   0  0  0  0  0  0  0  0  0  0  0  0
    4.2520    1.4920   -3.7740 H   0  0  0  0  0  0  0  0  0  0  0  0
    3.5252    5.2256   -2.3253 N   0  0  0  0  0  0  0  0  0  0  0  0
    3.1565    6.6220   -2.3233 C   0  0  0  0  0  0  0  0  0  0  0  0
    4.5099    4.9953   -2.2301 H   0  0  0  0  0  0  0  0  0  0  0  0
    3.1695    7.0067   -3.3538 H   0  0  0  0  0  0  0  0  0  0  0  0
    2.1462    6.7338   -1.9031 H   0  0  0  0  0  0  0  0  0  0  0  0
    3.8731    7.1895   -1.7113 H   0  0  0  0  0  0  0  0  0  0  0  0
 22 24  2  0  0  0  0
 24 26  1  0  0  0  0
 23 25  2  0  0  0  0
 25 26  1  0  0  0  0
 21 22  1  0  0  0  0
 22 23  1  0  0  0  0
  1  3  1  0  0  0  0
  1  7  1  0  0  0  0
  1  2  2  0  0  0  0
 35 36  1  0  0  0  0
 36 44  1  0  0  0  0
 36 37  2  0  0  0  0
  8  9  1  0  0  0  0
  9 17  1  0  0  0  0
  9 10  2  0  0  0  0
 18 19  1  0  0  0  0
 19 34  1  0  0  0  0
 19 20  2  0  0  0  0
 35 38  1  0  0  0  0
  8 11  1  0  0  0  0
 44 45  1  0  0  0  0
 18 21  1  0  0  0  0
 34 35  1  0  0  0  0
  7  8  1  0  0  0  0
 17 18  1  0  0  0  0
 24 31  1  0  0  0  0
 25 32  1  0  0  0  0
  3  4  1  0  0  0  0
  3  5  1  0  0  0  0
  3  6  1  0  0  0  0
 38 41  1  0  0  0  0
 38 42  1  0  0  0  0
 38 43  1  0  0  0  0
 11 14  1  0  0  0  0
 11 15  1  0  0  0  0
 11 16  1  0  0  0  0
 45 47  1  0  0  0  0
 45 48  1  0  0  0  0
 45 49  1  0  0  0  0
 21 29  1  0  0  0  0
 21 30  1  0  0  0  0
 35 40  1  0  0  0  0
  8 13  1  0  0  0  0
 18 28  1  0  0  0  0
 26 33  1  0  0  0  0
 44 46  1  0  0  0  0
  7 12  1  0  0  0  0
 34 39  1  0  0  0  0
 17 27  1  0  0  0  0
M  END
$$$$

  -OEChem-05262214473D

 49 49  0     1  0  0  0  0  0999 V2000
   -1.6183    0.5613    3.8201 C   0  0  0  0  0  0  0  0  0  0  0  0
   -0.6710   -0.0534    3.3444 O   0  0  0  0  0  0  0  0  0  0  0  0
   -2.0502    0.2789    5.2208 C   0  0  0  0  0  0  0  0  0  0  0  0
   -2.8099   -0.5175    5.2742 H   0  0  0  0  0  0  0  0  0  0  0  0
   -1.2190   -0.0687    5.8551 H   0  0  0  0  0  0  0  0  0  0  0  0
   -2.4882    1.1338    5.7604 H   0  0  0  0  0  0  0  0  0  0  0  0
   -2.3680    1.5337    3.1790 N   0  0  0  0  0  0  0  0  0  0  0  0
   -2.1212    1.9597    1.8266 C   0  0  2  0  0  0  0  0  0  0  0  0
   -0.7862    1.3744    1.3854 C   0  0  0  0  0  0  0  0  0  0  0  0
    0.0859    1.0216    2.1767 O   0  0  0  0  0  0  0  0  0  0  0  0
   -2.1124    3.4765    1.7171 C   0  0  0  0  0  0  0  0  0  0  0  0
   -3.1331    1.9695    3.6908 H   0  0  0  0  0  0  0  0  0  0  0  0
   -2.9253    1.5413    1.2115 H   0  0  0  0  0  0  0  0  0  0  0  0
   -1.3133    3.9138    2.3268 H   0  0  0  0  0  0  0  0  0  0  0  0
   -1.9529    3.7988    0.6829 H   0  0  0  0  0  0  0  0  0  0  0  0
   -3.0626    3.8977    2.0629 H   0  0  0  0  0  0  0  0  0  0  0  0
   -0.6635    1.3313    0.0020 N   0  0  0  0  0  0  0  0  0  0  0  0
    0.5138    0.8305   -0.6617 C   0  0  2  0  0  0  0  0  0  0  0  0
    1.4566    2.0120   -0.8601 C   0  0  0  0  0  0  0  0  0  0  0  0
    1.7246    2.8117    0.0341 O   0  0  0  0  0  0  0  0  0  0  0  0
    0.1853    0.1785   -2.0097 C   0  0  0  0  0  0  0  0  0  0  0  0
   -0.6795   -1.0503   -1.8684 C   0  0  0  0  0  0  0  0  0  0  0  0
   -0.1469   -2.2306   -1.4137 N   0  0  0  0  0  0  0  0  0  0  0  0
   -2.0195   -1.1843   -2.1456 C   0  0  0  0  0  0  0  0  0  0  0  0
   -1.1547   -3.0747   -1.4141 C   0  0  0  0  0  0  0  0  0  0  0  0
   -2.3093   -2.4866   -1.8501 N   0  0  0  0  0  0  0  0  0  0  0  0
   -1.4467    1.6280   -0.5753 H   0  0  0  0  0  0  0  0  0  0  0  0
    0.9777    0.1125    0.0248 H   0  0  0  0  0  0  0  0  0  0  0  0
    1.1104   -0.0801   -2.5426 H   0  0  0  0  0  0  0  0  0  0  0  0
   -0.3341    0.8911   -2.6640 H   0  0  0  0  0  0  0  0  0  0  0  0
   -2.7694   -0.4989   -2.5136 H   0  0  0  0  0  0  0  0  0  0  0  0
   -1.1163   -4.1124   -1.1143 H   0  0  0  0  0  0  0  0  0  0  0  0
   -3.2124   -2.9334   -1.9370 H   0  0  0  0  0  0  0  0  0  0  0  0
    1.9988    2.0352   -2.1376 N   0  0  0  0  0  0  0  0  0  0  0  0
    2.9410    3.0371   -2.5817 C   0  0  2  0  0  0  0  0  0  0  0  0
    2.3704    4.4059   -2.2347 C   0  0  0  0  0  0  0  0  0  0  0  0
    1.1712    4.6064   -2.0537 O   0  0  0  0  0  0  0  0  0  0  0  0
    3.2084    2.9221   -4.0743 C   0  0  0  0  0  0  0  0  0  0  0  0
    1.7193    1.3116   -2.7934 H   0  0  0  0  0  0  0  0  0  0  0  0
    3.8661    2.8730   -2.0184 H   0  0  0  0  0  0  0  0  0  0  0  0
    2.2930    3.0836   -4.6551 H   0  0  0  0  0  0  0  0  0  0  0  0
    3.9439    3.6634   -4.4039 H   0  0  0  0  0  0  0  0  0  0  0  0
    3.5907    1.9270   -4.3262 H   0  0  0  0  0  0  0  0  0  0  0  0
    3.3526    5.3855   -2.1935 N   0  0  0  0  0  0  0  0  0  0  0  0
    3.0619    6.7690   -1.8979 C   0  0  0  0  0  0  0  0  0  0  0  0
    4.3239    5.1256   -2.3377 H   0  0  0  0  0  0  0  0  0  0  0  0
    2.8899    7.3167   -2.8363 H   0  0  0  0  0  0  0  0  0  0  0  0
    2.1615    6.8281   -1.2688 H   0  0  0  0  0  0  0  0  0  0  0  0
    3.9128    7.2162   -1.3632 H   0  0  0  0  0  0  0  0  0  0  0  0
 22 24  2  0  0  0  0
 24 26  1  0  0  0  0
 23 25  2  0  0  0  0
 25 26  1  0  0  0  0
 21 22  1  0  0  0  0
 22 23  1  0  0  0  0
  1  3  1  0  0  0  0
  1  7  1  0  0  0  0
  1  2  2  0  0  0  0
 35 36  1  0  0  0  0
 36 44  1  0  0  0  0
 36 37  2  0  0  0  0
  8  9  1  0  0  0  0
  9 17  1  0  0  0  0
  9 10  2  0  0  0  0
 18 19  1  0  0  0  0
 19 34  1  0  0  0  0
 19 20  2  0  0  0  0
 35 38  1  0  0  0  0
  8 11  1  0  0  0  0
 44 45  1  0  0  0  0
 18 21  1  0  0  0  0
 34 35  1  0  0  0  0
  7  8  1  0  0  0  0
 17 18  1  0  0  0  0
 24 31  1  0  0  0  0
 25 32  1  0  0  0  0
  3  4  1  0  0  0  0
  3  5  1  0  0  0  0
  3  6  1  0  0  0  0
 38 41  1  0  0  0  0
 38 42  1  0  0  0  0
 38 43  1  0  0  0  0
 11 14  1  0  0  0  0
 11 15  1  0  0  0  0
 11 16  1  0  0  0  0
 45 47  1  0  0  0  0
 45 48  1  0  0  0  0
 45 49  1  0  0  0  0
 21 29  1  0  0  0  0
 21 30  1  0  0  0  0
 35 40  1  0  0  0  0
  8 13  1  0  0  0  0
 18 28  1  0  0  0  0
 26 33  1  0  0  0  0
 44 46  1  0  0  0  0
  7 12  1  0  0  0  0
 34 39  1  0  0  0  0
 17 27  1  0  0  0  0
M  END
$$$$

  -OEChem-05262214473D

 49 49  0     1  0  0  0  0  0999 V2000
   -1.6183    0.5613    3.8201 C   0  0  0  0  0  0  0  0  0  0  0  0
   -0.6710   -0.0534    3.3444 O   0  0  0  0  0  0  0  0  0  0  0  0
   -2.0502    0.2789    5.2208 C   0  0  0  0  0  0  0  0  0  0  0  0
   -2.8099   -0.5175    5.2742 H   0  0  0  0  0  0  0  0  0  0  0  0
   -1.2190   -0.0687    5.8551 H   0  0  0  0  0  0  0  0  0  0  0  0
   -2.4882    1.1338    5.7604 H   0  0  0  0  0  0  0  0  0  0  0  0
   -2.3680    1.5337    3.1790 N   0  0  0  0  0  0  0  0  0  0  0  0
   -2.1212    1.9597    1.8266 C   0  0  2  0  0  0  0  0  0  0  0  0
   -0.7862    1.3744    1.3854 C   0  0  0  0  0  0  0  0  0  0  0  0
    0.0859    1.0216    2.1767 O   0  0  0  0  0  0  0  0  0  0  0  0
   -2.1124    3.4765    1.7171 C   0  0  0  0  0  0  0  0  0  0  0  0
   -3.1331    1.9695    3.6908 H   0  0  0  0  0  0  0  0  0  0  0  0
   -2.9253    1.5413    1.2115 H   0  0  0  0  0  0  0  0  0  0  0  0
   -1.3133    3.9138    2.3268 H   0  0  0  0  0  0  0  0  0  0  0  0
   -1.9529    3.7988    0.6829 H   0  0  0  0  0  0  0  0  0  0  0  0
   -3.0626    3.8977    2.0629 H   0  0  0  0  0  0  0  0  0  0  0  0
   -0.6635    1.3313    0.0020 N   0  0  0  0  0  0  0  0  0  0  0  0
    0.5138    0.8305   -0.6617 C   0  0  2  0  0  0  0  0  0  0  0  0
    1.4566    2.0120   -0.8601 C   0  0  0  0  0  0  0  0  0  0  0  0
    1.9358    2.6499    0.0749 O   0  0  0  0  0  0  0  0  0  0  0  0
    0.1853    0.1785   -2.0097 C   0  0  0  0  0  0  0  0  0  0  0  0
   -0.6795   -1.0503   -1.8684 C   0  0  0  0  0  0  0  0  0  0  0  0
   -0.1469   -2.2306   -1.4137 N   0  0  0  0  0  0  0  0  0  0  0  0
   -2.0195   -1.1843   -2.1456 C   0  0  0  0  0  0  0  0  0  0  0  0
   -1.1547   -3.0747   -1.4141 C   0  0  0  0  0  0  0  0  0  0  0  0
   -2.3093   -2.4866   -1.8501 N   0  0  0  0  0  0  0  0  0  0  0  0
   -1.4467    1.6280   -0.5753 H   0  0  0  0  0  0  0  0  0  0  0  0
    0.9777    0.1125    0.0248 H   0  0  0  0  0  0  0  0  0  0  0  0
    1.1104   -0.0801   -2.5426 H   0  0  0  0  0  0  0  0  0  0  0  0
   -0.3341    0.8911   -2.6640 H   0  0  0  0  0  0  0  0  0  0  0  0
   -2.7694   -0.4989   -2.5136 H   0  0  0  0  0  0  0  0  0  0  0  0
   -1.1163   -4.1124   -1.1143 H   0  0  0  0  0  0  0  0  0  0  0  0
   -3.2124   -2.9334   -1.9370 H   0  0  0  0  0  0  0  0  0  0  0  0
    1.7358    2.2343   -2.2014 N   0  0  0  0  0  0  0  0  0  0  0  0
    2.6204    3.2788   -2.6653 C   0  0  2  0  0  0  0  0  0  0  0  0
    2.1989    4.5822   -1.9996 C   0  0  0  0  0  0  0  0  0  0  0  0
    1.0708    4.7712   -1.5494 O   0  0  0  0  0  0  0  0  0  0  0  0
    2.5812    3.4048   -4.1803 C   0  0  0  0  0  0  0  0  0  0  0  0
    1.2962    1.6327   -2.8917 H   0  0  0  0  0  0  0  0  0  0  0  0
    3.6293    3.0088   -2.3347 H   0  0  0  0  0  0  0  0  0  0  0  0
    1.5782    3.6749   -4.5302 H   0  0  0  0  0  0  0  0  0  0  0  0
    3.2731    4.1771   -4.5322 H   0  0  0  0  0  0  0  0  0  0  0  0
    2.8558    2.4578   -4.6574 H   0  0  0  0  0  0  0  0  0  0  0  0
    3.2176    5.5247   -2.0060 N   0  0  0  0  0  0  0  0  0  0  0  0
    3.0607    6.8461   -1.4445 C   0  0  0  0  0  0  0  0  0  0  0  0
    4.1270    5.2751   -2.3835 H   0  0  0  0  0  0  0  0  0  0  0  0
    2.7341    7.5427   -2.2307 H   0  0  0  0  0  0  0  0  0  0  0  0
    2.3067    6.8171   -0.6441 H   0  0  0  0  0  0  0  0  0  0  0  0
    4.0219    7.1850   -1.0306 H   0  0  0  0  0  0  0  0  0  0  0  0
 22 24  2  0  0  0  0
 24 26  1  0  0  0  0
 23 25  2  0  0  0  0
 25 26  1  0  0  0  0
 21 22  1  0  0  0  0
 22 23  1  0  0  0  0
  1  3  1  0  0  0  0
  1  7  1  0  0  0  0
  1  2  2  0  0  0  0
 35 36  1  0  0  0  0
 36 44  1  0  0  0  0
 36 37  2  0  0  0  0
  8  9  1  0  0  0  0
  9 17  1  0  0  0  0
  9 10  2  0  0  0  0
 18 19  1  0  0  0  0
 19 34  1  0  0  0  0
 19 20  2  0  0  0  0
 35 38  1  0  0  0  0
  8 11  1  0  0  0  0
 44 45  1  0  0  0  0
 18 21  1  0  0  0  0
 34 35  1  0  0  0  0
  7  8  1  0  0  0  0
 17 18  1  0  0  0  0
 24 31  1  0  0  0  0
 25 32  1  0  0  0  0
  3  4  1  0  0  0  0
  3  5  1  0  0  0  0
  3  6  1  0  0  0  0
 38 41  1  0  0  0  0
 38 42  1  0  0  0  0
 38 43  1  0  0  0  0
 11 14  1  0  0  0  0
 11 15  1  0  0  0  0
 11 16  1  0  0  0  0
 45 47  1  0  0  0  0
 45 48  1  0  0  0  0
 45 49  1  0  0  0  0
 21 29  1  0  0  0  0
 21 30  1  0  0  0  0
 35 40  1  0  0  0  0
  8 13  1  0  0  0  0
 18 28  1  0  0  0  0
 26 33  1  0  0  0  0
 44 46  1  0  0  0  0
  7 12  1  0  0  0  0
 34 39  1  0  0  0  0
 17 27  1  0  0  0  0
M  END
$$$$

  -OEChem-05262214473D

 49 49  0     1  0  0  0  0  0999 V2000
   -1.6183    0.5613    3.8201 C   0  0  0  0  0  0  0  0  0  0  0  0
   -0.6710   -0.0534    3.3444 O   0  0  0  0  0  0  0  0  0  0  0  0
   -2.0502    0.2789    5.2208 C   0  0  0  0  0  0  0  0  0  0  0  0
   -2.8099   -0.5175    5.2742 H   0  0  0  0  0  0  0  0  0  0  0  0
   -1.2190   -0.0687    5.8551 H   0  0  0  0  0  0  0  0  0  0  0  0
   -2.4882    1.1338    5.7604 H   0  0  0  0  0  0  0  0  0  0  0  0
   -2.3680    1.5337    3.1790 N   0  0  0  0  0  0  0  0  0  0  0  0
   -2.1212    1.9597    1.8266 C   0  0  2  0  0  0  0  0  0  0  0  0
   -0.7862    1.3744    1.3854 C   0  0  0  0  0  0  0  0  0  0  0  0
    0.0859    1.0216    2.1767 O   0  0  0  0  0  0  0  0  0  0  0  0
   -2.1124    3.4765    1.7171 C   0  0  0  0  0  0  0  0  0  0  0  0
   -3.1331    1.9695    3.6908 H   0  0  0  0  0  0  0  0  0  0  0  0
   -2.9253    1.5413    1.2115 H   0  0  0  0  0  0  0  0  0  0  0  0
   -1.3133    3.9138    2.3268 H   0  0  0  0  0  0  0  0  0  0  0  0
   -1.9529    3.7988    0.6829 H   0  0  0  0  0  0  0  0  0  0  0  0
   -3.0626    3.8977    2.0629 H   0  0  0  0  0  0  0  0  0  0  0  0
   -0.6635    1.3313    0.0020 N   0  0  0  0  0  0  0  0  0  0  0  0
    0.5138    0.8305   -0.6617 C   0  0  2  0  0  0  0  0  0  0  0  0
    1.4566    2.0120   -0.8601 C   0  0  0  0  0  0  0  0  0  0  0  0
    2.1426    2.4801    0.0460 O   0  0  0  0  0  0  0  0  0  0  0  0
    0.1853    0.1785   -2.0097 C   0  0  0  0  0  0  0  0  0  0  0  0
   -0.6795   -1.0503   -1.8684 C   0  0  0  0  0  0  0  0  0  0  0  0
   -0.1469   -2.2306   -1.4137 N   0  0  0  0  0  0  0  0  0  0  0  0
   -2.0195   -1.1843   -2.1456 C   0  0  0  0  0  0  0  0  0  0  0  0
   -1.1547   -3.0747   -1.4141 C   0  0  0  0  0  0  0  0  0  0  0  0
   -2.3093   -2.4866   -1.8501 N   0  0  0  0  0  0  0  0  0  0  0  0
   -1.4467    1.6280   -0.5753 H   0  0  0  0  0  0  0  0  0  0  0  0
    0.9777    0.1125    0.0248 H   0  0  0  0  0  0  0  0  0  0  0  0
    1.1104   -0.0801   -2.5426 H   0  0  0  0  0  0  0  0  0  0  0  0
   -0.3341    0.8911   -2.6640 H   0  0  0  0  0  0  0  0  0  0  0  0
   -2.7694   -0.4989   -2.5136 H   0  0  0  0  0  0  0  0  0  0  0  0
   -1.1163   -4.1124   -1.1143 H   0  0  0  0  0  0  0  0  0  0  0  0
   -3.2124   -2.9334   -1.9370 H   0  0  0  0  0  0  0  0  0  0  0  0
    1.4757    2.4457   -2.1784 N   0  0  0  0  0  0  0  0  0  0  0  0
    2.3022    3.5365   -2.6430 C   0  0  2  0  0  0  0  0  0  0  0  0
    2.0865    4.7206   -1.7098 C   0  0  0  0  0  0  0  0  0  0  0  0
    1.0806    4.8531   -1.0157 O   0  0  0  0  0  0  0  0  0  0  0  0
    1.9703    3.9092   -4.0796 C   0  0  0  0  0  0  0  0  0  0  0  0
    0.8787    1.9728   -2.8505 H   0  0  0  0  0  0  0  0  0  0  0  0
    3.3417    3.1986   -2.5709 H   0  0  0  0  0  0  0  0  0  0  0  0
    0.9327    4.2503   -4.1715 H   0  0  0  0  0  0  0  0  0  0  0  0
    2.6167    4.7165   -4.4395 H   0  0  0  0  0  0  0  0  0  0  0  0
    2.0974    3.0483   -4.7448 H   0  0  0  0  0  0  0  0  0  0  0  0
    3.1296    5.6337   -1.7755 N   0  0  0  0  0  0  0  0  0  0  0  0
    3.1532    6.8480   -0.9939 C   0  0  0  0  0  0  0  0  0  0  0  0
    3.9326    5.4334   -2.3644 H   0  0  0  0  0  0  0  0  0  0  0  0
    2.7128    7.6694   -1.5783 H   0  0  0  0  0  0  0  0  0  0  0  0
    2.5719    6.7016   -0.0716 H   0  0  0  0  0  0  0  0  0  0  0  0
    4.1930    7.0980   -0.7363 H   0  0  0  0  0  0  0  0  0  0  0  0
 22 24  2  0  0  0  0
 24 26  1  0  0  0  0
 23 25  2  0  0  0  0
 25 26  1  0  0  0  0
 21 22  1  0  0  0  0
 22 23  1  0  0  0  0
  1  3  1  0  0  0  0
  1  7  1  0  0  0  0
  1  2  2  0  0  0  0
 35 36  1  0  0  0  0
 36 44  1  0  0  0  0
 36 37  2  0  0  0  0
  8  9  1  0  0  0  0
  9 17  1  0  0  0  0
  9 10  2  0  0  0  0
 18 19  1  0  0  0  0
 19 34  1  0  0  0  0
 19 20  2  0  0  0  0
 35 38  1  0  0  0  0
  8 11  1  0  0  0  0
 44 45  1  0  0  0  0
 18 21  1  0  0  0  0
 34 35  1  0  0  0  0
  7  8  1  0  0  0  0
 17 18  1  0  0  0  0
 24 31  1  0  0  0  0
 25 32  1  0  0  0  0
  3  4  1  0  0  0  0
  3  5  1  0  0  0  0
  3  6  1  0  0  0  0
 38 41  1  0  0  0  0
 38 42  1  0  0  0  0
 38 43  1  0  0  0  0
 11 14  1  0  0  0  0
 11 15  1  0  0  0  0
 11 16  1  0  0  0  0
 45 47  1  0  0  0  0
 45 48  1  0  0  0  0
 45 49  1  0  0  0  0
 21 29  1  0  0  0  0
 21 30  1  0  0  0  0
 35 40  1  0  0  0  0
  8 13  1  0  0  0  0
 18 28  1  0  0  0  0
 26 33  1  0  0  0  0
 44 46  1  0  0  0  0
  7 12  1  0  0  0  0
 34 39  1  0  0  0  0
 17 27  1  0  0  0  0
M  END
$$$$

  -OEChem-05262214473D

 49 49  0     1  0  0  0  0  0999 V2000
   -1.6183    0.5613    3.8201 C   0  0  0  0  0  0  0  0  0  0  0  0
   -0.6710   -0.0534    3.3444 O   0  0  0  0  0  0  0  0  0  0  0  0
   -2.0502    0.2789    5.2208 C   0  0  0  0  0  0  0  0  0  0  0  0
   -2.8099   -0.5175    5.2742 H   0  0  0  0  0  0  0  0  0  0  0  0
   -1.2190   -0.0687    5.8551 H   0  0  0  0  0  0  0  0  0  0  0  0
   -2.4882    1.1338    5.7604 H   0  0  0  0  0  0  0  0  0  0  0  0
   -2.3680    1.5337    3.1790 N   0  0  0  0  0  0  0  0  0  0  0  0
   -2.1212    1.9597    1.8266 C   0  0  2  0  0  0  0  0  0  0  0  0
   -0.7862    1.3744    1.3854 C   0  0  0  0  0  0  0  0  0  0  0  0
    0.0859    1.0216    2.1767 O   0  0  0  0  0  0  0  0  0  0  0  0
   -2.1124    3.4765    1.7171 C   0  0  0  0  0  0  0  0  0  0  0  0
   -3.1331    1.9695    3.6908 H   0  0  0  0  0  0  0  0  0  0  0  0
   -2.9253    1.5413    1.2115 H   0  0  0  0  0  0  0  0  0  0  0  0
   -1.3133    3.9138    2.3268 H   0  0  0  0  0  0  0  0  0  0  0  0
   -1.9529    3.7988    0.6829 H   0  0  0  0  0  0  0  0  0  0  0  0
   -3.0626    3.8977    2.0629 H   0  0  0  0  0  0  0  0  0  0  0  0
   -0.6635    1.3313    0.0020 N   0  0  0  0  0  0  0  0  0  0  0  0
    0.5138    0.8305   -0.6617 C   0  0  2  0  0  0  0  0  0  0  0  0
    1.4566    2.0120   -0.8601 C   0  0  0  0  0  0  0  0  0  0  0  0
    2.3309    2.3136   -0.0505 O   0  0  0  0  0  0  0  0  0  0  0  0
    0.1853    0.1785   -2.0097 C   0  0  0  0  0  0  0  0  0  0  0  0
   -0.6795   -1.0503   -1.8684 C   0  0  0  0  0  0  0  0  0  0  0  0
   -0.1469   -2.2306   -1.4137 N   0  0  0  0  0  0  0  0  0  0  0  0
   -2.0195   -1.1843   -2.1456 C   0  0  0  0  0  0  0  0  0  0  0  0
   -1.1547   -3.0747   -1.4141 C   0  0  0  0  0  0  0  0  0  0  0  0
   -2.3093   -2.4866   -1.8501 N   0  0  0  0  0  0  0  0  0  0  0  0
   -1.4467    1.6280   -0.5753 H   0  0  0  0  0  0  0  0  0  0  0  0
    0.9777    0.1125    0.0248 H   0  0  0  0  0  0  0  0  0  0  0  0
    1.1104   -0.0801   -2.5426 H   0  0  0  0  0  0  0  0  0  0  0  0
   -0.3341    0.8911   -2.6640 H   0  0  0  0  0  0  0  0  0  0  0  0
   -2.7694   -0.4989   -2.5136 H   0  0  0  0  0  0  0  0  0  0  0  0
   -1.1163   -4.1124   -1.1143 H   0  0  0  0  0  0  0  0  0  0  0  0
   -3.2124   -2.9334   -1.9370 H   0  0  0  0  0  0  0  0  0  0  0  0
    1.2361    2.6551   -2.0702 N   0  0  0  0  0  0  0  0  0  0  0  0
    2.0079    3.7926   -2.5164 C   0  0  2  0  0  0  0  0  0  0  0  0
    2.0406    4.8117   -1.3851 C   0  0  0  0  0  0  0  0  0  0  0  0
    1.1999    4.8464   -0.4890 O   0  0  0  0  0  0  0  0  0  0  0  0
    1.4175    4.4008   -3.7790 C   0  0  0  0  0  0  0  0  0  0  0  0
    0.4951    2.3088   -2.6724 H   0  0  0  0  0  0  0  0  0  0  0  0
    3.0229    3.4295   -2.7111 H   0  0  0  0  0  0  0  0  0  0  0  0
    0.4006    4.7703   -3.6035 H   0  0  0  0  0  0  0  0  0  0  0  0
    2.0194    5.2448   -4.1319 H   0  0  0  0  0  0  0  0  0  0  0  0
    1.3672    3.6583   -4.5827 H   0  0  0  0  0  0  0  0  0  0  0  0
    3.0945    5.7050   -1.5177 N   0  0  0  0  0  0  0  0  0  0  0  0
    3.3329    6.7746   -0.5770 C   0  0  0  0  0  0  0  0  0  0  0  0
    3.7540    5.5898   -2.2815 H   0  0  0  0  0  0  0  0  0  0  0  0
    2.8272    7.6880   -0.9235 H   0  0  0  0  0  0  0  0  0  0  0  0
    2.9390    6.4895    0.4097 H   0  0  0  0  0  0  0  0  0  0  0  0
    4.4143    6.9610   -0.5002 H   0  0  0  0  0  0  0  0  0  0  0  0
 22 24  2  0  0  0  0
 24 26  1  0  0  0  0
 23 25  2  0  0  0  0
 25 26  1  0  0  0  0
 21 22  1  0  0  0  0
 22 23  1  0  0  0  0
  1  3  1  0  0  0  0
  1  7  1  0  0  0  0
  1  2  2  0  0  0  0
 35 36  1  0  0  0  0
 36 44  1  0  0  0  0
 36 37  2  0  0  0  0
  8  9  1  0  0  0  0
  9 17  1  0  0  0  0
  9 10  2  0  0  0  0
 18 19  1  0  0  0  0
 19 34  1  0  0  0  0
 19 20  2  0  0  0  0
 35 38  1  0  0  0  0
  8 11  1  0  0  0  0
 44 45  1  0  0  0  0
 18 21  1  0  0  0  0
 34 35  1  0  0  0  0
  7  8  1  0  0  0  0
 17 18  1  0  0  0  0
 24 31  1  0  0  0  0
 25 32  1  0  0  0  0
  3  4  1  0  0  0  0
  3  5  1  0  0  0  0
  3  6  1  0  0  0  0
 38 41  1  0  0  0  0
 38 42  1  0  0  0  0
 38 43  1  0  0  0  0
 11 14  1  0  0  0  0
 11 15  1  0  0  0  0
 11 16  1  0  0  0  0
 45 47  1  0  0  0  0
 45 48  1  0  0  0  0
 45 49  1  0  0  0  0
 21 29  1  0  0  0  0
 21 30  1  0  0  0  0
 35 40  1  0  0  0  0
  8 13  1  0  0  0  0
 18 28  1  0  0  0  0
 26 33  1  0  0  0  0
 44 46  1  0  0  0  0
  7 12  1  0  0  0  0
 34 39  1  0  0  0  0
 17 27  1  0  0  0  0
M  END
$$$$

  -OEChem-05262214473D

 49 49  0     1  0  0  0  0  0999 V2000
   -1.6183    0.5613    3.8201 C   0  0  0  0  0  0  0  0  0  0  0  0
   -0.6710   -0.0534    3.3444 O   0  0  0  0  0  0  0  0  0  0  0  0
   -2.0502    0.2789    5.2208 C   0  0  0  0  0  0  0  0  0  0  0  0
   -2.8099   -0.5175    5.2742 H   0  0  0  0  0  0  0  0  0  0  0  0
   -1.2190   -0.0687    5.8551 H   0  0  0  0  0  0  0  0  0  0  0  0
   -2.4882    1.1338    5.7604 H   0  0  0  0  0  0  0  0  0  0  0  0
   -2.3680    1.5337    3.1790 N   0  0  0  0  0  0  0  0  0  0  0  0
   -2.1212    1.9597    1.8266 C   0  0  2  0  0  0  0  0  0  0  0  0
   -0.7862    1.3744    1.3854 C   0  0  0  0  0  0  0  0  0  0  0  0
    0.0859    1.0216    2.1767 O   0  0  0  0  0  0  0  0  0  0  0  0
   -2.1124    3.4765    1.7171 C   0  0  0  0  0  0  0  0  0  0  0  0
   -3.1331    1.9695    3.6908 H   0  0  0  0  0  0  0  0  0  0  0  0
   -2.9253    1.5413    1.2115 H   0  0  0  0  0  0  0  0  0  0  0  0
   -1.3133    3.9138    2.3268 H   0  0  0  0  0  0  0  0  0  0  0  0
   -1.9529    3.7988    0.6829 H   0  0  0  0  0  0  0  0  0  0  0  0
   -3.0626    3.8977    2.0629 H   0  0  0  0  0  0  0  0  0  0  0  0
   -0.6635    1.3313    0.0020 N   0  0  0  0  0  0  0  0  0  0  0  0
    0.5138    0.8305   -0.6617 C   0  0  2  0  0  0  0  0  0  0  0  0
    1.4566    2.0120   -0.8601 C   0  0  0  0  0  0  0  0  0  0  0  0
    2.4877    2.1620   -0.2081 O   0  0  0  0  0  0  0  0  0  0  0  0
    0.1853    0.1785   -2.0097 C   0  0  0  0  0  0  0  0  0  0  0  0
   -0.6795   -1.0503   -1.8684 C   0  0  0  0  0  0  0  0  0  0  0  0
   -0.1469   -2.2306   -1.4137 N   0  0  0  0  0  0  0  0  0  0  0  0
   -2.0195   -1.1843   -2.1456 C   0  0  0  0  0  0  0  0  0  0  0  0
   -1.1547   -3.0747   -1.4141 C   0  0  0  0  0  0  0  0  0  0  0  0
   -2.3093   -2.4866   -1.8501 N   0  0  0  0  0  0  0  0  0  0  0  0
   -1.4467    1.6280   -0.5753 H   0  0  0  0  0  0  0  0  0  0  0  0
    0.9777    0.1125    0.0248 H   0  0  0  0  0  0  0  0  0  0  0  0
    1.1104   -0.0801   -2.5426 H   0  0  0  0  0  0  0  0  0  0  0  0
   -0.3341    0.8911   -2.6640 H   0  0  0  0  0  0  0  0  0  0  0  0
   -2.7694   -0.4989   -2.5136 H   0  0  0  0  0  0  0  0  0  0  0  0
   -1.1163   -4.1124   -1.1143 H   0  0  0  0  0  0  0  0  0  0  0  0
   -3.2124   -2.9334   -1.9370 H   0  0  0  0  0  0  0  0  0  0  0  0
    1.0336    2.8480   -1.8841 N   0  0  0  0  0  0  0  0  0  0  0  0
    1.7577    4.0296   -2.2942 C   0  0  2  0  0  0  0  0  0  0  0  0
    2.0645    4.8493   -1.0478 C   0  0  0  0  0  0  0  0  0  0  0  0
    1.4205    4.7516   -0.0053 O   0  0  0  0  0  0  0  0  0  0  0  0
    0.9603    4.8463   -3.2992 C   0  0  0  0  0  0  0  0  0  0  0  0
    0.1716    2.6177   -2.3698 H   0  0  0  0  0  0  0  0  0  0  0  0
    2.6947    3.6856   -2.7455 H   0  0  0  0  0  0  0  0  0  0  0  0
    0.0180    5.1996   -2.8649 H   0  0  0  0  0  0  0  0  0  0  0  0
    1.5220    5.7259   -3.6304 H   0  0  0  0  0  0  0  0  0  0  0  0
    0.7150    4.2460   -4.1820 H   0  0  0  0  0  0  0  0  0  0  0  0
    3.1146    5.7338   -1.2503 N   0  0  0  0  0  0  0  0  0  0  0  0
    3.5877    6.6309   -0.2220 C   0  0  0  0  0  0  0  0  0  0  0  0
    3.6035    5.7336   -2.1407 H   0  0  0  0  0  0  0  0  0  0  0  0
    3.0698    7.5973   -0.3111 H   0  0  0  0  0  0  0  0  0  0  0  0
    3.3830    6.1952    0.7671 H   0  0  0  0  0  0  0  0  0  0  0  0
    4.6708    6.7835   -0.3385 H   0  0  0  0  0  0  0  0  0  0  0  0
 22 24  2  0  0  0  0
 24 26  1  0  0  0  0
 23 25  2  0  0  0  0
 25 26  1  0  0  0  0
 21 22  1  0  0  0  0
 22 23  1  0  0  0  0
  1  3  1  0  0  0  0
  1  7  1  0  0  0  0
  1  2  2  0  0  0  0
 35 36  1  0  0  0  0
 36 44  1  0  0  0  0
 36 37  2  0  0  0  0
  8  9  1  0  0  0  0
  9 17  1  0  0  0  0
  9 10  2  0  0  0  0
 18 19  1  0  0  0  0
 19 34  1  0  0  0  0
 19 20  2  0  0  0  0
 35 38  1  0  0  0  0
  8 11  1  0  0  0  0
 44 45  1  0  0  0  0
 18 21  1  0  0  0  0
 34 35  1  0  0  0  0
  7  8  1  0  0  0  0
 17 18  1  0  0  0  0
 24 31  1  0  0  0  0
 25 32  1  0  0  0  0
  3  4  1  0  0  0  0
  3  5  1  0  0  0  0
  3  6  1  0  0  0  0
 38 41  1  0  0  0  0
 38 42  1  0  0  0  0
 38 43  1  0  0  0  0
 11 14  1  0  0  0  0
 11 15  1  0  0  0  0
 11 16  1  0  0  0  0
 45 47  1  0  0  0  0
 45 48  1  0  0  0  0
 45 49  1  0  0  0  0
 21 29  1  0  0  0  0
 21 30  1  0  0  0  0
 35 40  1  0  0  0  0
  8 13  1  0  0  0  0
 18 28  1  0  0  0  0
 26 33  1  0  0  0  0
 44 46  1  0  0  0  0
  7 12  1  0  0  0  0
 34 39  1  0  0  0  0
 17 27  1  0  0  0  0
M  END
$$$$

  -OEChem-05262214473D

 49 49  0     1  0  0  0  0  0999 V2000
   -1.6183    0.5613    3.8201 C   0  0  0  0  0  0  0  0  0  0  0  0
   -0.6710   -0.0534    3.3444 O   0  0  0  0  0  0  0  0  0  0  0  0
   -2.0502    0.2789    5.2208 C   0  0  0  0  0  0  0  0  0  0  0  0
   -2.8099   -0.5175    5.2742 H   0  0  0  0  0  0  0  0  0  0  0  0
   -1.2190   -0.0687    5.8551 H   0  0  0  0  0  0  0  0  0  0  0  0
   -2.4882    1.1338    5.7604 H   0  0  0  0  0  0  0  0  0  0  0  0
   -2.3680    1.5337    3.1790 N   0  0  0  0  0  0  0  0  0  0  0  0
   -2.1212    1.9597    1.8266 C   0  0  2  0  0  0  0  0  0  0  0  0
   -0.7862    1.3744    1.3854 C   0  0  0  0  0  0  0  0  0  0  0  0
    0.0859    1.0216    2.1767 O   0  0  0  0  0  0  0  0  0  0  0  0
   -2.1124    3.4765    1.7171 C   0  0  0  0  0  0  0  0  0  0  0  0
   -3.1331    1.9695    3.6908 H   0  0  0  0  0  0  0  0  0  0  0  0
   -2.9253    1.5413    1.2115 H   0  0  0  0  0  0  0  0  0  0  0  0
   -1.3133    3.9138    2.3268 H   0  0  0  0  0  0  0  0  0  0  0  0
   -1.9529    3.7988    0.6829 H   0  0  0  0  0  0  0  0  0  0  0  0
   -3.0626    3.8977    2.0629 H   0  0  0  0  0  0  0  0  0  0  0  0
   -0.6635    1.3313    0.0020 N   0  0  0  0  0  0  0  0  0  0  0  0
    0.5138    0.8305   -0.6617 C   0  0  2  0  0  0  0  0  0  0  0  0
    1.4566    2.0120   -0.8601 C   0  0  0  0  0  0  0  0  0  0  0  0
    2.6025    2.0355   -0.4161 O   0  0  0  0  0  0  0  0  0  0  0  0
    0.1853    0.1785   -2.0097 C   0  0  0  0  0  0  0  0  0  0  0  0
   -0.6795   -1.0503   -1.8684 C   0  0  0  0  0  0  0  0  0  0  0  0
   -0.1469   -2.2306   -1.4137 N   0  0  0  0  0  0  0  0  0  0  0  0
   -2.0195   -1.1843   -2.1456 C   0  0  0  0  0  0  0  0  0  0  0  0
   -1.1547   -3.0747   -1.4141 C   0  0  0  0  0  0  0  0  0  0  0  0
   -2.3093   -2.4866   -1.8501 N   0  0  0  0  0  0  0  0  0  0  0  0
   -1.4467    1.6280   -0.5753 H   0  0  0  0  0  0  0  0  0  0  0  0
    0.9777    0.1125    0.0248 H   0  0  0  0  0  0  0  0  0  0  0  0
    1.1104   -0.0801   -2.5426 H   0  0  0  0  0  0  0  0  0  0  0  0
   -0.3341    0.8911   -2.6640 H   0  0  0  0  0  0  0  0  0  0  0  0
   -2.7694   -0.4989   -2.5136 H   0  0  0  0  0  0  0  0  0  0  0  0
   -1.1163   -4.1124   -1.1143 H   0  0  0  0  0  0  0  0  0  0  0  0
   -3.2124   -2.9334   -1.9370 H   0  0  0  0  0  0  0  0  0  0  0  0
    0.8817    3.0114   -1.6329 N   0  0  0  0  0  0  0  0  0  0  0  0
    1.5686    4.2314   -1.9913 C   0  0  2  0  0  0  0  0  0  0  0  0
    2.1565    4.8309   -0.7207 C   0  0  0  0  0  0  0  0  0  0  0  0
    1.7274    4.5752    0.4025 O   0  0  0  0  0  0  0  0  0  0  0  0
    0.6300    5.2151   -2.6727 C   0  0  0  0  0  0  0  0  0  0  0  0
   -0.0697    2.8786   -1.9631 H   0  0  0  0  0  0  0  0  0  0  0  0
    2.3793    3.9496   -2.6720 H   0  0  0  0  0  0  0  0  0  0  0  0
   -0.1889    5.5090   -2.0060 H   0  0  0  0  0  0  0  0  0  0  0  0
    1.1584    6.1272   -2.9692 H   0  0  0  0  0  0  0  0  0  0  0  0
    0.1852    4.7716   -3.5700 H   0  0  0  0  0  0  0  0  0  0  0  0
    3.1887    5.7182   -0.9914 N   0  0  0  0  0  0  0  0  0  0  0  0
    3.9001    6.4268    0.0468 C   0  0  0  0  0  0  0  0  0  0  0  0
    3.4911    5.8551   -1.9514 H   0  0  0  0  0  0  0  0  0  0  0  0
    3.4238    7.4035    0.2173 H   0  0  0  0  0  0  0  0  0  0  0  0
    3.8737    5.8388    0.9761 H   0  0  0  0  0  0  0  0  0  0  0  0
    4.9450    6.5775   -0.2622 H   0  0  0  0  0  0  0  0  0  0  0  0
 22 24  2  0  0  0  0
 24 26  1  0  0  0  0
 23 25  2  0  0  0  0
 25 26  1  0  0  0  0
 21 22  1  0  0  0  0
 22 23  1  0  0  0  0
  1  3  1  0  0  0  0
  1  7  1  0  0  0  0
  1  2  2  0  0  0  0
 35 36  1  0  0  0  0
 36 44  1  0  0  0  0
 36 37  2  0  0  0  0
  8  9  1  0  0  0  0
  9 17  1  0  0  0  0
  9 10  2  0  0  0  0
 18 19  1  0  0  0  0
 19 34  1  0  0  0  0
 19 20  2  0  0  0  0
 35 38  1  0  0  0  0
  8 11  1  0  0  0  0
 44 45  1  0  0  0  0
 18 21  1  0  0  0  0
 34 35  1  0  0  0  0
  7  8  1  0  0  0  0
 17 18  1  0  0  0  0
 24 31  1  0  0  0  0
 25 32  1  0  0  0  0
  3  4  1  0  0  0  0
  3  5  1  0  0  0  0
  3  6  1  0  0  0  0
 38 41  1  0  0  0  0
 38 42  1  0  0  0  0
 38 43  1  0  0  0  0
 11 14  1  0  0  0  0
 11 15  1  0  0  0  0
 11 16  1  0  0  0  0
 45 47  1  0  0  0  0
 45 48  1  0  0  0  0
 45 49  1  0  0  0  0
 21 29  1  0  0  0  0
 21 30  1  0  0  0  0
 35 40  1  0  0  0  0
  8 13  1  0  0  0  0
 18 28  1  0  0  0  0
 26 33  1  0  0  0  0
 44 46  1  0  0  0  0
  7 12  1  0  0  0  0
 34 39  1  0  0  0  0
 17 27  1  0  0  0  0
M  END
$$$$

  -OEChem-05262214473D

 49 49  0     1  0  0  0  0  0999 V2000
   -1.6183    0.5613    3.8201 C   0  0  0  0  0  0  0  0  0  0  0  0
   -0.6710   -0.0534    3.3444 O   0  0  0  0  0  0  0  0  0  0  0  0
   -2.0502    0.2789    5.2208 C   0  0  0  0  0  0  0  0  0  0  0  0
   -2.8099   -0.5175    5.2742 H   0  0  0  0  0  0  0  0  0  0  0  0
   -1.2190   -0.0687    5.8551 H   0  0  0  0  0  0  0  0  0  0  0  0
   -2.4882    1.1338    5.7604 H   0  0  0  0  0  0  0  0  0  0  0  0
   -2.3680    1.5337    3.1790 N   0  0  0  0  0  0  0  0  0  0  0  0
   -2.1212    1.9597    1.8266 C   0  0  2  0  0  0  0  0  0  0  0  0
   -0.7862    1.3744    1.3854 C   0  0  0  0  0  0  0  0  0  0  0  0
    0.0859    1.0216    2.1767 O   0  0  0  0  0  0  0  0  0  0  0  0
   -2.1124    3.4765    1.7171 C   0  0  0  0  0  0  0  0  0  0  0  0
   -3.1331    1.9695    3.6908 H   0  0  0  0  0  0  0  0  0  0  0  0
   -2.9253    1.5413    1.2115 H   0  0  0  0  0  0  0  0  0  0  0  0
   -1.3133    3.9138    2.3268 H   0  0  0  0  0  0  0  0  0  0  0  0
   -1.9529    3.7988    0.6829 H   0  0  0  0  0  0  0  0  0  0  0  0
   -3.0626    3.8977    2.0629 H   0  0  0  0  0  0  0  0  0  0  0  0
   -0.6635    1.3313    0.0020 N   0  0  0  0  0  0  0  0  0  0  0  0
    0.5138    0.8305   -0.6617 C   0  0  2  0  0  0  0  0  0  0  0  0
    1.4566    2.0120   -0.8601 C   0  0  0  0  0  0  0  0  0  0  0  0
    2.6674    1.9427   -0.6603 O   0  0  0  0  0  0  0  0  0  0  0  0
    0.1853    0.1785   -2.0097 C   0  0  0  0  0  0  0  0  0  0  0  0
   -0.6795   -1.0503   -1.8684 C   0  0  0  0  0  0  0  0  0  0  0  0
   -0.1469   -2.2306   -1.4137 N   0  0  0  0  0  0  0  0  0  0  0  0
   -2.0195   -1.1843   -2.1456 C   0  0  0  0  0  0  0  0  0  0  0  0
   -1.1547   -3.0747   -1.4141 C   0  0  0  0  0  0  0  0  0  0  0  0
   -2.3093   -2.4866   -1.8501 N   0  0  0  0  0  0  0  0  0  0  0  0
   -1.4467    1.6280   -0.5753 H   0  0  0  0  0  0  0  0  0  0  0  0
    0.9777    0.1125    0.0248 H   0  0  0  0  0  0  0  0  0  0  0  0
    1.1104   -0.0801   -2.5426 H   0  0  0  0  0  0  0  0  0  0  0  0
   -0.3341    0.8911   -2.6640 H   0  0  0  0  0  0  0  0  0  0  0  0
   -2.7694   -0.4989   -2.5136 H   0  0  0  0  0  0  0  0  0  0  0  0
   -1.1163   -4.1124   -1.1143 H   0  0  0  0  0  0  0  0  0  0  0  0
   -3.2124   -2.9334   -1.9370 H   0  0  0  0  0  0  0  0  0  0  0  0
    0.7909    3.1341   -1.3336 N   0  0  0  0  0  0  0  0  0  0  0  0
    1.4534    4.3842   -1.6286 C   0  0  2  0  0  0  0  0  0  0  0  0
    2.3103    4.7576   -0.4262 C   0  0  0  0  0  0  0  0  0  0  0  0
    2.0997    4.3292    0.7066 O   0  0  0  0  0  0  0  0  0  0  0  0
    0.4490    5.4822   -1.9422 C   0  0  0  0  0  0  0  0  0  0  0  0
   -0.2124    3.0736   -1.4801 H   0  0  0  0  0  0  0  0  0  0  0  0
    2.0984    4.2034   -2.4954 H   0  0  0  0  0  0  0  0  0  0  0  0
   -0.2061    5.6773   -1.0853 H   0  0  0  0  0  0  0  0  0  0  0  0
    0.9532    6.4212   -2.1934 H   0  0  0  0  0  0  0  0  0  0  0  0
   -0.1862    5.1992   -2.7885 H   0  0  0  0  0  0  0  0  0  0  0  0
    3.3117    5.6592   -0.7587 N   0  0  0  0  0  0  0  0  0  0  0  0
    4.2489    6.1760    0.2110 C   0  0  0  0  0  0  0  0  0  0  0  0
    3.4246    5.9459   -1.7266 H   0  0  0  0  0  0  0  0  0  0  0  0
    3.8653    7.1198    0.6257 H   0  0  0  0  0  0  0  0  0  0  0  0
    4.3775    5.4446    1.0225 H   0  0  0  0  0  0  0  0  0  0  0  0
    5.2183    6.3570   -0.2764 H   0  0  0  0  0  0  0  0  0  0  0  0
 22 24  2  0  0  0  0
 24 26  1  0  0  0  0
 23 25  2  0  0  0  0
 25 26  1  0  0  0  0
 21 22  1  0  0  0  0
 22 23  1  0  0  0  0
  1  3  1  0  0  0  0
  1  7  1  0  0  0  0
  1  2  2  0  0  0  0
 35 36  1  0  0  0  0
 36 44  1  0  0  0  0
 36 37  2  0  0  0  0
  8  9  1  0  0  0  0
  9 17  1  0  0  0  0
  9 10  2  0  0  0  0
 18 19  1  0  0  0  0
 19 34  1  0  0  0  0
 19 20  2  0  0  0  0
 35 38  1  0  0  0  0
  8 11  1  0  0  0  0
 44 45  1  0  0  0  0
 18 21  1  0  0  0  0
 34 35  1  0  0  0  0
  7  8  1  0  0  0  0
 17 18  1  0  0  0  0
 24 31  1  0  0  0  0
 25 32  1  0  0  0  0
  3  4  1  0  0  0  0
  3  5  1  0  0  0  0
  3  6  1  0  0  0  0
 38 41  1  0  0  0  0
 38 42  1  0  0  0  0
 38 43  1  0  0  0  0
 11 14  1  0  0  0  0
 11 15  1  0  0  0  0
 11 16  1  0  0  0  0
 45 47  1  0  0  0  0
 45 48  1  0  0  0  0
 45 49  1  0  0  0  0
 21 29  1  0  0  0  0
 21 30  1  0  0  0  0
 35 40  1  0  0  0  0
  8 13  1  0  0  0  0
 18 28  1  0  0  0  0
 26 33  1  0  0  0  0
 44 46  1  0  0  0  0
  7 12  1  0  0  0  0
 34 39  1  0  0  0  0
 17 27  1  0  0  0  0
M  END
$$$$

  -OEChem-05262214473D

 49 49  0     1  0  0  0  0  0999 V2000
   -1.6183    0.5613    3.8201 C   0  0  0  0  0  0  0  0  0  0  0  0
   -0.6710   -0.0534    3.3444 O   0  0  0  0  0  0  0  0  0  0  0  0
   -2.0502    0.2789    5.2208 C   0  0  0  0  0  0  0  0  0  0  0  0
   -2.8099   -0.5175    5.2742 H   0  0  0  0  0  0  0  0  0  0  0  0
   -1.2190   -0.0687    5.8551 H   0  0  0  0  0  0  0  0  0  0  0  0
   -2.4882    1.1338    5.7604 H   0  0  0  0  0  0  0  0  0  0  0  0
   -2.3680    1.5337    3.1790 N   0  0  0  0  0  0  0  0  0  0  0  0
   -2.1212    1.9597    1.8266 C   0  0  2  0  0  0  0  0  0  0  0  0
   -0.7862    1.3744    1.3854 C   0  0  0  0  0  0  0  0  0  0  0  0
    0.0859    1.0216    2.1767 O   0  0  0  0  0  0  0  0  0  0  0  0
   -2.1124    3.4765    1.7171 C   0  0  0  0  0  0  0  0  0  0  0  0
   -3.1331    1.9695    3.6908 H   0  0  0  0  0  0  0  0  0  0  0  0
   -2.9253    1.5413    1.2115 H   0  0  0  0  0  0  0  0  0  0  0  0
   -1.3133    3.9138    2.3268 H   0  0  0  0  0  0  0  0  0  0  0  0
   -1.9529    3.7988    0.6829 H   0  0  0  0  0  0  0  0  0  0  0  0
   -3.0626    3.8977    2.0629 H   0  0  0  0  0  0  0  0  0  0  0  0
   -0.6635    1.3313    0.0020 N   0  0  0  0  0  0  0  0  0  0  0  0
    0.5138    0.8305   -0.6617 C   0  0  2  0  0  0  0  0  0  0  0  0
    1.4566    2.0120   -0.8601 C   0  0  0  0  0  0  0  0  0  0  0  0
    2.6780    1.8899   -0.9241 O   0  0  0  0  0  0  0  0  0  0  0  0
    0.1853    0.1785   -2.0097 C   0  0  0  0  0  0  0  0  0  0  0  0
   -0.6795   -1.0503   -1.8684 C   0  0  0  0  0  0  0  0  0  0  0  0
   -0.1469   -2.2306   -1.4137 N   0  0  0  0  0  0  0  0  0  0  0  0
   -2.0195   -1.1843   -2.1456 C   0  0  0  0  0  0  0  0  0  0  0  0
   -1.1547   -3.0747   -1.4141 C   0  0  0  0  0  0  0  0  0  0  0  0
   -2.3093   -2.4866   -1.8501 N   0  0  0  0  0  0  0  0  0  0  0  0
   -1.4467    1.6280   -0.5753 H   0  0  0  0  0  0  0  0  0  0  0  0
    0.9777    0.1125    0.0248 H   0  0  0  0  0  0  0  0  0  0  0  0
    1.1104   -0.0801   -2.5426 H   0  0  0  0  0  0  0  0  0  0  0  0
   -0.3341    0.8911   -2.6640 H   0  0  0  0  0  0  0  0  0  0  0  0
   -2.7694   -0.4989   -2.5136 H   0  0  0  0  0  0  0  0  0  0  0  0
   -1.1163   -4.1124   -1.1143 H   0  0  0  0  0  0  0  0  0  0  0  0
   -3.2124   -2.9334   -1.9370 H   0  0  0  0  0  0  0  0  0  0  0  0
    0.7674    3.2078   -1.0066 N   0  0  0  0  0  0  0  0  0  0  0  0
    1.4201    4.4776   -1.2307 C   0  0  2  0  0  0  0  0  0  0  0  0
    2.5155    4.6344   -0.1843 C   0  0  0  0  0  0  0  0  0  0  0  0
    2.5120    4.0303    0.8863 O   0  0  0  0  0  0  0  0  0  0  0  0
    0.4297    5.6294   -1.1576 C   0  0  0  0  0  0  0  0  0  0  0  0
   -0.2468    3.1895   -0.9537 H   0  0  0  0  0  0  0  0  0  0  0  0
    1.8710    4.4299   -2.2279 H   0  0  0  0  0  0  0  0  0  0  0  0
   -0.0323    5.6931   -0.1656 H   0  0  0  0  0  0  0  0  0  0  0  0
    0.9206    6.5879   -1.3558 H   0  0  0  0  0  0  0  0  0  0  0  0
   -0.3737    5.4996   -1.8907 H   0  0  0  0  0  0  0  0  0  0  0  0
    3.4751    5.5607   -0.5680 N   0  0  0  0  0  0  0  0  0  0  0  0
    4.6104    5.8957    0.2596 C   0  0  0  0  0  0  0  0  0  0  0  0
    3.4086    5.9999   -1.4815 H   0  0  0  0  0  0  0  0  0  0  0  0
    4.3640    6.7656    0.8862 H   0  0  0  0  0  0  0  0  0  0  0  0
    4.8602    5.0393    0.9032 H   0  0  0  0  0  0  0  0  0  0  0  0
    5.4719    6.1371   -0.3803 H   0  0  0  0  0  0  0  0  0  0  0  0
 22 24  2  0  0  0  0
 24 26  1  0  0  0  0
 23 25  2  0  0  0  0
 25 26  1  0  0  0  0
 21 22  1  0  0  0  0
 22 23  1  0  0  0  0
  1  3  1  0  0  0  0
  1  7  1  0  0  0  0
  1  2  2  0  0  0  0
 35 36  1  0  0  0  0
 36 44  1  0  0  0  0
 36 37  2  0  0  0  0
  8  9  1  0  0  0  0
  9 17  1  0  0  0  0
  9 10  2  0  0  0  0
 18 19  1  0  0  0  0
 19 34  1  0  0  0  0
 19 20  2  0  0  0  0
 35 38  1  0  0  0  0
  8 11  1  0  0  0  0
 44 45  1  0  0  0  0
 18 21  1  0  0  0  0
 34 35  1  0  0  0  0
  7  8  1  0  0  0  0
 17 18  1  0  0  0  0
 24 31  1  0  0  0  0
 25 32  1  0  0  0  0
  3  4  1  0  0  0  0
  3  5  1  0  0  0  0
  3  6  1  0  0  0  0
 38 41  1  0  0  0  0
 38 42  1  0  0  0  0
 38 43  1  0  0  0  0
 11 14  1  0  0  0  0
 11 15  1  0  0  0  0
 11 16  1  0  0  0  0
 45 47  1  0  0  0  0
 45 48  1  0  0  0  0
 45 49  1  0  0  0  0
 21 29  1  0  0  0  0
 21 30  1  0  0  0  0
 35 40  1  0  0  0  0
  8 13  1  0  0  0  0
 18 28  1  0  0  0  0
 26 33  1  0  0  0  0
 44 46  1  0  0  0  0
  7 12  1  0  0  0  0
 34 39  1  0  0  0  0
 17 27  1  0  0  0  0
M  END
$$$$

  -OEChem-05262214473D

 49 49  0     1  0  0  0  0  0999 V2000
   -1.6183    0.5613    3.8201 C   0  0  0  0  0  0  0  0  0  0  0  0
   -0.6710   -0.0534    3.3444 O   0  0  0  0  0  0  0  0  0  0  0  0
   -2.0502    0.2789    5.2208 C   0  0  0  0  0  0  0  0  0  0  0  0
   -2.8099   -0.5175    5.2742 H   0  0  0  0  0  0  0  0  0  0  0  0
   -1.2190   -0.0687    5.8551 H   0  0  0  0  0  0  0  0  0  0  0  0
   -2.4882    1.1338    5.7604 H   0  0  0  0  0  0  0  0  0  0  0  0
   -2.3680    1.5337    3.1790 N   0  0  0  0  0  0  0  0  0  0  0  0
   -2.1212    1.9597    1.8266 C   0  0  2  0  0  0  0  0  0  0  0  0
   -0.7862    1.3744    1.3854 C   0  0  0  0  0  0  0  0  0  0  0  0
    0.0859    1.0216    2.1767 O   0  0  0  0  0  0  0  0  0  0  0  0
   -2.1124    3.4765    1.7171 C   0  0  0  0  0  0  0  0  0  0  0  0
   -3.1331    1.9695    3.6908 H   0  0  0  0  0  0  0  0  0  0  0  0
   -2.9253    1.5413    1.2115 H   0  0  0  0  0  0  0  0  0  0  0  0
   -1.3133    3.9138    2.3268 H   0  0  0  0  0  0  0  0  0  0  0  0
   -1.9529    3.7988    0.6829 H   0  0  0  0  0  0  0  0  0  0  0  0
   -3.0626    3.8977    2.0629 H   0  0  0  0  0  0  0  0  0  0  0  0
   -0.6635    1.3313    0.0020 N   0  0  0  0  0  0  0  0  0  0  0  0
    0.5138    0.8305   -0.6617 C   0  0  2  0  0  0  0  0  0  0  0  0
    1.4566    2.0120   -0.8601 C   0  0  0  0  0  0  0  0  0  0  0  0
    2.6335    1.8808   -1.1894 O   0  0  0  0  0  0  0  0  0  0  0  0
    0.1853    0.1785   -2.0097 C   0  0  0  0  0  0  0  0  0  0  0  0
   -0.6795   -1.0503   -1.8684 C   0  0  0  0  0  0  0  0  0  0  0  0
   -0.1469   -2.2306   -1.4137 N   0  0  0  0  0  0  0  0  0  0  0  0
   -2.0195   -1.1843   -2.1456 C   0  0  0  0  0  0  0  0  0  0  0  0
   -1.1547   -3.0747   -1.4141 C   0  0  0  0  0  0  0  0  0  0  0  0
   -2.3093   -2.4866   -1.8501 N   0  0  0  0  0  0  0  0  0  0  0  0
   -1.4467    1.6280   -0.5753 H   0  0  0  0  0  0  0  0  0  0  0  0
    0.9777    0.1125    0.0248 H   0  0  0  0  0  0  0  0  0  0  0  0
    1.1104   -0.0801   -2.5426 H   0  0  0  0  0  0  0  0  0  0  0  0
   -0.3341    0.8911   -2.6640 H   0  0  0  0  0  0  0  0  0  0  0  0
   -2.7694   -0.4989   -2.5136 H   0  0  0  0  0  0  0  0  0  0  0  0
   -1.1163   -4.1124   -1.1143 H   0  0  0  0  0  0  0  0  0  0  0  0
   -3.2124   -2.9334   -1.9370 H   0  0  0  0  0  0  0  0  0  0  0  0
    0.8127    3.2274   -0.6743 N   0  0  0  0  0  0  0  0  0  0  0  0
    1.4709    4.5053   -0.8246 C   0  0  2  0  0  0  0  0  0  0  0  0
    2.7581    4.4698   -0.0115 C   0  0  0  0  0  0  0  0  0  0  0  0
    2.9362    3.6990    0.9293 O   0  0  0  0  0  0  0  0  0  0  0  0
    0.5734    5.6466   -0.3722 C   0  0  0  0  0  0  0  0  0  0  0  0
   -0.1706    3.2184   -0.4197 H   0  0  0  0  0  0  0  0  0  0  0  0
    1.7126    4.6134   -1.8876 H   0  0  0  0  0  0  0  0  0  0  0  0
    0.3206    5.5553    0.6904 H   0  0  0  0  0  0  0  0  0  0  0  0
    1.0627    6.6160   -0.5135 H   0  0  0  0  0  0  0  0  0  0  0  0
   -0.3646    5.6524   -0.9378 H   0  0  0  0  0  0  0  0  0  0  0  0
    3.6679    5.4297   -0.4324 N   0  0  0  0  0  0  0  0  0  0  0  0
    4.9598    5.6051    0.1891 C   0  0  0  0  0  0  0  0  0  0  0  0
    3.4440    6.0133   -1.2330 H   0  0  0  0  0  0  0  0  0  0  0  0
    4.8861    6.3649    0.9811 H   0  0  0  0  0  0  0  0  0  0  0  0
    5.2888    4.6508    0.6263 H   0  0  0  0  0  0  0  0  0  0  0  0
    5.6887    5.9328   -0.5667 H   0  0  0  0  0  0  0  0  0  0  0  0
 22 24  2  0  0  0  0
 24 26  1  0  0  0  0
 23 25  2  0  0  0  0
 25 26  1  0  0  0  0
 21 22  1  0  0  0  0
 22 23  1  0  0  0  0
  1  3  1  0  0  0  0
  1  7  1  0  0  0  0
  1  2  2  0  0  0  0
 35 36  1  0  0  0  0
 36 44  1  0  0  0  0
 36 37  2  0  0  0  0
  8  9  1  0  0  0  0
  9 17  1  0  0  0  0
  9 10  2  0  0  0  0
 18 19  1  0  0  0  0
 19 34  1  0  0  0  0
 19 20  2  0  0  0  0
 35 38  1  0  0  0  0
  8 11  1  0  0  0  0
 44 45  1  0  0  0  0
 18 21  1  0  0  0  0
 34 35  1  0  0  0  0
  7  8  1  0  0  0  0
 17 18  1  0  0  0  0
 24 31  1  0  0  0  0
 25 32  1  0  0  0  0
  3  4  1  0  0  0  0
  3  5  1  0  0  0  0
  3  6  1  0  0  0  0
 38 41  1  0  0  0  0
 38 42  1  0  0  0  0
 38 43  1  0  0  0  0
 11 14  1  0  0  0  0
 11 15  1  0  0  0  0
 11 16  1  0  0  0  0
 45 47  1  0  0  0  0
 45 48  1  0  0  0  0
 45 49  1  0  0  0  0
 21 29  1  0  0  0  0
 21 30  1  0  0  0  0
 35 40  1  0  0  0  0
  8 13  1  0  0  0  0
 18 28  1  0  0  0  0
 26 33  1  0  0  0  0
 44 46  1  0  0  0  0
  7 12  1  0  0  0  0
 34 39  1  0  0  0  0
 17 27  1  0  0  0  0
M  END
$$$$

  -OEChem-05262214473D

 49 49  0     1  0  0  0  0  0999 V2000
   -1.6183    0.5613    3.8201 C   0  0  0  0  0  0  0  0  0  0  0  0
   -0.6710   -0.0534    3.3444 O   0  0  0  0  0  0  0  0  0  0  0  0
   -2.0502    0.2789    5.2208 C   0  0  0  0  0  0  0  0  0  0  0  0
   -2.8099   -0.5175    5.2742 H   0  0  0  0  0  0  0  0  0  0  0  0
   -1.2190   -0.0687    5.8551 H   0  0  0  0  0  0  0  0  0  0  0  0
   -2.4882    1.1338    5.7604 H   0  0  0  0  0  0  0  0  0  0  0  0
   -2.3680    1.5337    3.1790 N   0  0  0  0  0  0  0  0  0  0  0  0
   -2.1212    1.9597    1.8266 C   0  0  2  0  0  0  0  0  0  0  0  0
   -0.7862    1.3744    1.3854 C   0  0  0  0  0  0  0  0  0  0  0  0
    0.0859    1.0216    2.1767 O   0  0  0  0  0  0  0  0  0  0  0  0
   -2.1124    3.4765    1.7171 C   0  0  0  0  0  0  0  0  0  0  0  0
   -3.1331    1.9695    3.6908 H   0  0  0  0  0  0  0  0  0  0  0  0
   -2.9253    1.5413    1.2115 H   0  0  0  0  0  0  0  0  0  0  0  0
   -1.3133    3.9138    2.3268 H   0  0  0  0  0  0  0  0  0  0  0  0
   -1.9529    3.7988    0.6829 H   0  0  0  0  0  0  0  0  0  0  0  0
   -3.0626    3.8977    2.0629 H   0  0  0  0  0  0  0  0  0  0  0  0
   -0.6635    1.3313    0.0020 N   0  0  0  0  0  0  0  0  0  0  0  0
    0.5138    0.8305   -0.6617 C   0  0  2  0  0  0  0  0  0  0  0  0
    1.4566    2.0120   -0.8601 C   0  0  0  0  0  0  0  0  0  0  0  0
    2.5371    1.9160   -1.4382 O   0  0  0  0  0  0  0  0  0  0  0  0
    0.1853    0.1785   -2.0097 C   0  0  0  0  0  0  0  0  0  0  0  0
   -0.6795   -1.0503   -1.8684 C   0  0  0  0  0  0  0  0  0  0  0  0
   -0.1469   -2.2306   -1.4137 N   0  0  0  0  0  0  0  0  0  0  0  0
   -2.0195   -1.1843   -2.1456 C   0  0  0  0  0  0  0  0  0  0  0  0
   -1.1547   -3.0747   -1.4141 C   0  0  0  0  0  0  0  0  0  0  0  0
   -2.3093   -2.4866   -1.8501 N   0  0  0  0  0  0  0  0  0  0  0  0
   -1.4467    1.6280   -0.5753 H   0  0  0  0  0  0  0  0  0  0  0  0
    0.9777    0.1125    0.0248 H   0  0  0  0  0  0  0  0  0  0  0  0
    1.1104   -0.0801   -2.5426 H   0  0  0  0  0  0  0  0  0  0  0  0
   -0.3341    0.8911   -2.6640 H   0  0  0  0  0  0  0  0  0  0  0  0
   -2.7694   -0.4989   -2.5136 H   0  0  0  0  0  0  0  0  0  0  0  0
   -1.1163   -4.1124   -1.1143 H   0  0  0  0  0  0  0  0  0  0  0  0
   -3.2124   -2.9334   -1.9370 H   0  0  0  0  0  0  0  0  0  0  0  0
    0.9238    3.1917   -0.3592 N   0  0  0  0  0  0  0  0  0  0  0  0
    1.6023    4.4653   -0.4382 C   0  0  2  0  0  0  0  0  0  0  0  0
    3.0216    4.2751    0.0804 C   0  0  0  0  0  0  0  0  0  0  0  0
    3.3435    3.3578    0.8328 O   0  0  0  0  0  0  0  0  0  0  0  0
    0.8703    5.5327    0.3602 C   0  0  0  0  0  0  0  0  0  0  0  0
    0.0111    3.1582    0.0853 H   0  0  0  0  0  0  0  0  0  0  0  0
    1.6340    4.7415   -1.4978 H   0  0  0  0  0  0  0  0  0  0  0  0
    0.8285    5.2733    1.4244 H   0  0  0  0  0  0  0  0  0  0  0  0
    1.3699    6.5035    0.2761 H   0  0  0  0  0  0  0  0  0  0  0  0
   -0.1596    5.6472    0.0053 H   0  0  0  0  0  0  0  0  0  0  0  0
    3.8770    5.2748   -0.3611 N   0  0  0  0  0  0  0  0  0  0  0  0
    5.2734    5.3238    0.0045 C   0  0  0  0  0  0  0  0  0  0  0  0
    3.5286    5.9853   -0.9979 H   0  0  0  0  0  0  0  0  0  0  0  0
    5.3959    5.9451    0.9039 H   0  0  0  0  0  0  0  0  0  0  0  0
    5.6342    4.3053    0.2106 H   0  0  0  0  0  0  0  0  0  0  0  0
    5.8538    5.7580   -0.8229 H   0  0  0  0  0  0  0  0  0  0  0  0
 22 24  2  0  0  0  0
 24 26  1  0  0  0  0
 23 25  2  0  0  0  0
 25 26  1  0  0  0  0
 21 22  1  0  0  0  0
 22 23  1  0  0  0  0
  1  3  1  0  0  0  0
  1  7  1  0  0  0  0
  1  2  2  0  0  0  0
 35 36  1  0  0  0  0
 36 44  1  0  0  0  0
 36 37  2  0  0  0  0
  8  9  1  0  0  0  0
  9 17  1  0  0  0  0
  9 10  2  0  0  0  0
 18 19  1  0  0  0  0
 19 34  1  0  0  0  0
 19 20  2  0  0  0  0
 35 38  1  0  0  0  0
  8 11  1  0  0  0  0
 44 45  1  0  0  0  0
 18 21  1  0  0  0  0
 34 35  1  0  0  0  0
  7  8  1  0  0  0  0
 17 18  1  0  0  0  0
 24 31  1  0  0  0  0
 25 32  1  0  0  0  0
  3  4  1  0  0  0  0
  3  5  1  0  0  0  0
  3  6  1  0  0  0  0
 38 41  1  0  0  0  0
 38 42  1  0  0  0  0
 38 43  1  0  0  0  0
 11 14  1  0  0  0  0
 11 15  1  0  0  0  0
 11 16  1  0  0  0  0
 45 47  1  0  0  0  0
 45 48  1  0  0  0  0
 45 49  1  0  0  0  0
 21 29  1  0  0  0  0
 21 30  1  0  0  0  0
 35 40  1  0  0  0  0
  8 13  1  0  0  0  0
 18 28  1  0  0  0  0
 26 33  1  0  0  0  0
 44 46  1  0  0  0  0
  7 12  1  0  0  0  0
 34 39  1  0  0  0  0
 17 27  1  0  0  0  0
M  END
$$$$

  -OEChem-05262214473D

 49 49  0     1  0  0  0  0  0999 V2000
   -1.6183    0.5613    3.8201 C   0  0  0  0  0  0  0  0  0  0  0  0
   -0.6710   -0.0534    3.3444 O   0  0  0  0  0  0  0  0  0  0  0  0
   -2.0502    0.2789    5.2208 C   0  0  0  0  0  0  0  0  0  0  0  0
   -2.8099   -0.5175    5.2742 H   0  0  0  0  0  0  0  0  0  0  0  0
   -1.2190   -0.0687    5.8551 H   0  0  0  0  0  0  0  0  0  0  0  0
   -2.4882    1.1338    5.7604 H   0  0  0  0  0  0  0  0  0  0  0  0
   -2.3680    1.5337    3.1790 N   0  0  0  0  0  0  0  0  0  0  0  0
   -2.1212    1.9597    1.8266 C   0  0  2  0  0  0  0  0  0  0  0  0
   -0.7862    1.3744    1.3854 C   0  0  0  0  0  0  0  0  0  0  0  0
    0.0859    1.0216    2.1767 O   0  0  0  0  0  0  0  0  0  0  0  0
   -2.1124    3.4765    1.7171 C   0  0  0  0  0  0  0  0  0  0  0  0
   -3.1331    1.9695    3.6908 H   0  0  0  0  0  0  0  0  0  0  0  0
   -2.9253    1.5413    1.2115 H   0  0  0  0  0  0  0  0  0  0  0  0
   -1.3133    3.9138    2.3268 H   0  0  0  0  0  0  0  0  0  0  0  0
   -1.9529    3.7988    0.6829 H   0  0  0  0  0  0  0  0  0  0  0  0
   -3.0626    3.8977    2.0629 H   0  0  0  0  0  0  0  0  0  0  0  0
   -0.6635    1.3313    0.0020 N   0  0  0  0  0  0  0  0  0  0  0  0
    0.5138    0.8305   -0.6617 C   0  0  2  0  0  0  0  0  0  0  0  0
    1.4566    2.0120   -0.8601 C   0  0  0  0  0  0  0  0  0  0  0  0
    2.3952    1.9931   -1.6536 O   0  0  0  0  0  0  0  0  0  0  0  0
    0.1853    0.1785   -2.0097 C   0  0  0  0  0  0  0  0  0  0  0  0
   -0.6795   -1.0503   -1.8684 C   0  0  0  0  0  0  0  0  0  0  0  0
   -0.1469   -2.2306   -1.4137 N   0  0  0  0  0  0  0  0  0  0  0  0
   -2.0195   -1.1843   -2.1456 C   0  0  0  0  0  0  0  0  0  0  0  0
   -1.1547   -3.0747   -1.4141 C   0  0  0  0  0  0  0  0  0  0  0  0
   -2.3093   -2.4866   -1.8501 N   0  0  0  0  0  0  0  0  0  0  0  0
   -1.4467    1.6280   -0.5753 H   0  0  0  0  0  0  0  0  0  0  0  0
    0.9777    0.1125    0.0248 H   0  0  0  0  0  0  0  0  0  0  0  0
    1.1104   -0.0801   -2.5426 H   0  0  0  0  0  0  0  0  0  0  0  0
   -0.3341    0.8911   -2.6640 H   0  0  0  0  0  0  0  0  0  0  0  0
   -2.7694   -0.4989   -2.5136 H   0  0  0  0  0  0  0  0  0  0  0  0
   -1.1163   -4.1124   -1.1143 H   0  0  0  0  0  0  0  0  0  0  0  0
   -3.2124   -2.9334   -1.9370 H   0  0  0  0  0  0  0  0  0  0  0  0
    1.0931    3.1030   -0.0829 N   0  0  0  0  0  0  0  0  0  0  0  0
    1.8054    4.3604   -0.0977 C   0  0  2  0  0  0  0  0  0  0  0  0
    3.2879    4.0633    0.0852 C   0  0  0  0  0  0  0  0  0  0  0  0
    3.7060    3.0299    0.6032 O   0  0  0  0  0  0  0  0  0  0  0  0
    1.3002    5.2954    0.9900 C   0  0  0  0  0  0  0  0  0  0  0  0
    0.2859    3.0131    0.5271 H   0  0  0  0  0  0  0  0  0  0  0  0
    1.6407    4.8056   -1.0850 H   0  0  0  0  0  0  0  0  0  0  0  0
    1.4568    4.8663    1.9864 H   0  0  0  0  0  0  0  0  0  0  0  0
    1.8211    6.2581    0.9592 H   0  0  0  0  0  0  0  0  0  0  0  0
    0.2275    5.4843    0.8743 H   0  0  0  0  0  0  0  0  0  0  0  0
    4.0880    5.1068   -0.3589 N   0  0  0  0  0  0  0  0  0  0  0  0
    5.5298    5.0711   -0.2818 C   0  0  0  0  0  0  0  0  0  0  0  0
    3.6565    5.9178   -0.7922 H   0  0  0  0  0  0  0  0  0  0  0  0
    5.8588    5.5348    0.6599 H   0  0  0  0  0  0  0  0  0  0  0  0
    5.8729    4.0265   -0.3155 H   0  0  0  0  0  0  0  0  0  0  0  0
    5.9561    5.6246   -1.1315 H   0  0  0  0  0  0  0  0  0  0  0  0
 22 24  2  0  0  0  0
 24 26  1  0  0  0  0
 23 25  2  0  0  0  0
 25 26  1  0  0  0  0
 21 22  1  0  0  0  0
 22 23  1  0  0  0  0
  1  3  1  0  0  0  0
  1  7  1  0  0  0  0
  1  2  2  0  0  0  0
 35 36  1  0  0  0  0
 36 44  1  0  0  0  0
 36 37  2  0  0  0  0
  8  9  1  0  0  0  0
  9 17  1  0  0  0  0
  9 10  2  0  0  0  0
 18 19  1  0  0  0  0
 19 34  1  0  0  0  0
 19 20  2  0  0  0  0
 35 38  1  0  0  0  0
  8 11  1  0  0  0  0
 44 45  1  0  0  0  0
 18 21  1  0  0  0  0
 34 35  1  0  0  0  0
  7  8  1  0  0  0  0
 17 18  1  0  0  0  0
 24 31  1  0  0  0  0
 25 32  1  0  0  0  0
  3  4  1  0  0  0  0
  3  5  1  0  0  0  0
  3  6  1  0  0  0  0
 38 41  1  0  0  0  0
 38 42  1  0  0  0  0
 38 43  1  0  0  0  0
 11 14  1  0  0  0  0
 11 15  1  0  0  0  0
 11 16  1  0  0  0  0
 45 47  1  0  0  0  0
 45 48  1  0  0  0  0
 45 49  1  0  0  0  0
 21 29  1  0  0  0  0
 21 30  1  0  0  0  0
 35 40  1  0  0  0  0
  8 13  1  0  0  0  0
 18 28  1  0  0  0  0
 26 33  1  0  0  0  0
 44 46  1  0  0  0  0
  7 12  1  0  0  0  0
 34 39  1  0  0  0  0
 17 27  1  0  0  0  0
M  END
$$$$

  -OEChem-05262214473D

 49 49  0     1  0  0  0  0  0999 V2000
   -1.6183    0.5613    3.8201 C   0  0  0  0  0  0  0  0  0  0  0  0
   -0.6710   -0.0534    3.3444 O   0  0  0  0  0  0  0  0  0  0  0  0
   -2.0502    0.2789    5.2208 C   0  0  0  0  0  0  0  0  0  0  0  0
   -2.8099   -0.5175    5.2742 H   0  0  0  0  0  0  0  0  0  0  0  0
   -1.2190   -0.0687    5.8551 H   0  0  0  0  0  0  0  0  0  0  0  0
   -2.4882    1.1338    5.7604 H   0  0  0  0  0  0  0  0  0  0  0  0
   -2.3680    1.5337    3.1790 N   0  0  0  0  0  0  0  0  0  0  0  0
   -2.1212    1.9597    1.8266 C   0  0  2  0  0  0  0  0  0  0  0  0
   -0.7862    1.3744    1.3854 C   0  0  0  0  0  0  0  0  0  0  0  0
    0.0859    1.0216    2.1767 O   0  0  0  0  0  0  0  0  0  0  0  0
   -2.1124    3.4765    1.7171 C   0  0  0  0  0  0  0  0  0  0  0  0
   -3.1331    1.9695    3.6908 H   0  0  0  0  0  0  0  0  0  0  0  0
   -2.9253    1.5413    1.2115 H   0  0  0  0  0  0  0  0  0  0  0  0
   -1.3133    3.9138    2.3268 H   0  0  0  0  0  0  0  0  0  0  0  0
   -1.9529    3.7988    0.6829 H   0  0  0  0  0  0  0  0  0  0  0  0
   -3.0626    3.8977    2.0629 H   0  0  0  0  0  0  0  0  0  0  0  0
   -0.6635    1.3313    0.0020 N   0  0  0  0  0  0  0  0  0  0  0  0
    0.5138    0.8305   -0.6617 C   0  0  2  0  0  0  0  0  0  0  0  0
    1.4566    2.0120   -0.8601 C   0  0  0  0  0  0  0  0  0  0  0  0
    2.2175    2.1068   -1.8208 O   0  0  0  0  0  0  0  0  0  0  0  0
    0.1853    0.1785   -2.0097 C   0  0  0  0  0  0  0  0  0  0  0  0
   -0.6795   -1.0503   -1.8684 C   0  0  0  0  0  0  0  0  0  0  0  0
   -0.1469   -2.2306   -1.4137 N   0  0  0  0  0  0  0  0  0  0  0  0
   -2.0195   -1.1843   -2.1456 C   0  0  0  0  0  0  0  0  0  0  0  0
   -1.1547   -3.0747   -1.4141 C   0  0  0  0  0  0  0  0  0  0  0  0
   -2.3093   -2.4866   -1.8501 N   0  0  0  0  0  0  0  0  0  0  0  0
   -1.4467    1.6280   -0.5753 H   0  0  0  0  0  0  0  0  0  0  0  0
    0.9777    0.1125    0.0248 H   0  0  0  0  0  0  0  0  0  0  0  0
    1.1104   -0.0801   -2.5426 H   0  0  0  0  0  0  0  0  0  0  0  0
   -0.3341    0.8911   -2.6640 H   0  0  0  0  0  0  0  0  0  0  0  0
   -2.7694   -0.4989   -2.5136 H   0  0  0  0  0  0  0  0  0  0  0  0
   -1.1163   -4.1124   -1.1143 H   0  0  0  0  0  0  0  0  0  0  0  0
   -3.2124   -2.9334   -1.9370 H   0  0  0  0  0  0  0  0  0  0  0  0
    1.3091    2.9674    0.1359 N   0  0  0  0  0  0  0  0  0  0  0  0
    2.0664    4.1977    0.1736 C   0  0  2  0  0  0  0  0  0  0  0  0
    3.5390    3.8491    0.0024 C   0  0  0  0  0  0  0  0  0  0  0  0
    3.9991    2.7378    0.2562 O   0  0  0  0  0  0  0  0  0  0  0  0
    1.8338    4.9510    1.4741 C   0  0  0  0  0  0  0  0  0  0  0  0
    0.6350    2.7930    0.8754 H   0  0  0  0  0  0  0  0  0  0  0  0
    1.7320    4.8011   -0.6774 H   0  0  0  0  0  0  0  0  0  0  0  0
    2.1627    4.3621    2.3381 H   0  0  0  0  0  0  0  0  0  0  0  0
    2.3858    5.8965    1.4891 H   0  0  0  0  0  0  0  0  0  0  0  0
    0.7702    5.1748    1.6099 H   0  0  0  0  0  0  0  0  0  0  0  0
    4.2866    4.9371   -0.4259 N   0  0  0  0  0  0  0  0  0  0  0  0
    5.7115    4.8642   -0.6502 C   0  0  0  0  0  0  0  0  0  0  0  0
    3.8190    5.8154   -0.6300 H   0  0  0  0  0  0  0  0  0  0  0  0
    6.2431    5.1619    0.2656 H   0  0  0  0  0  0  0  0  0  0  0  0
    5.9885    3.8334   -0.9162 H   0  0  0  0  0  0  0  0  0  0  0  0
    5.9884    5.5417   -1.4714 H   0  0  0  0  0  0  0  0  0  0  0  0
 22 24  2  0  0  0  0
 24 26  1  0  0  0  0
 23 25  2  0  0  0  0
 25 26  1  0  0  0  0
 21 22  1  0  0  0  0
 22 23  1  0  0  0  0
  1  3  1  0  0  0  0
  1  7  1  0  0  0  0
  1  2  2  0  0  0  0
 35 36  1  0  0  0  0
 36 44  1  0  0  0  0
 36 37  2  0  0  0  0
  8  9  1  0  0  0  0
  9 17  1  0  0  0  0
  9 10  2  0  0  0  0
 18 19  1  0  0  0  0
 19 34  1  0  0  0  0
 19 20  2  0  0  0  0
 35 38  1  0  0  0  0
  8 11  1  0  0  0  0
 44 45  1  0  0  0  0
 18 21  1  0  0  0  0
 34 35  1  0  0  0  0
  7  8  1  0  0  0  0
 17 18  1  0  0  0  0
 24 31  1  0  0  0  0
 25 32  1  0  0  0  0
  3  4  1  0  0  0  0
  3  5  1  0  0  0  0
  3  6  1  0  0  0  0
 38 41  1  0  0  0  0
 38 42  1  0  0  0  0
 38 43  1  0  0  0  0
 11 14  1  0  0  0  0
 11 15  1  0  0  0  0
 11 16  1  0  0  0  0
 45 47  1  0  0  0  0
 45 48  1  0  0  0  0
 45 49  1  0  0  0  0
 21 29  1  0  0  0  0
 21 30  1  0  0  0  0
 35 40  1  0  0  0  0
  8 13  1  0  0  0  0
 18 28  1  0  0  0  0
 26 33  1  0  0  0  0
 44 46  1  0  0  0  0
  7 12  1  0  0  0  0
 34 39  1  0  0  0  0
 17 27  1  0  0  0  0
M  END
$$$$

  -OEChem-05262214473D

 49 49  0     1  0  0  0  0  0999 V2000
   -1.6183    0.5613    3.8201 C   0  0  0  0  0  0  0  0  0  0  0  0
   -0.6710   -0.0534    3.3444 O   0  0  0  0  0  0  0  0  0  0  0  0
   -2.0502    0.2789    5.2208 C   0  0  0  0  0  0  0  0  0  0  0  0
   -2.8099   -0.5175    5.2742 H   0  0  0  0  0  0  0  0  0  0  0  0
   -1.2190   -0.0687    5.8551 H   0  0  0  0  0  0  0  0  0  0  0  0
   -2.4882    1.1338    5.7604 H   0  0  0  0  0  0  0  0  0  0  0  0
   -2.3680    1.5337    3.1790 N   0  0  0  0  0  0  0  0  0  0  0  0
   -2.1212    1.9597    1.8266 C   0  0  2  0  0  0  0  0  0  0  0  0
   -0.7862    1.3744    1.3854 C   0  0  0  0  0  0  0  0  0  0  0  0
    0.0859    1.0216    2.1767 O   0  0  0  0  0  0  0  0  0  0  0  0
   -2.1124    3.4765    1.7171 C   0  0  0  0  0  0  0  0  0  0  0  0
   -3.1331    1.9695    3.6908 H   0  0  0  0  0  0  0  0  0  0  0  0
   -2.9253    1.5413    1.2115 H   0  0  0  0  0  0  0  0  0  0  0  0
   -1.3133    3.9138    2.3268 H   0  0  0  0  0  0  0  0  0  0  0  0
   -1.9529    3.7988    0.6829 H   0  0  0  0  0  0  0  0  0  0  0  0
   -3.0626    3.8977    2.0629 H   0  0  0  0  0  0  0  0  0  0  0  0
   -0.6635    1.3313    0.0020 N   0  0  0  0  0  0  0  0  0  0  0  0
    0.5138    0.8305   -0.6617 C   0  0  2  0  0  0  0  0  0  0  0  0
    1.4566    2.0120   -0.8601 C   0  0  0  0  0  0  0  0  0  0  0  0
    2.0162    2.2494   -1.9285 O   0  0  0  0  0  0  0  0  0  0  0  0
    0.1853    0.1785   -2.0097 C   0  0  0  0  0  0  0  0  0  0  0  0
   -0.6795   -1.0503   -1.8684 C   0  0  0  0  0  0  0  0  0  0  0  0
   -0.1469   -2.2306   -1.4137 N   0  0  0  0  0  0  0  0  0  0  0  0
   -2.0195   -1.1843   -2.1456 C   0  0  0  0  0  0  0  0  0  0  0  0
   -1.1547   -3.0747   -1.4141 C   0  0  0  0  0  0  0  0  0  0  0  0
   -2.3093   -2.4866   -1.8501 N   0  0  0  0  0  0  0  0  0  0  0  0
   -1.4467    1.6280   -0.5753 H   0  0  0  0  0  0  0  0  0  0  0  0
    0.9777    0.1125    0.0248 H   0  0  0  0  0  0  0  0  0  0  0  0
    1.1104   -0.0801   -2.5426 H   0  0  0  0  0  0  0  0  0  0  0  0
   -0.3341    0.8911   -2.6640 H   0  0  0  0  0  0  0  0  0  0  0  0
   -2.7694   -0.4989   -2.5136 H   0  0  0  0  0  0  0  0  0  0  0  0
   -1.1163   -4.1124   -1.1143 H   0  0  0  0  0  0  0  0  0  0  0  0
   -3.2124   -2.9334   -1.9370 H   0  0  0  0  0  0  0  0  0  0  0  0
    1.5570    2.7941    0.2821 N   0  0  0  0  0  0  0  0  0  0  0  0
    2.3674    3.9884    0.3573 C   0  0  2  0  0  0  0  0  0  0  0  0
    3.7577    3.6469   -0.1621 C   0  0  0  0  0  0  0  0  0  0  0  0
    4.2028    2.5012   -0.1844 O   0  0  0  0  0  0  0  0  0  0  0  0
    2.4346    4.5228    1.7795 C   0  0  0  0  0  0  0  0  0  0  0  0
    1.0347    2.5129    1.1067 H   0  0  0  0  0  0  0  0  0  0  0  0
    1.9019    4.7285   -0.3026 H   0  0  0  0  0  0  0  0  0  0  0  0
    2.8981    3.7949    2.4555 H   0  0  0  0  0  0  0  0  0  0  0  0
    3.0253    5.4434    1.8299 H   0  0  0  0  0  0  0  0  0  0  0  0
    1.4315    4.7398    2.1621 H   0  0  0  0  0  0  0  0  0  0  0  0
    4.4592    4.7772   -0.5578 N   0  0  0  0  0  0  0  0  0  0  0  0
    5.8061    4.7172   -1.0757 C   0  0  0  0  0  0  0  0  0  0  0  0
    4.0050    5.6850   -0.5224 H   0  0  0  0  0  0  0  0  0  0  0  0
    6.5226    4.8519   -0.2519 H   0  0  0  0  0  0  0  0  0  0  0  0
    5.9731    3.7391   -1.5504 H   0  0  0  0  0  0  0  0  0  0  0  0
    5.9487    5.5150   -1.8195 H   0  0  0  0  0  0  0  0  0  0  0  0
 22 24  2  0  0  0  0
 24 26  1  0  0  0  0
 23 25  2  0  0  0  0
 25 26  1  0  0  0  0
 21 22  1  0  0  0  0
 22 23  1  0  0  0  0
  1  3  1  0  0  0  0
  1  7  1  0  0  0  0
  1  2  2  0  0  0  0
 35 36  1  0  0  0  0
 36 44  1  0  0  0  0
 36 37  2  0  0  0  0
  8  9  1  0  0  0  0
  9 17  1  0  0  0  0
  9 10  2  0  0  0  0
 18 19  1  0  0  0  0
 19 34  1  0  0  0  0
 19 20  2  0  0  0  0
 35 38  1  0  0  0  0
  8 11  1  0  0  0  0
 44 45  1  0  0  0  0
 18 21  1  0  0  0  0
 34 35  1  0  0  0  0
  7  8  1  0  0  0  0
 17 18  1  0  0  0  0
 24 31  1  0  0  0  0
 25 32  1  0  0  0  0
  3  4  1  0  0  0  0
  3  5  1  0  0  0  0
  3  6  1  0  0  0  0
 38 41  1  0  0  0  0
 38 42  1  0  0  0  0
 38 43  1  0  0  0  0
 11 14  1  0  0  0  0
 11 15  1  0  0  0  0
 11 16  1  0  0  0  0
 45 47  1  0  0  0  0
 45 48  1  0  0  0  0
 45 49  1  0  0  0  0
 21 29  1  0  0  0  0
 21 30  1  0  0  0  0
 35 40  1  0  0  0  0
  8 13  1  0  0  0  0
 18 28  1  0  0  0  0
 26 33  1  0  0  0  0
 44 46  1  0  0  0  0
  7 12  1  0  0  0  0
 34 39  1  0  0  0  0
 17 27  1  0  0  0  0
M  END
$$$$

  -OEChem-05262214473D

 49 49  0     1  0  0  0  0  0999 V2000
   -1.6183    0.5613    3.8201 C   0  0  0  0  0  0  0  0  0  0  0  0
   -0.6710   -0.0534    3.3444 O   0  0  0  0  0  0  0  0  0  0  0  0
   -2.0502    0.2789    5.2208 C   0  0  0  0  0  0  0  0  0  0  0  0
   -2.8099   -0.5175    5.2742 H   0  0  0  0  0  0  0  0  0  0  0  0
   -1.2190   -0.0687    5.8551 H   0  0  0  0  0  0  0  0  0  0  0  0
   -2.4882    1.1338    5.7604 H   0  0  0  0  0  0  0  0  0  0  0  0
   -2.3680    1.5337    3.1790 N   0  0  0  0  0  0  0  0  0  0  0  0
   -2.1212    1.9597    1.8266 C   0  0  2  0  0  0  0  0  0  0  0  0
   -0.7862    1.3744    1.3854 C   0  0  0  0  0  0  0  0  0  0  0  0
    0.0859    1.0216    2.1767 O   0  0  0  0  0  0  0  0  0  0  0  0
   -2.1124    3.4765    1.7171 C   0  0  0  0  0  0  0  0  0  0  0  0
   -3.1331    1.9695    3.6908 H   0  0  0  0  0  0  0  0  0  0  0  0
   -2.9253    1.5413    1.2115 H   0  0  0  0  0  0  0  0  0  0  0  0
   -1.3133    3.9138    2.3268 H   0  0  0  0  0  0  0  0  0  0  0  0
   -1.9529    3.7988    0.6829 H   0  0  0  0  0  0  0  0  0  0  0  0
   -3.0626    3.8977    2.0629 H   0  0  0  0  0  0  0  0  0  0  0  0
   -0.6635    1.3313    0.0020 N   0  0  0  0  0  0  0  0  0  0  0  0
    0.5138    0.8305   -0.6617 C   0  0  2  0  0  0  0  0  0  0  0  0
    1.4566    2.0120   -0.8601 C   0  0  0  0  0  0  0  0  0  0  0  0
    1.8049    2.4111   -1.9693 O   0  0  0  0  0  0  0  0  0  0  0  0
    0.1853    0.1785   -2.0097 C   0  0  0  0  0  0  0  0  0  0  0  0
   -0.6795   -1.0503   -1.8684 C   0  0  0  0  0  0  0  0  0  0  0  0
   -0.1469   -2.2306   -1.4137 N   0  0  0  0  0  0  0  0  0  0  0  0
   -2.0195   -1.1843   -2.1456 C   0  0  0  0  0  0  0  0  0  0  0  0
   -1.1547   -3.0747   -1.4141 C   0  0  0  0  0  0  0  0  0  0  0  0
   -2.3093   -2.4866   -1.8501 N   0  0  0  0  0  0  0  0  0  0  0  0
   -1.4467    1.6280   -0.5753 H   0  0  0  0  0  0  0  0  0  0  0  0
    0.9777    0.1125    0.0248 H   0  0  0  0  0  0  0  0  0  0  0  0
    1.1104   -0.0801   -2.5426 H   0  0  0  0  0  0  0  0  0  0  0  0
   -0.3341    0.8911   -2.6640 H   0  0  0  0  0  0  0  0  0  0  0  0
   -2.7694   -0.4989   -2.5136 H   0  0  0  0  0  0  0  0  0  0  0  0
   -1.1163   -4.1124   -1.1143 H   0  0  0  0  0  0  0  0  0  0  0  0
   -3.2124   -2.9334   -1.9370 H   0  0  0  0  0  0  0  0  0  0  0  0
    1.8200    2.5949    0.3459 N   0  0  0  0  0  0  0  0  0  0  0  0
    2.6880    3.7466    0.4409 C   0  0  2  0  0  0  0  0  0  0  0  0
    3.9292    3.4706   -0.3973 C   0  0  0  0  0  0  0  0  0  0  0  0
    4.3031    2.3364   -0.6888 O   0  0  0  0  0  0  0  0  0  0  0  0
    3.0619    4.0401    1.8855 C   0  0  0  0  0  0  0  0  0  0  0  0
    1.4578    2.1918    1.2050 H   0  0  0  0  0  0  0  0  0  0  0  0
    2.1387    4.5927    0.0136 H   0  0  0  0  0  0  0  0  0  0  0  0
    3.6129    3.2036    2.3306 H   0  0  0  0  0  0  0  0  0  0  0  0
    3.6961    4.9297    1.9583 H   0  0  0  0  0  0  0  0  0  0  0  0
    2.1664    4.2090    2.4933 H   0  0  0  0  0  0  0  0  0  0  0  0
    4.5942    4.6380   -0.7453 N   0  0  0  0  0  0  0  0  0  0  0  0
    5.8073    4.6402   -1.5291 C   0  0  0  0  0  0  0  0  0  0  0  0
    4.2019    5.5356   -0.4766 H   0  0  0  0  0  0  0  0  0  0  0  0
    6.6784    4.6259   -0.8575 H   0  0  0  0  0  0  0  0  0  0  0  0
    5.8279    3.7501   -2.1751 H   0  0  0  0  0  0  0  0  0  0  0  0
    5.8396    5.5462   -2.1520 H   0  0  0  0  0  0  0  0  0  0  0  0
 22 24  2  0  0  0  0
 24 26  1  0  0  0  0
 23 25  2  0  0  0  0
 25 26  1  0  0  0  0
 21 22  1  0  0  0  0
 22 23  1  0  0  0  0
  1  3  1  0  0  0  0
  1  7  1  0  0  0  0
  1  2  2  0  0  0  0
 35 36  1  0  0  0  0
 36 44  1  0  0  0  0
 36 37  2  0  0  0  0
  8  9  1  0  0  0  0
  9 17  1  0  0  0  0
  9 10  2  0  0  0  0
 18 19  1  0  0  0  0
 19 34  1  0  0  0  0
 19 20  2  0  0  0  0
 35 38  1  0  0  0  0
  8 11  1  0  0  0  0
 44 45  1  0  0  0  0
 18 21  1  0  0  0  0
 34 35  1  0  0  0  0
  7  8  1  0  0  0  0
 17 18  1  0  0  0  0
 24 31  1  0  0  0  0
 25 32  1  0  0  0  0
  3  4  1  0  0  0  0
  3  5  1  0  0  0  0
  3  6  1  0  0  0  0
 38 41  1  0  0  0  0
 38 42  1  0  0  0  0
 38 43  1  0  0  0  0
 11 14  1  0  0  0  0
 11 15  1  0  0  0  0
 11 16  1  0  0  0  0
 45 47  1  0  0  0  0
 45 48  1  0  0  0  0
 45 49  1  0  0  0  0
 21 29  1  0  0  0  0
 21 30  1  0  0  0  0
 35 40  1  0  0  0  0
  8 13  1  0  0  0  0
 18 28  1  0  0  0  0
 26 33  1  0  0  0  0
 44 46  1  0  0  0  0
  7 12  1  0  0  0  0
 34 39  1  0  0  0  0
 17 27  1  0  0  0  0
M  END
$$$$

  -OEChem-05262214473D

 49 49  0     1  0  0  0  0  0999 V2000
   -1.6183    0.5613    3.8201 C   0  0  0  0  0  0  0  0  0  0  0  0
   -0.6710   -0.0534    3.3444 O   0  0  0  0  0  0  0  0  0  0  0  0
   -2.0502    0.2789    5.2208 C   0  0  0  0  0  0  0  0  0  0  0  0
   -2.8099   -0.5175    5.2742 H   0  0  0  0  0  0  0  0  0  0  0  0
   -1.2190   -0.0687    5.8551 H   0  0  0  0  0  0  0  0  0  0  0  0
   -2.4882    1.1338    5.7604 H   0  0  0  0  0  0  0  0  0  0  0  0
   -2.3680    1.5337    3.1790 N   0  0  0  0  0  0  0  0  0  0  0  0
   -2.1212    1.9597    1.8266 C   0  0  2  0  0  0  0  0  0  0  0  0
   -0.7862    1.3744    1.3854 C   0  0  0  0  0  0  0  0  0  0  0  0
    0.0859    1.0216    2.1767 O   0  0  0  0  0  0  0  0  0  0  0  0
   -2.1124    3.4765    1.7171 C   0  0  0  0  0  0  0  0  0  0  0  0
   -3.1331    1.9695    3.6908 H   0  0  0  0  0  0  0  0  0  0  0  0
   -2.9253    1.5413    1.2115 H   0  0  0  0  0  0  0  0  0  0  0  0
   -1.3133    3.9138    2.3268 H   0  0  0  0  0  0  0  0  0  0  0  0
   -1.9529    3.7988    0.6829 H   0  0  0  0  0  0  0  0  0  0  0  0
   -3.0626    3.8977    2.0629 H   0  0  0  0  0  0  0  0  0  0  0  0
   -0.6635    1.3313    0.0020 N   0  0  0  0  0  0  0  0  0  0  0  0
    0.5138    0.8305   -0.6617 C   0  0  2  0  0  0  0  0  0  0  0  0
    1.4566    2.0120   -0.8601 C   0  0  0  0  0  0  0  0  0  0  0  0
    1.5981    2.5810   -1.9404 O   0  0  0  0  0  0  0  0  0  0  0  0
    0.1853    0.1785   -2.0097 C   0  0  0  0  0  0  0  0  0  0  0  0
   -0.6795   -1.0503   -1.8684 C   0  0  0  0  0  0  0  0  0  0  0  0
   -0.1469   -2.2306   -1.4137 N   0  0  0  0  0  0  0  0  0  0  0  0
   -2.0195   -1.1843   -2.1456 C   0  0  0  0  0  0  0  0  0  0  0  0
   -1.1547   -3.0747   -1.4141 C   0  0  0  0  0  0  0  0  0  0  0  0
   -2.3093   -2.4866   -1.8501 N   0  0  0  0  0  0  0  0  0  0  0  0
   -1.4467    1.6280   -0.5753 H   0  0  0  0  0  0  0  0  0  0  0  0
    0.9777    0.1125    0.0248 H   0  0  0  0  0  0  0  0  0  0  0  0
    1.1104   -0.0801   -2.5426 H   0  0  0  0  0  0  0  0  0  0  0  0
   -0.3341    0.8911   -2.6640 H   0  0  0  0  0  0  0  0  0  0  0  0
   -2.7694   -0.4989   -2.5136 H   0  0  0  0  0  0  0  0  0  0  0  0
   -1.1163   -4.1124   -1.1143 H   0  0  0  0  0  0  0  0  0  0  0  0
   -3.2124   -2.9334   -1.9370 H   0  0  0  0  0  0  0  0  0  0  0  0
    2.0801    2.3835    0.3229 N   0  0  0  0  0  0  0  0  0  0  0  0
    3.0062    3.4889    0.4187 C   0  0  2  0  0  0  0  0  0  0  0  0
    4.0417    3.3321   -0.6871 C   0  0  0  0  0  0  0  0  0  0  0  0
    4.2934    2.2546   -1.2225 O   0  0  0  0  0  0  0  0  0  0  0  0
    3.6727    3.5357    1.7848 C   0  0  0  0  0  0  0  0  0  0  0  0
    1.8753    1.8517    1.1638 H   0  0  0  0  0  0  0  0  0  0  0  0
    2.4263    4.4029    0.2499 H   0  0  0  0  0  0  0  0  0  0  0  0
    4.2584    2.6282    1.9719 H   0  0  0  0  0  0  0  0  0  0  0  0
    4.3525    4.3903    1.8656 H   0  0  0  0  0  0  0  0  0  0  0  0
    2.9248    3.6185    2.5807 H   0  0  0  0  0  0  0  0  0  0  0  0
    4.6822    4.5290   -0.9758 N   0  0  0  0  0  0  0  0  0  0  0  0
    5.7149    4.6383   -1.9796 C   0  0  0  0  0  0  0  0  0  0  0  0
    4.3963    5.3773   -0.4957 H   0  0  0  0  0  0  0  0  0  0  0  0
    6.6998    4.4992   -1.5099 H   0  0  0  0  0  0  0  0  0  0  0  0
    5.5627    3.8656   -2.7476 H   0  0  0  0  0  0  0  0  0  0  0  0
    5.6685    5.6332   -2.4464 H   0  0  0  0  0  0  0  0  0  0  0  0
 22 24  2  0  0  0  0
 24 26  1  0  0  0  0
 23 25  2  0  0  0  0
 25 26  1  0  0  0  0
 21 22  1  0  0  0  0
 22 23  1  0  0  0  0
  1  3  1  0  0  0  0
  1  7  1  0  0  0  0
  1  2  2  0  0  0  0
 35 36  1  0  0  0  0
 36 44  1  0  0  0  0
 36 37  2  0  0  0  0
  8  9  1  0  0  0  0
  9 17  1  0  0  0  0
  9 10  2  0  0  0  0
 18 19  1  0  0  0  0
 19 34  1  0  0  0  0
 19 20  2  0  0  0  0
 35 38  1  0  0  0  0
  8 11  1  0  0  0  0
 44 45  1  0  0  0  0
 18 21  1  0  0  0  0
 34 35  1  0  0  0  0
  7  8  1  0  0  0  0
 17 18  1  0  0  0  0
 24 31  1  0  0  0  0
 25 32  1  0  0  0  0
  3  4  1  0  0  0  0
  3  5  1  0  0  0  0
  3  6  1  0  0  0  0
 38 41  1  0  0  0  0
 38 42  1  0  0  0  0
 38 43  1  0  0  0  0
 11 14  1  0  0  0  0
 11 15  1  0  0  0  0
 11 16  1  0  0  0  0
 45 47  1  0  0  0  0
 45 48  1  0  0  0  0
 45 49  1  0  0  0  0
 21 29  1  0  0  0  0
 21 30  1  0  0  0  0
 35 40  1  0  0  0  0
  8 13  1  0  0  0  0
 18 28  1  0  0  0  0
 26 33  1  0  0  0  0
 44 46  1  0  0  0  0
  7 12  1  0  0  0  0
 34 39  1  0  0  0  0
 17 27  1  0  0  0  0
M  END
$$$$

  -OEChem-05262214473D

 49 49  0     1  0  0  0  0  0999 V2000
   -1.6183    0.5613    3.8201 C   0  0  0  0  0  0  0  0  0  0  0  0
   -0.6710   -0.0534    3.3444 O   0  0  0  0  0  0  0  0  0  0  0  0
   -2.0502    0.2789    5.2208 C   0  0  0  0  0  0  0  0  0  0  0  0
   -2.8099   -0.5175    5.2742 H   0  0  0  0  0  0  0  0  0  0  0  0
   -1.2190   -0.0687    5.8551 H   0  0  0  0  0  0  0  0  0  0  0  0
   -2.4882    1.1338    5.7604 H   0  0  0  0  0  0  0  0  0  0  0  0
   -2.3680    1.5337    3.1790 N   0  0  0  0  0  0  0  0  0  0  0  0
   -2.1212    1.9597    1.8266 C   0  0  2  0  0  0  0  0  0  0  0  0
   -0.7862    1.3744    1.3854 C   0  0  0  0  0  0  0  0  0  0  0  0
    0.0859    1.0216    2.1767 O   0  0  0  0  0  0  0  0  0  0  0  0
   -2.1124    3.4765    1.7171 C   0  0  0  0  0  0  0  0  0  0  0  0
   -3.1331    1.9695    3.6908 H   0  0  0  0  0  0  0  0  0  0  0  0
   -2.9253    1.5413    1.2115 H   0  0  0  0  0  0  0  0  0  0  0  0
   -1.3133    3.9138    2.3268 H   0  0  0  0  0  0  0  0  0  0  0  0
   -1.9529    3.7988    0.6829 H   0  0  0  0  0  0  0  0  0  0  0  0
   -3.0626    3.8977    2.0629 H   0  0  0  0  0  0  0  0  0  0  0  0
   -0.6635    1.3313    0.0020 N   0  0  0  0  0  0  0  0  0  0  0  0
    0.5138    0.8305   -0.6617 C   0  0  2  0  0  0  0  0  0  0  0  0
    1.4566    2.0120   -0.8601 C   0  0  0  0  0  0  0  0  0  0  0  0
    1.4099    2.7474   -1.8439 O   0  0  0  0  0  0  0  0  0  0  0  0
    0.1853    0.1785   -2.0097 C   0  0  0  0  0  0  0  0  0  0  0  0
   -0.6795   -1.0503   -1.8684 C   0  0  0  0  0  0  0  0  0  0  0  0
   -0.1469   -2.2306   -1.4137 N   0  0  0  0  0  0  0  0  0  0  0  0
   -2.0195   -1.1843   -2.1456 C   0  0  0  0  0  0  0  0  0  0  0  0
   -1.1547   -3.0747   -1.4141 C   0  0  0  0  0  0  0  0  0  0  0  0
   -2.3093   -2.4866   -1.8501 N   0  0  0  0  0  0  0  0  0  0  0  0
   -1.4467    1.6280   -0.5753 H   0  0  0  0  0  0  0  0  0  0  0  0
    0.9777    0.1125    0.0248 H   0  0  0  0  0  0  0  0  0  0  0  0
    1.1104   -0.0801   -2.5426 H   0  0  0  0  0  0  0  0  0  0  0  0
   -0.3341    0.8911   -2.6640 H   0  0  0  0  0  0  0  0  0  0  0  0
   -2.7694   -0.4989   -2.5136 H   0  0  0  0  0  0  0  0  0  0  0  0
   -1.1163   -4.1124   -1.1143 H   0  0  0  0  0  0  0  0  0  0  0  0
   -3.2124   -2.9334   -1.9370 H   0  0  0  0  0  0  0  0  0  0  0  0
    2.3196    2.1742    0.2147 N   0  0  0  0  0  0  0  0  0  0  0  0
    3.3005    3.2329    0.2921 C   0  0  2  0  0  0  0  0  0  0  0  0
    4.0875    3.2410   -1.0117 C   0  0  0  0  0  0  0  0  0  0  0  0
    4.1741    2.2613   -1.7491 O   0  0  0  0  0  0  0  0  0  0  0  0
    4.2256    3.0441    1.4843 C   0  0  0  0  0  0  0  0  0  0  0  0
    2.2589    1.5157    0.9857 H   0  0  0  0  0  0  0  0  0  0  0  0
    2.7451    4.1720    0.3900 H   0  0  0  0  0  0  0  0  0  0  0  0
    4.7905    2.1082    1.4039 H   0  0  0  0  0  0  0  0  0  0  0  0
    4.9498    3.8620    1.5579 H   0  0  0  0  0  0  0  0  0  0  0  0
    3.6550    3.0086    2.4186 H   0  0  0  0  0  0  0  0  0  0  0  0
    4.7174    4.4577   -1.2335 N   0  0  0  0  0  0  0  0  0  0  0  0
    5.5351    4.7116   -2.3966 C   0  0  0  0  0  0  0  0  0  0  0  0
    4.5749    5.2208   -0.5785 H   0  0  0  0  0  0  0  0  0  0  0  0
    6.5853    4.4806   -2.1647 H   0  0  0  0  0  0  0  0  0  0  0  0
    5.1956    4.0777   -3.2289 H   0  0  0  0  0  0  0  0  0  0  0  0
    5.4472    5.7702   -2.6825 H   0  0  0  0  0  0  0  0  0  0  0  0
 22 24  2  0  0  0  0
 24 26  1  0  0  0  0
 23 25  2  0  0  0  0
 25 26  1  0  0  0  0
 21 22  1  0  0  0  0
 22 23  1  0  0  0  0
  1  3  1  0  0  0  0
  1  7  1  0  0  0  0
  1  2  2  0  0  0  0
 35 36  1  0  0  0  0
 36 44  1  0  0  0  0
 36 37  2  0  0  0  0
  8  9  1  0  0  0  0
  9 17  1  0  0  0  0
  9 10  2  0  0  0  0
 18 19  1  0  0  0  0
 19 34  1  0  0  0  0
 19 20  2  0  0  0  0
 35 38  1  0  0  0  0
  8 11  1  0  0  0  0
 44 45  1  0  0  0  0
 18 21  1  0  0  0  0
 34 35  1  0  0  0  0
  7  8  1  0  0  0  0
 17 18  1  0  0  0  0
 24 31  1  0  0  0  0
 25 32  1  0  0  0  0
  3  4  1  0  0  0  0
  3  5  1  0  0  0  0
  3  6  1  0  0  0  0
 38 41  1  0  0  0  0
 38 42  1  0  0  0  0
 38 43  1  0  0  0  0
 11 14  1  0  0  0  0
 11 15  1  0  0  0  0
 11 16  1  0  0  0  0
 45 47  1  0  0  0  0
 45 48  1  0  0  0  0
 45 49  1  0  0  0  0
 21 29  1  0  0  0  0
 21 30  1  0  0  0  0
 35 40  1  0  0  0  0
  8 13  1  0  0  0  0
 18 28  1  0  0  0  0
 26 33  1  0  0  0  0
 44 46  1  0  0  0  0
  7 12  1  0  0  0  0
 34 39  1  0  0  0  0
 17 27  1  0  0  0  0
M  END
$$$$

  -OEChem-05262214473D

 49 49  0     1  0  0  0  0  0999 V2000
   -1.6183    0.5613    3.8201 C   0  0  0  0  0  0  0  0  0  0  0  0
   -0.6710   -0.0534    3.3444 O   0  0  0  0  0  0  0  0  0  0  0  0
   -2.0502    0.2789    5.2208 C   0  0  0  0  0  0  0  0  0  0  0  0
   -2.8099   -0.5175    5.2742 H   0  0  0  0  0  0  0  0  0  0  0  0
   -1.2190   -0.0687    5.8551 H   0  0  0  0  0  0  0  0  0  0  0  0
   -2.4882    1.1338    5.7604 H   0  0  0  0  0  0  0  0  0  0  0  0
   -2.3680    1.5337    3.1790 N   0  0  0  0  0  0  0  0  0  0  0  0
   -2.1212    1.9597    1.8266 C   0  0  2  0  0  0  0  0  0  0  0  0
   -0.7862    1.3744    1.3854 C   0  0  0  0  0  0  0  0  0  0  0  0
    0.0859    1.0216    2.1767 O   0  0  0  0  0  0  0  0  0  0  0  0
   -2.1124    3.4765    1.7171 C   0  0  0  0  0  0  0  0  0  0  0  0
   -3.1331    1.9695    3.6908 H   0  0  0  0  0  0  0  0  0  0  0  0
   -2.9253    1.5413    1.2115 H   0  0  0  0  0  0  0  0  0  0  0  0
   -1.3133    3.9138    2.3268 H   0  0  0  0  0  0  0  0  0  0  0  0
   -1.9529    3.7988    0.6829 H   0  0  0  0  0  0  0  0  0  0  0  0
   -3.0626    3.8977    2.0629 H   0  0  0  0  0  0  0  0  0  0  0  0
   -0.6635    1.3313    0.0020 N   0  0  0  0  0  0  0  0  0  0  0  0
    0.5138    0.8305   -0.6617 C   0  0  2  0  0  0  0  0  0  0  0  0
    1.4566    2.0120   -0.8601 C   0  0  0  0  0  0  0  0  0  0  0  0
    1.2530    2.8990   -1.6863 O   0  0  0  0  0  0  0  0  0  0  0  0
    0.1853    0.1785   -2.0097 C   0  0  0  0  0  0  0  0  0  0  0  0
   -0.6795   -1.0503   -1.8684 C   0  0  0  0  0  0  0  0  0  0  0  0
   -0.1469   -2.2306   -1.4137 N   0  0  0  0  0  0  0  0  0  0  0  0
   -2.0195   -1.1843   -2.1456 C   0  0  0  0  0  0  0  0  0  0  0  0
   -1.1547   -3.0747   -1.4141 C   0  0  0  0  0  0  0  0  0  0  0  0
   -2.3093   -2.4866   -1.8501 N   0  0  0  0  0  0  0  0  0  0  0  0
   -1.4467    1.6280   -0.5753 H   0  0  0  0  0  0  0  0  0  0  0  0
    0.9777    0.1125    0.0248 H   0  0  0  0  0  0  0  0  0  0  0  0
    1.1104   -0.0801   -2.5426 H   0  0  0  0  0  0  0  0  0  0  0  0
   -0.3341    0.8911   -2.6640 H   0  0  0  0  0  0  0  0  0  0  0  0
   -2.7694   -0.4989   -2.5136 H   0  0  0  0  0  0  0  0  0  0  0  0
   -1.1163   -4.1124   -1.1143 H   0  0  0  0  0  0  0  0  0  0  0  0
   -3.2124   -2.9334   -1.9370 H   0  0  0  0  0  0  0  0  0  0  0  0
    2.5222    1.9813    0.0286 N   0  0  0  0  0  0  0  0  0  0  0  0
    3.5507    2.9959    0.0698 C   0  0  2  0  0  0  0  0  0  0  0  0
    4.0636    3.2034   -1.3491 C   0  0  0  0  0  0  0  0  0  0  0  0
    3.9535    2.3561   -2.2328 O   0  0  0  0  0  0  0  0  0  0  0  0
    4.6827    2.5986    1.0044 C   0  0  0  0  0  0  0  0  0  0  0  0
    2.5823    1.2068    0.6831 H   0  0  0  0  0  0  0  0  0  0  0  0
    3.0733    3.9159    0.4244 H   0  0  0  0  0  0  0  0  0  0  0  0
    5.1731    1.6789    0.6652 H   0  0  0  0  0  0  0  0  0  0  0  0
    5.4472    3.3809    1.0565 H   0  0  0  0  0  0  0  0  0  0  0  0
    4.3072    2.4208    2.0179 H   0  0  0  0  0  0  0  0  0  0  0  0
    4.6972    4.4288   -1.5010 N   0  0  0  0  0  0  0  0  0  0  0  0
    5.2804    4.8553   -2.7516 C   0  0  0  0  0  0  0  0  0  0  0  0
    4.7255    5.0770   -0.7194 H   0  0  0  0  0  0  0  0  0  0  0  0
    6.3428    4.5713   -2.7771 H   0  0  0  0  0  0  0  0  0  0  0  0
    4.7516    4.3719   -3.5863 H   0  0  0  0  0  0  0  0  0  0  0  0
    5.1907    5.9477   -2.8442 H   0  0  0  0  0  0  0  0  0  0  0  0
 22 24  2  0  0  0  0
 24 26  1  0  0  0  0
 23 25  2  0  0  0  0
 25 26  1  0  0  0  0
 21 22  1  0  0  0  0
 22 23  1  0  0  0  0
  1  3  1  0  0  0  0
  1  7  1  0  0  0  0
  1  2  2  0  0  0  0
 35 36  1  0  0  0  0
 36 44  1  0  0  0  0
 36 37  2  0  0  0  0
  8  9  1  0  0  0  0
  9 17  1  0  0  0  0
  9 10  2  0  0  0  0
 18 19  1  0  0  0  0
 19 34  1  0  0  0  0
 19 20  2  0  0  0  0
 35 38  1  0  0  0  0
  8 11  1  0  0  0  0
 44 45  1  0  0  0  0
 18 21  1  0  0  0  0
 34 35  1  0  0  0  0
  7  8  1  0  0  0  0
 17 18  1  0  0  0  0
 24 31  1  0  0  0  0
 25 32  1  0  0  0  0
  3  4  1  0  0  0  0
  3  5  1  0  0  0  0
  3  6  1  0  0  0  0
 38 41  1  0  0  0  0
 38 42  1  0  0  0  0
 38 43  1  0  0  0  0
 11 14  1  0  0  0  0
 11 15  1  0  0  0  0
 11 16  1  0  0  0  0
 45 47  1  0  0  0  0
 45 48  1  0  0  0  0
 45 49  1  0  0  0  0
 21 29  1  0  0  0  0
 21 30  1  0  0  0  0
 35 40  1  0  0  0  0
  8 13  1  0  0  0  0
 18 28  1  0  0  0  0
 26 33  1  0  0  0  0
 44 46  1  0  0  0  0
  7 12  1  0  0  0  0
 34 39  1  0  0  0  0
 17 27  1  0  0  0  0
M  END
$$$$

  -OEChem-05262214473D

 49 49  0     1  0  0  0  0  0999 V2000
   -1.6183    0.5613    3.8201 C   0  0  0  0  0  0  0  0  0  0  0  0
   -0.6710   -0.0534    3.3444 O   0  0  0  0  0  0  0  0  0  0  0  0
   -2.0502    0.2789    5.2208 C   0  0  0  0  0  0  0  0  0  0  0  0
   -2.8099   -0.5175    5.2742 H   0  0  0  0  0  0  0  0  0  0  0  0
   -1.2190   -0.0687    5.8551 H   0  0  0  0  0  0  0  0  0  0  0  0
   -2.4882    1.1338    5.7604 H   0  0  0  0  0  0  0  0  0  0  0  0
   -2.3680    1.5337    3.1790 N   0  0  0  0  0  0  0  0  0  0  0  0
   -2.1212    1.9597    1.8266 C   0  0  2  0  0  0  0  0  0  0  0  0
   -0.7862    1.3744    1.3854 C   0  0  0  0  0  0  0  0  0  0  0  0
    0.0859    1.0216    2.1767 O   0  0  0  0  0  0  0  0  0  0  0  0
   -2.1124    3.4765    1.7171 C   0  0  0  0  0  0  0  0  0  0  0  0
   -3.1331    1.9695    3.6908 H   0  0  0  0  0  0  0  0  0  0  0  0
   -2.9253    1.5413    1.2115 H   0  0  0  0  0  0  0  0  0  0  0  0
   -1.3133    3.9138    2.3268 H   0  0  0  0  0  0  0  0  0  0  0  0
   -1.9529    3.7988    0.6829 H   0  0  0  0  0  0  0  0  0  0  0  0
   -3.0626    3.8977    2.0629 H   0  0  0  0  0  0  0  0  0  0  0  0
   -0.6635    1.3313    0.0020 N   0  0  0  0  0  0  0  0  0  0  0  0
    0.5138    0.8305   -0.6617 C   0  0  2  0  0  0  0  0  0  0  0  0
    1.4566    2.0120   -0.8601 C   0  0  0  0  0  0  0  0  0  0  0  0
    1.1382    3.0256   -1.4783 O   0  0  0  0  0  0  0  0  0  0  0  0
    0.1853    0.1785   -2.0097 C   0  0  0  0  0  0  0  0  0  0  0  0
   -0.6795   -1.0503   -1.8684 C   0  0  0  0  0  0  0  0  0  0  0  0
   -0.1469   -2.2306   -1.4137 N   0  0  0  0  0  0  0  0  0  0  0  0
   -2.0195   -1.1843   -2.1456 C   0  0  0  0  0  0  0  0  0  0  0  0
   -1.1547   -3.0747   -1.4141 C   0  0  0  0  0  0  0  0  0  0  0  0
   -2.3093   -2.4866   -1.8501 N   0  0  0  0  0  0  0  0  0  0  0  0
   -1.4467    1.6280   -0.5753 H   0  0  0  0  0  0  0  0  0  0  0  0
    0.9777    0.1125    0.0248 H   0  0  0  0  0  0  0  0  0  0  0  0
    1.1104   -0.0801   -2.5426 H   0  0  0  0  0  0  0  0  0  0  0  0
   -0.3341    0.8911   -2.6640 H   0  0  0  0  0  0  0  0  0  0  0  0
   -2.7694   -0.4989   -2.5136 H   0  0  0  0  0  0  0  0  0  0  0  0
   -1.1163   -4.1124   -1.1143 H   0  0  0  0  0  0  0  0  0  0  0  0
   -3.2124   -2.9334   -1.9370 H   0  0  0  0  0  0  0  0  0  0  0  0
    2.6741    1.8179   -0.2226 N   0  0  0  0  0  0  0  0  0  0  0  0
    3.7398    2.7941   -0.2330 C   0  0  2  0  0  0  0  0  0  0  0  0
    3.9716    3.2219   -1.6762 C   0  0  0  0  0  0  0  0  0  0  0  0
    3.6466    2.5325   -2.6406 O   0  0  0  0  0  0  0  0  0  0  0  0
    5.0131    2.2298    0.3779 C   0  0  0  0  0  0  0  0  0  0  0  0
    2.8237    0.9459    0.2764 H   0  0  0  0  0  0  0  0  0  0  0  0
    3.3887    3.6519    0.3509 H   0  0  0  0  0  0  0  0  0  0  0  0
    5.3800    1.3695   -0.1937 H   0  0  0  0  0  0  0  0  0  0  0  0
    5.8109    2.9796    0.3953 H   0  0  0  0  0  0  0  0  0  0  0  0
    4.8370    1.8952    1.4059 H   0  0  0  0  0  0  0  0  0  0  0  0
    4.6231    4.4445   -1.7599 N   0  0  0  0  0  0  0  0  0  0  0  0
    4.9679    5.0595   -3.0203 C   0  0  0  0  0  0  0  0  0  0  0  0
    4.8378    4.9556   -0.9087 H   0  0  0  0  0  0  0  0  0  0  0  0
    5.9887    4.7651   -3.3055 H   0  0  0  0  0  0  0  0  0  0  0  0
    4.2610    4.7284   -3.7953 H   0  0  0  0  0  0  0  0  0  0  0  0
    4.9165    6.1537   -2.9205 H   0  0  0  0  0  0  0  0  0  0  0  0
 22 24  2  0  0  0  0
 24 26  1  0  0  0  0
 23 25  2  0  0  0  0
 25 26  1  0  0  0  0
 21 22  1  0  0  0  0
 22 23  1  0  0  0  0
  1  3  1  0  0  0  0
  1  7  1  0  0  0  0
  1  2  2  0  0  0  0
 35 36  1  0  0  0  0
 36 44  1  0  0  0  0
 36 37  2  0  0  0  0
  8  9  1  0  0  0  0
  9 17  1  0  0  0  0
  9 10  2  0  0  0  0
 18 19  1  0  0  0  0
 19 34  1  0  0  0  0
 19 20  2  0  0  0  0
 35 38  1  0  0  0  0
  8 11  1  0  0  0  0
 44 45  1  0  0  0  0
 18 21  1  0  0  0  0
 34 35  1  0  0  0  0
  7  8  1  0  0  0  0
 17 18  1  0  0  0  0
 24 31  1  0  0  0  0
 25 32  1  0  0  0  0
  3  4  1  0  0  0  0
  3  5  1  0  0  0  0
  3  6  1  0  0  0  0
 38 41  1  0  0  0  0
 38 42  1  0  0  0  0
 38 43  1  0  0  0  0
 11 14  1  0  0  0  0
 11 15  1  0  0  0  0
 11 16  1  0  0  0  0
 45 47  1  0  0  0  0
 45 48  1  0  0  0  0
 45 49  1  0  0  0  0
 21 29  1  0  0  0  0
 21 30  1  0  0  0  0
 35 40  1  0  0  0  0
  8 13  1  0  0  0  0
 18 28  1  0  0  0  0
 26 33  1  0  0  0  0
 44 46  1  0  0  0  0
  7 12  1  0  0  0  0
 34 39  1  0  0  0  0
 17 27  1  0  0  0  0
M  END
$$$$

  -OEChem-05262214473D

 49 49  0     1  0  0  0  0  0999 V2000
   -1.6183    0.5613    3.8201 C   0  0  0  0  0  0  0  0  0  0  0  0
   -0.6710   -0.0534    3.3444 O   0  0  0  0  0  0  0  0  0  0  0  0
   -2.0502    0.2789    5.2208 C   0  0  0  0  0  0  0  0  0  0  0  0
   -2.8099   -0.5175    5.2742 H   0  0  0  0  0  0  0  0  0  0  0  0
   -1.2190   -0.0687    5.8551 H   0  0  0  0  0  0  0  0  0  0  0  0
   -2.4882    1.1338    5.7604 H   0  0  0  0  0  0  0  0  0  0  0  0
   -2.3680    1.5337    3.1790 N   0  0  0  0  0  0  0  0  0  0  0  0
   -2.1212    1.9597    1.8266 C   0  0  2  0  0  0  0  0  0  0  0  0
   -0.7862    1.3744    1.3854 C   0  0  0  0  0  0  0  0  0  0  0  0
    0.0859    1.0216    2.1767 O   0  0  0  0  0  0  0  0  0  0  0  0
   -2.1124    3.4765    1.7171 C   0  0  0  0  0  0  0  0  0  0  0  0
   -3.1331    1.9695    3.6908 H   0  0  0  0  0  0  0  0  0  0  0  0
   -2.9253    1.5413    1.2115 H   0  0  0  0  0  0  0  0  0  0  0  0
   -1.3133    3.9138    2.3268 H   0  0  0  0  0  0  0  0  0  0  0  0
   -1.9529    3.7988    0.6829 H   0  0  0  0  0  0  0  0  0  0  0  0
   -3.0626    3.8977    2.0629 H   0  0  0  0  0  0  0  0  0  0  0  0
   -0.6635    1.3313    0.0020 N   0  0  0  0  0  0  0  0  0  0  0  0
    0.5138    0.8305   -0.6617 C   0  0  2  0  0  0  0  0  0  0  0  0
    1.4566    2.0120   -0.8601 C   0  0  0  0  0  0  0  0  0  0  0  0
    1.0733    3.1184   -1.2341 O   0  0  0  0  0  0  0  0  0  0  0  0
    0.1853    0.1785   -2.0097 C   0  0  0  0  0  0  0  0  0  0  0  0
   -0.6795   -1.0503   -1.8684 C   0  0  0  0  0  0  0  0  0  0  0  0
   -0.1469   -2.2306   -1.4137 N   0  0  0  0  0  0  0  0  0  0  0  0
   -2.0195   -1.1843   -2.1456 C   0  0  0  0  0  0  0  0  0  0  0  0
   -1.1547   -3.0747   -1.4141 C   0  0  0  0  0  0  0  0  0  0  0  0
   -2.3093   -2.4866   -1.8501 N   0  0  0  0  0  0  0  0  0  0  0  0
   -1.4467    1.6280   -0.5753 H   0  0  0  0  0  0  0  0  0  0  0  0
    0.9777    0.1125    0.0248 H   0  0  0  0  0  0  0  0  0  0  0  0
    1.1104   -0.0801   -2.5426 H   0  0  0  0  0  0  0  0  0  0  0  0
   -0.3341    0.8911   -2.6640 H   0  0  0  0  0  0  0  0  0  0  0  0
   -2.7694   -0.4989   -2.5136 H   0  0  0  0  0  0  0  0  0  0  0  0
   -1.1163   -4.1124   -1.1143 H   0  0  0  0  0  0  0  0  0  0  0  0
   -3.2124   -2.9334   -1.9370 H   0  0  0  0  0  0  0  0  0  0  0  0
    2.7649    1.6952   -0.5219 N   0  0  0  0  0  0  0  0  0  0  0  0
    3.8549    2.6413   -0.5958 C   0  0  2  0  0  0  0  0  0  0  0  0
    3.8178    3.2952   -1.9707 C   0  0  0  0  0  0  0  0  0  0  0  0
    3.2743    2.7785   -2.9447 O   0  0  0  0  0  0  0  0  0  0  0  0
    5.1940    1.9627   -0.3526 C   0  0  0  0  0  0  0  0  0  0  0  0
    2.9664    0.7508   -0.2066 H   0  0  0  0  0  0  0  0  0  0  0  0
    3.6696    3.3980    0.1743 H   0  0  0  0  0  0  0  0  0  0  0  0
    5.3971    1.2012   -1.1143 H   0  0  0  0  0  0  0  0  0  0  0  0
    6.0160    2.6856   -0.3806 H   0  0  0  0  0  0  0  0  0  0  0  0
    5.2084    1.4676    0.6244 H   0  0  0  0  0  0  0  0  0  0  0  0
    4.5002    4.5035   -1.9926 N   0  0  0  0  0  0  0  0  0  0  0  0
    4.6191    5.3103   -3.1846 C   0  0  0  0  0  0  0  0  0  0  0  0
    4.9043    4.8647   -1.1335 H   0  0  0  0  0  0  0  0  0  0  0  0
    5.5473    5.0488   -3.7139 H   0  0  0  0  0  0  0  0  0  0  0  0
    3.7571    5.1226   -3.8417 H   0  0  0  0  0  0  0  0  0  0  0  0
    4.6432    6.3742   -2.9063 H   0  0  0  0  0  0  0  0  0  0  0  0
 22 24  2  0  0  0  0
 24 26  1  0  0  0  0
 23 25  2  0  0  0  0
 25 26  1  0  0  0  0
 21 22  1  0  0  0  0
 22 23  1  0  0  0  0
  1  3  1  0  0  0  0
  1  7  1  0  0  0  0
  1  2  2  0  0  0  0
 35 36  1  0  0  0  0
 36 44  1  0  0  0  0
 36 37  2  0  0  0  0
  8  9  1  0  0  0  0
  9 17  1  0  0  0  0
  9 10  2  0  0  0  0
 18 19  1  0  0  0  0
 19 34  1  0  0  0  0
 19 20  2  0  0  0  0
 35 38  1  0  0  0  0
  8 11  1  0  0  0  0
 44 45  1  0  0  0  0
 18 21  1  0  0  0  0
 34 35  1  0  0  0  0
  7  8  1  0  0  0  0
 17 18  1  0  0  0  0
 24 31  1  0  0  0  0
 25 32  1  0  0  0  0
  3  4  1  0  0  0  0
  3  5  1  0  0  0  0
  3  6  1  0  0  0  0
 38 41  1  0  0  0  0
 38 42  1  0  0  0  0
 38 43  1  0  0  0  0
 11 14  1  0  0  0  0
 11 15  1  0  0  0  0
 11 16  1  0  0  0  0
 45 47  1  0  0  0  0
 45 48  1  0  0  0  0
 45 49  1  0  0  0  0
 21 29  1  0  0  0  0
 21 30  1  0  0  0  0
 35 40  1  0  0  0  0
  8 13  1  0  0  0  0
 18 28  1  0  0  0  0
 26 33  1  0  0  0  0
 44 46  1  0  0  0  0
  7 12  1  0  0  0  0
 34 39  1  0  0  0  0
 17 27  1  0  0  0  0
M  END
$$$$

  -OEChem-05262214473D

 49 49  0     1  0  0  0  0  0999 V2000
   -1.6183    0.5613    3.8201 C   0  0  0  0  0  0  0  0  0  0  0  0
   -0.6710   -0.0534    3.3444 O   0  0  0  0  0  0  0  0  0  0  0  0
   -2.0502    0.2789    5.2208 C   0  0  0  0  0  0  0  0  0  0  0  0
   -2.8099   -0.5175    5.2742 H   0  0  0  0  0  0  0  0  0  0  0  0
   -1.2190   -0.0687    5.8551 H   0  0  0  0  0  0  0  0  0  0  0  0
   -2.4882    1.1338    5.7604 H   0  0  0  0  0  0  0  0  0  0  0  0
   -2.3680    1.5337    3.1790 N   0  0  0  0  0  0  0  0  0  0  0  0
   -2.1212    1.9597    1.8266 C   0  0  2  0  0  0  0  0  0  0  0  0
   -0.7862    1.3744    1.3854 C   0  0  0  0  0  0  0  0  0  0  0  0
    0.0859    1.0216    2.1767 O   0  0  0  0  0  0  0  0  0  0  0  0
   -2.1124    3.4765    1.7171 C   0  0  0  0  0  0  0  0  0  0  0  0
   -3.1331    1.9695    3.6908 H   0  0  0  0  0  0  0  0  0  0  0  0
   -2.9253    1.5413    1.2115 H   0  0  0  0  0  0  0  0  0  0  0  0
   -1.3133    3.9138    2.3268 H   0  0  0  0  0  0  0  0  0  0  0  0
   -1.9529    3.7988    0.6829 H   0  0  0  0  0  0  0  0  0  0  0  0
   -3.0626    3.8977    2.0629 H   0  0  0  0  0  0  0  0  0  0  0  0
   -0.6635    1.3313    0.0020 N   0  0  0  0  0  0  0  0  0  0  0  0
    0.5138    0.8305   -0.6617 C   0  0  2  0  0  0  0  0  0  0  0  0
    1.4566    2.0120   -0.8601 C   0  0  0  0  0  0  0  0  0  0  0  0
    1.0627    3.1711   -0.9703 O   0  0  0  0  0  0  0  0  0  0  0  0
    0.1853    0.1785   -2.0097 C   0  0  0  0  0  0  0  0  0  0  0  0
   -0.6795   -1.0503   -1.8684 C   0  0  0  0  0  0  0  0  0  0  0  0
   -0.1469   -2.2306   -1.4137 N   0  0  0  0  0  0  0  0  0  0  0  0
   -2.0195   -1.1843   -2.1456 C   0  0  0  0  0  0  0  0  0  0  0  0
   -1.1547   -3.0747   -1.4141 C   0  0  0  0  0  0  0  0  0  0  0  0
   -2.3093   -2.4866   -1.8501 N   0  0  0  0  0  0  0  0  0  0  0  0
   -1.4467    1.6280   -0.5753 H   0  0  0  0  0  0  0  0  0  0  0  0
    0.9777    0.1125    0.0248 H   0  0  0  0  0  0  0  0  0  0  0  0
    1.1104   -0.0801   -2.5426 H   0  0  0  0  0  0  0  0  0  0  0  0
   -0.3341    0.8911   -2.6640 H   0  0  0  0  0  0  0  0  0  0  0  0
   -2.7694   -0.4989   -2.5136 H   0  0  0  0  0  0  0  0  0  0  0  0
   -1.1163   -4.1124   -1.1143 H   0  0  0  0  0  0  0  0  0  0  0  0
   -3.2124   -2.9334   -1.9370 H   0  0  0  0  0  0  0  0  0  0  0  0
    2.7884    1.6215   -0.8489 N   0  0  0  0  0  0  0  0  0  0  0  0
    3.8883    2.5479   -0.9937 C   0  0  2  0  0  0  0  0  0  0  0  0
    3.6126    3.4183   -2.2126 C   0  0  0  0  0  0  0  0  0  0  0  0
    2.8620    3.0774   -3.1244 O   0  0  0  0  0  0  0  0  0  0  0  0
    5.2133    1.8155   -1.1372 C   0  0  0  0  0  0  0  0  0  0  0  0
    3.0008    0.6349   -0.7330 H   0  0  0  0  0  0  0  0  0  0  0  0
    3.8970    3.1716   -0.0932 H   0  0  0  0  0  0  0  0  0  0  0  0
    5.2234    1.1854   -2.0340 H   0  0  0  0  0  0  0  0  0  0  0  0
    6.0487    2.5189   -1.2182 H   0  0  0  0  0  0  0  0  0  0  0  0
    5.3959    1.1672   -0.2734 H   0  0  0  0  0  0  0  0  0  0  0  0
    4.3367    4.6019   -2.1832 N   0  0  0  0  0  0  0  0  0  0  0  0
    4.2577    5.5905   -3.2332 C   0  0  0  0  0  0  0  0  0  0  0  0
    4.9204    4.8108   -1.3786 H   0  0  0  0  0  0  0  0  0  0  0  0
    5.0485    5.4030   -3.9744 H   0  0  0  0  0  0  0  0  0  0  0  0
    3.2744    5.5278   -3.7224 H   0  0  0  0  0  0  0  0  0  0  0  0
    4.3895    6.5941   -2.8024 H   0  0  0  0  0  0  0  0  0  0  0  0
 22 24  2  0  0  0  0
 24 26  1  0  0  0  0
 23 25  2  0  0  0  0
 25 26  1  0  0  0  0
 21 22  1  0  0  0  0
 22 23  1  0  0  0  0
  1  3  1  0  0  0  0
  1  7  1  0  0  0  0
  1  2  2  0  0  0  0
 35 36  1  0  0  0  0
 36 44  1  0  0  0  0
 36 37  2  0  0  0  0
  8  9  1  0  0  0  0
  9 17  1  0  0  0  0
  9 10  2  0  0  0  0
 18 19  1  0  0  0  0
 19 34  1  0  0  0  0
 19 20  2  0  0  0  0
 35 38  1  0  0  0  0
  8 11  1  0  0  0  0
 44 45  1  0  0  0  0
 18 21  1  0  0  0  0
 34 35  1  0  0  0  0
  7  8  1  0  0  0  0
 17 18  1  0  0  0  0
 24 31  1  0  0  0  0
 25 32  1  0  0  0  0
  3  4  1  0  0  0  0
  3  5  1  0  0  0  0
  3  6  1  0  0  0  0
 38 41  1  0  0  0  0
 38 42  1  0  0  0  0
 38 43  1  0  0  0  0
 11 14  1  0  0  0  0
 11 15  1  0  0  0  0
 11 16  1  0  0  0  0
 45 47  1  0  0  0  0
 45 48  1  0  0  0  0
 45 49  1  0  0  0  0
 21 29  1  0  0  0  0
 21 30  1  0  0  0  0
 35 40  1  0  0  0  0
  8 13  1  0  0  0  0
 18 28  1  0  0  0  0
 26 33  1  0  0  0  0
 44 46  1  0  0  0  0
  7 12  1  0  0  0  0
 34 39  1  0  0  0  0
 17 27  1  0  0  0  0
M  END
$$$$

  -OEChem-05262214473D

 49 49  0     1  0  0  0  0  0999 V2000
   -1.6183    0.5613    3.8201 C   0  0  0  0  0  0  0  0  0  0  0  0
   -0.6710   -0.0534    3.3444 O   0  0  0  0  0  0  0  0  0  0  0  0
   -2.0502    0.2789    5.2208 C   0  0  0  0  0  0  0  0  0  0  0  0
   -2.8099   -0.5175    5.2742 H   0  0  0  0  0  0  0  0  0  0  0  0
   -1.2190   -0.0687    5.8551 H   0  0  0  0  0  0  0  0  0  0  0  0
   -2.4882    1.1338    5.7604 H   0  0  0  0  0  0  0  0  0  0  0  0
   -2.3680    1.5337    3.1790 N   0  0  0  0  0  0  0  0  0  0  0  0
   -2.1212    1.9597    1.8266 C   0  0  2  0  0  0  0  0  0  0  0  0
   -0.7862    1.3744    1.3854 C   0  0  0  0  0  0  0  0  0  0  0  0
    0.0859    1.0216    2.1767 O   0  0  0  0  0  0  0  0  0  0  0  0
   -2.1124    3.4765    1.7171 C   0  0  0  0  0  0  0  0  0  0  0  0
   -3.1331    1.9695    3.6908 H   0  0  0  0  0  0  0  0  0  0  0  0
   -2.9253    1.5413    1.2115 H   0  0  0  0  0  0  0  0  0  0  0  0
   -1.3133    3.9138    2.3268 H   0  0  0  0  0  0  0  0  0  0  0  0
   -1.9529    3.7988    0.6829 H   0  0  0  0  0  0  0  0  0  0  0  0
   -3.0626    3.8977    2.0629 H   0  0  0  0  0  0  0  0  0  0  0  0
   -0.6635    1.3313    0.0020 N   0  0  0  0  0  0  0  0  0  0  0  0
    0.5138    0.8305   -0.6617 C   0  0  2  0  0  0  0  0  0  0  0  0
    1.4566    2.0120   -0.8601 C   0  0  0  0  0  0  0  0  0  0  0  0
    1.1072    3.1802   -0.7050 O   0  0  0  0  0  0  0  0  0  0  0  0
    0.1853    0.1785   -2.0097 C   0  0  0  0  0  0  0  0  0  0  0  0
   -0.6795   -1.0503   -1.8684 C   0  0  0  0  0  0  0  0  0  0  0  0
   -0.1469   -2.2306   -1.4137 N   0  0  0  0  0  0  0  0  0  0  0  0
   -2.0195   -1.1843   -2.1456 C   0  0  0  0  0  0  0  0  0  0  0  0
   -1.1547   -3.0747   -1.4141 C   0  0  0  0  0  0  0  0  0  0  0  0
   -2.3093   -2.4866   -1.8501 N   0  0  0  0  0  0  0  0  0  0  0  0
   -1.4467    1.6280   -0.5753 H   0  0  0  0  0  0  0  0  0  0  0  0
    0.9777    0.1125    0.0248 H   0  0  0  0  0  0  0  0  0  0  0  0
    1.1104   -0.0801   -2.5426 H   0  0  0  0  0  0  0  0  0  0  0  0
   -0.3341    0.8911   -2.6640 H   0  0  0  0  0  0  0  0  0  0  0  0
   -2.7694   -0.4989   -2.5136 H   0  0  0  0  0  0  0  0  0  0  0  0
   -1.1163   -4.1124   -1.1143 H   0  0  0  0  0  0  0  0  0  0  0  0
   -3.2124   -2.9334   -1.9370 H   0  0  0  0  0  0  0  0  0  0  0  0
    2.7431    1.6018   -1.1812 N   0  0  0  0  0  0  0  0  0  0  0  0
    3.8375    2.5202   -1.3997 C   0  0  2  0  0  0  0  0  0  0  0  0
    3.3700    3.5829   -2.3854 C   0  0  0  0  0  0  0  0  0  0  0  0
    2.4377    3.4087   -3.1675 O   0  0  0  0  0  0  0  0  0  0  0  0
    5.0696    1.7983   -1.9225 C   0  0  0  0  0  0  0  0  0  0  0  0
    2.9246    0.6061   -1.2670 H   0  0  0  0  0  0  0  0  0  0  0  0
    4.0554    2.9881   -0.4335 H   0  0  0  0  0  0  0  0  0  0  0  0
    4.8705    1.3232   -2.8901 H   0  0  0  0  0  0  0  0  0  0  0  0
    5.9065    2.4908   -2.0604 H   0  0  0  0  0  0  0  0  0  0  0  0
    5.3868    1.0144   -1.2263 H   0  0  0  0  0  0  0  0  0  0  0  0
    4.1439    4.7330   -2.3188 N   0  0  0  0  0  0  0  0  0  0  0  0
    3.9082    5.8812   -3.1627 C   0  0  0  0  0  0  0  0  0  0  0  0
    4.8849    4.7973   -1.6271 H   0  0  0  0  0  0  0  0  0  0  0  0
    4.5264    5.8037   -4.0693 H   0  0  0  0  0  0  0  0  0  0  0  0
    2.8458    5.9164   -3.4455 H   0  0  0  0  0  0  0  0  0  0  0  0
    4.1728    6.7984   -2.6160 H   0  0  0  0  0  0  0  0  0  0  0  0
 22 24  2  0  0  0  0
 24 26  1  0  0  0  0
 23 25  2  0  0  0  0
 25 26  1  0  0  0  0
 21 22  1  0  0  0  0
 22 23  1  0  0  0  0
  1  3  1  0  0  0  0
  1  7  1  0  0  0  0
  1  2  2  0  0  0  0
 35 36  1  0  0  0  0
 36 44  1  0  0  0  0
 36 37  2  0  0  0  0
  8  9  1  0  0  0  0
  9 17  1  0  0  0  0
  9 10  2  0  0  0  0
 18 19  1  0  0  0  0
 19 34  1  0  0  0  0
 19 20  2  0  0  0  0
 35 38  1  0  0  0  0
  8 11  1  0  0  0  0
 44 45  1  0  0  0  0
 18 21  1  0  0  0  0
 34 35  1  0  0  0  0
  7  8  1  0  0  0  0
 17 18  1  0  0  0  0
 24 31  1  0  0  0  0
 25 32  1  0  0  0  0
  3  4  1  0  0  0  0
  3  5  1  0  0  0  0
  3  6  1  0  0  0  0
 38 41  1  0  0  0  0
 38 42  1  0  0  0  0
 38 43  1  0  0  0  0
 11 14  1  0  0  0  0
 11 15  1  0  0  0  0
 11 16  1  0  0  0  0
 45 47  1  0  0  0  0
 45 48  1  0  0  0  0
 45 49  1  0  0  0  0
 21 29  1  0  0  0  0
 21 30  1  0  0  0  0
 35 40  1  0  0  0  0
  8 13  1  0  0  0  0
 18 28  1  0  0  0  0
 26 33  1  0  0  0  0
 44 46  1  0  0  0  0
  7 12  1  0  0  0  0
 34 39  1  0  0  0  0
 17 27  1  0  0  0  0
M  END
$$$$

  -OEChem-05262214473D

 49 49  0     1  0  0  0  0  0999 V2000
   -1.6183    0.5613    3.8201 C   0  0  0  0  0  0  0  0  0  0  0  0
   -0.6710   -0.0534    3.3444 O   0  0  0  0  0  0  0  0  0  0  0  0
   -2.0502    0.2789    5.2208 C   0  0  0  0  0  0  0  0  0  0  0  0
   -2.8099   -0.5175    5.2742 H   0  0  0  0  0  0  0  0  0  0  0  0
   -1.2190   -0.0687    5.8551 H   0  0  0  0  0  0  0  0  0  0  0  0
   -2.4882    1.1338    5.7604 H   0  0  0  0  0  0  0  0  0  0  0  0
   -2.3680    1.5337    3.1790 N   0  0  0  0  0  0  0  0  0  0  0  0
   -2.1212    1.9597    1.8266 C   0  0  2  0  0  0  0  0  0  0  0  0
   -0.7862    1.3744    1.3854 C   0  0  0  0  0  0  0  0  0  0  0  0
    0.0859    1.0216    2.1767 O   0  0  0  0  0  0  0  0  0  0  0  0
   -2.1124    3.4765    1.7171 C   0  0  0  0  0  0  0  0  0  0  0  0
   -3.1331    1.9695    3.6908 H   0  0  0  0  0  0  0  0  0  0  0  0
   -2.9253    1.5413    1.2115 H   0  0  0  0  0  0  0  0  0  0  0  0
   -1.3133    3.9138    2.3268 H   0  0  0  0  0  0  0  0  0  0  0  0
   -1.9529    3.7988    0.6829 H   0  0  0  0  0  0  0  0  0  0  0  0
   -3.0626    3.8977    2.0629 H   0  0  0  0  0  0  0  0  0  0  0  0
   -0.6635    1.3313    0.0020 N   0  0  0  0  0  0  0  0  0  0  0  0
    0.5138    0.8305   -0.6617 C   0  0  2  0  0  0  0  0  0  0  0  0
    1.5957    1.8960   -0.5258 C   0  0  0  0  0  0  0  0  0  0  0  0
    1.4282    2.9444    0.0934 O   0  0  0  0  0  0  0  0  0  0  0  0
    0.2562    0.5180   -2.1402 C   0  0  0  0  0  0  0  0  0  0  0  0
   -0.7479   -0.5916   -2.3359 C   0  0  0  0  0  0  0  0  0  0  0  0
   -0.3974   -1.8989   -2.1083 N   0  0  0  0  0  0  0  0  0  0  0  0
   -2.0590   -0.4919   -2.7381 C   0  0  0  0  0  0  0  0  0  0  0  0
   -1.4861   -2.5877   -2.3695 C   0  0  0  0  0  0  0  0  0  0  0  0
   -2.5185   -1.7787   -2.7553 N   0  0  0  0  0  0  0  0  0  0  0  0
   -1.4467    1.6280   -0.5753 H   0  0  0  0  0  0  0  0  0  0  0  0
    0.8233   -0.0672   -0.1136 H   0  0  0  0  0  0  0  0  0  0  0  0
    1.1972    0.2577   -2.6436 H   0  0  0  0  0  0  0  0  0  0  0  0
   -0.1121    1.4109   -2.6624 H   0  0  0  0  0  0  0  0  0  0  0  0
   -2.6875    0.3454   -3.0053 H   0  0  0  0  0  0  0  0  0  0  0  0
   -1.5926   -3.6611   -2.2998 H   0  0  0  0  0  0  0  0  0  0  0  0
   -3.4513   -2.0778   -3.0064 H   0  0  0  0  0  0  0  0  0  0  0  0
    2.7821    1.5124   -1.1355 N   0  0  0  0  0  0  0  0  0  0  0  0
    3.9748    2.3286   -1.1346 C   0  0  2  0  0  0  0  0  0  0  0  0
    3.5864    3.7293   -1.5895 C   0  0  0  0  0  0  0  0  0  0  0  0
    2.5805    3.9632   -2.2561 O   0  0  0  0  0  0  0  0  0  0  0  0
    5.0477    1.7416   -2.0385 C   0  0  0  0  0  0  0  0  0  0  0  0
    2.8137    0.6127   -1.6059 H   0  0  0  0  0  0  0  0  0  0  0  0
    4.3318    2.3659   -0.0996 H   0  0  0  0  0  0  0  0  0  0  0  0
    4.7082    1.6962   -3.0797 H   0  0  0  0  0  0  0  0  0  0  0  0
    5.9607    2.3456   -2.0146 H   0  0  0  0  0  0  0  0  0  0  0  0
    5.3044    0.7230   -1.7279 H   0  0  0  0  0  0  0  0  0  0  0  0
    4.5180    4.6815   -1.2001 N   0  0  0  0  0  0  0  0  0  0  0  0
    4.3816    6.0828   -1.5219 C   0  0  0  0  0  0  0  0  0  0  0  0
    5.3126    4.4006   -0.6331 H   0  0  0  0  0  0  0  0  0  0  0  0
    4.9096    6.2965   -2.4630 H   0  0  0  0  0  0  0  0  0  0  0  0
    3.3159    6.3309   -1.6351 H   0  0  0  0  0  0  0  0  0  0  0  0
    4.8152    6.6887   -0.7126 H   0  0  0  0  0  0  0  0  0  0  0  0
 22 24  2  0  0  0  0
 24 26  1  0  0  0  0
 23 25  2  0  0  0  0
 25 26  1  0  0  0  0
 21 22  1  0  0  0  0
 22 23  1  0  0  0  0
  1  3  1  0  0  0  0
  1  7  1  0  0  0  0
  1  2  2  0  0  0  0
 35 36  1  0  0  0  0
 36 44  1  0  0  0  0
 36 37  2  0  0  0  0
  8  9  1  0  0  0  0
  9 17  1  0  0  0  0
  9 10  2  0  0  0  0
 18 19  1  0  0  0  0
 19 34  1  0  0  0  0
 19 20  2  0  0  0  0
 35 38  1  0  0  0  0
  8 11  1  0  0  0  0
 44 45  1  0  0  0  0
 18 21  1  0  0  0  0
 34 35  1  0  0  0  0
  7  8  1  0  0  0  0
 17 18  1  0  0  0  0
 24 31  1  0  0  0  0
 25 32  1  0  0  0  0
  3  4  1  0  0  0  0
  3  5  1  0  0  0  0
  3  6  1  0  0  0  0
 38 41  1  0  0  0  0
 38 42  1  0  0  0  0
 38 43  1  0  0  0  0
 11 14  1  0  0  0  0
 11 15  1  0  0  0  0
 11 16  1  0  0  0  0
 45 47  1  0  0  0  0
 45 48  1  0  0  0  0
 45 49  1  0  0  0  0
 21 29  1  0  0  0  0
 21 30  1  0  0  0  0
 35 40  1  0  0  0  0
  8 13  1  0  0  0  0
 18 28  1  0  0  0  0
 26 33  1  0  0  0  0
 44 46  1  0  0  0  0
  7 12  1  0  0  0  0
 34 39  1  0  0  0  0
 17 27  1  0  0  0  0
M  END
$$$$

  -OEChem-05262214473D

 49 49  0     1  0  0  0  0  0999 V2000
   -1.6183    0.5613    3.8201 C   0  0  0  0  0  0  0  0  0  0  0  0
   -0.6710   -0.0534    3.3444 O   0  0  0  0  0  0  0  0  0  0  0  0
   -2.0502    0.2789    5.2208 C   0  0  0  0  0  0  0  0  0  0  0  0
   -2.8099   -0.5175    5.2742 H   0  0  0  0  0  0  0  0  0  0  0  0
   -1.2190   -0.0687    5.8551 H   0  0  0  0  0  0  0  0  0  0  0  0
   -2.4882    1.1338    5.7604 H   0  0  0  0  0  0  0  0  0  0  0  0
   -2.3680    1.5337    3.1790 N   0  0  0  0  0  0  0  0  0  0  0  0
   -2.1212    1.9597    1.8266 C   0  0  2  0  0  0  0  0  0  0  0  0
   -0.7862    1.3744    1.3854 C   0  0  0  0  0  0  0  0  0  0  0  0
    0.0859    1.0216    2.1767 O   0  0  0  0  0  0  0  0  0  0  0  0
   -2.1124    3.4765    1.7171 C   0  0  0  0  0  0  0  0  0  0  0  0
   -3.1331    1.9695    3.6908 H   0  0  0  0  0  0  0  0  0  0  0  0
   -2.9253    1.5413    1.2115 H   0  0  0  0  0  0  0  0  0  0  0  0
   -1.3133    3.9138    2.3268 H   0  0  0  0  0  0  0  0  0  0  0  0
   -1.9529    3.7988    0.6829 H   0  0  0  0  0  0  0  0  0  0  0  0
   -3.0626    3.8977    2.0629 H   0  0  0  0  0  0  0  0  0  0  0  0
   -0.6635    1.3313    0.0020 N   0  0  0  0  0  0  0  0  0  0  0  0
    0.5138    0.8305   -0.6617 C   0  0  2  0  0  0  0  0  0  0  0  0
    1.5957    1.8960   -0.5258 C   0  0  0  0  0  0  0  0  0  0  0  0
    1.5379    2.8070    0.2972 O   0  0  0  0  0  0  0  0  0  0  0  0
    0.2562    0.5180   -2.1402 C   0  0  0  0  0  0  0  0  0  0  0  0
   -0.7479   -0.5916   -2.3359 C   0  0  0  0  0  0  0  0  0  0  0  0
   -0.3974   -1.8989   -2.1083 N   0  0  0  0  0  0  0  0  0  0  0  0
   -2.0590   -0.4919   -2.7381 C   0  0  0  0  0  0  0  0  0  0  0  0
   -1.4861   -2.5877   -2.3695 C   0  0  0  0  0  0  0  0  0  0  0  0
   -2.5185   -1.7787   -2.7553 N   0  0  0  0  0  0  0  0  0  0  0  0
   -1.4467    1.6280   -0.5753 H   0  0  0  0  0  0  0  0  0  0  0  0
    0.8233   -0.0672   -0.1136 H   0  0  0  0  0  0  0  0  0  0  0  0
    1.1972    0.2577   -2.6436 H   0  0  0  0  0  0  0  0  0  0  0  0
   -0.1121    1.4109   -2.6624 H   0  0  0  0  0  0  0  0  0  0  0  0
   -2.6875    0.3454   -3.0053 H   0  0  0  0  0  0  0  0  0  0  0  0
   -1.5926   -3.6611   -2.2998 H   0  0  0  0  0  0  0  0  0  0  0  0
   -3.4513   -2.0778   -3.0064 H   0  0  0  0  0  0  0  0  0  0  0  0
    2.6528    1.6771   -1.3982 N   0  0  0  0  0  0  0  0  0  0  0  0
    3.8205    2.5267   -1.4589 C   0  0  2  0  0  0  0  0  0  0  0  0
    3.3468    3.9700   -1.5687 C   0  0  0  0  0  0  0  0  0  0  0  0
    2.2344    4.2807   -1.9896 O   0  0  0  0  0  0  0  0  0  0  0  0
    4.7134    2.1568   -2.6330 C   0  0  0  0  0  0  0  0  0  0  0  0
    2.6033    0.8798   -2.0255 H   0  0  0  0  0  0  0  0  0  0  0  0
    4.3606    2.3897   -0.5158 H   0  0  0  0  0  0  0  0  0  0  0  0
    4.1893    2.2877   -3.5868 H   0  0  0  0  0  0  0  0  0  0  0  0
    5.6116    2.7825   -2.6609 H   0  0  0  0  0  0  0  0  0  0  0  0
    5.0289    1.1099   -2.5681 H   0  0  0  0  0  0  0  0  0  0  0  0
    4.3280    4.8721   -1.1820 N   0  0  0  0  0  0  0  0  0  0  0  0
    4.1264    6.3020   -1.2083 C   0  0  0  0  0  0  0  0  0  0  0  0
    5.2146    4.5249   -0.8284 H   0  0  0  0  0  0  0  0  0  0  0  0
    4.4719    6.7039   -2.1722 H   0  0  0  0  0  0  0  0  0  0  0  0
    3.0565    6.5237   -1.0811 H   0  0  0  0  0  0  0  0  0  0  0  0
    4.6970    6.7677   -0.3913 H   0  0  0  0  0  0  0  0  0  0  0  0
 22 24  2  0  0  0  0
 24 26  1  0  0  0  0
 23 25  2  0  0  0  0
 25 26  1  0  0  0  0
 21 22  1  0  0  0  0
 22 23  1  0  0  0  0
  1  3  1  0  0  0  0
  1  7  1  0  0  0  0
  1  2  2  0  0  0  0
 35 36  1  0  0  0  0
 36 44  1  0  0  0  0
 36 37  2  0  0  0  0
  8  9  1  0  0  0  0
  9 17  1  0  0  0  0
  9 10  2  0  0  0  0
 18 19  1  0  0  0  0
 19 34  1  0  0  0  0
 19 20  2  0  0  0  0
 35 38  1  0  0  0  0
  8 11  1  0  0  0  0
 44 45  1  0  0  0  0
 18 21  1  0  0  0  0
 34 35  1  0  0  0  0
  7  8  1  0  0  0  0
 17 18  1  0  0  0  0
 24 31  1  0  0  0  0
 25 32  1  0  0  0  0
  3  4  1  0  0  0  0
  3  5  1  0  0  0  0
  3  6  1  0  0  0  0
 38 41  1  0  0  0  0
 38 42  1  0  0  0  0
 38 43  1  0  0  0  0
 11 14  1  0  0  0  0
 11 15  1  0  0  0  0
 11 16  1  0  0  0  0
 45 47  1  0  0  0  0
 45 48  1  0  0  0  0
 45 49  1  0  0  0  0
 21 29  1  0  0  0  0
 21 30  1  0  0  0  0
 35 40  1  0  0  0  0
  8 13  1  0  0  0  0
 18 28  1  0  0  0  0
 26 33  1  0  0  0  0
 44 46  1  0  0  0  0
  7 12  1  0  0  0  0
 34 39  1  0  0  0  0
 17 27  1  0  0  0  0
M  END
$$$$

  -OEChem-05262214473D

 49 49  0     1  0  0  0  0  0999 V2000
   -1.6183    0.5613    3.8201 C   0  0  0  0  0  0  0  0  0  0  0  0
   -0.6710   -0.0534    3.3444 O   0  0  0  0  0  0  0  0  0  0  0  0
   -2.0502    0.2789    5.2208 C   0  0  0  0  0  0  0  0  0  0  0  0
   -2.8099   -0.5175    5.2742 H   0  0  0  0  0  0  0  0  0  0  0  0
   -1.2190   -0.0687    5.8551 H   0  0  0  0  0  0  0  0  0  0  0  0
   -2.4882    1.1338    5.7604 H   0  0  0  0  0  0  0  0  0  0  0  0
   -2.3680    1.5337    3.1790 N   0  0  0  0  0  0  0  0  0  0  0  0
   -2.1212    1.9597    1.8266 C   0  0  2  0  0  0  0  0  0  0  0  0
   -0.7862    1.3744    1.3854 C   0  0  0  0  0  0  0  0  0  0  0  0
    0.0859    1.0216    2.1767 O   0  0  0  0  0  0  0  0  0  0  0  0
   -2.1124    3.4765    1.7171 C   0  0  0  0  0  0  0  0  0  0  0  0
   -3.1331    1.9695    3.6908 H   0  0  0  0  0  0  0  0  0  0  0  0
   -2.9253    1.5413    1.2115 H   0  0  0  0  0  0  0  0  0  0  0  0
   -1.3133    3.9138    2.3268 H   0  0  0  0  0  0  0  0  0  0  0  0
   -1.9529    3.7988    0.6829 H   0  0  0  0  0  0  0  0  0  0  0  0
   -3.0626    3.8977    2.0629 H   0  0  0  0  0  0  0  0  0  0  0  0
   -0.6635    1.3313    0.0020 N   0  0  0  0  0  0  0  0  0  0  0  0
    0.5138    0.8305   -0.6617 C   0  0  2  0  0  0  0  0  0  0  0  0
    1.5957    1.8960   -0.5258 C   0  0  0  0  0  0  0  0  0  0  0  0
    1.6840    2.6394    0.4490 O   0  0  0  0  0  0  0  0  0  0  0  0
    0.2562    0.5180   -2.1402 C   0  0  0  0  0  0  0  0  0  0  0  0
   -0.7479   -0.5916   -2.3359 C   0  0  0  0  0  0  0  0  0  0  0  0
   -0.3974   -1.8989   -2.1083 N   0  0  0  0  0  0  0  0  0  0  0  0
   -2.0590   -0.4919   -2.7381 C   0  0  0  0  0  0  0  0  0  0  0  0
   -1.4861   -2.5877   -2.3695 C   0  0  0  0  0  0  0  0  0  0  0  0
   -2.5185   -1.7787   -2.7553 N   0  0  0  0  0  0  0  0  0  0  0  0
   -1.4467    1.6280   -0.5753 H   0  0  0  0  0  0  0  0  0  0  0  0
    0.8233   -0.0672   -0.1136 H   0  0  0  0  0  0  0  0  0  0  0  0
    1.1972    0.2577   -2.6436 H   0  0  0  0  0  0  0  0  0  0  0  0
   -0.1121    1.4109   -2.6624 H   0  0  0  0  0  0  0  0  0  0  0  0
   -2.6875    0.3454   -3.0053 H   0  0  0  0  0  0  0  0  0  0  0  0
   -1.5926   -3.6611   -2.2998 H   0  0  0  0  0  0  0  0  0  0  0  0
   -3.4513   -2.0778   -3.0064 H   0  0  0  0  0  0  0  0  0  0  0  0
    2.4766    1.8816   -1.5983 N   0  0  0  0  0  0  0  0  0  0  0  0
    3.6082    2.7740   -1.7078 C   0  0  2  0  0  0  0  0  0  0  0  0
    3.1135    4.1931   -1.4611 C   0  0  0  0  0  0  0  0  0  0  0  0
    1.9410    4.5304   -1.6112 O   0  0  0  0  0  0  0  0  0  0  0  0
    4.2733    2.6594   -3.0706 C   0  0  0  0  0  0  0  0  0  0  0  0
    2.3180    1.2100   -2.3437 H   0  0  0  0  0  0  0  0  0  0  0  0
    4.3126    2.4897   -0.9185 H   0  0  0  0  0  0  0  0  0  0  0  0
    3.5828    2.9402   -3.8741 H   0  0  0  0  0  0  0  0  0  0  0  0
    5.1474    3.3151   -3.1418 H   0  0  0  0  0  0  0  0  0  0  0  0
    4.6019    1.6316   -3.2587 H   0  0  0  0  0  0  0  0  0  0  0  0
    4.1433    5.0485   -1.0953 N   0  0  0  0  0  0  0  0  0  0  0  0
    3.9315    6.4502   -0.8189 C   0  0  0  0  0  0  0  0  0  0  0  0
    5.0819    4.6786   -0.9766 H   0  0  0  0  0  0  0  0  0  0  0  0
    4.0923    7.0339   -1.7373 H   0  0  0  0  0  0  0  0  0  0  0  0
    2.9017    6.6023   -0.4636 H   0  0  0  0  0  0  0  0  0  0  0  0
    4.6392    6.7823   -0.0450 H   0  0  0  0  0  0  0  0  0  0  0  0
 22 24  2  0  0  0  0
 24 26  1  0  0  0  0
 23 25  2  0  0  0  0
 25 26  1  0  0  0  0
 21 22  1  0  0  0  0
 22 23  1  0  0  0  0
  1  3  1  0  0  0  0
  1  7  1  0  0  0  0
  1  2  2  0  0  0  0
 35 36  1  0  0  0  0
 36 44  1  0  0  0  0
 36 37  2  0  0  0  0
  8  9  1  0  0  0  0
  9 17  1  0  0  0  0
  9 10  2  0  0  0  0
 18 19  1  0  0  0  0
 19 34  1  0  0  0  0
 19 20  2  0  0  0  0
 35 38  1  0  0  0  0
  8 11  1  0  0  0  0
 44 45  1  0  0  0  0
 18 21  1  0  0  0  0
 34 35  1  0  0  0  0
  7  8  1  0  0  0  0
 17 18  1  0  0  0  0
 24 31  1  0  0  0  0
 25 32  1  0  0  0  0
  3  4  1  0  0  0  0
  3  5  1  0  0  0  0
  3  6  1  0  0  0  0
 38 41  1  0  0  0  0
 38 42  1  0  0  0  0
 38 43  1  0  0  0  0
 11 14  1  0  0  0  0
 11 15  1  0  0  0  0
 11 16  1  0  0  0  0
 45 47  1  0  0  0  0
 45 48  1  0  0  0  0
 45 49  1  0  0  0  0
 21 29  1  0  0  0  0
 21 30  1  0  0  0  0
 35 40  1  0  0  0  0
  8 13  1  0  0  0  0
 18 28  1  0  0  0  0
 26 33  1  0  0  0  0
 44 46  1  0  0  0  0
  7 12  1  0  0  0  0
 34 39  1  0  0  0  0
 17 27  1  0  0  0  0
M  END
$$$$

  -OEChem-05262214473D

 49 49  0     1  0  0  0  0  0999 V2000
   -1.6183    0.5613    3.8201 C   0  0  0  0  0  0  0  0  0  0  0  0
   -0.6710   -0.0534    3.3444 O   0  0  0  0  0  0  0  0  0  0  0  0
   -2.0502    0.2789    5.2208 C   0  0  0  0  0  0  0  0  0  0  0  0
   -2.8099   -0.5175    5.2742 H   0  0  0  0  0  0  0  0  0  0  0  0
   -1.2190   -0.0687    5.8551 H   0  0  0  0  0  0  0  0  0  0  0  0
   -2.4882    1.1338    5.7604 H   0  0  0  0  0  0  0  0  0  0  0  0
   -2.3680    1.5337    3.1790 N   0  0  0  0  0  0  0  0  0  0  0  0
   -2.1212    1.9597    1.8266 C   0  0  2  0  0  0  0  0  0  0  0  0
   -0.7862    1.3744    1.3854 C   0  0  0  0  0  0  0  0  0  0  0  0
    0.0859    1.0216    2.1767 O   0  0  0  0  0  0  0  0  0  0  0  0
   -2.1124    3.4765    1.7171 C   0  0  0  0  0  0  0  0  0  0  0  0
   -3.1331    1.9695    3.6908 H   0  0  0  0  0  0  0  0  0  0  0  0
   -2.9253    1.5413    1.2115 H   0  0  0  0  0  0  0  0  0  0  0  0
   -1.3133    3.9138    2.3268 H   0  0  0  0  0  0  0  0  0  0  0  0
   -1.9529    3.7988    0.6829 H   0  0  0  0  0  0  0  0  0  0  0  0
   -3.0626    3.8977    2.0629 H   0  0  0  0  0  0  0  0  0  0  0  0
   -0.6635    1.3313    0.0020 N   0  0  0  0  0  0  0  0  0  0  0  0
    0.5138    0.8305   -0.6617 C   0  0  2  0  0  0  0  0  0  0  0  0
    1.5957    1.8960   -0.5258 C   0  0  0  0  0  0  0  0  0  0  0  0
    1.8563    2.4530    0.5384 O   0  0  0  0  0  0  0  0  0  0  0  0
    0.2562    0.5180   -2.1402 C   0  0  0  0  0  0  0  0  0  0  0  0
   -0.7479   -0.5916   -2.3359 C   0  0  0  0  0  0  0  0  0  0  0  0
   -0.3974   -1.8989   -2.1083 N   0  0  0  0  0  0  0  0  0  0  0  0
   -2.0590   -0.4919   -2.7381 C   0  0  0  0  0  0  0  0  0  0  0  0
   -1.4861   -2.5877   -2.3695 C   0  0  0  0  0  0  0  0  0  0  0  0
   -2.5185   -1.7787   -2.7553 N   0  0  0  0  0  0  0  0  0  0  0  0
   -1.4467    1.6280   -0.5753 H   0  0  0  0  0  0  0  0  0  0  0  0
    0.8233   -0.0672   -0.1136 H   0  0  0  0  0  0  0  0  0  0  0  0
    1.1972    0.2577   -2.6436 H   0  0  0  0  0  0  0  0  0  0  0  0
   -0.1121    1.4109   -2.6624 H   0  0  0  0  0  0  0  0  0  0  0  0
   -2.6875    0.3454   -3.0053 H   0  0  0  0  0  0  0  0  0  0  0  0
   -1.5926   -3.6611   -2.2998 H   0  0  0  0  0  0  0  0  0  0  0  0
   -3.4513   -2.0778   -3.0064 H   0  0  0  0  0  0  0  0  0  0  0  0
    2.2655    2.1117   -1.7222 N   0  0  0  0  0  0  0  0  0  0  0  0
    3.3524    3.0537   -1.8644 C   0  0  2  0  0  0  0  0  0  0  0  0
    2.9025    4.3835   -1.2740 C   0  0  0  0  0  0  0  0  0  0  0  0
    1.7203    4.6953   -1.1468 O   0  0  0  0  0  0  0  0  0  0  0  0
    3.7576    3.2151   -3.3213 C   0  0  0  0  0  0  0  0  0  0  0  0
    1.9773    1.5809   -2.5388 H   0  0  0  0  0  0  0  0  0  0  0  0
    4.1911    2.6593   -1.2806 H   0  0  0  0  0  0  0  0  0  0  0  0
    2.9298    3.6093   -3.9221 H   0  0  0  0  0  0  0  0  0  0  0  0
    4.5998    3.9073   -3.4245 H   0  0  0  0  0  0  0  0  0  0  0  0
    4.0524    2.2525   -3.7528 H   0  0  0  0  0  0  0  0  0  0  0  0
    3.9766    5.1988   -0.9456 N   0  0  0  0  0  0  0  0  0  0  0  0
    3.8103    6.5174   -0.3804 C   0  0  0  0  0  0  0  0  0  0  0  0
    4.9233    4.8512   -1.0674 H   0  0  0  0  0  0  0  0  0  0  0  0
    3.7967    7.2641   -1.1880 H   0  0  0  0  0  0  0  0  0  0  0  0
    2.8620    6.5611    0.1753 H   0  0  0  0  0  0  0  0  0  0  0  0
    4.6456    6.7314    0.3026 H   0  0  0  0  0  0  0  0  0  0  0  0
 22 24  2  0  0  0  0
 24 26  1  0  0  0  0
 23 25  2  0  0  0  0
 25 26  1  0  0  0  0
 21 22  1  0  0  0  0
 22 23  1  0  0  0  0
  1  3  1  0  0  0  0
  1  7  1  0  0  0  0
  1  2  2  0  0  0  0
 35 36  1  0  0  0  0
 36 44  1  0  0  0  0
 36 37  2  0  0  0  0
  8  9  1  0  0  0  0
  9 17  1  0  0  0  0
  9 10  2  0  0  0  0
 18 19  1  0  0  0  0
 19 34  1  0  0  0  0
 19 20  2  0  0  0  0
 35 38  1  0  0  0  0
  8 11  1  0  0  0  0
 44 45  1  0  0  0  0
 18 21  1  0  0  0  0
 34 35  1  0  0  0  0
  7  8  1  0  0  0  0
 17 18  1  0  0  0  0
 24 31  1  0  0  0  0
 25 32  1  0  0  0  0
  3  4  1  0  0  0  0
  3  5  1  0  0  0  0
  3  6  1  0  0  0  0
 38 41  1  0  0  0  0
 38 42  1  0  0  0  0
 38 43  1  0  0  0  0
 11 14  1  0  0  0  0
 11 15  1  0  0  0  0
 11 16  1  0  0  0  0
 45 47  1  0  0  0  0
 45 48  1  0  0  0  0
 45 49  1  0  0  0  0
 21 29  1  0  0  0  0
 21 30  1  0  0  0  0
 35 40  1  0  0  0  0
  8 13  1  0  0  0  0
 18 28  1  0  0  0  0
 26 33  1  0  0  0  0
 44 46  1  0  0  0  0
  7 12  1  0  0  0  0
 34 39  1  0  0  0  0
 17 27  1  0  0  0  0
M  END
$$$$

  -OEChem-05262214473D

 49 49  0     1  0  0  0  0  0999 V2000
   -1.6183    0.5613    3.8201 C   0  0  0  0  0  0  0  0  0  0  0  0
   -0.6710   -0.0534    3.3444 O   0  0  0  0  0  0  0  0  0  0  0  0
   -2.0502    0.2789    5.2208 C   0  0  0  0  0  0  0  0  0  0  0  0
   -2.8099   -0.5175    5.2742 H   0  0  0  0  0  0  0  0  0  0  0  0
   -1.2190   -0.0687    5.8551 H   0  0  0  0  0  0  0  0  0  0  0  0
   -2.4882    1.1338    5.7604 H   0  0  0  0  0  0  0  0  0  0  0  0
   -2.3680    1.5337    3.1790 N   0  0  0  0  0  0  0  0  0  0  0  0
   -2.1212    1.9597    1.8266 C   0  0  2  0  0  0  0  0  0  0  0  0
   -0.7862    1.3744    1.3854 C   0  0  0  0  0  0  0  0  0  0  0  0
    0.0859    1.0216    2.1767 O   0  0  0  0  0  0  0  0  0  0  0  0
   -2.1124    3.4765    1.7171 C   0  0  0  0  0  0  0  0  0  0  0  0
   -3.1331    1.9695    3.6908 H   0  0  0  0  0  0  0  0  0  0  0  0
   -2.9253    1.5413    1.2115 H   0  0  0  0  0  0  0  0  0  0  0  0
   -1.3133    3.9138    2.3268 H   0  0  0  0  0  0  0  0  0  0  0  0
   -1.9529    3.7988    0.6829 H   0  0  0  0  0  0  0  0  0  0  0  0
   -3.0626    3.8977    2.0629 H   0  0  0  0  0  0  0  0  0  0  0  0
   -0.6635    1.3313    0.0020 N   0  0  0  0  0  0  0  0  0  0  0  0
    0.5138    0.8305   -0.6617 C   0  0  2  0  0  0  0  0  0  0  0  0
    1.5957    1.8960   -0.5258 C   0  0  0  0  0  0  0  0  0  0  0  0
    2.0433    2.2605    0.5593 O   0  0  0  0  0  0  0  0  0  0  0  0
    0.2562    0.5180   -2.1402 C   0  0  0  0  0  0  0  0  0  0  0  0
   -0.7479   -0.5916   -2.3359 C   0  0  0  0  0  0  0  0  0  0  0  0
   -0.3974   -1.8989   -2.1083 N   0  0  0  0  0  0  0  0  0  0  0  0
   -2.0590   -0.4919   -2.7381 C   0  0  0  0  0  0  0  0  0  0  0  0
   -1.4861   -2.5877   -2.3695 C   0  0  0  0  0  0  0  0  0  0  0  0
   -2.5185   -1.7787   -2.7553 N   0  0  0  0  0  0  0  0  0  0  0  0
   -1.4467    1.6280   -0.5753 H   0  0  0  0  0  0  0  0  0  0  0  0
    0.8233   -0.0672   -0.1136 H   0  0  0  0  0  0  0  0  0  0  0  0
    1.1972    0.2577   -2.6436 H   0  0  0  0  0  0  0  0  0  0  0  0
   -0.1121    1.4109   -2.6624 H   0  0  0  0  0  0  0  0  0  0  0  0
   -2.6875    0.3454   -3.0053 H   0  0  0  0  0  0  0  0  0  0  0  0
   -1.5926   -3.6611   -2.2998 H   0  0  0  0  0  0  0  0  0  0  0  0
   -3.4513   -2.0778   -3.0064 H   0  0  0  0  0  0  0  0  0  0  0  0
    2.0339    2.3519   -1.7614 N   0  0  0  0  0  0  0  0  0  0  0  0
    3.0705    3.3467   -1.9181 C   0  0  2  0  0  0  0  0  0  0  0  0
    2.7281    4.5282   -1.0201 C   0  0  0  0  0  0  0  0  0  0  0  0
    1.5873    4.7642   -0.6279 O   0  0  0  0  0  0  0  0  0  0  0  0
    3.2012    3.7860   -3.3681 C   0  0  0  0  0  0  0  0  0  0  0  0
    1.6043    1.9671   -2.5975 H   0  0  0  0  0  0  0  0  0  0  0  0
    4.0044    2.8867   -1.5771 H   0  0  0  0  0  0  0  0  0  0  0  0
    2.2751    4.2494   -3.7274 H   0  0  0  0  0  0  0  0  0  0  0  0
    4.0060    4.5185   -3.4898 H   0  0  0  0  0  0  0  0  0  0  0  0
    3.4180    2.9303   -4.0166 H   0  0  0  0  0  0  0  0  0  0  0  0
    3.8392    5.3125   -0.7433 N   0  0  0  0  0  0  0  0  0  0  0  0
    3.7711    6.4989    0.0775 C   0  0  0  0  0  0  0  0  0  0  0  0
    4.7496    5.0310   -1.0948 H   0  0  0  0  0  0  0  0  0  0  0  0
    3.6052    7.3787   -0.5616 H   0  0  0  0  0  0  0  0  0  0  0  0
    2.9402    6.4031    0.7920 H   0  0  0  0  0  0  0  0  0  0  0  0
    4.7159    6.6186    0.6279 H   0  0  0  0  0  0  0  0  0  0  0  0
 22 24  2  0  0  0  0
 24 26  1  0  0  0  0
 23 25  2  0  0  0  0
 25 26  1  0  0  0  0
 21 22  1  0  0  0  0
 22 23  1  0  0  0  0
  1  3  1  0  0  0  0
  1  7  1  0  0  0  0
  1  2  2  0  0  0  0
 35 36  1  0  0  0  0
 36 44  1  0  0  0  0
 36 37  2  0  0  0  0
  8  9  1  0  0  0  0
  9 17  1  0  0  0  0
  9 10  2  0  0  0  0
 18 19  1  0  0  0  0
 19 34  1  0  0  0  0
 19 20  2  0  0  0  0
 35 38  1  0  0  0  0
  8 11  1  0  0  0  0
 44 45  1  0  0  0  0
 18 21  1  0  0  0  0
 34 35  1  0  0  0  0
  7  8  1  0  0  0  0
 17 18  1  0  0  0  0
 24 31  1  0  0  0  0
 25 32  1  0  0  0  0
  3  4  1  0  0  0  0
  3  5  1  0  0  0  0
  3  6  1  0  0  0  0
 38 41  1  0  0  0  0
 38 42  1  0  0  0  0
 38 43  1  0  0  0  0
 11 14  1  0  0  0  0
 11 15  1  0  0  0  0
 11 16  1  0  0  0  0
 45 47  1  0  0  0  0
 45 48  1  0  0  0  0
 45 49  1  0  0  0  0
 21 29  1  0  0  0  0
 21 30  1  0  0  0  0
 35 40  1  0  0  0  0
  8 13  1  0  0  0  0
 18 28  1  0  0  0  0
 26 33  1  0  0  0  0
 44 46  1  0  0  0  0
  7 12  1  0  0  0  0
 34 39  1  0  0  0  0
 17 27  1  0  0  0  0
M  END
$$$$

  -OEChem-05262214473D

 49 49  0     1  0  0  0  0  0999 V2000
   -1.6183    0.5613    3.8201 C   0  0  0  0  0  0  0  0  0  0  0  0
   -0.6710   -0.0534    3.3444 O   0  0  0  0  0  0  0  0  0  0  0  0
   -2.0502    0.2789    5.2208 C   0  0  0  0  0  0  0  0  0  0  0  0
   -2.8099   -0.5175    5.2742 H   0  0  0  0  0  0  0  0  0  0  0  0
   -1.2190   -0.0687    5.8551 H   0  0  0  0  0  0  0  0  0  0  0  0
   -2.4882    1.1338    5.7604 H   0  0  0  0  0  0  0  0  0  0  0  0
   -2.3680    1.5337    3.1790 N   0  0  0  0  0  0  0  0  0  0  0  0
   -2.1212    1.9597    1.8266 C   0  0  2  0  0  0  0  0  0  0  0  0
   -0.7862    1.3744    1.3854 C   0  0  0  0  0  0  0  0  0  0  0  0
    0.0859    1.0216    2.1767 O   0  0  0  0  0  0  0  0  0  0  0  0
   -2.1124    3.4765    1.7171 C   0  0  0  0  0  0  0  0  0  0  0  0
   -3.1331    1.9695    3.6908 H   0  0  0  0  0  0  0  0  0  0  0  0
   -2.9253    1.5413    1.2115 H   0  0  0  0  0  0  0  0  0  0  0  0
   -1.3133    3.9138    2.3268 H   0  0  0  0  0  0  0  0  0  0  0  0
   -1.9529    3.7988    0.6829 H   0  0  0  0  0  0  0  0  0  0  0  0
   -3.0626    3.8977    2.0629 H   0  0  0  0  0  0  0  0  0  0  0  0
   -0.6635    1.3313    0.0020 N   0  0  0  0  0  0  0  0  0  0  0  0
    0.5138    0.8305   -0.6617 C   0  0  2  0  0  0  0  0  0  0  0  0
    1.5957    1.8960   -0.5258 C   0  0  0  0  0  0  0  0  0  0  0  0
    2.2321    2.0750    0.5104 O   0  0  0  0  0  0  0  0  0  0  0  0
    0.2562    0.5180   -2.1402 C   0  0  0  0  0  0  0  0  0  0  0  0
   -0.7479   -0.5916   -2.3359 C   0  0  0  0  0  0  0  0  0  0  0  0
   -0.3974   -1.8989   -2.1083 N   0  0  0  0  0  0  0  0  0  0  0  0
   -2.0590   -0.4919   -2.7381 C   0  0  0  0  0  0  0  0  0  0  0  0
   -1.4861   -2.5877   -2.3695 C   0  0  0  0  0  0  0  0  0  0  0  0
   -2.5185   -1.7787   -2.7553 N   0  0  0  0  0  0  0  0  0  0  0  0
   -1.4467    1.6280   -0.5753 H   0  0  0  0  0  0  0  0  0  0  0  0
    0.8233   -0.0672   -0.1136 H   0  0  0  0  0  0  0  0  0  0  0  0
    1.1972    0.2577   -2.6436 H   0  0  0  0  0  0  0  0  0  0  0  0
   -0.1121    1.4109   -2.6624 H   0  0  0  0  0  0  0  0  0  0  0  0
   -2.6875    0.3454   -3.0053 H   0  0  0  0  0  0  0  0  0  0  0  0
   -1.5926   -3.6611   -2.2998 H   0  0  0  0  0  0  0  0  0  0  0  0
   -3.4513   -2.0778   -3.0064 H   0  0  0  0  0  0  0  0  0  0  0  0
    1.7975    2.5858   -1.7132 N   0  0  0  0  0  0  0  0  0  0  0  0
    2.7818    3.6331   -1.8651 C   0  0  2  0  0  0  0  0  0  0  0  0
    2.6023    4.6173   -0.7167 C   0  0  0  0  0  0  0  0  0  0  0  0
    1.5511    4.7324   -0.0901 O   0  0  0  0  0  0  0  0  0  0  0  0
    2.6422    4.3332   -3.2078 C   0  0  0  0  0  0  0  0  0  0  0  0
    1.2245    2.3423   -2.5158 H   0  0  0  0  0  0  0  0  0  0  0  0
    3.7651    3.1565   -1.7880 H   0  0  0  0  0  0  0  0  0  0  0  0
    1.6631    4.8167   -3.3034 H   0  0  0  0  0  0  0  0  0  0  0  0
    3.4066    5.1072   -3.3331 H   0  0  0  0  0  0  0  0  0  0  0  0
    2.7419    3.6188   -4.0321 H   0  0  0  0  0  0  0  0  0  0  0  0
    3.7404    5.3821   -0.5022 N   0  0  0  0  0  0  0  0  0  0  0  0
    3.8164    6.3961    0.5235 C   0  0  0  0  0  0  0  0  0  0  0  0
    4.5729    5.2057   -1.0568 H   0  0  0  0  0  0  0  0  0  0  0  0
    3.5309    7.3699    0.0991 H   0  0  0  0  0  0  0  0  0  0  0  0
    3.1309    6.1390    1.3445 H   0  0  0  0  0  0  0  0  0  0  0  0
    4.8452    6.4515    0.9086 H   0  0  0  0  0  0  0  0  0  0  0  0
 22 24  2  0  0  0  0
 24 26  1  0  0  0  0
 23 25  2  0  0  0  0
 25 26  1  0  0  0  0
 21 22  1  0  0  0  0
 22 23  1  0  0  0  0
  1  3  1  0  0  0  0
  1  7  1  0  0  0  0
  1  2  2  0  0  0  0
 35 36  1  0  0  0  0
 36 44  1  0  0  0  0
 36 37  2  0  0  0  0
  8  9  1  0  0  0  0
  9 17  1  0  0  0  0
  9 10  2  0  0  0  0
 18 19  1  0  0  0  0
 19 34  1  0  0  0  0
 19 20  2  0  0  0  0
 35 38  1  0  0  0  0
  8 11  1  0  0  0  0
 44 45  1  0  0  0  0
 18 21  1  0  0  0  0
 34 35  1  0  0  0  0
  7  8  1  0  0  0  0
 17 18  1  0  0  0  0
 24 31  1  0  0  0  0
 25 32  1  0  0  0  0
  3  4  1  0  0  0  0
  3  5  1  0  0  0  0
  3  6  1  0  0  0  0
 38 41  1  0  0  0  0
 38 42  1  0  0  0  0
 38 43  1  0  0  0  0
 11 14  1  0  0  0  0
 11 15  1  0  0  0  0
 11 16  1  0  0  0  0
 45 47  1  0  0  0  0
 45 48  1  0  0  0  0
 45 49  1  0  0  0  0
 21 29  1  0  0  0  0
 21 30  1  0  0  0  0
 35 40  1  0  0  0  0
  8 13  1  0  0  0  0
 18 28  1  0  0  0  0
 26 33  1  0  0  0  0
 44 46  1  0  0  0  0
  7 12  1  0  0  0  0
 34 39  1  0  0  0  0
 17 27  1  0  0  0  0
M  END
$$$$

  -OEChem-05262214473D

 49 49  0     1  0  0  0  0  0999 V2000
   -1.6183    0.5613    3.8201 C   0  0  0  0  0  0  0  0  0  0  0  0
   -0.6710   -0.0534    3.3444 O   0  0  0  0  0  0  0  0  0  0  0  0
   -2.0502    0.2789    5.2208 C   0  0  0  0  0  0  0  0  0  0  0  0
   -2.8099   -0.5175    5.2742 H   0  0  0  0  0  0  0  0  0  0  0  0
   -1.2190   -0.0687    5.8551 H   0  0  0  0  0  0  0  0  0  0  0  0
   -2.4882    1.1338    5.7604 H   0  0  0  0  0  0  0  0  0  0  0  0
   -2.3680    1.5337    3.1790 N   0  0  0  0  0  0  0  0  0  0  0  0
   -2.1212    1.9597    1.8266 C   0  0  2  0  0  0  0  0  0  0  0  0
   -0.7862    1.3744    1.3854 C   0  0  0  0  0  0  0  0  0  0  0  0
    0.0859    1.0216    2.1767 O   0  0  0  0  0  0  0  0  0  0  0  0
   -2.1124    3.4765    1.7171 C   0  0  0  0  0  0  0  0  0  0  0  0
   -3.1331    1.9695    3.6908 H   0  0  0  0  0  0  0  0  0  0  0  0
   -2.9253    1.5413    1.2115 H   0  0  0  0  0  0  0  0  0  0  0  0
   -1.3133    3.9138    2.3268 H   0  0  0  0  0  0  0  0  0  0  0  0
   -1.9529    3.7988    0.6829 H   0  0  0  0  0  0  0  0  0  0  0  0
   -3.0626    3.8977    2.0629 H   0  0  0  0  0  0  0  0  0  0  0  0
   -0.6635    1.3313    0.0020 N   0  0  0  0  0  0  0  0  0  0  0  0
    0.5138    0.8305   -0.6617 C   0  0  2  0  0  0  0  0  0  0  0  0
    1.5957    1.8960   -0.5258 C   0  0  0  0  0  0  0  0  0  0  0  0
    2.4099    1.9092    0.3949 O   0  0  0  0  0  0  0  0  0  0  0  0
    0.2562    0.5180   -2.1402 C   0  0  0  0  0  0  0  0  0  0  0  0
   -0.7479   -0.5916   -2.3359 C   0  0  0  0  0  0  0  0  0  0  0  0
   -0.3974   -1.8989   -2.1083 N   0  0  0  0  0  0  0  0  0  0  0  0
   -2.0590   -0.4919   -2.7381 C   0  0  0  0  0  0  0  0  0  0  0  0
   -1.4861   -2.5877   -2.3695 C   0  0  0  0  0  0  0  0  0  0  0  0
   -2.5185   -1.7787   -2.7553 N   0  0  0  0  0  0  0  0  0  0  0  0
   -1.4467    1.6280   -0.5753 H   0  0  0  0  0  0  0  0  0  0  0  0
    0.8233   -0.0672   -0.1136 H   0  0  0  0  0  0  0  0  0  0  0  0
    1.1972    0.2577   -2.6436 H   0  0  0  0  0  0  0  0  0  0  0  0
   -0.1121    1.4109   -2.6624 H   0  0  0  0  0  0  0  0  0  0  0  0
   -2.6875    0.3454   -3.0053 H   0  0  0  0  0  0  0  0  0  0  0  0
   -1.5926   -3.6611   -2.2998 H   0  0  0  0  0  0  0  0  0  0  0  0
   -3.4513   -2.0778   -3.0064 H   0  0  0  0  0  0  0  0  0  0  0  0
    1.5725    2.7974   -1.5810 N   0  0  0  0  0  0  0  0  0  0  0  0
    2.5059    3.8934   -1.7090 C   0  0  2  0  0  0  0  0  0  0  0  0
    2.5336    4.6447   -0.3846 C   0  0  0  0  0  0  0  0  0  0  0  0
    1.6141    4.6021    0.4302 O   0  0  0  0  0  0  0  0  0  0  0  0
    2.1185    4.8195   -2.8514 C   0  0  0  0  0  0  0  0  0  0  0  0
    0.8638    2.6810   -2.2993 H   0  0  0  0  0  0  0  0  0  0  0  0
    3.4896    3.4504   -1.8989 H   0  0  0  0  0  0  0  0  0  0  0  0
    1.1356    5.2728   -2.6789 H   0  0  0  0  0  0  0  0  0  0  0  0
    2.8423    5.6332   -2.9653 H   0  0  0  0  0  0  0  0  0  0  0  0
    2.0701    4.2711   -3.7983 H   0  0  0  0  0  0  0  0  0  0  0  0
    3.6870    5.4028   -0.2386 N   0  0  0  0  0  0  0  0  0  0  0  0
    3.9432    6.2158    0.9273 C   0  0  0  0  0  0  0  0  0  0  0  0
    4.4049    5.3633   -0.9560 H   0  0  0  0  0  0  0  0  0  0  0  0
    3.5789    7.2384    0.7491 H   0  0  0  0  0  0  0  0  0  0  0  0
    3.4212    5.7868    1.7953 H   0  0  0  0  0  0  0  0  0  0  0  0
    5.0248    6.2415    1.1257 H   0  0  0  0  0  0  0  0  0  0  0  0
 22 24  2  0  0  0  0
 24 26  1  0  0  0  0
 23 25  2  0  0  0  0
 25 26  1  0  0  0  0
 21 22  1  0  0  0  0
 22 23  1  0  0  0  0
  1  3  1  0  0  0  0
  1  7  1  0  0  0  0
  1  2  2  0  0  0  0
 35 36  1  0  0  0  0
 36 44  1  0  0  0  0
 36 37  2  0  0  0  0
  8  9  1  0  0  0  0
  9 17  1  0  0  0  0
  9 10  2  0  0  0  0
 18 19  1  0  0  0  0
 19 34  1  0  0  0  0
 19 20  2  0  0  0  0
 35 38  1  0  0  0  0
  8 11  1  0  0  0  0
 44 45  1  0  0  0  0
 18 21  1  0  0  0  0
 34 35  1  0  0  0  0
  7  8  1  0  0  0  0
 17 18  1  0  0  0  0
 24 31  1  0  0  0  0
 25 32  1  0  0  0  0
  3  4  1  0  0  0  0
  3  5  1  0  0  0  0
  3  6  1  0  0  0  0
 38 41  1  0  0  0  0
 38 42  1  0  0  0  0
 38 43  1  0  0  0  0
 11 14  1  0  0  0  0
 11 15  1  0  0  0  0
 11 16  1  0  0  0  0
 45 47  1  0  0  0  0
 45 48  1  0  0  0  0
 45 49  1  0  0  0  0
 21 29  1  0  0  0  0
 21 30  1  0  0  0  0
 35 40  1  0  0  0  0
  8 13  1  0  0  0  0
 18 28  1  0  0  0  0
 26 33  1  0  0  0  0
 44 46  1  0  0  0  0
  7 12  1  0  0  0  0
 34 39  1  0  0  0  0
 17 27  1  0  0  0  0
M  END
$$$$

  -OEChem-05262214473D

 49 49  0     1  0  0  0  0  0999 V2000
   -1.6183    0.5613    3.8201 C   0  0  0  0  0  0  0  0  0  0  0  0
   -0.6710   -0.0534    3.3444 O   0  0  0  0  0  0  0  0  0  0  0  0
   -2.0502    0.2789    5.2208 C   0  0  0  0  0  0  0  0  0  0  0  0
   -2.8099   -0.5175    5.2742 H   0  0  0  0  0  0  0  0  0  0  0  0
   -1.2190   -0.0687    5.8551 H   0  0  0  0  0  0  0  0  0  0  0  0
   -2.4882    1.1338    5.7604 H   0  0  0  0  0  0  0  0  0  0  0  0
   -2.3680    1.5337    3.1790 N   0  0  0  0  0  0  0  0  0  0  0  0
   -2.1212    1.9597    1.8266 C   0  0  2  0  0  0  0  0  0  0  0  0
   -0.7862    1.3744    1.3854 C   0  0  0  0  0  0  0  0  0  0  0  0
    0.0859    1.0216    2.1767 O   0  0  0  0  0  0  0  0  0  0  0  0
   -2.1124    3.4765    1.7171 C   0  0  0  0  0  0  0  0  0  0  0  0
   -3.1331    1.9695    3.6908 H   0  0  0  0  0  0  0  0  0  0  0  0
   -2.9253    1.5413    1.2115 H   0  0  0  0  0  0  0  0  0  0  0  0
   -1.3133    3.9138    2.3268 H   0  0  0  0  0  0  0  0  0  0  0  0
   -1.9529    3.7988    0.6829 H   0  0  0  0  0  0  0  0  0  0  0  0
   -3.0626    3.8977    2.0629 H   0  0  0  0  0  0  0  0  0  0  0  0
   -0.6635    1.3313    0.0020 N   0  0  0  0  0  0  0  0  0  0  0  0
    0.5138    0.8305   -0.6617 C   0  0  2  0  0  0  0  0  0  0  0  0
    1.5957    1.8960   -0.5258 C   0  0  0  0  0  0  0  0  0  0  0  0
    2.5646    1.7743    0.2207 O   0  0  0  0  0  0  0  0  0  0  0  0
    0.2562    0.5180   -2.1402 C   0  0  0  0  0  0  0  0  0  0  0  0
   -0.7479   -0.5916   -2.3359 C   0  0  0  0  0  0  0  0  0  0  0  0
   -0.3974   -1.8989   -2.1083 N   0  0  0  0  0  0  0  0  0  0  0  0
   -2.0590   -0.4919   -2.7381 C   0  0  0  0  0  0  0  0  0  0  0  0
   -1.4861   -2.5877   -2.3695 C   0  0  0  0  0  0  0  0  0  0  0  0
   -2.5185   -1.7787   -2.7553 N   0  0  0  0  0  0  0  0  0  0  0  0
   -1.4467    1.6280   -0.5753 H   0  0  0  0  0  0  0  0  0  0  0  0
    0.8233   -0.0672   -0.1136 H   0  0  0  0  0  0  0  0  0  0  0  0
    1.1972    0.2577   -2.6436 H   0  0  0  0  0  0  0  0  0  0  0  0
   -0.1121    1.4109   -2.6624 H   0  0  0  0  0  0  0  0  0  0  0  0
   -2.6875    0.3454   -3.0053 H   0  0  0  0  0  0  0  0  0  0  0  0
   -1.5926   -3.6611   -2.2998 H   0  0  0  0  0  0  0  0  0  0  0  0
   -3.4513   -2.0778   -3.0064 H   0  0  0  0  0  0  0  0  0  0  0  0
    1.3742    2.9723   -1.3737 N   0  0  0  0  0  0  0  0  0  0  0  0
    2.2616    4.1097   -1.4606 C   0  0  2  0  0  0  0  0  0  0  0  0
    2.5267    4.6086   -0.0463 C   0  0  0  0  0  0  0  0  0  0  0  0
    1.7721    4.3821    0.8973 O   0  0  0  0  0  0  0  0  0  0  0  0
    1.6660    5.2116   -2.3230 C   0  0  0  0  0  0  0  0  0  0  0  0
    0.5467    2.9601   -1.9627 H   0  0  0  0  0  0  0  0  0  0  0  0
    3.1967    3.7483   -1.9022 H   0  0  0  0  0  0  0  0  0  0  0  0
    0.7285    5.5864   -1.8964 H   0  0  0  0  0  0  0  0  0  0  0  0
    2.3517    6.0608   -2.4113 H   0  0  0  0  0  0  0  0  0  0  0  0
    1.4484    4.8428   -3.3312 H   0  0  0  0  0  0  0  0  0  0  0  0
    3.6826    5.3730    0.0294 N   0  0  0  0  0  0  0  0  0  0  0  0
    4.1428    5.9705    1.2612 C   0  0  0  0  0  0  0  0  0  0  0  0
    4.2573    5.4933   -0.7994 H   0  0  0  0  0  0  0  0  0  0  0  0
    3.7458    6.9930    1.3441 H   0  0  0  0  0  0  0  0  0  0  0  0
    3.7912    5.3705    2.1134 H   0  0  0  0  0  0  0  0  0  0  0  0
    5.2424    6.0029    1.2644 H   0  0  0  0  0  0  0  0  0  0  0  0
 22 24  2  0  0  0  0
 24 26  1  0  0  0  0
 23 25  2  0  0  0  0
 25 26  1  0  0  0  0
 21 22  1  0  0  0  0
 22 23  1  0  0  0  0
  1  3  1  0  0  0  0
  1  7  1  0  0  0  0
  1  2  2  0  0  0  0
 35 36  1  0  0  0  0
 36 44  1  0  0  0  0
 36 37  2  0  0  0  0
  8  9  1  0  0  0  0
  9 17  1  0  0  0  0
  9 10  2  0  0  0  0
 18 19  1  0  0  0  0
 19 34  1  0  0  0  0
 19 20  2  0  0  0  0
 35 38  1  0  0  0  0
  8 11  1  0  0  0  0
 44 45  1  0  0  0  0
 18 21  1  0  0  0  0
 34 35  1  0  0  0  0
  7  8  1  0  0  0  0
 17 18  1  0  0  0  0
 24 31  1  0  0  0  0
 25 32  1  0  0  0  0
  3  4  1  0  0  0  0
  3  5  1  0  0  0  0
  3  6  1  0  0  0  0
 38 41  1  0  0  0  0
 38 42  1  0  0  0  0
 38 43  1  0  0  0  0
 11 14  1  0  0  0  0
 11 15  1  0  0  0  0
 11 16  1  0  0  0  0
 45 47  1  0  0  0  0
 45 48  1  0  0  0  0
 45 49  1  0  0  0  0
 21 29  1  0  0  0  0
 21 30  1  0  0  0  0
 35 40  1  0  0  0  0
  8 13  1  0  0  0  0
 18 28  1  0  0  0  0
 26 33  1  0  0  0  0
 44 46  1  0  0  0  0
  7 12  1  0  0  0  0
 34 39  1  0  0  0  0
 17 27  1  0  0  0  0
M  END
$$$$

  -OEChem-05262214473D

 49 49  0     1  0  0  0  0  0999 V2000
   -1.6183    0.5613    3.8201 C   0  0  0  0  0  0  0  0  0  0  0  0
   -0.6710   -0.0534    3.3444 O   0  0  0  0  0  0  0  0  0  0  0  0
   -2.0502    0.2789    5.2208 C   0  0  0  0  0  0  0  0  0  0  0  0
   -2.8099   -0.5175    5.2742 H   0  0  0  0  0  0  0  0  0  0  0  0
   -1.2190   -0.0687    5.8551 H   0  0  0  0  0  0  0  0  0  0  0  0
   -2.4882    1.1338    5.7604 H   0  0  0  0  0  0  0  0  0  0  0  0
   -2.3680    1.5337    3.1790 N   0  0  0  0  0  0  0  0  0  0  0  0
   -2.1212    1.9597    1.8266 C   0  0  2  0  0  0  0  0  0  0  0  0
   -0.7862    1.3744    1.3854 C   0  0  0  0  0  0  0  0  0  0  0  0
    0.0859    1.0216    2.1767 O   0  0  0  0  0  0  0  0  0  0  0  0
   -2.1124    3.4765    1.7171 C   0  0  0  0  0  0  0  0  0  0  0  0
   -3.1331    1.9695    3.6908 H   0  0  0  0  0  0  0  0  0  0  0  0
   -2.9253    1.5413    1.2115 H   0  0  0  0  0  0  0  0  0  0  0  0
   -1.3133    3.9138    2.3268 H   0  0  0  0  0  0  0  0  0  0  0  0
   -1.9529    3.7988    0.6829 H   0  0  0  0  0  0  0  0  0  0  0  0
   -3.0626    3.8977    2.0629 H   0  0  0  0  0  0  0  0  0  0  0  0
   -0.6635    1.3313    0.0020 N   0  0  0  0  0  0  0  0  0  0  0  0
    0.5138    0.8305   -0.6617 C   0  0  2  0  0  0  0  0  0  0  0  0
    1.5957    1.8960   -0.5258 C   0  0  0  0  0  0  0  0  0  0  0  0
    2.6856    1.6796   -0.0003 O   0  0  0  0  0  0  0  0  0  0  0  0
    0.2562    0.5180   -2.1402 C   0  0  0  0  0  0  0  0  0  0  0  0
   -0.7479   -0.5916   -2.3359 C   0  0  0  0  0  0  0  0  0  0  0  0
   -0.3974   -1.8989   -2.1083 N   0  0  0  0  0  0  0  0  0  0  0  0
   -2.0590   -0.4919   -2.7381 C   0  0  0  0  0  0  0  0  0  0  0  0
   -1.4861   -2.5877   -2.3695 C   0  0  0  0  0  0  0  0  0  0  0  0
   -2.5185   -1.7787   -2.7553 N   0  0  0  0  0  0  0  0  0  0  0  0
   -1.4467    1.6280   -0.5753 H   0  0  0  0  0  0  0  0  0  0  0  0
    0.8233   -0.0672   -0.1136 H   0  0  0  0  0  0  0  0  0  0  0  0
    1.1972    0.2577   -2.6436 H   0  0  0  0  0  0  0  0  0  0  0  0
   -0.1121    1.4109   -2.6624 H   0  0  0  0  0  0  0  0  0  0  0  0
   -2.6875    0.3454   -3.0053 H   0  0  0  0  0  0  0  0  0  0  0  0
   -1.5926   -3.6611   -2.2998 H   0  0  0  0  0  0  0  0  0  0  0  0
   -3.4513   -2.0778   -3.0064 H   0  0  0  0  0  0  0  0  0  0  0  0
    1.2161    3.0986   -1.1054 N   0  0  0  0  0  0  0  0  0  0  0  0
    2.0656    4.2675   -1.1367 C   0  0  2  0  0  0  0  0  0  0  0  0
    2.5820    4.5115    0.2751 C   0  0  0  0  0  0  0  0  0  0  0  0
    2.0143    4.0874    1.2796 O   0  0  0  0  0  0  0  0  0  0  0  0
    1.3155    5.4829   -1.6588 C   0  0  0  0  0  0  0  0  0  0  0  0
    0.2949    3.1605   -1.5289 H   0  0  0  0  0  0  0  0  0  0  0  0
    2.9063    4.0298   -1.7977 H   0  0  0  0  0  0  0  0  0  0  0  0
    0.4695    5.7363   -1.0095 H   0  0  0  0  0  0  0  0  0  0  0  0
    1.9682    6.3607   -1.7088 H   0  0  0  0  0  0  0  0  0  0  0  0
    0.9193    5.2949   -2.6626 H   0  0  0  0  0  0  0  0  0  0  0  0
    3.7275    5.2950    0.2837 N   0  0  0  0  0  0  0  0  0  0  0  0
    4.4018    5.6769    1.5025 C   0  0  0  0  0  0  0  0  0  0  0  0
    4.1401    5.5866   -0.5975 H   0  0  0  0  0  0  0  0  0  0  0  0
    4.0203    6.6506    1.8436 H   0  0  0  0  0  0  0  0  0  0  0  0
    4.2157    4.9185    2.2774 H   0  0  0  0  0  0  0  0  0  0  0  0
    5.4831    5.7520    1.3151 H   0  0  0  0  0  0  0  0  0  0  0  0
 22 24  2  0  0  0  0
 24 26  1  0  0  0  0
 23 25  2  0  0  0  0
 25 26  1  0  0  0  0
 21 22  1  0  0  0  0
 22 23  1  0  0  0  0
  1  3  1  0  0  0  0
  1  7  1  0  0  0  0
  1  2  2  0  0  0  0
 35 36  1  0  0  0  0
 36 44  1  0  0  0  0
 36 37  2  0  0  0  0
  8  9  1  0  0  0  0
  9 17  1  0  0  0  0
  9 10  2  0  0  0  0
 18 19  1  0  0  0  0
 19 34  1  0  0  0  0
 19 20  2  0  0  0  0
 35 38  1  0  0  0  0
  8 11  1  0  0  0  0
 44 45  1  0  0  0  0
 18 21  1  0  0  0  0
 34 35  1  0  0  0  0
  7  8  1  0  0  0  0
 17 18  1  0  0  0  0
 24 31  1  0  0  0  0
 25 32  1  0  0  0  0
  3  4  1  0  0  0  0
  3  5  1  0  0  0  0
  3  6  1  0  0  0  0
 38 41  1  0  0  0  0
 38 42  1  0  0  0  0
 38 43  1  0  0  0  0
 11 14  1  0  0  0  0
 11 15  1  0  0  0  0
 11 16  1  0  0  0  0
 45 47  1  0  0  0  0
 45 48  1  0  0  0  0
 45 49  1  0  0  0  0
 21 29  1  0  0  0  0
 21 30  1  0  0  0  0
 35 40  1  0  0  0  0
  8 13  1  0  0  0  0
 18 28  1  0  0  0  0
 26 33  1  0  0  0  0
 44 46  1  0  0  0  0
  7 12  1  0  0  0  0
 34 39  1  0  0  0  0
 17 27  1  0  0  0  0
M  END
$$$$

  -OEChem-05262214473D

 49 49  0     1  0  0  0  0  0999 V2000
   -1.6183    0.5613    3.8201 C   0  0  0  0  0  0  0  0  0  0  0  0
   -0.6710   -0.0534    3.3444 O   0  0  0  0  0  0  0  0  0  0  0  0
   -2.0502    0.2789    5.2208 C   0  0  0  0  0  0  0  0  0  0  0  0
   -2.8099   -0.5175    5.2742 H   0  0  0  0  0  0  0  0  0  0  0  0
   -1.2190   -0.0687    5.8551 H   0  0  0  0  0  0  0  0  0  0  0  0
   -2.4882    1.1338    5.7604 H   0  0  0  0  0  0  0  0  0  0  0  0
   -2.3680    1.5337    3.1790 N   0  0  0  0  0  0  0  0  0  0  0  0
   -2.1212    1.9597    1.8266 C   0  0  2  0  0  0  0  0  0  0  0  0
   -0.7862    1.3744    1.3854 C   0  0  0  0  0  0  0  0  0  0  0  0
    0.0859    1.0216    2.1767 O   0  0  0  0  0  0  0  0  0  0  0  0
   -2.1124    3.4765    1.7171 C   0  0  0  0  0  0  0  0  0  0  0  0
   -3.1331    1.9695    3.6908 H   0  0  0  0  0  0  0  0  0  0  0  0
   -2.9253    1.5413    1.2115 H   0  0  0  0  0  0  0  0  0  0  0  0
   -1.3133    3.9138    2.3268 H   0  0  0  0  0  0  0  0  0  0  0  0
   -1.9529    3.7988    0.6829 H   0  0  0  0  0  0  0  0  0  0  0  0
   -3.0626    3.8977    2.0629 H   0  0  0  0  0  0  0  0  0  0  0  0
   -0.6635    1.3313    0.0020 N   0  0  0  0  0  0  0  0  0  0  0  0
    0.5138    0.8305   -0.6617 C   0  0  2  0  0  0  0  0  0  0  0  0
    1.5957    1.8960   -0.5258 C   0  0  0  0  0  0  0  0  0  0  0  0
    2.7647    1.6316   -0.2531 O   0  0  0  0  0  0  0  0  0  0  0  0
    0.2562    0.5180   -2.1402 C   0  0  0  0  0  0  0  0  0  0  0  0
   -0.7479   -0.5916   -2.3359 C   0  0  0  0  0  0  0  0  0  0  0  0
   -0.3974   -1.8989   -2.1083 N   0  0  0  0  0  0  0  0  0  0  0  0
   -2.0590   -0.4919   -2.7381 C   0  0  0  0  0  0  0  0  0  0  0  0
   -1.4861   -2.5877   -2.3695 C   0  0  0  0  0  0  0  0  0  0  0  0
   -2.5185   -1.7787   -2.7553 N   0  0  0  0  0  0  0  0  0  0  0  0
   -1.4467    1.6280   -0.5753 H   0  0  0  0  0  0  0  0  0  0  0  0
    0.8233   -0.0672   -0.1136 H   0  0  0  0  0  0  0  0  0  0  0  0
    1.1972    0.2577   -2.6436 H   0  0  0  0  0  0  0  0  0  0  0  0
   -0.1121    1.4109   -2.6624 H   0  0  0  0  0  0  0  0  0  0  0  0
   -2.6875    0.3454   -3.0053 H   0  0  0  0  0  0  0  0  0  0  0  0
   -1.5926   -3.6611   -2.2998 H   0  0  0  0  0  0  0  0  0  0  0  0
   -3.4513   -2.0778   -3.0064 H   0  0  0  0  0  0  0  0  0  0  0  0
    1.1090    3.1677   -0.7946 N   0  0  0  0  0  0  0  0  0  0  0  0
    1.9313    4.3558   -0.7595 C   0  0  2  0  0  0  0  0  0  0  0  0
    2.6958    4.3599    0.5577 C   0  0  0  0  0  0  0  0  0  0  0  0
    2.3242    3.7382    1.5509 O   0  0  0  0  0  0  0  0  0  0  0  0
    1.0907    5.6149   -0.9040 C   0  0  0  0  0  0  0  0  0  0  0  0
    0.1255    3.2686   -1.0276 H   0  0  0  0  0  0  0  0  0  0  0  0
    2.6382    4.2759   -1.5925 H   0  0  0  0  0  0  0  0  0  0  0  0
    0.3764    5.7121   -0.0783 H   0  0  0  0  0  0  0  0  0  0  0  0
    1.7178    6.5125   -0.9059 H   0  0  0  0  0  0  0  0  0  0  0  0
    0.5187    5.5966   -1.8379 H   0  0  0  0  0  0  0  0  0  0  0  0
    3.8187    5.1740    0.5068 N   0  0  0  0  0  0  0  0  0  0  0  0
    4.7023    5.3548    1.6349 C   0  0  0  0  0  0  0  0  0  0  0  0
    4.0612    5.6369   -0.3641 H   0  0  0  0  0  0  0  0  0  0  0  0
    4.3837    6.2344    2.2135 H   0  0  0  0  0  0  0  0  0  0  0  0
    4.6659    4.4616    2.2759 H   0  0  0  0  0  0  0  0  0  0  0  0
    5.7305    5.5059    1.2746 H   0  0  0  0  0  0  0  0  0  0  0  0
 22 24  2  0  0  0  0
 24 26  1  0  0  0  0
 23 25  2  0  0  0  0
 25 26  1  0  0  0  0
 21 22  1  0  0  0  0
 22 23  1  0  0  0  0
  1  3  1  0  0  0  0
  1  7  1  0  0  0  0
  1  2  2  0  0  0  0
 35 36  1  0  0  0  0
 36 44  1  0  0  0  0
 36 37  2  0  0  0  0
  8  9  1  0  0  0  0
  9 17  1  0  0  0  0
  9 10  2  0  0  0  0
 18 19  1  0  0  0  0
 19 34  1  0  0  0  0
 19 20  2  0  0  0  0
 35 38  1  0  0  0  0
  8 11  1  0  0  0  0
 44 45  1  0  0  0  0
 18 21  1  0  0  0  0
 34 35  1  0  0  0  0
  7  8  1  0  0  0  0
 17 18  1  0  0  0  0
 24 31  1  0  0  0  0
 25 32  1  0  0  0  0
  3  4  1  0  0  0  0
  3  5  1  0  0  0  0
  3  6  1  0  0  0  0
 38 41  1  0  0  0  0
 38 42  1  0  0  0  0
 38 43  1  0  0  0  0
 11 14  1  0  0  0  0
 11 15  1  0  0  0  0
 11 16  1  0  0  0  0
 45 47  1  0  0  0  0
 45 48  1  0  0  0  0
 45 49  1  0  0  0  0
 21 29  1  0  0  0  0
 21 30  1  0  0  0  0
 35 40  1  0  0  0  0
  8 13  1  0  0  0  0
 18 28  1  0  0  0  0
 26 33  1  0  0  0  0
 44 46  1  0  0  0  0
  7 12  1  0  0  0  0
 34 39  1  0  0  0  0
 17 27  1  0  0  0  0
M  END
$$$$

  -OEChem-05262214473D

 49 49  0     1  0  0  0  0  0999 V2000
   -1.6183    0.5613    3.8201 C   0  0  0  0  0  0  0  0  0  0  0  0
   -0.6710   -0.0534    3.3444 O   0  0  0  0  0  0  0  0  0  0  0  0
   -2.0502    0.2789    5.2208 C   0  0  0  0  0  0  0  0  0  0  0  0
   -2.8099   -0.5175    5.2742 H   0  0  0  0  0  0  0  0  0  0  0  0
   -1.2190   -0.0687    5.8551 H   0  0  0  0  0  0  0  0  0  0  0  0
   -2.4882    1.1338    5.7604 H   0  0  0  0  0  0  0  0  0  0  0  0
   -2.3680    1.5337    3.1790 N   0  0  0  0  0  0  0  0  0  0  0  0
   -2.1212    1.9597    1.8266 C   0  0  2  0  0  0  0  0  0  0  0  0
   -0.7862    1.3744    1.3854 C   0  0  0  0  0  0  0  0  0  0  0  0
    0.0859    1.0216    2.1767 O   0  0  0  0  0  0  0  0  0  0  0  0
   -2.1124    3.4765    1.7171 C   0  0  0  0  0  0  0  0  0  0  0  0
   -3.1331    1.9695    3.6908 H   0  0  0  0  0  0  0  0  0  0  0  0
   -2.9253    1.5413    1.2115 H   0  0  0  0  0  0  0  0  0  0  0  0
   -1.3133    3.9138    2.3268 H   0  0  0  0  0  0  0  0  0  0  0  0
   -1.9529    3.7988    0.6829 H   0  0  0  0  0  0  0  0  0  0  0  0
   -3.0626    3.8977    2.0629 H   0  0  0  0  0  0  0  0  0  0  0  0
   -0.6635    1.3313    0.0020 N   0  0  0  0  0  0  0  0  0  0  0  0
    0.5138    0.8305   -0.6617 C   0  0  2  0  0  0  0  0  0  0  0  0
    1.5957    1.8960   -0.5258 C   0  0  0  0  0  0  0  0  0  0  0  0
    2.7964    1.6334   -0.5204 O   0  0  0  0  0  0  0  0  0  0  0  0
    0.2562    0.5180   -2.1402 C   0  0  0  0  0  0  0  0  0  0  0  0
   -0.7479   -0.5916   -2.3359 C   0  0  0  0  0  0  0  0  0  0  0  0
   -0.3974   -1.8989   -2.1083 N   0  0  0  0  0  0  0  0  0  0  0  0
   -2.0590   -0.4919   -2.7381 C   0  0  0  0  0  0  0  0  0  0  0  0
   -1.4861   -2.5877   -2.3695 C   0  0  0  0  0  0  0  0  0  0  0  0
   -2.5185   -1.7787   -2.7553 N   0  0  0  0  0  0  0  0  0  0  0  0
   -1.4467    1.6280   -0.5753 H   0  0  0  0  0  0  0  0  0  0  0  0
    0.8233   -0.0672   -0.1136 H   0  0  0  0  0  0  0  0  0  0  0  0
    1.1972    0.2577   -2.6436 H   0  0  0  0  0  0  0  0  0  0  0  0
   -0.1121    1.4109   -2.6624 H   0  0  0  0  0  0  0  0  0  0  0  0
   -2.6875    0.3454   -3.0053 H   0  0  0  0  0  0  0  0  0  0  0  0
   -1.5926   -3.6611   -2.2998 H   0  0  0  0  0  0  0  0  0  0  0  0
   -3.4513   -2.0778   -3.0064 H   0  0  0  0  0  0  0  0  0  0  0  0
    1.0603    3.1749   -0.4622 N   0  0  0  0  0  0  0  0  0  0  0  0
    1.8677    4.3688   -0.3545 C   0  0  2  0  0  0  0  0  0  0  0  0
    2.8604    4.1642    0.7822 C   0  0  0  0  0  0  0  0  0  0  0  0
    2.6807    3.3581    1.6928 O   0  0  0  0  0  0  0  0  0  0  0  0
    1.0072    5.5986   -0.1100 C   0  0  0  0  0  0  0  0  0  0  0  0
    0.0501    3.2770   -0.4929 H   0  0  0  0  0  0  0  0  0  0  0  0
    2.4107    4.4697   -1.3006 H   0  0  0  0  0  0  0  0  0  0  0  0
    0.4554    5.5156    0.8335 H   0  0  0  0  0  0  0  0  0  0  0  0
    1.6178    6.5060   -0.0572 H   0  0  0  0  0  0  0  0  0  0  0  0
    0.2740    5.7272   -0.9135 H   0  0  0  0  0  0  0  0  0  0  0  0
    3.9499    5.0182    0.6836 N   0  0  0  0  0  0  0  0  0  0  0  0
    5.0240    5.0264    1.6493 C   0  0  0  0  0  0  0  0  0  0  0  0
    4.0261    5.6409   -0.1152 H   0  0  0  0  0  0  0  0  0  0  0  0
    4.8113    5.7729    2.4287 H   0  0  0  0  0  0  0  0  0  0  0  0
    5.1110    4.0309    2.1091 H   0  0  0  0  0  0  0  0  0  0  0  0
    5.9679    5.2813    1.1454 H   0  0  0  0  0  0  0  0  0  0  0  0
 22 24  2  0  0  0  0
 24 26  1  0  0  0  0
 23 25  2  0  0  0  0
 25 26  1  0  0  0  0
 21 22  1  0  0  0  0
 22 23  1  0  0  0  0
  1  3  1  0  0  0  0
  1  7  1  0  0  0  0
  1  2  2  0  0  0  0
 35 36  1  0  0  0  0
 36 44  1  0  0  0  0
 36 37  2  0  0  0  0
  8  9  1  0  0  0  0
  9 17  1  0  0  0  0
  9 10  2  0  0  0  0
 18 19  1  0  0  0  0
 19 34  1  0  0  0  0
 19 20  2  0  0  0  0
 35 38  1  0  0  0  0
  8 11  1  0  0  0  0
 44 45  1  0  0  0  0
 18 21  1  0  0  0  0
 34 35  1  0  0  0  0
  7  8  1  0  0  0  0
 17 18  1  0  0  0  0
 24 31  1  0  0  0  0
 25 32  1  0  0  0  0
  3  4  1  0  0  0  0
  3  5  1  0  0  0  0
  3  6  1  0  0  0  0
 38 41  1  0  0  0  0
 38 42  1  0  0  0  0
 38 43  1  0  0  0  0
 11 14  1  0  0  0  0
 11 15  1  0  0  0  0
 11 16  1  0  0  0  0
 45 47  1  0  0  0  0
 45 48  1  0  0  0  0
 45 49  1  0  0  0  0
 21 29  1  0  0  0  0
 21 30  1  0  0  0  0
 35 40  1  0  0  0  0
  8 13  1  0  0  0  0
 18 28  1  0  0  0  0
 26 33  1  0  0  0  0
 44 46  1  0  0  0  0
  7 12  1  0  0  0  0
 34 39  1  0  0  0  0
 17 27  1  0  0  0  0
M  END
$$$$

  -OEChem-05262214473D

 49 49  0     1  0  0  0  0  0999 V2000
   -1.6183    0.5613    3.8201 C   0  0  0  0  0  0  0  0  0  0  0  0
   -0.6710   -0.0534    3.3444 O   0  0  0  0  0  0  0  0  0  0  0  0
   -2.0502    0.2789    5.2208 C   0  0  0  0  0  0  0  0  0  0  0  0
   -2.8099   -0.5175    5.2742 H   0  0  0  0  0  0  0  0  0  0  0  0
   -1.2190   -0.0687    5.8551 H   0  0  0  0  0  0  0  0  0  0  0  0
   -2.4882    1.1338    5.7604 H   0  0  0  0  0  0  0  0  0  0  0  0
   -2.3680    1.5337    3.1790 N   0  0  0  0  0  0  0  0  0  0  0  0
   -2.1212    1.9597    1.8266 C   0  0  2  0  0  0  0  0  0  0  0  0
   -0.7862    1.3744    1.3854 C   0  0  0  0  0  0  0  0  0  0  0  0
    0.0859    1.0216    2.1767 O   0  0  0  0  0  0  0  0  0  0  0  0
   -2.1124    3.4765    1.7171 C   0  0  0  0  0  0  0  0  0  0  0  0
   -3.1331    1.9695    3.6908 H   0  0  0  0  0  0  0  0  0  0  0  0
   -2.9253    1.5413    1.2115 H   0  0  0  0  0  0  0  0  0  0  0  0
   -1.3133    3.9138    2.3268 H   0  0  0  0  0  0  0  0  0  0  0  0
   -1.9529    3.7988    0.6829 H   0  0  0  0  0  0  0  0  0  0  0  0
   -3.0626    3.8977    2.0629 H   0  0  0  0  0  0  0  0  0  0  0  0
   -0.6635    1.3313    0.0020 N   0  0  0  0  0  0  0  0  0  0  0  0
    0.5138    0.8305   -0.6617 C   0  0  2  0  0  0  0  0  0  0  0  0
    1.5957    1.8960   -0.5258 C   0  0  0  0  0  0  0  0  0  0  0  0
    2.7788    1.6849   -0.7840 O   0  0  0  0  0  0  0  0  0  0  0  0
    0.2562    0.5180   -2.1402 C   0  0  0  0  0  0  0  0  0  0  0  0
   -0.7479   -0.5916   -2.3359 C   0  0  0  0  0  0  0  0  0  0  0  0
   -0.3974   -1.8989   -2.1083 N   0  0  0  0  0  0  0  0  0  0  0  0
   -2.0590   -0.4919   -2.7381 C   0  0  0  0  0  0  0  0  0  0  0  0
   -1.4861   -2.5877   -2.3695 C   0  0  0  0  0  0  0  0  0  0  0  0
   -2.5185   -1.7787   -2.7553 N   0  0  0  0  0  0  0  0  0  0  0  0
   -1.4467    1.6280   -0.5753 H   0  0  0  0  0  0  0  0  0  0  0  0
    0.8233   -0.0672   -0.1136 H   0  0  0  0  0  0  0  0  0  0  0  0
    1.1972    0.2577   -2.6436 H   0  0  0  0  0  0  0  0  0  0  0  0
   -0.1121    1.4109   -2.6624 H   0  0  0  0  0  0  0  0  0  0  0  0
   -2.6875    0.3454   -3.0053 H   0  0  0  0  0  0  0  0  0  0  0  0
   -1.5926   -3.6611   -2.2998 H   0  0  0  0  0  0  0  0  0  0  0  0
   -3.4513   -2.0778   -3.0064 H   0  0  0  0  0  0  0  0  0  0  0  0
    1.0731    3.1197   -0.1310 N   0  0  0  0  0  0  0  0  0  0  0  0
    1.8792    4.3054    0.0505 C   0  0  2  0  0  0  0  0  0  0  0  0
    3.0644    3.9377    0.9334 C   0  0  0  0  0  0  0  0  0  0  0  0
    3.0594    2.9732    1.6955 O   0  0  0  0  0  0  0  0  0  0  0  0
    1.0704    5.4350    0.6690 C   0  0  0  0  0  0  0  0  0  0  0  0
    0.0738    3.1852    0.0388 H   0  0  0  0  0  0  0  0  0  0  0  0
    2.2392    4.5981   -0.9419 H   0  0  0  0  0  0  0  0  0  0  0  0
    0.7013    5.1602    1.6639 H   0  0  0  0  0  0  0  0  0  0  0  0
    1.6748    6.3414    0.7796 H   0  0  0  0  0  0  0  0  0  0  0  0
    0.2018    5.6780    0.0476 H   0  0  0  0  0  0  0  0  0  0  0  0
    4.1123    4.8382    0.8021 N   0  0  0  0  0  0  0  0  0  0  0  0
    5.3448    4.7139    1.5446 C   0  0  0  0  0  0  0  0  0  0  0  0
    4.0371    5.5982    0.1323 H   0  0  0  0  0  0  0  0  0  0  0  0
    5.2738    5.2974    2.4744 H   0  0  0  0  0  0  0  0  0  0  0  0
    5.5207    3.6558    1.7884 H   0  0  0  0  0  0  0  0  0  0  0  0
    6.1790    5.0936    0.9364 H   0  0  0  0  0  0  0  0  0  0  0  0
 22 24  2  0  0  0  0
 24 26  1  0  0  0  0
 23 25  2  0  0  0  0
 25 26  1  0  0  0  0
 21 22  1  0  0  0  0
 22 23  1  0  0  0  0
  1  3  1  0  0  0  0
  1  7  1  0  0  0  0
  1  2  2  0  0  0  0
 35 36  1  0  0  0  0
 36 44  1  0  0  0  0
 36 37  2  0  0  0  0
  8  9  1  0  0  0  0
  9 17  1  0  0  0  0
  9 10  2  0  0  0  0
 18 19  1  0  0  0  0
 19 34  1  0  0  0  0
 19 20  2  0  0  0  0
 35 38  1  0  0  0  0
  8 11  1  0  0  0  0
 44 45  1  0  0  0  0
 18 21  1  0  0  0  0
 34 35  1  0  0  0  0
  7  8  1  0  0  0  0
 17 18  1  0  0  0  0
 24 31  1  0  0  0  0
 25 32  1  0  0  0  0
  3  4  1  0  0  0  0
  3  5  1  0  0  0  0
  3  6  1  0  0  0  0
 38 41  1  0  0  0  0
 38 42  1  0  0  0  0
 38 43  1  0  0  0  0
 11 14  1  0  0  0  0
 11 15  1  0  0  0  0
 11 16  1  0  0  0  0
 45 47  1  0  0  0  0
 45 48  1  0  0  0  0
 45 49  1  0  0  0  0
 21 29  1  0  0  0  0
 21 30  1  0  0  0  0
 35 40  1  0  0  0  0
  8 13  1  0  0  0  0
 18 28  1  0  0  0  0
 26 33  1  0  0  0  0
 44 46  1  0  0  0  0
  7 12  1  0  0  0  0
 34 39  1  0  0  0  0
 17 27  1  0  0  0  0
M  END
$$$$

  -OEChem-05262214473D

 49 49  0     1  0  0  0  0  0999 V2000
   -1.6183    0.5613    3.8201 C   0  0  0  0  0  0  0  0  0  0  0  0
   -0.6710   -0.0534    3.3444 O   0  0  0  0  0  0  0  0  0  0  0  0
   -2.0502    0.2789    5.2208 C   0  0  0  0  0  0  0  0  0  0  0  0
   -2.8099   -0.5175    5.2742 H   0  0  0  0  0  0  0  0  0  0  0  0
   -1.2190   -0.0687    5.8551 H   0  0  0  0  0  0  0  0  0  0  0  0
   -2.4882    1.1338    5.7604 H   0  0  0  0  0  0  0  0  0  0  0  0
   -2.3680    1.5337    3.1790 N   0  0  0  0  0  0  0  0  0  0  0  0
   -2.1212    1.9597    1.8266 C   0  0  2  0  0  0  0  0  0  0  0  0
   -0.7862    1.3744    1.3854 C   0  0  0  0  0  0  0  0  0  0  0  0
    0.0859    1.0216    2.1767 O   0  0  0  0  0  0  0  0  0  0  0  0
   -2.1124    3.4765    1.7171 C   0  0  0  0  0  0  0  0  0  0  0  0
   -3.1331    1.9695    3.6908 H   0  0  0  0  0  0  0  0  0  0  0  0
   -2.9253    1.5413    1.2115 H   0  0  0  0  0  0  0  0  0  0  0  0
   -1.3133    3.9138    2.3268 H   0  0  0  0  0  0  0  0  0  0  0  0
   -1.9529    3.7988    0.6829 H   0  0  0  0  0  0  0  0  0  0  0  0
   -3.0626    3.8977    2.0629 H   0  0  0  0  0  0  0  0  0  0  0  0
   -0.6635    1.3313    0.0020 N   0  0  0  0  0  0  0  0  0  0  0  0
    0.5138    0.8305   -0.6617 C   0  0  2  0  0  0  0  0  0  0  0  0
    1.5957    1.8960   -0.5258 C   0  0  0  0  0  0  0  0  0  0  0  0
    2.7128    1.7827   -1.0259 O   0  0  0  0  0  0  0  0  0  0  0  0
    0.2562    0.5180   -2.1402 C   0  0  0  0  0  0  0  0  0  0  0  0
   -0.7479   -0.5916   -2.3359 C   0  0  0  0  0  0  0  0  0  0  0  0
   -0.3974   -1.8989   -2.1083 N   0  0  0  0  0  0  0  0  0  0  0  0
   -2.0590   -0.4919   -2.7381 C   0  0  0  0  0  0  0  0  0  0  0  0
   -1.4861   -2.5877   -2.3695 C   0  0  0  0  0  0  0  0  0  0  0  0
   -2.5185   -1.7787   -2.7553 N   0  0  0  0  0  0  0  0  0  0  0  0
   -1.4467    1.6280   -0.5753 H   0  0  0  0  0  0  0  0  0  0  0  0
    0.8233   -0.0672   -0.1136 H   0  0  0  0  0  0  0  0  0  0  0  0
    1.1972    0.2577   -2.6436 H   0  0  0  0  0  0  0  0  0  0  0  0
   -0.1121    1.4109   -2.6624 H   0  0  0  0  0  0  0  0  0  0  0  0
   -2.6875    0.3454   -3.0053 H   0  0  0  0  0  0  0  0  0  0  0  0
   -1.5926   -3.6611   -2.2998 H   0  0  0  0  0  0  0  0  0  0  0  0
   -3.4513   -2.0778   -3.0064 H   0  0  0  0  0  0  0  0  0  0  0  0
    1.1467    3.0058    0.1764 N   0  0  0  0  0  0  0  0  0  0  0  0
    1.9651    4.1701    0.4280 C   0  0  2  0  0  0  0  0  0  0  0  0
    3.2941    3.6959    1.0009 C   0  0  0  0  0  0  0  0  0  0  0  0
    3.4346    2.6096    1.5589 O   0  0  0  0  0  0  0  0  0  0  0  0
    1.2762    5.1354    1.3801 C   0  0  0  0  0  0  0  0  0  0  0  0
    0.1949    2.9994    0.5313 H   0  0  0  0  0  0  0  0  0  0  0  0
    2.1355    4.6522   -0.5408 H   0  0  0  0  0  0  0  0  0  0  0  0
    1.0971    4.6700    2.3562 H   0  0  0  0  0  0  0  0  0  0  0  0
    1.8850    6.0301    1.5472 H   0  0  0  0  0  0  0  0  0  0  0  0
    0.3070    5.4523    0.9801 H   0  0  0  0  0  0  0  0  0  0  0  0
    4.2946    4.6464    0.8540 N   0  0  0  0  0  0  0  0  0  0  0  0
    5.6430    4.4387    1.3281 C   0  0  0  0  0  0  0  0  0  0  0  0
    4.0934    5.5117    0.3615 H   0  0  0  0  0  0  0  0  0  0  0  0
    5.7398    4.8404    2.3475 H   0  0  0  0  0  0  0  0  0  0  0  0
    5.8671    3.3618    1.3356 H   0  0  0  0  0  0  0  0  0  0  0  0
    6.3495    4.9555    0.6619 H   0  0  0  0  0  0  0  0  0  0  0  0
 22 24  2  0  0  0  0
 24 26  1  0  0  0  0
 23 25  2  0  0  0  0
 25 26  1  0  0  0  0
 21 22  1  0  0  0  0
 22 23  1  0  0  0  0
  1  3  1  0  0  0  0
  1  7  1  0  0  0  0
  1  2  2  0  0  0  0
 35 36  1  0  0  0  0
 36 44  1  0  0  0  0
 36 37  2  0  0  0  0
  8  9  1  0  0  0  0
  9 17  1  0  0  0  0
  9 10  2  0  0  0  0
 18 19  1  0  0  0  0
 19 34  1  0  0  0  0
 19 20  2  0  0  0  0
 35 38  1  0  0  0  0
  8 11  1  0  0  0  0
 44 45  1  0  0  0  0
 18 21  1  0  0  0  0
 34 35  1  0  0  0  0
  7  8  1  0  0  0  0
 17 18  1  0  0  0  0
 24 31  1  0  0  0  0
 25 32  1  0  0  0  0
  3  4  1  0  0  0  0
  3  5  1  0  0  0  0
  3  6  1  0  0  0  0
 38 41  1  0  0  0  0
 38 42  1  0  0  0  0
 38 43  1  0  0  0  0
 11 14  1  0  0  0  0
 11 15  1  0  0  0  0
 11 16  1  0  0  0  0
 45 47  1  0  0  0  0
 45 48  1  0  0  0  0
 45 49  1  0  0  0  0
 21 29  1  0  0  0  0
 21 30  1  0  0  0  0
 35 40  1  0  0  0  0
  8 13  1  0  0  0  0
 18 28  1  0  0  0  0
 26 33  1  0  0  0  0
 44 46  1  0  0  0  0
  7 12  1  0  0  0  0
 34 39  1  0  0  0  0
 17 27  1  0  0  0  0
M  END
$$$$

  -OEChem-05262214473D

 49 49  0     1  0  0  0  0  0999 V2000
   -1.6183    0.5613    3.8201 C   0  0  0  0  0  0  0  0  0  0  0  0
   -0.6710   -0.0534    3.3444 O   0  0  0  0  0  0  0  0  0  0  0  0
   -2.0502    0.2789    5.2208 C   0  0  0  0  0  0  0  0  0  0  0  0
   -2.8099   -0.5175    5.2742 H   0  0  0  0  0  0  0  0  0  0  0  0
   -1.2190   -0.0687    5.8551 H   0  0  0  0  0  0  0  0  0  0  0  0
   -2.4882    1.1338    5.7604 H   0  0  0  0  0  0  0  0  0  0  0  0
   -2.3680    1.5337    3.1790 N   0  0  0  0  0  0  0  0  0  0  0  0
   -2.1212    1.9597    1.8266 C   0  0  2  0  0  0  0  0  0  0  0  0
   -0.7862    1.3744    1.3854 C   0  0  0  0  0  0  0  0  0  0  0  0
    0.0859    1.0216    2.1767 O   0  0  0  0  0  0  0  0  0  0  0  0
   -2.1124    3.4765    1.7171 C   0  0  0  0  0  0  0  0  0  0  0  0
   -3.1331    1.9695    3.6908 H   0  0  0  0  0  0  0  0  0  0  0  0
   -2.9253    1.5413    1.2115 H   0  0  0  0  0  0  0  0  0  0  0  0
   -1.3133    3.9138    2.3268 H   0  0  0  0  0  0  0  0  0  0  0  0
   -1.9529    3.7988    0.6829 H   0  0  0  0  0  0  0  0  0  0  0  0
   -3.0626    3.8977    2.0629 H   0  0  0  0  0  0  0  0  0  0  0  0
   -0.6635    1.3313    0.0020 N   0  0  0  0  0  0  0  0  0  0  0  0
    0.5138    0.8305   -0.6617 C   0  0  2  0  0  0  0  0  0  0  0  0
    1.5957    1.8960   -0.5258 C   0  0  0  0  0  0  0  0  0  0  0  0
    2.6031    1.9201   -1.2297 O   0  0  0  0  0  0  0  0  0  0  0  0
    0.2562    0.5180   -2.1402 C   0  0  0  0  0  0  0  0  0  0  0  0
   -0.7479   -0.5916   -2.3359 C   0  0  0  0  0  0  0  0  0  0  0  0
   -0.3974   -1.8989   -2.1083 N   0  0  0  0  0  0  0  0  0  0  0  0
   -2.0590   -0.4919   -2.7381 C   0  0  0  0  0  0  0  0  0  0  0  0
   -1.4861   -2.5877   -2.3695 C   0  0  0  0  0  0  0  0  0  0  0  0
   -2.5185   -1.7787   -2.7553 N   0  0  0  0  0  0  0  0  0  0  0  0
   -1.4467    1.6280   -0.5753 H   0  0  0  0  0  0  0  0  0  0  0  0
    0.8233   -0.0672   -0.1136 H   0  0  0  0  0  0  0  0  0  0  0  0
    1.1972    0.2577   -2.6436 H   0  0  0  0  0  0  0  0  0  0  0  0
   -0.1121    1.4109   -2.6624 H   0  0  0  0  0  0  0  0  0  0  0  0
   -2.6875    0.3454   -3.0053 H   0  0  0  0  0  0  0  0  0  0  0  0
   -1.5926   -3.6611   -2.2998 H   0  0  0  0  0  0  0  0  0  0  0  0
   -3.4513   -2.0778   -3.0064 H   0  0  0  0  0  0  0  0  0  0  0  0
    1.2759    2.8410    0.4391 N   0  0  0  0  0  0  0  0  0  0  0  0
    2.1194    3.9721    0.7522 C   0  0  2  0  0  0  0  0  0  0  0  0
    3.5338    3.4552    0.9801 C   0  0  0  0  0  0  0  0  0  0  0  0
    3.7807    2.2922    1.2924 O   0  0  0  0  0  0  0  0  0  0  0  0
    1.6105    4.7202    1.9746 C   0  0  0  0  0  0  0  0  0  0  0  0
    0.4053    2.7322    0.9509 H   0  0  0  0  0  0  0  0  0  0  0  0
    2.1067    4.6285   -0.1247 H   0  0  0  0  0  0  0  0  0  0  0  0
    1.6160    4.0785    2.8633 H   0  0  0  0  0  0  0  0  0  0  0  0
    2.2341    5.5932    2.1935 H   0  0  0  0  0  0  0  0  0  0  0  0
    0.5826    5.0654    1.8202 H   0  0  0  0  0  0  0  0  0  0  0  0
    4.4846    4.4558    0.8360 N   0  0  0  0  0  0  0  0  0  0  0  0
    5.8983    4.2195    1.0144 C   0  0  0  0  0  0  0  0  0  0  0  0
    4.1913    5.3874    0.5569 H   0  0  0  0  0  0  0  0  0  0  0  0
    6.1775    4.4330    2.0568 H   0  0  0  0  0  0  0  0  0  0  0  0
    6.1265    3.1690    0.7816 H   0  0  0  0  0  0  0  0  0  0  0  0
    6.4676    4.8765    0.3405 H   0  0  0  0  0  0  0  0  0  0  0  0
 22 24  2  0  0  0  0
 24 26  1  0  0  0  0
 23 25  2  0  0  0  0
 25 26  1  0  0  0  0
 21 22  1  0  0  0  0
 22 23  1  0  0  0  0
  1  3  1  0  0  0  0
  1  7  1  0  0  0  0
  1  2  2  0  0  0  0
 35 36  1  0  0  0  0
 36 44  1  0  0  0  0
 36 37  2  0  0  0  0
  8  9  1  0  0  0  0
  9 17  1  0  0  0  0
  9 10  2  0  0  0  0
 18 19  1  0  0  0  0
 19 34  1  0  0  0  0
 19 20  2  0  0  0  0
 35 38  1  0  0  0  0
  8 11  1  0  0  0  0
 44 45  1  0  0  0  0
 18 21  1  0  0  0  0
 34 35  1  0  0  0  0
  7  8  1  0  0  0  0
 17 18  1  0  0  0  0
 24 31  1  0  0  0  0
 25 32  1  0  0  0  0
  3  4  1  0  0  0  0
  3  5  1  0  0  0  0
  3  6  1  0  0  0  0
 38 41  1  0  0  0  0
 38 42  1  0  0  0  0
 38 43  1  0  0  0  0
 11 14  1  0  0  0  0
 11 15  1  0  0  0  0
 11 16  1  0  0  0  0
 45 47  1  0  0  0  0
 45 48  1  0  0  0  0
 45 49  1  0  0  0  0
 21 29  1  0  0  0  0
 21 30  1  0  0  0  0
 35 40  1  0  0  0  0
  8 13  1  0  0  0  0
 18 28  1  0  0  0  0
 26 33  1  0  0  0  0
 44 46  1  0  0  0  0
  7 12  1  0  0  0  0
 34 39  1  0  0  0  0
 17 27  1  0  0  0  0
M  END
$$$$

  -OEChem-05262214473D

 49 49  0     1  0  0  0  0  0999 V2000
   -1.6183    0.5613    3.8201 C   0  0  0  0  0  0  0  0  0  0  0  0
   -0.6710   -0.0534    3.3444 O   0  0  0  0  0  0  0  0  0  0  0  0
   -2.0502    0.2789    5.2208 C   0  0  0  0  0  0  0  0  0  0  0  0
   -2.8099   -0.5175    5.2742 H   0  0  0  0  0  0  0  0  0  0  0  0
   -1.2190   -0.0687    5.8551 H   0  0  0  0  0  0  0  0  0  0  0  0
   -2.4882    1.1338    5.7604 H   0  0  0  0  0  0  0  0  0  0  0  0
   -2.3680    1.5337    3.1790 N   0  0  0  0  0  0  0  0  0  0  0  0
   -2.1212    1.9597    1.8266 C   0  0  2  0  0  0  0  0  0  0  0  0
   -0.7862    1.3744    1.3854 C   0  0  0  0  0  0  0  0  0  0  0  0
    0.0859    1.0216    2.1767 O   0  0  0  0  0  0  0  0  0  0  0  0
   -2.1124    3.4765    1.7171 C   0  0  0  0  0  0  0  0  0  0  0  0
   -3.1331    1.9695    3.6908 H   0  0  0  0  0  0  0  0  0  0  0  0
   -2.9253    1.5413    1.2115 H   0  0  0  0  0  0  0  0  0  0  0  0
   -1.3133    3.9138    2.3268 H   0  0  0  0  0  0  0  0  0  0  0  0
   -1.9529    3.7988    0.6829 H   0  0  0  0  0  0  0  0  0  0  0  0
   -3.0626    3.8977    2.0629 H   0  0  0  0  0  0  0  0  0  0  0  0
   -0.6635    1.3313    0.0020 N   0  0  0  0  0  0  0  0  0  0  0  0
    0.5138    0.8305   -0.6617 C   0  0  2  0  0  0  0  0  0  0  0  0
    1.5957    1.8960   -0.5258 C   0  0  0  0  0  0  0  0  0  0  0  0
    2.4570    2.0878   -1.3815 O   0  0  0  0  0  0  0  0  0  0  0  0
    0.2562    0.5180   -2.1402 C   0  0  0  0  0  0  0  0  0  0  0  0
   -0.7479   -0.5916   -2.3359 C   0  0  0  0  0  0  0  0  0  0  0  0
   -0.3974   -1.8989   -2.1083 N   0  0  0  0  0  0  0  0  0  0  0  0
   -2.0590   -0.4919   -2.7381 C   0  0  0  0  0  0  0  0  0  0  0  0
   -1.4861   -2.5877   -2.3695 C   0  0  0  0  0  0  0  0  0  0  0  0
   -2.5185   -1.7787   -2.7553 N   0  0  0  0  0  0  0  0  0  0  0  0
   -1.4467    1.6280   -0.5753 H   0  0  0  0  0  0  0  0  0  0  0  0
    0.8233   -0.0672   -0.1136 H   0  0  0  0  0  0  0  0  0  0  0  0
    1.1972    0.2577   -2.6436 H   0  0  0  0  0  0  0  0  0  0  0  0
   -0.1121    1.4109   -2.6624 H   0  0  0  0  0  0  0  0  0  0  0  0
   -2.6875    0.3454   -3.0053 H   0  0  0  0  0  0  0  0  0  0  0  0
   -1.5926   -3.6611   -2.2998 H   0  0  0  0  0  0  0  0  0  0  0  0
   -3.4513   -2.0778   -3.0064 H   0  0  0  0  0  0  0  0  0  0  0  0
    1.4522    2.6366    0.6392 N   0  0  0  0  0  0  0  0  0  0  0  0
    2.3317    3.7248    1.0012 C   0  0  2  0  0  0  0  0  0  0  0  0
    3.7670    3.2320    0.8725 C   0  0  0  0  0  0  0  0  0  0  0  0
    4.0741    2.0425    0.9140 O   0  0  0  0  0  0  0  0  0  0  0  0
    2.0506    4.2176    2.4121 C   0  0  0  0  0  0  0  0  0  0  0  0
    0.6906    2.4020    1.2691 H   0  0  0  0  0  0  0  0  0  0  0  0
    2.1547    4.5284    0.2781 H   0  0  0  0  0  0  0  0  0  0  0  0
    2.2225    3.4260    3.1506 H   0  0  0  0  0  0  0  0  0  0  0  0
    2.6983    5.0606    2.6744 H   0  0  0  0  0  0  0  0  0  0  0  0
    1.0096    4.5437    2.5109 H   0  0  0  0  0  0  0  0  0  0  0  0
    4.6693    4.2794    0.7492 N   0  0  0  0  0  0  0  0  0  0  0  0
    6.0931    4.0713    0.6251 C   0  0  0  0  0  0  0  0  0  0  0  0
    4.3241    5.2337    0.7050 H   0  0  0  0  0  0  0  0  0  0  0  0
    6.5571    4.1029    1.6219 H   0  0  0  0  0  0  0  0  0  0  0  0
    6.2814    3.0904    0.1641 H   0  0  0  0  0  0  0  0  0  0  0  0
    6.5254    4.8620   -0.0058 H   0  0  0  0  0  0  0  0  0  0  0  0
 22 24  2  0  0  0  0
 24 26  1  0  0  0  0
 23 25  2  0  0  0  0
 25 26  1  0  0  0  0
 21 22  1  0  0  0  0
 22 23  1  0  0  0  0
  1  3  1  0  0  0  0
  1  7  1  0  0  0  0
  1  2  2  0  0  0  0
 35 36  1  0  0  0  0
 36 44  1  0  0  0  0
 36 37  2  0  0  0  0
  8  9  1  0  0  0  0
  9 17  1  0  0  0  0
  9 10  2  0  0  0  0
 18 19  1  0  0  0  0
 19 34  1  0  0  0  0
 19 20  2  0  0  0  0
 35 38  1  0  0  0  0
  8 11  1  0  0  0  0
 44 45  1  0  0  0  0
 18 21  1  0  0  0  0
 34 35  1  0  0  0  0
  7  8  1  0  0  0  0
 17 18  1  0  0  0  0
 24 31  1  0  0  0  0
 25 32  1  0  0  0  0
  3  4  1  0  0  0  0
  3  5  1  0  0  0  0
  3  6  1  0  0  0  0
 38 41  1  0  0  0  0
 38 42  1  0  0  0  0
 38 43  1  0  0  0  0
 11 14  1  0  0  0  0
 11 15  1  0  0  0  0
 11 16  1  0  0  0  0
 45 47  1  0  0  0  0
 45 48  1  0  0  0  0
 45 49  1  0  0  0  0
 21 29  1  0  0  0  0
 21 30  1  0  0  0  0
 35 40  1  0  0  0  0
  8 13  1  0  0  0  0
 18 28  1  0  0  0  0
 26 33  1  0  0  0  0
 44 46  1  0  0  0  0
  7 12  1  0  0  0  0
 34 39  1  0  0  0  0
 17 27  1  0  0  0  0
M  END
$$$$

  -OEChem-05262214473D

 49 49  0     1  0  0  0  0  0999 V2000
   -1.6183    0.5613    3.8201 C   0  0  0  0  0  0  0  0  0  0  0  0
   -0.6710   -0.0534    3.3444 O   0  0  0  0  0  0  0  0  0  0  0  0
   -2.0502    0.2789    5.2208 C   0  0  0  0  0  0  0  0  0  0  0  0
   -2.8099   -0.5175    5.2742 H   0  0  0  0  0  0  0  0  0  0  0  0
   -1.2190   -0.0687    5.8551 H   0  0  0  0  0  0  0  0  0  0  0  0
   -2.4882    1.1338    5.7604 H   0  0  0  0  0  0  0  0  0  0  0  0
   -2.3680    1.5337    3.1790 N   0  0  0  0  0  0  0  0  0  0  0  0
   -2.1212    1.9597    1.8266 C   0  0  2  0  0  0  0  0  0  0  0  0
   -0.7862    1.3744    1.3854 C   0  0  0  0  0  0  0  0  0  0  0  0
    0.0859    1.0216    2.1767 O   0  0  0  0  0  0  0  0  0  0  0  0
   -2.1124    3.4765    1.7171 C   0  0  0  0  0  0  0  0  0  0  0  0
   -3.1331    1.9695    3.6908 H   0  0  0  0  0  0  0  0  0  0  0  0
   -2.9253    1.5413    1.2115 H   0  0  0  0  0  0  0  0  0  0  0  0
   -1.3133    3.9138    2.3268 H   0  0  0  0  0  0  0  0  0  0  0  0
   -1.9529    3.7988    0.6829 H   0  0  0  0  0  0  0  0  0  0  0  0
   -3.0626    3.8977    2.0629 H   0  0  0  0  0  0  0  0  0  0  0  0
   -0.6635    1.3313    0.0020 N   0  0  0  0  0  0  0  0  0  0  0  0
    0.5138    0.8305   -0.6617 C   0  0  2  0  0  0  0  0  0  0  0  0
    1.5957    1.8960   -0.5258 C   0  0  0  0  0  0  0  0  0  0  0  0
    2.2847    2.2742   -1.4709 O   0  0  0  0  0  0  0  0  0  0  0  0
    0.2562    0.5180   -2.1402 C   0  0  0  0  0  0  0  0  0  0  0  0
   -0.7479   -0.5916   -2.3359 C   0  0  0  0  0  0  0  0  0  0  0  0
   -0.3974   -1.8989   -2.1083 N   0  0  0  0  0  0  0  0  0  0  0  0
   -2.0590   -0.4919   -2.7381 C   0  0  0  0  0  0  0  0  0  0  0  0
   -1.4861   -2.5877   -2.3695 C   0  0  0  0  0  0  0  0  0  0  0  0
   -2.5185   -1.7787   -2.7553 N   0  0  0  0  0  0  0  0  0  0  0  0
   -1.4467    1.6280   -0.5753 H   0  0  0  0  0  0  0  0  0  0  0  0
    0.8233   -0.0672   -0.1136 H   0  0  0  0  0  0  0  0  0  0  0  0
    1.1972    0.2577   -2.6436 H   0  0  0  0  0  0  0  0  0  0  0  0
   -0.1121    1.4109   -2.6624 H   0  0  0  0  0  0  0  0  0  0  0  0
   -2.6875    0.3454   -3.0053 H   0  0  0  0  0  0  0  0  0  0  0  0
   -1.5926   -3.6611   -2.2998 H   0  0  0  0  0  0  0  0  0  0  0  0
   -3.4513   -2.0778   -3.0064 H   0  0  0  0  0  0  0  0  0  0  0  0
    1.6633    2.4064    0.7631 N   0  0  0  0  0  0  0  0  0  0  0  0
    2.5875    3.4451    1.1578 C   0  0  2  0  0  0  0  0  0  0  0  0
    3.9780    3.0416    0.6854 C   0  0  0  0  0  0  0  0  0  0  0  0
    4.2949    1.8776    0.4496 O   0  0  0  0  0  0  0  0  0  0  0  0
    2.5664    3.6619    2.6629 C   0  0  0  0  0  0  0  0  0  0  0  0
    1.0314    2.0311    1.4642 H   0  0  0  0  0  0  0  0  0  0  0  0
    2.2762    4.3589    0.6401 H   0  0  0  0  0  0  0  0  0  0  0  0
    2.8754    2.7569    3.1985 H   0  0  0  0  0  0  0  0  0  0  0  0
    3.2460    4.4684    2.9571 H   0  0  0  0  0  0  0  0  0  0  0  0
    1.5591    3.9229    3.0049 H   0  0  0  0  0  0  0  0  0  0  0  0
    4.8360    4.1291    0.5996 N   0  0  0  0  0  0  0  0  0  0  0  0
    6.2143    4.0041    0.1865 C   0  0  0  0  0  0  0  0  0  0  0  0
    4.4827    5.0610    0.7959 H   0  0  0  0  0  0  0  0  0  0  0  0
    6.8528    3.8728    1.0726 H   0  0  0  0  0  0  0  0  0  0  0  0
    6.3210    3.1316   -0.4748 H   0  0  0  0  0  0  0  0  0  0  0  0
    6.5190    4.9128   -0.3534 H   0  0  0  0  0  0  0  0  0  0  0  0
 22 24  2  0  0  0  0
 24 26  1  0  0  0  0
 23 25  2  0  0  0  0
 25 26  1  0  0  0  0
 21 22  1  0  0  0  0
 22 23  1  0  0  0  0
  1  3  1  0  0  0  0
  1  7  1  0  0  0  0
  1  2  2  0  0  0  0
 35 36  1  0  0  0  0
 36 44  1  0  0  0  0
 36 37  2  0  0  0  0
  8  9  1  0  0  0  0
  9 17  1  0  0  0  0
  9 10  2  0  0  0  0
 18 19  1  0  0  0  0
 19 34  1  0  0  0  0
 19 20  2  0  0  0  0
 35 38  1  0  0  0  0
  8 11  1  0  0  0  0
 44 45  1  0  0  0  0
 18 21  1  0  0  0  0
 34 35  1  0  0  0  0
  7  8  1  0  0  0  0
 17 18  1  0  0  0  0
 24 31  1  0  0  0  0
 25 32  1  0  0  0  0
  3  4  1  0  0  0  0
  3  5  1  0  0  0  0
  3  6  1  0  0  0  0
 38 41  1  0  0  0  0
 38 42  1  0  0  0  0
 38 43  1  0  0  0  0
 11 14  1  0  0  0  0
 11 15  1  0  0  0  0
 11 16  1  0  0  0  0
 45 47  1  0  0  0  0
 45 48  1  0  0  0  0
 45 49  1  0  0  0  0
 21 29  1  0  0  0  0
 21 30  1  0  0  0  0
 35 40  1  0  0  0  0
  8 13  1  0  0  0  0
 18 28  1  0  0  0  0
 26 33  1  0  0  0  0
 44 46  1  0  0  0  0
  7 12  1  0  0  0  0
 34 39  1  0  0  0  0
 17 27  1  0  0  0  0
M  END
$$$$

  -OEChem-05262214473D

 49 49  0     1  0  0  0  0  0999 V2000
   -1.6183    0.5613    3.8201 C   0  0  0  0  0  0  0  0  0  0  0  0
   -0.6710   -0.0534    3.3444 O   0  0  0  0  0  0  0  0  0  0  0  0
   -2.0502    0.2789    5.2208 C   0  0  0  0  0  0  0  0  0  0  0  0
   -2.8099   -0.5175    5.2742 H   0  0  0  0  0  0  0  0  0  0  0  0
   -1.2190   -0.0687    5.8551 H   0  0  0  0  0  0  0  0  0  0  0  0
   -2.4882    1.1338    5.7604 H   0  0  0  0  0  0  0  0  0  0  0  0
   -2.3680    1.5337    3.1790 N   0  0  0  0  0  0  0  0  0  0  0  0
   -2.1212    1.9597    1.8266 C   0  0  2  0  0  0  0  0  0  0  0  0
   -0.7862    1.3744    1.3854 C   0  0  0  0  0  0  0  0  0  0  0  0
    0.0859    1.0216    2.1767 O   0  0  0  0  0  0  0  0  0  0  0  0
   -2.1124    3.4765    1.7171 C   0  0  0  0  0  0  0  0  0  0  0  0
   -3.1331    1.9695    3.6908 H   0  0  0  0  0  0  0  0  0  0  0  0
   -2.9253    1.5413    1.2115 H   0  0  0  0  0  0  0  0  0  0  0  0
   -1.3133    3.9138    2.3268 H   0  0  0  0  0  0  0  0  0  0  0  0
   -1.9529    3.7988    0.6829 H   0  0  0  0  0  0  0  0  0  0  0  0
   -3.0626    3.8977    2.0629 H   0  0  0  0  0  0  0  0  0  0  0  0
   -0.6635    1.3313    0.0020 N   0  0  0  0  0  0  0  0  0  0  0  0
    0.5138    0.8305   -0.6617 C   0  0  2  0  0  0  0  0  0  0  0  0
    1.5957    1.8960   -0.5258 C   0  0  0  0  0  0  0  0  0  0  0  0
    2.0977    2.4667   -1.4918 O   0  0  0  0  0  0  0  0  0  0  0  0
    0.2562    0.5180   -2.1402 C   0  0  0  0  0  0  0  0  0  0  0  0
   -0.7479   -0.5916   -2.3359 C   0  0  0  0  0  0  0  0  0  0  0  0
   -0.3974   -1.8989   -2.1083 N   0  0  0  0  0  0  0  0  0  0  0  0
   -2.0590   -0.4919   -2.7381 C   0  0  0  0  0  0  0  0  0  0  0  0
   -1.4861   -2.5877   -2.3695 C   0  0  0  0  0  0  0  0  0  0  0  0
   -2.5185   -1.7787   -2.7553 N   0  0  0  0  0  0  0  0  0  0  0  0
   -1.4467    1.6280   -0.5753 H   0  0  0  0  0  0  0  0  0  0  0  0
    0.8233   -0.0672   -0.1136 H   0  0  0  0  0  0  0  0  0  0  0  0
    1.1972    0.2577   -2.6436 H   0  0  0  0  0  0  0  0  0  0  0  0
   -0.1121    1.4109   -2.6624 H   0  0  0  0  0  0  0  0  0  0  0  0
   -2.6875    0.3454   -3.0053 H   0  0  0  0  0  0  0  0  0  0  0  0
   -1.5926   -3.6611   -2.2998 H   0  0  0  0  0  0  0  0  0  0  0  0
   -3.4513   -2.0778   -3.0064 H   0  0  0  0  0  0  0  0  0  0  0  0
    1.8949    2.1662    0.8023 N   0  0  0  0  0  0  0  0  0  0  0  0
    2.8694    3.1520    1.2114 C   0  0  2  0  0  0  0  0  0  0  0  0
    4.1524    2.8970    0.4315 C   0  0  0  0  0  0  0  0  0  0  0  0
    4.4279    1.8086   -0.0693 O   0  0  0  0  0  0  0  0  0  0  0  0
    3.1227    3.0910    2.7097 C   0  0  0  0  0  0  0  0  0  0  0  0
    1.4044    1.6449    1.5229 H   0  0  0  0  0  0  0  0  0  0  0  0
    2.4629    4.1315    0.9367 H   0  0  0  0  0  0  0  0  0  0  0  0
    3.5302    2.1169    3.0039 H   0  0  0  0  0  0  0  0  0  0  0  0
    3.8397    3.8572    3.0224 H   0  0  0  0  0  0  0  0  0  0  0  0
    2.1935    3.2450    3.2687 H   0  0  0  0  0  0  0  0  0  0  0  0
    4.9735    4.0154    0.3973 N   0  0  0  0  0  0  0  0  0  0  0  0
    6.2536    4.0226   -0.2714 C   0  0  0  0  0  0  0  0  0  0  0  0
    4.6563    4.8813    0.8233 H   0  0  0  0  0  0  0  0  0  0  0  0
    7.0442    3.7582    0.4462 H   0  0  0  0  0  0  0  0  0  0  0  0
    6.2429    3.2896   -1.0915 H   0  0  0  0  0  0  0  0  0  0  0  0
    6.4487    5.0256   -0.6786 H   0  0  0  0  0  0  0  0  0  0  0  0
 22 24  2  0  0  0  0
 24 26  1  0  0  0  0
 23 25  2  0  0  0  0
 25 26  1  0  0  0  0
 21 22  1  0  0  0  0
 22 23  1  0  0  0  0
  1  3  1  0  0  0  0
  1  7  1  0  0  0  0
  1  2  2  0  0  0  0
 35 36  1  0  0  0  0
 36 44  1  0  0  0  0
 36 37  2  0  0  0  0
  8  9  1  0  0  0  0
  9 17  1  0  0  0  0
  9 10  2  0  0  0  0
 18 19  1  0  0  0  0
 19 34  1  0  0  0  0
 19 20  2  0  0  0  0
 35 38  1  0  0  0  0
  8 11  1  0  0  0  0
 44 45  1  0  0  0  0
 18 21  1  0  0  0  0
 34 35  1  0  0  0  0
  7  8  1  0  0  0  0
 17 18  1  0  0  0  0
 24 31  1  0  0  0  0
 25 32  1  0  0  0  0
  3  4  1  0  0  0  0
  3  5  1  0  0  0  0
  3  6  1  0  0  0  0
 38 41  1  0  0  0  0
 38 42  1  0  0  0  0
 38 43  1  0  0  0  0
 11 14  1  0  0  0  0
 11 15  1  0  0  0  0
 11 16  1  0  0  0  0
 45 47  1  0  0  0  0
 45 48  1  0  0  0  0
 45 49  1  0  0  0  0
 21 29  1  0  0  0  0
 21 30  1  0  0  0  0
 35 40  1  0  0  0  0
  8 13  1  0  0  0  0
 18 28  1  0  0  0  0
 26 33  1  0  0  0  0
 44 46  1  0  0  0  0
  7 12  1  0  0  0  0
 34 39  1  0  0  0  0
 17 27  1  0  0  0  0
M  END
$$$$

  -OEChem-05262214473D

 49 49  0     1  0  0  0  0  0999 V2000
   -1.6183    0.5613    3.8201 C   0  0  0  0  0  0  0  0  0  0  0  0
   -0.6710   -0.0534    3.3444 O   0  0  0  0  0  0  0  0  0  0  0  0
   -2.0502    0.2789    5.2208 C   0  0  0  0  0  0  0  0  0  0  0  0
   -2.8099   -0.5175    5.2742 H   0  0  0  0  0  0  0  0  0  0  0  0
   -1.2190   -0.0687    5.8551 H   0  0  0  0  0  0  0  0  0  0  0  0
   -2.4882    1.1338    5.7604 H   0  0  0  0  0  0  0  0  0  0  0  0
   -2.3680    1.5337    3.1790 N   0  0  0  0  0  0  0  0  0  0  0  0
   -2.1212    1.9597    1.8266 C   0  0  2  0  0  0  0  0  0  0  0  0
   -0.7862    1.3744    1.3854 C   0  0  0  0  0  0  0  0  0  0  0  0
    0.0859    1.0216    2.1767 O   0  0  0  0  0  0  0  0  0  0  0  0
   -2.1124    3.4765    1.7171 C   0  0  0  0  0  0  0  0  0  0  0  0
   -3.1331    1.9695    3.6908 H   0  0  0  0  0  0  0  0  0  0  0  0
   -2.9253    1.5413    1.2115 H   0  0  0  0  0  0  0  0  0  0  0  0
   -1.3133    3.9138    2.3268 H   0  0  0  0  0  0  0  0  0  0  0  0
   -1.9529    3.7988    0.6829 H   0  0  0  0  0  0  0  0  0  0  0  0
   -3.0626    3.8977    2.0629 H   0  0  0  0  0  0  0  0  0  0  0  0
   -0.6635    1.3313    0.0020 N   0  0  0  0  0  0  0  0  0  0  0  0
    0.5138    0.8305   -0.6617 C   0  0  2  0  0  0  0  0  0  0  0  0
    1.5957    1.8960   -0.5258 C   0  0  0  0  0  0  0  0  0  0  0  0
    1.9089    2.6522   -1.4429 O   0  0  0  0  0  0  0  0  0  0  0  0
    0.2562    0.5180   -2.1402 C   0  0  0  0  0  0  0  0  0  0  0  0
   -0.7479   -0.5916   -2.3359 C   0  0  0  0  0  0  0  0  0  0  0  0
   -0.3974   -1.8989   -2.1083 N   0  0  0  0  0  0  0  0  0  0  0  0
   -2.0590   -0.4919   -2.7381 C   0  0  0  0  0  0  0  0  0  0  0  0
   -1.4861   -2.5877   -2.3695 C   0  0  0  0  0  0  0  0  0  0  0  0
   -2.5185   -1.7787   -2.7553 N   0  0  0  0  0  0  0  0  0  0  0  0
   -1.4467    1.6280   -0.5753 H   0  0  0  0  0  0  0  0  0  0  0  0
    0.8233   -0.0672   -0.1136 H   0  0  0  0  0  0  0  0  0  0  0  0
    1.1972    0.2577   -2.6436 H   0  0  0  0  0  0  0  0  0  0  0  0
   -0.1121    1.4109   -2.6624 H   0  0  0  0  0  0  0  0  0  0  0  0
   -2.6875    0.3454   -3.0053 H   0  0  0  0  0  0  0  0  0  0  0  0
   -1.5926   -3.6611   -2.2998 H   0  0  0  0  0  0  0  0  0  0  0  0
   -3.4513   -2.0778   -3.0064 H   0  0  0  0  0  0  0  0  0  0  0  0
    2.1313    1.9324    0.7541 N   0  0  0  0  0  0  0  0  0  0  0  0
    3.1581    2.8656    1.1584 C   0  0  2  0  0  0  0  0  0  0  0  0
    4.2782    2.8079    0.1282 C   0  0  0  0  0  0  0  0  0  0  0  0
    4.4641    1.8404   -0.6071 O   0  0  0  0  0  0  0  0  0  0  0  0
    3.6818    2.5437    2.5494 C   0  0  0  0  0  0  0  0  0  0  0  0
    1.7841    1.2697    1.4412 H   0  0  0  0  0  0  0  0  0  0  0  0
    2.7022    3.8617    1.1476 H   0  0  0  0  0  0  0  0  0  0  0  0
    4.1422    1.5495    2.5798 H   0  0  0  0  0  0  0  0  0  0  0  0
    4.4392    3.2685    2.8657 H   0  0  0  0  0  0  0  0  0  0  0  0
    2.8696    2.5565    3.2842 H   0  0  0  0  0  0  0  0  0  0  0  0
    5.0723    3.9458    0.1562 N   0  0  0  0  0  0  0  0  0  0  0  0
    6.2083    4.1255   -0.7174 C   0  0  0  0  0  0  0  0  0  0  0  0
    4.8331    4.7066    0.7853 H   0  0  0  0  0  0  0  0  0  0  0  0
    7.1185    3.7670   -0.2145 H   0  0  0  0  0  0  0  0  0  0  0  0
    6.0521    3.5537   -1.6441 H   0  0  0  0  0  0  0  0  0  0  0  0
    6.3194    5.1927   -0.9594 H   0  0  0  0  0  0  0  0  0  0  0  0
 22 24  2  0  0  0  0
 24 26  1  0  0  0  0
 23 25  2  0  0  0  0
 25 26  1  0  0  0  0
 21 22  1  0  0  0  0
 22 23  1  0  0  0  0
  1  3  1  0  0  0  0
  1  7  1  0  0  0  0
  1  2  2  0  0  0  0
 35 36  1  0  0  0  0
 36 44  1  0  0  0  0
 36 37  2  0  0  0  0
  8  9  1  0  0  0  0
  9 17  1  0  0  0  0
  9 10  2  0  0  0  0
 18 19  1  0  0  0  0
 19 34  1  0  0  0  0
 19 20  2  0  0  0  0
 35 38  1  0  0  0  0
  8 11  1  0  0  0  0
 44 45  1  0  0  0  0
 18 21  1  0  0  0  0
 34 35  1  0  0  0  0
  7  8  1  0  0  0  0
 17 18  1  0  0  0  0
 24 31  1  0  0  0  0
 25 32  1  0  0  0  0
  3  4  1  0  0  0  0
  3  5  1  0  0  0  0
  3  6  1  0  0  0  0
 38 41  1  0  0  0  0
 38 42  1  0  0  0  0
 38 43  1  0  0  0  0
 11 14  1  0  0  0  0
 11 15  1  0  0  0  0
 11 16  1  0  0  0  0
 45 47  1  0  0  0  0
 45 48  1  0  0  0  0
 45 49  1  0  0  0  0
 21 29  1  0  0  0  0
 21 30  1  0  0  0  0
 35 40  1  0  0  0  0
  8 13  1  0  0  0  0
 18 28  1  0  0  0  0
 26 33  1  0  0  0  0
 44 46  1  0  0  0  0
  7 12  1  0  0  0  0
 34 39  1  0  0  0  0
 17 27  1  0  0  0  0
M  END
$$$$

  -OEChem-05262214473D

 49 49  0     1  0  0  0  0  0999 V2000
   -1.6183    0.5613    3.8201 C   0  0  0  0  0  0  0  0  0  0  0  0
   -0.6710   -0.0534    3.3444 O   0  0  0  0  0  0  0  0  0  0  0  0
   -2.0502    0.2789    5.2208 C   0  0  0  0  0  0  0  0  0  0  0  0
   -2.8099   -0.5175    5.2742 H   0  0  0  0  0  0  0  0  0  0  0  0
   -1.2190   -0.0687    5.8551 H   0  0  0  0  0  0  0  0  0  0  0  0
   -2.4882    1.1338    5.7604 H   0  0  0  0  0  0  0  0  0  0  0  0
   -2.3680    1.5337    3.1790 N   0  0  0  0  0  0  0  0  0  0  0  0
   -2.1212    1.9597    1.8266 C   0  0  2  0  0  0  0  0  0  0  0  0
   -0.7862    1.3744    1.3854 C   0  0  0  0  0  0  0  0  0  0  0  0
    0.0859    1.0216    2.1767 O   0  0  0  0  0  0  0  0  0  0  0  0
   -2.1124    3.4765    1.7171 C   0  0  0  0  0  0  0  0  0  0  0  0
   -3.1331    1.9695    3.6908 H   0  0  0  0  0  0  0  0  0  0  0  0
   -2.9253    1.5413    1.2115 H   0  0  0  0  0  0  0  0  0  0  0  0
   -1.3133    3.9138    2.3268 H   0  0  0  0  0  0  0  0  0  0  0  0
   -1.9529    3.7988    0.6829 H   0  0  0  0  0  0  0  0  0  0  0  0
   -3.0626    3.8977    2.0629 H   0  0  0  0  0  0  0  0  0  0  0  0
   -0.6635    1.3313    0.0020 N   0  0  0  0  0  0  0  0  0  0  0  0
    0.5138    0.8305   -0.6617 C   0  0  2  0  0  0  0  0  0  0  0  0
    1.5957    1.8960   -0.5258 C   0  0  0  0  0  0  0  0  0  0  0  0
    1.7311    2.8180   -1.3273 O   0  0  0  0  0  0  0  0  0  0  0  0
    0.2562    0.5180   -2.1402 C   0  0  0  0  0  0  0  0  0  0  0  0
   -0.7479   -0.5916   -2.3359 C   0  0  0  0  0  0  0  0  0  0  0  0
   -0.3974   -1.8989   -2.1083 N   0  0  0  0  0  0  0  0  0  0  0  0
   -2.0590   -0.4919   -2.7381 C   0  0  0  0  0  0  0  0  0  0  0  0
   -1.4861   -2.5877   -2.3695 C   0  0  0  0  0  0  0  0  0  0  0  0
   -2.5185   -1.7787   -2.7553 N   0  0  0  0  0  0  0  0  0  0  0  0
   -1.4467    1.6280   -0.5753 H   0  0  0  0  0  0  0  0  0  0  0  0
    0.8233   -0.0672   -0.1136 H   0  0  0  0  0  0  0  0  0  0  0  0
    1.1972    0.2577   -2.6436 H   0  0  0  0  0  0  0  0  0  0  0  0
   -0.1121    1.4109   -2.6624 H   0  0  0  0  0  0  0  0  0  0  0  0
   -2.6875    0.3454   -3.0053 H   0  0  0  0  0  0  0  0  0  0  0  0
   -1.5926   -3.6611   -2.2998 H   0  0  0  0  0  0  0  0  0  0  0  0
   -3.4513   -2.0778   -3.0064 H   0  0  0  0  0  0  0  0  0  0  0  0
    2.3563    1.7207    0.6219 N   0  0  0  0  0  0  0  0  0  0  0  0
    3.4340    2.6054    1.0024 C   0  0  2  0  0  0  0  0  0  0  0  0
    4.3469    2.7804   -0.2040 C   0  0  0  0  0  0  0  0  0  0  0  0
    4.4010    1.9708   -1.1274 O   0  0  0  0  0  0  0  0  0  0  0  0
    4.2054    2.0575    2.1929 C   0  0  0  0  0  0  0  0  0  0  0  0
    2.1449    0.9310    1.2247 H   0  0  0  0  0  0  0  0  0  0  0  0
    2.9777    3.5678    1.2585 H   0  0  0  0  0  0  0  0  0  0  0  0
    4.6697    1.0934    1.9553 H   0  0  0  0  0  0  0  0  0  0  0  0
    5.0034    2.7425    2.4979 H   0  0  0  0  0  0  0  0  0  0  0  0
    3.5414    1.9042    3.0505 H   0  0  0  0  0  0  0  0  0  0  0  0
    5.1257    3.9252   -0.1074 N   0  0  0  0  0  0  0  0  0  0  0  0
    6.0815    4.3057   -1.1211 C   0  0  0  0  0  0  0  0  0  0  0  0
    5.0011    4.5489    0.6845 H   0  0  0  0  0  0  0  0  0  0  0  0
    7.0706    3.8985   -0.8645 H   0  0  0  0  0  0  0  0  0  0  0  0
    5.7619    3.9059   -2.0948 H   0  0  0  0  0  0  0  0  0  0  0  0
    6.1398    5.4027   -1.1765 H   0  0  0  0  0  0  0  0  0  0  0  0
 22 24  2  0  0  0  0
 24 26  1  0  0  0  0
 23 25  2  0  0  0  0
 25 26  1  0  0  0  0
 21 22  1  0  0  0  0
 22 23  1  0  0  0  0
  1  3  1  0  0  0  0
  1  7  1  0  0  0  0
  1  2  2  0  0  0  0
 35 36  1  0  0  0  0
 36 44  1  0  0  0  0
 36 37  2  0  0  0  0
  8  9  1  0  0  0  0
  9 17  1  0  0  0  0
  9 10  2  0  0  0  0
 18 19  1  0  0  0  0
 19 34  1  0  0  0  0
 19 20  2  0  0  0  0
 35 38  1  0  0  0  0
  8 11  1  0  0  0  0
 44 45  1  0  0  0  0
 18 21  1  0  0  0  0
 34 35  1  0  0  0  0
  7  8  1  0  0  0  0
 17 18  1  0  0  0  0
 24 31  1  0  0  0  0
 25 32  1  0  0  0  0
  3  4  1  0  0  0  0
  3  5  1  0  0  0  0
  3  6  1  0  0  0  0
 38 41  1  0  0  0  0
 38 42  1  0  0  0  0
 38 43  1  0  0  0  0
 11 14  1  0  0  0  0
 11 15  1  0  0  0  0
 11 16  1  0  0  0  0
 45 47  1  0  0  0  0
 45 48  1  0  0  0  0
 45 49  1  0  0  0  0
 21 29  1  0  0  0  0
 21 30  1  0  0  0  0
 35 40  1  0  0  0  0
  8 13  1  0  0  0  0
 18 28  1  0  0  0  0
 26 33  1  0  0  0  0
 44 46  1  0  0  0  0
  7 12  1  0  0  0  0
 34 39  1  0  0  0  0
 17 27  1  0  0  0  0
M  END
$$$$

  -OEChem-05262214473D

 49 49  0     1  0  0  0  0  0999 V2000
   -1.6183    0.5613    3.8201 C   0  0  0  0  0  0  0  0  0  0  0  0
   -0.6710   -0.0534    3.3444 O   0  0  0  0  0  0  0  0  0  0  0  0
   -2.0502    0.2789    5.2208 C   0  0  0  0  0  0  0  0  0  0  0  0
   -2.8099   -0.5175    5.2742 H   0  0  0  0  0  0  0  0  0  0  0  0
   -1.2190   -0.0687    5.8551 H   0  0  0  0  0  0  0  0  0  0  0  0
   -2.4882    1.1338    5.7604 H   0  0  0  0  0  0  0  0  0  0  0  0
   -2.3680    1.5337    3.1790 N   0  0  0  0  0  0  0  0  0  0  0  0
   -2.1212    1.9597    1.8266 C   0  0  2  0  0  0  0  0  0  0  0  0
   -0.7862    1.3744    1.3854 C   0  0  0  0  0  0  0  0  0  0  0  0
    0.0859    1.0216    2.1767 O   0  0  0  0  0  0  0  0  0  0  0  0
   -2.1124    3.4765    1.7171 C   0  0  0  0  0  0  0  0  0  0  0  0
   -3.1331    1.9695    3.6908 H   0  0  0  0  0  0  0  0  0  0  0  0
   -2.9253    1.5413    1.2115 H   0  0  0  0  0  0  0  0  0  0  0  0
   -1.3133    3.9138    2.3268 H   0  0  0  0  0  0  0  0  0  0  0  0
   -1.9529    3.7988    0.6829 H   0  0  0  0  0  0  0  0  0  0  0  0
   -3.0626    3.8977    2.0629 H   0  0  0  0  0  0  0  0  0  0  0  0
   -0.6635    1.3313    0.0020 N   0  0  0  0  0  0  0  0  0  0  0  0
    0.5138    0.8305   -0.6617 C   0  0  2  0  0  0  0  0  0  0  0  0
    1.5957    1.8960   -0.5258 C   0  0  0  0  0  0  0  0  0  0  0  0
    1.5764    2.9528   -1.1531 O   0  0  0  0  0  0  0  0  0  0  0  0
    0.2562    0.5180   -2.1402 C   0  0  0  0  0  0  0  0  0  0  0  0
   -0.7479   -0.5916   -2.3359 C   0  0  0  0  0  0  0  0  0  0  0  0
   -0.3974   -1.8989   -2.1083 N   0  0  0  0  0  0  0  0  0  0  0  0
   -2.0590   -0.4919   -2.7381 C   0  0  0  0  0  0  0  0  0  0  0  0
   -1.4861   -2.5877   -2.3695 C   0  0  0  0  0  0  0  0  0  0  0  0
   -2.5185   -1.7787   -2.7553 N   0  0  0  0  0  0  0  0  0  0  0  0
   -1.4467    1.6280   -0.5753 H   0  0  0  0  0  0  0  0  0  0  0  0
    0.8233   -0.0672   -0.1136 H   0  0  0  0  0  0  0  0  0  0  0  0
    1.1972    0.2577   -2.6436 H   0  0  0  0  0  0  0  0  0  0  0  0
   -0.1121    1.4109   -2.6624 H   0  0  0  0  0  0  0  0  0  0  0  0
   -2.6875    0.3454   -3.0053 H   0  0  0  0  0  0  0  0  0  0  0  0
   -1.5926   -3.6611   -2.2998 H   0  0  0  0  0  0  0  0  0  0  0  0
   -3.4513   -2.0778   -3.0064 H   0  0  0  0  0  0  0  0  0  0  0  0
    2.5546    1.5458    0.4146 N   0  0  0  0  0  0  0  0  0  0  0  0
    3.6782    2.3890    0.7540 C   0  0  2  0  0  0  0  0  0  0  0  0
    4.3539    2.8165   -0.5423 C   0  0  0  0  0  0  0  0  0  0  0  0
    4.2430    2.1908   -1.5945 O   0  0  0  0  0  0  0  0  0  0  0  0
    4.6579    1.6654    1.6646 C   0  0  0  0  0  0  0  0  0  0  0  0
    2.4619    0.6520    0.8881 H   0  0  0  0  0  0  0  0  0  0  0  0
    3.2706    3.2699    1.2618 H   0  0  0  0  0  0  0  0  0  0  0  0
    5.0768    0.7798    1.1729 H   0  0  0  0  0  0  0  0  0  0  0  0
    5.4940    2.3149    1.9439 H   0  0  0  0  0  0  0  0  0  0  0  0
    4.1630    1.3325    2.5833 H   0  0  0  0  0  0  0  0  0  0  0  0
    5.1301    3.9549   -0.3755 N   0  0  0  0  0  0  0  0  0  0  0  0
    5.8818    4.5510   -1.4550 C   0  0  0  0  0  0  0  0  0  0  0  0
    5.1487    4.4190    0.5279 H   0  0  0  0  0  0  0  0  0  0  0  0
    6.9037    4.1438   -1.4595 H   0  0  0  0  0  0  0  0  0  0  0  0
    5.3919    4.3222   -2.4129 H   0  0  0  0  0  0  0  0  0  0  0  0
    5.9223    5.6413   -1.3151 H   0  0  0  0  0  0  0  0  0  0  0  0
 22 24  2  0  0  0  0
 24 26  1  0  0  0  0
 23 25  2  0  0  0  0
 25 26  1  0  0  0  0
 21 22  1  0  0  0  0
 22 23  1  0  0  0  0
  1  3  1  0  0  0  0
  1  7  1  0  0  0  0
  1  2  2  0  0  0  0
 35 36  1  0  0  0  0
 36 44  1  0  0  0  0
 36 37  2  0  0  0  0
  8  9  1  0  0  0  0
  9 17  1  0  0  0  0
  9 10  2  0  0  0  0
 18 19  1  0  0  0  0
 19 34  1  0  0  0  0
 19 20  2  0  0  0  0
 35 38  1  0  0  0  0
  8 11  1  0  0  0  0
 44 45  1  0  0  0  0
 18 21  1  0  0  0  0
 34 35  1  0  0  0  0
  7  8  1  0  0  0  0
 17 18  1  0  0  0  0
 24 31  1  0  0  0  0
 25 32  1  0  0  0  0
  3  4  1  0  0  0  0
  3  5  1  0  0  0  0
  3  6  1  0  0  0  0
 38 41  1  0  0  0  0
 38 42  1  0  0  0  0
 38 43  1  0  0  0  0
 11 14  1  0  0  0  0
 11 15  1  0  0  0  0
 11 16  1  0  0  0  0
 45 47  1  0  0  0  0
 45 48  1  0  0  0  0
 45 49  1  0  0  0  0
 21 29  1  0  0  0  0
 21 30  1  0  0  0  0
 35 40  1  0  0  0  0
  8 13  1  0  0  0  0
 18 28  1  0  0  0  0
 26 33  1  0  0  0  0
 44 46  1  0  0  0  0
  7 12  1  0  0  0  0
 34 39  1  0  0  0  0
 17 27  1  0  0  0  0
M  END
$$$$

  -OEChem-05262214473D

 49 49  0     1  0  0  0  0  0999 V2000
   -1.6183    0.5613    3.8201 C   0  0  0  0  0  0  0  0  0  0  0  0
   -0.6710   -0.0534    3.3444 O   0  0  0  0  0  0  0  0  0  0  0  0
   -2.0502    0.2789    5.2208 C   0  0  0  0  0  0  0  0  0  0  0  0
   -2.8099   -0.5175    5.2742 H   0  0  0  0  0  0  0  0  0  0  0  0
   -1.2190   -0.0687    5.8551 H   0  0  0  0  0  0  0  0  0  0  0  0
   -2.4882    1.1338    5.7604 H   0  0  0  0  0  0  0  0  0  0  0  0
   -2.3680    1.5337    3.1790 N   0  0  0  0  0  0  0  0  0  0  0  0
   -2.1212    1.9597    1.8266 C   0  0  2  0  0  0  0  0  0  0  0  0
   -0.7862    1.3744    1.3854 C   0  0  0  0  0  0  0  0  0  0  0  0
    0.0859    1.0216    2.1767 O   0  0  0  0  0  0  0  0  0  0  0  0
   -2.1124    3.4765    1.7171 C   0  0  0  0  0  0  0  0  0  0  0  0
   -3.1331    1.9695    3.6908 H   0  0  0  0  0  0  0  0  0  0  0  0
   -2.9253    1.5413    1.2115 H   0  0  0  0  0  0  0  0  0  0  0  0
   -1.3133    3.9138    2.3268 H   0  0  0  0  0  0  0  0  0  0  0  0
   -1.9529    3.7988    0.6829 H   0  0  0  0  0  0  0  0  0  0  0  0
   -3.0626    3.8977    2.0629 H   0  0  0  0  0  0  0  0  0  0  0  0
   -0.6635    1.3313    0.0020 N   0  0  0  0  0  0  0  0  0  0  0  0
    0.5138    0.8305   -0.6617 C   0  0  2  0  0  0  0  0  0  0  0  0
    1.5957    1.8960   -0.5258 C   0  0  0  0  0  0  0  0  0  0  0  0
    1.4554    3.0475   -0.9321 O   0  0  0  0  0  0  0  0  0  0  0  0
    0.2562    0.5180   -2.1402 C   0  0  0  0  0  0  0  0  0  0  0  0
   -0.7479   -0.5916   -2.3359 C   0  0  0  0  0  0  0  0  0  0  0  0
   -0.3974   -1.8989   -2.1083 N   0  0  0  0  0  0  0  0  0  0  0  0
   -2.0590   -0.4919   -2.7381 C   0  0  0  0  0  0  0  0  0  0  0  0
   -1.4861   -2.5877   -2.3695 C   0  0  0  0  0  0  0  0  0  0  0  0
   -2.5185   -1.7787   -2.7553 N   0  0  0  0  0  0  0  0  0  0  0  0
   -1.4467    1.6280   -0.5753 H   0  0  0  0  0  0  0  0  0  0  0  0
    0.8233   -0.0672   -0.1136 H   0  0  0  0  0  0  0  0  0  0  0  0
    1.1972    0.2577   -2.6436 H   0  0  0  0  0  0  0  0  0  0  0  0
   -0.1121    1.4109   -2.6624 H   0  0  0  0  0  0  0  0  0  0  0  0
   -2.6875    0.3454   -3.0053 H   0  0  0  0  0  0  0  0  0  0  0  0
   -1.5926   -3.6611   -2.2998 H   0  0  0  0  0  0  0  0  0  0  0  0
   -3.4513   -2.0778   -3.0064 H   0  0  0  0  0  0  0  0  0  0  0  0
    2.7126    1.4195    0.1463 N   0  0  0  0  0  0  0  0  0  0  0  0
    3.8742    2.2313    0.4301 C   0  0  2  0  0  0  0  0  0  0  0  0
    4.2985    2.9137   -0.8637 C   0  0  0  0  0  0  0  0  0  0  0  0
    4.0008    2.4854   -1.9768 O   0  0  0  0  0  0  0  0  0  0  0  0
    5.0085    1.3941    1.0004 C   0  0  0  0  0  0  0  0  0  0  0  0
    2.7137    0.4516    0.4543 H   0  0  0  0  0  0  0  0  0  0  0  0
    3.5610    2.9884    1.1573 H   0  0  0  0  0  0  0  0  0  0  0  0
    5.3358    0.6299    0.2859 H   0  0  0  0  0  0  0  0  0  0  0  0
    5.8776    2.0150    1.2414 H   0  0  0  0  0  0  0  0  0  0  0  0
    4.6922    0.8804    1.9147 H   0  0  0  0  0  0  0  0  0  0  0  0
    5.0851    4.0329   -0.6297 N   0  0  0  0  0  0  0  0  0  0  0  0
    5.6229    4.8447   -1.6964 C   0  0  0  0  0  0  0  0  0  0  0  0
    5.2659    4.3257    0.3260 H   0  0  0  0  0  0  0  0  0  0  0  0
    6.6292    4.4863   -1.9590 H   0  0  0  0  0  0  0  0  0  0  0  0
    4.9673    4.7742   -2.5769 H   0  0  0  0  0  0  0  0  0  0  0  0
    5.6816    5.8922   -1.3659 H   0  0  0  0  0  0  0  0  0  0  0  0
 22 24  2  0  0  0  0
 24 26  1  0  0  0  0
 23 25  2  0  0  0  0
 25 26  1  0  0  0  0
 21 22  1  0  0  0  0
 22 23  1  0  0  0  0
  1  3  1  0  0  0  0
  1  7  1  0  0  0  0
  1  2  2  0  0  0  0
 35 36  1  0  0  0  0
 36 44  1  0  0  0  0
 36 37  2  0  0  0  0
  8  9  1  0  0  0  0
  9 17  1  0  0  0  0
  9 10  2  0  0  0  0
 18 19  1  0  0  0  0
 19 34  1  0  0  0  0
 19 20  2  0  0  0  0
 35 38  1  0  0  0  0
  8 11  1  0  0  0  0
 44 45  1  0  0  0  0
 18 21  1  0  0  0  0
 34 35  1  0  0  0  0
  7  8  1  0  0  0  0
 17 18  1  0  0  0  0
 24 31  1  0  0  0  0
 25 32  1  0  0  0  0
  3  4  1  0  0  0  0
  3  5  1  0  0  0  0
  3  6  1  0  0  0  0
 38 41  1  0  0  0  0
 38 42  1  0  0  0  0
 38 43  1  0  0  0  0
 11 14  1  0  0  0  0
 11 15  1  0  0  0  0
 11 16  1  0  0  0  0
 45 47  1  0  0  0  0
 45 48  1  0  0  0  0
 45 49  1  0  0  0  0
 21 29  1  0  0  0  0
 21 30  1  0  0  0  0
 35 40  1  0  0  0  0
  8 13  1  0  0  0  0
 18 28  1  0  0  0  0
 26 33  1  0  0  0  0
 44 46  1  0  0  0  0
  7 12  1  0  0  0  0
 34 39  1  0  0  0  0
 17 27  1  0  0  0  0
M  END
$$$$

  -OEChem-05262214473D

 49 49  0     1  0  0  0  0  0999 V2000
   -1.6183    0.5613    3.8201 C   0  0  0  0  0  0  0  0  0  0  0  0
   -0.6710   -0.0534    3.3444 O   0  0  0  0  0  0  0  0  0  0  0  0
   -2.0502    0.2789    5.2208 C   0  0  0  0  0  0  0  0  0  0  0  0
   -2.8099   -0.5175    5.2742 H   0  0  0  0  0  0  0  0  0  0  0  0
   -1.2190   -0.0687    5.8551 H   0  0  0  0  0  0  0  0  0  0  0  0
   -2.4882    1.1338    5.7604 H   0  0  0  0  0  0  0  0  0  0  0  0
   -2.3680    1.5337    3.1790 N   0  0  0  0  0  0  0  0  0  0  0  0
   -2.1212    1.9597    1.8266 C   0  0  2  0  0  0  0  0  0  0  0  0
   -0.7862    1.3744    1.3854 C   0  0  0  0  0  0  0  0  0  0  0  0
    0.0859    1.0216    2.1767 O   0  0  0  0  0  0  0  0  0  0  0  0
   -2.1124    3.4765    1.7171 C   0  0  0  0  0  0  0  0  0  0  0  0
   -3.1331    1.9695    3.6908 H   0  0  0  0  0  0  0  0  0  0  0  0
   -2.9253    1.5413    1.2115 H   0  0  0  0  0  0  0  0  0  0  0  0
   -1.3133    3.9138    2.3268 H   0  0  0  0  0  0  0  0  0  0  0  0
   -1.9529    3.7988    0.6829 H   0  0  0  0  0  0  0  0  0  0  0  0
   -3.0626    3.8977    2.0629 H   0  0  0  0  0  0  0  0  0  0  0  0
   -0.6635    1.3313    0.0020 N   0  0  0  0  0  0  0  0  0  0  0  0
    0.5138    0.8305   -0.6617 C   0  0  2  0  0  0  0  0  0  0  0  0
    1.5957    1.8960   -0.5258 C   0  0  0  0  0  0  0  0  0  0  0  0
    1.3763    3.0956   -0.6794 O   0  0  0  0  0  0  0  0  0  0  0  0
    0.2562    0.5180   -2.1402 C   0  0  0  0  0  0  0  0  0  0  0  0
   -0.7479   -0.5916   -2.3359 C   0  0  0  0  0  0  0  0  0  0  0  0
   -0.3974   -1.8989   -2.1083 N   0  0  0  0  0  0  0  0  0  0  0  0
   -2.0590   -0.4919   -2.7381 C   0  0  0  0  0  0  0  0  0  0  0  0
   -1.4861   -2.5877   -2.3695 C   0  0  0  0  0  0  0  0  0  0  0  0
   -2.5185   -1.7787   -2.7553 N   0  0  0  0  0  0  0  0  0  0  0  0
   -1.4467    1.6280   -0.5753 H   0  0  0  0  0  0  0  0  0  0  0  0
    0.8233   -0.0672   -0.1136 H   0  0  0  0  0  0  0  0  0  0  0  0
    1.1972    0.2577   -2.6436 H   0  0  0  0  0  0  0  0  0  0  0  0
   -0.1121    1.4109   -2.6624 H   0  0  0  0  0  0  0  0  0  0  0  0
   -2.6875    0.3454   -3.0053 H   0  0  0  0  0  0  0  0  0  0  0  0
   -1.5926   -3.6611   -2.2998 H   0  0  0  0  0  0  0  0  0  0  0  0
   -3.4513   -2.0778   -3.0064 H   0  0  0  0  0  0  0  0  0  0  0  0
    2.8197    1.3504   -0.1645 N   0  0  0  0  0  0  0  0  0  0  0  0
    4.0086    2.1429    0.0528 C   0  0  2  0  0  0  0  0  0  0  0  0
    4.1847    3.0652   -1.1463 C   0  0  0  0  0  0  0  0  0  0  0  0
    3.6909    2.8347   -2.2481 O   0  0  0  0  0  0  0  0  0  0  0  0
    5.2332    1.2621    0.2456 C   0  0  0  0  0  0  0  0  0  0  0  0
    2.8831    0.3435   -0.0470 H   0  0  0  0  0  0  0  0  0  0  0  0
    3.8291    2.7423    0.9521 H   0  0  0  0  0  0  0  0  0  0  0  0
    5.4289    0.6541   -0.6452 H   0  0  0  0  0  0  0  0  0  0  0  0
    6.1279    1.8632    0.4385 H   0  0  0  0  0  0  0  0  0  0  0  0
    5.0928    0.5788    1.0901 H   0  0  0  0  0  0  0  0  0  0  0  0
    4.9939    4.1539   -0.8529 N   0  0  0  0  0  0  0  0  0  0  0  0
    5.3224    5.1667   -1.8288 C   0  0  0  0  0  0  0  0  0  0  0  0
    5.3448    4.2753    0.0926 H   0  0  0  0  0  0  0  0  0  0  0  0
    6.2657    4.9024   -2.3290 H   0  0  0  0  0  0  0  0  0  0  0  0
    4.5171    5.2311   -2.5754 H   0  0  0  0  0  0  0  0  0  0  0  0
    5.4341    6.1383   -1.3253 H   0  0  0  0  0  0  0  0  0  0  0  0
 22 24  2  0  0  0  0
 24 26  1  0  0  0  0
 23 25  2  0  0  0  0
 25 26  1  0  0  0  0
 21 22  1  0  0  0  0
 22 23  1  0  0  0  0
  1  3  1  0  0  0  0
  1  7  1  0  0  0  0
  1  2  2  0  0  0  0
 35 36  1  0  0  0  0
 36 44  1  0  0  0  0
 36 37  2  0  0  0  0
  8  9  1  0  0  0  0
  9 17  1  0  0  0  0
  9 10  2  0  0  0  0
 18 19  1  0  0  0  0
 19 34  1  0  0  0  0
 19 20  2  0  0  0  0
 35 38  1  0  0  0  0
  8 11  1  0  0  0  0
 44 45  1  0  0  0  0
 18 21  1  0  0  0  0
 34 35  1  0  0  0  0
  7  8  1  0  0  0  0
 17 18  1  0  0  0  0
 24 31  1  0  0  0  0
 25 32  1  0  0  0  0
  3  4  1  0  0  0  0
  3  5  1  0  0  0  0
  3  6  1  0  0  0  0
 38 41  1  0  0  0  0
 38 42  1  0  0  0  0
 38 43  1  0  0  0  0
 11 14  1  0  0  0  0
 11 15  1  0  0  0  0
 11 16  1  0  0  0  0
 45 47  1  0  0  0  0
 45 48  1  0  0  0  0
 45 49  1  0  0  0  0
 21 29  1  0  0  0  0
 21 30  1  0  0  0  0
 35 40  1  0  0  0  0
  8 13  1  0  0  0  0
 18 28  1  0  0  0  0
 26 33  1  0  0  0  0
 44 46  1  0  0  0  0
  7 12  1  0  0  0  0
 34 39  1  0  0  0  0
 17 27  1  0  0  0  0
M  END
$$$$

  -OEChem-05262214473D

 49 49  0     1  0  0  0  0  0999 V2000
   -1.6183    0.5613    3.8201 C   0  0  0  0  0  0  0  0  0  0  0  0
   -0.6710   -0.0534    3.3444 O   0  0  0  0  0  0  0  0  0  0  0  0
   -2.0502    0.2789    5.2208 C   0  0  0  0  0  0  0  0  0  0  0  0
   -2.8099   -0.5175    5.2742 H   0  0  0  0  0  0  0  0  0  0  0  0
   -1.2190   -0.0687    5.8551 H   0  0  0  0  0  0  0  0  0  0  0  0
   -2.4882    1.1338    5.7604 H   0  0  0  0  0  0  0  0  0  0  0  0
   -2.3680    1.5337    3.1790 N   0  0  0  0  0  0  0  0  0  0  0  0
   -2.1212    1.9597    1.8266 C   0  0  2  0  0  0  0  0  0  0  0  0
   -0.7862    1.3744    1.3854 C   0  0  0  0  0  0  0  0  0  0  0  0
    0.0859    1.0216    2.1767 O   0  0  0  0  0  0  0  0  0  0  0  0
   -2.1124    3.4765    1.7171 C   0  0  0  0  0  0  0  0  0  0  0  0
   -3.1331    1.9695    3.6908 H   0  0  0  0  0  0  0  0  0  0  0  0
   -2.9253    1.5413    1.2115 H   0  0  0  0  0  0  0  0  0  0  0  0
   -1.3133    3.9138    2.3268 H   0  0  0  0  0  0  0  0  0  0  0  0
   -1.9529    3.7988    0.6829 H   0  0  0  0  0  0  0  0  0  0  0  0
   -3.0626    3.8977    2.0629 H   0  0  0  0  0  0  0  0  0  0  0  0
   -0.6635    1.3313    0.0020 N   0  0  0  0  0  0  0  0  0  0  0  0
    0.5138    0.8305   -0.6617 C   0  0  2  0  0  0  0  0  0  0  0  0
    1.5957    1.8960   -0.5258 C   0  0  0  0  0  0  0  0  0  0  0  0
    1.3446    3.0938   -0.4121 O   0  0  0  0  0  0  0  0  0  0  0  0
    0.2562    0.5180   -2.1402 C   0  0  0  0  0  0  0  0  0  0  0  0
   -0.7479   -0.5916   -2.3359 C   0  0  0  0  0  0  0  0  0  0  0  0
   -0.3974   -1.8989   -2.1083 N   0  0  0  0  0  0  0  0  0  0  0  0
   -2.0590   -0.4919   -2.7381 C   0  0  0  0  0  0  0  0  0  0  0  0
   -1.4861   -2.5877   -2.3695 C   0  0  0  0  0  0  0  0  0  0  0  0
   -2.5185   -1.7787   -2.7553 N   0  0  0  0  0  0  0  0  0  0  0  0
   -1.4467    1.6280   -0.5753 H   0  0  0  0  0  0  0  0  0  0  0  0
    0.8233   -0.0672   -0.1136 H   0  0  0  0  0  0  0  0  0  0  0  0
    1.1972    0.2577   -2.6436 H   0  0  0  0  0  0  0  0  0  0  0  0
   -0.1121    1.4109   -2.6624 H   0  0  0  0  0  0  0  0  0  0  0  0
   -2.6875    0.3454   -3.0053 H   0  0  0  0  0  0  0  0  0  0  0  0
   -1.5926   -3.6611   -2.2998 H   0  0  0  0  0  0  0  0  0  0  0  0
   -3.4513   -2.0778   -3.0064 H   0  0  0  0  0  0  0  0  0  0  0  0
    2.8685    1.3432   -0.4969 N   0  0  0  0  0  0  0  0  0  0  0  0
    4.0722    2.1300   -0.3521 C   0  0  2  0  0  0  0  0  0  0  0  0
    4.0202    3.2610   -1.3708 C   0  0  0  0  0  0  0  0  0  0  0  0
    3.3344    3.2147   -2.3900 O   0  0  0  0  0  0  0  0  0  0  0  0
    5.3168    1.2784   -0.5484 C   0  0  0  0  0  0  0  0  0  0  0  0
    2.9586    0.3351   -0.5817 H   0  0  0  0  0  0  0  0  0  0  0  0
    4.0566    2.5485    0.6602 H   0  0  0  0  0  0  0  0  0  0  0  0
    5.3498    0.8506   -1.5570 H   0  0  0  0  0  0  0  0  0  0  0  0
    6.2280    1.8697   -0.4102 H   0  0  0  0  0  0  0  0  0  0  0  0
    5.3375    0.4481    0.1657 H   0  0  0  0  0  0  0  0  0  0  0  0
    4.8627    4.3097   -1.0297 N   0  0  0  0  0  0  0  0  0  0  0  0
    5.0007    5.4952   -1.8431 C   0  0  0  0  0  0  0  0  0  0  0  0
    5.3799    4.2714   -0.1563 H   0  0  0  0  0  0  0  0  0  0  0  0
    5.8382    5.3640   -2.5441 H   0  0  0  0  0  0  0  0  0  0  0  0
    4.0720    5.6618   -2.4086 H   0  0  0  0  0  0  0  0  0  0  0  0
    5.1967    6.3629   -1.1961 H   0  0  0  0  0  0  0  0  0  0  0  0
 22 24  2  0  0  0  0
 24 26  1  0  0  0  0
 23 25  2  0  0  0  0
 25 26  1  0  0  0  0
 21 22  1  0  0  0  0
 22 23  1  0  0  0  0
  1  3  1  0  0  0  0
  1  7  1  0  0  0  0
  1  2  2  0  0  0  0
 35 36  1  0  0  0  0
 36 44  1  0  0  0  0
 36 37  2  0  0  0  0
  8  9  1  0  0  0  0
  9 17  1  0  0  0  0
  9 10  2  0  0  0  0
 18 19  1  0  0  0  0
 19 34  1  0  0  0  0
 19 20  2  0  0  0  0
 35 38  1  0  0  0  0
  8 11  1  0  0  0  0
 44 45  1  0  0  0  0
 18 21  1  0  0  0  0
 34 35  1  0  0  0  0
  7  8  1  0  0  0  0
 17 18  1  0  0  0  0
 24 31  1  0  0  0  0
 25 32  1  0  0  0  0
  3  4  1  0  0  0  0
  3  5  1  0  0  0  0
  3  6  1  0  0  0  0
 38 41  1  0  0  0  0
 38 42  1  0  0  0  0
 38 43  1  0  0  0  0
 11 14  1  0  0  0  0
 11 15  1  0  0  0  0
 11 16  1  0  0  0  0
 45 47  1  0  0  0  0
 45 48  1  0  0  0  0
 45 49  1  0  0  0  0
 21 29  1  0  0  0  0
 21 30  1  0  0  0  0
 35 40  1  0  0  0  0
  8 13  1  0  0  0  0
 18 28  1  0  0  0  0
 26 33  1  0  0  0  0
 44 46  1  0  0  0  0
  7 12  1  0  0  0  0
 34 39  1  0  0  0  0
 17 27  1  0  0  0  0
M  END
$$$$

  -OEChem-05262214473D

 49 49  0     1  0  0  0  0  0999 V2000
   -1.6183    0.5613    3.8201 C   0  0  0  0  0  0  0  0  0  0  0  0
   -0.6710   -0.0534    3.3444 O   0  0  0  0  0  0  0  0  0  0  0  0
   -2.0502    0.2789    5.2208 C   0  0  0  0  0  0  0  0  0  0  0  0
   -2.8099   -0.5175    5.2742 H   0  0  0  0  0  0  0  0  0  0  0  0
   -1.2190   -0.0687    5.8551 H   0  0  0  0  0  0  0  0  0  0  0  0
   -2.4882    1.1338    5.7604 H   0  0  0  0  0  0  0  0  0  0  0  0
   -2.3680    1.5337    3.1790 N   0  0  0  0  0  0  0  0  0  0  0  0
   -2.1212    1.9597    1.8266 C   0  0  2  0  0  0  0  0  0  0  0  0
   -0.7862    1.3744    1.3854 C   0  0  0  0  0  0  0  0  0  0  0  0
    0.0859    1.0216    2.1767 O   0  0  0  0  0  0  0  0  0  0  0  0
   -2.1124    3.4765    1.7171 C   0  0  0  0  0  0  0  0  0  0  0  0
   -3.1331    1.9695    3.6908 H   0  0  0  0  0  0  0  0  0  0  0  0
   -2.9253    1.5413    1.2115 H   0  0  0  0  0  0  0  0  0  0  0  0
   -1.3133    3.9138    2.3268 H   0  0  0  0  0  0  0  0  0  0  0  0
   -1.9529    3.7988    0.6829 H   0  0  0  0  0  0  0  0  0  0  0  0
   -3.0626    3.8977    2.0629 H   0  0  0  0  0  0  0  0  0  0  0  0
   -0.6635    1.3313    0.0020 N   0  0  0  0  0  0  0  0  0  0  0  0
    0.5138    0.8305   -0.6617 C   0  0  2  0  0  0  0  0  0  0  0  0
    1.5957    1.8960   -0.5258 C   0  0  0  0  0  0  0  0  0  0  0  0
    1.3622    3.0423   -0.1485 O   0  0  0  0  0  0  0  0  0  0  0  0
    0.2562    0.5180   -2.1402 C   0  0  0  0  0  0  0  0  0  0  0  0
   -0.7479   -0.5916   -2.3359 C   0  0  0  0  0  0  0  0  0  0  0  0
   -0.3974   -1.8989   -2.1083 N   0  0  0  0  0  0  0  0  0  0  0  0
   -2.0590   -0.4919   -2.7381 C   0  0  0  0  0  0  0  0  0  0  0  0
   -1.4861   -2.5877   -2.3695 C   0  0  0  0  0  0  0  0  0  0  0  0
   -2.5185   -1.7787   -2.7553 N   0  0  0  0  0  0  0  0  0  0  0  0
   -1.4467    1.6280   -0.5753 H   0  0  0  0  0  0  0  0  0  0  0  0
    0.8233   -0.0672   -0.1136 H   0  0  0  0  0  0  0  0  0  0  0  0
    1.1972    0.2577   -2.6436 H   0  0  0  0  0  0  0  0  0  0  0  0
   -0.1121    1.4109   -2.6624 H   0  0  0  0  0  0  0  0  0  0  0  0
   -2.6875    0.3454   -3.0053 H   0  0  0  0  0  0  0  0  0  0  0  0
   -1.5926   -3.6611   -2.2998 H   0  0  0  0  0  0  0  0  0  0  0  0
   -3.4513   -2.0778   -3.0064 H   0  0  0  0  0  0  0  0  0  0  0  0
    2.8557    1.3985   -0.8281 N   0  0  0  0  0  0  0  0  0  0  0  0
    4.0607    2.1933   -0.7571 C   0  0  2  0  0  0  0  0  0  0  0  0
    3.8161    3.4874   -1.5220 C   0  0  0  0  0  0  0  0  0  0  0  0
    2.9557    3.5997   -2.3927 O   0  0  0  0  0  0  0  0  0  0  0  0
    5.2535    1.4420   -1.3275 C   0  0  0  0  0  0  0  0  0  0  0  0
    2.9349    0.4269   -1.1135 H   0  0  0  0  0  0  0  0  0  0  0  0
    4.2281    2.4201    0.3014 H   0  0  0  0  0  0  0  0  0  0  0  0
    5.1040    1.2060   -2.3874 H   0  0  0  0  0  0  0  0  0  0  0  0
    6.1709    2.0343   -1.2470 H   0  0  0  0  0  0  0  0  0  0  0  0
    5.4097    0.4973   -0.7955 H   0  0  0  0  0  0  0  0  0  0  0  0
    4.7004    4.4897   -1.1481 N   0  0  0  0  0  0  0  0  0  0  0  0
    4.6798    5.8076   -1.7385 C   0  0  0  0  0  0  0  0  0  0  0  0
    5.3689    4.3141   -0.4038 H   0  0  0  0  0  0  0  0  0  0  0  0
    5.3757    5.8395   -2.5898 H   0  0  0  0  0  0  0  0  0  0  0  0
    3.6623    6.0369   -2.0879 H   0  0  0  0  0  0  0  0  0  0  0  0
    4.9856    6.5506   -0.9871 H   0  0  0  0  0  0  0  0  0  0  0  0
 22 24  2  0  0  0  0
 24 26  1  0  0  0  0
 23 25  2  0  0  0  0
 25 26  1  0  0  0  0
 21 22  1  0  0  0  0
 22 23  1  0  0  0  0
  1  3  1  0  0  0  0
  1  7  1  0  0  0  0
  1  2  2  0  0  0  0
 35 36  1  0  0  0  0
 36 44  1  0  0  0  0
 36 37  2  0  0  0  0
  8  9  1  0  0  0  0
  9 17  1  0  0  0  0
  9 10  2  0  0  0  0
 18 19  1  0  0  0  0
 19 34  1  0  0  0  0
 19 20  2  0  0  0  0
 35 38  1  0  0  0  0
  8 11  1  0  0  0  0
 44 45  1  0  0  0  0
 18 21  1  0  0  0  0
 34 35  1  0  0  0  0
  7  8  1  0  0  0  0
 17 18  1  0  0  0  0
 24 31  1  0  0  0  0
 25 32  1  0  0  0  0
  3  4  1  0  0  0  0
  3  5  1  0  0  0  0
  3  6  1  0  0  0  0
 38 41  1  0  0  0  0
 38 42  1  0  0  0  0
 38 43  1  0  0  0  0
 11 14  1  0  0  0  0
 11 15  1  0  0  0  0
 11 16  1  0  0  0  0
 45 47  1  0  0  0  0
 45 48  1  0  0  0  0
 45 49  1  0  0  0  0
 21 29  1  0  0  0  0
 21 30  1  0  0  0  0
 35 40  1  0  0  0  0
  8 13  1  0  0  0  0
 18 28  1  0  0  0  0
 26 33  1  0  0  0  0
 44 46  1  0  0  0  0
  7 12  1  0  0  0  0
 34 39  1  0  0  0  0
 17 27  1  0  0  0  0
M  END
$$$$

  -OEChem-05262214473D

 49 49  0     1  0  0  0  0  0999 V2000
   -1.6183    0.5613    3.8201 C   0  0  0  0  0  0  0  0  0  0  0  0
   -0.6710   -0.0534    3.3444 O   0  0  0  0  0  0  0  0  0  0  0  0
   -2.0502    0.2789    5.2208 C   0  0  0  0  0  0  0  0  0  0  0  0
   -2.8099   -0.5175    5.2742 H   0  0  0  0  0  0  0  0  0  0  0  0
   -1.2190   -0.0687    5.8551 H   0  0  0  0  0  0  0  0  0  0  0  0
   -2.4882    1.1338    5.7604 H   0  0  0  0  0  0  0  0  0  0  0  0
   -2.3680    1.5337    3.1790 N   0  0  0  0  0  0  0  0  0  0  0  0
   -2.1212    1.9597    1.8266 C   0  0  2  0  0  0  0  0  0  0  0  0
   -0.7862    1.3744    1.3854 C   0  0  0  0  0  0  0  0  0  0  0  0
    0.0859    1.0216    2.1767 O   0  0  0  0  0  0  0  0  0  0  0  0
   -2.1124    3.4765    1.7171 C   0  0  0  0  0  0  0  0  0  0  0  0
   -3.1331    1.9695    3.6908 H   0  0  0  0  0  0  0  0  0  0  0  0
   -2.9253    1.5413    1.2115 H   0  0  0  0  0  0  0  0  0  0  0  0
   -1.3133    3.9138    2.3268 H   0  0  0  0  0  0  0  0  0  0  0  0
   -1.9529    3.7988    0.6829 H   0  0  0  0  0  0  0  0  0  0  0  0
   -3.0626    3.8977    2.0629 H   0  0  0  0  0  0  0  0  0  0  0  0
   -0.6635    1.3313    0.0020 N   0  0  0  0  0  0  0  0  0  0  0  0
    0.5138    0.8305   -0.6617 C   0  0  2  0  0  0  0  0  0  0  0  0
    1.6861    1.6967   -0.2150 C   0  0  0  0  0  0  0  0  0  0  0  0
    1.5717    2.6078    0.6021 O   0  0  0  0  0  0  0  0  0  0  0  0
    0.3768    0.8651   -2.1882 C   0  0  0  0  0  0  0  0  0  0  0  0
   -0.7173   -0.0416   -2.6966 C   0  0  0  0  0  0  0  0  0  0  0  0
   -0.5373   -1.4018   -2.7317 N   0  0  0  0  0  0  0  0  0  0  0  0
   -1.9612    0.3069   -3.1675 C   0  0  0  0  0  0  0  0  0  0  0  0
   -1.6623   -1.8759   -3.2191 C   0  0  0  0  0  0  0  0  0  0  0  0
   -2.5547   -0.8786   -3.4987 N   0  0  0  0  0  0  0  0  0  0  0  0
   -1.4467    1.6280   -0.5753 H   0  0  0  0  0  0  0  0  0  0  0  0
    0.6652   -0.1931   -0.2991 H   0  0  0  0  0  0  0  0  0  0  0  0
    1.3303    0.5950   -2.6619 H   0  0  0  0  0  0  0  0  0  0  0  0
    0.1641    1.8863   -2.5311 H   0  0  0  0  0  0  0  0  0  0  0  0
   -2.4635    1.2551   -3.2945 H   0  0  0  0  0  0  0  0  0  0  0  0
   -1.8922   -2.9177   -3.3923 H   0  0  0  0  0  0  0  0  0  0  0  0
   -3.4839   -0.9969   -3.8799 H   0  0  0  0  0  0  0  0  0  0  0  0
    2.8797    1.2972   -0.8000 N   0  0  0  0  0  0  0  0  0  0  0  0
    4.1482    1.9352   -0.5301 C   0  0  2  0  0  0  0  0  0  0  0  0
    3.9644    3.4376   -0.6989 C   0  0  0  0  0  0  0  0  0  0  0  0
    3.0640    3.9315   -1.3746 O   0  0  0  0  0  0  0  0  0  0  0  0
    5.2375    1.4137   -1.4543 C   0  0  0  0  0  0  0  0  0  0  0  0
    2.8608    0.5173   -1.4504 H   0  0  0  0  0  0  0  0  0  0  0  0
    4.3989    1.7122    0.5127 H   0  0  0  0  0  0  0  0  0  0  0  0
    5.0039    1.6278   -2.5036 H   0  0  0  0  0  0  0  0  0  0  0  0
    6.2039    1.8771   -1.2297 H   0  0  0  0  0  0  0  0  0  0  0  0
    5.3479    0.3286   -1.3532 H   0  0  0  0  0  0  0  0  0  0  0  0
    4.9496    4.1611   -0.0417 N   0  0  0  0  0  0  0  0  0  0  0  0
    5.0013    5.6043   -0.0615 C   0  0  0  0  0  0  0  0  0  0  0  0
    5.6462    3.6694    0.5105 H   0  0  0  0  0  0  0  0  0  0  0  0
    5.6435    5.9373   -0.8902 H   0  0  0  0  0  0  0  0  0  0  0  0
    3.9865    6.0056   -0.2000 H   0  0  0  0  0  0  0  0  0  0  0  0
    5.4132    5.9694    0.8909 H   0  0  0  0  0  0  0  0  0  0  0  0
 22 24  2  0  0  0  0
 24 26  1  0  0  0  0
 23 25  2  0  0  0  0
 25 26  1  0  0  0  0
 21 22  1  0  0  0  0
 22 23  1  0  0  0  0
  1  3  1  0  0  0  0
  1  7  1  0  0  0  0
  1  2  2  0  0  0  0
 35 36  1  0  0  0  0
 36 44  1  0  0  0  0
 36 37  2  0  0  0  0
  8  9  1  0  0  0  0
  9 17  1  0  0  0  0
  9 10  2  0  0  0  0
 18 19  1  0  0  0  0
 19 34  1  0  0  0  0
 19 20  2  0  0  0  0
 35 38  1  0  0  0  0
  8 11  1  0  0  0  0
 44 45  1  0  0  0  0
 18 21  1  0  0  0  0
 34 35  1  0  0  0  0
  7  8  1  0  0  0  0
 17 18  1  0  0  0  0
 24 31  1  0  0  0  0
 25 32  1  0  0  0  0
  3  4  1  0  0  0  0
  3  5  1  0  0  0  0
  3  6  1  0  0  0  0
 38 41  1  0  0  0  0
 38 42  1  0  0  0  0
 38 43  1  0  0  0  0
 11 14  1  0  0  0  0
 11 15  1  0  0  0  0
 11 16  1  0  0  0  0
 45 47  1  0  0  0  0
 45 48  1  0  0  0  0
 45 49  1  0  0  0  0
 21 29  1  0  0  0  0
 21 30  1  0  0  0  0
 35 40  1  0  0  0  0
  8 13  1  0  0  0  0
 18 28  1  0  0  0  0
 26 33  1  0  0  0  0
 44 46  1  0  0  0  0
  7 12  1  0  0  0  0
 34 39  1  0  0  0  0
 17 27  1  0  0  0  0
M  END
$$$$

  -OEChem-05262214473D

 49 49  0     1  0  0  0  0  0999 V2000
   -1.6183    0.5613    3.8201 C   0  0  0  0  0  0  0  0  0  0  0  0
   -0.6710   -0.0534    3.3444 O   0  0  0  0  0  0  0  0  0  0  0  0
   -2.0502    0.2789    5.2208 C   0  0  0  0  0  0  0  0  0  0  0  0
   -2.8099   -0.5175    5.2742 H   0  0  0  0  0  0  0  0  0  0  0  0
   -1.2190   -0.0687    5.8551 H   0  0  0  0  0  0  0  0  0  0  0  0
   -2.4882    1.1338    5.7604 H   0  0  0  0  0  0  0  0  0  0  0  0
   -2.3680    1.5337    3.1790 N   0  0  0  0  0  0  0  0  0  0  0  0
   -2.1212    1.9597    1.8266 C   0  0  2  0  0  0  0  0  0  0  0  0
   -0.7862    1.3744    1.3854 C   0  0  0  0  0  0  0  0  0  0  0  0
    0.0859    1.0216    2.1767 O   0  0  0  0  0  0  0  0  0  0  0  0
   -2.1124    3.4765    1.7171 C   0  0  0  0  0  0  0  0  0  0  0  0
   -3.1331    1.9695    3.6908 H   0  0  0  0  0  0  0  0  0  0  0  0
   -2.9253    1.5413    1.2115 H   0  0  0  0  0  0  0  0  0  0  0  0
   -1.3133    3.9138    2.3268 H   0  0  0  0  0  0  0  0  0  0  0  0
   -1.9529    3.7988    0.6829 H   0  0  0  0  0  0  0  0  0  0  0  0
   -3.0626    3.8977    2.0629 H   0  0  0  0  0  0  0  0  0  0  0  0
   -0.6635    1.3313    0.0020 N   0  0  0  0  0  0  0  0  0  0  0  0
    0.5138    0.8305   -0.6617 C   0  0  2  0  0  0  0  0  0  0  0  0
    1.6861    1.6967   -0.2150 C   0  0  0  0  0  0  0  0  0  0  0  0
    1.6442    2.4184    0.7791 O   0  0  0  0  0  0  0  0  0  0  0  0
    0.3768    0.8651   -2.1882 C   0  0  0  0  0  0  0  0  0  0  0  0
   -0.7173   -0.0416   -2.6966 C   0  0  0  0  0  0  0  0  0  0  0  0
   -0.5373   -1.4018   -2.7317 N   0  0  0  0  0  0  0  0  0  0  0  0
   -1.9612    0.3069   -3.1675 C   0  0  0  0  0  0  0  0  0  0  0  0
   -1.6623   -1.8759   -3.2191 C   0  0  0  0  0  0  0  0  0  0  0  0
   -2.5547   -0.8786   -3.4987 N   0  0  0  0  0  0  0  0  0  0  0  0
   -1.4467    1.6280   -0.5753 H   0  0  0  0  0  0  0  0  0  0  0  0
    0.6652   -0.1931   -0.2991 H   0  0  0  0  0  0  0  0  0  0  0  0
    1.3303    0.5950   -2.6619 H   0  0  0  0  0  0  0  0  0  0  0  0
    0.1641    1.8863   -2.5311 H   0  0  0  0  0  0  0  0  0  0  0  0
   -2.4635    1.2551   -3.2945 H   0  0  0  0  0  0  0  0  0  0  0  0
   -1.8922   -2.9177   -3.3923 H   0  0  0  0  0  0  0  0  0  0  0  0
   -3.4839   -0.9969   -3.8799 H   0  0  0  0  0  0  0  0  0  0  0  0
    2.7970    1.5279   -1.0299 N   0  0  0  0  0  0  0  0  0  0  0  0
    4.0506    2.2140   -0.8146 C   0  0  2  0  0  0  0  0  0  0  0  0
    3.7516    3.6977   -0.6450 C   0  0  0  0  0  0  0  0  0  0  0  0
    2.7292    4.2291   -1.0730 O   0  0  0  0  0  0  0  0  0  0  0  0
    5.0136    1.9820   -1.9686 C   0  0  0  0  0  0  0  0  0  0  0  0
    2.7252    0.8900   -1.8171 H   0  0  0  0  0  0  0  0  0  0  0  0
    4.4727    1.8173    0.1151 H   0  0  0  0  0  0  0  0  0  0  0  0
    4.6078    2.3729   -2.9088 H   0  0  0  0  0  0  0  0  0  0  0  0
    5.9730    2.4789   -1.7908 H   0  0  0  0  0  0  0  0  0  0  0  0
    5.2042    0.9124   -2.1081 H   0  0  0  0  0  0  0  0  0  0  0  0
    4.7808    4.3667    0.0026 N   0  0  0  0  0  0  0  0  0  0  0  0
    4.7408    5.7852    0.2716 C   0  0  0  0  0  0  0  0  0  0  0  0
    5.5830    3.8428    0.3398 H   0  0  0  0  0  0  0  0  0  0  0  0
    5.2254    6.3291   -0.5527 H   0  0  0  0  0  0  0  0  0  0  0  0
    3.6942    6.1119    0.3609 H   0  0  0  0  0  0  0  0  0  0  0  0
    5.2720    5.9951    1.2116 H   0  0  0  0  0  0  0  0  0  0  0  0
 22 24  2  0  0  0  0
 24 26  1  0  0  0  0
 23 25  2  0  0  0  0
 25 26  1  0  0  0  0
 21 22  1  0  0  0  0
 22 23  1  0  0  0  0
  1  3  1  0  0  0  0
  1  7  1  0  0  0  0
  1  2  2  0  0  0  0
 35 36  1  0  0  0  0
 36 44  1  0  0  0  0
 36 37  2  0  0  0  0
  8  9  1  0  0  0  0
  9 17  1  0  0  0  0
  9 10  2  0  0  0  0
 18 19  1  0  0  0  0
 19 34  1  0  0  0  0
 19 20  2  0  0  0  0
 35 38  1  0  0  0  0
  8 11  1  0  0  0  0
 44 45  1  0  0  0  0
 18 21  1  0  0  0  0
 34 35  1  0  0  0  0
  7  8  1  0  0  0  0
 17 18  1  0  0  0  0
 24 31  1  0  0  0  0
 25 32  1  0  0  0  0
  3  4  1  0  0  0  0
  3  5  1  0  0  0  0
  3  6  1  0  0  0  0
 38 41  1  0  0  0  0
 38 42  1  0  0  0  0
 38 43  1  0  0  0  0
 11 14  1  0  0  0  0
 11 15  1  0  0  0  0
 11 16  1  0  0  0  0
 45 47  1  0  0  0  0
 45 48  1  0  0  0  0
 45 49  1  0  0  0  0
 21 29  1  0  0  0  0
 21 30  1  0  0  0  0
 35 40  1  0  0  0  0
  8 13  1  0  0  0  0
 18 28  1  0  0  0  0
 26 33  1  0  0  0  0
 44 46  1  0  0  0  0
  7 12  1  0  0  0  0
 34 39  1  0  0  0  0
 17 27  1  0  0  0  0
M  END
$$$$

  -OEChem-05262214473D

 49 49  0     1  0  0  0  0  0999 V2000
   -1.6183    0.5613    3.8201 C   0  0  0  0  0  0  0  0  0  0  0  0
   -0.6710   -0.0534    3.3444 O   0  0  0  0  0  0  0  0  0  0  0  0
   -2.0502    0.2789    5.2208 C   0  0  0  0  0  0  0  0  0  0  0  0
   -2.8099   -0.5175    5.2742 H   0  0  0  0  0  0  0  0  0  0  0  0
   -1.2190   -0.0687    5.8551 H   0  0  0  0  0  0  0  0  0  0  0  0
   -2.4882    1.1338    5.7604 H   0  0  0  0  0  0  0  0  0  0  0  0
   -2.3680    1.5337    3.1790 N   0  0  0  0  0  0  0  0  0  0  0  0
   -2.1212    1.9597    1.8266 C   0  0  2  0  0  0  0  0  0  0  0  0
   -0.7862    1.3744    1.3854 C   0  0  0  0  0  0  0  0  0  0  0  0
    0.0859    1.0216    2.1767 O   0  0  0  0  0  0  0  0  0  0  0  0
   -2.1124    3.4765    1.7171 C   0  0  0  0  0  0  0  0  0  0  0  0
   -3.1331    1.9695    3.6908 H   0  0  0  0  0  0  0  0  0  0  0  0
   -2.9253    1.5413    1.2115 H   0  0  0  0  0  0  0  0  0  0  0  0
   -1.3133    3.9138    2.3268 H   0  0  0  0  0  0  0  0  0  0  0  0
   -1.9529    3.7988    0.6829 H   0  0  0  0  0  0  0  0  0  0  0  0
   -3.0626    3.8977    2.0629 H   0  0  0  0  0  0  0  0  0  0  0  0
   -0.6635    1.3313    0.0020 N   0  0  0  0  0  0  0  0  0  0  0  0
    0.5138    0.8305   -0.6617 C   0  0  2  0  0  0  0  0  0  0  0  0
    1.6861    1.6967   -0.2150 C   0  0  0  0  0  0  0  0  0  0  0  0
    1.7547    2.2057    0.9017 O   0  0  0  0  0  0  0  0  0  0  0  0
    0.3768    0.8651   -2.1882 C   0  0  0  0  0  0  0  0  0  0  0  0
   -0.7173   -0.0416   -2.6966 C   0  0  0  0  0  0  0  0  0  0  0  0
   -0.5373   -1.4018   -2.7317 N   0  0  0  0  0  0  0  0  0  0  0  0
   -1.9612    0.3069   -3.1675 C   0  0  0  0  0  0  0  0  0  0  0  0
   -1.6623   -1.8759   -3.2191 C   0  0  0  0  0  0  0  0  0  0  0  0
   -2.5547   -0.8786   -3.4987 N   0  0  0  0  0  0  0  0  0  0  0  0
   -1.4467    1.6280   -0.5753 H   0  0  0  0  0  0  0  0  0  0  0  0
    0.6652   -0.1931   -0.2991 H   0  0  0  0  0  0  0  0  0  0  0  0
    1.3303    0.5950   -2.6619 H   0  0  0  0  0  0  0  0  0  0  0  0
    0.1641    1.8863   -2.5311 H   0  0  0  0  0  0  0  0  0  0  0  0
   -2.4635    1.2551   -3.2945 H   0  0  0  0  0  0  0  0  0  0  0  0
   -1.8922   -2.9177   -3.3923 H   0  0  0  0  0  0  0  0  0  0  0  0
   -3.4839   -0.9969   -3.8799 H   0  0  0  0  0  0  0  0  0  0  0  0
    2.6657    1.7901   -1.1938 N   0  0  0  0  0  0  0  0  0  0  0  0
    3.8934    2.5325   -1.0196 C   0  0  2  0  0  0  0  0  0  0  0  0
    3.5344    3.9220   -0.5099 C   0  0  0  0  0  0  0  0  0  0  0  0
    2.4275    4.4312   -0.6733 O   0  0  0  0  0  0  0  0  0  0  0  0
    4.6785    2.6164   -2.3193 C   0  0  0  0  0  0  0  0  0  0  0  0
    2.5120    1.3126   -2.0771 H   0  0  0  0  0  0  0  0  0  0  0  0
    4.4777    2.0035   -0.2589 H   0  0  0  0  0  0  0  0  0  0  0  0
    4.1091    3.1432   -3.0937 H   0  0  0  0  0  0  0  0  0  0  0  0
    5.6218    3.1545   -2.1791 H   0  0  0  0  0  0  0  0  0  0  0  0
    4.9101    1.6157   -2.7000 H   0  0  0  0  0  0  0  0  0  0  0  0
    4.6086    4.5438    0.1110 N   0  0  0  0  0  0  0  0  0  0  0  0
    4.5243    5.8739    0.6676 C   0  0  0  0  0  0  0  0  0  0  0  0
    5.4838    4.0396    0.2187 H   0  0  0  0  0  0  0  0  0  0  0  0
    4.8416    6.6085   -0.0872 H   0  0  0  0  0  0  0  0  0  0  0  0
    3.4863    6.0809    0.9669 H   0  0  0  0  0  0  0  0  0  0  0  0
    5.1808    5.9454    1.5473 H   0  0  0  0  0  0  0  0  0  0  0  0
 22 24  2  0  0  0  0
 24 26  1  0  0  0  0
 23 25  2  0  0  0  0
 25 26  1  0  0  0  0
 21 22  1  0  0  0  0
 22 23  1  0  0  0  0
  1  3  1  0  0  0  0
  1  7  1  0  0  0  0
  1  2  2  0  0  0  0
 35 36  1  0  0  0  0
 36 44  1  0  0  0  0
 36 37  2  0  0  0  0
  8  9  1  0  0  0  0
  9 17  1  0  0  0  0
  9 10  2  0  0  0  0
 18 19  1  0  0  0  0
 19 34  1  0  0  0  0
 19 20  2  0  0  0  0
 35 38  1  0  0  0  0
  8 11  1  0  0  0  0
 44 45  1  0  0  0  0
 18 21  1  0  0  0  0
 34 35  1  0  0  0  0
  7  8  1  0  0  0  0
 17 18  1  0  0  0  0
 24 31  1  0  0  0  0
 25 32  1  0  0  0  0
  3  4  1  0  0  0  0
  3  5  1  0  0  0  0
  3  6  1  0  0  0  0
 38 41  1  0  0  0  0
 38 42  1  0  0  0  0
 38 43  1  0  0  0  0
 11 14  1  0  0  0  0
 11 15  1  0  0  0  0
 11 16  1  0  0  0  0
 45 47  1  0  0  0  0
 45 48  1  0  0  0  0
 45 49  1  0  0  0  0
 21 29  1  0  0  0  0
 21 30  1  0  0  0  0
 35 40  1  0  0  0  0
  8 13  1  0  0  0  0
 18 28  1  0  0  0  0
 26 33  1  0  0  0  0
 44 46  1  0  0  0  0
  7 12  1  0  0  0  0
 34 39  1  0  0  0  0
 17 27  1  0  0  0  0
M  END
$$$$

  -OEChem-05262214473D

 49 49  0     1  0  0  0  0  0999 V2000
   -1.6183    0.5613    3.8201 C   0  0  0  0  0  0  0  0  0  0  0  0
   -0.6710   -0.0534    3.3444 O   0  0  0  0  0  0  0  0  0  0  0  0
   -2.0502    0.2789    5.2208 C   0  0  0  0  0  0  0  0  0  0  0  0
   -2.8099   -0.5175    5.2742 H   0  0  0  0  0  0  0  0  0  0  0  0
   -1.2190   -0.0687    5.8551 H   0  0  0  0  0  0  0  0  0  0  0  0
   -2.4882    1.1338    5.7604 H   0  0  0  0  0  0  0  0  0  0  0  0
   -2.3680    1.5337    3.1790 N   0  0  0  0  0  0  0  0  0  0  0  0
   -2.1212    1.9597    1.8266 C   0  0  2  0  0  0  0  0  0  0  0  0
   -0.7862    1.3744    1.3854 C   0  0  0  0  0  0  0  0  0  0  0  0
    0.0859    1.0216    2.1767 O   0  0  0  0  0  0  0  0  0  0  0  0
   -2.1124    3.4765    1.7171 C   0  0  0  0  0  0  0  0  0  0  0  0
   -3.1331    1.9695    3.6908 H   0  0  0  0  0  0  0  0  0  0  0  0
   -2.9253    1.5413    1.2115 H   0  0  0  0  0  0  0  0  0  0  0  0
   -1.3133    3.9138    2.3268 H   0  0  0  0  0  0  0  0  0  0  0  0
   -1.9529    3.7988    0.6829 H   0  0  0  0  0  0  0  0  0  0  0  0
   -3.0626    3.8977    2.0629 H   0  0  0  0  0  0  0  0  0  0  0  0
   -0.6635    1.3313    0.0020 N   0  0  0  0  0  0  0  0  0  0  0  0
    0.5138    0.8305   -0.6617 C   0  0  2  0  0  0  0  0  0  0  0  0
    1.6861    1.6967   -0.2150 C   0  0  0  0  0  0  0  0  0  0  0  0
    1.8955    1.9842    0.9616 O   0  0  0  0  0  0  0  0  0  0  0  0
    0.3768    0.8651   -2.1882 C   0  0  0  0  0  0  0  0  0  0  0  0
   -0.7173   -0.0416   -2.6966 C   0  0  0  0  0  0  0  0  0  0  0  0
   -0.5373   -1.4018   -2.7317 N   0  0  0  0  0  0  0  0  0  0  0  0
   -1.9612    0.3069   -3.1675 C   0  0  0  0  0  0  0  0  0  0  0  0
   -1.6623   -1.8759   -3.2191 C   0  0  0  0  0  0  0  0  0  0  0  0
   -2.5547   -0.8786   -3.4987 N   0  0  0  0  0  0  0  0  0  0  0  0
   -1.4467    1.6280   -0.5753 H   0  0  0  0  0  0  0  0  0  0  0  0
    0.6652   -0.1931   -0.2991 H   0  0  0  0  0  0  0  0  0  0  0  0
    1.3303    0.5950   -2.6619 H   0  0  0  0  0  0  0  0  0  0  0  0
    0.1641    1.8863   -2.5311 H   0  0  0  0  0  0  0  0  0  0  0  0
   -2.4635    1.2551   -3.2945 H   0  0  0  0  0  0  0  0  0  0  0  0
   -1.8922   -2.9177   -3.3923 H   0  0  0  0  0  0  0  0  0  0  0  0
   -3.4839   -0.9969   -3.8799 H   0  0  0  0  0  0  0  0  0  0  0  0
    2.4949    2.0661   -1.2808 N   0  0  0  0  0  0  0  0  0  0  0  0
    3.6872    2.8690   -1.1311 C   0  0  2  0  0  0  0  0  0  0  0  0
    3.3274    4.0954   -0.3028 C   0  0  0  0  0  0  0  0  0  0  0  0
    2.1797    4.5240   -0.2025 O   0  0  0  0  0  0  0  0  0  0  0  0
    4.2552    3.2735   -2.4826 C   0  0  0  0  0  0  0  0  0  0  0  0
    2.2358    1.7565   -2.2128 H   0  0  0  0  0  0  0  0  0  0  0  0
    4.4133    2.2581   -0.5838 H   0  0  0  0  0  0  0  0  0  0  0  0
    3.5417    3.8863   -3.0456 H   0  0  0  0  0  0  0  0  0  0  0  0
    5.1742    3.8576   -2.3680 H   0  0  0  0  0  0  0  0  0  0  0  0
    4.4856    2.3906   -3.0885 H   0  0  0  0  0  0  0  0  0  0  0  0
    4.4449    4.6802    0.2764 N   0  0  0  0  0  0  0  0  0  0  0  0
    4.3668    5.8643    1.0996 C   0  0  0  0  0  0  0  0  0  0  0  0
    5.3553    4.2462    0.1555 H   0  0  0  0  0  0  0  0  0  0  0  0
    4.5181    6.7567    0.4745 H   0  0  0  0  0  0  0  0  0  0  0  0
    3.3769    5.9145    1.5767 H   0  0  0  0  0  0  0  0  0  0  0  0
    5.1459    5.8236    1.8751 H   0  0  0  0  0  0  0  0  0  0  0  0
 22 24  2  0  0  0  0
 24 26  1  0  0  0  0
 23 25  2  0  0  0  0
 25 26  1  0  0  0  0
 21 22  1  0  0  0  0
 22 23  1  0  0  0  0
  1  3  1  0  0  0  0
  1  7  1  0  0  0  0
  1  2  2  0  0  0  0
 35 36  1  0  0  0  0
 36 44  1  0  0  0  0
 36 37  2  0  0  0  0
  8  9  1  0  0  0  0
  9 17  1  0  0  0  0
  9 10  2  0  0  0  0
 18 19  1  0  0  0  0
 19 34  1  0  0  0  0
 19 20  2  0  0  0  0
 35 38  1  0  0  0  0
  8 11  1  0  0  0  0
 44 45  1  0  0  0  0
 18 21  1  0  0  0  0
 34 35  1  0  0  0  0
  7  8  1  0  0  0  0
 17 18  1  0  0  0  0
 24 31  1  0  0  0  0
 25 32  1  0  0  0  0
  3  4  1  0  0  0  0
  3  5  1  0  0  0  0
  3  6  1  0  0  0  0
 38 41  1  0  0  0  0
 38 42  1  0  0  0  0
 38 43  1  0  0  0  0
 11 14  1  0  0  0  0
 11 15  1  0  0  0  0
 11 16  1  0  0  0  0
 45 47  1  0  0  0  0
 45 48  1  0  0  0  0
 45 49  1  0  0  0  0
 21 29  1  0  0  0  0
 21 30  1  0  0  0  0
 35 40  1  0  0  0  0
  8 13  1  0  0  0  0
 18 28  1  0  0  0  0
 26 33  1  0  0  0  0
 44 46  1  0  0  0  0
  7 12  1  0  0  0  0
 34 39  1  0  0  0  0
 17 27  1  0  0  0  0
M  END
$$$$

  -OEChem-05262214473D

 49 49  0     1  0  0  0  0  0999 V2000
   -1.6183    0.5613    3.8201 C   0  0  0  0  0  0  0  0  0  0  0  0
   -0.6710   -0.0534    3.3444 O   0  0  0  0  0  0  0  0  0  0  0  0
   -2.0502    0.2789    5.2208 C   0  0  0  0  0  0  0  0  0  0  0  0
   -2.8099   -0.5175    5.2742 H   0  0  0  0  0  0  0  0  0  0  0  0
   -1.2190   -0.0687    5.8551 H   0  0  0  0  0  0  0  0  0  0  0  0
   -2.4882    1.1338    5.7604 H   0  0  0  0  0  0  0  0  0  0  0  0
   -2.3680    1.5337    3.1790 N   0  0  0  0  0  0  0  0  0  0  0  0
   -2.1212    1.9597    1.8266 C   0  0  2  0  0  0  0  0  0  0  0  0
   -0.7862    1.3744    1.3854 C   0  0  0  0  0  0  0  0  0  0  0  0
    0.0859    1.0216    2.1767 O   0  0  0  0  0  0  0  0  0  0  0  0
   -2.1124    3.4765    1.7171 C   0  0  0  0  0  0  0  0  0  0  0  0
   -3.1331    1.9695    3.6908 H   0  0  0  0  0  0  0  0  0  0  0  0
   -2.9253    1.5413    1.2115 H   0  0  0  0  0  0  0  0  0  0  0  0
   -1.3133    3.9138    2.3268 H   0  0  0  0  0  0  0  0  0  0  0  0
   -1.9529    3.7988    0.6829 H   0  0  0  0  0  0  0  0  0  0  0  0
   -3.0626    3.8977    2.0629 H   0  0  0  0  0  0  0  0  0  0  0  0
   -0.6635    1.3313    0.0020 N   0  0  0  0  0  0  0  0  0  0  0  0
    0.5138    0.8305   -0.6617 C   0  0  2  0  0  0  0  0  0  0  0  0
    1.6861    1.6967   -0.2150 C   0  0  0  0  0  0  0  0  0  0  0  0
    2.0571    1.7691    0.9546 O   0  0  0  0  0  0  0  0  0  0  0  0
    0.3768    0.8651   -2.1882 C   0  0  0  0  0  0  0  0  0  0  0  0
   -0.7173   -0.0416   -2.6966 C   0  0  0  0  0  0  0  0  0  0  0  0
   -0.5373   -1.4018   -2.7317 N   0  0  0  0  0  0  0  0  0  0  0  0
   -1.9612    0.3069   -3.1675 C   0  0  0  0  0  0  0  0  0  0  0  0
   -1.6623   -1.8759   -3.2191 C   0  0  0  0  0  0  0  0  0  0  0  0
   -2.5547   -0.8786   -3.4987 N   0  0  0  0  0  0  0  0  0  0  0  0
   -1.4467    1.6280   -0.5753 H   0  0  0  0  0  0  0  0  0  0  0  0
    0.6652   -0.1931   -0.2991 H   0  0  0  0  0  0  0  0  0  0  0  0
    1.3303    0.5950   -2.6619 H   0  0  0  0  0  0  0  0  0  0  0  0
    0.1641    1.8863   -2.5311 H   0  0  0  0  0  0  0  0  0  0  0  0
   -2.4635    1.2551   -3.2945 H   0  0  0  0  0  0  0  0  0  0  0  0
   -1.8922   -2.9177   -3.3923 H   0  0  0  0  0  0  0  0  0  0  0  0
   -3.4839   -0.9969   -3.8799 H   0  0  0  0  0  0  0  0  0  0  0  0
    2.2962    2.3370   -1.2847 N   0  0  0  0  0  0  0  0  0  0  0  0
    3.4462    3.2007   -1.1415 C   0  0  2  0  0  0  0  0  0  0  0  0
    3.1448    4.2059   -0.0378 C   0  0  0  0  0  0  0  0  0  0  0  0
    2.0024    4.5011    0.3070 O   0  0  0  0  0  0  0  0  0  0  0  0
    3.7725    3.9086   -2.4472 C   0  0  0  0  0  0  0  0  0  0  0  0
    1.9153    2.1913   -2.2150 H   0  0  0  0  0  0  0  0  0  0  0  0
    4.2841    2.5639   -0.8374 H   0  0  0  0  0  0  0  0  0  0  0  0
    2.9445    4.5514   -2.7678 H   0  0  0  0  0  0  0  0  0  0  0  0
    4.6608    4.5405   -2.3447 H   0  0  0  0  0  0  0  0  0  0  0  0
    3.9597    3.1841   -3.2471 H   0  0  0  0  0  0  0  0  0  0  0  0
    4.3007    4.7666    0.4873 N   0  0  0  0  0  0  0  0  0  0  0  0
    4.2789    5.7572    1.5382 C   0  0  0  0  0  0  0  0  0  0  0  0
    5.2061    4.4486    0.1544 H   0  0  0  0  0  0  0  0  0  0  0  0
    4.2770    6.7636    1.0942 H   0  0  0  0  0  0  0  0  0  0  0  0
    3.3735    5.6241    2.1486 H   0  0  0  0  0  0  0  0  0  0  0  0
    5.1696    5.6381    2.1726 H   0  0  0  0  0  0  0  0  0  0  0  0
 22 24  2  0  0  0  0
 24 26  1  0  0  0  0
 23 25  2  0  0  0  0
 25 26  1  0  0  0  0
 21 22  1  0  0  0  0
 22 23  1  0  0  0  0
  1  3  1  0  0  0  0
  1  7  1  0  0  0  0
  1  2  2  0  0  0  0
 35 36  1  0  0  0  0
 36 44  1  0  0  0  0
 36 37  2  0  0  0  0
  8  9  1  0  0  0  0
  9 17  1  0  0  0  0
  9 10  2  0  0  0  0
 18 19  1  0  0  0  0
 19 34  1  0  0  0  0
 19 20  2  0  0  0  0
 35 38  1  0  0  0  0
  8 11  1  0  0  0  0
 44 45  1  0  0  0  0
 18 21  1  0  0  0  0
 34 35  1  0  0  0  0
  7  8  1  0  0  0  0
 17 18  1  0  0  0  0
 24 31  1  0  0  0  0
 25 32  1  0  0  0  0
  3  4  1  0  0  0  0
  3  5  1  0  0  0  0
  3  6  1  0  0  0  0
 38 41  1  0  0  0  0
 38 42  1  0  0  0  0
 38 43  1  0  0  0  0
 11 14  1  0  0  0  0
 11 15  1  0  0  0  0
 11 16  1  0  0  0  0
 45 47  1  0  0  0  0
 45 48  1  0  0  0  0
 45 49  1  0  0  0  0
 21 29  1  0  0  0  0
 21 30  1  0  0  0  0
 35 40  1  0  0  0  0
  8 13  1  0  0  0  0
 18 28  1  0  0  0  0
 26 33  1  0  0  0  0
 44 46  1  0  0  0  0
  7 12  1  0  0  0  0
 34 39  1  0  0  0  0
 17 27  1  0  0  0  0
M  END
$$$$

  -OEChem-05262214473D

 49 49  0     1  0  0  0  0  0999 V2000
   -1.6183    0.5613    3.8201 C   0  0  0  0  0  0  0  0  0  0  0  0
   -0.6710   -0.0534    3.3444 O   0  0  0  0  0  0  0  0  0  0  0  0
   -2.0502    0.2789    5.2208 C   0  0  0  0  0  0  0  0  0  0  0  0
   -2.8099   -0.5175    5.2742 H   0  0  0  0  0  0  0  0  0  0  0  0
   -1.2190   -0.0687    5.8551 H   0  0  0  0  0  0  0  0  0  0  0  0
   -2.4882    1.1338    5.7604 H   0  0  0  0  0  0  0  0  0  0  0  0
   -2.3680    1.5337    3.1790 N   0  0  0  0  0  0  0  0  0  0  0  0
   -2.1212    1.9597    1.8266 C   0  0  2  0  0  0  0  0  0  0  0  0
   -0.7862    1.3744    1.3854 C   0  0  0  0  0  0  0  0  0  0  0  0
    0.0859    1.0216    2.1767 O   0  0  0  0  0  0  0  0  0  0  0  0
   -2.1124    3.4765    1.7171 C   0  0  0  0  0  0  0  0  0  0  0  0
   -3.1331    1.9695    3.6908 H   0  0  0  0  0  0  0  0  0  0  0  0
   -2.9253    1.5413    1.2115 H   0  0  0  0  0  0  0  0  0  0  0  0
   -1.3133    3.9138    2.3268 H   0  0  0  0  0  0  0  0  0  0  0  0
   -1.9529    3.7988    0.6829 H   0  0  0  0  0  0  0  0  0  0  0  0
   -3.0626    3.8977    2.0629 H   0  0  0  0  0  0  0  0  0  0  0  0
   -0.6635    1.3313    0.0020 N   0  0  0  0  0  0  0  0  0  0  0  0
    0.5138    0.8305   -0.6617 C   0  0  2  0  0  0  0  0  0  0  0  0
    1.6861    1.6967   -0.2150 C   0  0  0  0  0  0  0  0  0  0  0  0
    2.2285    1.5749    0.8813 O   0  0  0  0  0  0  0  0  0  0  0  0
    0.3768    0.8651   -2.1882 C   0  0  0  0  0  0  0  0  0  0  0  0
   -0.7173   -0.0416   -2.6966 C   0  0  0  0  0  0  0  0  0  0  0  0
   -0.5373   -1.4018   -2.7317 N   0  0  0  0  0  0  0  0  0  0  0  0
   -1.9612    0.3069   -3.1675 C   0  0  0  0  0  0  0  0  0  0  0  0
   -1.6623   -1.8759   -3.2191 C   0  0  0  0  0  0  0  0  0  0  0  0
   -2.5547   -0.8786   -3.4987 N   0  0  0  0  0  0  0  0  0  0  0  0
   -1.4467    1.6280   -0.5753 H   0  0  0  0  0  0  0  0  0  0  0  0
    0.6652   -0.1931   -0.2991 H   0  0  0  0  0  0  0  0  0  0  0  0
    1.3303    0.5950   -2.6619 H   0  0  0  0  0  0  0  0  0  0  0  0
    0.1641    1.8863   -2.5311 H   0  0  0  0  0  0  0  0  0  0  0  0
   -2.4635    1.2551   -3.2945 H   0  0  0  0  0  0  0  0  0  0  0  0
   -1.8922   -2.9177   -3.3923 H   0  0  0  0  0  0  0  0  0  0  0  0
   -3.4839   -0.9969   -3.8799 H   0  0  0  0  0  0  0  0  0  0  0  0
    2.0832    2.5844   -1.2053 N   0  0  0  0  0  0  0  0  0  0  0  0
    3.1866    3.5048   -1.0500 C   0  0  2  0  0  0  0  0  0  0  0  0
    2.9990    4.2461    0.2671 C   0  0  0  0  0  0  0  0  0  0  0  0
    1.9079    4.3641    0.8208 O   0  0  0  0  0  0  0  0  0  0  0  0
    3.2632    4.4785   -2.2157 C   0  0  0  0  0  0  0  0  0  0  0  0
    1.5726    2.5874   -2.0834 H   0  0  0  0  0  0  0  0  0  0  0  0
    4.0987    2.8999   -1.0026 H   0  0  0  0  0  0  0  0  0  0  0  0
    2.3580    5.0933   -2.2793 H   0  0  0  0  0  0  0  0  0  0  0  0
    4.1166    5.1565   -2.1108 H   0  0  0  0  0  0  0  0  0  0  0  0
    3.3683    3.9424   -3.1651 H   0  0  0  0  0  0  0  0  0  0  0  0
    4.1858    4.7972    0.7294 N   0  0  0  0  0  0  0  0  0  0  0  0
    4.2666    5.5597    1.9534 C   0  0  0  0  0  0  0  0  0  0  0  0
    5.0465    4.6330    0.2157 H   0  0  0  0  0  0  0  0  0  0  0  0
    4.1347    6.6285    1.7295 H   0  0  0  0  0  0  0  0  0  0  0  0
    3.4764    5.2295    2.6437 H   0  0  0  0  0  0  0  0  0  0  0  0
    5.2503    5.4015    2.4195 H   0  0  0  0  0  0  0  0  0  0  0  0
 22 24  2  0  0  0  0
 24 26  1  0  0  0  0
 23 25  2  0  0  0  0
 25 26  1  0  0  0  0
 21 22  1  0  0  0  0
 22 23  1  0  0  0  0
  1  3  1  0  0  0  0
  1  7  1  0  0  0  0
  1  2  2  0  0  0  0
 35 36  1  0  0  0  0
 36 44  1  0  0  0  0
 36 37  2  0  0  0  0
  8  9  1  0  0  0  0
  9 17  1  0  0  0  0
  9 10  2  0  0  0  0
 18 19  1  0  0  0  0
 19 34  1  0  0  0  0
 19 20  2  0  0  0  0
 35 38  1  0  0  0  0
  8 11  1  0  0  0  0
 44 45  1  0  0  0  0
 18 21  1  0  0  0  0
 34 35  1  0  0  0  0
  7  8  1  0  0  0  0
 17 18  1  0  0  0  0
 24 31  1  0  0  0  0
 25 32  1  0  0  0  0
  3  4  1  0  0  0  0
  3  5  1  0  0  0  0
  3  6  1  0  0  0  0
 38 41  1  0  0  0  0
 38 42  1  0  0  0  0
 38 43  1  0  0  0  0
 11 14  1  0  0  0  0
 11 15  1  0  0  0  0
 11 16  1  0  0  0  0
 45 47  1  0  0  0  0
 45 48  1  0  0  0  0
 45 49  1  0  0  0  0
 21 29  1  0  0  0  0
 21 30  1  0  0  0  0
 35 40  1  0  0  0  0
  8 13  1  0  0  0  0
 18 28  1  0  0  0  0
 26 33  1  0  0  0  0
 44 46  1  0  0  0  0
  7 12  1  0  0  0  0
 34 39  1  0  0  0  0
 17 27  1  0  0  0  0
M  END
$$$$

  -OEChem-05262214473D

 49 49  0     1  0  0  0  0  0999 V2000
   -1.6183    0.5613    3.8201 C   0  0  0  0  0  0  0  0  0  0  0  0
   -0.6710   -0.0534    3.3444 O   0  0  0  0  0  0  0  0  0  0  0  0
   -2.0502    0.2789    5.2208 C   0  0  0  0  0  0  0  0  0  0  0  0
   -2.8099   -0.5175    5.2742 H   0  0  0  0  0  0  0  0  0  0  0  0
   -1.2190   -0.0687    5.8551 H   0  0  0  0  0  0  0  0  0  0  0  0
   -2.4882    1.1338    5.7604 H   0  0  0  0  0  0  0  0  0  0  0  0
   -2.3680    1.5337    3.1790 N   0  0  0  0  0  0  0  0  0  0  0  0
   -2.1212    1.9597    1.8266 C   0  0  2  0  0  0  0  0  0  0  0  0
   -0.7862    1.3744    1.3854 C   0  0  0  0  0  0  0  0  0  0  0  0
    0.0859    1.0216    2.1767 O   0  0  0  0  0  0  0  0  0  0  0  0
   -2.1124    3.4765    1.7171 C   0  0  0  0  0  0  0  0  0  0  0  0
   -3.1331    1.9695    3.6908 H   0  0  0  0  0  0  0  0  0  0  0  0
   -2.9253    1.5413    1.2115 H   0  0  0  0  0  0  0  0  0  0  0  0
   -1.3133    3.9138    2.3268 H   0  0  0  0  0  0  0  0  0  0  0  0
   -1.9529    3.7988    0.6829 H   0  0  0  0  0  0  0  0  0  0  0  0
   -3.0626    3.8977    2.0629 H   0  0  0  0  0  0  0  0  0  0  0  0
   -0.6635    1.3313    0.0020 N   0  0  0  0  0  0  0  0  0  0  0  0
    0.5138    0.8305   -0.6617 C   0  0  2  0  0  0  0  0  0  0  0  0
    1.6861    1.6967   -0.2150 C   0  0  0  0  0  0  0  0  0  0  0  0
    2.3980    1.4149    0.7467 O   0  0  0  0  0  0  0  0  0  0  0  0
    0.3768    0.8651   -2.1882 C   0  0  0  0  0  0  0  0  0  0  0  0
   -0.7173   -0.0416   -2.6966 C   0  0  0  0  0  0  0  0  0  0  0  0
   -0.5373   -1.4018   -2.7317 N   0  0  0  0  0  0  0  0  0  0  0  0
   -1.9612    0.3069   -3.1675 C   0  0  0  0  0  0  0  0  0  0  0  0
   -1.6623   -1.8759   -3.2191 C   0  0  0  0  0  0  0  0  0  0  0  0
   -2.5547   -0.8786   -3.4987 N   0  0  0  0  0  0  0  0  0  0  0  0
   -1.4467    1.6280   -0.5753 H   0  0  0  0  0  0  0  0  0  0  0  0
    0.6652   -0.1931   -0.2991 H   0  0  0  0  0  0  0  0  0  0  0  0
    1.3303    0.5950   -2.6619 H   0  0  0  0  0  0  0  0  0  0  0  0
    0.1641    1.8863   -2.5311 H   0  0  0  0  0  0  0  0  0  0  0  0
   -2.4635    1.2551   -3.2945 H   0  0  0  0  0  0  0  0  0  0  0  0
   -1.8922   -2.9177   -3.3923 H   0  0  0  0  0  0  0  0  0  0  0  0
   -3.4839   -0.9969   -3.8799 H   0  0  0  0  0  0  0  0  0  0  0  0
    1.8703    2.7914   -1.0481 N   0  0  0  0  0  0  0  0  0  0  0  0
    2.9263    3.7606   -0.8630 C   0  0  2  0  0  0  0  0  0  0  0  0
    2.8999    4.2131    0.5909 C   0  0  0  0  0  0  0  0  0  0  0  0
    1.9025    4.1224    1.3036 O   0  0  0  0  0  0  0  0  0  0  0  0
    2.7622    4.9442   -1.8037 C   0  0  0  0  0  0  0  0  0  0  0  0
    1.2308    2.9178   -1.8270 H   0  0  0  0  0  0  0  0  0  0  0  0
    3.8699    3.2433   -1.0680 H   0  0  0  0  0  0  0  0  0  0  0  0
    1.8222    5.4750   -1.6134 H   0  0  0  0  0  0  0  0  0  0  0  0
    3.5785    5.6638   -1.6823 H   0  0  0  0  0  0  0  0  0  0  0  0
    2.7515    4.6136   -2.8479 H   0  0  0  0  0  0  0  0  0  0  0  0
    4.1082    4.7698    0.9863 N   0  0  0  0  0  0  0  0  0  0  0  0
    4.3308    5.2854    2.3170 C   0  0  0  0  0  0  0  0  0  0  0  0
    4.8874    4.7868    0.3350 H   0  0  0  0  0  0  0  0  0  0  0  0
    4.1009    6.3609    2.3372 H   0  0  0  0  0  0  0  0  0  0  0  0
    3.6785    4.7577    3.0284 H   0  0  0  0  0  0  0  0  0  0  0  0
    5.3826    5.1300    2.5991 H   0  0  0  0  0  0  0  0  0  0  0  0
 22 24  2  0  0  0  0
 24 26  1  0  0  0  0
 23 25  2  0  0  0  0
 25 26  1  0  0  0  0
 21 22  1  0  0  0  0
 22 23  1  0  0  0  0
  1  3  1  0  0  0  0
  1  7  1  0  0  0  0
  1  2  2  0  0  0  0
 35 36  1  0  0  0  0
 36 44  1  0  0  0  0
 36 37  2  0  0  0  0
  8  9  1  0  0  0  0
  9 17  1  0  0  0  0
  9 10  2  0  0  0  0
 18 19  1  0  0  0  0
 19 34  1  0  0  0  0
 19 20  2  0  0  0  0
 35 38  1  0  0  0  0
  8 11  1  0  0  0  0
 44 45  1  0  0  0  0
 18 21  1  0  0  0  0
 34 35  1  0  0  0  0
  7  8  1  0  0  0  0
 17 18  1  0  0  0  0
 24 31  1  0  0  0  0
 25 32  1  0  0  0  0
  3  4  1  0  0  0  0
  3  5  1  0  0  0  0
  3  6  1  0  0  0  0
 38 41  1  0  0  0  0
 38 42  1  0  0  0  0
 38 43  1  0  0  0  0
 11 14  1  0  0  0  0
 11 15  1  0  0  0  0
 11 16  1  0  0  0  0
 45 47  1  0  0  0  0
 45 48  1  0  0  0  0
 45 49  1  0  0  0  0
 21 29  1  0  0  0  0
 21 30  1  0  0  0  0
 35 40  1  0  0  0  0
  8 13  1  0  0  0  0
 18 28  1  0  0  0  0
 26 33  1  0  0  0  0
 44 46  1  0  0  0  0
  7 12  1  0  0  0  0
 34 39  1  0  0  0  0
 17 27  1  0  0  0  0
M  END
$$$$

  -OEChem-05262214473D

 49 49  0     1  0  0  0  0  0999 V2000
   -1.6183    0.5613    3.8201 C   0  0  0  0  0  0  0  0  0  0  0  0
   -0.6710   -0.0534    3.3444 O   0  0  0  0  0  0  0  0  0  0  0  0
   -2.0502    0.2789    5.2208 C   0  0  0  0  0  0  0  0  0  0  0  0
   -2.8099   -0.5175    5.2742 H   0  0  0  0  0  0  0  0  0  0  0  0
   -1.2190   -0.0687    5.8551 H   0  0  0  0  0  0  0  0  0  0  0  0
   -2.4882    1.1338    5.7604 H   0  0  0  0  0  0  0  0  0  0  0  0
   -2.3680    1.5337    3.1790 N   0  0  0  0  0  0  0  0  0  0  0  0
   -2.1212    1.9597    1.8266 C   0  0  2  0  0  0  0  0  0  0  0  0
   -0.7862    1.3744    1.3854 C   0  0  0  0  0  0  0  0  0  0  0  0
    0.0859    1.0216    2.1767 O   0  0  0  0  0  0  0  0  0  0  0  0
   -2.1124    3.4765    1.7171 C   0  0  0  0  0  0  0  0  0  0  0  0
   -3.1331    1.9695    3.6908 H   0  0  0  0  0  0  0  0  0  0  0  0
   -2.9253    1.5413    1.2115 H   0  0  0  0  0  0  0  0  0  0  0  0
   -1.3133    3.9138    2.3268 H   0  0  0  0  0  0  0  0  0  0  0  0
   -1.9529    3.7988    0.6829 H   0  0  0  0  0  0  0  0  0  0  0  0
   -3.0626    3.8977    2.0629 H   0  0  0  0  0  0  0  0  0  0  0  0
   -0.6635    1.3313    0.0020 N   0  0  0  0  0  0  0  0  0  0  0  0
    0.5138    0.8305   -0.6617 C   0  0  2  0  0  0  0  0  0  0  0  0
    1.6861    1.6967   -0.2150 C   0  0  0  0  0  0  0  0  0  0  0  0
    2.5540    1.3001    0.5598 O   0  0  0  0  0  0  0  0  0  0  0  0
    0.3768    0.8651   -2.1882 C   0  0  0  0  0  0  0  0  0  0  0  0
   -0.7173   -0.0416   -2.6966 C   0  0  0  0  0  0  0  0  0  0  0  0
   -0.5373   -1.4018   -2.7317 N   0  0  0  0  0  0  0  0  0  0  0  0
   -1.9612    0.3069   -3.1675 C   0  0  0  0  0  0  0  0  0  0  0  0
   -1.6623   -1.8759   -3.2191 C   0  0  0  0  0  0  0  0  0  0  0  0
   -2.5547   -0.8786   -3.4987 N   0  0  0  0  0  0  0  0  0  0  0  0
   -1.4467    1.6280   -0.5753 H   0  0  0  0  0  0  0  0  0  0  0  0
    0.6652   -0.1931   -0.2991 H   0  0  0  0  0  0  0  0  0  0  0  0
    1.3303    0.5950   -2.6619 H   0  0  0  0  0  0  0  0  0  0  0  0
    0.1641    1.8863   -2.5311 H   0  0  0  0  0  0  0  0  0  0  0  0
   -2.4635    1.2551   -3.2945 H   0  0  0  0  0  0  0  0  0  0  0  0
   -1.8922   -2.9177   -3.3923 H   0  0  0  0  0  0  0  0  0  0  0  0
   -3.4839   -0.9969   -3.8799 H   0  0  0  0  0  0  0  0  0  0  0  0
    1.6721    2.9439   -0.8237 N   0  0  0  0  0  0  0  0  0  0  0  0
    2.6830    3.9508   -0.5932 C   0  0  2  0  0  0  0  0  0  0  0  0
    2.8544    4.1093    0.9118 C   0  0  0  0  0  0  0  0  0  0  0  0
    1.9866    3.7925    1.7227 O   0  0  0  0  0  0  0  0  0  0  0  0
    2.3034    5.2741   -1.2394 C   0  0  0  0  0  0  0  0  0  0  0  0
    0.9133    3.1600   -1.4634 H   0  0  0  0  0  0  0  0  0  0  0  0
    3.6133    3.5706   -1.0292 H   0  0  0  0  0  0  0  0  0  0  0  0
    1.3737    5.6706   -0.8153 H   0  0  0  0  0  0  0  0  0  0  0  0
    3.0834    6.0276   -1.0883 H   0  0  0  0  0  0  0  0  0  0  0  0
    2.1515    5.1520   -2.3173 H   0  0  0  0  0  0  0  0  0  0  0  0
    4.0731    4.6863    1.2404 N   0  0  0  0  0  0  0  0  0  0  0  0
    4.4670    4.9529    2.6041 C   0  0  0  0  0  0  0  0  0  0  0  0
    4.7396    4.8996    0.5042 H   0  0  0  0  0  0  0  0  0  0  0  0
    4.1779    5.9788    2.8759 H   0  0  0  0  0  0  0  0  0  0  0  0
    3.9661    4.2407    3.2762 H   0  0  0  0  0  0  0  0  0  0  0  0
    5.5573    4.8420    2.6991 H   0  0  0  0  0  0  0  0  0  0  0  0
 22 24  2  0  0  0  0
 24 26  1  0  0  0  0
 23 25  2  0  0  0  0
 25 26  1  0  0  0  0
 21 22  1  0  0  0  0
 22 23  1  0  0  0  0
  1  3  1  0  0  0  0
  1  7  1  0  0  0  0
  1  2  2  0  0  0  0
 35 36  1  0  0  0  0
 36 44  1  0  0  0  0
 36 37  2  0  0  0  0
  8  9  1  0  0  0  0
  9 17  1  0  0  0  0
  9 10  2  0  0  0  0
 18 19  1  0  0  0  0
 19 34  1  0  0  0  0
 19 20  2  0  0  0  0
 35 38  1  0  0  0  0
  8 11  1  0  0  0  0
 44 45  1  0  0  0  0
 18 21  1  0  0  0  0
 34 35  1  0  0  0  0
  7  8  1  0  0  0  0
 17 18  1  0  0  0  0
 24 31  1  0  0  0  0
 25 32  1  0  0  0  0
  3  4  1  0  0  0  0
  3  5  1  0  0  0  0
  3  6  1  0  0  0  0
 38 41  1  0  0  0  0
 38 42  1  0  0  0  0
 38 43  1  0  0  0  0
 11 14  1  0  0  0  0
 11 15  1  0  0  0  0
 11 16  1  0  0  0  0
 45 47  1  0  0  0  0
 45 48  1  0  0  0  0
 45 49  1  0  0  0  0
 21 29  1  0  0  0  0
 21 30  1  0  0  0  0
 35 40  1  0  0  0  0
  8 13  1  0  0  0  0
 18 28  1  0  0  0  0
 26 33  1  0  0  0  0
 44 46  1  0  0  0  0
  7 12  1  0  0  0  0
 34 39  1  0  0  0  0
 17 27  1  0  0  0  0
M  END
$$$$

  -OEChem-05262214473D

 49 49  0     1  0  0  0  0  0999 V2000
   -1.6183    0.5613    3.8201 C   0  0  0  0  0  0  0  0  0  0  0  0
   -0.6710   -0.0534    3.3444 O   0  0  0  0  0  0  0  0  0  0  0  0
   -2.0502    0.2789    5.2208 C   0  0  0  0  0  0  0  0  0  0  0  0
   -2.8099   -0.5175    5.2742 H   0  0  0  0  0  0  0  0  0  0  0  0
   -1.2190   -0.0687    5.8551 H   0  0  0  0  0  0  0  0  0  0  0  0
   -2.4882    1.1338    5.7604 H   0  0  0  0  0  0  0  0  0  0  0  0
   -2.3680    1.5337    3.1790 N   0  0  0  0  0  0  0  0  0  0  0  0
   -2.1212    1.9597    1.8266 C   0  0  2  0  0  0  0  0  0  0  0  0
   -0.7862    1.3744    1.3854 C   0  0  0  0  0  0  0  0  0  0  0  0
    0.0859    1.0216    2.1767 O   0  0  0  0  0  0  0  0  0  0  0  0
   -2.1124    3.4765    1.7171 C   0  0  0  0  0  0  0  0  0  0  0  0
   -3.1331    1.9695    3.6908 H   0  0  0  0  0  0  0  0  0  0  0  0
   -2.9253    1.5413    1.2115 H   0  0  0  0  0  0  0  0  0  0  0  0
   -1.3133    3.9138    2.3268 H   0  0  0  0  0  0  0  0  0  0  0  0
   -1.9529    3.7988    0.6829 H   0  0  0  0  0  0  0  0  0  0  0  0
   -3.0626    3.8977    2.0629 H   0  0  0  0  0  0  0  0  0  0  0  0
   -0.6635    1.3313    0.0020 N   0  0  0  0  0  0  0  0  0  0  0  0
    0.5138    0.8305   -0.6617 C   0  0  2  0  0  0  0  0  0  0  0  0
    1.6861    1.6967   -0.2150 C   0  0  0  0  0  0  0  0  0  0  0  0
    2.6860    1.2382    0.3335 O   0  0  0  0  0  0  0  0  0  0  0  0
    0.3768    0.8651   -2.1882 C   0  0  0  0  0  0  0  0  0  0  0  0
   -0.7173   -0.0416   -2.6966 C   0  0  0  0  0  0  0  0  0  0  0  0
   -0.5373   -1.4018   -2.7317 N   0  0  0  0  0  0  0  0  0  0  0  0
   -1.9612    0.3069   -3.1675 C   0  0  0  0  0  0  0  0  0  0  0  0
   -1.6623   -1.8759   -3.2191 C   0  0  0  0  0  0  0  0  0  0  0  0
   -2.5547   -0.8786   -3.4987 N   0  0  0  0  0  0  0  0  0  0  0  0
   -1.4467    1.6280   -0.5753 H   0  0  0  0  0  0  0  0  0  0  0  0
    0.6652   -0.1931   -0.2991 H   0  0  0  0  0  0  0  0  0  0  0  0
    1.3303    0.5950   -2.6619 H   0  0  0  0  0  0  0  0  0  0  0  0
    0.1641    1.8863   -2.5311 H   0  0  0  0  0  0  0  0  0  0  0  0
   -2.4635    1.2551   -3.2945 H   0  0  0  0  0  0  0  0  0  0  0  0
   -1.8922   -2.9177   -3.3923 H   0  0  0  0  0  0  0  0  0  0  0  0
   -3.4839   -0.9969   -3.8799 H   0  0  0  0  0  0  0  0  0  0  0  0
    1.5021    3.0316   -0.5475 N   0  0  0  0  0  0  0  0  0  0  0  0
    2.4732    4.0624   -0.2589 C   0  0  2  0  0  0  0  0  0  0  0  0
    2.8654    3.9418    1.2077 C   0  0  0  0  0  0  0  0  0  0  0  0
    2.1545    3.3967    2.0495 O   0  0  0  0  0  0  0  0  0  0  0  0
    1.9183    5.4456   -0.5613 C   0  0  0  0  0  0  0  0  0  0  0  0
    0.6417    3.2975   -1.0172 H   0  0  0  0  0  0  0  0  0  0  0  0
    3.3462    3.8597   -0.8889 H   0  0  0  0  0  0  0  0  0  0  0  0
    1.0430    5.6666    0.0604 H   0  0  0  0  0  0  0  0  0  0  0  0
    2.6649    6.2233   -0.3692 H   0  0  0  0  0  0  0  0  0  0  0  0
    1.6092    5.5210   -1.6094 H   0  0  0  0  0  0  0  0  0  0  0  0
    4.0828    4.5525    1.4744 N   0  0  0  0  0  0  0  0  0  0  0  0
    4.6660    4.5849    2.7953 C   0  0  0  0  0  0  0  0  0  0  0  0
    4.6132    4.9636    0.7119 H   0  0  0  0  0  0  0  0  0  0  0  0
    4.3605    5.5084    3.3089 H   0  0  0  0  0  0  0  0  0  0  0  0
    4.3195    3.7137    3.3705 H   0  0  0  0  0  0  0  0  0  0  0  0
    5.7626    4.5571    2.7126 H   0  0  0  0  0  0  0  0  0  0  0  0
 22 24  2  0  0  0  0
 24 26  1  0  0  0  0
 23 25  2  0  0  0  0
 25 26  1  0  0  0  0
 21 22  1  0  0  0  0
 22 23  1  0  0  0  0
  1  3  1  0  0  0  0
  1  7  1  0  0  0  0
  1  2  2  0  0  0  0
 35 36  1  0  0  0  0
 36 44  1  0  0  0  0
 36 37  2  0  0  0  0
  8  9  1  0  0  0  0
  9 17  1  0  0  0  0
  9 10  2  0  0  0  0
 18 19  1  0  0  0  0
 19 34  1  0  0  0  0
 19 20  2  0  0  0  0
 35 38  1  0  0  0  0
  8 11  1  0  0  0  0
 44 45  1  0  0  0  0
 18 21  1  0  0  0  0
 34 35  1  0  0  0  0
  7  8  1  0  0  0  0
 17 18  1  0  0  0  0
 24 31  1  0  0  0  0
 25 32  1  0  0  0  0
  3  4  1  0  0  0  0
  3  5  1  0  0  0  0
  3  6  1  0  0  0  0
 38 41  1  0  0  0  0
 38 42  1  0  0  0  0
 38 43  1  0  0  0  0
 11 14  1  0  0  0  0
 11 15  1  0  0  0  0
 11 16  1  0  0  0  0
 45 47  1  0  0  0  0
 45 48  1  0  0  0  0
 45 49  1  0  0  0  0
 21 29  1  0  0  0  0
 21 30  1  0  0  0  0
 35 40  1  0  0  0  0
  8 13  1  0  0  0  0
 18 28  1  0  0  0  0
 26 33  1  0  0  0  0
 44 46  1  0  0  0  0
  7 12  1  0  0  0  0
 34 39  1  0  0  0  0
 17 27  1  0  0  0  0
M  END
$$$$

  -OEChem-05262214473D

 49 49  0     1  0  0  0  0  0999 V2000
   -1.6183    0.5613    3.8201 C   0  0  0  0  0  0  0  0  0  0  0  0
   -0.6710   -0.0534    3.3444 O   0  0  0  0  0  0  0  0  0  0  0  0
   -2.0502    0.2789    5.2208 C   0  0  0  0  0  0  0  0  0  0  0  0
   -2.8099   -0.5175    5.2742 H   0  0  0  0  0  0  0  0  0  0  0  0
   -1.2190   -0.0687    5.8551 H   0  0  0  0  0  0  0  0  0  0  0  0
   -2.4882    1.1338    5.7604 H   0  0  0  0  0  0  0  0  0  0  0  0
   -2.3680    1.5337    3.1790 N   0  0  0  0  0  0  0  0  0  0  0  0
   -2.1212    1.9597    1.8266 C   0  0  2  0  0  0  0  0  0  0  0  0
   -0.7862    1.3744    1.3854 C   0  0  0  0  0  0  0  0  0  0  0  0
    0.0859    1.0216    2.1767 O   0  0  0  0  0  0  0  0  0  0  0  0
   -2.1124    3.4765    1.7171 C   0  0  0  0  0  0  0  0  0  0  0  0
   -3.1331    1.9695    3.6908 H   0  0  0  0  0  0  0  0  0  0  0  0
   -2.9253    1.5413    1.2115 H   0  0  0  0  0  0  0  0  0  0  0  0
   -1.3133    3.9138    2.3268 H   0  0  0  0  0  0  0  0  0  0  0  0
   -1.9529    3.7988    0.6829 H   0  0  0  0  0  0  0  0  0  0  0  0
   -3.0626    3.8977    2.0629 H   0  0  0  0  0  0  0  0  0  0  0  0
   -0.6635    1.3313    0.0020 N   0  0  0  0  0  0  0  0  0  0  0  0
    0.5138    0.8305   -0.6617 C   0  0  2  0  0  0  0  0  0  0  0  0
    1.6861    1.6967   -0.2150 C   0  0  0  0  0  0  0  0  0  0  0  0
    2.7849    1.2334    0.0832 O   0  0  0  0  0  0  0  0  0  0  0  0
    0.3768    0.8651   -2.1882 C   0  0  0  0  0  0  0  0  0  0  0  0
   -0.7173   -0.0416   -2.6966 C   0  0  0  0  0  0  0  0  0  0  0  0
   -0.5373   -1.4018   -2.7317 N   0  0  0  0  0  0  0  0  0  0  0  0
   -1.9612    0.3069   -3.1675 C   0  0  0  0  0  0  0  0  0  0  0  0
   -1.6623   -1.8759   -3.2191 C   0  0  0  0  0  0  0  0  0  0  0  0
   -2.5547   -0.8786   -3.4987 N   0  0  0  0  0  0  0  0  0  0  0  0
   -1.4467    1.6280   -0.5753 H   0  0  0  0  0  0  0  0  0  0  0  0
    0.6652   -0.1931   -0.2991 H   0  0  0  0  0  0  0  0  0  0  0  0
    1.3303    0.5950   -2.6619 H   0  0  0  0  0  0  0  0  0  0  0  0
    0.1641    1.8863   -2.5311 H   0  0  0  0  0  0  0  0  0  0  0  0
   -2.4635    1.2551   -3.2945 H   0  0  0  0  0  0  0  0  0  0  0  0
   -1.8922   -2.9177   -3.3923 H   0  0  0  0  0  0  0  0  0  0  0  0
   -3.4839   -0.9969   -3.8799 H   0  0  0  0  0  0  0  0  0  0  0  0
    1.3719    3.0484   -0.2382 N   0  0  0  0  0  0  0  0  0  0  0  0
    2.3113    4.0877    0.1170 C   0  0  2  0  0  0  0  0  0  0  0  0
    2.9323    3.7219    1.4586 C   0  0  0  0  0  0  0  0  0  0  0  0
    2.3948    2.9621    2.2617 O   0  0  0  0  0  0  0  0  0  0  0  0
    1.6330    5.4471    0.1846 C   0  0  0  0  0  0  0  0  0  0  0  0
    0.4345    3.3209   -0.5190 H   0  0  0  0  0  0  0  0  0  0  0  0
    3.0870    4.0907   -0.6565 H   0  0  0  0  0  0  0  0  0  0  0  0
    0.8526    5.4634    0.9541 H   0  0  0  0  0  0  0  0  0  0  0  0
    2.3515    6.2375    0.4258 H   0  0  0  0  0  0  0  0  0  0  0  0
    1.1614    5.6954   -0.7724 H   0  0  0  0  0  0  0  0  0  0  0  0
    4.1368    4.3773    1.6723 N   0  0  0  0  0  0  0  0  0  0  0  0
    4.9143    4.2066    2.8774 C   0  0  0  0  0  0  0  0  0  0  0  0
    4.5168    4.9746    0.9438 H   0  0  0  0  0  0  0  0  0  0  0  0
    4.6362    4.9817    3.6067 H   0  0  0  0  0  0  0  0  0  0  0  0
    4.7146    3.2128    3.3047 H   0  0  0  0  0  0  0  0  0  0  0  0
    5.9845    4.2949    2.6388 H   0  0  0  0  0  0  0  0  0  0  0  0
 22 24  2  0  0  0  0
 24 26  1  0  0  0  0
 23 25  2  0  0  0  0
 25 26  1  0  0  0  0
 21 22  1  0  0  0  0
 22 23  1  0  0  0  0
  1  3  1  0  0  0  0
  1  7  1  0  0  0  0
  1  2  2  0  0  0  0
 35 36  1  0  0  0  0
 36 44  1  0  0  0  0
 36 37  2  0  0  0  0
  8  9  1  0  0  0  0
  9 17  1  0  0  0  0
  9 10  2  0  0  0  0
 18 19  1  0  0  0  0
 19 34  1  0  0  0  0
 19 20  2  0  0  0  0
 35 38  1  0  0  0  0
  8 11  1  0  0  0  0
 44 45  1  0  0  0  0
 18 21  1  0  0  0  0
 34 35  1  0  0  0  0
  7  8  1  0  0  0  0
 17 18  1  0  0  0  0
 24 31  1  0  0  0  0
 25 32  1  0  0  0  0
  3  4  1  0  0  0  0
  3  5  1  0  0  0  0
  3  6  1  0  0  0  0
 38 41  1  0  0  0  0
 38 42  1  0  0  0  0
 38 43  1  0  0  0  0
 11 14  1  0  0  0  0
 11 15  1  0  0  0  0
 11 16  1  0  0  0  0
 45 47  1  0  0  0  0
 45 48  1  0  0  0  0
 45 49  1  0  0  0  0
 21 29  1  0  0  0  0
 21 30  1  0  0  0  0
 35 40  1  0  0  0  0
  8 13  1  0  0  0  0
 18 28  1  0  0  0  0
 26 33  1  0  0  0  0
 44 46  1  0  0  0  0
  7 12  1  0  0  0  0
 34 39  1  0  0  0  0
 17 27  1  0  0  0  0
M  END
$$$$

  -OEChem-05262214473D

 49 49  0     1  0  0  0  0  0999 V2000
   -1.6183    0.5613    3.8201 C   0  0  0  0  0  0  0  0  0  0  0  0
   -0.6710   -0.0534    3.3444 O   0  0  0  0  0  0  0  0  0  0  0  0
   -2.0502    0.2789    5.2208 C   0  0  0  0  0  0  0  0  0  0  0  0
   -2.8099   -0.5175    5.2742 H   0  0  0  0  0  0  0  0  0  0  0  0
   -1.2190   -0.0687    5.8551 H   0  0  0  0  0  0  0  0  0  0  0  0
   -2.4882    1.1338    5.7604 H   0  0  0  0  0  0  0  0  0  0  0  0
   -2.3680    1.5337    3.1790 N   0  0  0  0  0  0  0  0  0  0  0  0
   -2.1212    1.9597    1.8266 C   0  0  2  0  0  0  0  0  0  0  0  0
   -0.7862    1.3744    1.3854 C   0  0  0  0  0  0  0  0  0  0  0  0
    0.0859    1.0216    2.1767 O   0  0  0  0  0  0  0  0  0  0  0  0
   -2.1124    3.4765    1.7171 C   0  0  0  0  0  0  0  0  0  0  0  0
   -3.1331    1.9695    3.6908 H   0  0  0  0  0  0  0  0  0  0  0  0
   -2.9253    1.5413    1.2115 H   0  0  0  0  0  0  0  0  0  0  0  0
   -1.3133    3.9138    2.3268 H   0  0  0  0  0  0  0  0  0  0  0  0
   -1.9529    3.7988    0.6829 H   0  0  0  0  0  0  0  0  0  0  0  0
   -3.0626    3.8977    2.0629 H   0  0  0  0  0  0  0  0  0  0  0  0
   -0.6635    1.3313    0.0020 N   0  0  0  0  0  0  0  0  0  0  0  0
    0.5138    0.8305   -0.6617 C   0  0  2  0  0  0  0  0  0  0  0  0
    1.6861    1.6967   -0.2150 C   0  0  0  0  0  0  0  0  0  0  0  0
    2.8440    1.2861   -0.1740 O   0  0  0  0  0  0  0  0  0  0  0  0
    0.3768    0.8651   -2.1882 C   0  0  0  0  0  0  0  0  0  0  0  0
   -0.7173   -0.0416   -2.6966 C   0  0  0  0  0  0  0  0  0  0  0  0
   -0.5373   -1.4018   -2.7317 N   0  0  0  0  0  0  0  0  0  0  0  0
   -1.9612    0.3069   -3.1675 C   0  0  0  0  0  0  0  0  0  0  0  0
   -1.6623   -1.8759   -3.2191 C   0  0  0  0  0  0  0  0  0  0  0  0
   -2.5547   -0.8786   -3.4987 N   0  0  0  0  0  0  0  0  0  0  0  0
   -1.4467    1.6280   -0.5753 H   0  0  0  0  0  0  0  0  0  0  0  0
    0.6652   -0.1931   -0.2991 H   0  0  0  0  0  0  0  0  0  0  0  0
    1.3303    0.5950   -2.6619 H   0  0  0  0  0  0  0  0  0  0  0  0
    0.1641    1.8863   -2.5311 H   0  0  0  0  0  0  0  0  0  0  0  0
   -2.4635    1.2551   -3.2945 H   0  0  0  0  0  0  0  0  0  0  0  0
   -1.8922   -2.9177   -3.3923 H   0  0  0  0  0  0  0  0  0  0  0  0
   -3.4839   -0.9969   -3.8799 H   0  0  0  0  0  0  0  0  0  0  0  0
    1.2903    2.9932    0.0830 N   0  0  0  0  0  0  0  0  0  0  0  0
    2.2082    4.0250    0.5090 C   0  0  2  0  0  0  0  0  0  0  0  0
    3.0505    3.4646    1.6474 C   0  0  0  0  0  0  0  0  0  0  0  0
    2.6910    2.5183    2.3448 O   0  0  0  0  0  0  0  0  0  0  0  0
    1.4670    5.2785    0.9473 C   0  0  0  0  0  0  0  0  0  0  0  0
    0.3059    3.2287   -0.0026 H   0  0  0  0  0  0  0  0  0  0  0  0
    2.8533    4.2479   -0.3479 H   0  0  0  0  0  0  0  0  0  0  0  0
    0.8155    5.0748    1.8049 H   0  0  0  0  0  0  0  0  0  0  0  0
    2.1647    6.0692    1.2426 H   0  0  0  0  0  0  0  0  0  0  0  0
    0.8388    5.6633    0.1367 H   0  0  0  0  0  0  0  0  0  0  0  0
    4.2313    4.1729    1.8207 N   0  0  0  0  0  0  0  0  0  0  0  0
    5.1949    3.8436    2.8450 C   0  0  0  0  0  0  0  0  0  0  0  0
    4.4569    4.9316    1.1842 H   0  0  0  0  0  0  0  0  0  0  0  0
    4.9863    4.4346    3.7490 H   0  0  0  0  0  0  0  0  0  0  0  0
    5.1247    2.7720    3.0833 H   0  0  0  0  0  0  0  0  0  0  0  0
    6.2078    4.0730    2.4827 H   0  0  0  0  0  0  0  0  0  0  0  0
 22 24  2  0  0  0  0
 24 26  1  0  0  0  0
 23 25  2  0  0  0  0
 25 26  1  0  0  0  0
 21 22  1  0  0  0  0
 22 23  1  0  0  0  0
  1  3  1  0  0  0  0
  1  7  1  0  0  0  0
  1  2  2  0  0  0  0
 35 36  1  0  0  0  0
 36 44  1  0  0  0  0
 36 37  2  0  0  0  0
  8  9  1  0  0  0  0
  9 17  1  0  0  0  0
  9 10  2  0  0  0  0
 18 19  1  0  0  0  0
 19 34  1  0  0  0  0
 19 20  2  0  0  0  0
 35 38  1  0  0  0  0
  8 11  1  0  0  0  0
 44 45  1  0  0  0  0
 18 21  1  0  0  0  0
 34 35  1  0  0  0  0
  7  8  1  0  0  0  0
 17 18  1  0  0  0  0
 24 31  1  0  0  0  0
 25 32  1  0  0  0  0
  3  4  1  0  0  0  0
  3  5  1  0  0  0  0
  3  6  1  0  0  0  0
 38 41  1  0  0  0  0
 38 42  1  0  0  0  0
 38 43  1  0  0  0  0
 11 14  1  0  0  0  0
 11 15  1  0  0  0  0
 11 16  1  0  0  0  0
 45 47  1  0  0  0  0
 45 48  1  0  0  0  0
 45 49  1  0  0  0  0
 21 29  1  0  0  0  0
 21 30  1  0  0  0  0
 35 40  1  0  0  0  0
  8 13  1  0  0  0  0
 18 28  1  0  0  0  0
 26 33  1  0  0  0  0
 44 46  1  0  0  0  0
  7 12  1  0  0  0  0
 34 39  1  0  0  0  0
 17 27  1  0  0  0  0
M  END
$$$$

  -OEChem-05262214473D

 49 49  0     1  0  0  0  0  0999 V2000
   -1.6183    0.5613    3.8201 C   0  0  0  0  0  0  0  0  0  0  0  0
   -0.6710   -0.0534    3.3444 O   0  0  0  0  0  0  0  0  0  0  0  0
   -2.0502    0.2789    5.2208 C   0  0  0  0  0  0  0  0  0  0  0  0
   -2.8099   -0.5175    5.2742 H   0  0  0  0  0  0  0  0  0  0  0  0
   -1.2190   -0.0687    5.8551 H   0  0  0  0  0  0  0  0  0  0  0  0
   -2.4882    1.1338    5.7604 H   0  0  0  0  0  0  0  0  0  0  0  0
   -2.3680    1.5337    3.1790 N   0  0  0  0  0  0  0  0  0  0  0  0
   -2.1212    1.9597    1.8266 C   0  0  2  0  0  0  0  0  0  0  0  0
   -0.7862    1.3744    1.3854 C   0  0  0  0  0  0  0  0  0  0  0  0
    0.0859    1.0216    2.1767 O   0  0  0  0  0  0  0  0  0  0  0  0
   -2.1124    3.4765    1.7171 C   0  0  0  0  0  0  0  0  0  0  0  0
   -3.1331    1.9695    3.6908 H   0  0  0  0  0  0  0  0  0  0  0  0
   -2.9253    1.5413    1.2115 H   0  0  0  0  0  0  0  0  0  0  0  0
   -1.3133    3.9138    2.3268 H   0  0  0  0  0  0  0  0  0  0  0  0
   -1.9529    3.7988    0.6829 H   0  0  0  0  0  0  0  0  0  0  0  0
   -3.0626    3.8977    2.0629 H   0  0  0  0  0  0  0  0  0  0  0  0
   -0.6635    1.3313    0.0020 N   0  0  0  0  0  0  0  0  0  0  0  0
    0.5138    0.8305   -0.6617 C   0  0  2  0  0  0  0  0  0  0  0  0
    1.6861    1.6967   -0.2150 C   0  0  0  0  0  0  0  0  0  0  0  0
    2.8592    1.3927   -0.4207 O   0  0  0  0  0  0  0  0  0  0  0  0
    0.3768    0.8651   -2.1882 C   0  0  0  0  0  0  0  0  0  0  0  0
   -0.7173   -0.0416   -2.6966 C   0  0  0  0  0  0  0  0  0  0  0  0
   -0.5373   -1.4018   -2.7317 N   0  0  0  0  0  0  0  0  0  0  0  0
   -1.9612    0.3069   -3.1675 C   0  0  0  0  0  0  0  0  0  0  0  0
   -1.6623   -1.8759   -3.2191 C   0  0  0  0  0  0  0  0  0  0  0  0
   -2.5547   -0.8786   -3.4987 N   0  0  0  0  0  0  0  0  0  0  0  0
   -1.4467    1.6280   -0.5753 H   0  0  0  0  0  0  0  0  0  0  0  0
    0.6652   -0.1931   -0.2991 H   0  0  0  0  0  0  0  0  0  0  0  0
    1.3303    0.5950   -2.6619 H   0  0  0  0  0  0  0  0  0  0  0  0
    0.1641    1.8863   -2.5311 H   0  0  0  0  0  0  0  0  0  0  0  0
   -2.4635    1.2551   -3.2945 H   0  0  0  0  0  0  0  0  0  0  0  0
   -1.8922   -2.9177   -3.3923 H   0  0  0  0  0  0  0  0  0  0  0  0
   -3.4839   -0.9969   -3.8799 H   0  0  0  0  0  0  0  0  0  0  0  0
    1.2629    2.8697    0.3943 N   0  0  0  0  0  0  0  0  0  0  0  0
    2.1711    3.8787    0.8903 C   0  0  2  0  0  0  0  0  0  0  0  0
    3.2119    3.1874    1.7611 C   0  0  0  0  0  0  0  0  0  0  0  0
    3.0230    2.0955    2.2932 O   0  0  0  0  0  0  0  0  0  0  0  0
    1.4316    4.9513    1.6748 C   0  0  0  0  0  0  0  0  0  0  0  0
    0.2647    3.0270    0.4968 H   0  0  0  0  0  0  0  0  0  0  0  0
    2.6610    4.3206    0.0158 H   0  0  0  0  0  0  0  0  0  0  0  0
    0.9343    4.5274    2.5549 H   0  0  0  0  0  0  0  0  0  0  0  0
    2.1171    5.7298    2.0255 H   0  0  0  0  0  0  0  0  0  0  0  0
    0.6633    5.4269    1.0558 H   0  0  0  0  0  0  0  0  0  0  0  0
    4.3600    3.9530    1.9094 N   0  0  0  0  0  0  0  0  0  0  0  0
    5.4886    3.5207    2.7001 C   0  0  0  0  0  0  0  0  0  0  0  0
    4.4376    4.8378    1.4166 H   0  0  0  0  0  0  0  0  0  0  0  0
    5.3868    3.9043    3.7260 H   0  0  0  0  0  0  0  0  0  0  0  0
    5.5216    2.4214    2.7214 H   0  0  0  0  0  0  0  0  0  0  0  0
    6.4174    3.9068    2.2549 H   0  0  0  0  0  0  0  0  0  0  0  0
 22 24  2  0  0  0  0
 24 26  1  0  0  0  0
 23 25  2  0  0  0  0
 25 26  1  0  0  0  0
 21 22  1  0  0  0  0
 22 23  1  0  0  0  0
  1  3  1  0  0  0  0
  1  7  1  0  0  0  0
  1  2  2  0  0  0  0
 35 36  1  0  0  0  0
 36 44  1  0  0  0  0
 36 37  2  0  0  0  0
  8  9  1  0  0  0  0
  9 17  1  0  0  0  0
  9 10  2  0  0  0  0
 18 19  1  0  0  0  0
 19 34  1  0  0  0  0
 19 20  2  0  0  0  0
 35 38  1  0  0  0  0
  8 11  1  0  0  0  0
 44 45  1  0  0  0  0
 18 21  1  0  0  0  0
 34 35  1  0  0  0  0
  7  8  1  0  0  0  0
 17 18  1  0  0  0  0
 24 31  1  0  0  0  0
 25 32  1  0  0  0  0
  3  4  1  0  0  0  0
  3  5  1  0  0  0  0
  3  6  1  0  0  0  0
 38 41  1  0  0  0  0
 38 42  1  0  0  0  0
 38 43  1  0  0  0  0
 11 14  1  0  0  0  0
 11 15  1  0  0  0  0
 11 16  1  0  0  0  0
 45 47  1  0  0  0  0
 45 48  1  0  0  0  0
 45 49  1  0  0  0  0
 21 29  1  0  0  0  0
 21 30  1  0  0  0  0
 35 40  1  0  0  0  0
  8 13  1  0  0  0  0
 18 28  1  0  0  0  0
 26 33  1  0  0  0  0
 44 46  1  0  0  0  0
  7 12  1  0  0  0  0
 34 39  1  0  0  0  0
 17 27  1  0  0  0  0
M  END
$$$$

  -OEChem-05262214473D

 49 49  0     1  0  0  0  0  0999 V2000
   -1.6183    0.5613    3.8201 C   0  0  0  0  0  0  0  0  0  0  0  0
   -0.6710   -0.0534    3.3444 O   0  0  0  0  0  0  0  0  0  0  0  0
   -2.0502    0.2789    5.2208 C   0  0  0  0  0  0  0  0  0  0  0  0
   -2.8099   -0.5175    5.2742 H   0  0  0  0  0  0  0  0  0  0  0  0
   -1.2190   -0.0687    5.8551 H   0  0  0  0  0  0  0  0  0  0  0  0
   -2.4882    1.1338    5.7604 H   0  0  0  0  0  0  0  0  0  0  0  0
   -2.3680    1.5337    3.1790 N   0  0  0  0  0  0  0  0  0  0  0  0
   -2.1212    1.9597    1.8266 C   0  0  2  0  0  0  0  0  0  0  0  0
   -0.7862    1.3744    1.3854 C   0  0  0  0  0  0  0  0  0  0  0  0
    0.0859    1.0216    2.1767 O   0  0  0  0  0  0  0  0  0  0  0  0
   -2.1124    3.4765    1.7171 C   0  0  0  0  0  0  0  0  0  0  0  0
   -3.1331    1.9695    3.6908 H   0  0  0  0  0  0  0  0  0  0  0  0
   -2.9253    1.5413    1.2115 H   0  0  0  0  0  0  0  0  0  0  0  0
   -1.3133    3.9138    2.3268 H   0  0  0  0  0  0  0  0  0  0  0  0
   -1.9529    3.7988    0.6829 H   0  0  0  0  0  0  0  0  0  0  0  0
   -3.0626    3.8977    2.0629 H   0  0  0  0  0  0  0  0  0  0  0  0
   -0.6635    1.3313    0.0020 N   0  0  0  0  0  0  0  0  0  0  0  0
    0.5138    0.8305   -0.6617 C   0  0  2  0  0  0  0  0  0  0  0  0
    1.6861    1.6967   -0.2150 C   0  0  0  0  0  0  0  0  0  0  0  0
    2.8296    1.5459   -0.6400 O   0  0  0  0  0  0  0  0  0  0  0  0
    0.3768    0.8651   -2.1882 C   0  0  0  0  0  0  0  0  0  0  0  0
   -0.7173   -0.0416   -2.6966 C   0  0  0  0  0  0  0  0  0  0  0  0
   -0.5373   -1.4018   -2.7317 N   0  0  0  0  0  0  0  0  0  0  0  0
   -1.9612    0.3069   -3.1675 C   0  0  0  0  0  0  0  0  0  0  0  0
   -1.6623   -1.8759   -3.2191 C   0  0  0  0  0  0  0  0  0  0  0  0
   -2.5547   -0.8786   -3.4987 N   0  0  0  0  0  0  0  0  0  0  0  0
   -1.4467    1.6280   -0.5753 H   0  0  0  0  0  0  0  0  0  0  0  0
    0.6652   -0.1931   -0.2991 H   0  0  0  0  0  0  0  0  0  0  0  0
    1.3303    0.5950   -2.6619 H   0  0  0  0  0  0  0  0  0  0  0  0
    0.1641    1.8863   -2.5311 H   0  0  0  0  0  0  0  0  0  0  0  0
   -2.4635    1.2551   -3.2945 H   0  0  0  0  0  0  0  0  0  0  0  0
   -1.8922   -2.9177   -3.3923 H   0  0  0  0  0  0  0  0  0  0  0  0
   -3.4839   -0.9969   -3.8799 H   0  0  0  0  0  0  0  0  0  0  0  0
    1.2916    2.6865    0.6744 N   0  0  0  0  0  0  0  0  0  0  0  0
    2.2024    3.6586    1.2349 C   0  0  2  0  0  0  0  0  0  0  0  0
    3.4056    2.9094    1.7921 C   0  0  0  0  0  0  0  0  0  0  0  0
    3.3682    1.7226    2.1104 O   0  0  0  0  0  0  0  0  0  0  0  0
    1.5292    4.4877    2.3176 C   0  0  0  0  0  0  0  0  0  0  0  0
    0.3135    2.7298    0.9450 H   0  0  0  0  0  0  0  0  0  0  0  0
    2.5233    4.3039    0.4098 H   0  0  0  0  0  0  0  0  0  0  0  0
    1.2009    3.8583    3.1528 H   0  0  0  0  0  0  0  0  0  0  0  0
    2.2119    5.2427    2.7213 H   0  0  0  0  0  0  0  0  0  0  0  0
    0.6468    5.0023    1.9224 H   0  0  0  0  0  0  0  0  0  0  0  0
    4.5139    3.7328    1.9325 N   0  0  0  0  0  0  0  0  0  0  0  0
    5.7756    3.2599    2.4527 C   0  0  0  0  0  0  0  0  0  0  0  0
    4.4603    4.6995    1.6253 H   0  0  0  0  0  0  0  0  0  0  0  0
    5.8105    3.4271    3.5394 H   0  0  0  0  0  0  0  0  0  0  0  0
    5.8784    2.1848    2.2438 H   0  0  0  0  0  0  0  0  0  0  0  0
    6.5990    3.8074    1.9709 H   0  0  0  0  0  0  0  0  0  0  0  0
 22 24  2  0  0  0  0
 24 26  1  0  0  0  0
 23 25  2  0  0  0  0
 25 26  1  0  0  0  0
 21 22  1  0  0  0  0
 22 23  1  0  0  0  0
  1  3  1  0  0  0  0
  1  7  1  0  0  0  0
  1  2  2  0  0  0  0
 35 36  1  0  0  0  0
 36 44  1  0  0  0  0
 36 37  2  0  0  0  0
  8  9  1  0  0  0  0
  9 17  1  0  0  0  0
  9 10  2  0  0  0  0
 18 19  1  0  0  0  0
 19 34  1  0  0  0  0
 19 20  2  0  0  0  0
 35 38  1  0  0  0  0
  8 11  1  0  0  0  0
 44 45  1  0  0  0  0
 18 21  1  0  0  0  0
 34 35  1  0  0  0  0
  7  8  1  0  0  0  0
 17 18  1  0  0  0  0
 24 31  1  0  0  0  0
 25 32  1  0  0  0  0
  3  4  1  0  0  0  0
  3  5  1  0  0  0  0
  3  6  1  0  0  0  0
 38 41  1  0  0  0  0
 38 42  1  0  0  0  0
 38 43  1  0  0  0  0
 11 14  1  0  0  0  0
 11 15  1  0  0  0  0
 11 16  1  0  0  0  0
 45 47  1  0  0  0  0
 45 48  1  0  0  0  0
 45 49  1  0  0  0  0
 21 29  1  0  0  0  0
 21 30  1  0  0  0  0
 35 40  1  0  0  0  0
  8 13  1  0  0  0  0
 18 28  1  0  0  0  0
 26 33  1  0  0  0  0
 44 46  1  0  0  0  0
  7 12  1  0  0  0  0
 34 39  1  0  0  0  0
 17 27  1  0  0  0  0
M  END
$$$$

  -OEChem-05262214473D

 49 49  0     1  0  0  0  0  0999 V2000
   -1.6183    0.5613    3.8201 C   0  0  0  0  0  0  0  0  0  0  0  0
   -0.6710   -0.0534    3.3444 O   0  0  0  0  0  0  0  0  0  0  0  0
   -2.0502    0.2789    5.2208 C   0  0  0  0  0  0  0  0  0  0  0  0
   -2.8099   -0.5175    5.2742 H   0  0  0  0  0  0  0  0  0  0  0  0
   -1.2190   -0.0687    5.8551 H   0  0  0  0  0  0  0  0  0  0  0  0
   -2.4882    1.1338    5.7604 H   0  0  0  0  0  0  0  0  0  0  0  0
   -2.3680    1.5337    3.1790 N   0  0  0  0  0  0  0  0  0  0  0  0
   -2.1212    1.9597    1.8266 C   0  0  2  0  0  0  0  0  0  0  0  0
   -0.7862    1.3744    1.3854 C   0  0  0  0  0  0  0  0  0  0  0  0
    0.0859    1.0216    2.1767 O   0  0  0  0  0  0  0  0  0  0  0  0
   -2.1124    3.4765    1.7171 C   0  0  0  0  0  0  0  0  0  0  0  0
   -3.1331    1.9695    3.6908 H   0  0  0  0  0  0  0  0  0  0  0  0
   -2.9253    1.5413    1.2115 H   0  0  0  0  0  0  0  0  0  0  0  0
   -1.3133    3.9138    2.3268 H   0  0  0  0  0  0  0  0  0  0  0  0
   -1.9529    3.7988    0.6829 H   0  0  0  0  0  0  0  0  0  0  0  0
   -3.0626    3.8977    2.0629 H   0  0  0  0  0  0  0  0  0  0  0  0
   -0.6635    1.3313    0.0020 N   0  0  0  0  0  0  0  0  0  0  0  0
    0.5138    0.8305   -0.6617 C   0  0  2  0  0  0  0  0  0  0  0  0
    1.6861    1.6967   -0.2150 C   0  0  0  0  0  0  0  0  0  0  0  0
    2.7571    1.7353   -0.8170 O   0  0  0  0  0  0  0  0  0  0  0  0
    0.3768    0.8651   -2.1882 C   0  0  0  0  0  0  0  0  0  0  0  0
   -0.7173   -0.0416   -2.6966 C   0  0  0  0  0  0  0  0  0  0  0  0
   -0.5373   -1.4018   -2.7317 N   0  0  0  0  0  0  0  0  0  0  0  0
   -1.9612    0.3069   -3.1675 C   0  0  0  0  0  0  0  0  0  0  0  0
   -1.6623   -1.8759   -3.2191 C   0  0  0  0  0  0  0  0  0  0  0  0
   -2.5547   -0.8786   -3.4987 N   0  0  0  0  0  0  0  0  0  0  0  0
   -1.4467    1.6280   -0.5753 H   0  0  0  0  0  0  0  0  0  0  0  0
    0.6652   -0.1931   -0.2991 H   0  0  0  0  0  0  0  0  0  0  0  0
    1.3303    0.5950   -2.6619 H   0  0  0  0  0  0  0  0  0  0  0  0
    0.1641    1.8863   -2.5311 H   0  0  0  0  0  0  0  0  0  0  0  0
   -2.4635    1.2551   -3.2945 H   0  0  0  0  0  0  0  0  0  0  0  0
   -1.8922   -2.9177   -3.3923 H   0  0  0  0  0  0  0  0  0  0  0  0
   -3.4839   -0.9969   -3.8799 H   0  0  0  0  0  0  0  0  0  0  0  0
    1.3744    2.4559    0.9043 N   0  0  0  0  0  0  0  0  0  0  0  0
    2.3000    3.3798    1.5194 C   0  0  2  0  0  0  0  0  0  0  0  0
    3.6183    2.6493    1.7382 C   0  0  0  0  0  0  0  0  0  0  0  0
    3.7030    1.4250    1.8088 O   0  0  0  0  0  0  0  0  0  0  0  0
    1.7532    3.9193    2.8319 C   0  0  0  0  0  0  0  0  0  0  0  0
    0.4491    2.3571    1.3117 H   0  0  0  0  0  0  0  0  0  0  0  0
    2.4494    4.1988    0.8074 H   0  0  0  0  0  0  0  0  0  0  0  0
    1.5970    3.1132    3.5580 H   0  0  0  0  0  0  0  0  0  0  0  0
    2.4428    4.6408    3.2824 H   0  0  0  0  0  0  0  0  0  0  0  0
    0.7905    4.4185    2.6773 H   0  0  0  0  0  0  0  0  0  0  0  0
    4.6827    3.5271    1.8882 N   0  0  0  0  0  0  0  0  0  0  0  0
    6.0361    3.0790    2.1196 C   0  0  0  0  0  0  0  0  0  0  0  0
    4.5235    4.5260    1.7960 H   0  0  0  0  0  0  0  0  0  0  0  0
    6.2285    3.0354    3.2018 H   0  0  0  0  0  0  0  0  0  0  0  0
    6.1707    2.0784    1.6828 H   0  0  0  0  0  0  0  0  0  0  0  0
    6.7402    3.7817    1.6502 H   0  0  0  0  0  0  0  0  0  0  0  0
 22 24  2  0  0  0  0
 24 26  1  0  0  0  0
 23 25  2  0  0  0  0
 25 26  1  0  0  0  0
 21 22  1  0  0  0  0
 22 23  1  0  0  0  0
  1  3  1  0  0  0  0
  1  7  1  0  0  0  0
  1  2  2  0  0  0  0
 35 36  1  0  0  0  0
 36 44  1  0  0  0  0
 36 37  2  0  0  0  0
  8  9  1  0  0  0  0
  9 17  1  0  0  0  0
  9 10  2  0  0  0  0
 18 19  1  0  0  0  0
 19 34  1  0  0  0  0
 19 20  2  0  0  0  0
 35 38  1  0  0  0  0
  8 11  1  0  0  0  0
 44 45  1  0  0  0  0
 18 21  1  0  0  0  0
 34 35  1  0  0  0  0
  7  8  1  0  0  0  0
 17 18  1  0  0  0  0
 24 31  1  0  0  0  0
 25 32  1  0  0  0  0
  3  4  1  0  0  0  0
  3  5  1  0  0  0  0
  3  6  1  0  0  0  0
 38 41  1  0  0  0  0
 38 42  1  0  0  0  0
 38 43  1  0  0  0  0
 11 14  1  0  0  0  0
 11 15  1  0  0  0  0
 11 16  1  0  0  0  0
 45 47  1  0  0  0  0
 45 48  1  0  0  0  0
 45 49  1  0  0  0  0
 21 29  1  0  0  0  0
 21 30  1  0  0  0  0
 35 40  1  0  0  0  0
  8 13  1  0  0  0  0
 18 28  1  0  0  0  0
 26 33  1  0  0  0  0
 44 46  1  0  0  0  0
  7 12  1  0  0  0  0
 34 39  1  0  0  0  0
 17 27  1  0  0  0  0
M  END
$$$$

  -OEChem-05262214473D

 49 49  0     1  0  0  0  0  0999 V2000
   -1.6183    0.5613    3.8201 C   0  0  0  0  0  0  0  0  0  0  0  0
   -0.6710   -0.0534    3.3444 O   0  0  0  0  0  0  0  0  0  0  0  0
   -2.0502    0.2789    5.2208 C   0  0  0  0  0  0  0  0  0  0  0  0
   -2.8099   -0.5175    5.2742 H   0  0  0  0  0  0  0  0  0  0  0  0
   -1.2190   -0.0687    5.8551 H   0  0  0  0  0  0  0  0  0  0  0  0
   -2.4882    1.1338    5.7604 H   0  0  0  0  0  0  0  0  0  0  0  0
   -2.3680    1.5337    3.1790 N   0  0  0  0  0  0  0  0  0  0  0  0
   -2.1212    1.9597    1.8266 C   0  0  2  0  0  0  0  0  0  0  0  0
   -0.7862    1.3744    1.3854 C   0  0  0  0  0  0  0  0  0  0  0  0
    0.0859    1.0216    2.1767 O   0  0  0  0  0  0  0  0  0  0  0  0
   -2.1124    3.4765    1.7171 C   0  0  0  0  0  0  0  0  0  0  0  0
   -3.1331    1.9695    3.6908 H   0  0  0  0  0  0  0  0  0  0  0  0
   -2.9253    1.5413    1.2115 H   0  0  0  0  0  0  0  0  0  0  0  0
   -1.3133    3.9138    2.3268 H   0  0  0  0  0  0  0  0  0  0  0  0
   -1.9529    3.7988    0.6829 H   0  0  0  0  0  0  0  0  0  0  0  0
   -3.0626    3.8977    2.0629 H   0  0  0  0  0  0  0  0  0  0  0  0
   -0.6635    1.3313    0.0020 N   0  0  0  0  0  0  0  0  0  0  0  0
    0.5138    0.8305   -0.6617 C   0  0  2  0  0  0  0  0  0  0  0  0
    1.6861    1.6967   -0.2150 C   0  0  0  0  0  0  0  0  0  0  0  0
    2.6467    1.9479   -0.9396 O   0  0  0  0  0  0  0  0  0  0  0  0
    0.3768    0.8651   -2.1882 C   0  0  0  0  0  0  0  0  0  0  0  0
   -0.7173   -0.0416   -2.6966 C   0  0  0  0  0  0  0  0  0  0  0  0
   -0.5373   -1.4018   -2.7317 N   0  0  0  0  0  0  0  0  0  0  0  0
   -1.9612    0.3069   -3.1675 C   0  0  0  0  0  0  0  0  0  0  0  0
   -1.6623   -1.8759   -3.2191 C   0  0  0  0  0  0  0  0  0  0  0  0
   -2.5547   -0.8786   -3.4987 N   0  0  0  0  0  0  0  0  0  0  0  0
   -1.4467    1.6280   -0.5753 H   0  0  0  0  0  0  0  0  0  0  0  0
    0.6652   -0.1931   -0.2991 H   0  0  0  0  0  0  0  0  0  0  0  0
    1.3303    0.5950   -2.6619 H   0  0  0  0  0  0  0  0  0  0  0  0
    0.1641    1.8863   -2.5311 H   0  0  0  0  0  0  0  0  0  0  0  0
   -2.4635    1.2551   -3.2945 H   0  0  0  0  0  0  0  0  0  0  0  0
   -1.8922   -2.9177   -3.3923 H   0  0  0  0  0  0  0  0  0  0  0  0
   -3.4839   -0.9969   -3.8799 H   0  0  0  0  0  0  0  0  0  0  0  0
    1.5056    2.1936    1.0683 N   0  0  0  0  0  0  0  0  0  0  0  0
    2.4572    3.0613    1.7244 C   0  0  2  0  0  0  0  0  0  0  0  0
    3.8355    2.4249    1.6030 C   0  0  0  0  0  0  0  0  0  0  0  0
    4.0046    1.2229    1.4091 O   0  0  0  0  0  0  0  0  0  0  0  0
    2.0883    3.2850    3.1827 C   0  0  0  0  0  0  0  0  0  0  0  0
    0.6623    1.9345    1.5717 H   0  0  0  0  0  0  0  0  0  0  0  0
    2.4445    4.0127    1.1814 H   0  0  0  0  0  0  0  0  0  0  0  0
    2.0957    2.3429    3.7429 H   0  0  0  0  0  0  0  0  0  0  0  0
    2.7940    3.9652    3.6707 H   0  0  0  0  0  0  0  0  0  0  0  0
    1.0846    3.7152    3.2692 H   0  0  0  0  0  0  0  0  0  0  0  0
    4.8549    3.3500    1.7798 N   0  0  0  0  0  0  0  0  0  0  0  0
    6.2525    2.9903    1.7236 C   0  0  0  0  0  0  0  0  0  0  0  0
    4.6227    4.3293    1.9171 H   0  0  0  0  0  0  0  0  0  0  0  0
    6.6123    2.7559    2.7363 H   0  0  0  0  0  0  0  0  0  0  0  0
    6.3786    2.1095    1.0768 H   0  0  0  0  0  0  0  0  0  0  0  0
    6.8314    3.8315    1.3145 H   0  0  0  0  0  0  0  0  0  0  0  0
 22 24  2  0  0  0  0
 24 26  1  0  0  0  0
 23 25  2  0  0  0  0
 25 26  1  0  0  0  0
 21 22  1  0  0  0  0
 22 23  1  0  0  0  0
  1  3  1  0  0  0  0
  1  7  1  0  0  0  0
  1  2  2  0  0  0  0
 35 36  1  0  0  0  0
 36 44  1  0  0  0  0
 36 37  2  0  0  0  0
  8  9  1  0  0  0  0
  9 17  1  0  0  0  0
  9 10  2  0  0  0  0
 18 19  1  0  0  0  0
 19 34  1  0  0  0  0
 19 20  2  0  0  0  0
 35 38  1  0  0  0  0
  8 11  1  0  0  0  0
 44 45  1  0  0  0  0
 18 21  1  0  0  0  0
 34 35  1  0  0  0  0
  7  8  1  0  0  0  0
 17 18  1  0  0  0  0
 24 31  1  0  0  0  0
 25 32  1  0  0  0  0
  3  4  1  0  0  0  0
  3  5  1  0  0  0  0
  3  6  1  0  0  0  0
 38 41  1  0  0  0  0
 38 42  1  0  0  0  0
 38 43  1  0  0  0  0
 11 14  1  0  0  0  0
 11 15  1  0  0  0  0
 11 16  1  0  0  0  0
 45 47  1  0  0  0  0
 45 48  1  0  0  0  0
 45 49  1  0  0  0  0
 21 29  1  0  0  0  0
 21 30  1  0  0  0  0
 35 40  1  0  0  0  0
  8 13  1  0  0  0  0
 18 28  1  0  0  0  0
 26 33  1  0  0  0  0
 44 46  1  0  0  0  0
  7 12  1  0  0  0  0
 34 39  1  0  0  0  0
 17 27  1  0  0  0  0
M  END
$$$$

  -OEChem-05262214473D

 49 49  0     1  0  0  0  0  0999 V2000
   -1.6183    0.5613    3.8201 C   0  0  0  0  0  0  0  0  0  0  0  0
   -0.6710   -0.0534    3.3444 O   0  0  0  0  0  0  0  0  0  0  0  0
   -2.0502    0.2789    5.2208 C   0  0  0  0  0  0  0  0  0  0  0  0
   -2.8099   -0.5175    5.2742 H   0  0  0  0  0  0  0  0  0  0  0  0
   -1.2190   -0.0687    5.8551 H   0  0  0  0  0  0  0  0  0  0  0  0
   -2.4882    1.1338    5.7604 H   0  0  0  0  0  0  0  0  0  0  0  0
   -2.3680    1.5337    3.1790 N   0  0  0  0  0  0  0  0  0  0  0  0
   -2.1212    1.9597    1.8266 C   0  0  2  0  0  0  0  0  0  0  0  0
   -0.7862    1.3744    1.3854 C   0  0  0  0  0  0  0  0  0  0  0  0
    0.0859    1.0216    2.1767 O   0  0  0  0  0  0  0  0  0  0  0  0
   -2.1124    3.4765    1.7171 C   0  0  0  0  0  0  0  0  0  0  0  0
   -3.1331    1.9695    3.6908 H   0  0  0  0  0  0  0  0  0  0  0  0
   -2.9253    1.5413    1.2115 H   0  0  0  0  0  0  0  0  0  0  0  0
   -1.3133    3.9138    2.3268 H   0  0  0  0  0  0  0  0  0  0  0  0
   -1.9529    3.7988    0.6829 H   0  0  0  0  0  0  0  0  0  0  0  0
   -3.0626    3.8977    2.0629 H   0  0  0  0  0  0  0  0  0  0  0  0
   -0.6635    1.3313    0.0020 N   0  0  0  0  0  0  0  0  0  0  0  0
    0.5138    0.8305   -0.6617 C   0  0  2  0  0  0  0  0  0  0  0  0
    1.6861    1.6967   -0.2150 C   0  0  0  0  0  0  0  0  0  0  0  0
    2.5058    2.1694   -0.9995 O   0  0  0  0  0  0  0  0  0  0  0  0
    0.3768    0.8651   -2.1882 C   0  0  0  0  0  0  0  0  0  0  0  0
   -0.7173   -0.0416   -2.6966 C   0  0  0  0  0  0  0  0  0  0  0  0
   -0.5373   -1.4018   -2.7317 N   0  0  0  0  0  0  0  0  0  0  0  0
   -1.9612    0.3069   -3.1675 C   0  0  0  0  0  0  0  0  0  0  0  0
   -1.6623   -1.8759   -3.2191 C   0  0  0  0  0  0  0  0  0  0  0  0
   -2.5547   -0.8786   -3.4987 N   0  0  0  0  0  0  0  0  0  0  0  0
   -1.4467    1.6280   -0.5753 H   0  0  0  0  0  0  0  0  0  0  0  0
    0.6652   -0.1931   -0.2991 H   0  0  0  0  0  0  0  0  0  0  0  0
    1.3303    0.5950   -2.6619 H   0  0  0  0  0  0  0  0  0  0  0  0
    0.1641    1.8863   -2.5311 H   0  0  0  0  0  0  0  0  0  0  0  0
   -2.4635    1.2551   -3.2945 H   0  0  0  0  0  0  0  0  0  0  0  0
   -1.8922   -2.9177   -3.3923 H   0  0  0  0  0  0  0  0  0  0  0  0
   -3.4839   -0.9969   -3.8799 H   0  0  0  0  0  0  0  0  0  0  0  0
    1.6764    1.9177    1.1552 N   0  0  0  0  0  0  0  0  0  0  0  0
    2.6634    2.7248    1.8359 C   0  0  2  0  0  0  0  0  0  0  0  0
    4.0425    2.2516    1.3959 C   0  0  0  0  0  0  0  0  0  0  0  0
    4.2525    1.1301    0.9384 O   0  0  0  0  0  0  0  0  0  0  0  0
    2.5116    2.6278    3.3459 C   0  0  0  0  0  0  0  0  0  0  0  0
    0.9386    1.4906    1.7075 H   0  0  0  0  0  0  0  0  0  0  0  0
    2.5088    3.7580    1.5063 H   0  0  0  0  0  0  0  0  0  0  0  0
    2.6630    1.5998    3.6948 H   0  0  0  0  0  0  0  0  0  0  0  0
    3.2416    3.2621    3.8596 H   0  0  0  0  0  0  0  0  0  0  0  0
    1.5091    2.9403    3.6577 H   0  0  0  0  0  0  0  0  0  0  0  0
    5.0186    3.2136    1.6144 N   0  0  0  0  0  0  0  0  0  0  0  0
    6.4101    2.9998    1.2916 C   0  0  0  0  0  0  0  0  0  0  0  0
    4.7512    4.1227    1.9803 H   0  0  0  0  0  0  0  0  0  0  0  0
    6.9359    2.6077    2.1746 H   0  0  0  0  0  0  0  0  0  0  0  0
    6.4880    2.2759    0.4671 H   0  0  0  0  0  0  0  0  0  0  0  0
    6.8663    3.9532    0.9868 H   0  0  0  0  0  0  0  0  0  0  0  0
 22 24  2  0  0  0  0
 24 26  1  0  0  0  0
 23 25  2  0  0  0  0
 25 26  1  0  0  0  0
 21 22  1  0  0  0  0
 22 23  1  0  0  0  0
  1  3  1  0  0  0  0
  1  7  1  0  0  0  0
  1  2  2  0  0  0  0
 35 36  1  0  0  0  0
 36 44  1  0  0  0  0
 36 37  2  0  0  0  0
  8  9  1  0  0  0  0
  9 17  1  0  0  0  0
  9 10  2  0  0  0  0
 18 19  1  0  0  0  0
 19 34  1  0  0  0  0
 19 20  2  0  0  0  0
 35 38  1  0  0  0  0
  8 11  1  0  0  0  0
 44 45  1  0  0  0  0
 18 21  1  0  0  0  0
 34 35  1  0  0  0  0
  7  8  1  0  0  0  0
 17 18  1  0  0  0  0
 24 31  1  0  0  0  0
 25 32  1  0  0  0  0
  3  4  1  0  0  0  0
  3  5  1  0  0  0  0
  3  6  1  0  0  0  0
 38 41  1  0  0  0  0
 38 42  1  0  0  0  0
 38 43  1  0  0  0  0
 11 14  1  0  0  0  0
 11 15  1  0  0  0  0
 11 16  1  0  0  0  0
 45 47  1  0  0  0  0
 45 48  1  0  0  0  0
 45 49  1  0  0  0  0
 21 29  1  0  0  0  0
 21 30  1  0  0  0  0
 35 40  1  0  0  0  0
  8 13  1  0  0  0  0
 18 28  1  0  0  0  0
 26 33  1  0  0  0  0
 44 46  1  0  0  0  0
  7 12  1  0  0  0  0
 34 39  1  0  0  0  0
 17 27  1  0  0  0  0
M  END
$$$$

  -OEChem-05262214473D

 49 49  0     1  0  0  0  0  0999 V2000
   -1.6183    0.5613    3.8201 C   0  0  0  0  0  0  0  0  0  0  0  0
   -0.6710   -0.0534    3.3444 O   0  0  0  0  0  0  0  0  0  0  0  0
   -2.0502    0.2789    5.2208 C   0  0  0  0  0  0  0  0  0  0  0  0
   -2.8099   -0.5175    5.2742 H   0  0  0  0  0  0  0  0  0  0  0  0
   -1.2190   -0.0687    5.8551 H   0  0  0  0  0  0  0  0  0  0  0  0
   -2.4882    1.1338    5.7604 H   0  0  0  0  0  0  0  0  0  0  0  0
   -2.3680    1.5337    3.1790 N   0  0  0  0  0  0  0  0  0  0  0  0
   -2.1212    1.9597    1.8266 C   0  0  2  0  0  0  0  0  0  0  0  0
   -0.7862    1.3744    1.3854 C   0  0  0  0  0  0  0  0  0  0  0  0
    0.0859    1.0216    2.1767 O   0  0  0  0  0  0  0  0  0  0  0  0
   -2.1124    3.4765    1.7171 C   0  0  0  0  0  0  0  0  0  0  0  0
   -3.1331    1.9695    3.6908 H   0  0  0  0  0  0  0  0  0  0  0  0
   -2.9253    1.5413    1.2115 H   0  0  0  0  0  0  0  0  0  0  0  0
   -1.3133    3.9138    2.3268 H   0  0  0  0  0  0  0  0  0  0  0  0
   -1.9529    3.7988    0.6829 H   0  0  0  0  0  0  0  0  0  0  0  0
   -3.0626    3.8977    2.0629 H   0  0  0  0  0  0  0  0  0  0  0  0
   -0.6635    1.3313    0.0020 N   0  0  0  0  0  0  0  0  0  0  0  0
    0.5138    0.8305   -0.6617 C   0  0  2  0  0  0  0  0  0  0  0  0
    1.6861    1.6967   -0.2150 C   0  0  0  0  0  0  0  0  0  0  0  0
    2.3442    2.3845   -0.9925 O   0  0  0  0  0  0  0  0  0  0  0  0
    0.3768    0.8651   -2.1882 C   0  0  0  0  0  0  0  0  0  0  0  0
   -0.7173   -0.0416   -2.6966 C   0  0  0  0  0  0  0  0  0  0  0  0
   -0.5373   -1.4018   -2.7317 N   0  0  0  0  0  0  0  0  0  0  0  0
   -1.9612    0.3069   -3.1675 C   0  0  0  0  0  0  0  0  0  0  0  0
   -1.6623   -1.8759   -3.2191 C   0  0  0  0  0  0  0  0  0  0  0  0
   -2.5547   -0.8786   -3.4987 N   0  0  0  0  0  0  0  0  0  0  0  0
   -1.4467    1.6280   -0.5753 H   0  0  0  0  0  0  0  0  0  0  0  0
    0.6652   -0.1931   -0.2991 H   0  0  0  0  0  0  0  0  0  0  0  0
    1.3303    0.5950   -2.6619 H   0  0  0  0  0  0  0  0  0  0  0  0
    0.1641    1.8863   -2.5311 H   0  0  0  0  0  0  0  0  0  0  0  0
   -2.4635    1.2551   -3.2945 H   0  0  0  0  0  0  0  0  0  0  0  0
   -1.8922   -2.9177   -3.3923 H   0  0  0  0  0  0  0  0  0  0  0  0
   -3.4839   -0.9969   -3.8799 H   0  0  0  0  0  0  0  0  0  0  0  0
    1.8751    1.6467    1.1591 N   0  0  0  0  0  0  0  0  0  0  0  0
    2.9044    2.3932    1.8462 C   0  0  2  0  0  0  0  0  0  0  0  0
    4.2251    2.1411    1.1309 C   0  0  0  0  0  0  0  0  0  0  0  0
    4.4297    1.1530    0.4288 O   0  0  0  0  0  0  0  0  0  0  0  0
    2.9943    1.9927    3.3106 C   0  0  0  0  0  0  0  0  0  0  0  0
    1.2590    1.0558    1.7096 H   0  0  0  0  0  0  0  0  0  0  0  0
    2.6381    3.4523    1.7600 H   0  0  0  0  0  0  0  0  0  0  0  0
    3.2603    0.9347    3.4170 H   0  0  0  0  0  0  0  0  0  0  0  0
    3.7550    2.5792    3.8363 H   0  0  0  0  0  0  0  0  0  0  0  0
    2.0350    2.1468    3.8163 H   0  0  0  0  0  0  0  0  0  0  0  0
    5.1629    3.1272    1.4035 N   0  0  0  0  0  0  0  0  0  0  0  0
    6.4980    3.1070    0.8530 C   0  0  0  0  0  0  0  0  0  0  0  0
    4.9004    3.9203    1.9813 H   0  0  0  0  0  0  0  0  0  0  0  0
    7.1770    2.6008    1.5550 H   0  0  0  0  0  0  0  0  0  0  0  0
    6.4914    2.5663   -0.1049 H   0  0  0  0  0  0  0  0  0  0  0  0
    6.8426    4.1387    0.6893 H   0  0  0  0  0  0  0  0  0  0  0  0
 22 24  2  0  0  0  0
 24 26  1  0  0  0  0
 23 25  2  0  0  0  0
 25 26  1  0  0  0  0
 21 22  1  0  0  0  0
 22 23  1  0  0  0  0
  1  3  1  0  0  0  0
  1  7  1  0  0  0  0
  1  2  2  0  0  0  0
 35 36  1  0  0  0  0
 36 44  1  0  0  0  0
 36 37  2  0  0  0  0
  8  9  1  0  0  0  0
  9 17  1  0  0  0  0
  9 10  2  0  0  0  0
 18 19  1  0  0  0  0
 19 34  1  0  0  0  0
 19 20  2  0  0  0  0
 35 38  1  0  0  0  0
  8 11  1  0  0  0  0
 44 45  1  0  0  0  0
 18 21  1  0  0  0  0
 34 35  1  0  0  0  0
  7  8  1  0  0  0  0
 17 18  1  0  0  0  0
 24 31  1  0  0  0  0
 25 32  1  0  0  0  0
  3  4  1  0  0  0  0
  3  5  1  0  0  0  0
  3  6  1  0  0  0  0
 38 41  1  0  0  0  0
 38 42  1  0  0  0  0
 38 43  1  0  0  0  0
 11 14  1  0  0  0  0
 11 15  1  0  0  0  0
 11 16  1  0  0  0  0
 45 47  1  0  0  0  0
 45 48  1  0  0  0  0
 45 49  1  0  0  0  0
 21 29  1  0  0  0  0
 21 30  1  0  0  0  0
 35 40  1  0  0  0  0
  8 13  1  0  0  0  0
 18 28  1  0  0  0  0
 26 33  1  0  0  0  0
 44 46  1  0  0  0  0
  7 12  1  0  0  0  0
 34 39  1  0  0  0  0
 17 27  1  0  0  0  0
M  END
$$$$

  -OEChem-05262214473D

 49 49  0     1  0  0  0  0  0999 V2000
   -1.6183    0.5613    3.8201 C   0  0  0  0  0  0  0  0  0  0  0  0
   -0.6710   -0.0534    3.3444 O   0  0  0  0  0  0  0  0  0  0  0  0
   -2.0502    0.2789    5.2208 C   0  0  0  0  0  0  0  0  0  0  0  0
   -2.8099   -0.5175    5.2742 H   0  0  0  0  0  0  0  0  0  0  0  0
   -1.2190   -0.0687    5.8551 H   0  0  0  0  0  0  0  0  0  0  0  0
   -2.4882    1.1338    5.7604 H   0  0  0  0  0  0  0  0  0  0  0  0
   -2.3680    1.5337    3.1790 N   0  0  0  0  0  0  0  0  0  0  0  0
   -2.1212    1.9597    1.8266 C   0  0  2  0  0  0  0  0  0  0  0  0
   -0.7862    1.3744    1.3854 C   0  0  0  0  0  0  0  0  0  0  0  0
    0.0859    1.0216    2.1767 O   0  0  0  0  0  0  0  0  0  0  0  0
   -2.1124    3.4765    1.7171 C   0  0  0  0  0  0  0  0  0  0  0  0
   -3.1331    1.9695    3.6908 H   0  0  0  0  0  0  0  0  0  0  0  0
   -2.9253    1.5413    1.2115 H   0  0  0  0  0  0  0  0  0  0  0  0
   -1.3133    3.9138    2.3268 H   0  0  0  0  0  0  0  0  0  0  0  0
   -1.9529    3.7988    0.6829 H   0  0  0  0  0  0  0  0  0  0  0  0
   -3.0626    3.8977    2.0629 H   0  0  0  0  0  0  0  0  0  0  0  0
   -0.6635    1.3313    0.0020 N   0  0  0  0  0  0  0  0  0  0  0  0
    0.5138    0.8305   -0.6617 C   0  0  2  0  0  0  0  0  0  0  0  0
    1.6861    1.6967   -0.2150 C   0  0  0  0  0  0  0  0  0  0  0  0
    2.1728    2.5787   -0.9192 O   0  0  0  0  0  0  0  0  0  0  0  0
    0.3768    0.8651   -2.1882 C   0  0  0  0  0  0  0  0  0  0  0  0
   -0.7173   -0.0416   -2.6966 C   0  0  0  0  0  0  0  0  0  0  0  0
   -0.5373   -1.4018   -2.7317 N   0  0  0  0  0  0  0  0  0  0  0  0
   -1.9612    0.3069   -3.1675 C   0  0  0  0  0  0  0  0  0  0  0  0
   -1.6623   -1.8759   -3.2191 C   0  0  0  0  0  0  0  0  0  0  0  0
   -2.5547   -0.8786   -3.4987 N   0  0  0  0  0  0  0  0  0  0  0  0
   -1.4467    1.6280   -0.5753 H   0  0  0  0  0  0  0  0  0  0  0  0
    0.6652   -0.1931   -0.2991 H   0  0  0  0  0  0  0  0  0  0  0  0
    1.3303    0.5950   -2.6619 H   0  0  0  0  0  0  0  0  0  0  0  0
    0.1641    1.8863   -2.5311 H   0  0  0  0  0  0  0  0  0  0  0  0
   -2.4635    1.2551   -3.2945 H   0  0  0  0  0  0  0  0  0  0  0  0
   -1.8922   -2.9177   -3.3923 H   0  0  0  0  0  0  0  0  0  0  0  0
   -3.4839   -0.9969   -3.8799 H   0  0  0  0  0  0  0  0  0  0  0  0
    2.0881    1.3993    1.0798 N   0  0  0  0  0  0  0  0  0  0  0  0
    3.1639    2.0891    1.7548 C   0  0  2  0  0  0  0  0  0  0  0  0
    4.3709    2.1009    0.8261 C   0  0  0  0  0  0  0  0  0  0  0  0
    4.5243    1.2900   -0.0849 O   0  0  0  0  0  0  0  0  0  0  0  0
    3.5035    1.4229    3.0790 C   0  0  0  0  0  0  0  0  0  0  0  0
    1.6018    0.6597    1.5780 H   0  0  0  0  0  0  0  0  0  0  0  0
    2.8234    3.1162    1.9251 H   0  0  0  0  0  0  0  0  0  0  0  0
    3.8467    0.3928    2.9285 H   0  0  0  0  0  0  0  0  0  0  0  0
    4.2992    1.9632    3.6025 H   0  0  0  0  0  0  0  0  0  0  0  0
    2.6265    1.3885    3.7343 H   0  0  0  0  0  0  0  0  0  0  0  0
    5.2777    3.0966    1.1614 N   0  0  0  0  0  0  0  0  0  0  0  0
    6.5103    3.3045    0.4378 C   0  0  0  0  0  0  0  0  0  0  0  0
    5.0600    3.7359    1.9201 H   0  0  0  0  0  0  0  0  0  0  0  0
    7.3193    2.7359    0.9197 H   0  0  0  0  0  0  0  0  0  0  0  0
    6.3885    2.9608   -0.6000 H   0  0  0  0  0  0  0  0  0  0  0  0
    6.7619    4.3753    0.4423 H   0  0  0  0  0  0  0  0  0  0  0  0
 22 24  2  0  0  0  0
 24 26  1  0  0  0  0
 23 25  2  0  0  0  0
 25 26  1  0  0  0  0
 21 22  1  0  0  0  0
 22 23  1  0  0  0  0
  1  3  1  0  0  0  0
  1  7  1  0  0  0  0
  1  2  2  0  0  0  0
 35 36  1  0  0  0  0
 36 44  1  0  0  0  0
 36 37  2  0  0  0  0
  8  9  1  0  0  0  0
  9 17  1  0  0  0  0
  9 10  2  0  0  0  0
 18 19  1  0  0  0  0
 19 34  1  0  0  0  0
 19 20  2  0  0  0  0
 35 38  1  0  0  0  0
  8 11  1  0  0  0  0
 44 45  1  0  0  0  0
 18 21  1  0  0  0  0
 34 35  1  0  0  0  0
  7  8  1  0  0  0  0
 17 18  1  0  0  0  0
 24 31  1  0  0  0  0
 25 32  1  0  0  0  0
  3  4  1  0  0  0  0
  3  5  1  0  0  0  0
  3  6  1  0  0  0  0
 38 41  1  0  0  0  0
 38 42  1  0  0  0  0
 38 43  1  0  0  0  0
 11 14  1  0  0  0  0
 11 15  1  0  0  0  0
 11 16  1  0  0  0  0
 45 47  1  0  0  0  0
 45 48  1  0  0  0  0
 45 49  1  0  0  0  0
 21 29  1  0  0  0  0
 21 30  1  0  0  0  0
 35 40  1  0  0  0  0
  8 13  1  0  0  0  0
 18 28  1  0  0  0  0
 26 33  1  0  0  0  0
 44 46  1  0  0  0  0
  7 12  1  0  0  0  0
 34 39  1  0  0  0  0
 17 27  1  0  0  0  0
M  END
$$$$

  -OEChem-05262214473D

 49 49  0     1  0  0  0  0  0999 V2000
   -1.6183    0.5613    3.8201 C   0  0  0  0  0  0  0  0  0  0  0  0
   -0.6710   -0.0534    3.3444 O   0  0  0  0  0  0  0  0  0  0  0  0
   -2.0502    0.2789    5.2208 C   0  0  0  0  0  0  0  0  0  0  0  0
   -2.8099   -0.5175    5.2742 H   0  0  0  0  0  0  0  0  0  0  0  0
   -1.2190   -0.0687    5.8551 H   0  0  0  0  0  0  0  0  0  0  0  0
   -2.4882    1.1338    5.7604 H   0  0  0  0  0  0  0  0  0  0  0  0
   -2.3680    1.5337    3.1790 N   0  0  0  0  0  0  0  0  0  0  0  0
   -2.1212    1.9597    1.8266 C   0  0  2  0  0  0  0  0  0  0  0  0
   -0.7862    1.3744    1.3854 C   0  0  0  0  0  0  0  0  0  0  0  0
    0.0859    1.0216    2.1767 O   0  0  0  0  0  0  0  0  0  0  0  0
   -2.1124    3.4765    1.7171 C   0  0  0  0  0  0  0  0  0  0  0  0
   -3.1331    1.9695    3.6908 H   0  0  0  0  0  0  0  0  0  0  0  0
   -2.9253    1.5413    1.2115 H   0  0  0  0  0  0  0  0  0  0  0  0
   -1.3133    3.9138    2.3268 H   0  0  0  0  0  0  0  0  0  0  0  0
   -1.9529    3.7988    0.6829 H   0  0  0  0  0  0  0  0  0  0  0  0
   -3.0626    3.8977    2.0629 H   0  0  0  0  0  0  0  0  0  0  0  0
   -0.6635    1.3313    0.0020 N   0  0  0  0  0  0  0  0  0  0  0  0
    0.5138    0.8305   -0.6617 C   0  0  2  0  0  0  0  0  0  0  0  0
    1.6861    1.6967   -0.2150 C   0  0  0  0  0  0  0  0  0  0  0  0
    2.0033    2.7387   -0.7846 O   0  0  0  0  0  0  0  0  0  0  0  0
    0.3768    0.8651   -2.1882 C   0  0  0  0  0  0  0  0  0  0  0  0
   -0.7173   -0.0416   -2.6966 C   0  0  0  0  0  0  0  0  0  0  0  0
   -0.5373   -1.4018   -2.7317 N   0  0  0  0  0  0  0  0  0  0  0  0
   -1.9612    0.3069   -3.1675 C   0  0  0  0  0  0  0  0  0  0  0  0
   -1.6623   -1.8759   -3.2191 C   0  0  0  0  0  0  0  0  0  0  0  0
   -2.5547   -0.8786   -3.4987 N   0  0  0  0  0  0  0  0  0  0  0  0
   -1.4467    1.6280   -0.5753 H   0  0  0  0  0  0  0  0  0  0  0  0
    0.6652   -0.1931   -0.2991 H   0  0  0  0  0  0  0  0  0  0  0  0
    1.3303    0.5950   -2.6619 H   0  0  0  0  0  0  0  0  0  0  0  0
    0.1641    1.8863   -2.5311 H   0  0  0  0  0  0  0  0  0  0  0  0
   -2.4635    1.2551   -3.2945 H   0  0  0  0  0  0  0  0  0  0  0  0
   -1.8922   -2.9177   -3.3923 H   0  0  0  0  0  0  0  0  0  0  0  0
   -3.4839   -0.9969   -3.8799 H   0  0  0  0  0  0  0  0  0  0  0  0
    2.3010    1.1923    0.9226 N   0  0  0  0  0  0  0  0  0  0  0  0
    3.4242    1.8332    1.5678 C   0  0  2  0  0  0  0  0  0  0  0  0
    4.4700    2.1338    0.5022 C   0  0  0  0  0  0  0  0  0  0  0  0
    4.5297    1.5317   -0.5678 O   0  0  0  0  0  0  0  0  0  0  0  0
    4.0046    0.9571    2.6671 C   0  0  0  0  0  0  0  0  0  0  0  0
    1.9436    0.3293    1.3216 H   0  0  0  0  0  0  0  0  0  0  0  0
    3.0522    2.7728    1.9906 H   0  0  0  0  0  0  0  0  0  0  0  0
    4.3825    0.0111    2.2626 H   0  0  0  0  0  0  0  0  0  0  0  0
    4.8373    1.4559    3.1739 H   0  0  0  0  0  0  0  0  0  0  0  0
    3.2432    0.7173    3.4171 H   0  0  0  0  0  0  0  0  0  0  0  0
    5.3553    3.1240    0.9045 N   0  0  0  0  0  0  0  0  0  0  0  0
    6.4461    3.5788    0.0742 C   0  0  0  0  0  0  0  0  0  0  0  0
    5.2191    3.5821    1.8008 H   0  0  0  0  0  0  0  0  0  0  0  0
    7.3531    3.0035    0.3119 H   0  0  0  0  0  0  0  0  0  0  0  0
    6.1864    3.4327   -0.9846 H   0  0  0  0  0  0  0  0  0  0  0  0
    6.6296    4.6469    0.2627 H   0  0  0  0  0  0  0  0  0  0  0  0
 22 24  2  0  0  0  0
 24 26  1  0  0  0  0
 23 25  2  0  0  0  0
 25 26  1  0  0  0  0
 21 22  1  0  0  0  0
 22 23  1  0  0  0  0
  1  3  1  0  0  0  0
  1  7  1  0  0  0  0
  1  2  2  0  0  0  0
 35 36  1  0  0  0  0
 36 44  1  0  0  0  0
 36 37  2  0  0  0  0
  8  9  1  0  0  0  0
  9 17  1  0  0  0  0
  9 10  2  0  0  0  0
 18 19  1  0  0  0  0
 19 34  1  0  0  0  0
 19 20  2  0  0  0  0
 35 38  1  0  0  0  0
  8 11  1  0  0  0  0
 44 45  1  0  0  0  0
 18 21  1  0  0  0  0
 34 35  1  0  0  0  0
  7  8  1  0  0  0  0
 17 18  1  0  0  0  0
 24 31  1  0  0  0  0
 25 32  1  0  0  0  0
  3  4  1  0  0  0  0
  3  5  1  0  0  0  0
  3  6  1  0  0  0  0
 38 41  1  0  0  0  0
 38 42  1  0  0  0  0
 38 43  1  0  0  0  0
 11 14  1  0  0  0  0
 11 15  1  0  0  0  0
 11 16  1  0  0  0  0
 45 47  1  0  0  0  0
 45 48  1  0  0  0  0
 45 49  1  0  0  0  0
 21 29  1  0  0  0  0
 21 30  1  0  0  0  0
 35 40  1  0  0  0  0
  8 13  1  0  0  0  0
 18 28  1  0  0  0  0
 26 33  1  0  0  0  0
 44 46  1  0  0  0  0
  7 12  1  0  0  0  0
 34 39  1  0  0  0  0
 17 27  1  0  0  0  0
M  END
$$$$

  -OEChem-05262214473D

 49 49  0     1  0  0  0  0  0999 V2000
   -1.6183    0.5613    3.8201 C   0  0  0  0  0  0  0  0  0  0  0  0
   -0.6710   -0.0534    3.3444 O   0  0  0  0  0  0  0  0  0  0  0  0
   -2.0502    0.2789    5.2208 C   0  0  0  0  0  0  0  0  0  0  0  0
   -2.8099   -0.5175    5.2742 H   0  0  0  0  0  0  0  0  0  0  0  0
   -1.2190   -0.0687    5.8551 H   0  0  0  0  0  0  0  0  0  0  0  0
   -2.4882    1.1338    5.7604 H   0  0  0  0  0  0  0  0  0  0  0  0
   -2.3680    1.5337    3.1790 N   0  0  0  0  0  0  0  0  0  0  0  0
   -2.1212    1.9597    1.8266 C   0  0  2  0  0  0  0  0  0  0  0  0
   -0.7862    1.3744    1.3854 C   0  0  0  0  0  0  0  0  0  0  0  0
    0.0859    1.0216    2.1767 O   0  0  0  0  0  0  0  0  0  0  0  0
   -2.1124    3.4765    1.7171 C   0  0  0  0  0  0  0  0  0  0  0  0
   -3.1331    1.9695    3.6908 H   0  0  0  0  0  0  0  0  0  0  0  0
   -2.9253    1.5413    1.2115 H   0  0  0  0  0  0  0  0  0  0  0  0
   -1.3133    3.9138    2.3268 H   0  0  0  0  0  0  0  0  0  0  0  0
   -1.9529    3.7988    0.6829 H   0  0  0  0  0  0  0  0  0  0  0  0
   -3.0626    3.8977    2.0629 H   0  0  0  0  0  0  0  0  0  0  0  0
   -0.6635    1.3313    0.0020 N   0  0  0  0  0  0  0  0  0  0  0  0
    0.5138    0.8305   -0.6617 C   0  0  2  0  0  0  0  0  0  0  0  0
    1.6861    1.6967   -0.2150 C   0  0  0  0  0  0  0  0  0  0  0  0
    1.8473    2.8536   -0.5977 O   0  0  0  0  0  0  0  0  0  0  0  0
    0.3768    0.8651   -2.1882 C   0  0  0  0  0  0  0  0  0  0  0  0
   -0.7173   -0.0416   -2.6966 C   0  0  0  0  0  0  0  0  0  0  0  0
   -0.5373   -1.4018   -2.7317 N   0  0  0  0  0  0  0  0  0  0  0  0
   -1.9612    0.3069   -3.1675 C   0  0  0  0  0  0  0  0  0  0  0  0
   -1.6623   -1.8759   -3.2191 C   0  0  0  0  0  0  0  0  0  0  0  0
   -2.5547   -0.8786   -3.4987 N   0  0  0  0  0  0  0  0  0  0  0  0
   -1.4467    1.6280   -0.5753 H   0  0  0  0  0  0  0  0  0  0  0  0
    0.6652   -0.1931   -0.2991 H   0  0  0  0  0  0  0  0  0  0  0  0
    1.3303    0.5950   -2.6619 H   0  0  0  0  0  0  0  0  0  0  0  0
    0.1641    1.8863   -2.5311 H   0  0  0  0  0  0  0  0  0  0  0  0
   -2.4635    1.2551   -3.2945 H   0  0  0  0  0  0  0  0  0  0  0  0
   -1.8922   -2.9177   -3.3923 H   0  0  0  0  0  0  0  0  0  0  0  0
   -3.4839   -0.9969   -3.8799 H   0  0  0  0  0  0  0  0  0  0  0  0
    2.4992    1.0398    0.6982 N   0  0  0  0  0  0  0  0  0  0  0  0
    3.6676    1.6430    1.2980 C   0  0  2  0  0  0  0  0  0  0  0  0
    4.5156    2.2376    0.1813 C   0  0  0  0  0  0  0  0  0  0  0  0
    4.4455    1.8616   -0.9869 O   0  0  0  0  0  0  0  0  0  0  0  0
    4.4633    0.6272    2.1028 C   0  0  0  0  0  0  0  0  0  0  0  0
    2.2611    0.0871    0.9580 H   0  0  0  0  0  0  0  0  0  0  0  0
    3.3088    2.4455    1.9518 H   0  0  0  0  0  0  0  0  0  0  0  0
    4.8310   -0.1845    1.4645 H   0  0  0  0  0  0  0  0  0  0  0  0
    5.3324    1.0921    2.5799 H   0  0  0  0  0  0  0  0  0  0  0  0
    3.8432    0.1789    2.8865 H   0  0  0  0  0  0  0  0  0  0  0  0
    5.3905    3.2075    0.6504 N   0  0  0  0  0  0  0  0  0  0  0  0
    6.3099    3.9113   -0.2129 C   0  0  0  0  0  0  0  0  0  0  0  0
    5.3669    3.4693    1.6316 H   0  0  0  0  0  0  0  0  0  0  0  0
    7.2760    3.3856   -0.2268 H   0  0  0  0  0  0  0  0  0  0  0  0
    5.8988    3.9497   -1.2325 H   0  0  0  0  0  0  0  0  0  0  0  0
    6.4549    4.9349    0.1628 H   0  0  0  0  0  0  0  0  0  0  0  0
 22 24  2  0  0  0  0
 24 26  1  0  0  0  0
 23 25  2  0  0  0  0
 25 26  1  0  0  0  0
 21 22  1  0  0  0  0
 22 23  1  0  0  0  0
  1  3  1  0  0  0  0
  1  7  1  0  0  0  0
  1  2  2  0  0  0  0
 35 36  1  0  0  0  0
 36 44  1  0  0  0  0
 36 37  2  0  0  0  0
  8  9  1  0  0  0  0
  9 17  1  0  0  0  0
  9 10  2  0  0  0  0
 18 19  1  0  0  0  0
 19 34  1  0  0  0  0
 19 20  2  0  0  0  0
 35 38  1  0  0  0  0
  8 11  1  0  0  0  0
 44 45  1  0  0  0  0
 18 21  1  0  0  0  0
 34 35  1  0  0  0  0
  7  8  1  0  0  0  0
 17 18  1  0  0  0  0
 24 31  1  0  0  0  0
 25 32  1  0  0  0  0
  3  4  1  0  0  0  0
  3  5  1  0  0  0  0
  3  6  1  0  0  0  0
 38 41  1  0  0  0  0
 38 42  1  0  0  0  0
 38 43  1  0  0  0  0
 11 14  1  0  0  0  0
 11 15  1  0  0  0  0
 11 16  1  0  0  0  0
 45 47  1  0  0  0  0
 45 48  1  0  0  0  0
 45 49  1  0  0  0  0
 21 29  1  0  0  0  0
 21 30  1  0  0  0  0
 35 40  1  0  0  0  0
  8 13  1  0  0  0  0
 18 28  1  0  0  0  0
 26 33  1  0  0  0  0
 44 46  1  0  0  0  0
  7 12  1  0  0  0  0
 34 39  1  0  0  0  0
 17 27  1  0  0  0  0
M  END
$$$$

  -OEChem-05262214473D

 49 49  0     1  0  0  0  0  0999 V2000
   -1.6183    0.5613    3.8201 C   0  0  0  0  0  0  0  0  0  0  0  0
   -0.6710   -0.0534    3.3444 O   0  0  0  0  0  0  0  0  0  0  0  0
   -2.0502    0.2789    5.2208 C   0  0  0  0  0  0  0  0  0  0  0  0
   -2.8099   -0.5175    5.2742 H   0  0  0  0  0  0  0  0  0  0  0  0
   -1.2190   -0.0687    5.8551 H   0  0  0  0  0  0  0  0  0  0  0  0
   -2.4882    1.1338    5.7604 H   0  0  0  0  0  0  0  0  0  0  0  0
   -2.3680    1.5337    3.1790 N   0  0  0  0  0  0  0  0  0  0  0  0
   -2.1212    1.9597    1.8266 C   0  0  2  0  0  0  0  0  0  0  0  0
   -0.7862    1.3744    1.3854 C   0  0  0  0  0  0  0  0  0  0  0  0
    0.0859    1.0216    2.1767 O   0  0  0  0  0  0  0  0  0  0  0  0
   -2.1124    3.4765    1.7171 C   0  0  0  0  0  0  0  0  0  0  0  0
   -3.1331    1.9695    3.6908 H   0  0  0  0  0  0  0  0  0  0  0  0
   -2.9253    1.5413    1.2115 H   0  0  0  0  0  0  0  0  0  0  0  0
   -1.3133    3.9138    2.3268 H   0  0  0  0  0  0  0  0  0  0  0  0
   -1.9529    3.7988    0.6829 H   0  0  0  0  0  0  0  0  0  0  0  0
   -3.0626    3.8977    2.0629 H   0  0  0  0  0  0  0  0  0  0  0  0
   -0.6635    1.3313    0.0020 N   0  0  0  0  0  0  0  0  0  0  0  0
    0.5138    0.8305   -0.6617 C   0  0  2  0  0  0  0  0  0  0  0  0
    1.6861    1.6967   -0.2150 C   0  0  0  0  0  0  0  0  0  0  0  0
    1.7153    2.9155   -0.3715 O   0  0  0  0  0  0  0  0  0  0  0  0
    0.3768    0.8651   -2.1882 C   0  0  0  0  0  0  0  0  0  0  0  0
   -0.7173   -0.0416   -2.6966 C   0  0  0  0  0  0  0  0  0  0  0  0
   -0.5373   -1.4018   -2.7317 N   0  0  0  0  0  0  0  0  0  0  0  0
   -1.9612    0.3069   -3.1675 C   0  0  0  0  0  0  0  0  0  0  0  0
   -1.6623   -1.8759   -3.2191 C   0  0  0  0  0  0  0  0  0  0  0  0
   -2.5547   -0.8786   -3.4987 N   0  0  0  0  0  0  0  0  0  0  0  0
   -1.4467    1.6280   -0.5753 H   0  0  0  0  0  0  0  0  0  0  0  0
    0.6652   -0.1931   -0.2991 H   0  0  0  0  0  0  0  0  0  0  0  0
    1.3303    0.5950   -2.6619 H   0  0  0  0  0  0  0  0  0  0  0  0
    0.1641    1.8863   -2.5311 H   0  0  0  0  0  0  0  0  0  0  0  0
   -2.4635    1.2551   -3.2945 H   0  0  0  0  0  0  0  0  0  0  0  0
   -1.8922   -2.9177   -3.3923 H   0  0  0  0  0  0  0  0  0  0  0  0
   -3.4839   -0.9969   -3.8799 H   0  0  0  0  0  0  0  0  0  0  0  0
    2.6692    0.9521    0.4219 N   0  0  0  0  0  0  0  0  0  0  0  0
    3.8773    1.5315    0.9637 C   0  0  2  0  0  0  0  0  0  0  0  0
    4.5045    2.4052   -0.1146 C   0  0  0  0  0  0  0  0  0  0  0  0
    4.2776    2.2574   -1.3137 O   0  0  0  0  0  0  0  0  0  0  0  0
    4.8485    0.4557    1.4246 C   0  0  0  0  0  0  0  0  0  0  0  0
    2.5326   -0.0504    0.5118 H   0  0  0  0  0  0  0  0  0  0  0  0
    3.5759    2.1564    1.8114 H   0  0  0  0  0  0  0  0  0  0  0  0
    5.1618   -0.1805    0.5888 H   0  0  0  0  0  0  0  0  0  0  0  0
    5.7509    0.8964    1.8609 H   0  0  0  0  0  0  0  0  0  0  0  0
    4.3856   -0.1901    2.1786 H   0  0  0  0  0  0  0  0  0  0  0  0
    5.3807    3.3414    0.4164 N   0  0  0  0  0  0  0  0  0  0  0  0
    6.1109    4.2792   -0.4041 C   0  0  0  0  0  0  0  0  0  0  0  0
    5.4933    3.4052    1.4239 H   0  0  0  0  0  0  0  0  0  0  0  0
    7.0935    3.8560   -0.6598 H   0  0  0  0  0  0  0  0  0  0  0  0
    5.5454    4.4766   -1.3268 H   0  0  0  0  0  0  0  0  0  0  0  0
    6.2496    5.2197    0.1492 H   0  0  0  0  0  0  0  0  0  0  0  0
 22 24  2  0  0  0  0
 24 26  1  0  0  0  0
 23 25  2  0  0  0  0
 25 26  1  0  0  0  0
 21 22  1  0  0  0  0
 22 23  1  0  0  0  0
  1  3  1  0  0  0  0
  1  7  1  0  0  0  0
  1  2  2  0  0  0  0
 35 36  1  0  0  0  0
 36 44  1  0  0  0  0
 36 37  2  0  0  0  0
  8  9  1  0  0  0  0
  9 17  1  0  0  0  0
  9 10  2  0  0  0  0
 18 19  1  0  0  0  0
 19 34  1  0  0  0  0
 19 20  2  0  0  0  0
 35 38  1  0  0  0  0
  8 11  1  0  0  0  0
 44 45  1  0  0  0  0
 18 21  1  0  0  0  0
 34 35  1  0  0  0  0
  7  8  1  0  0  0  0
 17 18  1  0  0  0  0
 24 31  1  0  0  0  0
 25 32  1  0  0  0  0
  3  4  1  0  0  0  0
  3  5  1  0  0  0  0
  3  6  1  0  0  0  0
 38 41  1  0  0  0  0
 38 42  1  0  0  0  0
 38 43  1  0  0  0  0
 11 14  1  0  0  0  0
 11 15  1  0  0  0  0
 11 16  1  0  0  0  0
 45 47  1  0  0  0  0
 45 48  1  0  0  0  0
 45 49  1  0  0  0  0
 21 29  1  0  0  0  0
 21 30  1  0  0  0  0
 35 40  1  0  0  0  0
  8 13  1  0  0  0  0
 18 28  1  0  0  0  0
 26 33  1  0  0  0  0
 44 46  1  0  0  0  0
  7 12  1  0  0  0  0
 34 39  1  0  0  0  0
 17 27  1  0  0  0  0
M  END
$$$$

  -OEChem-05262214473D

 49 49  0     1  0  0  0  0  0999 V2000
   -1.6183    0.5613    3.8201 C   0  0  0  0  0  0  0  0  0  0  0  0
   -0.6710   -0.0534    3.3444 O   0  0  0  0  0  0  0  0  0  0  0  0
   -2.0502    0.2789    5.2208 C   0  0  0  0  0  0  0  0  0  0  0  0
   -2.8099   -0.5175    5.2742 H   0  0  0  0  0  0  0  0  0  0  0  0
   -1.2190   -0.0687    5.8551 H   0  0  0  0  0  0  0  0  0  0  0  0
   -2.4882    1.1338    5.7604 H   0  0  0  0  0  0  0  0  0  0  0  0
   -2.3680    1.5337    3.1790 N   0  0  0  0  0  0  0  0  0  0  0  0
   -2.1212    1.9597    1.8266 C   0  0  2  0  0  0  0  0  0  0  0  0
   -0.7862    1.3744    1.3854 C   0  0  0  0  0  0  0  0  0  0  0  0
    0.0859    1.0216    2.1767 O   0  0  0  0  0  0  0  0  0  0  0  0
   -2.1124    3.4765    1.7171 C   0  0  0  0  0  0  0  0  0  0  0  0
   -3.1331    1.9695    3.6908 H   0  0  0  0  0  0  0  0  0  0  0  0
   -2.9253    1.5413    1.2115 H   0  0  0  0  0  0  0  0  0  0  0  0
   -1.3133    3.9138    2.3268 H   0  0  0  0  0  0  0  0  0  0  0  0
   -1.9529    3.7988    0.6829 H   0  0  0  0  0  0  0  0  0  0  0  0
   -3.0626    3.8977    2.0629 H   0  0  0  0  0  0  0  0  0  0  0  0
   -0.6635    1.3313    0.0020 N   0  0  0  0  0  0  0  0  0  0  0  0
    0.5138    0.8305   -0.6617 C   0  0  2  0  0  0  0  0  0  0  0  0
    1.6861    1.6967   -0.2150 C   0  0  0  0  0  0  0  0  0  0  0  0
    1.6164    2.9203   -0.1211 O   0  0  0  0  0  0  0  0  0  0  0  0
    0.3768    0.8651   -2.1882 C   0  0  0  0  0  0  0  0  0  0  0  0
   -0.7173   -0.0416   -2.6966 C   0  0  0  0  0  0  0  0  0  0  0  0
   -0.5373   -1.4018   -2.7317 N   0  0  0  0  0  0  0  0  0  0  0  0
   -1.9612    0.3069   -3.1675 C   0  0  0  0  0  0  0  0  0  0  0  0
   -1.6623   -1.8759   -3.2191 C   0  0  0  0  0  0  0  0  0  0  0  0
   -2.5547   -0.8786   -3.4987 N   0  0  0  0  0  0  0  0  0  0  0  0
   -1.4467    1.6280   -0.5753 H   0  0  0  0  0  0  0  0  0  0  0  0
    0.6652   -0.1931   -0.2991 H   0  0  0  0  0  0  0  0  0  0  0  0
    1.3303    0.5950   -2.6619 H   0  0  0  0  0  0  0  0  0  0  0  0
    0.1641    1.8863   -2.5311 H   0  0  0  0  0  0  0  0  0  0  0  0
   -2.4635    1.2551   -3.2945 H   0  0  0  0  0  0  0  0  0  0  0  0
   -1.8922   -2.9177   -3.3923 H   0  0  0  0  0  0  0  0  0  0  0  0
   -3.4839   -0.9969   -3.8799 H   0  0  0  0  0  0  0  0  0  0  0  0
    2.7994    0.9353    0.1127 N   0  0  0  0  0  0  0  0  0  0  0  0
    4.0393    1.5061    0.5878 C   0  0  2  0  0  0  0  0  0  0  0  0
    4.4376    2.6251   -0.3655 C   0  0  0  0  0  0  0  0  0  0  0  0
    4.0374    2.6920   -1.5259 O   0  0  0  0  0  0  0  0  0  0  0  0
    5.1337    0.4542    0.6787 C   0  0  0  0  0  0  0  0  0  0  0  0
    2.7398   -0.0738    0.0136 H   0  0  0  0  0  0  0  0  0  0  0  0
    3.8351    1.9255    1.5790 H   0  0  0  0  0  0  0  0  0  0  0  0
    5.3521    0.0227   -0.3049 H   0  0  0  0  0  0  0  0  0  0  0  0
    6.0643    0.8822    1.0659 H   0  0  0  0  0  0  0  0  0  0  0  0
    4.8333   -0.3645    1.3415 H   0  0  0  0  0  0  0  0  0  0  0  0
    5.3267    3.5165    0.2185 N   0  0  0  0  0  0  0  0  0  0  0  0
    5.8626    4.6576   -0.4862 C   0  0  0  0  0  0  0  0  0  0  0  0
    5.5897    3.3943    1.1920 H   0  0  0  0  0  0  0  0  0  0  0  0
    6.8177    4.3827   -0.9576 H   0  0  0  0  0  0  0  0  0  0  0  0
    5.1503    4.9776   -1.2610 H   0  0  0  0  0  0  0  0  0  0  0  0
    6.0277    5.4820    0.2230 H   0  0  0  0  0  0  0  0  0  0  0  0
 22 24  2  0  0  0  0
 24 26  1  0  0  0  0
 23 25  2  0  0  0  0
 25 26  1  0  0  0  0
 21 22  1  0  0  0  0
 22 23  1  0  0  0  0
  1  3  1  0  0  0  0
  1  7  1  0  0  0  0
  1  2  2  0  0  0  0
 35 36  1  0  0  0  0
 36 44  1  0  0  0  0
 36 37  2  0  0  0  0
  8  9  1  0  0  0  0
  9 17  1  0  0  0  0
  9 10  2  0  0  0  0
 18 19  1  0  0  0  0
 19 34  1  0  0  0  0
 19 20  2  0  0  0  0
 35 38  1  0  0  0  0
  8 11  1  0  0  0  0
 44 45  1  0  0  0  0
 18 21  1  0  0  0  0
 34 35  1  0  0  0  0
  7  8  1  0  0  0  0
 17 18  1  0  0  0  0
 24 31  1  0  0  0  0
 25 32  1  0  0  0  0
  3  4  1  0  0  0  0
  3  5  1  0  0  0  0
  3  6  1  0  0  0  0
 38 41  1  0  0  0  0
 38 42  1  0  0  0  0
 38 43  1  0  0  0  0
 11 14  1  0  0  0  0
 11 15  1  0  0  0  0
 11 16  1  0  0  0  0
 45 47  1  0  0  0  0
 45 48  1  0  0  0  0
 45 49  1  0  0  0  0
 21 29  1  0  0  0  0
 21 30  1  0  0  0  0
 35 40  1  0  0  0  0
  8 13  1  0  0  0  0
 18 28  1  0  0  0  0
 26 33  1  0  0  0  0
 44 46  1  0  0  0  0
  7 12  1  0  0  0  0
 34 39  1  0  0  0  0
 17 27  1  0  0  0  0
M  END
$$$$

  -OEChem-05262214473D

 49 49  0     1  0  0  0  0  0999 V2000
   -1.6183    0.5613    3.8201 C   0  0  0  0  0  0  0  0  0  0  0  0
   -0.6710   -0.0534    3.3444 O   0  0  0  0  0  0  0  0  0  0  0  0
   -2.0502    0.2789    5.2208 C   0  0  0  0  0  0  0  0  0  0  0  0
   -2.8099   -0.5175    5.2742 H   0  0  0  0  0  0  0  0  0  0  0  0
   -1.2190   -0.0687    5.8551 H   0  0  0  0  0  0  0  0  0  0  0  0
   -2.4882    1.1338    5.7604 H   0  0  0  0  0  0  0  0  0  0  0  0
   -2.3680    1.5337    3.1790 N   0  0  0  0  0  0  0  0  0  0  0  0
   -2.1212    1.9597    1.8266 C   0  0  2  0  0  0  0  0  0  0  0  0
   -0.7862    1.3744    1.3854 C   0  0  0  0  0  0  0  0  0  0  0  0
    0.0859    1.0216    2.1767 O   0  0  0  0  0  0  0  0  0  0  0  0
   -2.1124    3.4765    1.7171 C   0  0  0  0  0  0  0  0  0  0  0  0
   -3.1331    1.9695    3.6908 H   0  0  0  0  0  0  0  0  0  0  0  0
   -2.9253    1.5413    1.2115 H   0  0  0  0  0  0  0  0  0  0  0  0
   -1.3133    3.9138    2.3268 H   0  0  0  0  0  0  0  0  0  0  0  0
   -1.9529    3.7988    0.6829 H   0  0  0  0  0  0  0  0  0  0  0  0
   -3.0626    3.8977    2.0629 H   0  0  0  0  0  0  0  0  0  0  0  0
   -0.6635    1.3313    0.0020 N   0  0  0  0  0  0  0  0  0  0  0  0
    0.5138    0.8305   -0.6617 C   0  0  2  0  0  0  0  0  0  0  0  0
    1.6861    1.6967   -0.2150 C   0  0  0  0  0  0  0  0  0  0  0  0
    1.5573    2.8676    0.1361 O   0  0  0  0  0  0  0  0  0  0  0  0
    0.3768    0.8651   -2.1882 C   0  0  0  0  0  0  0  0  0  0  0  0
   -0.7173   -0.0416   -2.6966 C   0  0  0  0  0  0  0  0  0  0  0  0
   -0.5373   -1.4018   -2.7317 N   0  0  0  0  0  0  0  0  0  0  0  0
   -1.9612    0.3069   -3.1675 C   0  0  0  0  0  0  0  0  0  0  0  0
   -1.6623   -1.8759   -3.2191 C   0  0  0  0  0  0  0  0  0  0  0  0
   -2.5547   -0.8786   -3.4987 N   0  0  0  0  0  0  0  0  0  0  0  0
   -1.4467    1.6280   -0.5753 H   0  0  0  0  0  0  0  0  0  0  0  0
    0.6652   -0.1931   -0.2991 H   0  0  0  0  0  0  0  0  0  0  0  0
    1.3303    0.5950   -2.6619 H   0  0  0  0  0  0  0  0  0  0  0  0
    0.1641    1.8863   -2.5311 H   0  0  0  0  0  0  0  0  0  0  0  0
   -2.4635    1.2551   -3.2945 H   0  0  0  0  0  0  0  0  0  0  0  0
   -1.8922   -2.9177   -3.3923 H   0  0  0  0  0  0  0  0  0  0  0  0
   -3.4839   -0.9969   -3.8799 H   0  0  0  0  0  0  0  0  0  0  0  0
    2.8810    0.9905   -0.2085 N   0  0  0  0  0  0  0  0  0  0  0  0
    4.1423    1.5688    0.1958 C   0  0  2  0  0  0  0  0  0  0  0  0
    4.3194    2.8824   -0.5543 C   0  0  0  0  0  0  0  0  0  0  0  0
    3.7411    3.1358   -1.6090 O   0  0  0  0  0  0  0  0  0  0  0  0
    5.2997    0.6228   -0.0839 C   0  0  0  0  0  0  0  0  0  0  0  0
    2.8684    0.0184   -0.5028 H   0  0  0  0  0  0  0  0  0  0  0  0
    4.0688    1.7682    1.2704 H   0  0  0  0  0  0  0  0  0  0  0  0
    5.3892    0.4112   -1.1557 H   0  0  0  0  0  0  0  0  0  0  0  0
    6.2511    1.0506    0.2490 H   0  0  0  0  0  0  0  0  0  0  0  0
    5.1559   -0.3324    0.4325 H   0  0  0  0  0  0  0  0  0  0  0  0
    5.2322    3.7209    0.0701 N   0  0  0  0  0  0  0  0  0  0  0  0
    5.5820    5.0206   -0.4538 C   0  0  0  0  0  0  0  0  0  0  0  0
    5.6496    3.4372    0.9516 H   0  0  0  0  0  0  0  0  0  0  0  0
    6.4677    4.9298   -1.0998 H   0  0  0  0  0  0  0  0  0  0  0  0
    4.7402    5.4184   -1.0396 H   0  0  0  0  0  0  0  0  0  0  0  0
    5.8044    5.7038    0.3792 H   0  0  0  0  0  0  0  0  0  0  0  0
 22 24  2  0  0  0  0
 24 26  1  0  0  0  0
 23 25  2  0  0  0  0
 25 26  1  0  0  0  0
 21 22  1  0  0  0  0
 22 23  1  0  0  0  0
  1  3  1  0  0  0  0
  1  7  1  0  0  0  0
  1  2  2  0  0  0  0
 35 36  1  0  0  0  0
 36 44  1  0  0  0  0
 36 37  2  0  0  0  0
  8  9  1  0  0  0  0
  9 17  1  0  0  0  0
  9 10  2  0  0  0  0
 18 19  1  0  0  0  0
 19 34  1  0  0  0  0
 19 20  2  0  0  0  0
 35 38  1  0  0  0  0
  8 11  1  0  0  0  0
 44 45  1  0  0  0  0
 18 21  1  0  0  0  0
 34 35  1  0  0  0  0
  7  8  1  0  0  0  0
 17 18  1  0  0  0  0
 24 31  1  0  0  0  0
 25 32  1  0  0  0  0
  3  4  1  0  0  0  0
  3  5  1  0  0  0  0
  3  6  1  0  0  0  0
 38 41  1  0  0  0  0
 38 42  1  0  0  0  0
 38 43  1  0  0  0  0
 11 14  1  0  0  0  0
 11 15  1  0  0  0  0
 11 16  1  0  0  0  0
 45 47  1  0  0  0  0
 45 48  1  0  0  0  0
 45 49  1  0  0  0  0
 21 29  1  0  0  0  0
 21 30  1  0  0  0  0
 35 40  1  0  0  0  0
  8 13  1  0  0  0  0
 18 28  1  0  0  0  0
 26 33  1  0  0  0  0
 44 46  1  0  0  0  0
  7 12  1  0  0  0  0
 34 39  1  0  0  0  0
 17 27  1  0  0  0  0
M  END
$$$$

  -OEChem-05262214473D

 49 49  0     1  0  0  0  0  0999 V2000
   -1.6183    0.5613    3.8201 C   0  0  0  0  0  0  0  0  0  0  0  0
   -0.6710   -0.0534    3.3444 O   0  0  0  0  0  0  0  0  0  0  0  0
   -2.0502    0.2789    5.2208 C   0  0  0  0  0  0  0  0  0  0  0  0
   -2.8099   -0.5175    5.2742 H   0  0  0  0  0  0  0  0  0  0  0  0
   -1.2190   -0.0687    5.8551 H   0  0  0  0  0  0  0  0  0  0  0  0
   -2.4882    1.1338    5.7604 H   0  0  0  0  0  0  0  0  0  0  0  0
   -2.3680    1.5337    3.1790 N   0  0  0  0  0  0  0  0  0  0  0  0
   -2.1212    1.9597    1.8266 C   0  0  2  0  0  0  0  0  0  0  0  0
   -0.7862    1.3744    1.3854 C   0  0  0  0  0  0  0  0  0  0  0  0
    0.0859    1.0216    2.1767 O   0  0  0  0  0  0  0  0  0  0  0  0
   -2.1124    3.4765    1.7171 C   0  0  0  0  0  0  0  0  0  0  0  0
   -3.1331    1.9695    3.6908 H   0  0  0  0  0  0  0  0  0  0  0  0
   -2.9253    1.5413    1.2115 H   0  0  0  0  0  0  0  0  0  0  0  0
   -1.3133    3.9138    2.3268 H   0  0  0  0  0  0  0  0  0  0  0  0
   -1.9529    3.7988    0.6829 H   0  0  0  0  0  0  0  0  0  0  0  0
   -3.0626    3.8977    2.0629 H   0  0  0  0  0  0  0  0  0  0  0  0
   -0.6635    1.3313    0.0020 N   0  0  0  0  0  0  0  0  0  0  0  0
    0.5138    0.8305   -0.6617 C   0  0  2  0  0  0  0  0  0  0  0  0
    1.6861    1.6967   -0.2150 C   0  0  0  0  0  0  0  0  0  0  0  0
    1.5421    2.7610    0.3828 O   0  0  0  0  0  0  0  0  0  0  0  0
    0.3768    0.8651   -2.1882 C   0  0  0  0  0  0  0  0  0  0  0  0
   -0.7173   -0.0416   -2.6966 C   0  0  0  0  0  0  0  0  0  0  0  0
   -0.5373   -1.4018   -2.7317 N   0  0  0  0  0  0  0  0  0  0  0  0
   -1.9612    0.3069   -3.1675 C   0  0  0  0  0  0  0  0  0  0  0  0
   -1.6623   -1.8759   -3.2191 C   0  0  0  0  0  0  0  0  0  0  0  0
   -2.5547   -0.8786   -3.4987 N   0  0  0  0  0  0  0  0  0  0  0  0
   -1.4467    1.6280   -0.5753 H   0  0  0  0  0  0  0  0  0  0  0  0
    0.6652   -0.1931   -0.2991 H   0  0  0  0  0  0  0  0  0  0  0  0
    1.3303    0.5950   -2.6619 H   0  0  0  0  0  0  0  0  0  0  0  0
    0.1641    1.8863   -2.5311 H   0  0  0  0  0  0  0  0  0  0  0  0
   -2.4635    1.2551   -3.2945 H   0  0  0  0  0  0  0  0  0  0  0  0
   -1.8922   -2.9177   -3.3923 H   0  0  0  0  0  0  0  0  0  0  0  0
   -3.4839   -0.9969   -3.8799 H   0  0  0  0  0  0  0  0  0  0  0  0
    2.9084    1.1140   -0.5198 N   0  0  0  0  0  0  0  0  0  0  0  0
    4.1795    1.7151   -0.1855 C   0  0  2  0  0  0  0  0  0  0  0  0
    4.1580    3.1595   -0.6680 C   0  0  0  0  0  0  0  0  0  0  0  0
    3.4091    3.5586   -1.5574 O   0  0  0  0  0  0  0  0  0  0  0  0
    5.3351    0.9501   -0.8115 C   0  0  0  0  0  0  0  0  0  0  0  0
    2.9097    0.2200   -1.0022 H   0  0  0  0  0  0  0  0  0  0  0  0
    4.2611    1.6955    0.9067 H   0  0  0  0  0  0  0  0  0  0  0  0
    5.2704    0.9587   -1.9057 H   0  0  0  0  0  0  0  0  0  0  0  0
    6.2988    1.3899   -0.5339 H   0  0  0  0  0  0  0  0  0  0  0  0
    5.3315   -0.0960   -0.4866 H   0  0  0  0  0  0  0  0  0  0  0  0
    5.1036    3.9408   -0.0186 N   0  0  0  0  0  0  0  0  0  0  0  0
    5.2883    5.3435   -0.3089 C   0  0  0  0  0  0  0  0  0  0  0  0
    5.6689    3.5310    0.7191 H   0  0  0  0  0  0  0  0  0  0  0  0
    6.0672    5.4601   -1.0768 H   0  0  0  0  0  0  0  0  0  0  0  0
    4.3433    5.7690   -0.6777 H   0  0  0  0  0  0  0  0  0  0  0  0
    5.5948    5.8701    0.6069 H   0  0  0  0  0  0  0  0  0  0  0  0
 22 24  2  0  0  0  0
 24 26  1  0  0  0  0
 23 25  2  0  0  0  0
 25 26  1  0  0  0  0
 21 22  1  0  0  0  0
 22 23  1  0  0  0  0
  1  3  1  0  0  0  0
  1  7  1  0  0  0  0
  1  2  2  0  0  0  0
 35 36  1  0  0  0  0
 36 44  1  0  0  0  0
 36 37  2  0  0  0  0
  8  9  1  0  0  0  0
  9 17  1  0  0  0  0
  9 10  2  0  0  0  0
 18 19  1  0  0  0  0
 19 34  1  0  0  0  0
 19 20  2  0  0  0  0
 35 38  1  0  0  0  0
  8 11  1  0  0  0  0
 44 45  1  0  0  0  0
 18 21  1  0  0  0  0
 34 35  1  0  0  0  0
  7  8  1  0  0  0  0
 17 18  1  0  0  0  0
 24 31  1  0  0  0  0
 25 32  1  0  0  0  0
  3  4  1  0  0  0  0
  3  5  1  0  0  0  0
  3  6  1  0  0  0  0
 38 41  1  0  0  0  0
 38 42  1  0  0  0  0
 38 43  1  0  0  0  0
 11 14  1  0  0  0  0
 11 15  1  0  0  0  0
 11 16  1  0  0  0  0
 45 47  1  0  0  0  0
 45 48  1  0  0  0  0
 45 49  1  0  0  0  0
 21 29  1  0  0  0  0
 21 30  1  0  0  0  0
 35 40  1  0  0  0  0
  8 13  1  0  0  0  0
 18 28  1  0  0  0  0
 26 33  1  0  0  0  0
 44 46  1  0  0  0  0
  7 12  1  0  0  0  0
 34 39  1  0  0  0  0
 17 27  1  0  0  0  0
M  END
$$$$

  -OEChem-05262214473D

 49 49  0     1  0  0  0  0  0999 V2000
   -1.6183    0.5613    3.8201 C   0  0  0  0  0  0  0  0  0  0  0  0
   -0.6710   -0.0534    3.3444 O   0  0  0  0  0  0  0  0  0  0  0  0
   -2.0502    0.2789    5.2208 C   0  0  0  0  0  0  0  0  0  0  0  0
   -2.8099   -0.5175    5.2742 H   0  0  0  0  0  0  0  0  0  0  0  0
   -1.2190   -0.0687    5.8551 H   0  0  0  0  0  0  0  0  0  0  0  0
   -2.4882    1.1338    5.7604 H   0  0  0  0  0  0  0  0  0  0  0  0
   -2.3680    1.5337    3.1790 N   0  0  0  0  0  0  0  0  0  0  0  0
   -2.1212    1.9597    1.8266 C   0  0  2  0  0  0  0  0  0  0  0  0
   -0.7862    1.3744    1.3854 C   0  0  0  0  0  0  0  0  0  0  0  0
    0.0859    1.0216    2.1767 O   0  0  0  0  0  0  0  0  0  0  0  0
   -2.1124    3.4765    1.7171 C   0  0  0  0  0  0  0  0  0  0  0  0
   -3.1331    1.9695    3.6908 H   0  0  0  0  0  0  0  0  0  0  0  0
   -2.9253    1.5413    1.2115 H   0  0  0  0  0  0  0  0  0  0  0  0
   -1.3133    3.9138    2.3268 H   0  0  0  0  0  0  0  0  0  0  0  0
   -1.9529    3.7988    0.6829 H   0  0  0  0  0  0  0  0  0  0  0  0
   -3.0626    3.8977    2.0629 H   0  0  0  0  0  0  0  0  0  0  0  0
   -0.6635    1.3313    0.0020 N   0  0  0  0  0  0  0  0  0  0  0  0
    0.5138    0.8305   -0.6617 C   0  0  2  0  0  0  0  0  0  0  0  0
    1.7218    1.4276    0.0513 C   0  0  0  0  0  0  0  0  0  0  0  0
    1.6245    2.1579    1.0352 O   0  0  0  0  0  0  0  0  0  0  0  0
    0.5390    1.1961   -2.1502 C   0  0  0  0  0  0  0  0  0  0  0  0
   -0.5898    0.5623   -2.9261 C   0  0  0  0  0  0  0  0  0  0  0  0
   -0.5571   -0.7731   -3.2412 N   0  0  0  0  0  0  0  0  0  0  0  0
   -1.7331    1.1576   -3.4046 C   0  0  0  0  0  0  0  0  0  0  0  0
   -1.6712   -0.9877   -3.9052 C   0  0  0  0  0  0  0  0  0  0  0  0
   -2.4156    0.1523   -4.0298 N   0  0  0  0  0  0  0  0  0  0  0  0
   -1.4467    1.6280   -0.5753 H   0  0  0  0  0  0  0  0  0  0  0  0
    0.5141   -0.2566   -0.5191 H   0  0  0  0  0  0  0  0  0  0  0  0
    1.5008    0.9088   -2.5963 H   0  0  0  0  0  0  0  0  0  0  0  0
    0.4758    2.2847   -2.2789 H   0  0  0  0  0  0  0  0  0  0  0  0
   -2.1127    2.1683   -3.3613 H   0  0  0  0  0  0  0  0  0  0  0  0
   -1.9949   -1.9330   -4.3174 H   0  0  0  0  0  0  0  0  0  0  0  0
   -3.3080    0.2358   -4.4980 H   0  0  0  0  0  0  0  0  0  0  0  0
    2.9182    1.0069   -0.5126 N   0  0  0  0  0  0  0  0  0  0  0  0
    4.2145    1.4067   -0.0138 C   0  0  2  0  0  0  0  0  0  0  0  0
    4.2146    2.9226    0.1335 C   0  0  0  0  0  0  0  0  0  0  0  0
    3.4479    3.6568   -0.4863 O   0  0  0  0  0  0  0  0  0  0  0  0
    5.3293    0.9508   -0.9423 C   0  0  0  0  0  0  0  0  0  0  0  0
    2.8810    0.3867   -1.3162 H   0  0  0  0  0  0  0  0  0  0  0  0
    4.3307    0.9434    0.9720 H   0  0  0  0  0  0  0  0  0  0  0  0
    5.2295    1.4048   -1.9350 H   0  0  0  0  0  0  0  0  0  0  0  0
    6.3123    1.2295   -0.5487 H   0  0  0  0  0  0  0  0  0  0  0  0
    5.3092   -0.1368   -1.0707 H   0  0  0  0  0  0  0  0  0  0  0  0
    5.2003    3.3620    1.0060 N   0  0  0  0  0  0  0  0  0  0  0  0
    5.4115    4.7594    1.3037 C   0  0  0  0  0  0  0  0  0  0  0  0
    5.7784    2.6816    1.4904 H   0  0  0  0  0  0  0  0  0  0  0  0
    6.1680    5.1705    0.6190 H   0  0  0  0  0  0  0  0  0  0  0  0
    4.4664    5.3080    1.1777 H   0  0  0  0  0  0  0  0  0  0  0  0
    5.7608    4.8644    2.3415 H   0  0  0  0  0  0  0  0  0  0  0  0
 22 24  2  0  0  0  0
 24 26  1  0  0  0  0
 23 25  2  0  0  0  0
 25 26  1  0  0  0  0
 21 22  1  0  0  0  0
 22 23  1  0  0  0  0
  1  3  1  0  0  0  0
  1  7  1  0  0  0  0
  1  2  2  0  0  0  0
 35 36  1  0  0  0  0
 36 44  1  0  0  0  0
 36 37  2  0  0  0  0
  8  9  1  0  0  0  0
  9 17  1  0  0  0  0
  9 10  2  0  0  0  0
 18 19  1  0  0  0  0
 19 34  1  0  0  0  0
 19 20  2  0  0  0  0
 35 38  1  0  0  0  0
  8 11  1  0  0  0  0
 44 45  1  0  0  0  0
 18 21  1  0  0  0  0
 34 35  1  0  0  0  0
  7  8  1  0  0  0  0
 17 18  1  0  0  0  0
 24 31  1  0  0  0  0
 25 32  1  0  0  0  0
  3  4  1  0  0  0  0
  3  5  1  0  0  0  0
  3  6  1  0  0  0  0
 38 41  1  0  0  0  0
 38 42  1  0  0  0  0
 38 43  1  0  0  0  0
 11 14  1  0  0  0  0
 11 15  1  0  0  0  0
 11 16  1  0  0  0  0
 45 47  1  0  0  0  0
 45 48  1  0  0  0  0
 45 49  1  0  0  0  0
 21 29  1  0  0  0  0
 21 30  1  0  0  0  0
 35 40  1  0  0  0  0
  8 13  1  0  0  0  0
 18 28  1  0  0  0  0
 26 33  1  0  0  0  0
 44 46  1  0  0  0  0
  7 12  1  0  0  0  0
 34 39  1  0  0  0  0
 17 27  1  0  0  0  0
M  END
$$$$

  -OEChem-05262214473D

 49 49  0     1  0  0  0  0  0999 V2000
   -1.6183    0.5613    3.8201 C   0  0  0  0  0  0  0  0  0  0  0  0
   -0.6710   -0.0534    3.3444 O   0  0  0  0  0  0  0  0  0  0  0  0
   -2.0502    0.2789    5.2208 C   0  0  0  0  0  0  0  0  0  0  0  0
   -2.8099   -0.5175    5.2742 H   0  0  0  0  0  0  0  0  0  0  0  0
   -1.2190   -0.0687    5.8551 H   0  0  0  0  0  0  0  0  0  0  0  0
   -2.4882    1.1338    5.7604 H   0  0  0  0  0  0  0  0  0  0  0  0
   -2.3680    1.5337    3.1790 N   0  0  0  0  0  0  0  0  0  0  0  0
   -2.1212    1.9597    1.8266 C   0  0  2  0  0  0  0  0  0  0  0  0
   -0.7862    1.3744    1.3854 C   0  0  0  0  0  0  0  0  0  0  0  0
    0.0859    1.0216    2.1767 O   0  0  0  0  0  0  0  0  0  0  0  0
   -2.1124    3.4765    1.7171 C   0  0  0  0  0  0  0  0  0  0  0  0
   -3.1331    1.9695    3.6908 H   0  0  0  0  0  0  0  0  0  0  0  0
   -2.9253    1.5413    1.2115 H   0  0  0  0  0  0  0  0  0  0  0  0
   -1.3133    3.9138    2.3268 H   0  0  0  0  0  0  0  0  0  0  0  0
   -1.9529    3.7988    0.6829 H   0  0  0  0  0  0  0  0  0  0  0  0
   -3.0626    3.8977    2.0629 H   0  0  0  0  0  0  0  0  0  0  0  0
   -0.6635    1.3313    0.0020 N   0  0  0  0  0  0  0  0  0  0  0  0
    0.5138    0.8305   -0.6617 C   0  0  2  0  0  0  0  0  0  0  0  0
    1.7218    1.4276    0.0513 C   0  0  0  0  0  0  0  0  0  0  0  0
    1.6573    1.9284    1.1720 O   0  0  0  0  0  0  0  0  0  0  0  0
    0.5390    1.1961   -2.1502 C   0  0  0  0  0  0  0  0  0  0  0  0
   -0.5898    0.5623   -2.9261 C   0  0  0  0  0  0  0  0  0  0  0  0
   -0.5571   -0.7731   -3.2412 N   0  0  0  0  0  0  0  0  0  0  0  0
   -1.7331    1.1576   -3.4046 C   0  0  0  0  0  0  0  0  0  0  0  0
   -1.6712   -0.9877   -3.9052 C   0  0  0  0  0  0  0  0  0  0  0  0
   -2.4156    0.1523   -4.0298 N   0  0  0  0  0  0  0  0  0  0  0  0
   -1.4467    1.6280   -0.5753 H   0  0  0  0  0  0  0  0  0  0  0  0
    0.5141   -0.2566   -0.5191 H   0  0  0  0  0  0  0  0  0  0  0  0
    1.5008    0.9088   -2.5963 H   0  0  0  0  0  0  0  0  0  0  0  0
    0.4758    2.2847   -2.2789 H   0  0  0  0  0  0  0  0  0  0  0  0
   -2.1127    2.1683   -3.3613 H   0  0  0  0  0  0  0  0  0  0  0  0
   -1.9949   -1.9330   -4.3174 H   0  0  0  0  0  0  0  0  0  0  0  0
   -3.3080    0.2358   -4.4980 H   0  0  0  0  0  0  0  0  0  0  0  0
    2.8853    1.2886   -0.6927 N   0  0  0  0  0  0  0  0  0  0  0  0
    4.1777    1.7483   -0.2378 C   0  0  2  0  0  0  0  0  0  0  0  0
    4.0272    3.1911    0.2260 C   0  0  0  0  0  0  0  0  0  0  0  0
    3.1185    3.9266   -0.1541 O   0  0  0  0  0  0  0  0  0  0  0  0
    5.2229    1.6369   -1.3368 C   0  0  0  0  0  0  0  0  0  0  0  0
    2.8253    0.8412   -1.6026 H   0  0  0  0  0  0  0  0  0  0  0  0
    4.4561    1.1176    0.6136 H   0  0  0  0  0  0  0  0  0  0  0  0
    4.9611    2.2620   -2.1983 H   0  0  0  0  0  0  0  0  0  0  0  0
    6.2076    1.9587   -0.9820 H   0  0  0  0  0  0  0  0  0  0  0  0
    5.3086    0.6035   -1.6898 H   0  0  0  0  0  0  0  0  0  0  0  0
    5.0514    3.5742    1.0807 N   0  0  0  0  0  0  0  0  0  0  0  0
    5.1395    4.8999    1.6470 C   0  0  0  0  0  0  0  0  0  0  0  0
    5.7525    2.8932    1.3571 H   0  0  0  0  0  0  0  0  0  0  0  0
    5.7629    5.5348    1.0002 H   0  0  0  0  0  0  0  0  0  0  0  0
    4.1315    5.3333    1.7241 H   0  0  0  0  0  0  0  0  0  0  0  0
    5.5911    4.8415    2.6483 H   0  0  0  0  0  0  0  0  0  0  0  0
 22 24  2  0  0  0  0
 24 26  1  0  0  0  0
 23 25  2  0  0  0  0
 25 26  1  0  0  0  0
 21 22  1  0  0  0  0
 22 23  1  0  0  0  0
  1  3  1  0  0  0  0
  1  7  1  0  0  0  0
  1  2  2  0  0  0  0
 35 36  1  0  0  0  0
 36 44  1  0  0  0  0
 36 37  2  0  0  0  0
  8  9  1  0  0  0  0
  9 17  1  0  0  0  0
  9 10  2  0  0  0  0
 18 19  1  0  0  0  0
 19 34  1  0  0  0  0
 19 20  2  0  0  0  0
 35 38  1  0  0  0  0
  8 11  1  0  0  0  0
 44 45  1  0  0  0  0
 18 21  1  0  0  0  0
 34 35  1  0  0  0  0
  7  8  1  0  0  0  0
 17 18  1  0  0  0  0
 24 31  1  0  0  0  0
 25 32  1  0  0  0  0
  3  4  1  0  0  0  0
  3  5  1  0  0  0  0
  3  6  1  0  0  0  0
 38 41  1  0  0  0  0
 38 42  1  0  0  0  0
 38 43  1  0  0  0  0
 11 14  1  0  0  0  0
 11 15  1  0  0  0  0
 11 16  1  0  0  0  0
 45 47  1  0  0  0  0
 45 48  1  0  0  0  0
 45 49  1  0  0  0  0
 21 29  1  0  0  0  0
 21 30  1  0  0  0  0
 35 40  1  0  0  0  0
  8 13  1  0  0  0  0
 18 28  1  0  0  0  0
 26 33  1  0  0  0  0
 44 46  1  0  0  0  0
  7 12  1  0  0  0  0
 34 39  1  0  0  0  0
 17 27  1  0  0  0  0
M  END
$$$$

  -OEChem-05262214473D

 49 49  0     1  0  0  0  0  0999 V2000
   -1.6183    0.5613    3.8201 C   0  0  0  0  0  0  0  0  0  0  0  0
   -0.6710   -0.0534    3.3444 O   0  0  0  0  0  0  0  0  0  0  0  0
   -2.0502    0.2789    5.2208 C   0  0  0  0  0  0  0  0  0  0  0  0
   -2.8099   -0.5175    5.2742 H   0  0  0  0  0  0  0  0  0  0  0  0
   -1.2190   -0.0687    5.8551 H   0  0  0  0  0  0  0  0  0  0  0  0
   -2.4882    1.1338    5.7604 H   0  0  0  0  0  0  0  0  0  0  0  0
   -2.3680    1.5337    3.1790 N   0  0  0  0  0  0  0  0  0  0  0  0
   -2.1212    1.9597    1.8266 C   0  0  2  0  0  0  0  0  0  0  0  0
   -0.7862    1.3744    1.3854 C   0  0  0  0  0  0  0  0  0  0  0  0
    0.0859    1.0216    2.1767 O   0  0  0  0  0  0  0  0  0  0  0  0
   -2.1124    3.4765    1.7171 C   0  0  0  0  0  0  0  0  0  0  0  0
   -3.1331    1.9695    3.6908 H   0  0  0  0  0  0  0  0  0  0  0  0
   -2.9253    1.5413    1.2115 H   0  0  0  0  0  0  0  0  0  0  0  0
   -1.3133    3.9138    2.3268 H   0  0  0  0  0  0  0  0  0  0  0  0
   -1.9529    3.7988    0.6829 H   0  0  0  0  0  0  0  0  0  0  0  0
   -3.0626    3.8977    2.0629 H   0  0  0  0  0  0  0  0  0  0  0  0
   -0.6635    1.3313    0.0020 N   0  0  0  0  0  0  0  0  0  0  0  0
    0.5138    0.8305   -0.6617 C   0  0  2  0  0  0  0  0  0  0  0  0
    1.7218    1.4276    0.0513 C   0  0  0  0  0  0  0  0  0  0  0  0
    1.7306    1.6826    1.2537 O   0  0  0  0  0  0  0  0  0  0  0  0
    0.5390    1.1961   -2.1502 C   0  0  0  0  0  0  0  0  0  0  0  0
   -0.5898    0.5623   -2.9261 C   0  0  0  0  0  0  0  0  0  0  0  0
   -0.5571   -0.7731   -3.2412 N   0  0  0  0  0  0  0  0  0  0  0  0
   -1.7331    1.1576   -3.4046 C   0  0  0  0  0  0  0  0  0  0  0  0
   -1.6712   -0.9877   -3.9052 C   0  0  0  0  0  0  0  0  0  0  0  0
   -2.4156    0.1523   -4.0298 N   0  0  0  0  0  0  0  0  0  0  0  0
   -1.4467    1.6280   -0.5753 H   0  0  0  0  0  0  0  0  0  0  0  0
    0.5141   -0.2566   -0.5191 H   0  0  0  0  0  0  0  0  0  0  0  0
    1.5008    0.9088   -2.5963 H   0  0  0  0  0  0  0  0  0  0  0  0
    0.4758    2.2847   -2.2789 H   0  0  0  0  0  0  0  0  0  0  0  0
   -2.1127    2.1683   -3.3613 H   0  0  0  0  0  0  0  0  0  0  0  0
   -1.9949   -1.9330   -4.3174 H   0  0  0  0  0  0  0  0  0  0  0  0
   -3.3080    0.2358   -4.4980 H   0  0  0  0  0  0  0  0  0  0  0  0
    2.8011    1.5937   -0.8055 N   0  0  0  0  0  0  0  0  0  0  0  0
    4.0782    2.1198   -0.3803 C   0  0  2  0  0  0  0  0  0  0  0  0
    3.8231    3.4089    0.3894 C   0  0  0  0  0  0  0  0  0  0  0  0
    2.8013    4.0791    0.2555 O   0  0  0  0  0  0  0  0  0  0  0  0
    4.9972    2.3676   -1.5664 C   0  0  0  0  0  0  0  0  0  0  0  0
    2.6876    1.3323   -1.7805 H   0  0  0  0  0  0  0  0  0  0  0  0
    4.5198    1.3746    0.2904 H   0  0  0  0  0  0  0  0  0  0  0  0
    4.5714    3.1116   -2.2496 H   0  0  0  0  0  0  0  0  0  0  0  0
    5.9743    2.7392   -1.2404 H   0  0  0  0  0  0  0  0  0  0  0  0
    5.1557    1.4456   -2.1360 H   0  0  0  0  0  0  0  0  0  0  0  0
    4.8895    3.7458    1.2114 N   0  0  0  0  0  0  0  0  0  0  0  0
    4.8946    4.9322    2.0349 C   0  0  0  0  0  0  0  0  0  0  0  0
    5.6884    3.1217    1.2742 H   0  0  0  0  0  0  0  0  0  0  0  0
    5.3662    5.7594    1.4842 H   0  0  0  0  0  0  0  0  0  0  0  0
    3.8602    5.2051    2.2910 H   0  0  0  0  0  0  0  0  0  0  0  0
    5.4611    4.7358    2.9572 H   0  0  0  0  0  0  0  0  0  0  0  0
 22 24  2  0  0  0  0
 24 26  1  0  0  0  0
 23 25  2  0  0  0  0
 25 26  1  0  0  0  0
 21 22  1  0  0  0  0
 22 23  1  0  0  0  0
  1  3  1  0  0  0  0
  1  7  1  0  0  0  0
  1  2  2  0  0  0  0
 35 36  1  0  0  0  0
 36 44  1  0  0  0  0
 36 37  2  0  0  0  0
  8  9  1  0  0  0  0
  9 17  1  0  0  0  0
  9 10  2  0  0  0  0
 18 19  1  0  0  0  0
 19 34  1  0  0  0  0
 19 20  2  0  0  0  0
 35 38  1  0  0  0  0
  8 11  1  0  0  0  0
 44 45  1  0  0  0  0
 18 21  1  0  0  0  0
 34 35  1  0  0  0  0
  7  8  1  0  0  0  0
 17 18  1  0  0  0  0
 24 31  1  0  0  0  0
 25 32  1  0  0  0  0
  3  4  1  0  0  0  0
  3  5  1  0  0  0  0
  3  6  1  0  0  0  0
 38 41  1  0  0  0  0
 38 42  1  0  0  0  0
 38 43  1  0  0  0  0
 11 14  1  0  0  0  0
 11 15  1  0  0  0  0
 11 16  1  0  0  0  0
 45 47  1  0  0  0  0
 45 48  1  0  0  0  0
 45 49  1  0  0  0  0
 21 29  1  0  0  0  0
 21 30  1  0  0  0  0
 35 40  1  0  0  0  0
  8 13  1  0  0  0  0
 18 28  1  0  0  0  0
 26 33  1  0  0  0  0
 44 46  1  0  0  0  0
  7 12  1  0  0  0  0
 34 39  1  0  0  0  0
 17 27  1  0  0  0  0
M  END
$$$$

  -OEChem-05262214473D

 49 49  0     1  0  0  0  0  0999 V2000
   -1.6183    0.5613    3.8201 C   0  0  0  0  0  0  0  0  0  0  0  0
   -0.6710   -0.0534    3.3444 O   0  0  0  0  0  0  0  0  0  0  0  0
   -2.0502    0.2789    5.2208 C   0  0  0  0  0  0  0  0  0  0  0  0
   -2.8099   -0.5175    5.2742 H   0  0  0  0  0  0  0  0  0  0  0  0
   -1.2190   -0.0687    5.8551 H   0  0  0  0  0  0  0  0  0  0  0  0
   -2.4882    1.1338    5.7604 H   0  0  0  0  0  0  0  0  0  0  0  0
   -2.3680    1.5337    3.1790 N   0  0  0  0  0  0  0  0  0  0  0  0
   -2.1212    1.9597    1.8266 C   0  0  2  0  0  0  0  0  0  0  0  0
   -0.7862    1.3744    1.3854 C   0  0  0  0  0  0  0  0  0  0  0  0
    0.0859    1.0216    2.1767 O   0  0  0  0  0  0  0  0  0  0  0  0
   -2.1124    3.4765    1.7171 C   0  0  0  0  0  0  0  0  0  0  0  0
   -3.1331    1.9695    3.6908 H   0  0  0  0  0  0  0  0  0  0  0  0
   -2.9253    1.5413    1.2115 H   0  0  0  0  0  0  0  0  0  0  0  0
   -1.3133    3.9138    2.3268 H   0  0  0  0  0  0  0  0  0  0  0  0
   -1.9529    3.7988    0.6829 H   0  0  0  0  0  0  0  0  0  0  0  0
   -3.0626    3.8977    2.0629 H   0  0  0  0  0  0  0  0  0  0  0  0
   -0.6635    1.3313    0.0020 N   0  0  0  0  0  0  0  0  0  0  0  0
    0.5138    0.8305   -0.6617 C   0  0  2  0  0  0  0  0  0  0  0  0
    1.7218    1.4276    0.0513 C   0  0  0  0  0  0  0  0  0  0  0  0
    1.8394    1.4373    1.2748 O   0  0  0  0  0  0  0  0  0  0  0  0
    0.5390    1.1961   -2.1502 C   0  0  0  0  0  0  0  0  0  0  0  0
   -0.5898    0.5623   -2.9261 C   0  0  0  0  0  0  0  0  0  0  0  0
   -0.5571   -0.7731   -3.2412 N   0  0  0  0  0  0  0  0  0  0  0  0
   -1.7331    1.1576   -3.4046 C   0  0  0  0  0  0  0  0  0  0  0  0
   -1.6712   -0.9877   -3.9052 C   0  0  0  0  0  0  0  0  0  0  0  0
   -2.4156    0.1523   -4.0298 N   0  0  0  0  0  0  0  0  0  0  0  0
   -1.4467    1.6280   -0.5753 H   0  0  0  0  0  0  0  0  0  0  0  0
    0.5141   -0.2566   -0.5191 H   0  0  0  0  0  0  0  0  0  0  0  0
    1.5008    0.9088   -2.5963 H   0  0  0  0  0  0  0  0  0  0  0  0
    0.4758    2.2847   -2.2789 H   0  0  0  0  0  0  0  0  0  0  0  0
   -2.1127    2.1683   -3.3613 H   0  0  0  0  0  0  0  0  0  0  0  0
   -1.9949   -1.9330   -4.3174 H   0  0  0  0  0  0  0  0  0  0  0  0
   -3.3080    0.2358   -4.4980 H   0  0  0  0  0  0  0  0  0  0  0  0
    2.6714    1.9013   -0.8434 N   0  0  0  0  0  0  0  0  0  0  0  0
    3.9227    2.4957   -0.4317 C   0  0  2  0  0  0  0  0  0  0  0  0
    3.6162    3.5611    0.6126 C   0  0  0  0  0  0  0  0  0  0  0  0
    2.5181    4.1041    0.7146 O   0  0  0  0  0  0  0  0  0  0  0  0
    4.6674    3.0933   -1.6154 C   0  0  0  0  0  0  0  0  0  0  0  0
    2.4770    1.8263   -1.8376 H   0  0  0  0  0  0  0  0  0  0  0  0
    4.5174    1.6968    0.0245 H   0  0  0  0  0  0  0  0  0  0  0  0
    4.0870    3.8956   -2.0854 H   0  0  0  0  0  0  0  0  0  0  0  0
    5.6282    3.5179   -1.3063 H   0  0  0  0  0  0  0  0  0  0  0  0
    4.8608    2.3319   -2.3787 H   0  0  0  0  0  0  0  0  0  0  0  0
    4.7255    3.8651    1.3892 N   0  0  0  0  0  0  0  0  0  0  0  0
    4.6934    4.8543    2.4411 C   0  0  0  0  0  0  0  0  0  0  0  0
    5.5904    3.3517    1.2476 H   0  0  0  0  0  0  0  0  0  0  0  0
    5.0049    5.8292    2.0380 H   0  0  0  0  0  0  0  0  0  0  0  0
    3.6712    4.9322    2.8399 H   0  0  0  0  0  0  0  0  0  0  0  0
    5.3795    4.5547    3.2470 H   0  0  0  0  0  0  0  0  0  0  0  0
 22 24  2  0  0  0  0
 24 26  1  0  0  0  0
 23 25  2  0  0  0  0
 25 26  1  0  0  0  0
 21 22  1  0  0  0  0
 22 23  1  0  0  0  0
  1  3  1  0  0  0  0
  1  7  1  0  0  0  0
  1  2  2  0  0  0  0
 35 36  1  0  0  0  0
 36 44  1  0  0  0  0
 36 37  2  0  0  0  0
  8  9  1  0  0  0  0
  9 17  1  0  0  0  0
  9 10  2  0  0  0  0
 18 19  1  0  0  0  0
 19 34  1  0  0  0  0
 19 20  2  0  0  0  0
 35 38  1  0  0  0  0
  8 11  1  0  0  0  0
 44 45  1  0  0  0  0
 18 21  1  0  0  0  0
 34 35  1  0  0  0  0
  7  8  1  0  0  0  0
 17 18  1  0  0  0  0
 24 31  1  0  0  0  0
 25 32  1  0  0  0  0
  3  4  1  0  0  0  0
  3  5  1  0  0  0  0
  3  6  1  0  0  0  0
 38 41  1  0  0  0  0
 38 42  1  0  0  0  0
 38 43  1  0  0  0  0
 11 14  1  0  0  0  0
 11 15  1  0  0  0  0
 11 16  1  0  0  0  0
 45 47  1  0  0  0  0
 45 48  1  0  0  0  0
 45 49  1  0  0  0  0
 21 29  1  0  0  0  0
 21 30  1  0  0  0  0
 35 40  1  0  0  0  0
  8 13  1  0  0  0  0
 18 28  1  0  0  0  0
 26 33  1  0  0  0  0
 44 46  1  0  0  0  0
  7 12  1  0  0  0  0
 34 39  1  0  0  0  0
 17 27  1  0  0  0  0
M  END
$$$$

  -OEChem-05262214473D

 49 49  0     1  0  0  0  0  0999 V2000
   -1.6183    0.5613    3.8201 C   0  0  0  0  0  0  0  0  0  0  0  0
   -0.6710   -0.0534    3.3444 O   0  0  0  0  0  0  0  0  0  0  0  0
   -2.0502    0.2789    5.2208 C   0  0  0  0  0  0  0  0  0  0  0  0
   -2.8099   -0.5175    5.2742 H   0  0  0  0  0  0  0  0  0  0  0  0
   -1.2190   -0.0687    5.8551 H   0  0  0  0  0  0  0  0  0  0  0  0
   -2.4882    1.1338    5.7604 H   0  0  0  0  0  0  0  0  0  0  0  0
   -2.3680    1.5337    3.1790 N   0  0  0  0  0  0  0  0  0  0  0  0
   -2.1212    1.9597    1.8266 C   0  0  2  0  0  0  0  0  0  0  0  0
   -0.7862    1.3744    1.3854 C   0  0  0  0  0  0  0  0  0  0  0  0
    0.0859    1.0216    2.1767 O   0  0  0  0  0  0  0  0  0  0  0  0
   -2.1124    3.4765    1.7171 C   0  0  0  0  0  0  0  0  0  0  0  0
   -3.1331    1.9695    3.6908 H   0  0  0  0  0  0  0  0  0  0  0  0
   -2.9253    1.5413    1.2115 H   0  0  0  0  0  0  0  0  0  0  0  0
   -1.3133    3.9138    2.3268 H   0  0  0  0  0  0  0  0  0  0  0  0
   -1.9529    3.7988    0.6829 H   0  0  0  0  0  0  0  0  0  0  0  0
   -3.0626    3.8977    2.0629 H   0  0  0  0  0  0  0  0  0  0  0  0
   -0.6635    1.3313    0.0020 N   0  0  0  0  0  0  0  0  0  0  0  0
    0.5138    0.8305   -0.6617 C   0  0  2  0  0  0  0  0  0  0  0  0
    1.7218    1.4276    0.0513 C   0  0  0  0  0  0  0  0  0  0  0  0
    1.9763    1.2092    1.2338 O   0  0  0  0  0  0  0  0  0  0  0  0
    0.5390    1.1961   -2.1502 C   0  0  0  0  0  0  0  0  0  0  0  0
   -0.5898    0.5623   -2.9261 C   0  0  0  0  0  0  0  0  0  0  0  0
   -0.5571   -0.7731   -3.2412 N   0  0  0  0  0  0  0  0  0  0  0  0
   -1.7331    1.1576   -3.4046 C   0  0  0  0  0  0  0  0  0  0  0  0
   -1.6712   -0.9877   -3.9052 C   0  0  0  0  0  0  0  0  0  0  0  0
   -2.4156    0.1523   -4.0298 N   0  0  0  0  0  0  0  0  0  0  0  0
   -1.4467    1.6280   -0.5753 H   0  0  0  0  0  0  0  0  0  0  0  0
    0.5141   -0.2566   -0.5191 H   0  0  0  0  0  0  0  0  0  0  0  0
    1.5008    0.9088   -2.5963 H   0  0  0  0  0  0  0  0  0  0  0  0
    0.4758    2.2847   -2.2789 H   0  0  0  0  0  0  0  0  0  0  0  0
   -2.1127    2.1683   -3.3613 H   0  0  0  0  0  0  0  0  0  0  0  0
   -1.9949   -1.9330   -4.3174 H   0  0  0  0  0  0  0  0  0  0  0  0
   -3.3080    0.2358   -4.4980 H   0  0  0  0  0  0  0  0  0  0  0  0
    2.5050    2.1905   -0.8038 N   0  0  0  0  0  0  0  0  0  0  0  0
    3.7218    2.8506   -0.3884 C   0  0  2  0  0  0  0  0  0  0  0  0
    3.4205    3.6373    0.8804 C   0  0  0  0  0  0  0  0  0  0  0  0
    2.2880    3.9998    1.1919 O   0  0  0  0  0  0  0  0  0  0  0  0
    4.2561    3.7643   -1.4805 C   0  0  0  0  0  0  0  0  0  0  0  0
    2.2081    2.2898   -1.7701 H   0  0  0  0  0  0  0  0  0  0  0  0
    4.4492    2.0623   -0.1661 H   0  0  0  0  0  0  0  0  0  0  0  0
    3.5408    4.5605   -1.7169 H   0  0  0  0  0  0  0  0  0  0  0  0
    5.1930    4.2417   -1.1752 H   0  0  0  0  0  0  0  0  0  0  0  0
    4.4440    3.2021   -2.4016 H   0  0  0  0  0  0  0  0  0  0  0  0
    4.5707    3.9241    1.6021 N   0  0  0  0  0  0  0  0  0  0  0  0
    4.5497    4.6713    2.8379 C   0  0  0  0  0  0  0  0  0  0  0  0
    5.4653    3.5675    1.2790 H   0  0  0  0  0  0  0  0  0  0  0  0
    4.7036    5.7393    2.6239 H   0  0  0  0  0  0  0  0  0  0  0  0
    3.5773    4.5332    3.3332 H   0  0  0  0  0  0  0  0  0  0  0  0
    5.3521    4.3104    3.4981 H   0  0  0  0  0  0  0  0  0  0  0  0
 22 24  2  0  0  0  0
 24 26  1  0  0  0  0
 23 25  2  0  0  0  0
 25 26  1  0  0  0  0
 21 22  1  0  0  0  0
 22 23  1  0  0  0  0
  1  3  1  0  0  0  0
  1  7  1  0  0  0  0
  1  2  2  0  0  0  0
 35 36  1  0  0  0  0
 36 44  1  0  0  0  0
 36 37  2  0  0  0  0
  8  9  1  0  0  0  0
  9 17  1  0  0  0  0
  9 10  2  0  0  0  0
 18 19  1  0  0  0  0
 19 34  1  0  0  0  0
 19 20  2  0  0  0  0
 35 38  1  0  0  0  0
  8 11  1  0  0  0  0
 44 45  1  0  0  0  0
 18 21  1  0  0  0  0
 34 35  1  0  0  0  0
  7  8  1  0  0  0  0
 17 18  1  0  0  0  0
 24 31  1  0  0  0  0
 25 32  1  0  0  0  0
  3  4  1  0  0  0  0
  3  5  1  0  0  0  0
  3  6  1  0  0  0  0
 38 41  1  0  0  0  0
 38 42  1  0  0  0  0
 38 43  1  0  0  0  0
 11 14  1  0  0  0  0
 11 15  1  0  0  0  0
 11 16  1  0  0  0  0
 45 47  1  0  0  0  0
 45 48  1  0  0  0  0
 45 49  1  0  0  0  0
 21 29  1  0  0  0  0
 21 30  1  0  0  0  0
 35 40  1  0  0  0  0
  8 13  1  0  0  0  0
 18 28  1  0  0  0  0
 26 33  1  0  0  0  0
 44 46  1  0  0  0  0
  7 12  1  0  0  0  0
 34 39  1  0  0  0  0
 17 27  1  0  0  0  0
M  END
$$$$

  -OEChem-05262214473D

 49 49  0     1  0  0  0  0  0999 V2000
   -1.6183    0.5613    3.8201 C   0  0  0  0  0  0  0  0  0  0  0  0
   -0.6710   -0.0534    3.3444 O   0  0  0  0  0  0  0  0  0  0  0  0
   -2.0502    0.2789    5.2208 C   0  0  0  0  0  0  0  0  0  0  0  0
   -2.8099   -0.5175    5.2742 H   0  0  0  0  0  0  0  0  0  0  0  0
   -1.2190   -0.0687    5.8551 H   0  0  0  0  0  0  0  0  0  0  0  0
   -2.4882    1.1338    5.7604 H   0  0  0  0  0  0  0  0  0  0  0  0
   -2.3680    1.5337    3.1790 N   0  0  0  0  0  0  0  0  0  0  0  0
   -2.1212    1.9597    1.8266 C   0  0  2  0  0  0  0  0  0  0  0  0
   -0.7862    1.3744    1.3854 C   0  0  0  0  0  0  0  0  0  0  0  0
    0.0859    1.0216    2.1767 O   0  0  0  0  0  0  0  0  0  0  0  0
   -2.1124    3.4765    1.7171 C   0  0  0  0  0  0  0  0  0  0  0  0
   -3.1331    1.9695    3.6908 H   0  0  0  0  0  0  0  0  0  0  0  0
   -2.9253    1.5413    1.2115 H   0  0  0  0  0  0  0  0  0  0  0  0
   -1.3133    3.9138    2.3268 H   0  0  0  0  0  0  0  0  0  0  0  0
   -1.9529    3.7988    0.6829 H   0  0  0  0  0  0  0  0  0  0  0  0
   -3.0626    3.8977    2.0629 H   0  0  0  0  0  0  0  0  0  0  0  0
   -0.6635    1.3313    0.0020 N   0  0  0  0  0  0  0  0  0  0  0  0
    0.5138    0.8305   -0.6617 C   0  0  2  0  0  0  0  0  0  0  0  0
    1.7218    1.4276    0.0513 C   0  0  0  0  0  0  0  0  0  0  0  0
    2.1320    1.0139    1.1336 O   0  0  0  0  0  0  0  0  0  0  0  0
    0.5390    1.1961   -2.1502 C   0  0  0  0  0  0  0  0  0  0  0  0
   -0.5898    0.5623   -2.9261 C   0  0  0  0  0  0  0  0  0  0  0  0
   -0.5571   -0.7731   -3.2412 N   0  0  0  0  0  0  0  0  0  0  0  0
   -1.7331    1.1576   -3.4046 C   0  0  0  0  0  0  0  0  0  0  0  0
   -1.6712   -0.9877   -3.9052 C   0  0  0  0  0  0  0  0  0  0  0  0
   -2.4156    0.1523   -4.0298 N   0  0  0  0  0  0  0  0  0  0  0  0
   -1.4467    1.6280   -0.5753 H   0  0  0  0  0  0  0  0  0  0  0  0
    0.5141   -0.2566   -0.5191 H   0  0  0  0  0  0  0  0  0  0  0  0
    1.5008    0.9088   -2.5963 H   0  0  0  0  0  0  0  0  0  0  0  0
    0.4758    2.2847   -2.2789 H   0  0  0  0  0  0  0  0  0  0  0  0
   -2.1127    2.1683   -3.3613 H   0  0  0  0  0  0  0  0  0  0  0  0
   -1.9949   -1.9330   -4.3174 H   0  0  0  0  0  0  0  0  0  0  0  0
   -3.3080    0.2358   -4.4980 H   0  0  0  0  0  0  0  0  0  0  0  0
    2.3133    2.4416   -0.6893 N   0  0  0  0  0  0  0  0  0  0  0  0
    3.4891    3.1602   -0.2535 C   0  0  2  0  0  0  0  0  0  0  0  0
    3.2494    3.6322    1.1745 C   0  0  0  0  0  0  0  0  0  0  0  0
    2.1267    3.7733    1.6548 O   0  0  0  0  0  0  0  0  0  0  0  0
    3.7912    4.3350   -1.1708 C   0  0  0  0  0  0  0  0  0  0  0  0
    1.8990    2.6911   -1.5825 H   0  0  0  0  0  0  0  0  0  0  0  0
    4.3197    2.4462   -0.2682 H   0  0  0  0  0  0  0  0  0  0  0  0
    2.9701    5.0611   -1.1692 H   0  0  0  0  0  0  0  0  0  0  0  0
    4.6984    4.8612   -0.8559 H   0  0  0  0  0  0  0  0  0  0  0  0
    3.9339    3.9969   -2.2029 H   0  0  0  0  0  0  0  0  0  0  0  0
    4.4357    3.9187    1.8355 N   0  0  0  0  0  0  0  0  0  0  0  0
    4.4733    4.3958    3.1982 C   0  0  0  0  0  0  0  0  0  0  0  0
    5.3214    3.7543    1.3663 H   0  0  0  0  0  0  0  0  0  0  0  0
    4.4829    5.4958    3.2019 H   0  0  0  0  0  0  0  0  0  0  0  0
    3.5849    4.0352    3.7375 H   0  0  0  0  0  0  0  0  0  0  0  0
    5.3806    4.0197    3.6934 H   0  0  0  0  0  0  0  0  0  0  0  0
 22 24  2  0  0  0  0
 24 26  1  0  0  0  0
 23 25  2  0  0  0  0
 25 26  1  0  0  0  0
 21 22  1  0  0  0  0
 22 23  1  0  0  0  0
  1  3  1  0  0  0  0
  1  7  1  0  0  0  0
  1  2  2  0  0  0  0
 35 36  1  0  0  0  0
 36 44  1  0  0  0  0
 36 37  2  0  0  0  0
  8  9  1  0  0  0  0
  9 17  1  0  0  0  0
  9 10  2  0  0  0  0
 18 19  1  0  0  0  0
 19 34  1  0  0  0  0
 19 20  2  0  0  0  0
 35 38  1  0  0  0  0
  8 11  1  0  0  0  0
 44 45  1  0  0  0  0
 18 21  1  0  0  0  0
 34 35  1  0  0  0  0
  7  8  1  0  0  0  0
 17 18  1  0  0  0  0
 24 31  1  0  0  0  0
 25 32  1  0  0  0  0
  3  4  1  0  0  0  0
  3  5  1  0  0  0  0
  3  6  1  0  0  0  0
 38 41  1  0  0  0  0
 38 42  1  0  0  0  0
 38 43  1  0  0  0  0
 11 14  1  0  0  0  0
 11 15  1  0  0  0  0
 11 16  1  0  0  0  0
 45 47  1  0  0  0  0
 45 48  1  0  0  0  0
 45 49  1  0  0  0  0
 21 29  1  0  0  0  0
 21 30  1  0  0  0  0
 35 40  1  0  0  0  0
  8 13  1  0  0  0  0
 18 28  1  0  0  0  0
 26 33  1  0  0  0  0
 44 46  1  0  0  0  0
  7 12  1  0  0  0  0
 34 39  1  0  0  0  0
 17 27  1  0  0  0  0
M  END
$$$$

  -OEChem-05262214473D

 49 49  0     1  0  0  0  0  0999 V2000
   -1.6183    0.5613    3.8201 C   0  0  0  0  0  0  0  0  0  0  0  0
   -0.6710   -0.0534    3.3444 O   0  0  0  0  0  0  0  0  0  0  0  0
   -2.0502    0.2789    5.2208 C   0  0  0  0  0  0  0  0  0  0  0  0
   -2.8099   -0.5175    5.2742 H   0  0  0  0  0  0  0  0  0  0  0  0
   -1.2190   -0.0687    5.8551 H   0  0  0  0  0  0  0  0  0  0  0  0
   -2.4882    1.1338    5.7604 H   0  0  0  0  0  0  0  0  0  0  0  0
   -2.3680    1.5337    3.1790 N   0  0  0  0  0  0  0  0  0  0  0  0
   -2.1212    1.9597    1.8266 C   0  0  2  0  0  0  0  0  0  0  0  0
   -0.7862    1.3744    1.3854 C   0  0  0  0  0  0  0  0  0  0  0  0
    0.0859    1.0216    2.1767 O   0  0  0  0  0  0  0  0  0  0  0  0
   -2.1124    3.4765    1.7171 C   0  0  0  0  0  0  0  0  0  0  0  0
   -3.1331    1.9695    3.6908 H   0  0  0  0  0  0  0  0  0  0  0  0
   -2.9253    1.5413    1.2115 H   0  0  0  0  0  0  0  0  0  0  0  0
   -1.3133    3.9138    2.3268 H   0  0  0  0  0  0  0  0  0  0  0  0
   -1.9529    3.7988    0.6829 H   0  0  0  0  0  0  0  0  0  0  0  0
   -3.0626    3.8977    2.0629 H   0  0  0  0  0  0  0  0  0  0  0  0
   -0.6635    1.3313    0.0020 N   0  0  0  0  0  0  0  0  0  0  0  0
    0.5138    0.8305   -0.6617 C   0  0  2  0  0  0  0  0  0  0  0  0
    1.7218    1.4276    0.0513 C   0  0  0  0  0  0  0  0  0  0  0  0
    2.2959    0.8646    0.9809 O   0  0  0  0  0  0  0  0  0  0  0  0
    0.5390    1.1961   -2.1502 C   0  0  0  0  0  0  0  0  0  0  0  0
   -0.5898    0.5623   -2.9261 C   0  0  0  0  0  0  0  0  0  0  0  0
   -0.5571   -0.7731   -3.2412 N   0  0  0  0  0  0  0  0  0  0  0  0
   -1.7331    1.1576   -3.4046 C   0  0  0  0  0  0  0  0  0  0  0  0
   -1.6712   -0.9877   -3.9052 C   0  0  0  0  0  0  0  0  0  0  0  0
   -2.4156    0.1523   -4.0298 N   0  0  0  0  0  0  0  0  0  0  0  0
   -1.4467    1.6280   -0.5753 H   0  0  0  0  0  0  0  0  0  0  0  0
    0.5141   -0.2566   -0.5191 H   0  0  0  0  0  0  0  0  0  0  0  0
    1.5008    0.9088   -2.5963 H   0  0  0  0  0  0  0  0  0  0  0  0
    0.4758    2.2847   -2.2789 H   0  0  0  0  0  0  0  0  0  0  0  0
   -2.1127    2.1683   -3.3613 H   0  0  0  0  0  0  0  0  0  0  0  0
   -1.9949   -1.9330   -4.3174 H   0  0  0  0  0  0  0  0  0  0  0  0
   -3.3080    0.2358   -4.4980 H   0  0  0  0  0  0  0  0  0  0  0  0
    2.1094    2.6375   -0.5078 N   0  0  0  0  0  0  0  0  0  0  0  0
    3.2406    3.4035   -0.0361 C   0  0  2  0  0  0  0  0  0  0  0  0
    3.1146    3.5463    1.4749 C   0  0  0  0  0  0  0  0  0  0  0  0
    2.0453    3.4401    2.0719 O   0  0  0  0  0  0  0  0  0  0  0  0
    3.3045    4.7665   -0.7076 C   0  0  0  0  0  0  0  0  0  0  0  0
    1.5709    3.0029   -1.2878 H   0  0  0  0  0  0  0  0  0  0  0  0
    4.1378    2.8222   -0.2751 H   0  0  0  0  0  0  0  0  0  0  0  0
    2.4138    5.3633   -0.4797 H   0  0  0  0  0  0  0  0  0  0  0  0
    4.1779    5.3343   -0.3704 H   0  0  0  0  0  0  0  0  0  0  0  0
    3.3650    4.6622   -1.7963 H   0  0  0  0  0  0  0  0  0  0  0  0
    4.3295    3.8492    2.0735 N   0  0  0  0  0  0  0  0  0  0  0  0
    4.4693    4.0466    3.4974 C   0  0  0  0  0  0  0  0  0  0  0  0
    5.1687    3.8994    1.5035 H   0  0  0  0  0  0  0  0  0  0  0  0
    4.3577    5.1153    3.7327 H   0  0  0  0  0  0  0  0  0  0  0  0
    3.6935    3.4722    4.0250 H   0  0  0  0  0  0  0  0  0  0  0  0
    5.4631    3.7022    3.8194 H   0  0  0  0  0  0  0  0  0  0  0  0
 22 24  2  0  0  0  0
 24 26  1  0  0  0  0
 23 25  2  0  0  0  0
 25 26  1  0  0  0  0
 21 22  1  0  0  0  0
 22 23  1  0  0  0  0
  1  3  1  0  0  0  0
  1  7  1  0  0  0  0
  1  2  2  0  0  0  0
 35 36  1  0  0  0  0
 36 44  1  0  0  0  0
 36 37  2  0  0  0  0
  8  9  1  0  0  0  0
  9 17  1  0  0  0  0
  9 10  2  0  0  0  0
 18 19  1  0  0  0  0
 19 34  1  0  0  0  0
 19 20  2  0  0  0  0
 35 38  1  0  0  0  0
  8 11  1  0  0  0  0
 44 45  1  0  0  0  0
 18 21  1  0  0  0  0
 34 35  1  0  0  0  0
  7  8  1  0  0  0  0
 17 18  1  0  0  0  0
 24 31  1  0  0  0  0
 25 32  1  0  0  0  0
  3  4  1  0  0  0  0
  3  5  1  0  0  0  0
  3  6  1  0  0  0  0
 38 41  1  0  0  0  0
 38 42  1  0  0  0  0
 38 43  1  0  0  0  0
 11 14  1  0  0  0  0
 11 15  1  0  0  0  0
 11 16  1  0  0  0  0
 45 47  1  0  0  0  0
 45 48  1  0  0  0  0
 45 49  1  0  0  0  0
 21 29  1  0  0  0  0
 21 30  1  0  0  0  0
 35 40  1  0  0  0  0
  8 13  1  0  0  0  0
 18 28  1  0  0  0  0
 26 33  1  0  0  0  0
 44 46  1  0  0  0  0
  7 12  1  0  0  0  0
 34 39  1  0  0  0  0
 17 27  1  0  0  0  0
M  END
$$$$

  -OEChem-05262214473D

 49 49  0     1  0  0  0  0  0999 V2000
   -1.6183    0.5613    3.8201 C   0  0  0  0  0  0  0  0  0  0  0  0
   -0.6710   -0.0534    3.3444 O   0  0  0  0  0  0  0  0  0  0  0  0
   -2.0502    0.2789    5.2208 C   0  0  0  0  0  0  0  0  0  0  0  0
   -2.8099   -0.5175    5.2742 H   0  0  0  0  0  0  0  0  0  0  0  0
   -1.2190   -0.0687    5.8551 H   0  0  0  0  0  0  0  0  0  0  0  0
   -2.4882    1.1338    5.7604 H   0  0  0  0  0  0  0  0  0  0  0  0
   -2.3680    1.5337    3.1790 N   0  0  0  0  0  0  0  0  0  0  0  0
   -2.1212    1.9597    1.8266 C   0  0  2  0  0  0  0  0  0  0  0  0
   -0.7862    1.3744    1.3854 C   0  0  0  0  0  0  0  0  0  0  0  0
    0.0859    1.0216    2.1767 O   0  0  0  0  0  0  0  0  0  0  0  0
   -2.1124    3.4765    1.7171 C   0  0  0  0  0  0  0  0  0  0  0  0
   -3.1331    1.9695    3.6908 H   0  0  0  0  0  0  0  0  0  0  0  0
   -2.9253    1.5413    1.2115 H   0  0  0  0  0  0  0  0  0  0  0  0
   -1.3133    3.9138    2.3268 H   0  0  0  0  0  0  0  0  0  0  0  0
   -1.9529    3.7988    0.6829 H   0  0  0  0  0  0  0  0  0  0  0  0
   -3.0626    3.8977    2.0629 H   0  0  0  0  0  0  0  0  0  0  0  0
   -0.6635    1.3313    0.0020 N   0  0  0  0  0  0  0  0  0  0  0  0
    0.5138    0.8305   -0.6617 C   0  0  2  0  0  0  0  0  0  0  0  0
    1.7218    1.4276    0.0513 C   0  0  0  0  0  0  0  0  0  0  0  0
    2.4568    0.7715    0.7862 O   0  0  0  0  0  0  0  0  0  0  0  0
    0.5390    1.1961   -2.1502 C   0  0  0  0  0  0  0  0  0  0  0  0
   -0.5898    0.5623   -2.9261 C   0  0  0  0  0  0  0  0  0  0  0  0
   -0.5571   -0.7731   -3.2412 N   0  0  0  0  0  0  0  0  0  0  0  0
   -1.7331    1.1576   -3.4046 C   0  0  0  0  0  0  0  0  0  0  0  0
   -1.6712   -0.9877   -3.9052 C   0  0  0  0  0  0  0  0  0  0  0  0
   -2.4156    0.1523   -4.0298 N   0  0  0  0  0  0  0  0  0  0  0  0
   -1.4467    1.6280   -0.5753 H   0  0  0  0  0  0  0  0  0  0  0  0
    0.5141   -0.2566   -0.5191 H   0  0  0  0  0  0  0  0  0  0  0  0
    1.5008    0.9088   -2.5963 H   0  0  0  0  0  0  0  0  0  0  0  0
    0.4758    2.2847   -2.2789 H   0  0  0  0  0  0  0  0  0  0  0  0
   -2.1127    2.1683   -3.3613 H   0  0  0  0  0  0  0  0  0  0  0  0
   -1.9949   -1.9330   -4.3174 H   0  0  0  0  0  0  0  0  0  0  0  0
   -3.3080    0.2358   -4.4980 H   0  0  0  0  0  0  0  0  0  0  0  0
    1.9071    2.7647   -0.2717 N   0  0  0  0  0  0  0  0  0  0  0  0
    2.9931    3.5637    0.2489 C   0  0  2  0  0  0  0  0  0  0  0  0
    3.0252    3.3855    1.7611 C   0  0  0  0  0  0  0  0  0  0  0  0
    2.0493    3.0228    2.4147 O   0  0  0  0  0  0  0  0  0  0  0  0
    2.8291    5.0293   -0.1222 C   0  0  0  0  0  0  0  0  0  0  0  0
    1.2462    3.2038   -0.9059 H   0  0  0  0  0  0  0  0  0  0  0  0
    3.9160    3.1649   -0.1861 H   0  0  0  0  0  0  0  0  0  0  0  0
    1.9098    5.4464    0.3048 H   0  0  0  0  0  0  0  0  0  0  0  0
    3.6672    5.6287    0.2484 H   0  0  0  0  0  0  0  0  0  0  0  0
    2.7763    5.1525   -1.2094 H   0  0  0  0  0  0  0  0  0  0  0  0
    4.2595    3.7204    2.3000 N   0  0  0  0  0  0  0  0  0  0  0  0
    4.5381    3.6474    3.7153 C   0  0  0  0  0  0  0  0  0  0  0  0
    5.0175    3.9930    1.6812 H   0  0  0  0  0  0  0  0  0  0  0  0
    4.3367    4.6238    4.1800 H   0  0  0  0  0  0  0  0  0  0  0  0
    3.8957    2.8826    4.1763 H   0  0  0  0  0  0  0  0  0  0  0  0
    5.5941    3.3798    3.8677 H   0  0  0  0  0  0  0  0  0  0  0  0
 22 24  2  0  0  0  0
 24 26  1  0  0  0  0
 23 25  2  0  0  0  0
 25 26  1  0  0  0  0
 21 22  1  0  0  0  0
 22 23  1  0  0  0  0
  1  3  1  0  0  0  0
  1  7  1  0  0  0  0
  1  2  2  0  0  0  0
 35 36  1  0  0  0  0
 36 44  1  0  0  0  0
 36 37  2  0  0  0  0
  8  9  1  0  0  0  0
  9 17  1  0  0  0  0
  9 10  2  0  0  0  0
 18 19  1  0  0  0  0
 19 34  1  0  0  0  0
 19 20  2  0  0  0  0
 35 38  1  0  0  0  0
  8 11  1  0  0  0  0
 44 45  1  0  0  0  0
 18 21  1  0  0  0  0
 34 35  1  0  0  0  0
  7  8  1  0  0  0  0
 17 18  1  0  0  0  0
 24 31  1  0  0  0  0
 25 32  1  0  0  0  0
  3  4  1  0  0  0  0
  3  5  1  0  0  0  0
  3  6  1  0  0  0  0
 38 41  1  0  0  0  0
 38 42  1  0  0  0  0
 38 43  1  0  0  0  0
 11 14  1  0  0  0  0
 11 15  1  0  0  0  0
 11 16  1  0  0  0  0
 45 47  1  0  0  0  0
 45 48  1  0  0  0  0
 45 49  1  0  0  0  0
 21 29  1  0  0  0  0
 21 30  1  0  0  0  0
 35 40  1  0  0  0  0
  8 13  1  0  0  0  0
 18 28  1  0  0  0  0
 26 33  1  0  0  0  0
 44 46  1  0  0  0  0
  7 12  1  0  0  0  0
 34 39  1  0  0  0  0
 17 27  1  0  0  0  0
M  END
$$$$

  -OEChem-05262214473D

 49 49  0     1  0  0  0  0  0999 V2000
   -1.6183    0.5613    3.8201 C   0  0  0  0  0  0  0  0  0  0  0  0
   -0.6710   -0.0534    3.3444 O   0  0  0  0  0  0  0  0  0  0  0  0
   -2.0502    0.2789    5.2208 C   0  0  0  0  0  0  0  0  0  0  0  0
   -2.8099   -0.5175    5.2742 H   0  0  0  0  0  0  0  0  0  0  0  0
   -1.2190   -0.0687    5.8551 H   0  0  0  0  0  0  0  0  0  0  0  0
   -2.4882    1.1338    5.7604 H   0  0  0  0  0  0  0  0  0  0  0  0
   -2.3680    1.5337    3.1790 N   0  0  0  0  0  0  0  0  0  0  0  0
   -2.1212    1.9597    1.8266 C   0  0  2  0  0  0  0  0  0  0  0  0
   -0.7862    1.3744    1.3854 C   0  0  0  0  0  0  0  0  0  0  0  0
    0.0859    1.0216    2.1767 O   0  0  0  0  0  0  0  0  0  0  0  0
   -2.1124    3.4765    1.7171 C   0  0  0  0  0  0  0  0  0  0  0  0
   -3.1331    1.9695    3.6908 H   0  0  0  0  0  0  0  0  0  0  0  0
   -2.9253    1.5413    1.2115 H   0  0  0  0  0  0  0  0  0  0  0  0
   -1.3133    3.9138    2.3268 H   0  0  0  0  0  0  0  0  0  0  0  0
   -1.9529    3.7988    0.6829 H   0  0  0  0  0  0  0  0  0  0  0  0
   -3.0626    3.8977    2.0629 H   0  0  0  0  0  0  0  0  0  0  0  0
   -0.6635    1.3313    0.0020 N   0  0  0  0  0  0  0  0  0  0  0  0
    0.5138    0.8305   -0.6617 C   0  0  2  0  0  0  0  0  0  0  0  0
    1.7218    1.4276    0.0513 C   0  0  0  0  0  0  0  0  0  0  0  0
    2.6038    0.7411    0.5627 O   0  0  0  0  0  0  0  0  0  0  0  0
    0.5390    1.1961   -2.1502 C   0  0  0  0  0  0  0  0  0  0  0  0
   -0.5898    0.5623   -2.9261 C   0  0  0  0  0  0  0  0  0  0  0  0
   -0.5571   -0.7731   -3.2412 N   0  0  0  0  0  0  0  0  0  0  0  0
   -1.7331    1.1576   -3.4046 C   0  0  0  0  0  0  0  0  0  0  0  0
   -1.6712   -0.9877   -3.9052 C   0  0  0  0  0  0  0  0  0  0  0  0
   -2.4156    0.1523   -4.0298 N   0  0  0  0  0  0  0  0  0  0  0  0
   -1.4467    1.6280   -0.5753 H   0  0  0  0  0  0  0  0  0  0  0  0
    0.5141   -0.2566   -0.5191 H   0  0  0  0  0  0  0  0  0  0  0  0
    1.5008    0.9088   -2.5963 H   0  0  0  0  0  0  0  0  0  0  0  0
    0.4758    2.2847   -2.2789 H   0  0  0  0  0  0  0  0  0  0  0  0
   -2.1127    2.1683   -3.3613 H   0  0  0  0  0  0  0  0  0  0  0  0
   -1.9949   -1.9330   -4.3174 H   0  0  0  0  0  0  0  0  0  0  0  0
   -3.3080    0.2358   -4.4980 H   0  0  0  0  0  0  0  0  0  0  0  0
    1.7202    2.8148    0.0030 N   0  0  0  0  0  0  0  0  0  0  0  0
    2.7636    3.6301    0.5822 C   0  0  2  0  0  0  0  0  0  0  0  0
    2.9874    3.1605    2.0136 C   0  0  0  0  0  0  0  0  0  0  0  0
    2.1384    2.5500    2.6598 O   0  0  0  0  0  0  0  0  0  0  0  0
    2.3975    5.1057    0.5452 C   0  0  0  0  0  0  0  0  0  0  0  0
    0.9469    3.2803   -0.4628 H   0  0  0  0  0  0  0  0  0  0  0  0
    3.6692    3.4507   -0.0074 H   0  0  0  0  0  0  0  0  0  0  0  0
    1.4924    5.3048    1.1306 H   0  0  0  0  0  0  0  0  0  0  0  0
    3.2010    5.7243    0.9583 H   0  0  0  0  0  0  0  0  0  0  0  0
    2.2078    5.4345   -0.4822 H   0  0  0  0  0  0  0  0  0  0  0  0
    4.2305    3.5411    2.4994 N   0  0  0  0  0  0  0  0  0  0  0  0
    4.6749    3.2254    3.8369 C   0  0  0  0  0  0  0  0  0  0  0  0
    4.8782    4.0287    1.8874 H   0  0  0  0  0  0  0  0  0  0  0  0
    4.4212    4.0548    4.5135 H   0  0  0  0  0  0  0  0  0  0  0  0
    4.1778    2.3065    4.1810 H   0  0  0  0  0  0  0  0  0  0  0  0
    5.7645    3.0742    3.8349 H   0  0  0  0  0  0  0  0  0  0  0  0
 22 24  2  0  0  0  0
 24 26  1  0  0  0  0
 23 25  2  0  0  0  0
 25 26  1  0  0  0  0
 21 22  1  0  0  0  0
 22 23  1  0  0  0  0
  1  3  1  0  0  0  0
  1  7  1  0  0  0  0
  1  2  2  0  0  0  0
 35 36  1  0  0  0  0
 36 44  1  0  0  0  0
 36 37  2  0  0  0  0
  8  9  1  0  0  0  0
  9 17  1  0  0  0  0
  9 10  2  0  0  0  0
 18 19  1  0  0  0  0
 19 34  1  0  0  0  0
 19 20  2  0  0  0  0
 35 38  1  0  0  0  0
  8 11  1  0  0  0  0
 44 45  1  0  0  0  0
 18 21  1  0  0  0  0
 34 35  1  0  0  0  0
  7  8  1  0  0  0  0
 17 18  1  0  0  0  0
 24 31  1  0  0  0  0
 25 32  1  0  0  0  0
  3  4  1  0  0  0  0
  3  5  1  0  0  0  0
  3  6  1  0  0  0  0
 38 41  1  0  0  0  0
 38 42  1  0  0  0  0
 38 43  1  0  0  0  0
 11 14  1  0  0  0  0
 11 15  1  0  0  0  0
 11 16  1  0  0  0  0
 45 47  1  0  0  0  0
 45 48  1  0  0  0  0
 45 49  1  0  0  0  0
 21 29  1  0  0  0  0
 21 30  1  0  0  0  0
 35 40  1  0  0  0  0
  8 13  1  0  0  0  0
 18 28  1  0  0  0  0
 26 33  1  0  0  0  0
 44 46  1  0  0  0  0
  7 12  1  0  0  0  0
 34 39  1  0  0  0  0
 17 27  1  0  0  0  0
M  END
$$$$

  -OEChem-05262214473D

 49 49  0     1  0  0  0  0  0999 V2000
   -1.6183    0.5613    3.8201 C   0  0  0  0  0  0  0  0  0  0  0  0
   -0.6710   -0.0534    3.3444 O   0  0  0  0  0  0  0  0  0  0  0  0
   -2.0502    0.2789    5.2208 C   0  0  0  0  0  0  0  0  0  0  0  0
   -2.8099   -0.5175    5.2742 H   0  0  0  0  0  0  0  0  0  0  0  0
   -1.2190   -0.0687    5.8551 H   0  0  0  0  0  0  0  0  0  0  0  0
   -2.4882    1.1338    5.7604 H   0  0  0  0  0  0  0  0  0  0  0  0
   -2.3680    1.5337    3.1790 N   0  0  0  0  0  0  0  0  0  0  0  0
   -2.1212    1.9597    1.8266 C   0  0  2  0  0  0  0  0  0  0  0  0
   -0.7862    1.3744    1.3854 C   0  0  0  0  0  0  0  0  0  0  0  0
    0.0859    1.0216    2.1767 O   0  0  0  0  0  0  0  0  0  0  0  0
   -2.1124    3.4765    1.7171 C   0  0  0  0  0  0  0  0  0  0  0  0
   -3.1331    1.9695    3.6908 H   0  0  0  0  0  0  0  0  0  0  0  0
   -2.9253    1.5413    1.2115 H   0  0  0  0  0  0  0  0  0  0  0  0
   -1.3133    3.9138    2.3268 H   0  0  0  0  0  0  0  0  0  0  0  0
   -1.9529    3.7988    0.6829 H   0  0  0  0  0  0  0  0  0  0  0  0
   -3.0626    3.8977    2.0629 H   0  0  0  0  0  0  0  0  0  0  0  0
   -0.6635    1.3313    0.0020 N   0  0  0  0  0  0  0  0  0  0  0  0
    0.5138    0.8305   -0.6617 C   0  0  2  0  0  0  0  0  0  0  0  0
    1.7218    1.4276    0.0513 C   0  0  0  0  0  0  0  0  0  0  0  0
    2.7267    0.7752    0.3258 O   0  0  0  0  0  0  0  0  0  0  0  0
    0.5390    1.1961   -2.1502 C   0  0  0  0  0  0  0  0  0  0  0  0
   -0.5898    0.5623   -2.9261 C   0  0  0  0  0  0  0  0  0  0  0  0
   -0.5571   -0.7731   -3.2412 N   0  0  0  0  0  0  0  0  0  0  0  0
   -1.7331    1.1576   -3.4046 C   0  0  0  0  0  0  0  0  0  0  0  0
   -1.6712   -0.9877   -3.9052 C   0  0  0  0  0  0  0  0  0  0  0  0
   -2.4156    0.1523   -4.0298 N   0  0  0  0  0  0  0  0  0  0  0  0
   -1.4467    1.6280   -0.5753 H   0  0  0  0  0  0  0  0  0  0  0  0
    0.5141   -0.2566   -0.5191 H   0  0  0  0  0  0  0  0  0  0  0  0
    1.5008    0.9088   -2.5963 H   0  0  0  0  0  0  0  0  0  0  0  0
    0.4758    2.2847   -2.2789 H   0  0  0  0  0  0  0  0  0  0  0  0
   -2.1127    2.1683   -3.3613 H   0  0  0  0  0  0  0  0  0  0  0  0
   -1.9949   -1.9330   -4.3174 H   0  0  0  0  0  0  0  0  0  0  0  0
   -3.3080    0.2358   -4.4980 H   0  0  0  0  0  0  0  0  0  0  0  0
    1.5615    2.7842    0.2976 N   0  0  0  0  0  0  0  0  0  0  0  0
    2.5676    3.5981    0.9411 C   0  0  2  0  0  0  0  0  0  0  0  0
    3.0036    2.8869    2.2153 C   0  0  0  0  0  0  0  0  0  0  0  0
    2.3065    2.0537    2.7905 O   0  0  0  0  0  0  0  0  0  0  0  0
    2.0389    4.9903    1.2494 C   0  0  0  0  0  0  0  0  0  0  0  0
    0.6935    3.2271    0.0112 H   0  0  0  0  0  0  0  0  0  0  0  0
    3.4144    3.6603    0.2488 H   0  0  0  0  0  0  0  0  0  0  0  0
    1.1901    4.9482    1.9416 H   0  0  0  0  0  0  0  0  0  0  0  0
    2.8111    5.6147    1.7109 H   0  0  0  0  0  0  0  0  0  0  0  0
    1.6982    5.4890    0.3356 H   0  0  0  0  0  0  0  0  0  0  0  0
    4.2443    3.3235    2.6582 N   0  0  0  0  0  0  0  0  0  0  0  0
    4.8705    2.8095    3.8539 C   0  0  0  0  0  0  0  0  0  0  0  0
    4.7602    4.0039    2.1081 H   0  0  0  0  0  0  0  0  0  0  0  0
    4.6055    3.4470    4.7103 H   0  0  0  0  0  0  0  0  0  0  0  0
    4.5204    1.7832    4.0388 H   0  0  0  0  0  0  0  0  0  0  0  0
    5.9627    2.8064    3.7234 H   0  0  0  0  0  0  0  0  0  0  0  0
 22 24  2  0  0  0  0
 24 26  1  0  0  0  0
 23 25  2  0  0  0  0
 25 26  1  0  0  0  0
 21 22  1  0  0  0  0
 22 23  1  0  0  0  0
  1  3  1  0  0  0  0
  1  7  1  0  0  0  0
  1  2  2  0  0  0  0
 35 36  1  0  0  0  0
 36 44  1  0  0  0  0
 36 37  2  0  0  0  0
  8  9  1  0  0  0  0
  9 17  1  0  0  0  0
  9 10  2  0  0  0  0
 18 19  1  0  0  0  0
 19 34  1  0  0  0  0
 19 20  2  0  0  0  0
 35 38  1  0  0  0  0
  8 11  1  0  0  0  0
 44 45  1  0  0  0  0
 18 21  1  0  0  0  0
 34 35  1  0  0  0  0
  7  8  1  0  0  0  0
 17 18  1  0  0  0  0
 24 31  1  0  0  0  0
 25 32  1  0  0  0  0
  3  4  1  0  0  0  0
  3  5  1  0  0  0  0
  3  6  1  0  0  0  0
 38 41  1  0  0  0  0
 38 42  1  0  0  0  0
 38 43  1  0  0  0  0
 11 14  1  0  0  0  0
 11 15  1  0  0  0  0
 11 16  1  0  0  0  0
 45 47  1  0  0  0  0
 45 48  1  0  0  0  0
 45 49  1  0  0  0  0
 21 29  1  0  0  0  0
 21 30  1  0  0  0  0
 35 40  1  0  0  0  0
  8 13  1  0  0  0  0
 18 28  1  0  0  0  0
 26 33  1  0  0  0  0
 44 46  1  0  0  0  0
  7 12  1  0  0  0  0
 34 39  1  0  0  0  0
 17 27  1  0  0  0  0
M  END
$$$$

  -OEChem-05262214473D

 49 49  0     1  0  0  0  0  0999 V2000
   -1.6183    0.5613    3.8201 C   0  0  0  0  0  0  0  0  0  0  0  0
   -0.6710   -0.0534    3.3444 O   0  0  0  0  0  0  0  0  0  0  0  0
   -2.0502    0.2789    5.2208 C   0  0  0  0  0  0  0  0  0  0  0  0
   -2.8099   -0.5175    5.2742 H   0  0  0  0  0  0  0  0  0  0  0  0
   -1.2190   -0.0687    5.8551 H   0  0  0  0  0  0  0  0  0  0  0  0
   -2.4882    1.1338    5.7604 H   0  0  0  0  0  0  0  0  0  0  0  0
   -2.3680    1.5337    3.1790 N   0  0  0  0  0  0  0  0  0  0  0  0
   -2.1212    1.9597    1.8266 C   0  0  2  0  0  0  0  0  0  0  0  0
   -0.7862    1.3744    1.3854 C   0  0  0  0  0  0  0  0  0  0  0  0
    0.0859    1.0216    2.1767 O   0  0  0  0  0  0  0  0  0  0  0  0
   -2.1124    3.4765    1.7171 C   0  0  0  0  0  0  0  0  0  0  0  0
   -3.1331    1.9695    3.6908 H   0  0  0  0  0  0  0  0  0  0  0  0
   -2.9253    1.5413    1.2115 H   0  0  0  0  0  0  0  0  0  0  0  0
   -1.3133    3.9138    2.3268 H   0  0  0  0  0  0  0  0  0  0  0  0
   -1.9529    3.7988    0.6829 H   0  0  0  0  0  0  0  0  0  0  0  0
   -3.0626    3.8977    2.0629 H   0  0  0  0  0  0  0  0  0  0  0  0
   -0.6635    1.3313    0.0020 N   0  0  0  0  0  0  0  0  0  0  0  0
    0.5138    0.8305   -0.6617 C   0  0  2  0  0  0  0  0  0  0  0  0
    1.7218    1.4276    0.0513 C   0  0  0  0  0  0  0  0  0  0  0  0
    2.8173    0.8717    0.0914 O   0  0  0  0  0  0  0  0  0  0  0  0
    0.5390    1.1961   -2.1502 C   0  0  0  0  0  0  0  0  0  0  0  0
   -0.5898    0.5623   -2.9261 C   0  0  0  0  0  0  0  0  0  0  0  0
   -0.5571   -0.7731   -3.2412 N   0  0  0  0  0  0  0  0  0  0  0  0
   -1.7331    1.1576   -3.4046 C   0  0  0  0  0  0  0  0  0  0  0  0
   -1.6712   -0.9877   -3.9052 C   0  0  0  0  0  0  0  0  0  0  0  0
   -2.4156    0.1523   -4.0298 N   0  0  0  0  0  0  0  0  0  0  0  0
   -1.4467    1.6280   -0.5753 H   0  0  0  0  0  0  0  0  0  0  0  0
    0.5141   -0.2566   -0.5191 H   0  0  0  0  0  0  0  0  0  0  0  0
    1.5008    0.9088   -2.5963 H   0  0  0  0  0  0  0  0  0  0  0  0
    0.4758    2.2847   -2.2789 H   0  0  0  0  0  0  0  0  0  0  0  0
   -2.1127    2.1683   -3.3613 H   0  0  0  0  0  0  0  0  0  0  0  0
   -1.9949   -1.9330   -4.3174 H   0  0  0  0  0  0  0  0  0  0  0  0
   -3.3080    0.2358   -4.4980 H   0  0  0  0  0  0  0  0  0  0  0  0
    1.4418    2.6750    0.5919 N   0  0  0  0  0  0  0  0  0  0  0  0
    2.4186    3.4699    1.3010 C   0  0  2  0  0  0  0  0  0  0  0  0
    3.0729    2.5832    2.3523 C   0  0  0  0  0  0  0  0  0  0  0  0
    2.5422    1.5680    2.7980 O   0  0  0  0  0  0  0  0  0  0  0  0
    1.7780    4.6910    1.9422 C   0  0  0  0  0  0  0  0  0  0  0  0
    0.5032    3.0479    0.4838 H   0  0  0  0  0  0  0  0  0  0  0  0
    3.1688    3.7794    0.5652 H   0  0  0  0  0  0  0  0  0  0  0  0
    1.0235    4.4008    2.6824 H   0  0  0  0  0  0  0  0  0  0  0  0
    2.5240    5.3073    2.4549 H   0  0  0  0  0  0  0  0  0  0  0  0
    1.2823    5.3122    1.1884 H   0  0  0  0  0  0  0  0  0  0  0  0
    4.3001    3.0825    2.7656 N   0  0  0  0  0  0  0  0  0  0  0  0
    5.1114    2.4279    3.7652 C   0  0  0  0  0  0  0  0  0  0  0  0
    4.6716    3.9205    2.3281 H   0  0  0  0  0  0  0  0  0  0  0  0
    4.8770    2.8419    4.7570 H   0  0  0  0  0  0  0  0  0  0  0  0
    4.9002    1.3484    3.7594 H   0  0  0  0  0  0  0  0  0  0  0  0
    6.1753    2.5946    3.5406 H   0  0  0  0  0  0  0  0  0  0  0  0
 22 24  2  0  0  0  0
 24 26  1  0  0  0  0
 23 25  2  0  0  0  0
 25 26  1  0  0  0  0
 21 22  1  0  0  0  0
 22 23  1  0  0  0  0
  1  3  1  0  0  0  0
  1  7  1  0  0  0  0
  1  2  2  0  0  0  0
 35 36  1  0  0  0  0
 36 44  1  0  0  0  0
 36 37  2  0  0  0  0
  8  9  1  0  0  0  0
  9 17  1  0  0  0  0
  9 10  2  0  0  0  0
 18 19  1  0  0  0  0
 19 34  1  0  0  0  0
 19 20  2  0  0  0  0
 35 38  1  0  0  0  0
  8 11  1  0  0  0  0
 44 45  1  0  0  0  0
 18 21  1  0  0  0  0
 34 35  1  0  0  0  0
  7  8  1  0  0  0  0
 17 18  1  0  0  0  0
 24 31  1  0  0  0  0
 25 32  1  0  0  0  0
  3  4  1  0  0  0  0
  3  5  1  0  0  0  0
  3  6  1  0  0  0  0
 38 41  1  0  0  0  0
 38 42  1  0  0  0  0
 38 43  1  0  0  0  0
 11 14  1  0  0  0  0
 11 15  1  0  0  0  0
 11 16  1  0  0  0  0
 45 47  1  0  0  0  0
 45 48  1  0  0  0  0
 45 49  1  0  0  0  0
 21 29  1  0  0  0  0
 21 30  1  0  0  0  0
 35 40  1  0  0  0  0
  8 13  1  0  0  0  0
 18 28  1  0  0  0  0
 26 33  1  0  0  0  0
 44 46  1  0  0  0  0
  7 12  1  0  0  0  0
 34 39  1  0  0  0  0
 17 27  1  0  0  0  0
M  END
$$$$

  -OEChem-05262214473D

 49 49  0     1  0  0  0  0  0999 V2000
   -1.6183    0.5613    3.8201 C   0  0  0  0  0  0  0  0  0  0  0  0
   -0.6710   -0.0534    3.3444 O   0  0  0  0  0  0  0  0  0  0  0  0
   -2.0502    0.2789    5.2208 C   0  0  0  0  0  0  0  0  0  0  0  0
   -2.8099   -0.5175    5.2742 H   0  0  0  0  0  0  0  0  0  0  0  0
   -1.2190   -0.0687    5.8551 H   0  0  0  0  0  0  0  0  0  0  0  0
   -2.4882    1.1338    5.7604 H   0  0  0  0  0  0  0  0  0  0  0  0
   -2.3680    1.5337    3.1790 N   0  0  0  0  0  0  0  0  0  0  0  0
   -2.1212    1.9597    1.8266 C   0  0  2  0  0  0  0  0  0  0  0  0
   -0.7862    1.3744    1.3854 C   0  0  0  0  0  0  0  0  0  0  0  0
    0.0859    1.0216    2.1767 O   0  0  0  0  0  0  0  0  0  0  0  0
   -2.1124    3.4765    1.7171 C   0  0  0  0  0  0  0  0  0  0  0  0
   -3.1331    1.9695    3.6908 H   0  0  0  0  0  0  0  0  0  0  0  0
   -2.9253    1.5413    1.2115 H   0  0  0  0  0  0  0  0  0  0  0  0
   -1.3133    3.9138    2.3268 H   0  0  0  0  0  0  0  0  0  0  0  0
   -1.9529    3.7988    0.6829 H   0  0  0  0  0  0  0  0  0  0  0  0
   -3.0626    3.8977    2.0629 H   0  0  0  0  0  0  0  0  0  0  0  0
   -0.6635    1.3313    0.0020 N   0  0  0  0  0  0  0  0  0  0  0  0
    0.5138    0.8305   -0.6617 C   0  0  2  0  0  0  0  0  0  0  0  0
    1.7218    1.4276    0.0513 C   0  0  0  0  0  0  0  0  0  0  0  0
    2.8694    1.0240   -0.1244 O   0  0  0  0  0  0  0  0  0  0  0  0
    0.5390    1.1961   -2.1502 C   0  0  0  0  0  0  0  0  0  0  0  0
   -0.5898    0.5623   -2.9261 C   0  0  0  0  0  0  0  0  0  0  0  0
   -0.5571   -0.7731   -3.2412 N   0  0  0  0  0  0  0  0  0  0  0  0
   -1.7331    1.1576   -3.4046 C   0  0  0  0  0  0  0  0  0  0  0  0
   -1.6712   -0.9877   -3.9052 C   0  0  0  0  0  0  0  0  0  0  0  0
   -2.4156    0.1523   -4.0298 N   0  0  0  0  0  0  0  0  0  0  0  0
   -1.4467    1.6280   -0.5753 H   0  0  0  0  0  0  0  0  0  0  0  0
    0.5141   -0.2566   -0.5191 H   0  0  0  0  0  0  0  0  0  0  0  0
    1.5008    0.9088   -2.5963 H   0  0  0  0  0  0  0  0  0  0  0  0
    0.4758    2.2847   -2.2789 H   0  0  0  0  0  0  0  0  0  0  0  0
   -2.1127    2.1683   -3.3613 H   0  0  0  0  0  0  0  0  0  0  0  0
   -1.9949   -1.9330   -4.3174 H   0  0  0  0  0  0  0  0  0  0  0  0
   -3.3080    0.2358   -4.4980 H   0  0  0  0  0  0  0  0  0  0  0  0
    1.3692    2.4946    0.8660 N   0  0  0  0  0  0  0  0  0  0  0  0
    2.3267    3.2542    1.6375 C   0  0  2  0  0  0  0  0  0  0  0  0
    3.1905    2.2702    2.4153 C   0  0  0  0  0  0  0  0  0  0  0  0
    2.8295    1.1257    2.6817 O   0  0  0  0  0  0  0  0  0  0  0  0
    1.6324    4.2283    2.5765 C   0  0  0  0  0  0  0  0  0  0  0  0
    0.3890    2.7547    0.9228 H   0  0  0  0  0  0  0  0  0  0  0  0
    2.9493    3.7998    0.9201 H   0  0  0  0  0  0  0  0  0  0  0  0
    1.0039    3.6999    3.3027 H   0  0  0  0  0  0  0  0  0  0  0  0
    2.3593    4.8230    3.1395 H   0  0  0  0  0  0  0  0  0  0  0  0
    0.9885    4.9162    2.0180 H   0  0  0  0  0  0  0  0  0  0  0  0
    4.3941    2.8343    2.8142 N   0  0  0  0  0  0  0  0  0  0  0  0
    5.3814    2.1067    3.5769 C   0  0  0  0  0  0  0  0  0  0  0  0
    4.6184    3.7841    2.5325 H   0  0  0  0  0  0  0  0  0  0  0  0
    5.2173    2.2806    4.6506 H   0  0  0  0  0  0  0  0  0  0  0  0
    5.2914    1.0317    3.3618 H   0  0  0  0  0  0  0  0  0  0  0  0
    6.3877    2.4532    3.2990 H   0  0  0  0  0  0  0  0  0  0  0  0
 22 24  2  0  0  0  0
 24 26  1  0  0  0  0
 23 25  2  0  0  0  0
 25 26  1  0  0  0  0
 21 22  1  0  0  0  0
 22 23  1  0  0  0  0
  1  3  1  0  0  0  0
  1  7  1  0  0  0  0
  1  2  2  0  0  0  0
 35 36  1  0  0  0  0
 36 44  1  0  0  0  0
 36 37  2  0  0  0  0
  8  9  1  0  0  0  0
  9 17  1  0  0  0  0
  9 10  2  0  0  0  0
 18 19  1  0  0  0  0
 19 34  1  0  0  0  0
 19 20  2  0  0  0  0
 35 38  1  0  0  0  0
  8 11  1  0  0  0  0
 44 45  1  0  0  0  0
 18 21  1  0  0  0  0
 34 35  1  0  0  0  0
  7  8  1  0  0  0  0
 17 18  1  0  0  0  0
 24 31  1  0  0  0  0
 25 32  1  0  0  0  0
  3  4  1  0  0  0  0
  3  5  1  0  0  0  0
  3  6  1  0  0  0  0
 38 41  1  0  0  0  0
 38 42  1  0  0  0  0
 38 43  1  0  0  0  0
 11 14  1  0  0  0  0
 11 15  1  0  0  0  0
 11 16  1  0  0  0  0
 45 47  1  0  0  0  0
 45 48  1  0  0  0  0
 45 49  1  0  0  0  0
 21 29  1  0  0  0  0
 21 30  1  0  0  0  0
 35 40  1  0  0  0  0
  8 13  1  0  0  0  0
 18 28  1  0  0  0  0
 26 33  1  0  0  0  0
 44 46  1  0  0  0  0
  7 12  1  0  0  0  0
 34 39  1  0  0  0  0
 17 27  1  0  0  0  0
M  END
$$$$

  -OEChem-05262214473D

 49 49  0     1  0  0  0  0  0999 V2000
   -1.6183    0.5613    3.8201 C   0  0  0  0  0  0  0  0  0  0  0  0
   -0.6710   -0.0534    3.3444 O   0  0  0  0  0  0  0  0  0  0  0  0
   -2.0502    0.2789    5.2208 C   0  0  0  0  0  0  0  0  0  0  0  0
   -2.8099   -0.5175    5.2742 H   0  0  0  0  0  0  0  0  0  0  0  0
   -1.2190   -0.0687    5.8551 H   0  0  0  0  0  0  0  0  0  0  0  0
   -2.4882    1.1338    5.7604 H   0  0  0  0  0  0  0  0  0  0  0  0
   -2.3680    1.5337    3.1790 N   0  0  0  0  0  0  0  0  0  0  0  0
   -2.1212    1.9597    1.8266 C   0  0  2  0  0  0  0  0  0  0  0  0
   -0.7862    1.3744    1.3854 C   0  0  0  0  0  0  0  0  0  0  0  0
    0.0859    1.0216    2.1767 O   0  0  0  0  0  0  0  0  0  0  0  0
   -2.1124    3.4765    1.7171 C   0  0  0  0  0  0  0  0  0  0  0  0
   -3.1331    1.9695    3.6908 H   0  0  0  0  0  0  0  0  0  0  0  0
   -2.9253    1.5413    1.2115 H   0  0  0  0  0  0  0  0  0  0  0  0
   -1.3133    3.9138    2.3268 H   0  0  0  0  0  0  0  0  0  0  0  0
   -1.9529    3.7988    0.6829 H   0  0  0  0  0  0  0  0  0  0  0  0
   -3.0626    3.8977    2.0629 H   0  0  0  0  0  0  0  0  0  0  0  0
   -0.6635    1.3313    0.0020 N   0  0  0  0  0  0  0  0  0  0  0  0
    0.5138    0.8305   -0.6617 C   0  0  2  0  0  0  0  0  0  0  0  0
    1.7218    1.4276    0.0513 C   0  0  0  0  0  0  0  0  0  0  0  0
    2.8794    1.2216   -0.3069 O   0  0  0  0  0  0  0  0  0  0  0  0
    0.5390    1.1961   -2.1502 C   0  0  0  0  0  0  0  0  0  0  0  0
   -0.5898    0.5623   -2.9261 C   0  0  0  0  0  0  0  0  0  0  0  0
   -0.5571   -0.7731   -3.2412 N   0  0  0  0  0  0  0  0  0  0  0  0
   -1.7331    1.1576   -3.4046 C   0  0  0  0  0  0  0  0  0  0  0  0
   -1.6712   -0.9877   -3.9052 C   0  0  0  0  0  0  0  0  0  0  0  0
   -2.4156    0.1523   -4.0298 N   0  0  0  0  0  0  0  0  0  0  0  0
   -1.4467    1.6280   -0.5753 H   0  0  0  0  0  0  0  0  0  0  0  0
    0.5141   -0.2566   -0.5191 H   0  0  0  0  0  0  0  0  0  0  0  0
    1.5008    0.9088   -2.5963 H   0  0  0  0  0  0  0  0  0  0  0  0
    0.4758    2.2847   -2.2789 H   0  0  0  0  0  0  0  0  0  0  0  0
   -2.1127    2.1683   -3.3613 H   0  0  0  0  0  0  0  0  0  0  0  0
   -1.9949   -1.9330   -4.3174 H   0  0  0  0  0  0  0  0  0  0  0  0
   -3.3080    0.2358   -4.4980 H   0  0  0  0  0  0  0  0  0  0  0  0
    1.3487    2.2555    1.1010 N   0  0  0  0  0  0  0  0  0  0  0  0
    2.2981    2.9657    1.9275 C   0  0  2  0  0  0  0  0  0  0  0  0
    3.3483    1.9691    2.4000 C   0  0  0  0  0  0  0  0  0  0  0  0
    3.1487    0.7572    2.4496 O   0  0  0  0  0  0  0  0  0  0  0  0
    1.6121    3.6336    3.1091 C   0  0  0  0  0  0  0  0  0  0  0  0
    0.3587    2.3677    1.2984 H   0  0  0  0  0  0  0  0  0  0  0  0
    2.7707    3.7202    1.2893 H   0  0  0  0  0  0  0  0  0  0  0  0
    1.1327    2.8934    3.7600 H   0  0  0  0  0  0  0  0  0  0  0  0
    2.3283    4.1949    3.7183 H   0  0  0  0  0  0  0  0  0  0  0  0
    0.8366    4.3280    2.7680 H   0  0  0  0  0  0  0  0  0  0  0  0
    4.5198    2.5961    2.8007 N   0  0  0  0  0  0  0  0  0  0  0  0
    5.6619    1.8677    3.3017 C   0  0  0  0  0  0  0  0  0  0  0  0
    4.6043    3.6040    2.7073 H   0  0  0  0  0  0  0  0  0  0  0  0
    5.6031    1.8015    4.3981 H   0  0  0  0  0  0  0  0  0  0  0  0
    5.6673    0.8546    2.8731 H   0  0  0  0  0  0  0  0  0  0  0  0
    6.5855    2.3919    3.0151 H   0  0  0  0  0  0  0  0  0  0  0  0
 22 24  2  0  0  0  0
 24 26  1  0  0  0  0
 23 25  2  0  0  0  0
 25 26  1  0  0  0  0
 21 22  1  0  0  0  0
 22 23  1  0  0  0  0
  1  3  1  0  0  0  0
  1  7  1  0  0  0  0
  1  2  2  0  0  0  0
 35 36  1  0  0  0  0
 36 44  1  0  0  0  0
 36 37  2  0  0  0  0
  8  9  1  0  0  0  0
  9 17  1  0  0  0  0
  9 10  2  0  0  0  0
 18 19  1  0  0  0  0
 19 34  1  0  0  0  0
 19 20  2  0  0  0  0
 35 38  1  0  0  0  0
  8 11  1  0  0  0  0
 44 45  1  0  0  0  0
 18 21  1  0  0  0  0
 34 35  1  0  0  0  0
  7  8  1  0  0  0  0
 17 18  1  0  0  0  0
 24 31  1  0  0  0  0
 25 32  1  0  0  0  0
  3  4  1  0  0  0  0
  3  5  1  0  0  0  0
  3  6  1  0  0  0  0
 38 41  1  0  0  0  0
 38 42  1  0  0  0  0
 38 43  1  0  0  0  0
 11 14  1  0  0  0  0
 11 15  1  0  0  0  0
 11 16  1  0  0  0  0
 45 47  1  0  0  0  0
 45 48  1  0  0  0  0
 45 49  1  0  0  0  0
 21 29  1  0  0  0  0
 21 30  1  0  0  0  0
 35 40  1  0  0  0  0
  8 13  1  0  0  0  0
 18 28  1  0  0  0  0
 26 33  1  0  0  0  0
 44 46  1  0  0  0  0
  7 12  1  0  0  0  0
 34 39  1  0  0  0  0
 17 27  1  0  0  0  0
M  END
$$$$

  -OEChem-05262214473D

 49 49  0     1  0  0  0  0  0999 V2000
   -1.6183    0.5613    3.8201 C   0  0  0  0  0  0  0  0  0  0  0  0
   -0.6710   -0.0534    3.3444 O   0  0  0  0  0  0  0  0  0  0  0  0
   -2.0502    0.2789    5.2208 C   0  0  0  0  0  0  0  0  0  0  0  0
   -2.8099   -0.5175    5.2742 H   0  0  0  0  0  0  0  0  0  0  0  0
   -1.2190   -0.0687    5.8551 H   0  0  0  0  0  0  0  0  0  0  0  0
   -2.4882    1.1338    5.7604 H   0  0  0  0  0  0  0  0  0  0  0  0
   -2.3680    1.5337    3.1790 N   0  0  0  0  0  0  0  0  0  0  0  0
   -2.1212    1.9597    1.8266 C   0  0  2  0  0  0  0  0  0  0  0  0
   -0.7862    1.3744    1.3854 C   0  0  0  0  0  0  0  0  0  0  0  0
    0.0859    1.0216    2.1767 O   0  0  0  0  0  0  0  0  0  0  0  0
   -2.1124    3.4765    1.7171 C   0  0  0  0  0  0  0  0  0  0  0  0
   -3.1331    1.9695    3.6908 H   0  0  0  0  0  0  0  0  0  0  0  0
   -2.9253    1.5413    1.2115 H   0  0  0  0  0  0  0  0  0  0  0  0
   -1.3133    3.9138    2.3268 H   0  0  0  0  0  0  0  0  0  0  0  0
   -1.9529    3.7988    0.6829 H   0  0  0  0  0  0  0  0  0  0  0  0
   -3.0626    3.8977    2.0629 H   0  0  0  0  0  0  0  0  0  0  0  0
   -0.6635    1.3313    0.0020 N   0  0  0  0  0  0  0  0  0  0  0  0
    0.5138    0.8305   -0.6617 C   0  0  2  0  0  0  0  0  0  0  0  0
    1.7218    1.4276    0.0513 C   0  0  0  0  0  0  0  0  0  0  0  0
    2.8467    1.4511   -0.4436 O   0  0  0  0  0  0  0  0  0  0  0  0
    0.5390    1.1961   -2.1502 C   0  0  0  0  0  0  0  0  0  0  0  0
   -0.5898    0.5623   -2.9261 C   0  0  0  0  0  0  0  0  0  0  0  0
   -0.5571   -0.7731   -3.2412 N   0  0  0  0  0  0  0  0  0  0  0  0
   -1.7331    1.1576   -3.4046 C   0  0  0  0  0  0  0  0  0  0  0  0
   -1.6712   -0.9877   -3.9052 C   0  0  0  0  0  0  0  0  0  0  0  0
   -2.4156    0.1523   -4.0298 N   0  0  0  0  0  0  0  0  0  0  0  0
   -1.4467    1.6280   -0.5753 H   0  0  0  0  0  0  0  0  0  0  0  0
    0.5141   -0.2566   -0.5191 H   0  0  0  0  0  0  0  0  0  0  0  0
    1.5008    0.9088   -2.5963 H   0  0  0  0  0  0  0  0  0  0  0  0
    0.4758    2.2847   -2.2789 H   0  0  0  0  0  0  0  0  0  0  0  0
   -2.1127    2.1683   -3.3613 H   0  0  0  0  0  0  0  0  0  0  0  0
   -1.9949   -1.9330   -4.3174 H   0  0  0  0  0  0  0  0  0  0  0  0
   -3.3080    0.2358   -4.4980 H   0  0  0  0  0  0  0  0  0  0  0  0
    1.3817    1.9737    1.2811 N   0  0  0  0  0  0  0  0  0  0  0  0
    2.3348    2.6241    2.1515 C   0  0  2  0  0  0  0  0  0  0  0  0
    3.5357    1.7005    2.3076 C   0  0  0  0  0  0  0  0  0  0  0  0
    3.4781    0.4874    2.1174 O   0  0  0  0  0  0  0  0  0  0  0  0
    1.7184    2.9475    3.5036 C   0  0  0  0  0  0  0  0  0  0  0  0
    0.4143    1.9133    1.5848 H   0  0  0  0  0  0  0  0  0  0  0  0
    2.6454    3.5459    1.6477 H   0  0  0  0  0  0  0  0  0  0  0  0
    1.4011    2.0361    4.0233 H   0  0  0  0  0  0  0  0  0  0  0  0
    2.4330    3.4657    4.1516 H   0  0  0  0  0  0  0  0  0  0  0  0
    0.8372    3.5876    3.3871 H   0  0  0  0  0  0  0  0  0  0  0  0
    4.6688    2.3839    2.7261 N   0  0  0  0  0  0  0  0  0  0  0  0
    5.9340    1.7272    2.9584 C   0  0  0  0  0  0  0  0  0  0  0  0
    4.6302    3.3925    2.8407 H   0  0  0  0  0  0  0  0  0  0  0  0
    6.0082    1.4372    4.0169 H   0  0  0  0  0  0  0  0  0  0  0  0
    6.0023    0.8293    2.3267 H   0  0  0  0  0  0  0  0  0  0  0  0
    6.7553    2.4149    2.7083 H   0  0  0  0  0  0  0  0  0  0  0  0
 22 24  2  0  0  0  0
 24 26  1  0  0  0  0
 23 25  2  0  0  0  0
 25 26  1  0  0  0  0
 21 22  1  0  0  0  0
 22 23  1  0  0  0  0
  1  3  1  0  0  0  0
  1  7  1  0  0  0  0
  1  2  2  0  0  0  0
 35 36  1  0  0  0  0
 36 44  1  0  0  0  0
 36 37  2  0  0  0  0
  8  9  1  0  0  0  0
  9 17  1  0  0  0  0
  9 10  2  0  0  0  0
 18 19  1  0  0  0  0
 19 34  1  0  0  0  0
 19 20  2  0  0  0  0
 35 38  1  0  0  0  0
  8 11  1  0  0  0  0
 44 45  1  0  0  0  0
 18 21  1  0  0  0  0
 34 35  1  0  0  0  0
  7  8  1  0  0  0  0
 17 18  1  0  0  0  0
 24 31  1  0  0  0  0
 25 32  1  0  0  0  0
  3  4  1  0  0  0  0
  3  5  1  0  0  0  0
  3  6  1  0  0  0  0
 38 41  1  0  0  0  0
 38 42  1  0  0  0  0
 38 43  1  0  0  0  0
 11 14  1  0  0  0  0
 11 15  1  0  0  0  0
 11 16  1  0  0  0  0
 45 47  1  0  0  0  0
 45 48  1  0  0  0  0
 45 49  1  0  0  0  0
 21 29  1  0  0  0  0
 21 30  1  0  0  0  0
 35 40  1  0  0  0  0
  8 13  1  0  0  0  0
 18 28  1  0  0  0  0
 26 33  1  0  0  0  0
 44 46  1  0  0  0  0
  7 12  1  0  0  0  0
 34 39  1  0  0  0  0
 17 27  1  0  0  0  0
M  END
$$$$

  -OEChem-05262214473D

 49 49  0     1  0  0  0  0  0999 V2000
   -1.6183    0.5613    3.8201 C   0  0  0  0  0  0  0  0  0  0  0  0
   -0.6710   -0.0534    3.3444 O   0  0  0  0  0  0  0  0  0  0  0  0
   -2.0502    0.2789    5.2208 C   0  0  0  0  0  0  0  0  0  0  0  0
   -2.8099   -0.5175    5.2742 H   0  0  0  0  0  0  0  0  0  0  0  0
   -1.2190   -0.0687    5.8551 H   0  0  0  0  0  0  0  0  0  0  0  0
   -2.4882    1.1338    5.7604 H   0  0  0  0  0  0  0  0  0  0  0  0
   -2.3680    1.5337    3.1790 N   0  0  0  0  0  0  0  0  0  0  0  0
   -2.1212    1.9597    1.8266 C   0  0  2  0  0  0  0  0  0  0  0  0
   -0.7862    1.3744    1.3854 C   0  0  0  0  0  0  0  0  0  0  0  0
    0.0859    1.0216    2.1767 O   0  0  0  0  0  0  0  0  0  0  0  0
   -2.1124    3.4765    1.7171 C   0  0  0  0  0  0  0  0  0  0  0  0
   -3.1331    1.9695    3.6908 H   0  0  0  0  0  0  0  0  0  0  0  0
   -2.9253    1.5413    1.2115 H   0  0  0  0  0  0  0  0  0  0  0  0
   -1.3133    3.9138    2.3268 H   0  0  0  0  0  0  0  0  0  0  0  0
   -1.9529    3.7988    0.6829 H   0  0  0  0  0  0  0  0  0  0  0  0
   -3.0626    3.8977    2.0629 H   0  0  0  0  0  0  0  0  0  0  0  0
   -0.6635    1.3313    0.0020 N   0  0  0  0  0  0  0  0  0  0  0  0
    0.5138    0.8305   -0.6617 C   0  0  2  0  0  0  0  0  0  0  0  0
    1.7218    1.4276    0.0513 C   0  0  0  0  0  0  0  0  0  0  0  0
    2.7734    1.6969   -0.5254 O   0  0  0  0  0  0  0  0  0  0  0  0
    0.5390    1.1961   -2.1502 C   0  0  0  0  0  0  0  0  0  0  0  0
   -0.5898    0.5623   -2.9261 C   0  0  0  0  0  0  0  0  0  0  0  0
   -0.5571   -0.7731   -3.2412 N   0  0  0  0  0  0  0  0  0  0  0  0
   -1.7331    1.1576   -3.4046 C   0  0  0  0  0  0  0  0  0  0  0  0
   -1.6712   -0.9877   -3.9052 C   0  0  0  0  0  0  0  0  0  0  0  0
   -2.4156    0.1523   -4.0298 N   0  0  0  0  0  0  0  0  0  0  0  0
   -1.4467    1.6280   -0.5753 H   0  0  0  0  0  0  0  0  0  0  0  0
    0.5141   -0.2566   -0.5191 H   0  0  0  0  0  0  0  0  0  0  0  0
    1.5008    0.9088   -2.5963 H   0  0  0  0  0  0  0  0  0  0  0  0
    0.4758    2.2847   -2.2789 H   0  0  0  0  0  0  0  0  0  0  0  0
   -2.1127    2.1683   -3.3613 H   0  0  0  0  0  0  0  0  0  0  0  0
   -1.9949   -1.9330   -4.3174 H   0  0  0  0  0  0  0  0  0  0  0  0
   -3.3080    0.2358   -4.4980 H   0  0  0  0  0  0  0  0  0  0  0  0
    1.4659    1.6687    1.3940 N   0  0  0  0  0  0  0  0  0  0  0  0
    2.4343    2.2526    2.2940 C   0  0  2  0  0  0  0  0  0  0  0  0
    3.7398    1.4827    2.1442 C   0  0  0  0  0  0  0  0  0  0  0  0
    3.7952    0.3348    1.7078 O   0  0  0  0  0  0  0  0  0  0  0  0
    1.9442    2.2168    3.7332 C   0  0  0  0  0  0  0  0  0  0  0  0
    0.5521    1.4222    1.7627 H   0  0  0  0  0  0  0  0  0  0  0  0
    2.5817    3.2889    1.9709 H   0  0  0  0  0  0  0  0  0  0  0  0
    1.7908    1.1865    4.0746 H   0  0  0  0  0  0  0  0  0  0  0  0
    2.6663    2.6852    4.4100 H   0  0  0  0  0  0  0  0  0  0  0  0
    0.9902    2.7456    3.8333 H   0  0  0  0  0  0  0  0  0  0  0  0
    4.8307    2.2123    2.5954 N   0  0  0  0  0  0  0  0  0  0  0  0
    6.1789    1.6949    2.5705 C   0  0  0  0  0  0  0  0  0  0  0  0
    4.6943    3.1639    2.9235 H   0  0  0  0  0  0  0  0  0  0  0  0
    6.4049    1.2125    3.5329 H   0  0  0  0  0  0  0  0  0  0  0  0
    6.2736    0.9574    1.7598 H   0  0  0  0  0  0  0  0  0  0  0  0
    6.8853    2.5205    2.3994 H   0  0  0  0  0  0  0  0  0  0  0  0
 22 24  2  0  0  0  0
 24 26  1  0  0  0  0
 23 25  2  0  0  0  0
 25 26  1  0  0  0  0
 21 22  1  0  0  0  0
 22 23  1  0  0  0  0
  1  3  1  0  0  0  0
  1  7  1  0  0  0  0
  1  2  2  0  0  0  0
 35 36  1  0  0  0  0
 36 44  1  0  0  0  0
 36 37  2  0  0  0  0
  8  9  1  0  0  0  0
  9 17  1  0  0  0  0
  9 10  2  0  0  0  0
 18 19  1  0  0  0  0
 19 34  1  0  0  0  0
 19 20  2  0  0  0  0
 35 38  1  0  0  0  0
  8 11  1  0  0  0  0
 44 45  1  0  0  0  0
 18 21  1  0  0  0  0
 34 35  1  0  0  0  0
  7  8  1  0  0  0  0
 17 18  1  0  0  0  0
 24 31  1  0  0  0  0
 25 32  1  0  0  0  0
  3  4  1  0  0  0  0
  3  5  1  0  0  0  0
  3  6  1  0  0  0  0
 38 41  1  0  0  0  0
 38 42  1  0  0  0  0
 38 43  1  0  0  0  0
 11 14  1  0  0  0  0
 11 15  1  0  0  0  0
 11 16  1  0  0  0  0
 45 47  1  0  0  0  0
 45 48  1  0  0  0  0
 45 49  1  0  0  0  0
 21 29  1  0  0  0  0
 21 30  1  0  0  0  0
 35 40  1  0  0  0  0
  8 13  1  0  0  0  0
 18 28  1  0  0  0  0
 26 33  1  0  0  0  0
 44 46  1  0  0  0  0
  7 12  1  0  0  0  0
 34 39  1  0  0  0  0
 17 27  1  0  0  0  0
M  END
$$$$

  -OEChem-05262214473D

 49 49  0     1  0  0  0  0  0999 V2000
   -1.6183    0.5613    3.8201 C   0  0  0  0  0  0  0  0  0  0  0  0
   -0.6710   -0.0534    3.3444 O   0  0  0  0  0  0  0  0  0  0  0  0
   -2.0502    0.2789    5.2208 C   0  0  0  0  0  0  0  0  0  0  0  0
   -2.8099   -0.5175    5.2742 H   0  0  0  0  0  0  0  0  0  0  0  0
   -1.2190   -0.0687    5.8551 H   0  0  0  0  0  0  0  0  0  0  0  0
   -2.4882    1.1338    5.7604 H   0  0  0  0  0  0  0  0  0  0  0  0
   -2.3680    1.5337    3.1790 N   0  0  0  0  0  0  0  0  0  0  0  0
   -2.1212    1.9597    1.8266 C   0  0  2  0  0  0  0  0  0  0  0  0
   -0.7862    1.3744    1.3854 C   0  0  0  0  0  0  0  0  0  0  0  0
    0.0859    1.0216    2.1767 O   0  0  0  0  0  0  0  0  0  0  0  0
   -2.1124    3.4765    1.7171 C   0  0  0  0  0  0  0  0  0  0  0  0
   -3.1331    1.9695    3.6908 H   0  0  0  0  0  0  0  0  0  0  0  0
   -2.9253    1.5413    1.2115 H   0  0  0  0  0  0  0  0  0  0  0  0
   -1.3133    3.9138    2.3268 H   0  0  0  0  0  0  0  0  0  0  0  0
   -1.9529    3.7988    0.6829 H   0  0  0  0  0  0  0  0  0  0  0  0
   -3.0626    3.8977    2.0629 H   0  0  0  0  0  0  0  0  0  0  0  0
   -0.6635    1.3313    0.0020 N   0  0  0  0  0  0  0  0  0  0  0  0
    0.5138    0.8305   -0.6617 C   0  0  2  0  0  0  0  0  0  0  0  0
    1.7218    1.4276    0.0513 C   0  0  0  0  0  0  0  0  0  0  0  0
    2.6646    1.9422   -0.5464 O   0  0  0  0  0  0  0  0  0  0  0  0
    0.5390    1.1961   -2.1502 C   0  0  0  0  0  0  0  0  0  0  0  0
   -0.5898    0.5623   -2.9261 C   0  0  0  0  0  0  0  0  0  0  0  0
   -0.5571   -0.7731   -3.2412 N   0  0  0  0  0  0  0  0  0  0  0  0
   -1.7331    1.1576   -3.4046 C   0  0  0  0  0  0  0  0  0  0  0  0
   -1.6712   -0.9877   -3.9052 C   0  0  0  0  0  0  0  0  0  0  0  0
   -2.4156    0.1523   -4.0298 N   0  0  0  0  0  0  0  0  0  0  0  0
   -1.4467    1.6280   -0.5753 H   0  0  0  0  0  0  0  0  0  0  0  0
    0.5141   -0.2566   -0.5191 H   0  0  0  0  0  0  0  0  0  0  0  0
    1.5008    0.9088   -2.5963 H   0  0  0  0  0  0  0  0  0  0  0  0
    0.4758    2.2847   -2.2789 H   0  0  0  0  0  0  0  0  0  0  0  0
   -2.1127    2.1683   -3.3613 H   0  0  0  0  0  0  0  0  0  0  0  0
   -1.9949   -1.9330   -4.3174 H   0  0  0  0  0  0  0  0  0  0  0  0
   -3.3080    0.2358   -4.4980 H   0  0  0  0  0  0  0  0  0  0  0  0
    1.5956    1.3611    1.4319 N   0  0  0  0  0  0  0  0  0  0  0  0
    2.5898    1.8767    2.3454 C   0  0  2  0  0  0  0  0  0  0  0  0
    3.9467    1.3305    1.9210 C   0  0  0  0  0  0  0  0  0  0  0  0
    4.0785    0.3099    1.2487 O   0  0  0  0  0  0  0  0  0  0  0  0
    2.2740    1.4912    3.7822 C   0  0  0  0  0  0  0  0  0  0  0  0
    0.7626    0.9282    1.8198 H   0  0  0  0  0  0  0  0  0  0  0  0
    2.5840    2.9667    2.2368 H   0  0  0  0  0  0  0  0  0  0  0  0
    2.2753    0.4026    3.9104 H   0  0  0  0  0  0  0  0  0  0  0  0
    3.0124    1.9065    4.4759 H   0  0  0  0  0  0  0  0  0  0  0  0
    1.2851    1.8592    4.0760 H   0  0  0  0  0  0  0  0  0  0  0  0
    4.9947    2.0930    2.4175 N   0  0  0  0  0  0  0  0  0  0  0  0
    6.3801    1.7728    2.1643 C   0  0  0  0  0  0  0  0  0  0  0  0
    4.7923    2.9339    2.9501 H   0  0  0  0  0  0  0  0  0  0  0  0
    6.7662    1.1428    2.9791 H   0  0  0  0  0  0  0  0  0  0  0  0
    6.4626    1.2303    1.2109 H   0  0  0  0  0  0  0  0  0  0  0  0
    6.9668    2.7016    2.1096 H   0  0  0  0  0  0  0  0  0  0  0  0
 22 24  2  0  0  0  0
 24 26  1  0  0  0  0
 23 25  2  0  0  0  0
 25 26  1  0  0  0  0
 21 22  1  0  0  0  0
 22 23  1  0  0  0  0
  1  3  1  0  0  0  0
  1  7  1  0  0  0  0
  1  2  2  0  0  0  0
 35 36  1  0  0  0  0
 36 44  1  0  0  0  0
 36 37  2  0  0  0  0
  8  9  1  0  0  0  0
  9 17  1  0  0  0  0
  9 10  2  0  0  0  0
 18 19  1  0  0  0  0
 19 34  1  0  0  0  0
 19 20  2  0  0  0  0
 35 38  1  0  0  0  0
  8 11  1  0  0  0  0
 44 45  1  0  0  0  0
 18 21  1  0  0  0  0
 34 35  1  0  0  0  0
  7  8  1  0  0  0  0
 17 18  1  0  0  0  0
 24 31  1  0  0  0  0
 25 32  1  0  0  0  0
  3  4  1  0  0  0  0
  3  5  1  0  0  0  0
  3  6  1  0  0  0  0
 38 41  1  0  0  0  0
 38 42  1  0  0  0  0
 38 43  1  0  0  0  0
 11 14  1  0  0  0  0
 11 15  1  0  0  0  0
 11 16  1  0  0  0  0
 45 47  1  0  0  0  0
 45 48  1  0  0  0  0
 45 49  1  0  0  0  0
 21 29  1  0  0  0  0
 21 30  1  0  0  0  0
 35 40  1  0  0  0  0
  8 13  1  0  0  0  0
 18 28  1  0  0  0  0
 26 33  1  0  0  0  0
 44 46  1  0  0  0  0
  7 12  1  0  0  0  0
 34 39  1  0  0  0  0
 17 27  1  0  0  0  0
M  END
$$$$

  -OEChem-05262214473D

 49 49  0     1  0  0  0  0  0999 V2000
   -1.6183    0.5613    3.8201 C   0  0  0  0  0  0  0  0  0  0  0  0
   -0.6710   -0.0534    3.3444 O   0  0  0  0  0  0  0  0  0  0  0  0
   -2.0502    0.2789    5.2208 C   0  0  0  0  0  0  0  0  0  0  0  0
   -2.8099   -0.5175    5.2742 H   0  0  0  0  0  0  0  0  0  0  0  0
   -1.2190   -0.0687    5.8551 H   0  0  0  0  0  0  0  0  0  0  0  0
   -2.4882    1.1338    5.7604 H   0  0  0  0  0  0  0  0  0  0  0  0
   -2.3680    1.5337    3.1790 N   0  0  0  0  0  0  0  0  0  0  0  0
   -2.1212    1.9597    1.8266 C   0  0  2  0  0  0  0  0  0  0  0  0
   -0.7862    1.3744    1.3854 C   0  0  0  0  0  0  0  0  0  0  0  0
    0.0859    1.0216    2.1767 O   0  0  0  0  0  0  0  0  0  0  0  0
   -2.1124    3.4765    1.7171 C   0  0  0  0  0  0  0  0  0  0  0  0
   -3.1331    1.9695    3.6908 H   0  0  0  0  0  0  0  0  0  0  0  0
   -2.9253    1.5413    1.2115 H   0  0  0  0  0  0  0  0  0  0  0  0
   -1.3133    3.9138    2.3268 H   0  0  0  0  0  0  0  0  0  0  0  0
   -1.9529    3.7988    0.6829 H   0  0  0  0  0  0  0  0  0  0  0  0
   -3.0626    3.8977    2.0629 H   0  0  0  0  0  0  0  0  0  0  0  0
   -0.6635    1.3313    0.0020 N   0  0  0  0  0  0  0  0  0  0  0  0
    0.5138    0.8305   -0.6617 C   0  0  2  0  0  0  0  0  0  0  0  0
    1.7218    1.4276    0.0513 C   0  0  0  0  0  0  0  0  0  0  0  0
    2.5277    2.1703   -0.5055 O   0  0  0  0  0  0  0  0  0  0  0  0
    0.5390    1.1961   -2.1502 C   0  0  0  0  0  0  0  0  0  0  0  0
   -0.5898    0.5623   -2.9261 C   0  0  0  0  0  0  0  0  0  0  0  0
   -0.5571   -0.7731   -3.2412 N   0  0  0  0  0  0  0  0  0  0  0  0
   -1.7331    1.1576   -3.4046 C   0  0  0  0  0  0  0  0  0  0  0  0
   -1.6712   -0.9877   -3.9052 C   0  0  0  0  0  0  0  0  0  0  0  0
   -2.4156    0.1523   -4.0298 N   0  0  0  0  0  0  0  0  0  0  0  0
   -1.4467    1.6280   -0.5753 H   0  0  0  0  0  0  0  0  0  0  0  0
    0.5141   -0.2566   -0.5191 H   0  0  0  0  0  0  0  0  0  0  0  0
    1.5008    0.9088   -2.5963 H   0  0  0  0  0  0  0  0  0  0  0  0
    0.4758    2.2847   -2.2789 H   0  0  0  0  0  0  0  0  0  0  0  0
   -2.1127    2.1683   -3.3613 H   0  0  0  0  0  0  0  0  0  0  0  0
   -1.9949   -1.9330   -4.3174 H   0  0  0  0  0  0  0  0  0  0  0  0
   -3.3080    0.2358   -4.4980 H   0  0  0  0  0  0  0  0  0  0  0  0
    1.7620    1.0719    1.3923 N   0  0  0  0  0  0  0  0  0  0  0  0
    2.7908    1.5218    2.3022 C   0  0  2  0  0  0  0  0  0  0  0  0
    4.1424    1.2544    1.6532 C   0  0  0  0  0  0  0  0  0  0  0  0
    4.3086    0.4142    0.7714 O   0  0  0  0  0  0  0  0  0  0  0  0
    2.6853    0.8201    3.6472 C   0  0  0  0  0  0  0  0  0  0  0  0
    1.0316    0.4647    1.7523 H   0  0  0  0  0  0  0  0  0  0  0  0
    2.6523    2.6012    2.4273 H   0  0  0  0  0  0  0  0  0  0  0  0
    2.8215   -0.2624    3.5419 H   0  0  0  0  0  0  0  0  0  0  0  0
    3.4476    1.1828    4.3448 H   0  0  0  0  0  0  0  0  0  0  0  0
    1.7018    0.9890    4.0989 H   0  0  0  0  0  0  0  0  0  0  0  0
    5.1495    2.0340    2.2046 N   0  0  0  0  0  0  0  0  0  0  0  0
    6.5238    1.9558    1.7675 C   0  0  0  0  0  0  0  0  0  0  0  0
    4.9175    2.7181    2.9187 H   0  0  0  0  0  0  0  0  0  0  0  0
    7.0675    1.2327    2.3932 H   0  0  0  0  0  0  0  0  0  0  0  0
    6.5565    1.6294    0.7176 H   0  0  0  0  0  0  0  0  0  0  0  0
    6.9943    2.9459    1.8585 H   0  0  0  0  0  0  0  0  0  0  0  0
 22 24  2  0  0  0  0
 24 26  1  0  0  0  0
 23 25  2  0  0  0  0
 25 26  1  0  0  0  0
 21 22  1  0  0  0  0
 22 23  1  0  0  0  0
  1  3  1  0  0  0  0
  1  7  1  0  0  0  0
  1  2  2  0  0  0  0
 35 36  1  0  0  0  0
 36 44  1  0  0  0  0
 36 37  2  0  0  0  0
  8  9  1  0  0  0  0
  9 17  1  0  0  0  0
  9 10  2  0  0  0  0
 18 19  1  0  0  0  0
 19 34  1  0  0  0  0
 19 20  2  0  0  0  0
 35 38  1  0  0  0  0
  8 11  1  0  0  0  0
 44 45  1  0  0  0  0
 18 21  1  0  0  0  0
 34 35  1  0  0  0  0
  7  8  1  0  0  0  0
 17 18  1  0  0  0  0
 24 31  1  0  0  0  0
 25 32  1  0  0  0  0
  3  4  1  0  0  0  0
  3  5  1  0  0  0  0
  3  6  1  0  0  0  0
 38 41  1  0  0  0  0
 38 42  1  0  0  0  0
 38 43  1  0  0  0  0
 11 14  1  0  0  0  0
 11 15  1  0  0  0  0
 11 16  1  0  0  0  0
 45 47  1  0  0  0  0
 45 48  1  0  0  0  0
 45 49  1  0  0  0  0
 21 29  1  0  0  0  0
 21 30  1  0  0  0  0
 35 40  1  0  0  0  0
  8 13  1  0  0  0  0
 18 28  1  0  0  0  0
 26 33  1  0  0  0  0
 44 46  1  0  0  0  0
  7 12  1  0  0  0  0
 34 39  1  0  0  0  0
 17 27  1  0  0  0  0
M  END
$$$$

  -OEChem-05262214473D

 49 49  0     1  0  0  0  0  0999 V2000
   -1.6183    0.5613    3.8201 C   0  0  0  0  0  0  0  0  0  0  0  0
   -0.6710   -0.0534    3.3444 O   0  0  0  0  0  0  0  0  0  0  0  0
   -2.0502    0.2789    5.2208 C   0  0  0  0  0  0  0  0  0  0  0  0
   -2.8099   -0.5175    5.2742 H   0  0  0  0  0  0  0  0  0  0  0  0
   -1.2190   -0.0687    5.8551 H   0  0  0  0  0  0  0  0  0  0  0  0
   -2.4882    1.1338    5.7604 H   0  0  0  0  0  0  0  0  0  0  0  0
   -2.3680    1.5337    3.1790 N   0  0  0  0  0  0  0  0  0  0  0  0
   -2.1212    1.9597    1.8266 C   0  0  2  0  0  0  0  0  0  0  0  0
   -0.7862    1.3744    1.3854 C   0  0  0  0  0  0  0  0  0  0  0  0
    0.0859    1.0216    2.1767 O   0  0  0  0  0  0  0  0  0  0  0  0
   -2.1124    3.4765    1.7171 C   0  0  0  0  0  0  0  0  0  0  0  0
   -3.1331    1.9695    3.6908 H   0  0  0  0  0  0  0  0  0  0  0  0
   -2.9253    1.5413    1.2115 H   0  0  0  0  0  0  0  0  0  0  0  0
   -1.3133    3.9138    2.3268 H   0  0  0  0  0  0  0  0  0  0  0  0
   -1.9529    3.7988    0.6829 H   0  0  0  0  0  0  0  0  0  0  0  0
   -3.0626    3.8977    2.0629 H   0  0  0  0  0  0  0  0  0  0  0  0
   -0.6635    1.3313    0.0020 N   0  0  0  0  0  0  0  0  0  0  0  0
    0.5138    0.8305   -0.6617 C   0  0  2  0  0  0  0  0  0  0  0  0
    1.7218    1.4276    0.0513 C   0  0  0  0  0  0  0  0  0  0  0  0
    2.3719    2.3656   -0.4052 O   0  0  0  0  0  0  0  0  0  0  0  0
    0.5390    1.1961   -2.1502 C   0  0  0  0  0  0  0  0  0  0  0  0
   -0.5898    0.5623   -2.9261 C   0  0  0  0  0  0  0  0  0  0  0  0
   -0.5571   -0.7731   -3.2412 N   0  0  0  0  0  0  0  0  0  0  0  0
   -1.7331    1.1576   -3.4046 C   0  0  0  0  0  0  0  0  0  0  0  0
   -1.6712   -0.9877   -3.9052 C   0  0  0  0  0  0  0  0  0  0  0  0
   -2.4156    0.1523   -4.0298 N   0  0  0  0  0  0  0  0  0  0  0  0
   -1.4467    1.6280   -0.5753 H   0  0  0  0  0  0  0  0  0  0  0  0
    0.5141   -0.2566   -0.5191 H   0  0  0  0  0  0  0  0  0  0  0  0
    1.5008    0.9088   -2.5963 H   0  0  0  0  0  0  0  0  0  0  0  0
    0.4758    2.2847   -2.2789 H   0  0  0  0  0  0  0  0  0  0  0  0
   -2.1127    2.1683   -3.3613 H   0  0  0  0  0  0  0  0  0  0  0  0
   -1.9949   -1.9330   -4.3174 H   0  0  0  0  0  0  0  0  0  0  0  0
   -3.3080    0.2358   -4.4980 H   0  0  0  0  0  0  0  0  0  0  0  0
    1.9537    0.8208    1.2778 N   0  0  0  0  0  0  0  0  0  0  0  0
    3.0234    1.2122    2.1672 C   0  0  2  0  0  0  0  0  0  0  0  0
    4.3135    1.2594    1.3591 C   0  0  0  0  0  0  0  0  0  0  0  0
    4.4699    0.6406    0.3085 O   0  0  0  0  0  0  0  0  0  0  0  0
    3.1502    0.2494    3.3376 C   0  0  0  0  0  0  0  0  0  0  0  0
    1.3406    0.0634    1.5647 H   0  0  0  0  0  0  0  0  0  0  0  0
    2.7817    2.2174    2.5295 H   0  0  0  0  0  0  0  0  0  0  0  0
    3.3921   -0.7630    2.9942 H   0  0  0  0  0  0  0  0  0  0  0  0
    3.9422    0.5632    4.0255 H   0  0  0  0  0  0  0  0  0  0  0  0
    2.2120    0.1942    3.9002 H   0  0  0  0  0  0  0  0  0  0  0  0
    5.2845    2.0394    1.9712 N   0  0  0  0  0  0  0  0  0  0  0  0
    6.6002    2.2313    1.4072 C   0  0  0  0  0  0  0  0  0  0  0  0
    5.0613    2.5313    2.8314 H   0  0  0  0  0  0  0  0  0  0  0  0
    7.2883    1.4762    1.8152 H   0  0  0  0  0  0  0  0  0  0  0  0
    6.5488    2.1273    0.3134 H   0  0  0  0  0  0  0  0  0  0  0  0
    6.9658    3.2367    1.6633 H   0  0  0  0  0  0  0  0  0  0  0  0
 22 24  2  0  0  0  0
 24 26  1  0  0  0  0
 23 25  2  0  0  0  0
 25 26  1  0  0  0  0
 21 22  1  0  0  0  0
 22 23  1  0  0  0  0
  1  3  1  0  0  0  0
  1  7  1  0  0  0  0
  1  2  2  0  0  0  0
 35 36  1  0  0  0  0
 36 44  1  0  0  0  0
 36 37  2  0  0  0  0
  8  9  1  0  0  0  0
  9 17  1  0  0  0  0
  9 10  2  0  0  0  0
 18 19  1  0  0  0  0
 19 34  1  0  0  0  0
 19 20  2  0  0  0  0
 35 38  1  0  0  0  0
  8 11  1  0  0  0  0
 44 45  1  0  0  0  0
 18 21  1  0  0  0  0
 34 35  1  0  0  0  0
  7  8  1  0  0  0  0
 17 18  1  0  0  0  0
 24 31  1  0  0  0  0
 25 32  1  0  0  0  0
  3  4  1  0  0  0  0
  3  5  1  0  0  0  0
  3  6  1  0  0  0  0
 38 41  1  0  0  0  0
 38 42  1  0  0  0  0
 38 43  1  0  0  0  0
 11 14  1  0  0  0  0
 11 15  1  0  0  0  0
 11 16  1  0  0  0  0
 45 47  1  0  0  0  0
 45 48  1  0  0  0  0
 45 49  1  0  0  0  0
 21 29  1  0  0  0  0
 21 30  1  0  0  0  0
 35 40  1  0  0  0  0
  8 13  1  0  0  0  0
 18 28  1  0  0  0  0
 26 33  1  0  0  0  0
 44 46  1  0  0  0  0
  7 12  1  0  0  0  0
 34 39  1  0  0  0  0
 17 27  1  0  0  0  0
M  END
$$$$

  -OEChem-05262214473D

 49 49  0     1  0  0  0  0  0999 V2000
   -1.6183    0.5613    3.8201 C   0  0  0  0  0  0  0  0  0  0  0  0
   -0.6710   -0.0534    3.3444 O   0  0  0  0  0  0  0  0  0  0  0  0
   -2.0502    0.2789    5.2208 C   0  0  0  0  0  0  0  0  0  0  0  0
   -2.8099   -0.5175    5.2742 H   0  0  0  0  0  0  0  0  0  0  0  0
   -1.2190   -0.0687    5.8551 H   0  0  0  0  0  0  0  0  0  0  0  0
   -2.4882    1.1338    5.7604 H   0  0  0  0  0  0  0  0  0  0  0  0
   -2.3680    1.5337    3.1790 N   0  0  0  0  0  0  0  0  0  0  0  0
   -2.1212    1.9597    1.8266 C   0  0  2  0  0  0  0  0  0  0  0  0
   -0.7862    1.3744    1.3854 C   0  0  0  0  0  0  0  0  0  0  0  0
    0.0859    1.0216    2.1767 O   0  0  0  0  0  0  0  0  0  0  0  0
   -2.1124    3.4765    1.7171 C   0  0  0  0  0  0  0  0  0  0  0  0
   -3.1331    1.9695    3.6908 H   0  0  0  0  0  0  0  0  0  0  0  0
   -2.9253    1.5413    1.2115 H   0  0  0  0  0  0  0  0  0  0  0  0
   -1.3133    3.9138    2.3268 H   0  0  0  0  0  0  0  0  0  0  0  0
   -1.9529    3.7988    0.6829 H   0  0  0  0  0  0  0  0  0  0  0  0
   -3.0626    3.8977    2.0629 H   0  0  0  0  0  0  0  0  0  0  0  0
   -0.6635    1.3313    0.0020 N   0  0  0  0  0  0  0  0  0  0  0  0
    0.5138    0.8305   -0.6617 C   0  0  2  0  0  0  0  0  0  0  0  0
    1.7218    1.4276    0.0513 C   0  0  0  0  0  0  0  0  0  0  0  0
    2.2080    2.5149   -0.2526 O   0  0  0  0  0  0  0  0  0  0  0  0
    0.5390    1.1961   -2.1502 C   0  0  0  0  0  0  0  0  0  0  0  0
   -0.5898    0.5623   -2.9261 C   0  0  0  0  0  0  0  0  0  0  0  0
   -0.5571   -0.7731   -3.2412 N   0  0  0  0  0  0  0  0  0  0  0  0
   -1.7331    1.1576   -3.4046 C   0  0  0  0  0  0  0  0  0  0  0  0
   -1.6712   -0.9877   -3.9052 C   0  0  0  0  0  0  0  0  0  0  0  0
   -2.4156    0.1523   -4.0298 N   0  0  0  0  0  0  0  0  0  0  0  0
   -1.4467    1.6280   -0.5753 H   0  0  0  0  0  0  0  0  0  0  0  0
    0.5141   -0.2566   -0.5191 H   0  0  0  0  0  0  0  0  0  0  0  0
    1.5008    0.9088   -2.5963 H   0  0  0  0  0  0  0  0  0  0  0  0
    0.4758    2.2847   -2.2789 H   0  0  0  0  0  0  0  0  0  0  0  0
   -2.1127    2.1683   -3.3613 H   0  0  0  0  0  0  0  0  0  0  0  0
   -1.9949   -1.9330   -4.3174 H   0  0  0  0  0  0  0  0  0  0  0  0
   -3.3080    0.2358   -4.4980 H   0  0  0  0  0  0  0  0  0  0  0  0
    2.1576    0.6249    1.0963 N   0  0  0  0  0  0  0  0  0  0  0  0
    3.2720    0.9690    1.9499 C   0  0  2  0  0  0  0  0  0  0  0  0
    4.4483    1.3453    1.0587 C   0  0  0  0  0  0  0  0  0  0  0  0
    4.5513    0.9739   -0.1086 O   0  0  0  0  0  0  0  0  0  0  0  0
    3.6369   -0.1821    2.8743 C   0  0  0  0  0  0  0  0  0  0  0  0
    1.6687   -0.2484    1.2700 H   0  0  0  0  0  0  0  0  0  0  0  0
    2.9636    1.8413    2.5363 H   0  0  0  0  0  0  0  0  0  0  0  0
    3.9485   -1.0652    2.3047 H   0  0  0  0  0  0  0  0  0  0  0  0
    4.4626    0.0901    3.5400 H   0  0  0  0  0  0  0  0  0  0  0  0
    2.7808   -0.4710    3.4936 H   0  0  0  0  0  0  0  0  0  0  0  0
    5.3907    2.1089    1.7332 N   0  0  0  0  0  0  0  0  0  0  0  0
    6.6042    2.5805    1.1080 C   0  0  0  0  0  0  0  0  0  0  0  0
    5.2140    2.3862    2.6943 H   0  0  0  0  0  0  0  0  0  0  0  0
    7.4135    1.8566    1.2844 H   0  0  0  0  0  0  0  0  0  0  0  0
    6.4402    2.6903    0.0258 H   0  0  0  0  0  0  0  0  0  0  0  0
    6.8832    3.5541    1.5372 H   0  0  0  0  0  0  0  0  0  0  0  0
 22 24  2  0  0  0  0
 24 26  1  0  0  0  0
 23 25  2  0  0  0  0
 25 26  1  0  0  0  0
 21 22  1  0  0  0  0
 22 23  1  0  0  0  0
  1  3  1  0  0  0  0
  1  7  1  0  0  0  0
  1  2  2  0  0  0  0
 35 36  1  0  0  0  0
 36 44  1  0  0  0  0
 36 37  2  0  0  0  0
  8  9  1  0  0  0  0
  9 17  1  0  0  0  0
  9 10  2  0  0  0  0
 18 19  1  0  0  0  0
 19 34  1  0  0  0  0
 19 20  2  0  0  0  0
 35 38  1  0  0  0  0
  8 11  1  0  0  0  0
 44 45  1  0  0  0  0
 18 21  1  0  0  0  0
 34 35  1  0  0  0  0
  7  8  1  0  0  0  0
 17 18  1  0  0  0  0
 24 31  1  0  0  0  0
 25 32  1  0  0  0  0
  3  4  1  0  0  0  0
  3  5  1  0  0  0  0
  3  6  1  0  0  0  0
 38 41  1  0  0  0  0
 38 42  1  0  0  0  0
 38 43  1  0  0  0  0
 11 14  1  0  0  0  0
 11 15  1  0  0  0  0
 11 16  1  0  0  0  0
 45 47  1  0  0  0  0
 45 48  1  0  0  0  0
 45 49  1  0  0  0  0
 21 29  1  0  0  0  0
 21 30  1  0  0  0  0
 35 40  1  0  0  0  0
  8 13  1  0  0  0  0
 18 28  1  0  0  0  0
 26 33  1  0  0  0  0
 44 46  1  0  0  0  0
  7 12  1  0  0  0  0
 34 39  1  0  0  0  0
 17 27  1  0  0  0  0
M  END
$$$$

  -OEChem-05262214473D

 49 49  0     1  0  0  0  0  0999 V2000
   -1.6183    0.5613    3.8201 C   0  0  0  0  0  0  0  0  0  0  0  0
   -0.6710   -0.0534    3.3444 O   0  0  0  0  0  0  0  0  0  0  0  0
   -2.0502    0.2789    5.2208 C   0  0  0  0  0  0  0  0  0  0  0  0
   -2.8099   -0.5175    5.2742 H   0  0  0  0  0  0  0  0  0  0  0  0
   -1.2190   -0.0687    5.8551 H   0  0  0  0  0  0  0  0  0  0  0  0
   -2.4882    1.1338    5.7604 H   0  0  0  0  0  0  0  0  0  0  0  0
   -2.3680    1.5337    3.1790 N   0  0  0  0  0  0  0  0  0  0  0  0
   -2.1212    1.9597    1.8266 C   0  0  2  0  0  0  0  0  0  0  0  0
   -0.7862    1.3744    1.3854 C   0  0  0  0  0  0  0  0  0  0  0  0
    0.0859    1.0216    2.1767 O   0  0  0  0  0  0  0  0  0  0  0  0
   -2.1124    3.4765    1.7171 C   0  0  0  0  0  0  0  0  0  0  0  0
   -3.1331    1.9695    3.6908 H   0  0  0  0  0  0  0  0  0  0  0  0
   -2.9253    1.5413    1.2115 H   0  0  0  0  0  0  0  0  0  0  0  0
   -1.3133    3.9138    2.3268 H   0  0  0  0  0  0  0  0  0  0  0  0
   -1.9529    3.7988    0.6829 H   0  0  0  0  0  0  0  0  0  0  0  0
   -3.0626    3.8977    2.0629 H   0  0  0  0  0  0  0  0  0  0  0  0
   -0.6635    1.3313    0.0020 N   0  0  0  0  0  0  0  0  0  0  0  0
    0.5138    0.8305   -0.6617 C   0  0  2  0  0  0  0  0  0  0  0  0
    1.7218    1.4276    0.0513 C   0  0  0  0  0  0  0  0  0  0  0  0
    2.0471    2.6080   -0.0579 O   0  0  0  0  0  0  0  0  0  0  0  0
    0.5390    1.1961   -2.1502 C   0  0  0  0  0  0  0  0  0  0  0  0
   -0.5898    0.5623   -2.9261 C   0  0  0  0  0  0  0  0  0  0  0  0
   -0.5571   -0.7731   -3.2412 N   0  0  0  0  0  0  0  0  0  0  0  0
   -1.7331    1.1576   -3.4046 C   0  0  0  0  0  0  0  0  0  0  0  0
   -1.6712   -0.9877   -3.9052 C   0  0  0  0  0  0  0  0  0  0  0  0
   -2.4156    0.1523   -4.0298 N   0  0  0  0  0  0  0  0  0  0  0  0
   -1.4467    1.6280   -0.5753 H   0  0  0  0  0  0  0  0  0  0  0  0
    0.5141   -0.2566   -0.5191 H   0  0  0  0  0  0  0  0  0  0  0  0
    1.5008    0.9088   -2.5963 H   0  0  0  0  0  0  0  0  0  0  0  0
    0.4758    2.2847   -2.2789 H   0  0  0  0  0  0  0  0  0  0  0  0
   -2.1127    2.1683   -3.3613 H   0  0  0  0  0  0  0  0  0  0  0  0
   -1.9949   -1.9330   -4.3174 H   0  0  0  0  0  0  0  0  0  0  0  0
   -3.3080    0.2358   -4.4980 H   0  0  0  0  0  0  0  0  0  0  0  0
    2.3599    0.4976    0.8602 N   0  0  0  0  0  0  0  0  0  0  0  0
    3.5194    0.8087    1.6648 C   0  0  2  0  0  0  0  0  0  0  0  0
    4.5377    1.5062    0.7725 C   0  0  0  0  0  0  0  0  0  0  0  0
    4.5473    1.3911   -0.4514 O   0  0  0  0  0  0  0  0  0  0  0  0
    4.1123   -0.4449    2.2890 C   0  0  0  0  0  0  0  0  0  0  0  0
    1.9934   -0.4493    0.8880 H   0  0  0  0  0  0  0  0  0  0  0  0
    3.1855    1.4987    2.4474 H   0  0  0  0  0  0  0  0  0  0  0  0
    4.4525   -1.1483    1.5203 H   0  0  0  0  0  0  0  0  0  0  0  0
    4.9734   -0.2043    2.9212 H   0  0  0  0  0  0  0  0  0  0  0  0
    3.3695   -0.9614    2.9067 H   0  0  0  0  0  0  0  0  0  0  0  0
    5.4607    2.2377    1.5067 N   0  0  0  0  0  0  0  0  0  0  0  0
    6.5354    2.9797    0.8901 C   0  0  0  0  0  0  0  0  0  0  0  0
    5.3652    2.2926    2.5165 H   0  0  0  0  0  0  0  0  0  0  0  0
    7.4345    2.3481    0.8371 H   0  0  0  0  0  0  0  0  0  0  0  0
    6.2380    3.2800   -0.1255 H   0  0  0  0  0  0  0  0  0  0  0  0
    6.7523    3.8766    1.4889 H   0  0  0  0  0  0  0  0  0  0  0  0
 22 24  2  0  0  0  0
 24 26  1  0  0  0  0
 23 25  2  0  0  0  0
 25 26  1  0  0  0  0
 21 22  1  0  0  0  0
 22 23  1  0  0  0  0
  1  3  1  0  0  0  0
  1  7  1  0  0  0  0
  1  2  2  0  0  0  0
 35 36  1  0  0  0  0
 36 44  1  0  0  0  0
 36 37  2  0  0  0  0
  8  9  1  0  0  0  0
  9 17  1  0  0  0  0
  9 10  2  0  0  0  0
 18 19  1  0  0  0  0
 19 34  1  0  0  0  0
 19 20  2  0  0  0  0
 35 38  1  0  0  0  0
  8 11  1  0  0  0  0
 44 45  1  0  0  0  0
 18 21  1  0  0  0  0
 34 35  1  0  0  0  0
  7  8  1  0  0  0  0
 17 18  1  0  0  0  0
 24 31  1  0  0  0  0
 25 32  1  0  0  0  0
  3  4  1  0  0  0  0
  3  5  1  0  0  0  0
  3  6  1  0  0  0  0
 38 41  1  0  0  0  0
 38 42  1  0  0  0  0
 38 43  1  0  0  0  0
 11 14  1  0  0  0  0
 11 15  1  0  0  0  0
 11 16  1  0  0  0  0
 45 47  1  0  0  0  0
 45 48  1  0  0  0  0
 45 49  1  0  0  0  0
 21 29  1  0  0  0  0
 21 30  1  0  0  0  0
 35 40  1  0  0  0  0
  8 13  1  0  0  0  0
 18 28  1  0  0  0  0
 26 33  1  0  0  0  0
 44 46  1  0  0  0  0
  7 12  1  0  0  0  0
 34 39  1  0  0  0  0
 17 27  1  0  0  0  0
M  END
$$$$

  -OEChem-05262214473D

 49 49  0     1  0  0  0  0  0999 V2000
   -1.6183    0.5613    3.8201 C   0  0  0  0  0  0  0  0  0  0  0  0
   -0.6710   -0.0534    3.3444 O   0  0  0  0  0  0  0  0  0  0  0  0
   -2.0502    0.2789    5.2208 C   0  0  0  0  0  0  0  0  0  0  0  0
   -2.8099   -0.5175    5.2742 H   0  0  0  0  0  0  0  0  0  0  0  0
   -1.2190   -0.0687    5.8551 H   0  0  0  0  0  0  0  0  0  0  0  0
   -2.4882    1.1338    5.7604 H   0  0  0  0  0  0  0  0  0  0  0  0
   -2.3680    1.5337    3.1790 N   0  0  0  0  0  0  0  0  0  0  0  0
   -2.1212    1.9597    1.8266 C   0  0  2  0  0  0  0  0  0  0  0  0
   -0.7862    1.3744    1.3854 C   0  0  0  0  0  0  0  0  0  0  0  0
    0.0859    1.0216    2.1767 O   0  0  0  0  0  0  0  0  0  0  0  0
   -2.1124    3.4765    1.7171 C   0  0  0  0  0  0  0  0  0  0  0  0
   -3.1331    1.9695    3.6908 H   0  0  0  0  0  0  0  0  0  0  0  0
   -2.9253    1.5413    1.2115 H   0  0  0  0  0  0  0  0  0  0  0  0
   -1.3133    3.9138    2.3268 H   0  0  0  0  0  0  0  0  0  0  0  0
   -1.9529    3.7988    0.6829 H   0  0  0  0  0  0  0  0  0  0  0  0
   -3.0626    3.8977    2.0629 H   0  0  0  0  0  0  0  0  0  0  0  0
   -0.6635    1.3313    0.0020 N   0  0  0  0  0  0  0  0  0  0  0  0
    0.5138    0.8305   -0.6617 C   0  0  2  0  0  0  0  0  0  0  0  0
    1.7218    1.4276    0.0513 C   0  0  0  0  0  0  0  0  0  0  0  0
    1.9002    2.6384    0.1656 O   0  0  0  0  0  0  0  0  0  0  0  0
    0.5390    1.1961   -2.1502 C   0  0  0  0  0  0  0  0  0  0  0  0
   -0.5898    0.5623   -2.9261 C   0  0  0  0  0  0  0  0  0  0  0  0
   -0.5571   -0.7731   -3.2412 N   0  0  0  0  0  0  0  0  0  0  0  0
   -1.7331    1.1576   -3.4046 C   0  0  0  0  0  0  0  0  0  0  0  0
   -1.6712   -0.9877   -3.9052 C   0  0  0  0  0  0  0  0  0  0  0  0
   -2.4156    0.1523   -4.0298 N   0  0  0  0  0  0  0  0  0  0  0  0
   -1.4467    1.6280   -0.5753 H   0  0  0  0  0  0  0  0  0  0  0  0
    0.5141   -0.2566   -0.5191 H   0  0  0  0  0  0  0  0  0  0  0  0
    1.5008    0.9088   -2.5963 H   0  0  0  0  0  0  0  0  0  0  0  0
    0.4758    2.2847   -2.2789 H   0  0  0  0  0  0  0  0  0  0  0  0
   -2.1127    2.1683   -3.3613 H   0  0  0  0  0  0  0  0  0  0  0  0
   -1.9949   -1.9330   -4.3174 H   0  0  0  0  0  0  0  0  0  0  0  0
   -3.3080    0.2358   -4.4980 H   0  0  0  0  0  0  0  0  0  0  0  0
    2.5467    0.4476    0.5854 N   0  0  0  0  0  0  0  0  0  0  0  0
    3.7490    0.7423    1.3315 C   0  0  2  0  0  0  0  0  0  0  0  0
    4.5755    1.7311    0.5199 C   0  0  0  0  0  0  0  0  0  0  0  0
    4.4582    1.8640   -0.6965 O   0  0  0  0  0  0  0  0  0  0  0  0
    4.5439   -0.5213    1.6216 C   0  0  0  0  0  0  0  0  0  0  0  0
    2.2927   -0.5258    0.4450 H   0  0  0  0  0  0  0  0  0  0  0  0
    3.4323    1.2128    2.2687 H   0  0  0  0  0  0  0  0  0  0  0  0
    4.8699   -1.0067    0.6944 H   0  0  0  0  0  0  0  0  0  0  0  0
    5.4396   -0.2999    2.2113 H   0  0  0  0  0  0  0  0  0  0  0  0
    3.9381   -1.2434    2.1795 H   0  0  0  0  0  0  0  0  0  0  0  0
    5.4897    2.4170    1.3073 N   0  0  0  0  0  0  0  0  0  0  0  0
    6.3986    3.4017    0.7685 C   0  0  0  0  0  0  0  0  0  0  0  0
    5.5045    2.2569    2.3103 H   0  0  0  0  0  0  0  0  0  0  0  0
    7.3500    2.9172    0.5037 H   0  0  0  0  0  0  0  0  0  0  0  0
    5.9560    3.8561   -0.1302 H   0  0  0  0  0  0  0  0  0  0  0  0
    6.5819    4.1822    1.5217 H   0  0  0  0  0  0  0  0  0  0  0  0
 22 24  2  0  0  0  0
 24 26  1  0  0  0  0
 23 25  2  0  0  0  0
 25 26  1  0  0  0  0
 21 22  1  0  0  0  0
 22 23  1  0  0  0  0
  1  3  1  0  0  0  0
  1  7  1  0  0  0  0
  1  2  2  0  0  0  0
 35 36  1  0  0  0  0
 36 44  1  0  0  0  0
 36 37  2  0  0  0  0
  8  9  1  0  0  0  0
  9 17  1  0  0  0  0
  9 10  2  0  0  0  0
 18 19  1  0  0  0  0
 19 34  1  0  0  0  0
 19 20  2  0  0  0  0
 35 38  1  0  0  0  0
  8 11  1  0  0  0  0
 44 45  1  0  0  0  0
 18 21  1  0  0  0  0
 34 35  1  0  0  0  0
  7  8  1  0  0  0  0
 17 18  1  0  0  0  0
 24 31  1  0  0  0  0
 25 32  1  0  0  0  0
  3  4  1  0  0  0  0
  3  5  1  0  0  0  0
  3  6  1  0  0  0  0
 38 41  1  0  0  0  0
 38 42  1  0  0  0  0
 38 43  1  0  0  0  0
 11 14  1  0  0  0  0
 11 15  1  0  0  0  0
 11 16  1  0  0  0  0
 45 47  1  0  0  0  0
 45 48  1  0  0  0  0
 45 49  1  0  0  0  0
 21 29  1  0  0  0  0
 21 30  1  0  0  0  0
 35 40  1  0  0  0  0
  8 13  1  0  0  0  0
 18 28  1  0  0  0  0
 26 33  1  0  0  0  0
 44 46  1  0  0  0  0
  7 12  1  0  0  0  0
 34 39  1  0  0  0  0
 17 27  1  0  0  0  0
M  END
$$$$

  -OEChem-05262214473D

 49 49  0     1  0  0  0  0  0999 V2000
   -1.6183    0.5613    3.8201 C   0  0  0  0  0  0  0  0  0  0  0  0
   -0.6710   -0.0534    3.3444 O   0  0  0  0  0  0  0  0  0  0  0  0
   -2.0502    0.2789    5.2208 C   0  0  0  0  0  0  0  0  0  0  0  0
   -2.8099   -0.5175    5.2742 H   0  0  0  0  0  0  0  0  0  0  0  0
   -1.2190   -0.0687    5.8551 H   0  0  0  0  0  0  0  0  0  0  0  0
   -2.4882    1.1338    5.7604 H   0  0  0  0  0  0  0  0  0  0  0  0
   -2.3680    1.5337    3.1790 N   0  0  0  0  0  0  0  0  0  0  0  0
   -2.1212    1.9597    1.8266 C   0  0  2  0  0  0  0  0  0  0  0  0
   -0.7862    1.3744    1.3854 C   0  0  0  0  0  0  0  0  0  0  0  0
    0.0859    1.0216    2.1767 O   0  0  0  0  0  0  0  0  0  0  0  0
   -2.1124    3.4765    1.7171 C   0  0  0  0  0  0  0  0  0  0  0  0
   -3.1331    1.9695    3.6908 H   0  0  0  0  0  0  0  0  0  0  0  0
   -2.9253    1.5413    1.2115 H   0  0  0  0  0  0  0  0  0  0  0  0
   -1.3133    3.9138    2.3268 H   0  0  0  0  0  0  0  0  0  0  0  0
   -1.9529    3.7988    0.6829 H   0  0  0  0  0  0  0  0  0  0  0  0
   -3.0626    3.8977    2.0629 H   0  0  0  0  0  0  0  0  0  0  0  0
   -0.6635    1.3313    0.0020 N   0  0  0  0  0  0  0  0  0  0  0  0
    0.5138    0.8305   -0.6617 C   0  0  2  0  0  0  0  0  0  0  0  0
    1.7218    1.4276    0.0513 C   0  0  0  0  0  0  0  0  0  0  0  0
    1.7772    2.6043    0.4026 O   0  0  0  0  0  0  0  0  0  0  0  0
    0.5390    1.1961   -2.1502 C   0  0  0  0  0  0  0  0  0  0  0  0
   -0.5898    0.5623   -2.9261 C   0  0  0  0  0  0  0  0  0  0  0  0
   -0.5571   -0.7731   -3.2412 N   0  0  0  0  0  0  0  0  0  0  0  0
   -1.7331    1.1576   -3.4046 C   0  0  0  0  0  0  0  0  0  0  0  0
   -1.6712   -0.9877   -3.9052 C   0  0  0  0  0  0  0  0  0  0  0  0
   -2.4156    0.1523   -4.0298 N   0  0  0  0  0  0  0  0  0  0  0  0
   -1.4467    1.6280   -0.5753 H   0  0  0  0  0  0  0  0  0  0  0  0
    0.5141   -0.2566   -0.5191 H   0  0  0  0  0  0  0  0  0  0  0  0
    1.5008    0.9088   -2.5963 H   0  0  0  0  0  0  0  0  0  0  0  0
    0.4758    2.2847   -2.2789 H   0  0  0  0  0  0  0  0  0  0  0  0
   -2.1127    2.1683   -3.3613 H   0  0  0  0  0  0  0  0  0  0  0  0
   -1.9949   -1.9330   -4.3174 H   0  0  0  0  0  0  0  0  0  0  0  0
   -3.3080    0.2358   -4.4980 H   0  0  0  0  0  0  0  0  0  0  0  0
    2.7054    0.4782    0.2909 N   0  0  0  0  0  0  0  0  0  0  0  0
    3.9449    0.7743    0.9726 C   0  0  2  0  0  0  0  0  0  0  0  0
    4.5592    2.0047    0.3183 C   0  0  0  0  0  0  0  0  0  0  0  0
    4.2901    2.3602   -0.8272 O   0  0  0  0  0  0  0  0  0  0  0  0
    4.9024   -0.4059    0.9174 C   0  0  0  0  0  0  0  0  0  0  0  0
    2.5461   -0.4726   -0.0290 H   0  0  0  0  0  0  0  0  0  0  0  0
    3.6871    1.0032    2.0124 H   0  0  0  0  0  0  0  0  0  0  0  0
    5.1722   -0.6500   -0.1166 H   0  0  0  0  0  0  0  0  0  0  0  0
    5.8295   -0.1903    1.4587 H   0  0  0  0  0  0  0  0  0  0  0  0
    4.4476   -1.2978    1.3617 H   0  0  0  0  0  0  0  0  0  0  0  0
    5.4759    2.6346    1.1485 N   0  0  0  0  0  0  0  0  0  0  0  0
    6.2030    3.8176    0.7515 C   0  0  0  0  0  0  0  0  0  0  0  0
    5.6225    2.2817    2.0897 H   0  0  0  0  0  0  0  0  0  0  0  0
    7.1657    3.5250    0.3069 H   0  0  0  0  0  0  0  0  0  0  0  0
    5.6134    4.3793    0.0120 H   0  0  0  0  0  0  0  0  0  0  0  0
    6.3837    4.4500    1.6332 H   0  0  0  0  0  0  0  0  0  0  0  0
 22 24  2  0  0  0  0
 24 26  1  0  0  0  0
 23 25  2  0  0  0  0
 25 26  1  0  0  0  0
 21 22  1  0  0  0  0
 22 23  1  0  0  0  0
  1  3  1  0  0  0  0
  1  7  1  0  0  0  0
  1  2  2  0  0  0  0
 35 36  1  0  0  0  0
 36 44  1  0  0  0  0
 36 37  2  0  0  0  0
  8  9  1  0  0  0  0
  9 17  1  0  0  0  0
  9 10  2  0  0  0  0
 18 19  1  0  0  0  0
 19 34  1  0  0  0  0
 19 20  2  0  0  0  0
 35 38  1  0  0  0  0
  8 11  1  0  0  0  0
 44 45  1  0  0  0  0
 18 21  1  0  0  0  0
 34 35  1  0  0  0  0
  7  8  1  0  0  0  0
 17 18  1  0  0  0  0
 24 31  1  0  0  0  0
 25 32  1  0  0  0  0
  3  4  1  0  0  0  0
  3  5  1  0  0  0  0
  3  6  1  0  0  0  0
 38 41  1  0  0  0  0
 38 42  1  0  0  0  0
 38 43  1  0  0  0  0
 11 14  1  0  0  0  0
 11 15  1  0  0  0  0
 11 16  1  0  0  0  0
 45 47  1  0  0  0  0
 45 48  1  0  0  0  0
 45 49  1  0  0  0  0
 21 29  1  0  0  0  0
 21 30  1  0  0  0  0
 35 40  1  0  0  0  0
  8 13  1  0  0  0  0
 18 28  1  0  0  0  0
 26 33  1  0  0  0  0
 44 46  1  0  0  0  0
  7 12  1  0  0  0  0
 34 39  1  0  0  0  0
 17 27  1  0  0  0  0
M  END
$$$$

  -OEChem-05262214473D

 49 49  0     1  0  0  0  0  0999 V2000
   -1.6183    0.5613    3.8201 C   0  0  0  0  0  0  0  0  0  0  0  0
   -0.6710   -0.0534    3.3444 O   0  0  0  0  0  0  0  0  0  0  0  0
   -2.0502    0.2789    5.2208 C   0  0  0  0  0  0  0  0  0  0  0  0
   -2.8099   -0.5175    5.2742 H   0  0  0  0  0  0  0  0  0  0  0  0
   -1.2190   -0.0687    5.8551 H   0  0  0  0  0  0  0  0  0  0  0  0
   -2.4882    1.1338    5.7604 H   0  0  0  0  0  0  0  0  0  0  0  0
   -2.3680    1.5337    3.1790 N   0  0  0  0  0  0  0  0  0  0  0  0
   -2.1212    1.9597    1.8266 C   0  0  2  0  0  0  0  0  0  0  0  0
   -0.7862    1.3744    1.3854 C   0  0  0  0  0  0  0  0  0  0  0  0
    0.0859    1.0216    2.1767 O   0  0  0  0  0  0  0  0  0  0  0  0
   -2.1124    3.4765    1.7171 C   0  0  0  0  0  0  0  0  0  0  0  0
   -3.1331    1.9695    3.6908 H   0  0  0  0  0  0  0  0  0  0  0  0
   -2.9253    1.5413    1.2115 H   0  0  0  0  0  0  0  0  0  0  0  0
   -1.3133    3.9138    2.3268 H   0  0  0  0  0  0  0  0  0  0  0  0
   -1.9529    3.7988    0.6829 H   0  0  0  0  0  0  0  0  0  0  0  0
   -3.0626    3.8977    2.0629 H   0  0  0  0  0  0  0  0  0  0  0  0
   -0.6635    1.3313    0.0020 N   0  0  0  0  0  0  0  0  0  0  0  0
    0.5138    0.8305   -0.6617 C   0  0  2  0  0  0  0  0  0  0  0  0
    1.7218    1.4276    0.0513 C   0  0  0  0  0  0  0  0  0  0  0  0
    1.6866    2.5078    0.6369 O   0  0  0  0  0  0  0  0  0  0  0  0
    0.5390    1.1961   -2.1502 C   0  0  0  0  0  0  0  0  0  0  0  0
   -0.5898    0.5623   -2.9261 C   0  0  0  0  0  0  0  0  0  0  0  0
   -0.5571   -0.7731   -3.2412 N   0  0  0  0  0  0  0  0  0  0  0  0
   -1.7331    1.1576   -3.4046 C   0  0  0  0  0  0  0  0  0  0  0  0
   -1.6712   -0.9877   -3.9052 C   0  0  0  0  0  0  0  0  0  0  0  0
   -2.4156    0.1523   -4.0298 N   0  0  0  0  0  0  0  0  0  0  0  0
   -1.4467    1.6280   -0.5753 H   0  0  0  0  0  0  0  0  0  0  0  0
    0.5141   -0.2566   -0.5191 H   0  0  0  0  0  0  0  0  0  0  0  0
    1.5008    0.9088   -2.5963 H   0  0  0  0  0  0  0  0  0  0  0  0
    0.4758    2.2847   -2.2789 H   0  0  0  0  0  0  0  0  0  0  0  0
   -2.1127    2.1683   -3.3613 H   0  0  0  0  0  0  0  0  0  0  0  0
   -1.9949   -1.9330   -4.3174 H   0  0  0  0  0  0  0  0  0  0  0  0
   -3.3080    0.2358   -4.4980 H   0  0  0  0  0  0  0  0  0  0  0  0
    2.8252    0.5874   -0.0034 N   0  0  0  0  0  0  0  0  0  0  0  0
    4.0939    0.9025    0.6127 C   0  0  2  0  0  0  0  0  0  0  0  0
    4.4900    2.3084    0.1813 C   0  0  0  0  0  0  0  0  0  0  0  0
    4.0543    2.8460   -0.8347 O   0  0  0  0  0  0  0  0  0  0  0  0
    5.1634   -0.1066    0.2246 C   0  0  0  0  0  0  0  0  0  0  0  0
    2.7364   -0.2934   -0.5016 H   0  0  0  0  0  0  0  0  0  0  0  0
    3.9327    0.8841    1.6961 H   0  0  0  0  0  0  0  0  0  0  0  0
    5.3388   -0.1026   -0.8574 H   0  0  0  0  0  0  0  0  0  0  0  0
    6.1166    0.1171    0.7147 H   0  0  0  0  0  0  0  0  0  0  0  0
    4.8635   -1.1210    0.5089 H   0  0  0  0  0  0  0  0  0  0  0  0
    5.4200    2.8756    1.0412 N   0  0  0  0  0  0  0  0  0  0  0  0
    5.9621    4.1992    0.8402 C   0  0  0  0  0  0  0  0  0  0  0  0
    5.7111    2.3651    1.8696 H   0  0  0  0  0  0  0  0  0  0  0  0
    6.8941    4.1301    0.2601 H   0  0  0  0  0  0  0  0  0  0  0  0
    5.2336    4.8142    0.2914 H   0  0  0  0  0  0  0  0  0  0  0  0
    6.1711    4.6618    1.8161 H   0  0  0  0  0  0  0  0  0  0  0  0
 22 24  2  0  0  0  0
 24 26  1  0  0  0  0
 23 25  2  0  0  0  0
 25 26  1  0  0  0  0
 21 22  1  0  0  0  0
 22 23  1  0  0  0  0
  1  3  1  0  0  0  0
  1  7  1  0  0  0  0
  1  2  2  0  0  0  0
 35 36  1  0  0  0  0
 36 44  1  0  0  0  0
 36 37  2  0  0  0  0
  8  9  1  0  0  0  0
  9 17  1  0  0  0  0
  9 10  2  0  0  0  0
 18 19  1  0  0  0  0
 19 34  1  0  0  0  0
 19 20  2  0  0  0  0
 35 38  1  0  0  0  0
  8 11  1  0  0  0  0
 44 45  1  0  0  0  0
 18 21  1  0  0  0  0
 34 35  1  0  0  0  0
  7  8  1  0  0  0  0
 17 18  1  0  0  0  0
 24 31  1  0  0  0  0
 25 32  1  0  0  0  0
  3  4  1  0  0  0  0
  3  5  1  0  0  0  0
  3  6  1  0  0  0  0
 38 41  1  0  0  0  0
 38 42  1  0  0  0  0
 38 43  1  0  0  0  0
 11 14  1  0  0  0  0
 11 15  1  0  0  0  0
 11 16  1  0  0  0  0
 45 47  1  0  0  0  0
 45 48  1  0  0  0  0
 45 49  1  0  0  0  0
 21 29  1  0  0  0  0
 21 30  1  0  0  0  0
 35 40  1  0  0  0  0
  8 13  1  0  0  0  0
 18 28  1  0  0  0  0
 26 33  1  0  0  0  0
 44 46  1  0  0  0  0
  7 12  1  0  0  0  0
 34 39  1  0  0  0  0
 17 27  1  0  0  0  0
M  END
$$$$

  -OEChem-05262214473D

 49 49  0     1  0  0  0  0  0999 V2000
   -1.6183    0.5613    3.8201 C   0  0  0  0  0  0  0  0  0  0  0  0
   -0.6710   -0.0534    3.3444 O   0  0  0  0  0  0  0  0  0  0  0  0
   -2.0502    0.2789    5.2208 C   0  0  0  0  0  0  0  0  0  0  0  0
   -2.8099   -0.5175    5.2742 H   0  0  0  0  0  0  0  0  0  0  0  0
   -1.2190   -0.0687    5.8551 H   0  0  0  0  0  0  0  0  0  0  0  0
   -2.4882    1.1338    5.7604 H   0  0  0  0  0  0  0  0  0  0  0  0
   -2.3680    1.5337    3.1790 N   0  0  0  0  0  0  0  0  0  0  0  0
   -2.1212    1.9597    1.8266 C   0  0  2  0  0  0  0  0  0  0  0  0
   -0.7862    1.3744    1.3854 C   0  0  0  0  0  0  0  0  0  0  0  0
    0.0859    1.0216    2.1767 O   0  0  0  0  0  0  0  0  0  0  0  0
   -2.1124    3.4765    1.7171 C   0  0  0  0  0  0  0  0  0  0  0  0
   -3.1331    1.9695    3.6908 H   0  0  0  0  0  0  0  0  0  0  0  0
   -2.9253    1.5413    1.2115 H   0  0  0  0  0  0  0  0  0  0  0  0
   -1.3133    3.9138    2.3268 H   0  0  0  0  0  0  0  0  0  0  0  0
   -1.9529    3.7988    0.6829 H   0  0  0  0  0  0  0  0  0  0  0  0
   -3.0626    3.8977    2.0629 H   0  0  0  0  0  0  0  0  0  0  0  0
   -0.6635    1.3313    0.0020 N   0  0  0  0  0  0  0  0  0  0  0  0
    0.5138    0.8305   -0.6617 C   0  0  2  0  0  0  0  0  0  0  0  0
    1.7218    1.4276    0.0513 C   0  0  0  0  0  0  0  0  0  0  0  0
    1.6345    2.3555    0.8527 O   0  0  0  0  0  0  0  0  0  0  0  0
    0.5390    1.1961   -2.1502 C   0  0  0  0  0  0  0  0  0  0  0  0
   -0.5898    0.5623   -2.9261 C   0  0  0  0  0  0  0  0  0  0  0  0
   -0.5571   -0.7731   -3.2412 N   0  0  0  0  0  0  0  0  0  0  0  0
   -1.7331    1.1576   -3.4046 C   0  0  0  0  0  0  0  0  0  0  0  0
   -1.6712   -0.9877   -3.9052 C   0  0  0  0  0  0  0  0  0  0  0  0
   -2.4156    0.1523   -4.0298 N   0  0  0  0  0  0  0  0  0  0  0  0
   -1.4467    1.6280   -0.5753 H   0  0  0  0  0  0  0  0  0  0  0  0
    0.5141   -0.2566   -0.5191 H   0  0  0  0  0  0  0  0  0  0  0  0
    1.5008    0.9088   -2.5963 H   0  0  0  0  0  0  0  0  0  0  0  0
    0.4758    2.2847   -2.2789 H   0  0  0  0  0  0  0  0  0  0  0  0
   -2.1127    2.1683   -3.3613 H   0  0  0  0  0  0  0  0  0  0  0  0
   -1.9949   -1.9330   -4.3174 H   0  0  0  0  0  0  0  0  0  0  0  0
   -3.3080    0.2358   -4.4980 H   0  0  0  0  0  0  0  0  0  0  0  0
    2.8977    0.7677   -0.2775 N   0  0  0  0  0  0  0  0  0  0  0  0
    4.1859    1.1182    0.2763 C   0  0  2  0  0  0  0  0  0  0  0  0
    4.3724    2.6215    0.1183 C   0  0  0  0  0  0  0  0  0  0  0  0
    3.7671    3.2883   -0.7184 O   0  0  0  0  0  0  0  0  0  0  0  0
    5.3090    0.3561   -0.4097 C   0  0  0  0  0  0  0  0  0  0  0  0
    2.8506   -0.0002   -0.9406 H   0  0  0  0  0  0  0  0  0  0  0  0
    4.1522    0.8637    1.3412 H   0  0  0  0  0  0  0  0  0  0  0  0
    5.3583    0.5982   -1.4776 H   0  0  0  0  0  0  0  0  0  0  0  0
    6.2813    0.6014    0.0301 H   0  0  0  0  0  0  0  0  0  0  0  0
    5.1574   -0.7250   -0.3207 H   0  0  0  0  0  0  0  0  0  0  0  0
    5.3261    3.1238    0.9926 N   0  0  0  0  0  0  0  0  0  0  0  0
    5.6921    4.5204    1.0285 C   0  0  0  0  0  0  0  0  0  0  0  0
    5.7643    2.5015    1.6653 H   0  0  0  0  0  0  0  0  0  0  0  0
    6.5538    4.6913    0.3666 H   0  0  0  0  0  0  0  0  0  0  0  0
    4.8423    5.1309    0.6890 H   0  0  0  0  0  0  0  0  0  0  0  0
    5.9587    4.8031    2.0576 H   0  0  0  0  0  0  0  0  0  0  0  0
 22 24  2  0  0  0  0
 24 26  1  0  0  0  0
 23 25  2  0  0  0  0
 25 26  1  0  0  0  0
 21 22  1  0  0  0  0
 22 23  1  0  0  0  0
  1  3  1  0  0  0  0
  1  7  1  0  0  0  0
  1  2  2  0  0  0  0
 35 36  1  0  0  0  0
 36 44  1  0  0  0  0
 36 37  2  0  0  0  0
  8  9  1  0  0  0  0
  9 17  1  0  0  0  0
  9 10  2  0  0  0  0
 18 19  1  0  0  0  0
 19 34  1  0  0  0  0
 19 20  2  0  0  0  0
 35 38  1  0  0  0  0
  8 11  1  0  0  0  0
 44 45  1  0  0  0  0
 18 21  1  0  0  0  0
 34 35  1  0  0  0  0
  7  8  1  0  0  0  0
 17 18  1  0  0  0  0
 24 31  1  0  0  0  0
 25 32  1  0  0  0  0
  3  4  1  0  0  0  0
  3  5  1  0  0  0  0
  3  6  1  0  0  0  0
 38 41  1  0  0  0  0
 38 42  1  0  0  0  0
 38 43  1  0  0  0  0
 11 14  1  0  0  0  0
 11 15  1  0  0  0  0
 11 16  1  0  0  0  0
 45 47  1  0  0  0  0
 45 48  1  0  0  0  0
 45 49  1  0  0  0  0
 21 29  1  0  0  0  0
 21 30  1  0  0  0  0
 35 40  1  0  0  0  0
  8 13  1  0  0  0  0
 18 28  1  0  0  0  0
 26 33  1  0  0  0  0
 44 46  1  0  0  0  0
  7 12  1  0  0  0  0
 34 39  1  0  0  0  0
 17 27  1  0  0  0  0
M  END
$$$$

  -OEChem-05262214473D

 49 49  0     1  0  0  0  0  0999 V2000
   -1.6183    0.5613    3.8201 C   0  0  0  0  0  0  0  0  0  0  0  0
   -0.6710   -0.0534    3.3444 O   0  0  0  0  0  0  0  0  0  0  0  0
   -2.0502    0.2789    5.2208 C   0  0  0  0  0  0  0  0  0  0  0  0
   -2.8099   -0.5175    5.2742 H   0  0  0  0  0  0  0  0  0  0  0  0
   -1.2190   -0.0687    5.8551 H   0  0  0  0  0  0  0  0  0  0  0  0
   -2.4882    1.1338    5.7604 H   0  0  0  0  0  0  0  0  0  0  0  0
   -2.3680    1.5337    3.1790 N   0  0  0  0  0  0  0  0  0  0  0  0
   -2.1212    1.9597    1.8266 C   0  0  2  0  0  0  0  0  0  0  0  0
   -0.7862    1.3744    1.3854 C   0  0  0  0  0  0  0  0  0  0  0  0
    0.0859    1.0216    2.1767 O   0  0  0  0  0  0  0  0  0  0  0  0
   -2.1124    3.4765    1.7171 C   0  0  0  0  0  0  0  0  0  0  0  0
   -3.1331    1.9695    3.6908 H   0  0  0  0  0  0  0  0  0  0  0  0
   -2.9253    1.5413    1.2115 H   0  0  0  0  0  0  0  0  0  0  0  0
   -1.3133    3.9138    2.3268 H   0  0  0  0  0  0  0  0  0  0  0  0
   -1.9529    3.7988    0.6829 H   0  0  0  0  0  0  0  0  0  0  0  0
   -3.0626    3.8977    2.0629 H   0  0  0  0  0  0  0  0  0  0  0  0
   -0.6635    1.3313    0.0020 N   0  0  0  0  0  0  0  0  0  0  0  0
    0.5138    0.8305   -0.6617 C   0  0  2  0  0  0  0  0  0  0  0  0
    1.7002    1.1073    0.2548 C   0  0  0  0  0  0  0  0  0  0  0  0
    1.5829    1.6255    1.3632 O   0  0  0  0  0  0  0  0  0  0  0  0
    0.7317    1.4885   -2.0290 C   0  0  0  0  0  0  0  0  0  0  0  0
   -0.3740    1.1789   -3.0085 C   0  0  0  0  0  0  0  0  0  0  0  0
   -0.4555   -0.0558   -3.6023 N   0  0  0  0  0  0  0  0  0  0  0  0
   -1.3899    2.0022   -3.4333 C   0  0  0  0  0  0  0  0  0  0  0  0
   -1.5122    0.0163   -4.3809 C   0  0  0  0  0  0  0  0  0  0  0  0
   -2.1105    1.2438   -4.3123 N   0  0  0  0  0  0  0  0  0  0  0  0
   -1.4467    1.6280   -0.5753 H   0  0  0  0  0  0  0  0  0  0  0  0
    0.3805   -0.2534   -0.7587 H   0  0  0  0  0  0  0  0  0  0  0  0
    1.6970    1.1777   -2.4512 H   0  0  0  0  0  0  0  0  0  0  0  0
    0.8016    2.5792   -1.9230 H   0  0  0  0  0  0  0  0  0  0  0  0
   -1.6591    3.0226   -3.2012 H   0  0  0  0  0  0  0  0  0  0  0  0
   -1.8934   -0.7740   -5.0120 H   0  0  0  0  0  0  0  0  0  0  0  0
   -2.9356    1.5362   -4.8187 H   0  0  0  0  0  0  0  0  0  0  0  0
    2.8950    0.6611   -0.2929 N   0  0  0  0  0  0  0  0  0  0  0  0
    4.1690    0.7792    0.3791 C   0  0  2  0  0  0  0  0  0  0  0  0
    4.3200    2.2192    0.8513 C   0  0  0  0  0  0  0  0  0  0  0  0
    3.7061    3.1579    0.3482 O   0  0  0  0  0  0  0  0  0  0  0  0
    5.3167    0.3845   -0.5373 C   0  0  0  0  0  0  0  0  0  0  0  0
    2.8728    0.2298   -1.2123 H   0  0  0  0  0  0  0  0  0  0  0  0
    4.1319    0.1117    1.2469 H   0  0  0  0  0  0  0  0  0  0  0  0
    5.3698    1.0422   -1.4126 H   0  0  0  0  0  0  0  0  0  0  0  0
    6.2787    0.4471   -0.0180 H   0  0  0  0  0  0  0  0  0  0  0  0
    5.1909   -0.6415   -0.8997 H   0  0  0  0  0  0  0  0  0  0  0  0
    5.2531    2.3388    1.8717 N   0  0  0  0  0  0  0  0  0  0  0  0
    5.5843    3.6058    2.4807 C   0  0  0  0  0  0  0  0  0  0  0  0
    5.7003    1.5046    2.2401 H   0  0  0  0  0  0  0  0  0  0  0  0
    6.4476    4.0481    1.9618 H   0  0  0  0  0  0  0  0  0  0  0  0
    4.7230    4.2857    2.4041 H   0  0  0  0  0  0  0  0  0  0  0  0
    5.8345    3.4489    3.5403 H   0  0  0  0  0  0  0  0  0  0  0  0
 22 24  2  0  0  0  0
 24 26  1  0  0  0  0
 23 25  2  0  0  0  0
 25 26  1  0  0  0  0
 21 22  1  0  0  0  0
 22 23  1  0  0  0  0
  1  3  1  0  0  0  0
  1  7  1  0  0  0  0
  1  2  2  0  0  0  0
 35 36  1  0  0  0  0
 36 44  1  0  0  0  0
 36 37  2  0  0  0  0
  8  9  1  0  0  0  0
  9 17  1  0  0  0  0
  9 10  2  0  0  0  0
 18 19  1  0  0  0  0
 19 34  1  0  0  0  0
 19 20  2  0  0  0  0
 35 38  1  0  0  0  0
  8 11  1  0  0  0  0
 44 45  1  0  0  0  0
 18 21  1  0  0  0  0
 34 35  1  0  0  0  0
  7  8  1  0  0  0  0
 17 18  1  0  0  0  0
 24 31  1  0  0  0  0
 25 32  1  0  0  0  0
  3  4  1  0  0  0  0
  3  5  1  0  0  0  0
  3  6  1  0  0  0  0
 38 41  1  0  0  0  0
 38 42  1  0  0  0  0
 38 43  1  0  0  0  0
 11 14  1  0  0  0  0
 11 15  1  0  0  0  0
 11 16  1  0  0  0  0
 45 47  1  0  0  0  0
 45 48  1  0  0  0  0
 45 49  1  0  0  0  0
 21 29  1  0  0  0  0
 21 30  1  0  0  0  0
 35 40  1  0  0  0  0
  8 13  1  0  0  0  0
 18 28  1  0  0  0  0
 26 33  1  0  0  0  0
 44 46  1  0  0  0  0
  7 12  1  0  0  0  0
 34 39  1  0  0  0  0
 17 27  1  0  0  0  0
M  END
$$$$

  -OEChem-05262214473D

 49 49  0     1  0  0  0  0  0999 V2000
   -1.6183    0.5613    3.8201 C   0  0  0  0  0  0  0  0  0  0  0  0
   -0.6710   -0.0534    3.3444 O   0  0  0  0  0  0  0  0  0  0  0  0
   -2.0502    0.2789    5.2208 C   0  0  0  0  0  0  0  0  0  0  0  0
   -2.8099   -0.5175    5.2742 H   0  0  0  0  0  0  0  0  0  0  0  0
   -1.2190   -0.0687    5.8551 H   0  0  0  0  0  0  0  0  0  0  0  0
   -2.4882    1.1338    5.7604 H   0  0  0  0  0  0  0  0  0  0  0  0
   -2.3680    1.5337    3.1790 N   0  0  0  0  0  0  0  0  0  0  0  0
   -2.1212    1.9597    1.8266 C   0  0  2  0  0  0  0  0  0  0  0  0
   -0.7862    1.3744    1.3854 C   0  0  0  0  0  0  0  0  0  0  0  0
    0.0859    1.0216    2.1767 O   0  0  0  0  0  0  0  0  0  0  0  0
   -2.1124    3.4765    1.7171 C   0  0  0  0  0  0  0  0  0  0  0  0
   -3.1331    1.9695    3.6908 H   0  0  0  0  0  0  0  0  0  0  0  0
   -2.9253    1.5413    1.2115 H   0  0  0  0  0  0  0  0  0  0  0  0
   -1.3133    3.9138    2.3268 H   0  0  0  0  0  0  0  0  0  0  0  0
   -1.9529    3.7988    0.6829 H   0  0  0  0  0  0  0  0  0  0  0  0
   -3.0626    3.8977    2.0629 H   0  0  0  0  0  0  0  0  0  0  0  0
   -0.6635    1.3313    0.0020 N   0  0  0  0  0  0  0  0  0  0  0  0
    0.5138    0.8305   -0.6617 C   0  0  2  0  0  0  0  0  0  0  0  0
    1.7002    1.1073    0.2548 C   0  0  0  0  0  0  0  0  0  0  0  0
    1.5761    1.3705    1.4490 O   0  0  0  0  0  0  0  0  0  0  0  0
    0.7317    1.4885   -2.0290 C   0  0  0  0  0  0  0  0  0  0  0  0
   -0.3740    1.1789   -3.0085 C   0  0  0  0  0  0  0  0  0  0  0  0
   -0.4555   -0.0558   -3.6023 N   0  0  0  0  0  0  0  0  0  0  0  0
   -1.3899    2.0022   -3.4333 C   0  0  0  0  0  0  0  0  0  0  0  0
   -1.5122    0.0163   -4.3809 C   0  0  0  0  0  0  0  0  0  0  0  0
   -2.1105    1.2438   -4.3123 N   0  0  0  0  0  0  0  0  0  0  0  0
   -1.4467    1.6280   -0.5753 H   0  0  0  0  0  0  0  0  0  0  0  0
    0.3805   -0.2534   -0.7587 H   0  0  0  0  0  0  0  0  0  0  0  0
    1.6970    1.1777   -2.4512 H   0  0  0  0  0  0  0  0  0  0  0  0
    0.8016    2.5792   -1.9230 H   0  0  0  0  0  0  0  0  0  0  0  0
   -1.6591    3.0226   -3.2012 H   0  0  0  0  0  0  0  0  0  0  0  0
   -1.8934   -0.7740   -5.0120 H   0  0  0  0  0  0  0  0  0  0  0  0
   -2.9356    1.5362   -4.8187 H   0  0  0  0  0  0  0  0  0  0  0  0
    2.9117    0.9757   -0.4096 N   0  0  0  0  0  0  0  0  0  0  0  0
    4.1932    1.1614    0.2325 C   0  0  2  0  0  0  0  0  0  0  0  0
    4.1547    2.4849    0.9851 C   0  0  0  0  0  0  0  0  0  0  0  0
    3.3758    3.3936    0.7046 O   0  0  0  0  0  0  0  0  0  0  0  0
    5.3272    1.1450   -0.7806 C   0  0  0  0  0  0  0  0  0  0  0  0
    2.8970    0.7369   -1.3968 H   0  0  0  0  0  0  0  0  0  0  0  0
    4.3118    0.3384    0.9456 H   0  0  0  0  0  0  0  0  0  0  0  0
    5.2254    1.9626   -1.5036 H   0  0  0  0  0  0  0  0  0  0  0  0
    6.2995    1.2572   -0.2897 H   0  0  0  0  0  0  0  0  0  0  0  0
    5.3350    0.2043   -1.3417 H   0  0  0  0  0  0  0  0  0  0  0  0
    5.1214    2.5484    1.9788 N   0  0  0  0  0  0  0  0  0  0  0  0
    5.2955    3.7064    2.8242 C   0  0  0  0  0  0  0  0  0  0  0  0
    5.7116    1.7406    2.1542 H   0  0  0  0  0  0  0  0  0  0  0  0
    6.0478    4.3752    2.3806 H   0  0  0  0  0  0  0  0  0  0  0  0
    4.3384    4.2408    2.9155 H   0  0  0  0  0  0  0  0  0  0  0  0
    5.6327    3.3853    3.8208 H   0  0  0  0  0  0  0  0  0  0  0  0
 22 24  2  0  0  0  0
 24 26  1  0  0  0  0
 23 25  2  0  0  0  0
 25 26  1  0  0  0  0
 21 22  1  0  0  0  0
 22 23  1  0  0  0  0
  1  3  1  0  0  0  0
  1  7  1  0  0  0  0
  1  2  2  0  0  0  0
 35 36  1  0  0  0  0
 36 44  1  0  0  0  0
 36 37  2  0  0  0  0
  8  9  1  0  0  0  0
  9 17  1  0  0  0  0
  9 10  2  0  0  0  0
 18 19  1  0  0  0  0
 19 34  1  0  0  0  0
 19 20  2  0  0  0  0
 35 38  1  0  0  0  0
  8 11  1  0  0  0  0
 44 45  1  0  0  0  0
 18 21  1  0  0  0  0
 34 35  1  0  0  0  0
  7  8  1  0  0  0  0
 17 18  1  0  0  0  0
 24 31  1  0  0  0  0
 25 32  1  0  0  0  0
  3  4  1  0  0  0  0
  3  5  1  0  0  0  0
  3  6  1  0  0  0  0
 38 41  1  0  0  0  0
 38 42  1  0  0  0  0
 38 43  1  0  0  0  0
 11 14  1  0  0  0  0
 11 15  1  0  0  0  0
 11 16  1  0  0  0  0
 45 47  1  0  0  0  0
 45 48  1  0  0  0  0
 45 49  1  0  0  0  0
 21 29  1  0  0  0  0
 21 30  1  0  0  0  0
 35 40  1  0  0  0  0
  8 13  1  0  0  0  0
 18 28  1  0  0  0  0
 26 33  1  0  0  0  0
 44 46  1  0  0  0  0
  7 12  1  0  0  0  0
 34 39  1  0  0  0  0
 17 27  1  0  0  0  0
M  END
$$$$

  -OEChem-05262214473D

 49 49  0     1  0  0  0  0  0999 V2000
   -1.6183    0.5613    3.8201 C   0  0  0  0  0  0  0  0  0  0  0  0
   -0.6710   -0.0534    3.3444 O   0  0  0  0  0  0  0  0  0  0  0  0
   -2.0502    0.2789    5.2208 C   0  0  0  0  0  0  0  0  0  0  0  0
   -2.8099   -0.5175    5.2742 H   0  0  0  0  0  0  0  0  0  0  0  0
   -1.2190   -0.0687    5.8551 H   0  0  0  0  0  0  0  0  0  0  0  0
   -2.4882    1.1338    5.7604 H   0  0  0  0  0  0  0  0  0  0  0  0
   -2.3680    1.5337    3.1790 N   0  0  0  0  0  0  0  0  0  0  0  0
   -2.1212    1.9597    1.8266 C   0  0  2  0  0  0  0  0  0  0  0  0
   -0.7862    1.3744    1.3854 C   0  0  0  0  0  0  0  0  0  0  0  0
    0.0859    1.0216    2.1767 O   0  0  0  0  0  0  0  0  0  0  0  0
   -2.1124    3.4765    1.7171 C   0  0  0  0  0  0  0  0  0  0  0  0
   -3.1331    1.9695    3.6908 H   0  0  0  0  0  0  0  0  0  0  0  0
   -2.9253    1.5413    1.2115 H   0  0  0  0  0  0  0  0  0  0  0  0
   -1.3133    3.9138    2.3268 H   0  0  0  0  0  0  0  0  0  0  0  0
   -1.9529    3.7988    0.6829 H   0  0  0  0  0  0  0  0  0  0  0  0
   -3.0626    3.8977    2.0629 H   0  0  0  0  0  0  0  0  0  0  0  0
   -0.6635    1.3313    0.0020 N   0  0  0  0  0  0  0  0  0  0  0  0
    0.5138    0.8305   -0.6617 C   0  0  2  0  0  0  0  0  0  0  0  0
    1.7002    1.1073    0.2548 C   0  0  0  0  0  0  0  0  0  0  0  0
    1.6133    1.1058    1.4809 O   0  0  0  0  0  0  0  0  0  0  0  0
    0.7317    1.4885   -2.0290 C   0  0  0  0  0  0  0  0  0  0  0  0
   -0.3740    1.1789   -3.0085 C   0  0  0  0  0  0  0  0  0  0  0  0
   -0.4555   -0.0558   -3.6023 N   0  0  0  0  0  0  0  0  0  0  0  0
   -1.3899    2.0022   -3.4333 C   0  0  0  0  0  0  0  0  0  0  0  0
   -1.5122    0.0163   -4.3809 C   0  0  0  0  0  0  0  0  0  0  0  0
   -2.1105    1.2438   -4.3123 N   0  0  0  0  0  0  0  0  0  0  0  0
   -1.4467    1.6280   -0.5753 H   0  0  0  0  0  0  0  0  0  0  0  0
    0.3805   -0.2534   -0.7587 H   0  0  0  0  0  0  0  0  0  0  0  0
    1.6970    1.1777   -2.4512 H   0  0  0  0  0  0  0  0  0  0  0  0
    0.8016    2.5792   -1.9230 H   0  0  0  0  0  0  0  0  0  0  0  0
   -1.6591    3.0226   -3.2012 H   0  0  0  0  0  0  0  0  0  0  0  0
   -1.8934   -0.7740   -5.0120 H   0  0  0  0  0  0  0  0  0  0  0  0
   -2.9356    1.5362   -4.8187 H   0  0  0  0  0  0  0  0  0  0  0  0
    2.8735    1.3057   -0.4598 N   0  0  0  0  0  0  0  0  0  0  0  0
    4.1501    1.5639    0.1666 C   0  0  2  0  0  0  0  0  0  0  0  0
    3.9600    2.6888    1.1756 C   0  0  0  0  0  0  0  0  0  0  0  0
    3.0369    3.4981    1.1118 O   0  0  0  0  0  0  0  0  0  0  0  0
    5.2076    1.9302   -0.8630 C   0  0  0  0  0  0  0  0  0  0  0  0
    2.8328    1.2676   -1.4740 H   0  0  0  0  0  0  0  0  0  0  0  0
    4.4361    0.6460    0.6917 H   0  0  0  0  0  0  0  0  0  0  0  0
    4.9384    2.8475   -1.3993 H   0  0  0  0  0  0  0  0  0  0  0  0
    6.1808    2.0976   -0.3899 H   0  0  0  0  0  0  0  0  0  0  0  0
    5.3219    1.1327   -1.6051 H   0  0  0  0  0  0  0  0  0  0  0  0
    4.9667    2.7089    2.1307 N   0  0  0  0  0  0  0  0  0  0  0  0
    5.0170    3.6895    3.1899 C   0  0  0  0  0  0  0  0  0  0  0  0
    5.6818    1.9876    2.1182 H   0  0  0  0  0  0  0  0  0  0  0  0
    5.6305    4.5446    2.8697 H   0  0  0  0  0  0  0  0  0  0  0  0
    3.9979    4.0347    3.4185 H   0  0  0  0  0  0  0  0  0  0  0  0
    5.4608    3.2360    4.0884 H   0  0  0  0  0  0  0  0  0  0  0  0
 22 24  2  0  0  0  0
 24 26  1  0  0  0  0
 23 25  2  0  0  0  0
 25 26  1  0  0  0  0
 21 22  1  0  0  0  0
 22 23  1  0  0  0  0
  1  3  1  0  0  0  0
  1  7  1  0  0  0  0
  1  2  2  0  0  0  0
 35 36  1  0  0  0  0
 36 44  1  0  0  0  0
 36 37  2  0  0  0  0
  8  9  1  0  0  0  0
  9 17  1  0  0  0  0
  9 10  2  0  0  0  0
 18 19  1  0  0  0  0
 19 34  1  0  0  0  0
 19 20  2  0  0  0  0
 35 38  1  0  0  0  0
  8 11  1  0  0  0  0
 44 45  1  0  0  0  0
 18 21  1  0  0  0  0
 34 35  1  0  0  0  0
  7  8  1  0  0  0  0
 17 18  1  0  0  0  0
 24 31  1  0  0  0  0
 25 32  1  0  0  0  0
  3  4  1  0  0  0  0
  3  5  1  0  0  0  0
  3  6  1  0  0  0  0
 38 41  1  0  0  0  0
 38 42  1  0  0  0  0
 38 43  1  0  0  0  0
 11 14  1  0  0  0  0
 11 15  1  0  0  0  0
 11 16  1  0  0  0  0
 45 47  1  0  0  0  0
 45 48  1  0  0  0  0
 45 49  1  0  0  0  0
 21 29  1  0  0  0  0
 21 30  1  0  0  0  0
 35 40  1  0  0  0  0
  8 13  1  0  0  0  0
 18 28  1  0  0  0  0
 26 33  1  0  0  0  0
 44 46  1  0  0  0  0
  7 12  1  0  0  0  0
 34 39  1  0  0  0  0
 17 27  1  0  0  0  0
M  END
$$$$

  -OEChem-05262214473D

 49 49  0     1  0  0  0  0  0999 V2000
   -1.6183    0.5613    3.8201 C   0  0  0  0  0  0  0  0  0  0  0  0
   -0.6710   -0.0534    3.3444 O   0  0  0  0  0  0  0  0  0  0  0  0
   -2.0502    0.2789    5.2208 C   0  0  0  0  0  0  0  0  0  0  0  0
   -2.8099   -0.5175    5.2742 H   0  0  0  0  0  0  0  0  0  0  0  0
   -1.2190   -0.0687    5.8551 H   0  0  0  0  0  0  0  0  0  0  0  0
   -2.4882    1.1338    5.7604 H   0  0  0  0  0  0  0  0  0  0  0  0
   -2.3680    1.5337    3.1790 N   0  0  0  0  0  0  0  0  0  0  0  0
   -2.1212    1.9597    1.8266 C   0  0  2  0  0  0  0  0  0  0  0  0
   -0.7862    1.3744    1.3854 C   0  0  0  0  0  0  0  0  0  0  0  0
    0.0859    1.0216    2.1767 O   0  0  0  0  0  0  0  0  0  0  0  0
   -2.1124    3.4765    1.7171 C   0  0  0  0  0  0  0  0  0  0  0  0
   -3.1331    1.9695    3.6908 H   0  0  0  0  0  0  0  0  0  0  0  0
   -2.9253    1.5413    1.2115 H   0  0  0  0  0  0  0  0  0  0  0  0
   -1.3133    3.9138    2.3268 H   0  0  0  0  0  0  0  0  0  0  0  0
   -1.9529    3.7988    0.6829 H   0  0  0  0  0  0  0  0  0  0  0  0
   -3.0626    3.8977    2.0629 H   0  0  0  0  0  0  0  0  0  0  0  0
   -0.6635    1.3313    0.0020 N   0  0  0  0  0  0  0  0  0  0  0  0
    0.5138    0.8305   -0.6617 C   0  0  2  0  0  0  0  0  0  0  0  0
    1.7002    1.1073    0.2548 C   0  0  0  0  0  0  0  0  0  0  0  0
    1.6918    0.8495    1.4566 O   0  0  0  0  0  0  0  0  0  0  0  0
    0.7317    1.4885   -2.0290 C   0  0  0  0  0  0  0  0  0  0  0  0
   -0.3740    1.1789   -3.0085 C   0  0  0  0  0  0  0  0  0  0  0  0
   -0.4555   -0.0558   -3.6023 N   0  0  0  0  0  0  0  0  0  0  0  0
   -1.3899    2.0022   -3.4333 C   0  0  0  0  0  0  0  0  0  0  0  0
   -1.5122    0.0163   -4.3809 C   0  0  0  0  0  0  0  0  0  0  0  0
   -2.1105    1.2438   -4.3123 N   0  0  0  0  0  0  0  0  0  0  0  0
   -1.4467    1.6280   -0.5753 H   0  0  0  0  0  0  0  0  0  0  0  0
    0.3805   -0.2534   -0.7587 H   0  0  0  0  0  0  0  0  0  0  0  0
    1.6970    1.1777   -2.4512 H   0  0  0  0  0  0  0  0  0  0  0  0
    0.8016    2.5792   -1.9230 H   0  0  0  0  0  0  0  0  0  0  0  0
   -1.6591    3.0226   -3.2012 H   0  0  0  0  0  0  0  0  0  0  0  0
   -1.8934   -0.7740   -5.0120 H   0  0  0  0  0  0  0  0  0  0  0  0
   -2.9356    1.5362   -4.8187 H   0  0  0  0  0  0  0  0  0  0  0  0
    2.7828    1.6286   -0.4399 N   0  0  0  0  0  0  0  0  0  0  0  0
    4.0428    1.9592    0.1862 C   0  0  2  0  0  0  0  0  0  0  0  0
    3.7491    2.8171    1.4098 C   0  0  0  0  0  0  0  0  0  0  0  0
    2.7124    3.4643    1.5421 O   0  0  0  0  0  0  0  0  0  0  0  0
    4.9661    2.6867   -0.7787 C   0  0  0  0  0  0  0  0  0  0  0  0
    2.6846    1.7857   -1.4386 H   0  0  0  0  0  0  0  0  0  0  0  0
    4.4964    1.0137    0.5027 H   0  0  0  0  0  0  0  0  0  0  0  0
    4.5284    3.6366   -1.1069 H   0  0  0  0  0  0  0  0  0  0  0  0
    5.9308    2.9111   -0.3118 H   0  0  0  0  0  0  0  0  0  0  0  0
    5.1523    2.0805   -1.6718 H   0  0  0  0  0  0  0  0  0  0  0  0
    4.7994    2.8091    2.3170 N   0  0  0  0  0  0  0  0  0  0  0  0
    4.7679    3.5561    3.5527 C   0  0  0  0  0  0  0  0  0  0  0  0
    5.6128    2.2288    2.1346 H   0  0  0  0  0  0  0  0  0  0  0  0
    5.2240    4.5447    3.3959 H   0  0  0  0  0  0  0  0  0  0  0  0
    3.7248    3.6813    3.8789 H   0  0  0  0  0  0  0  0  0  0  0  0
    5.3306    3.0111    4.3250 H   0  0  0  0  0  0  0  0  0  0  0  0
 22 24  2  0  0  0  0
 24 26  1  0  0  0  0
 23 25  2  0  0  0  0
 25 26  1  0  0  0  0
 21 22  1  0  0  0  0
 22 23  1  0  0  0  0
  1  3  1  0  0  0  0
  1  7  1  0  0  0  0
  1  2  2  0  0  0  0
 35 36  1  0  0  0  0
 36 44  1  0  0  0  0
 36 37  2  0  0  0  0
  8  9  1  0  0  0  0
  9 17  1  0  0  0  0
  9 10  2  0  0  0  0
 18 19  1  0  0  0  0
 19 34  1  0  0  0  0
 19 20  2  0  0  0  0
 35 38  1  0  0  0  0
  8 11  1  0  0  0  0
 44 45  1  0  0  0  0
 18 21  1  0  0  0  0
 34 35  1  0  0  0  0
  7  8  1  0  0  0  0
 17 18  1  0  0  0  0
 24 31  1  0  0  0  0
 25 32  1  0  0  0  0
  3  4  1  0  0  0  0
  3  5  1  0  0  0  0
  3  6  1  0  0  0  0
 38 41  1  0  0  0  0
 38 42  1  0  0  0  0
 38 43  1  0  0  0  0
 11 14  1  0  0  0  0
 11 15  1  0  0  0  0
 11 16  1  0  0  0  0
 45 47  1  0  0  0  0
 45 48  1  0  0  0  0
 45 49  1  0  0  0  0
 21 29  1  0  0  0  0
 21 30  1  0  0  0  0
 35 40  1  0  0  0  0
  8 13  1  0  0  0  0
 18 28  1  0  0  0  0
 26 33  1  0  0  0  0
 44 46  1  0  0  0  0
  7 12  1  0  0  0  0
 34 39  1  0  0  0  0
 17 27  1  0  0  0  0
M  END
$$$$

  -OEChem-05262214473D

 49 49  0     1  0  0  0  0  0999 V2000
   -1.6183    0.5613    3.8201 C   0  0  0  0  0  0  0  0  0  0  0  0
   -0.6710   -0.0534    3.3444 O   0  0  0  0  0  0  0  0  0  0  0  0
   -2.0502    0.2789    5.2208 C   0  0  0  0  0  0  0  0  0  0  0  0
   -2.8099   -0.5175    5.2742 H   0  0  0  0  0  0  0  0  0  0  0  0
   -1.2190   -0.0687    5.8551 H   0  0  0  0  0  0  0  0  0  0  0  0
   -2.4882    1.1338    5.7604 H   0  0  0  0  0  0  0  0  0  0  0  0
   -2.3680    1.5337    3.1790 N   0  0  0  0  0  0  0  0  0  0  0  0
   -2.1212    1.9597    1.8266 C   0  0  2  0  0  0  0  0  0  0  0  0
   -0.7862    1.3744    1.3854 C   0  0  0  0  0  0  0  0  0  0  0  0
    0.0859    1.0216    2.1767 O   0  0  0  0  0  0  0  0  0  0  0  0
   -2.1124    3.4765    1.7171 C   0  0  0  0  0  0  0  0  0  0  0  0
   -3.1331    1.9695    3.6908 H   0  0  0  0  0  0  0  0  0  0  0  0
   -2.9253    1.5413    1.2115 H   0  0  0  0  0  0  0  0  0  0  0  0
   -1.3133    3.9138    2.3268 H   0  0  0  0  0  0  0  0  0  0  0  0
   -1.9529    3.7988    0.6829 H   0  0  0  0  0  0  0  0  0  0  0  0
   -3.0626    3.8977    2.0629 H   0  0  0  0  0  0  0  0  0  0  0  0
   -0.6635    1.3313    0.0020 N   0  0  0  0  0  0  0  0  0  0  0  0
    0.5138    0.8305   -0.6617 C   0  0  2  0  0  0  0  0  0  0  0  0
    1.7002    1.1073    0.2548 C   0  0  0  0  0  0  0  0  0  0  0  0
    1.8064    0.6190    1.3778 O   0  0  0  0  0  0  0  0  0  0  0  0
    0.7317    1.4885   -2.0290 C   0  0  0  0  0  0  0  0  0  0  0  0
   -0.3740    1.1789   -3.0085 C   0  0  0  0  0  0  0  0  0  0  0  0
   -0.4555   -0.0558   -3.6023 N   0  0  0  0  0  0  0  0  0  0  0  0
   -1.3899    2.0022   -3.4333 C   0  0  0  0  0  0  0  0  0  0  0  0
   -1.5122    0.0163   -4.3809 C   0  0  0  0  0  0  0  0  0  0  0  0
   -2.1105    1.2438   -4.3123 N   0  0  0  0  0  0  0  0  0  0  0  0
   -1.4467    1.6280   -0.5753 H   0  0  0  0  0  0  0  0  0  0  0  0
    0.3805   -0.2534   -0.7587 H   0  0  0  0  0  0  0  0  0  0  0  0
    1.6970    1.1777   -2.4512 H   0  0  0  0  0  0  0  0  0  0  0  0
    0.8016    2.5792   -1.9230 H   0  0  0  0  0  0  0  0  0  0  0  0
   -1.6591    3.0226   -3.2012 H   0  0  0  0  0  0  0  0  0  0  0  0
   -1.8934   -0.7740   -5.0120 H   0  0  0  0  0  0  0  0  0  0  0  0
   -2.9356    1.5362   -4.8187 H   0  0  0  0  0  0  0  0  0  0  0  0
    2.6460    1.9225   -0.3515 N   0  0  0  0  0  0  0  0  0  0  0  0
    3.8785    2.3205    0.2897 C   0  0  2  0  0  0  0  0  0  0  0  0
    3.5365    2.8610    1.6718 C   0  0  0  0  0  0  0  0  0  0  0  0
    2.4245    3.2945    1.9662 O   0  0  0  0  0  0  0  0  0  0  0  0
    4.6190    3.3628   -0.5336 C   0  0  0  0  0  0  0  0  0  0  0  0
    2.4625    2.2561   -1.2932 H   0  0  0  0  0  0  0  0  0  0  0  0
    4.4885    1.4163    0.3913 H   0  0  0  0  0  0  0  0  0  0  0  0
    4.0234    4.2761   -0.6462 H   0  0  0  0  0  0  0  0  0  0  0  0
    5.5663    3.6423   -0.0608 H   0  0  0  0  0  0  0  0  0  0  0  0
    4.8380    2.9830   -1.5374 H   0  0  0  0  0  0  0  0  0  0  0  0
    4.6309    2.8424    2.5251 N   0  0  0  0  0  0  0  0  0  0  0  0
    4.5650    3.3154    3.8881 C   0  0  0  0  0  0  0  0  0  0  0  0
    5.5094    2.4478    2.2023 H   0  0  0  0  0  0  0  0  0  0  0  0
    4.8561    4.3756    3.9233 H   0  0  0  0  0  0  0  0  0  0  0  0
    3.5376    3.2047    4.2652 H   0  0  0  0  0  0  0  0  0  0  0  0
    5.2509    2.7260    4.5142 H   0  0  0  0  0  0  0  0  0  0  0  0
 22 24  2  0  0  0  0
 24 26  1  0  0  0  0
 23 25  2  0  0  0  0
 25 26  1  0  0  0  0
 21 22  1  0  0  0  0
 22 23  1  0  0  0  0
  1  3  1  0  0  0  0
  1  7  1  0  0  0  0
  1  2  2  0  0  0  0
 35 36  1  0  0  0  0
 36 44  1  0  0  0  0
 36 37  2  0  0  0  0
  8  9  1  0  0  0  0
  9 17  1  0  0  0  0
  9 10  2  0  0  0  0
 18 19  1  0  0  0  0
 19 34  1  0  0  0  0
 19 20  2  0  0  0  0
 35 38  1  0  0  0  0
  8 11  1  0  0  0  0
 44 45  1  0  0  0  0
 18 21  1  0  0  0  0
 34 35  1  0  0  0  0
  7  8  1  0  0  0  0
 17 18  1  0  0  0  0
 24 31  1  0  0  0  0
 25 32  1  0  0  0  0
  3  4  1  0  0  0  0
  3  5  1  0  0  0  0
  3  6  1  0  0  0  0
 38 41  1  0  0  0  0
 38 42  1  0  0  0  0
 38 43  1  0  0  0  0
 11 14  1  0  0  0  0
 11 15  1  0  0  0  0
 11 16  1  0  0  0  0
 45 47  1  0  0  0  0
 45 48  1  0  0  0  0
 45 49  1  0  0  0  0
 21 29  1  0  0  0  0
 21 30  1  0  0  0  0
 35 40  1  0  0  0  0
  8 13  1  0  0  0  0
 18 28  1  0  0  0  0
 26 33  1  0  0  0  0
 44 46  1  0  0  0  0
  7 12  1  0  0  0  0
 34 39  1  0  0  0  0
 17 27  1  0  0  0  0
M  END
$$$$

  -OEChem-05262214473D

 49 49  0     1  0  0  0  0  0999 V2000
   -1.6183    0.5613    3.8201 C   0  0  0  0  0  0  0  0  0  0  0  0
   -0.6710   -0.0534    3.3444 O   0  0  0  0  0  0  0  0  0  0  0  0
   -2.0502    0.2789    5.2208 C   0  0  0  0  0  0  0  0  0  0  0  0
   -2.8099   -0.5175    5.2742 H   0  0  0  0  0  0  0  0  0  0  0  0
   -1.2190   -0.0687    5.8551 H   0  0  0  0  0  0  0  0  0  0  0  0
   -2.4882    1.1338    5.7604 H   0  0  0  0  0  0  0  0  0  0  0  0
   -2.3680    1.5337    3.1790 N   0  0  0  0  0  0  0  0  0  0  0  0
   -2.1212    1.9597    1.8266 C   0  0  2  0  0  0  0  0  0  0  0  0
   -0.7862    1.3744    1.3854 C   0  0  0  0  0  0  0  0  0  0  0  0
    0.0859    1.0216    2.1767 O   0  0  0  0  0  0  0  0  0  0  0  0
   -2.1124    3.4765    1.7171 C   0  0  0  0  0  0  0  0  0  0  0  0
   -3.1331    1.9695    3.6908 H   0  0  0  0  0  0  0  0  0  0  0  0
   -2.9253    1.5413    1.2115 H   0  0  0  0  0  0  0  0  0  0  0  0
   -1.3133    3.9138    2.3268 H   0  0  0  0  0  0  0  0  0  0  0  0
   -1.9529    3.7988    0.6829 H   0  0  0  0  0  0  0  0  0  0  0  0
   -3.0626    3.8977    2.0629 H   0  0  0  0  0  0  0  0  0  0  0  0
   -0.6635    1.3313    0.0020 N   0  0  0  0  0  0  0  0  0  0  0  0
    0.5138    0.8305   -0.6617 C   0  0  2  0  0  0  0  0  0  0  0  0
    1.7002    1.1073    0.2548 C   0  0  0  0  0  0  0  0  0  0  0  0
    1.9493    0.4301    1.2499 O   0  0  0  0  0  0  0  0  0  0  0  0
    0.7317    1.4885   -2.0290 C   0  0  0  0  0  0  0  0  0  0  0  0
   -0.3740    1.1789   -3.0085 C   0  0  0  0  0  0  0  0  0  0  0  0
   -0.4555   -0.0558   -3.6023 N   0  0  0  0  0  0  0  0  0  0  0  0
   -1.3899    2.0022   -3.4333 C   0  0  0  0  0  0  0  0  0  0  0  0
   -1.5122    0.0163   -4.3809 C   0  0  0  0  0  0  0  0  0  0  0  0
   -2.1105    1.2438   -4.3123 N   0  0  0  0  0  0  0  0  0  0  0  0
   -1.4467    1.6280   -0.5753 H   0  0  0  0  0  0  0  0  0  0  0  0
    0.3805   -0.2534   -0.7587 H   0  0  0  0  0  0  0  0  0  0  0  0
    1.6970    1.1777   -2.4512 H   0  0  0  0  0  0  0  0  0  0  0  0
    0.8016    2.5792   -1.9230 H   0  0  0  0  0  0  0  0  0  0  0  0
   -1.6591    3.0226   -3.2012 H   0  0  0  0  0  0  0  0  0  0  0  0
   -1.8934   -0.7740   -5.0120 H   0  0  0  0  0  0  0  0  0  0  0  0
   -2.9356    1.5362   -4.8187 H   0  0  0  0  0  0  0  0  0  0  0  0
    2.4722    2.1671   -0.2004 N   0  0  0  0  0  0  0  0  0  0  0  0
    3.6685    2.6230    0.4702 C   0  0  2  0  0  0  0  0  0  0  0  0
    3.3365    2.8176    1.9438 C   0  0  0  0  0  0  0  0  0  0  0  0
    2.1927    3.0002    2.3552 O   0  0  0  0  0  0  0  0  0  0  0  0
    4.1901    3.9126   -0.1444 C   0  0  0  0  0  0  0  0  0  0  0  0
    2.1817    2.6465   -1.0475 H   0  0  0  0  0  0  0  0  0  0  0  0
    4.4131    1.8263    0.3651 H   0  0  0  0  0  0  0  0  0  0  0  0
    3.4577    4.7224   -0.0487 H   0  0  0  0  0  0  0  0  0  0  0  0
    5.1123    4.2413    0.3461 H   0  0  0  0  0  0  0  0  0  0  0  0
    4.4002    3.7788   -1.2111 H   0  0  0  0  0  0  0  0  0  0  0  0
    4.4728    2.8065    2.7406 N   0  0  0  0  0  0  0  0  0  0  0  0
    4.4222    2.9839    4.1731 C   0  0  0  0  0  0  0  0  0  0  0  0
    5.3787    2.6296    2.3166 H   0  0  0  0  0  0  0  0  0  0  0  0
    4.5518    4.0488    4.4160 H   0  0  0  0  0  0  0  0  0  0  0  0
    3.4491    2.6374    4.5512 H   0  0  0  0  0  0  0  0  0  0  0  0
    5.2272    2.4001    4.6434 H   0  0  0  0  0  0  0  0  0  0  0  0
 22 24  2  0  0  0  0
 24 26  1  0  0  0  0
 23 25  2  0  0  0  0
 25 26  1  0  0  0  0
 21 22  1  0  0  0  0
 22 23  1  0  0  0  0
  1  3  1  0  0  0  0
  1  7  1  0  0  0  0
  1  2  2  0  0  0  0
 35 36  1  0  0  0  0
 36 44  1  0  0  0  0
 36 37  2  0  0  0  0
  8  9  1  0  0  0  0
  9 17  1  0  0  0  0
  9 10  2  0  0  0  0
 18 19  1  0  0  0  0
 19 34  1  0  0  0  0
 19 20  2  0  0  0  0
 35 38  1  0  0  0  0
  8 11  1  0  0  0  0
 44 45  1  0  0  0  0
 18 21  1  0  0  0  0
 34 35  1  0  0  0  0
  7  8  1  0  0  0  0
 17 18  1  0  0  0  0
 24 31  1  0  0  0  0
 25 32  1  0  0  0  0
  3  4  1  0  0  0  0
  3  5  1  0  0  0  0
  3  6  1  0  0  0  0
 38 41  1  0  0  0  0
 38 42  1  0  0  0  0
 38 43  1  0  0  0  0
 11 14  1  0  0  0  0
 11 15  1  0  0  0  0
 11 16  1  0  0  0  0
 45 47  1  0  0  0  0
 45 48  1  0  0  0  0
 45 49  1  0  0  0  0
 21 29  1  0  0  0  0
 21 30  1  0  0  0  0
 35 40  1  0  0  0  0
  8 13  1  0  0  0  0
 18 28  1  0  0  0  0
 26 33  1  0  0  0  0
 44 46  1  0  0  0  0
  7 12  1  0  0  0  0
 34 39  1  0  0  0  0
 17 27  1  0  0  0  0
M  END
$$$$

  -OEChem-05262214473D

 49 49  0     1  0  0  0  0  0999 V2000
   -1.6183    0.5613    3.8201 C   0  0  0  0  0  0  0  0  0  0  0  0
   -0.6710   -0.0534    3.3444 O   0  0  0  0  0  0  0  0  0  0  0  0
   -2.0502    0.2789    5.2208 C   0  0  0  0  0  0  0  0  0  0  0  0
   -2.8099   -0.5175    5.2742 H   0  0  0  0  0  0  0  0  0  0  0  0
   -1.2190   -0.0687    5.8551 H   0  0  0  0  0  0  0  0  0  0  0  0
   -2.4882    1.1338    5.7604 H   0  0  0  0  0  0  0  0  0  0  0  0
   -2.3680    1.5337    3.1790 N   0  0  0  0  0  0  0  0  0  0  0  0
   -2.1212    1.9597    1.8266 C   0  0  2  0  0  0  0  0  0  0  0  0
   -0.7862    1.3744    1.3854 C   0  0  0  0  0  0  0  0  0  0  0  0
    0.0859    1.0216    2.1767 O   0  0  0  0  0  0  0  0  0  0  0  0
   -2.1124    3.4765    1.7171 C   0  0  0  0  0  0  0  0  0  0  0  0
   -3.1331    1.9695    3.6908 H   0  0  0  0  0  0  0  0  0  0  0  0
   -2.9253    1.5413    1.2115 H   0  0  0  0  0  0  0  0  0  0  0  0
   -1.3133    3.9138    2.3268 H   0  0  0  0  0  0  0  0  0  0  0  0
   -1.9529    3.7988    0.6829 H   0  0  0  0  0  0  0  0  0  0  0  0
   -3.0626    3.8977    2.0629 H   0  0  0  0  0  0  0  0  0  0  0  0
   -0.6635    1.3313    0.0020 N   0  0  0  0  0  0  0  0  0  0  0  0
    0.5138    0.8305   -0.6617 C   0  0  2  0  0  0  0  0  0  0  0  0
    1.7002    1.1073    0.2548 C   0  0  0  0  0  0  0  0  0  0  0  0
    2.1107    0.2956    1.0816 O   0  0  0  0  0  0  0  0  0  0  0  0
    0.7317    1.4885   -2.0290 C   0  0  0  0  0  0  0  0  0  0  0  0
   -0.3740    1.1789   -3.0085 C   0  0  0  0  0  0  0  0  0  0  0  0
   -0.4555   -0.0558   -3.6023 N   0  0  0  0  0  0  0  0  0  0  0  0
   -1.3899    2.0022   -3.4333 C   0  0  0  0  0  0  0  0  0  0  0  0
   -1.5122    0.0163   -4.3809 C   0  0  0  0  0  0  0  0  0  0  0  0
   -2.1105    1.2438   -4.3123 N   0  0  0  0  0  0  0  0  0  0  0  0
   -1.4467    1.6280   -0.5753 H   0  0  0  0  0  0  0  0  0  0  0  0
    0.3805   -0.2534   -0.7587 H   0  0  0  0  0  0  0  0  0  0  0  0
    1.6970    1.1777   -2.4512 H   0  0  0  0  0  0  0  0  0  0  0  0
    0.8016    2.5792   -1.9230 H   0  0  0  0  0  0  0  0  0  0  0  0
   -1.6591    3.0226   -3.2012 H   0  0  0  0  0  0  0  0  0  0  0  0
   -1.8934   -0.7740   -5.0120 H   0  0  0  0  0  0  0  0  0  0  0  0
   -2.9356    1.5362   -4.8187 H   0  0  0  0  0  0  0  0  0  0  0  0
    2.2734    2.3460    0.0030 N   0  0  0  0  0  0  0  0  0  0  0  0
    3.4271    2.8462    0.7153 C   0  0  2  0  0  0  0  0  0  0  0  0
    3.1630    2.6898    2.2071 C   0  0  0  0  0  0  0  0  0  0  0  0
    2.0328    2.6016    2.6825 O   0  0  0  0  0  0  0  0  0  0  0  0
    3.7086    4.2984    0.3625 C   0  0  0  0  0  0  0  0  0  0  0  0
    1.8612    2.9305   -0.7183 H   0  0  0  0  0  0  0  0  0  0  0  0
    4.2751    2.2160    0.4260 H   0  0  0  0  0  0  0  0  0  0  0  0
    2.8699    4.9452    0.6450 H   0  0  0  0  0  0  0  0  0  0  0  0
    4.5997    4.6672    0.8811 H   0  0  0  0  0  0  0  0  0  0  0  0
    3.8689    4.4137   -0.7149 H   0  0  0  0  0  0  0  0  0  0  0  0
    4.3358    2.7037    2.9490 N   0  0  0  0  0  0  0  0  0  0  0  0
    4.3493    2.5839    4.3883 C   0  0  0  0  0  0  0  0  0  0  0  0
    5.2295    2.7618    2.4698 H   0  0  0  0  0  0  0  0  0  0  0  0
    4.3318    3.5866    4.8404 H   0  0  0  0  0  0  0  0  0  0  0  0
    3.4652    2.0181    4.7173 H   0  0  0  0  0  0  0  0  0  0  0  0
    5.2611    2.0555    4.7036 H   0  0  0  0  0  0  0  0  0  0  0  0
 22 24  2  0  0  0  0
 24 26  1  0  0  0  0
 23 25  2  0  0  0  0
 25 26  1  0  0  0  0
 21 22  1  0  0  0  0
 22 23  1  0  0  0  0
  1  3  1  0  0  0  0
  1  7  1  0  0  0  0
  1  2  2  0  0  0  0
 35 36  1  0  0  0  0
 36 44  1  0  0  0  0
 36 37  2  0  0  0  0
  8  9  1  0  0  0  0
  9 17  1  0  0  0  0
  9 10  2  0  0  0  0
 18 19  1  0  0  0  0
 19 34  1  0  0  0  0
 19 20  2  0  0  0  0
 35 38  1  0  0  0  0
  8 11  1  0  0  0  0
 44 45  1  0  0  0  0
 18 21  1  0  0  0  0
 34 35  1  0  0  0  0
  7  8  1  0  0  0  0
 17 18  1  0  0  0  0
 24 31  1  0  0  0  0
 25 32  1  0  0  0  0
  3  4  1  0  0  0  0
  3  5  1  0  0  0  0
  3  6  1  0  0  0  0
 38 41  1  0  0  0  0
 38 42  1  0  0  0  0
 38 43  1  0  0  0  0
 11 14  1  0  0  0  0
 11 15  1  0  0  0  0
 11 16  1  0  0  0  0
 45 47  1  0  0  0  0
 45 48  1  0  0  0  0
 45 49  1  0  0  0  0
 21 29  1  0  0  0  0
 21 30  1  0  0  0  0
 35 40  1  0  0  0  0
  8 13  1  0  0  0  0
 18 28  1  0  0  0  0
 26 33  1  0  0  0  0
 44 46  1  0  0  0  0
  7 12  1  0  0  0  0
 34 39  1  0  0  0  0
 17 27  1  0  0  0  0
M  END
$$$$

  -OEChem-05262214473D

 49 49  0     1  0  0  0  0  0999 V2000
   -1.6183    0.5613    3.8201 C   0  0  0  0  0  0  0  0  0  0  0  0
   -0.6710   -0.0534    3.3444 O   0  0  0  0  0  0  0  0  0  0  0  0
   -2.0502    0.2789    5.2208 C   0  0  0  0  0  0  0  0  0  0  0  0
   -2.8099   -0.5175    5.2742 H   0  0  0  0  0  0  0  0  0  0  0  0
   -1.2190   -0.0687    5.8551 H   0  0  0  0  0  0  0  0  0  0  0  0
   -2.4882    1.1338    5.7604 H   0  0  0  0  0  0  0  0  0  0  0  0
   -2.3680    1.5337    3.1790 N   0  0  0  0  0  0  0  0  0  0  0  0
   -2.1212    1.9597    1.8266 C   0  0  2  0  0  0  0  0  0  0  0  0
   -0.7862    1.3744    1.3854 C   0  0  0  0  0  0  0  0  0  0  0  0
    0.0859    1.0216    2.1767 O   0  0  0  0  0  0  0  0  0  0  0  0
   -2.1124    3.4765    1.7171 C   0  0  0  0  0  0  0  0  0  0  0  0
   -3.1331    1.9695    3.6908 H   0  0  0  0  0  0  0  0  0  0  0  0
   -2.9253    1.5413    1.2115 H   0  0  0  0  0  0  0  0  0  0  0  0
   -1.3133    3.9138    2.3268 H   0  0  0  0  0  0  0  0  0  0  0  0
   -1.9529    3.7988    0.6829 H   0  0  0  0  0  0  0  0  0  0  0  0
   -3.0626    3.8977    2.0629 H   0  0  0  0  0  0  0  0  0  0  0  0
   -0.6635    1.3313    0.0020 N   0  0  0  0  0  0  0  0  0  0  0  0
    0.5138    0.8305   -0.6617 C   0  0  2  0  0  0  0  0  0  0  0  0
    1.7002    1.1073    0.2548 C   0  0  0  0  0  0  0  0  0  0  0  0
    2.2796    0.2247    0.8844 O   0  0  0  0  0  0  0  0  0  0  0  0
    0.7317    1.4885   -2.0290 C   0  0  0  0  0  0  0  0  0  0  0  0
   -0.3740    1.1789   -3.0085 C   0  0  0  0  0  0  0  0  0  0  0  0
   -0.4555   -0.0558   -3.6023 N   0  0  0  0  0  0  0  0  0  0  0  0
   -1.3899    2.0022   -3.4333 C   0  0  0  0  0  0  0  0  0  0  0  0
   -1.5122    0.0163   -4.3809 C   0  0  0  0  0  0  0  0  0  0  0  0
   -2.1105    1.2438   -4.3123 N   0  0  0  0  0  0  0  0  0  0  0  0
   -1.4467    1.6280   -0.5753 H   0  0  0  0  0  0  0  0  0  0  0  0
    0.3805   -0.2534   -0.7587 H   0  0  0  0  0  0  0  0  0  0  0  0
    1.6970    1.1777   -2.4512 H   0  0  0  0  0  0  0  0  0  0  0  0
    0.8016    2.5792   -1.9230 H   0  0  0  0  0  0  0  0  0  0  0  0
   -1.6591    3.0226   -3.2012 H   0  0  0  0  0  0  0  0  0  0  0  0
   -1.8934   -0.7740   -5.0120 H   0  0  0  0  0  0  0  0  0  0  0  0
   -2.9356    1.5362   -4.8187 H   0  0  0  0  0  0  0  0  0  0  0  0
    2.0631    2.4469    0.2448 N   0  0  0  0  0  0  0  0  0  0  0  0
    3.1707    2.9748    1.0084 C   0  0  2  0  0  0  0  0  0  0  0  0
    3.0276    2.4863    2.4438 C   0  0  0  0  0  0  0  0  0  0  0  0
    1.9559    2.1257    2.9259 O   0  0  0  0  0  0  0  0  0  0  0  0
    3.2073    4.4941    0.9524 C   0  0  0  0  0  0  0  0  0  0  0  0
    1.5229    3.0886   -0.3281 H   0  0  0  0  0  0  0  0  0  0  0  0
    4.0842    2.5586    0.5697 H   0  0  0  0  0  0  0  0  0  0  0  0
    2.3001    4.9292    1.3875 H   0  0  0  0  0  0  0  0  0  0  0  0
    4.0634    4.8912    1.5077 H   0  0  0  0  0  0  0  0  0  0  0  0
    3.2802    4.8443   -0.0829 H   0  0  0  0  0  0  0  0  0  0  0  0
    4.2292    2.5412    3.1361 N   0  0  0  0  0  0  0  0  0  0  0  0
    4.3512    2.1430    4.5190 C   0  0  0  0  0  0  0  0  0  0  0  0
    5.0721    2.8354    2.6515 H   0  0  0  0  0  0  0  0  0  0  0  0
    4.2113    3.0204    5.1675 H   0  0  0  0  0  0  0  0  0  0  0  0
    3.5850    1.3889    4.7522 H   0  0  0  0  0  0  0  0  0  0  0  0
    5.3503    1.7159    4.6907 H   0  0  0  0  0  0  0  0  0  0  0  0
 22 24  2  0  0  0  0
 24 26  1  0  0  0  0
 23 25  2  0  0  0  0
 25 26  1  0  0  0  0
 21 22  1  0  0  0  0
 22 23  1  0  0  0  0
  1  3  1  0  0  0  0
  1  7  1  0  0  0  0
  1  2  2  0  0  0  0
 35 36  1  0  0  0  0
 36 44  1  0  0  0  0
 36 37  2  0  0  0  0
  8  9  1  0  0  0  0
  9 17  1  0  0  0  0
  9 10  2  0  0  0  0
 18 19  1  0  0  0  0
 19 34  1  0  0  0  0
 19 20  2  0  0  0  0
 35 38  1  0  0  0  0
  8 11  1  0  0  0  0
 44 45  1  0  0  0  0
 18 21  1  0  0  0  0
 34 35  1  0  0  0  0
  7  8  1  0  0  0  0
 17 18  1  0  0  0  0
 24 31  1  0  0  0  0
 25 32  1  0  0  0  0
  3  4  1  0  0  0  0
  3  5  1  0  0  0  0
  3  6  1  0  0  0  0
 38 41  1  0  0  0  0
 38 42  1  0  0  0  0
 38 43  1  0  0  0  0
 11 14  1  0  0  0  0
 11 15  1  0  0  0  0
 11 16  1  0  0  0  0
 45 47  1  0  0  0  0
 45 48  1  0  0  0  0
 45 49  1  0  0  0  0
 21 29  1  0  0  0  0
 21 30  1  0  0  0  0
 35 40  1  0  0  0  0
  8 13  1  0  0  0  0
 18 28  1  0  0  0  0
 26 33  1  0  0  0  0
 44 46  1  0  0  0  0
  7 12  1  0  0  0  0
 34 39  1  0  0  0  0
 17 27  1  0  0  0  0
M  END
$$$$

  -OEChem-05262214473D

 49 49  0     1  0  0  0  0  0999 V2000
   -1.6183    0.5613    3.8201 C   0  0  0  0  0  0  0  0  0  0  0  0
   -0.6710   -0.0534    3.3444 O   0  0  0  0  0  0  0  0  0  0  0  0
   -2.0502    0.2789    5.2208 C   0  0  0  0  0  0  0  0  0  0  0  0
   -2.8099   -0.5175    5.2742 H   0  0  0  0  0  0  0  0  0  0  0  0
   -1.2190   -0.0687    5.8551 H   0  0  0  0  0  0  0  0  0  0  0  0
   -2.4882    1.1338    5.7604 H   0  0  0  0  0  0  0  0  0  0  0  0
   -2.3680    1.5337    3.1790 N   0  0  0  0  0  0  0  0  0  0  0  0
   -2.1212    1.9597    1.8266 C   0  0  2  0  0  0  0  0  0  0  0  0
   -0.7862    1.3744    1.3854 C   0  0  0  0  0  0  0  0  0  0  0  0
    0.0859    1.0216    2.1767 O   0  0  0  0  0  0  0  0  0  0  0  0
   -2.1124    3.4765    1.7171 C   0  0  0  0  0  0  0  0  0  0  0  0
   -3.1331    1.9695    3.6908 H   0  0  0  0  0  0  0  0  0  0  0  0
   -2.9253    1.5413    1.2115 H   0  0  0  0  0  0  0  0  0  0  0  0
   -1.3133    3.9138    2.3268 H   0  0  0  0  0  0  0  0  0  0  0  0
   -1.9529    3.7988    0.6829 H   0  0  0  0  0  0  0  0  0  0  0  0
   -3.0626    3.8977    2.0629 H   0  0  0  0  0  0  0  0  0  0  0  0
   -0.6635    1.3313    0.0020 N   0  0  0  0  0  0  0  0  0  0  0  0
    0.5138    0.8305   -0.6617 C   0  0  2  0  0  0  0  0  0  0  0  0
    1.7002    1.1073    0.2548 C   0  0  0  0  0  0  0  0  0  0  0  0
    2.4445    0.2223    0.6717 O   0  0  0  0  0  0  0  0  0  0  0  0
    0.7317    1.4885   -2.0290 C   0  0  0  0  0  0  0  0  0  0  0  0
   -0.3740    1.1789   -3.0085 C   0  0  0  0  0  0  0  0  0  0  0  0
   -0.4555   -0.0558   -3.6023 N   0  0  0  0  0  0  0  0  0  0  0  0
   -1.3899    2.0022   -3.4333 C   0  0  0  0  0  0  0  0  0  0  0  0
   -1.5122    0.0163   -4.3809 C   0  0  0  0  0  0  0  0  0  0  0  0
   -2.1105    1.2438   -4.3123 N   0  0  0  0  0  0  0  0  0  0  0  0
   -1.4467    1.6280   -0.5753 H   0  0  0  0  0  0  0  0  0  0  0  0
    0.3805   -0.2534   -0.7587 H   0  0  0  0  0  0  0  0  0  0  0  0
    1.6970    1.1777   -2.4512 H   0  0  0  0  0  0  0  0  0  0  0  0
    0.8016    2.5792   -1.9230 H   0  0  0  0  0  0  0  0  0  0  0  0
   -1.6591    3.0226   -3.2012 H   0  0  0  0  0  0  0  0  0  0  0  0
   -1.8934   -0.7740   -5.0120 H   0  0  0  0  0  0  0  0  0  0  0  0
   -2.9356    1.5362   -4.8187 H   0  0  0  0  0  0  0  0  0  0  0  0
    1.8556    2.4630    0.5085 N   0  0  0  0  0  0  0  0  0  0  0  0
    2.9168    3.0002    1.3295 C   0  0  2  0  0  0  0  0  0  0  0  0
    2.9396    2.2210    2.6379 C   0  0  0  0  0  0  0  0  0  0  0  0
    1.9670    1.6050    3.0688 O   0  0  0  0  0  0  0  0  0  0  0  0
    2.7203    4.4863    1.5852 C   0  0  0  0  0  0  0  0  0  0  0  0
    1.1899    3.1102    0.0965 H   0  0  0  0  0  0  0  0  0  0  0  0
    3.8531    2.8309    0.7866 H   0  0  0  0  0  0  0  0  0  0  0  0
    1.7871    4.6755    2.1283 H   0  0  0  0  0  0  0  0  0  0  0  0
    3.5400    4.8978    2.1834 H   0  0  0  0  0  0  0  0  0  0  0  0
    2.6743    5.0414    0.6420 H   0  0  0  0  0  0  0  0  0  0  0  0
    4.1604    2.3300    3.2890 N   0  0  0  0  0  0  0  0  0  0  0  0
    4.4278    1.6910    4.5564 C   0  0  0  0  0  0  0  0  0  0  0  0
    4.9170    2.8455    2.8491 H   0  0  0  0  0  0  0  0  0  0  0  0
    4.1982    2.3889    5.3751 H   0  0  0  0  0  0  0  0  0  0  0  0
    3.8003    0.7928    4.6536 H   0  0  0  0  0  0  0  0  0  0  0  0
    5.4886    1.4043    4.6057 H   0  0  0  0  0  0  0  0  0  0  0  0
 22 24  2  0  0  0  0
 24 26  1  0  0  0  0
 23 25  2  0  0  0  0
 25 26  1  0  0  0  0
 21 22  1  0  0  0  0
 22 23  1  0  0  0  0
  1  3  1  0  0  0  0
  1  7  1  0  0  0  0
  1  2  2  0  0  0  0
 35 36  1  0  0  0  0
 36 44  1  0  0  0  0
 36 37  2  0  0  0  0
  8  9  1  0  0  0  0
  9 17  1  0  0  0  0
  9 10  2  0  0  0  0
 18 19  1  0  0  0  0
 19 34  1  0  0  0  0
 19 20  2  0  0  0  0
 35 38  1  0  0  0  0
  8 11  1  0  0  0  0
 44 45  1  0  0  0  0
 18 21  1  0  0  0  0
 34 35  1  0  0  0  0
  7  8  1  0  0  0  0
 17 18  1  0  0  0  0
 24 31  1  0  0  0  0
 25 32  1  0  0  0  0
  3  4  1  0  0  0  0
  3  5  1  0  0  0  0
  3  6  1  0  0  0  0
 38 41  1  0  0  0  0
 38 42  1  0  0  0  0
 38 43  1  0  0  0  0
 11 14  1  0  0  0  0
 11 15  1  0  0  0  0
 11 16  1  0  0  0  0
 45 47  1  0  0  0  0
 45 48  1  0  0  0  0
 45 49  1  0  0  0  0
 21 29  1  0  0  0  0
 21 30  1  0  0  0  0
 35 40  1  0  0  0  0
  8 13  1  0  0  0  0
 18 28  1  0  0  0  0
 26 33  1  0  0  0  0
 44 46  1  0  0  0  0
  7 12  1  0  0  0  0
 34 39  1  0  0  0  0
 17 27  1  0  0  0  0
M  END
$$$$

  -OEChem-05262214473D

 49 49  0     1  0  0  0  0  0999 V2000
   -1.6183    0.5613    3.8201 C   0  0  0  0  0  0  0  0  0  0  0  0
   -0.6710   -0.0534    3.3444 O   0  0  0  0  0  0  0  0  0  0  0  0
   -2.0502    0.2789    5.2208 C   0  0  0  0  0  0  0  0  0  0  0  0
   -2.8099   -0.5175    5.2742 H   0  0  0  0  0  0  0  0  0  0  0  0
   -1.2190   -0.0687    5.8551 H   0  0  0  0  0  0  0  0  0  0  0  0
   -2.4882    1.1338    5.7604 H   0  0  0  0  0  0  0  0  0  0  0  0
   -2.3680    1.5337    3.1790 N   0  0  0  0  0  0  0  0  0  0  0  0
   -2.1212    1.9597    1.8266 C   0  0  2  0  0  0  0  0  0  0  0  0
   -0.7862    1.3744    1.3854 C   0  0  0  0  0  0  0  0  0  0  0  0
    0.0859    1.0216    2.1767 O   0  0  0  0  0  0  0  0  0  0  0  0
   -2.1124    3.4765    1.7171 C   0  0  0  0  0  0  0  0  0  0  0  0
   -3.1331    1.9695    3.6908 H   0  0  0  0  0  0  0  0  0  0  0  0
   -2.9253    1.5413    1.2115 H   0  0  0  0  0  0  0  0  0  0  0  0
   -1.3133    3.9138    2.3268 H   0  0  0  0  0  0  0  0  0  0  0  0
   -1.9529    3.7988    0.6829 H   0  0  0  0  0  0  0  0  0  0  0  0
   -3.0626    3.8977    2.0629 H   0  0  0  0  0  0  0  0  0  0  0  0
   -0.6635    1.3313    0.0020 N   0  0  0  0  0  0  0  0  0  0  0  0
    0.5138    0.8305   -0.6617 C   0  0  2  0  0  0  0  0  0  0  0  0
    1.7002    1.1073    0.2548 C   0  0  0  0  0  0  0  0  0  0  0  0
    2.5941    0.2884    0.4579 O   0  0  0  0  0  0  0  0  0  0  0  0
    0.7317    1.4885   -2.0290 C   0  0  0  0  0  0  0  0  0  0  0  0
   -0.3740    1.1789   -3.0085 C   0  0  0  0  0  0  0  0  0  0  0  0
   -0.4555   -0.0558   -3.6023 N   0  0  0  0  0  0  0  0  0  0  0  0
   -1.3899    2.0022   -3.4333 C   0  0  0  0  0  0  0  0  0  0  0  0
   -1.5122    0.0163   -4.3809 C   0  0  0  0  0  0  0  0  0  0  0  0
   -2.1105    1.2438   -4.3123 N   0  0  0  0  0  0  0  0  0  0  0  0
   -1.4467    1.6280   -0.5753 H   0  0  0  0  0  0  0  0  0  0  0  0
    0.3805   -0.2534   -0.7587 H   0  0  0  0  0  0  0  0  0  0  0  0
    1.6970    1.1777   -2.4512 H   0  0  0  0  0  0  0  0  0  0  0  0
    0.8016    2.5792   -1.9230 H   0  0  0  0  0  0  0  0  0  0  0  0
   -1.6591    3.0226   -3.2012 H   0  0  0  0  0  0  0  0  0  0  0  0
   -1.8934   -0.7740   -5.0120 H   0  0  0  0  0  0  0  0  0  0  0  0
   -2.9356    1.5362   -4.8187 H   0  0  0  0  0  0  0  0  0  0  0  0
    1.6650    2.3930    0.7763 N   0  0  0  0  0  0  0  0  0  0  0  0
    2.6827    2.9205    1.6566 C   0  0  2  0  0  0  0  0  0  0  0  0
    2.9050    1.9119    2.7760 C   0  0  0  0  0  0  0  0  0  0  0  0
    2.0654    1.0751    3.1014 O   0  0  0  0  0  0  0  0  0  0  0  0
    2.2808    4.2755    2.2178 C   0  0  0  0  0  0  0  0  0  0  0  0
    0.8848    2.9936    0.5267 H   0  0  0  0  0  0  0  0  0  0  0  0
    3.5978    3.0143    1.0618 H   0  0  0  0  0  0  0  0  0  0  0  0
    1.3659    4.2015    2.8168 H   0  0  0  0  0  0  0  0  0  0  0  0
    3.0651    4.6867    2.8619 H   0  0  0  0  0  0  0  0  0  0  0  0
    2.0924    4.9914    1.4104 H   0  0  0  0  0  0  0  0  0  0  0  0
    4.1339    2.0844    3.3974 N   0  0  0  0  0  0  0  0  0  0  0  0
    4.5738    1.2588    4.4978 C   0  0  0  0  0  0  0  0  0  0  0  0
    4.7750    2.7912    3.0494 H   0  0  0  0  0  0  0  0  0  0  0  0
    4.2937    1.7350    5.4490 H   0  0  0  0  0  0  0  0  0  0  0  0
    4.0963    0.2703    4.4282 H   0  0  0  0  0  0  0  0  0  0  0  0
    5.6667    1.1419    4.4543 H   0  0  0  0  0  0  0  0  0  0  0  0
 22 24  2  0  0  0  0
 24 26  1  0  0  0  0
 23 25  2  0  0  0  0
 25 26  1  0  0  0  0
 21 22  1  0  0  0  0
 22 23  1  0  0  0  0
  1  3  1  0  0  0  0
  1  7  1  0  0  0  0
  1  2  2  0  0  0  0
 35 36  1  0  0  0  0
 36 44  1  0  0  0  0
 36 37  2  0  0  0  0
  8  9  1  0  0  0  0
  9 17  1  0  0  0  0
  9 10  2  0  0  0  0
 18 19  1  0  0  0  0
 19 34  1  0  0  0  0
 19 20  2  0  0  0  0
 35 38  1  0  0  0  0
  8 11  1  0  0  0  0
 44 45  1  0  0  0  0
 18 21  1  0  0  0  0
 34 35  1  0  0  0  0
  7  8  1  0  0  0  0
 17 18  1  0  0  0  0
 24 31  1  0  0  0  0
 25 32  1  0  0  0  0
  3  4  1  0  0  0  0
  3  5  1  0  0  0  0
  3  6  1  0  0  0  0
 38 41  1  0  0  0  0
 38 42  1  0  0  0  0
 38 43  1  0  0  0  0
 11 14  1  0  0  0  0
 11 15  1  0  0  0  0
 11 16  1  0  0  0  0
 45 47  1  0  0  0  0
 45 48  1  0  0  0  0
 45 49  1  0  0  0  0
 21 29  1  0  0  0  0
 21 30  1  0  0  0  0
 35 40  1  0  0  0  0
  8 13  1  0  0  0  0
 18 28  1  0  0  0  0
 26 33  1  0  0  0  0
 44 46  1  0  0  0  0
  7 12  1  0  0  0  0
 34 39  1  0  0  0  0
 17 27  1  0  0  0  0
M  END
$$$$

  -OEChem-05262214473D

 49 49  0     1  0  0  0  0  0999 V2000
   -1.6183    0.5613    3.8201 C   0  0  0  0  0  0  0  0  0  0  0  0
   -0.6710   -0.0534    3.3444 O   0  0  0  0  0  0  0  0  0  0  0  0
   -2.0502    0.2789    5.2208 C   0  0  0  0  0  0  0  0  0  0  0  0
   -2.8099   -0.5175    5.2742 H   0  0  0  0  0  0  0  0  0  0  0  0
   -1.2190   -0.0687    5.8551 H   0  0  0  0  0  0  0  0  0  0  0  0
   -2.4882    1.1338    5.7604 H   0  0  0  0  0  0  0  0  0  0  0  0
   -2.3680    1.5337    3.1790 N   0  0  0  0  0  0  0  0  0  0  0  0
   -2.1212    1.9597    1.8266 C   0  0  2  0  0  0  0  0  0  0  0  0
   -0.7862    1.3744    1.3854 C   0  0  0  0  0  0  0  0  0  0  0  0
    0.0859    1.0216    2.1767 O   0  0  0  0  0  0  0  0  0  0  0  0
   -2.1124    3.4765    1.7171 C   0  0  0  0  0  0  0  0  0  0  0  0
   -3.1331    1.9695    3.6908 H   0  0  0  0  0  0  0  0  0  0  0  0
   -2.9253    1.5413    1.2115 H   0  0  0  0  0  0  0  0  0  0  0  0
   -1.3133    3.9138    2.3268 H   0  0  0  0  0  0  0  0  0  0  0  0
   -1.9529    3.7988    0.6829 H   0  0  0  0  0  0  0  0  0  0  0  0
   -3.0626    3.8977    2.0629 H   0  0  0  0  0  0  0  0  0  0  0  0
   -0.6635    1.3313    0.0020 N   0  0  0  0  0  0  0  0  0  0  0  0
    0.5138    0.8305   -0.6617 C   0  0  2  0  0  0  0  0  0  0  0  0
    1.7002    1.1073    0.2548 C   0  0  0  0  0  0  0  0  0  0  0  0
    2.7184    0.4186    0.2578 O   0  0  0  0  0  0  0  0  0  0  0  0
    0.7317    1.4885   -2.0290 C   0  0  0  0  0  0  0  0  0  0  0  0
   -0.3740    1.1789   -3.0085 C   0  0  0  0  0  0  0  0  0  0  0  0
   -0.4555   -0.0558   -3.6023 N   0  0  0  0  0  0  0  0  0  0  0  0
   -1.3899    2.0022   -3.4333 C   0  0  0  0  0  0  0  0  0  0  0  0
   -1.5122    0.0163   -4.3809 C   0  0  0  0  0  0  0  0  0  0  0  0
   -2.1105    1.2438   -4.3123 N   0  0  0  0  0  0  0  0  0  0  0  0
   -1.4467    1.6280   -0.5753 H   0  0  0  0  0  0  0  0  0  0  0  0
    0.3805   -0.2534   -0.7587 H   0  0  0  0  0  0  0  0  0  0  0  0
    1.6970    1.1777   -2.4512 H   0  0  0  0  0  0  0  0  0  0  0  0
    0.8016    2.5792   -1.9230 H   0  0  0  0  0  0  0  0  0  0  0  0
   -1.6591    3.0226   -3.2012 H   0  0  0  0  0  0  0  0  0  0  0  0
   -1.8934   -0.7740   -5.0120 H   0  0  0  0  0  0  0  0  0  0  0  0
   -2.9356    1.5362   -4.8187 H   0  0  0  0  0  0  0  0  0  0  0  0
    1.5045    2.2419    1.0298 N   0  0  0  0  0  0  0  0  0  0  0  0
    2.4844    2.7411    1.9676 C   0  0  2  0  0  0  0  0  0  0  0  0
    2.9262    1.5802    2.8488 C   0  0  0  0  0  0  0  0  0  0  0  0
    2.2445    0.5719    3.0215 O   0  0  0  0  0  0  0  0  0  0  0  0
    1.9189    3.8762    2.8070 C   0  0  0  0  0  0  0  0  0  0  0  0
    0.6284    2.7469    0.9331 H   0  0  0  0  0  0  0  0  0  0  0  0
    3.3356    3.0963    1.3765 H   0  0  0  0  0  0  0  0  0  0  0  0
    1.0651    3.5394    3.4062 H   0  0  0  0  0  0  0  0  0  0  0  0
    2.6712    4.2723    3.4971 H   0  0  0  0  0  0  0  0  0  0  0  0
    1.5743    4.6979    2.1699 H   0  0  0  0  0  0  0  0  0  0  0  0
    4.1517    1.8212    3.4539 N   0  0  0  0  0  0  0  0  0  0  0  0
    4.7794    0.8759    4.3473 C   0  0  0  0  0  0  0  0  0  0  0  0
    4.6557    2.6764    3.2386 H   0  0  0  0  0  0  0  0  0  0  0  0
    4.4911    1.1034    5.3842 H   0  0  0  0  0  0  0  0  0  0  0  0
    4.4530   -0.1429    4.0912 H   0  0  0  0  0  0  0  0  0  0  0  0
    5.8725    0.9467    4.2469 H   0  0  0  0  0  0  0  0  0  0  0  0
 22 24  2  0  0  0  0
 24 26  1  0  0  0  0
 23 25  2  0  0  0  0
 25 26  1  0  0  0  0
 21 22  1  0  0  0  0
 22 23  1  0  0  0  0
  1  3  1  0  0  0  0
  1  7  1  0  0  0  0
  1  2  2  0  0  0  0
 35 36  1  0  0  0  0
 36 44  1  0  0  0  0
 36 37  2  0  0  0  0
  8  9  1  0  0  0  0
  9 17  1  0  0  0  0
  9 10  2  0  0  0  0
 18 19  1  0  0  0  0
 19 34  1  0  0  0  0
 19 20  2  0  0  0  0
 35 38  1  0  0  0  0
  8 11  1  0  0  0  0
 44 45  1  0  0  0  0
 18 21  1  0  0  0  0
 34 35  1  0  0  0  0
  7  8  1  0  0  0  0
 17 18  1  0  0  0  0
 24 31  1  0  0  0  0
 25 32  1  0  0  0  0
  3  4  1  0  0  0  0
  3  5  1  0  0  0  0
  3  6  1  0  0  0  0
 38 41  1  0  0  0  0
 38 42  1  0  0  0  0
 38 43  1  0  0  0  0
 11 14  1  0  0  0  0
 11 15  1  0  0  0  0
 11 16  1  0  0  0  0
 45 47  1  0  0  0  0
 45 48  1  0  0  0  0
 45 49  1  0  0  0  0
 21 29  1  0  0  0  0
 21 30  1  0  0  0  0
 35 40  1  0  0  0  0
  8 13  1  0  0  0  0
 18 28  1  0  0  0  0
 26 33  1  0  0  0  0
 44 46  1  0  0  0  0
  7 12  1  0  0  0  0
 34 39  1  0  0  0  0
 17 27  1  0  0  0  0
M  END
$$$$

  -OEChem-05262214473D

 49 49  0     1  0  0  0  0  0999 V2000
   -1.6183    0.5613    3.8201 C   0  0  0  0  0  0  0  0  0  0  0  0
   -0.6710   -0.0534    3.3444 O   0  0  0  0  0  0  0  0  0  0  0  0
   -2.0502    0.2789    5.2208 C   0  0  0  0  0  0  0  0  0  0  0  0
   -2.8099   -0.5175    5.2742 H   0  0  0  0  0  0  0  0  0  0  0  0
   -1.2190   -0.0687    5.8551 H   0  0  0  0  0  0  0  0  0  0  0  0
   -2.4882    1.1338    5.7604 H   0  0  0  0  0  0  0  0  0  0  0  0
   -2.3680    1.5337    3.1790 N   0  0  0  0  0  0  0  0  0  0  0  0
   -2.1212    1.9597    1.8266 C   0  0  2  0  0  0  0  0  0  0  0  0
   -0.7862    1.3744    1.3854 C   0  0  0  0  0  0  0  0  0  0  0  0
    0.0859    1.0216    2.1767 O   0  0  0  0  0  0  0  0  0  0  0  0
   -2.1124    3.4765    1.7171 C   0  0  0  0  0  0  0  0  0  0  0  0
   -3.1331    1.9695    3.6908 H   0  0  0  0  0  0  0  0  0  0  0  0
   -2.9253    1.5413    1.2115 H   0  0  0  0  0  0  0  0  0  0  0  0
   -1.3133    3.9138    2.3268 H   0  0  0  0  0  0  0  0  0  0  0  0
   -1.9529    3.7988    0.6829 H   0  0  0  0  0  0  0  0  0  0  0  0
   -3.0626    3.8977    2.0629 H   0  0  0  0  0  0  0  0  0  0  0  0
   -0.6635    1.3313    0.0020 N   0  0  0  0  0  0  0  0  0  0  0  0
    0.5138    0.8305   -0.6617 C   0  0  2  0  0  0  0  0  0  0  0  0
    1.7002    1.1073    0.2548 C   0  0  0  0  0  0  0  0  0  0  0  0
    2.8087    0.6040    0.0848 O   0  0  0  0  0  0  0  0  0  0  0  0
    0.7317    1.4885   -2.0290 C   0  0  0  0  0  0  0  0  0  0  0  0
   -0.3740    1.1789   -3.0085 C   0  0  0  0  0  0  0  0  0  0  0  0
   -0.4555   -0.0558   -3.6023 N   0  0  0  0  0  0  0  0  0  0  0  0
   -1.3899    2.0022   -3.4333 C   0  0  0  0  0  0  0  0  0  0  0  0
   -1.5122    0.0163   -4.3809 C   0  0  0  0  0  0  0  0  0  0  0  0
   -2.1105    1.2438   -4.3123 N   0  0  0  0  0  0  0  0  0  0  0  0
   -1.4467    1.6280   -0.5753 H   0  0  0  0  0  0  0  0  0  0  0  0
    0.3805   -0.2534   -0.7587 H   0  0  0  0  0  0  0  0  0  0  0  0
    1.6970    1.1777   -2.4512 H   0  0  0  0  0  0  0  0  0  0  0  0
    0.8016    2.5792   -1.9230 H   0  0  0  0  0  0  0  0  0  0  0  0
   -1.6591    3.0226   -3.2012 H   0  0  0  0  0  0  0  0  0  0  0  0
   -1.8934   -0.7740   -5.0120 H   0  0  0  0  0  0  0  0  0  0  0  0
   -2.9356    1.5362   -4.8187 H   0  0  0  0  0  0  0  0  0  0  0  0
    1.3848    2.0199    1.2518 N   0  0  0  0  0  0  0  0  0  0  0  0
    2.3353    2.4744    2.2411 C   0  0  2  0  0  0  0  0  0  0  0  0
    3.0016    1.2484    2.8513 C   0  0  0  0  0  0  0  0  0  0  0  0
    2.4921    0.1299    2.8346 O   0  0  0  0  0  0  0  0  0  0  0  0
    1.6591    3.3154    3.3127 C   0  0  0  0  0  0  0  0  0  0  0  0
    0.4383    2.3868    1.2880 H   0  0  0  0  0  0  0  0  0  0  0  0
    3.0843    3.0713    1.7094 H   0  0  0  0  0  0  0  0  0  0  0  0
    0.9053    2.7343    3.8563 H   0  0  0  0  0  0  0  0  0  0  0  0
    2.3850    3.6827    4.0456 H   0  0  0  0  0  0  0  0  0  0  0  0
    1.1552    4.1807    2.8687 H   0  0  0  0  0  0  0  0  0  0  0  0
    4.2124    1.5584    3.4546 N   0  0  0  0  0  0  0  0  0  0  0  0
    5.0305    0.5682    4.1152 C   0  0  0  0  0  0  0  0  0  0  0  0
    4.5672    2.5089    3.4038 H   0  0  0  0  0  0  0  0  0  0  0  0
    4.7770    0.5370    5.1851 H   0  0  0  0  0  0  0  0  0  0  0  0
    4.8459   -0.4187    3.6658 H   0  0  0  0  0  0  0  0  0  0  0  0
    6.0919    0.8320    3.9975 H   0  0  0  0  0  0  0  0  0  0  0  0
 22 24  2  0  0  0  0
 24 26  1  0  0  0  0
 23 25  2  0  0  0  0
 25 26  1  0  0  0  0
 21 22  1  0  0  0  0
 22 23  1  0  0  0  0
  1  3  1  0  0  0  0
  1  7  1  0  0  0  0
  1  2  2  0  0  0  0
 35 36  1  0  0  0  0
 36 44  1  0  0  0  0
 36 37  2  0  0  0  0
  8  9  1  0  0  0  0
  9 17  1  0  0  0  0
  9 10  2  0  0  0  0
 18 19  1  0  0  0  0
 19 34  1  0  0  0  0
 19 20  2  0  0  0  0
 35 38  1  0  0  0  0
  8 11  1  0  0  0  0
 44 45  1  0  0  0  0
 18 21  1  0  0  0  0
 34 35  1  0  0  0  0
  7  8  1  0  0  0  0
 17 18  1  0  0  0  0
 24 31  1  0  0  0  0
 25 32  1  0  0  0  0
  3  4  1  0  0  0  0
  3  5  1  0  0  0  0
  3  6  1  0  0  0  0
 38 41  1  0  0  0  0
 38 42  1  0  0  0  0
 38 43  1  0  0  0  0
 11 14  1  0  0  0  0
 11 15  1  0  0  0  0
 11 16  1  0  0  0  0
 45 47  1  0  0  0  0
 45 48  1  0  0  0  0
 45 49  1  0  0  0  0
 21 29  1  0  0  0  0
 21 30  1  0  0  0  0
 35 40  1  0  0  0  0
  8 13  1  0  0  0  0
 18 28  1  0  0  0  0
 26 33  1  0  0  0  0
 44 46  1  0  0  0  0
  7 12  1  0  0  0  0
 34 39  1  0  0  0  0
 17 27  1  0  0  0  0
M  END
$$$$

  -OEChem-05262214473D

 49 49  0     1  0  0  0  0  0999 V2000
   -1.6183    0.5613    3.8201 C   0  0  0  0  0  0  0  0  0  0  0  0
   -0.6710   -0.0534    3.3444 O   0  0  0  0  0  0  0  0  0  0  0  0
   -2.0502    0.2789    5.2208 C   0  0  0  0  0  0  0  0  0  0  0  0
   -2.8099   -0.5175    5.2742 H   0  0  0  0  0  0  0  0  0  0  0  0
   -1.2190   -0.0687    5.8551 H   0  0  0  0  0  0  0  0  0  0  0  0
   -2.4882    1.1338    5.7604 H   0  0  0  0  0  0  0  0  0  0  0  0
   -2.3680    1.5337    3.1790 N   0  0  0  0  0  0  0  0  0  0  0  0
   -2.1212    1.9597    1.8266 C   0  0  2  0  0  0  0  0  0  0  0  0
   -0.7862    1.3744    1.3854 C   0  0  0  0  0  0  0  0  0  0  0  0
    0.0859    1.0216    2.1767 O   0  0  0  0  0  0  0  0  0  0  0  0
   -2.1124    3.4765    1.7171 C   0  0  0  0  0  0  0  0  0  0  0  0
   -3.1331    1.9695    3.6908 H   0  0  0  0  0  0  0  0  0  0  0  0
   -2.9253    1.5413    1.2115 H   0  0  0  0  0  0  0  0  0  0  0  0
   -1.3133    3.9138    2.3268 H   0  0  0  0  0  0  0  0  0  0  0  0
   -1.9529    3.7988    0.6829 H   0  0  0  0  0  0  0  0  0  0  0  0
   -3.0626    3.8977    2.0629 H   0  0  0  0  0  0  0  0  0  0  0  0
   -0.6635    1.3313    0.0020 N   0  0  0  0  0  0  0  0  0  0  0  0
    0.5138    0.8305   -0.6617 C   0  0  2  0  0  0  0  0  0  0  0  0
    1.7002    1.1073    0.2548 C   0  0  0  0  0  0  0  0  0  0  0  0
    2.8590    0.8320   -0.0492 O   0  0  0  0  0  0  0  0  0  0  0  0
    0.7317    1.4885   -2.0290 C   0  0  0  0  0  0  0  0  0  0  0  0
   -0.3740    1.1789   -3.0085 C   0  0  0  0  0  0  0  0  0  0  0  0
   -0.4555   -0.0558   -3.6023 N   0  0  0  0  0  0  0  0  0  0  0  0
   -1.3899    2.0022   -3.4333 C   0  0  0  0  0  0  0  0  0  0  0  0
   -1.5122    0.0163   -4.3809 C   0  0  0  0  0  0  0  0  0  0  0  0
   -2.1105    1.2438   -4.3123 N   0  0  0  0  0  0  0  0  0  0  0  0
   -1.4467    1.6280   -0.5753 H   0  0  0  0  0  0  0  0  0  0  0  0
    0.3805   -0.2534   -0.7587 H   0  0  0  0  0  0  0  0  0  0  0  0
    1.6970    1.1777   -2.4512 H   0  0  0  0  0  0  0  0  0  0  0  0
    0.8016    2.5792   -1.9230 H   0  0  0  0  0  0  0  0  0  0  0  0
   -1.6591    3.0226   -3.2012 H   0  0  0  0  0  0  0  0  0  0  0  0
   -1.8934   -0.7740   -5.0120 H   0  0  0  0  0  0  0  0  0  0  0  0
   -2.9356    1.5362   -4.8187 H   0  0  0  0  0  0  0  0  0  0  0  0
    1.3142    1.7421    1.4271 N   0  0  0  0  0  0  0  0  0  0  0  0
    2.2456    2.1385    2.4587 C   0  0  2  0  0  0  0  0  0  0  0  0
    3.1263    0.9391    2.7833 C   0  0  0  0  0  0  0  0  0  0  0  0
    2.7911   -0.2210    2.5533 O   0  0  0  0  0  0  0  0  0  0  0  0
    1.5192    2.6315    3.7004 C   0  0  0  0  0  0  0  0  0  0  0  0
    0.3274    1.9380    1.5672 H   0  0  0  0  0  0  0  0  0  0  0  0
    2.8611    2.9410    2.0376 H   0  0  0  0  0  0  0  0  0  0  0  0
    0.8973    1.8411    4.1364 H   0  0  0  0  0  0  0  0  0  0  0  0
    2.2261    2.9582    4.4702 H   0  0  0  0  0  0  0  0  0  0  0  0
    0.8636    3.4752    3.4593 H   0  0  0  0  0  0  0  0  0  0  0  0
    4.3120    1.3139    3.3996 N   0  0  0  0  0  0  0  0  0  0  0  0
    5.3099    0.3569    3.8172 C   0  0  0  0  0  0  0  0  0  0  0  0
    4.5155    2.3000    3.5338 H   0  0  0  0  0  0  0  0  0  0  0  0
    5.1319    0.0745    4.8653 H   0  0  0  0  0  0  0  0  0  0  0  0
    5.2484   -0.5382    3.1809 H   0  0  0  0  0  0  0  0  0  0  0  0
    6.3099    0.8055    3.7233 H   0  0  0  0  0  0  0  0  0  0  0  0
 22 24  2  0  0  0  0
 24 26  1  0  0  0  0
 23 25  2  0  0  0  0
 25 26  1  0  0  0  0
 21 22  1  0  0  0  0
 22 23  1  0  0  0  0
  1  3  1  0  0  0  0
  1  7  1  0  0  0  0
  1  2  2  0  0  0  0
 35 36  1  0  0  0  0
 36 44  1  0  0  0  0
 36 37  2  0  0  0  0
  8  9  1  0  0  0  0
  9 17  1  0  0  0  0
  9 10  2  0  0  0  0
 18 19  1  0  0  0  0
 19 34  1  0  0  0  0
 19 20  2  0  0  0  0
 35 38  1  0  0  0  0
  8 11  1  0  0  0  0
 44 45  1  0  0  0  0
 18 21  1  0  0  0  0
 34 35  1  0  0  0  0
  7  8  1  0  0  0  0
 17 18  1  0  0  0  0
 24 31  1  0  0  0  0
 25 32  1  0  0  0  0
  3  4  1  0  0  0  0
  3  5  1  0  0  0  0
  3  6  1  0  0  0  0
 38 41  1  0  0  0  0
 38 42  1  0  0  0  0
 38 43  1  0  0  0  0
 11 14  1  0  0  0  0
 11 15  1  0  0  0  0
 11 16  1  0  0  0  0
 45 47  1  0  0  0  0
 45 48  1  0  0  0  0
 45 49  1  0  0  0  0
 21 29  1  0  0  0  0
 21 30  1  0  0  0  0
 35 40  1  0  0  0  0
  8 13  1  0  0  0  0
 18 28  1  0  0  0  0
 26 33  1  0  0  0  0
 44 46  1  0  0  0  0
  7 12  1  0  0  0  0
 34 39  1  0  0  0  0
 17 27  1  0  0  0  0
M  END
$$$$

  -OEChem-05262214473D

 49 49  0     1  0  0  0  0  0999 V2000
   -1.6183    0.5613    3.8201 C   0  0  0  0  0  0  0  0  0  0  0  0
   -0.6710   -0.0534    3.3444 O   0  0  0  0  0  0  0  0  0  0  0  0
   -2.0502    0.2789    5.2208 C   0  0  0  0  0  0  0  0  0  0  0  0
   -2.8099   -0.5175    5.2742 H   0  0  0  0  0  0  0  0  0  0  0  0
   -1.2190   -0.0687    5.8551 H   0  0  0  0  0  0  0  0  0  0  0  0
   -2.4882    1.1338    5.7604 H   0  0  0  0  0  0  0  0  0  0  0  0
   -2.3680    1.5337    3.1790 N   0  0  0  0  0  0  0  0  0  0  0  0
   -2.1212    1.9597    1.8266 C   0  0  2  0  0  0  0  0  0  0  0  0
   -0.7862    1.3744    1.3854 C   0  0  0  0  0  0  0  0  0  0  0  0
    0.0859    1.0216    2.1767 O   0  0  0  0  0  0  0  0  0  0  0  0
   -2.1124    3.4765    1.7171 C   0  0  0  0  0  0  0  0  0  0  0  0
   -3.1331    1.9695    3.6908 H   0  0  0  0  0  0  0  0  0  0  0  0
   -2.9253    1.5413    1.2115 H   0  0  0  0  0  0  0  0  0  0  0  0
   -1.3133    3.9138    2.3268 H   0  0  0  0  0  0  0  0  0  0  0  0
   -1.9529    3.7988    0.6829 H   0  0  0  0  0  0  0  0  0  0  0  0
   -3.0626    3.8977    2.0629 H   0  0  0  0  0  0  0  0  0  0  0  0
   -0.6635    1.3313    0.0020 N   0  0  0  0  0  0  0  0  0  0  0  0
    0.5138    0.8305   -0.6617 C   0  0  2  0  0  0  0  0  0  0  0  0
    1.7002    1.1073    0.2548 C   0  0  0  0  0  0  0  0  0  0  0  0
    2.8658    1.0870   -0.1350 O   0  0  0  0  0  0  0  0  0  0  0  0
    0.7317    1.4885   -2.0290 C   0  0  0  0  0  0  0  0  0  0  0  0
   -0.3740    1.1789   -3.0085 C   0  0  0  0  0  0  0  0  0  0  0  0
   -0.4555   -0.0558   -3.6023 N   0  0  0  0  0  0  0  0  0  0  0  0
   -1.3899    2.0022   -3.4333 C   0  0  0  0  0  0  0  0  0  0  0  0
   -1.5122    0.0163   -4.3809 C   0  0  0  0  0  0  0  0  0  0  0  0
   -2.1105    1.2438   -4.3123 N   0  0  0  0  0  0  0  0  0  0  0  0
   -1.4467    1.6280   -0.5753 H   0  0  0  0  0  0  0  0  0  0  0  0
    0.3805   -0.2534   -0.7587 H   0  0  0  0  0  0  0  0  0  0  0  0
    1.6970    1.1777   -2.4512 H   0  0  0  0  0  0  0  0  0  0  0  0
    0.8016    2.5792   -1.9230 H   0  0  0  0  0  0  0  0  0  0  0  0
   -1.6591    3.0226   -3.2012 H   0  0  0  0  0  0  0  0  0  0  0  0
   -1.8934   -0.7740   -5.0120 H   0  0  0  0  0  0  0  0  0  0  0  0
   -2.9356    1.5362   -4.8187 H   0  0  0  0  0  0  0  0  0  0  0  0
    1.2975    1.4275    1.5438 N   0  0  0  0  0  0  0  0  0  0  0  0
    2.2215    1.7563    2.6053 C   0  0  2  0  0  0  0  0  0  0  0  0
    3.2916    0.6735    2.6495 C   0  0  0  0  0  0  0  0  0  0  0  0
    3.1214   -0.4566    2.1970 O   0  0  0  0  0  0  0  0  0  0  0  0
    1.5087    1.8710    3.9438 C   0  0  0  0  0  0  0  0  0  0  0  0
    0.3032    1.4309    1.7516 H   0  0  0  0  0  0  0  0  0  0  0  0
    2.6813    2.7143    2.3390 H   0  0  0  0  0  0  0  0  0  0  0  0
    1.0417    0.9207    4.2274 H   0  0  0  0  0  0  0  0  0  0  0  0
    2.2053    2.1481    4.7419 H   0  0  0  0  0  0  0  0  0  0  0  0
    0.7195    2.6294    3.9013 H   0  0  0  0  0  0  0  0  0  0  0  0
    4.4437    1.1043    3.2924 N   0  0  0  0  0  0  0  0  0  0  0  0
    5.5987    0.2563    3.4737 C   0  0  0  0  0  0  0  0  0  0  0  0
    4.5042    2.0639    3.6197 H   0  0  0  0  0  0  0  0  0  0  0  0
    5.5316   -0.2525    4.4466 H   0  0  0  0  0  0  0  0  0  0  0  0
    5.6329   -0.4934    2.6695 H   0  0  0  0  0  0  0  0  0  0  0  0
    6.5117    0.8691    3.4427 H   0  0  0  0  0  0  0  0  0  0  0  0
 22 24  2  0  0  0  0
 24 26  1  0  0  0  0
 23 25  2  0  0  0  0
 25 26  1  0  0  0  0
 21 22  1  0  0  0  0
 22 23  1  0  0  0  0
  1  3  1  0  0  0  0
  1  7  1  0  0  0  0
  1  2  2  0  0  0  0
 35 36  1  0  0  0  0
 36 44  1  0  0  0  0
 36 37  2  0  0  0  0
  8  9  1  0  0  0  0
  9 17  1  0  0  0  0
  9 10  2  0  0  0  0
 18 19  1  0  0  0  0
 19 34  1  0  0  0  0
 19 20  2  0  0  0  0
 35 38  1  0  0  0  0
  8 11  1  0  0  0  0
 44 45  1  0  0  0  0
 18 21  1  0  0  0  0
 34 35  1  0  0  0  0
  7  8  1  0  0  0  0
 17 18  1  0  0  0  0
 24 31  1  0  0  0  0
 25 32  1  0  0  0  0
  3  4  1  0  0  0  0
  3  5  1  0  0  0  0
  3  6  1  0  0  0  0
 38 41  1  0  0  0  0
 38 42  1  0  0  0  0
 38 43  1  0  0  0  0
 11 14  1  0  0  0  0
 11 15  1  0  0  0  0
 11 16  1  0  0  0  0
 45 47  1  0  0  0  0
 45 48  1  0  0  0  0
 45 49  1  0  0  0  0
 21 29  1  0  0  0  0
 21 30  1  0  0  0  0
 35 40  1  0  0  0  0
  8 13  1  0  0  0  0
 18 28  1  0  0  0  0
 26 33  1  0  0  0  0
 44 46  1  0  0  0  0
  7 12  1  0  0  0  0
 34 39  1  0  0  0  0
 17 27  1  0  0  0  0
M  END
$$$$

  -OEChem-05262214473D

 49 49  0     1  0  0  0  0  0999 V2000
   -1.6183    0.5613    3.8201 C   0  0  0  0  0  0  0  0  0  0  0  0
   -0.6710   -0.0534    3.3444 O   0  0  0  0  0  0  0  0  0  0  0  0
   -2.0502    0.2789    5.2208 C   0  0  0  0  0  0  0  0  0  0  0  0
   -2.8099   -0.5175    5.2742 H   0  0  0  0  0  0  0  0  0  0  0  0
   -1.2190   -0.0687    5.8551 H   0  0  0  0  0  0  0  0  0  0  0  0
   -2.4882    1.1338    5.7604 H   0  0  0  0  0  0  0  0  0  0  0  0
   -2.3680    1.5337    3.1790 N   0  0  0  0  0  0  0  0  0  0  0  0
   -2.1212    1.9597    1.8266 C   0  0  2  0  0  0  0  0  0  0  0  0
   -0.7862    1.3744    1.3854 C   0  0  0  0  0  0  0  0  0  0  0  0
    0.0859    1.0216    2.1767 O   0  0  0  0  0  0  0  0  0  0  0  0
   -2.1124    3.4765    1.7171 C   0  0  0  0  0  0  0  0  0  0  0  0
   -3.1331    1.9695    3.6908 H   0  0  0  0  0  0  0  0  0  0  0  0
   -2.9253    1.5413    1.2115 H   0  0  0  0  0  0  0  0  0  0  0  0
   -1.3133    3.9138    2.3268 H   0  0  0  0  0  0  0  0  0  0  0  0
   -1.9529    3.7988    0.6829 H   0  0  0  0  0  0  0  0  0  0  0  0
   -3.0626    3.8977    2.0629 H   0  0  0  0  0  0  0  0  0  0  0  0
   -0.6635    1.3313    0.0020 N   0  0  0  0  0  0  0  0  0  0  0  0
    0.5138    0.8305   -0.6617 C   0  0  2  0  0  0  0  0  0  0  0  0
    1.7002    1.1073    0.2548 C   0  0  0  0  0  0  0  0  0  0  0  0
    2.8287    1.3517   -0.1669 O   0  0  0  0  0  0  0  0  0  0  0  0
    0.7317    1.4885   -2.0290 C   0  0  0  0  0  0  0  0  0  0  0  0
   -0.3740    1.1789   -3.0085 C   0  0  0  0  0  0  0  0  0  0  0  0
   -0.4555   -0.0558   -3.6023 N   0  0  0  0  0  0  0  0  0  0  0  0
   -1.3899    2.0022   -3.4333 C   0  0  0  0  0  0  0  0  0  0  0  0
   -1.5122    0.0163   -4.3809 C   0  0  0  0  0  0  0  0  0  0  0  0
   -2.1105    1.2438   -4.3123 N   0  0  0  0  0  0  0  0  0  0  0  0
   -1.4467    1.6280   -0.5753 H   0  0  0  0  0  0  0  0  0  0  0  0
    0.3805   -0.2534   -0.7587 H   0  0  0  0  0  0  0  0  0  0  0  0
    1.6970    1.1777   -2.4512 H   0  0  0  0  0  0  0  0  0  0  0  0
    0.8016    2.5792   -1.9230 H   0  0  0  0  0  0  0  0  0  0  0  0
   -1.6591    3.0226   -3.2012 H   0  0  0  0  0  0  0  0  0  0  0  0
   -1.8934   -0.7740   -5.0120 H   0  0  0  0  0  0  0  0  0  0  0  0
   -2.9356    1.5362   -4.8187 H   0  0  0  0  0  0  0  0  0  0  0  0
    1.3357    1.0975    1.5940 N   0  0  0  0  0  0  0  0  0  0  0  0
    2.2646    1.3538    2.6712 C   0  0  2  0  0  0  0  0  0  0  0  0
    3.4863    0.4696    2.4590 C   0  0  0  0  0  0  0  0  0  0  0  0
    3.4603   -0.5611    1.7897 O   0  0  0  0  0  0  0  0  0  0  0  0
    1.6282    1.0858    4.0261 C   0  0  0  0  0  0  0  0  0  0  0  0
    0.3674    0.9003    1.8288 H   0  0  0  0  0  0  0  0  0  0  0  0
    2.5570    2.4066    2.5928 H   0  0  0  0  0  0  0  0  0  0  0  0
    1.3287    0.0358    4.1231 H   0  0  0  0  0  0  0  0  0  0  0  0
    2.3239    1.3077    4.8421 H   0  0  0  0  0  0  0  0  0  0  0  0
    0.7327    1.7010    4.1647 H   0  0  0  0  0  0  0  0  0  0  0  0
    4.5984    0.9439    3.1405 N   0  0  0  0  0  0  0  0  0  0  0  0
    5.8772    0.2733    3.1080 C   0  0  0  0  0  0  0  0  0  0  0  0
    4.5340    1.8169    3.6556 H   0  0  0  0  0  0  0  0  0  0  0  0
    5.9490   -0.4219    3.9574 H   0  0  0  0  0  0  0  0  0  0  0  0
    5.9734   -0.2872    2.1664 H   0  0  0  0  0  0  0  0  0  0  0  0
    6.6836    1.0184    3.1751 H   0  0  0  0  0  0  0  0  0  0  0  0
 22 24  2  0  0  0  0
 24 26  1  0  0  0  0
 23 25  2  0  0  0  0
 25 26  1  0  0  0  0
 21 22  1  0  0  0  0
 22 23  1  0  0  0  0
  1  3  1  0  0  0  0
  1  7  1  0  0  0  0
  1  2  2  0  0  0  0
 35 36  1  0  0  0  0
 36 44  1  0  0  0  0
 36 37  2  0  0  0  0
  8  9  1  0  0  0  0
  9 17  1  0  0  0  0
  9 10  2  0  0  0  0
 18 19  1  0  0  0  0
 19 34  1  0  0  0  0
 19 20  2  0  0  0  0
 35 38  1  0  0  0  0
  8 11  1  0  0  0  0
 44 45  1  0  0  0  0
 18 21  1  0  0  0  0
 34 35  1  0  0  0  0
  7  8  1  0  0  0  0
 17 18  1  0  0  0  0
 24 31  1  0  0  0  0
 25 32  1  0  0  0  0
  3  4  1  0  0  0  0
  3  5  1  0  0  0  0
  3  6  1  0  0  0  0
 38 41  1  0  0  0  0
 38 42  1  0  0  0  0
 38 43  1  0  0  0  0
 11 14  1  0  0  0  0
 11 15  1  0  0  0  0
 11 16  1  0  0  0  0
 45 47  1  0  0  0  0
 45 48  1  0  0  0  0
 45 49  1  0  0  0  0
 21 29  1  0  0  0  0
 21 30  1  0  0  0  0
 35 40  1  0  0  0  0
  8 13  1  0  0  0  0
 18 28  1  0  0  0  0
 26 33  1  0  0  0  0
 44 46  1  0  0  0  0
  7 12  1  0  0  0  0
 34 39  1  0  0  0  0
 17 27  1  0  0  0  0
M  END
$$$$

  -OEChem-05262214473D

 49 49  0     1  0  0  0  0  0999 V2000
   -1.6183    0.5613    3.8201 C   0  0  0  0  0  0  0  0  0  0  0  0
   -0.6710   -0.0534    3.3444 O   0  0  0  0  0  0  0  0  0  0  0  0
   -2.0502    0.2789    5.2208 C   0  0  0  0  0  0  0  0  0  0  0  0
   -2.8099   -0.5175    5.2742 H   0  0  0  0  0  0  0  0  0  0  0  0
   -1.2190   -0.0687    5.8551 H   0  0  0  0  0  0  0  0  0  0  0  0
   -2.4882    1.1338    5.7604 H   0  0  0  0  0  0  0  0  0  0  0  0
   -2.3680    1.5337    3.1790 N   0  0  0  0  0  0  0  0  0  0  0  0
   -2.1212    1.9597    1.8266 C   0  0  2  0  0  0  0  0  0  0  0  0
   -0.7862    1.3744    1.3854 C   0  0  0  0  0  0  0  0  0  0  0  0
    0.0859    1.0216    2.1767 O   0  0  0  0  0  0  0  0  0  0  0  0
   -2.1124    3.4765    1.7171 C   0  0  0  0  0  0  0  0  0  0  0  0
   -3.1331    1.9695    3.6908 H   0  0  0  0  0  0  0  0  0  0  0  0
   -2.9253    1.5413    1.2115 H   0  0  0  0  0  0  0  0  0  0  0  0
   -1.3133    3.9138    2.3268 H   0  0  0  0  0  0  0  0  0  0  0  0
   -1.9529    3.7988    0.6829 H   0  0  0  0  0  0  0  0  0  0  0  0
   -3.0626    3.8977    2.0629 H   0  0  0  0  0  0  0  0  0  0  0  0
   -0.6635    1.3313    0.0020 N   0  0  0  0  0  0  0  0  0  0  0  0
    0.5138    0.8305   -0.6617 C   0  0  2  0  0  0  0  0  0  0  0  0
    1.7002    1.1073    0.2548 C   0  0  0  0  0  0  0  0  0  0  0  0
    2.7501    1.6080   -0.1426 O   0  0  0  0  0  0  0  0  0  0  0  0
    0.7317    1.4885   -2.0290 C   0  0  0  0  0  0  0  0  0  0  0  0
   -0.3740    1.1789   -3.0085 C   0  0  0  0  0  0  0  0  0  0  0  0
   -0.4555   -0.0558   -3.6023 N   0  0  0  0  0  0  0  0  0  0  0  0
   -1.3899    2.0022   -3.4333 C   0  0  0  0  0  0  0  0  0  0  0  0
   -1.5122    0.0163   -4.3809 C   0  0  0  0  0  0  0  0  0  0  0  0
   -2.1105    1.2438   -4.3123 N   0  0  0  0  0  0  0  0  0  0  0  0
   -1.4467    1.6280   -0.5753 H   0  0  0  0  0  0  0  0  0  0  0  0
    0.3805   -0.2534   -0.7587 H   0  0  0  0  0  0  0  0  0  0  0  0
    1.6970    1.1777   -2.4512 H   0  0  0  0  0  0  0  0  0  0  0  0
    0.8016    2.5792   -1.9230 H   0  0  0  0  0  0  0  0  0  0  0  0
   -1.6591    3.0226   -3.2012 H   0  0  0  0  0  0  0  0  0  0  0  0
   -1.8934   -0.7740   -5.0120 H   0  0  0  0  0  0  0  0  0  0  0  0
   -2.9356    1.5362   -4.8187 H   0  0  0  0  0  0  0  0  0  0  0  0
    1.4264    0.7746    1.5742 N   0  0  0  0  0  0  0  0  0  0  0  0
    2.3719    0.9585    2.6516 C   0  0  2  0  0  0  0  0  0  0  0  0
    3.6972    0.3413    2.2248 C   0  0  0  0  0  0  0  0  0  0  0  0
    3.7848   -0.5273    1.3594 O   0  0  0  0  0  0  0  0  0  0  0  0
    1.8698    0.3293    3.9419 C   0  0  0  0  0  0  0  0  0  0  0  0
    0.5155    0.3821    1.7935 H   0  0  0  0  0  0  0  0  0  0  0  0
    2.4967    2.0390    2.7819 H   0  0  0  0  0  0  0  0  0  0  0  0
    1.7387   -0.7533    3.8307 H   0  0  0  0  0  0  0  0  0  0  0  0
    2.5740    0.4942    4.7640 H   0  0  0  0  0  0  0  0  0  0  0  0
    0.9022    0.7532    4.2314 H   0  0  0  0  0  0  0  0  0  0  0  0
    4.7657    0.8436    2.9542 N   0  0  0  0  0  0  0  0  0  0  0  0
    6.1264    0.4067    2.7451 C   0  0  0  0  0  0  0  0  0  0  0  0
    4.6030    1.5757    3.6392 H   0  0  0  0  0  0  0  0  0  0  0  0
    6.3555   -0.4221    3.4312 H   0  0  0  0  0  0  0  0  0  0  0  0
    6.2465    0.0662    1.7061 H   0  0  0  0  0  0  0  0  0  0  0  0
    6.8139    1.2433    2.9386 H   0  0  0  0  0  0  0  0  0  0  0  0
 22 24  2  0  0  0  0
 24 26  1  0  0  0  0
 23 25  2  0  0  0  0
 25 26  1  0  0  0  0
 21 22  1  0  0  0  0
 22 23  1  0  0  0  0
  1  3  1  0  0  0  0
  1  7  1  0  0  0  0
  1  2  2  0  0  0  0
 35 36  1  0  0  0  0
 36 44  1  0  0  0  0
 36 37  2  0  0  0  0
  8  9  1  0  0  0  0
  9 17  1  0  0  0  0
  9 10  2  0  0  0  0
 18 19  1  0  0  0  0
 19 34  1  0  0  0  0
 19 20  2  0  0  0  0
 35 38  1  0  0  0  0
  8 11  1  0  0  0  0
 44 45  1  0  0  0  0
 18 21  1  0  0  0  0
 34 35  1  0  0  0  0
  7  8  1  0  0  0  0
 17 18  1  0  0  0  0
 24 31  1  0  0  0  0
 25 32  1  0  0  0  0
  3  4  1  0  0  0  0
  3  5  1  0  0  0  0
  3  6  1  0  0  0  0
 38 41  1  0  0  0  0
 38 42  1  0  0  0  0
 38 43  1  0  0  0  0
 11 14  1  0  0  0  0
 11 15  1  0  0  0  0
 11 16  1  0  0  0  0
 45 47  1  0  0  0  0
 45 48  1  0  0  0  0
 45 49  1  0  0  0  0
 21 29  1  0  0  0  0
 21 30  1  0  0  0  0
 35 40  1  0  0  0  0
  8 13  1  0  0  0  0
 18 28  1  0  0  0  0
 26 33  1  0  0  0  0
 44 46  1  0  0  0  0
  7 12  1  0  0  0  0
 34 39  1  0  0  0  0
 17 27  1  0  0  0  0
M  END
$$$$

  -OEChem-05262214473D

 49 49  0     1  0  0  0  0  0999 V2000
   -1.6183    0.5613    3.8201 C   0  0  0  0  0  0  0  0  0  0  0  0
   -0.6710   -0.0534    3.3444 O   0  0  0  0  0  0  0  0  0  0  0  0
   -2.0502    0.2789    5.2208 C   0  0  0  0  0  0  0  0  0  0  0  0
   -2.8099   -0.5175    5.2742 H   0  0  0  0  0  0  0  0  0  0  0  0
   -1.2190   -0.0687    5.8551 H   0  0  0  0  0  0  0  0  0  0  0  0
   -2.4882    1.1338    5.7604 H   0  0  0  0  0  0  0  0  0  0  0  0
   -2.3680    1.5337    3.1790 N   0  0  0  0  0  0  0  0  0  0  0  0
   -2.1212    1.9597    1.8266 C   0  0  2  0  0  0  0  0  0  0  0  0
   -0.7862    1.3744    1.3854 C   0  0  0  0  0  0  0  0  0  0  0  0
    0.0859    1.0216    2.1767 O   0  0  0  0  0  0  0  0  0  0  0  0
   -2.1124    3.4765    1.7171 C   0  0  0  0  0  0  0  0  0  0  0  0
   -3.1331    1.9695    3.6908 H   0  0  0  0  0  0  0  0  0  0  0  0
   -2.9253    1.5413    1.2115 H   0  0  0  0  0  0  0  0  0  0  0  0
   -1.3133    3.9138    2.3268 H   0  0  0  0  0  0  0  0  0  0  0  0
   -1.9529    3.7988    0.6829 H   0  0  0  0  0  0  0  0  0  0  0  0
   -3.0626    3.8977    2.0629 H   0  0  0  0  0  0  0  0  0  0  0  0
   -0.6635    1.3313    0.0020 N   0  0  0  0  0  0  0  0  0  0  0  0
    0.5138    0.8305   -0.6617 C   0  0  2  0  0  0  0  0  0  0  0  0
    1.7002    1.1073    0.2548 C   0  0  0  0  0  0  0  0  0  0  0  0
    2.6355    1.8385   -0.0638 O   0  0  0  0  0  0  0  0  0  0  0  0
    0.7317    1.4885   -2.0290 C   0  0  0  0  0  0  0  0  0  0  0  0
   -0.3740    1.1789   -3.0085 C   0  0  0  0  0  0  0  0  0  0  0  0
   -0.4555   -0.0558   -3.6023 N   0  0  0  0  0  0  0  0  0  0  0  0
   -1.3899    2.0022   -3.4333 C   0  0  0  0  0  0  0  0  0  0  0  0
   -1.5122    0.0163   -4.3809 C   0  0  0  0  0  0  0  0  0  0  0  0
   -2.1105    1.2438   -4.3123 N   0  0  0  0  0  0  0  0  0  0  0  0
   -1.4467    1.6280   -0.5753 H   0  0  0  0  0  0  0  0  0  0  0  0
    0.3805   -0.2534   -0.7587 H   0  0  0  0  0  0  0  0  0  0  0  0
    1.6970    1.1777   -2.4512 H   0  0  0  0  0  0  0  0  0  0  0  0
    0.8016    2.5792   -1.9230 H   0  0  0  0  0  0  0  0  0  0  0  0
   -1.6591    3.0226   -3.2012 H   0  0  0  0  0  0  0  0  0  0  0  0
   -1.8934   -0.7740   -5.0120 H   0  0  0  0  0  0  0  0  0  0  0  0
   -2.9356    1.5362   -4.8187 H   0  0  0  0  0  0  0  0  0  0  0  0
    1.5632    0.4808    1.4857 N   0  0  0  0  0  0  0  0  0  0  0  0
    2.5361    0.5972    2.5481 C   0  0  2  0  0  0  0  0  0  0  0  0
    3.9098    0.2974    1.9628 C   0  0  0  0  0  0  0  0  0  0  0  0
    4.0727   -0.3575    0.9353 O   0  0  0  0  0  0  0  0  0  0  0  0
    2.2168   -0.3468    3.6968 C   0  0  0  0  0  0  0  0  0  0  0  0
    0.7376   -0.0883    1.6480 H   0  0  0  0  0  0  0  0  0  0  0  0
    2.5045    1.6364    2.8933 H   0  0  0  0  0  0  0  0  0  0  0  0
    2.2437   -1.3928    3.3700 H   0  0  0  0  0  0  0  0  0  0  0  0
    2.9385   -0.2370    4.5130 H   0  0  0  0  0  0  0  0  0  0  0  0
    1.2166   -0.1493    4.0971 H   0  0  0  0  0  0  0  0  0  0  0  0
    4.9342    0.8103    2.7462 N   0  0  0  0  0  0  0  0  0  0  0  0
    6.3293    0.6473    2.4098 C   0  0  0  0  0  0  0  0  0  0  0  0
    4.7064    1.3567    3.5715 H   0  0  0  0  0  0  0  0  0  0  0  0
    6.7234   -0.2530    2.9038 H   0  0  0  0  0  0  0  0  0  0  0  0
    6.4337    0.5428    1.3198 H   0  0  0  0  0  0  0  0  0  0  0  0
    6.8935    1.5285    2.7493 H   0  0  0  0  0  0  0  0  0  0  0  0
 22 24  2  0  0  0  0
 24 26  1  0  0  0  0
 23 25  2  0  0  0  0
 25 26  1  0  0  0  0
 21 22  1  0  0  0  0
 22 23  1  0  0  0  0
  1  3  1  0  0  0  0
  1  7  1  0  0  0  0
  1  2  2  0  0  0  0
 35 36  1  0  0  0  0
 36 44  1  0  0  0  0
 36 37  2  0  0  0  0
  8  9  1  0  0  0  0
  9 17  1  0  0  0  0
  9 10  2  0  0  0  0
 18 19  1  0  0  0  0
 19 34  1  0  0  0  0
 19 20  2  0  0  0  0
 35 38  1  0  0  0  0
  8 11  1  0  0  0  0
 44 45  1  0  0  0  0
 18 21  1  0  0  0  0
 34 35  1  0  0  0  0
  7  8  1  0  0  0  0
 17 18  1  0  0  0  0
 24 31  1  0  0  0  0
 25 32  1  0  0  0  0
  3  4  1  0  0  0  0
  3  5  1  0  0  0  0
  3  6  1  0  0  0  0
 38 41  1  0  0  0  0
 38 42  1  0  0  0  0
 38 43  1  0  0  0  0
 11 14  1  0  0  0  0
 11 15  1  0  0  0  0
 11 16  1  0  0  0  0
 45 47  1  0  0  0  0
 45 48  1  0  0  0  0
 45 49  1  0  0  0  0
 21 29  1  0  0  0  0
 21 30  1  0  0  0  0
 35 40  1  0  0  0  0
  8 13  1  0  0  0  0
 18 28  1  0  0  0  0
 26 33  1  0  0  0  0
 44 46  1  0  0  0  0
  7 12  1  0  0  0  0
 34 39  1  0  0  0  0
 17 27  1  0  0  0  0
M  END
$$$$

  -OEChem-05262214473D

 49 49  0     1  0  0  0  0  0999 V2000
   -1.6183    0.5613    3.8201 C   0  0  0  0  0  0  0  0  0  0  0  0
   -0.6710   -0.0534    3.3444 O   0  0  0  0  0  0  0  0  0  0  0  0
   -2.0502    0.2789    5.2208 C   0  0  0  0  0  0  0  0  0  0  0  0
   -2.8099   -0.5175    5.2742 H   0  0  0  0  0  0  0  0  0  0  0  0
   -1.2190   -0.0687    5.8551 H   0  0  0  0  0  0  0  0  0  0  0  0
   -2.4882    1.1338    5.7604 H   0  0  0  0  0  0  0  0  0  0  0  0
   -2.3680    1.5337    3.1790 N   0  0  0  0  0  0  0  0  0  0  0  0
   -2.1212    1.9597    1.8266 C   0  0  2  0  0  0  0  0  0  0  0  0
   -0.7862    1.3744    1.3854 C   0  0  0  0  0  0  0  0  0  0  0  0
    0.0859    1.0216    2.1767 O   0  0  0  0  0  0  0  0  0  0  0  0
   -2.1124    3.4765    1.7171 C   0  0  0  0  0  0  0  0  0  0  0  0
   -3.1331    1.9695    3.6908 H   0  0  0  0  0  0  0  0  0  0  0  0
   -2.9253    1.5413    1.2115 H   0  0  0  0  0  0  0  0  0  0  0  0
   -1.3133    3.9138    2.3268 H   0  0  0  0  0  0  0  0  0  0  0  0
   -1.9529    3.7988    0.6829 H   0  0  0  0  0  0  0  0  0  0  0  0
   -3.0626    3.8977    2.0629 H   0  0  0  0  0  0  0  0  0  0  0  0
   -0.6635    1.3313    0.0020 N   0  0  0  0  0  0  0  0  0  0  0  0
    0.5138    0.8305   -0.6617 C   0  0  2  0  0  0  0  0  0  0  0  0
    1.7002    1.1073    0.2548 C   0  0  0  0  0  0  0  0  0  0  0  0
    2.4926    2.0274    0.0641 O   0  0  0  0  0  0  0  0  0  0  0  0
    0.7317    1.4885   -2.0290 C   0  0  0  0  0  0  0  0  0  0  0  0
   -0.3740    1.1789   -3.0085 C   0  0  0  0  0  0  0  0  0  0  0  0
   -0.4555   -0.0558   -3.6023 N   0  0  0  0  0  0  0  0  0  0  0  0
   -1.3899    2.0022   -3.4333 C   0  0  0  0  0  0  0  0  0  0  0  0
   -1.5122    0.0163   -4.3809 C   0  0  0  0  0  0  0  0  0  0  0  0
   -2.1105    1.2438   -4.3123 N   0  0  0  0  0  0  0  0  0  0  0  0
   -1.4467    1.6280   -0.5753 H   0  0  0  0  0  0  0  0  0  0  0  0
    0.3805   -0.2534   -0.7587 H   0  0  0  0  0  0  0  0  0  0  0  0
    1.6970    1.1777   -2.4512 H   0  0  0  0  0  0  0  0  0  0  0  0
    0.8016    2.5792   -1.9230 H   0  0  0  0  0  0  0  0  0  0  0  0
   -1.6591    3.0226   -3.2012 H   0  0  0  0  0  0  0  0  0  0  0  0
   -1.8934   -0.7740   -5.0120 H   0  0  0  0  0  0  0  0  0  0  0  0
   -2.9356    1.5362   -4.8187 H   0  0  0  0  0  0  0  0  0  0  0  0
    1.7370    0.2361    1.3347 N   0  0  0  0  0  0  0  0  0  0  0  0
    2.7461    0.2947    2.3676 C   0  0  2  0  0  0  0  0  0  0  0  0
    4.1097    0.3408    1.6909 C   0  0  0  0  0  0  0  0  0  0  0  0
    4.3045   -0.0632    0.5464 O   0  0  0  0  0  0  0  0  0  0  0  0
    2.6457   -0.8966    3.3075 C   0  0  0  0  0  0  0  0  0  0  0  0
    1.0185   -0.4787    1.4024 H   0  0  0  0  0  0  0  0  0  0  0  0
    2.5800    1.2263    2.9195 H   0  0  0  0  0  0  0  0  0  0  0  0
    2.8094   -1.8391    2.7725 H   0  0  0  0  0  0  0  0  0  0  0  0
    3.3925   -0.8359    4.1061 H   0  0  0  0  0  0  0  0  0  0  0  0
    1.6543   -0.9451    3.7707 H   0  0  0  0  0  0  0  0  0  0  0  0
    5.0923    0.8462    2.5306 N   0  0  0  0  0  0  0  0  0  0  0  0
    6.4721    0.9789    2.1248 C   0  0  0  0  0  0  0  0  0  0  0  0
    4.8371    1.1750    3.4572 H   0  0  0  0  0  0  0  0  0  0  0  0
    7.0277    0.0738    2.4112 H   0  0  0  0  0  0  0  0  0  0  0  0
    6.5222    1.1101    1.0338 H   0  0  0  0  0  0  0  0  0  0  0  0
    6.9172    1.8544    2.6202 H   0  0  0  0  0  0  0  0  0  0  0  0
 22 24  2  0  0  0  0
 24 26  1  0  0  0  0
 23 25  2  0  0  0  0
 25 26  1  0  0  0  0
 21 22  1  0  0  0  0
 22 23  1  0  0  0  0
  1  3  1  0  0  0  0
  1  7  1  0  0  0  0
  1  2  2  0  0  0  0
 35 36  1  0  0  0  0
 36 44  1  0  0  0  0
 36 37  2  0  0  0  0
  8  9  1  0  0  0  0
  9 17  1  0  0  0  0
  9 10  2  0  0  0  0
 18 19  1  0  0  0  0
 19 34  1  0  0  0  0
 19 20  2  0  0  0  0
 35 38  1  0  0  0  0
  8 11  1  0  0  0  0
 44 45  1  0  0  0  0
 18 21  1  0  0  0  0
 34 35  1  0  0  0  0
  7  8  1  0  0  0  0
 17 18  1  0  0  0  0
 24 31  1  0  0  0  0
 25 32  1  0  0  0  0
  3  4  1  0  0  0  0
  3  5  1  0  0  0  0
  3  6  1  0  0  0  0
 38 41  1  0  0  0  0
 38 42  1  0  0  0  0
 38 43  1  0  0  0  0
 11 14  1  0  0  0  0
 11 15  1  0  0  0  0
 11 16  1  0  0  0  0
 45 47  1  0  0  0  0
 45 48  1  0  0  0  0
 45 49  1  0  0  0  0
 21 29  1  0  0  0  0
 21 30  1  0  0  0  0
 35 40  1  0  0  0  0
  8 13  1  0  0  0  0
 18 28  1  0  0  0  0
 26 33  1  0  0  0  0
 44 46  1  0  0  0  0
  7 12  1  0  0  0  0
 34 39  1  0  0  0  0
 17 27  1  0  0  0  0
M  END
$$$$

  -OEChem-05262214473D

 49 49  0     1  0  0  0  0  0999 V2000
   -1.6183    0.5613    3.8201 C   0  0  0  0  0  0  0  0  0  0  0  0
   -0.6710   -0.0534    3.3444 O   0  0  0  0  0  0  0  0  0  0  0  0
   -2.0502    0.2789    5.2208 C   0  0  0  0  0  0  0  0  0  0  0  0
   -2.8099   -0.5175    5.2742 H   0  0  0  0  0  0  0  0  0  0  0  0
   -1.2190   -0.0687    5.8551 H   0  0  0  0  0  0  0  0  0  0  0  0
   -2.4882    1.1338    5.7604 H   0  0  0  0  0  0  0  0  0  0  0  0
   -2.3680    1.5337    3.1790 N   0  0  0  0  0  0  0  0  0  0  0  0
   -2.1212    1.9597    1.8266 C   0  0  2  0  0  0  0  0  0  0  0  0
   -0.7862    1.3744    1.3854 C   0  0  0  0  0  0  0  0  0  0  0  0
    0.0859    1.0216    2.1767 O   0  0  0  0  0  0  0  0  0  0  0  0
   -2.1124    3.4765    1.7171 C   0  0  0  0  0  0  0  0  0  0  0  0
   -3.1331    1.9695    3.6908 H   0  0  0  0  0  0  0  0  0  0  0  0
   -2.9253    1.5413    1.2115 H   0  0  0  0  0  0  0  0  0  0  0  0
   -1.3133    3.9138    2.3268 H   0  0  0  0  0  0  0  0  0  0  0  0
   -1.9529    3.7988    0.6829 H   0  0  0  0  0  0  0  0  0  0  0  0
   -3.0626    3.8977    2.0629 H   0  0  0  0  0  0  0  0  0  0  0  0
   -0.6635    1.3313    0.0020 N   0  0  0  0  0  0  0  0  0  0  0  0
    0.5138    0.8305   -0.6617 C   0  0  2  0  0  0  0  0  0  0  0  0
    1.7002    1.1073    0.2548 C   0  0  0  0  0  0  0  0  0  0  0  0
    2.3313    2.1619    0.2324 O   0  0  0  0  0  0  0  0  0  0  0  0
    0.7317    1.4885   -2.0290 C   0  0  0  0  0  0  0  0  0  0  0  0
   -0.3740    1.1789   -3.0085 C   0  0  0  0  0  0  0  0  0  0  0  0
   -0.4555   -0.0558   -3.6023 N   0  0  0  0  0  0  0  0  0  0  0  0
   -1.3899    2.0022   -3.4333 C   0  0  0  0  0  0  0  0  0  0  0  0
   -1.5122    0.0163   -4.3809 C   0  0  0  0  0  0  0  0  0  0  0  0
   -2.1105    1.2438   -4.3123 N   0  0  0  0  0  0  0  0  0  0  0  0
   -1.4467    1.6280   -0.5753 H   0  0  0  0  0  0  0  0  0  0  0  0
    0.3805   -0.2534   -0.7587 H   0  0  0  0  0  0  0  0  0  0  0  0
    1.6970    1.1777   -2.4512 H   0  0  0  0  0  0  0  0  0  0  0  0
    0.8016    2.5792   -1.9230 H   0  0  0  0  0  0  0  0  0  0  0  0
   -1.6591    3.0226   -3.2012 H   0  0  0  0  0  0  0  0  0  0  0  0
   -1.8934   -0.7740   -5.0120 H   0  0  0  0  0  0  0  0  0  0  0  0
   -2.9356    1.5362   -4.8187 H   0  0  0  0  0  0  0  0  0  0  0  0
    1.9358    0.0572    1.1313 N   0  0  0  0  0  0  0  0  0  0  0  0
    2.9875    0.0715    2.1225 C   0  0  2  0  0  0  0  0  0  0  0  0
    4.2833    0.4686    1.4276 C   0  0  0  0  0  0  0  0  0  0  0  0
    4.4644    0.3354    0.2190 O   0  0  0  0  0  0  0  0  0  0  0  0
    3.1273   -1.2824    2.8007 C   0  0  0  0  0  0  0  0  0  0  0  0
    1.3390   -0.7627    1.0732 H   0  0  0  0  0  0  0  0  0  0  0  0
    2.7179    0.8367    2.8586 H   0  0  0  0  0  0  0  0  0  0  0  0
    3.3971   -2.0619    2.0788 H   0  0  0  0  0  0  0  0  0  0  0  0
    3.9051   -1.2619    3.5711 H   0  0  0  0  0  0  0  0  0  0  0  0
    2.1856   -1.5800    3.2746 H   0  0  0  0  0  0  0  0  0  0  0  0
    5.2293    0.9490    2.3222 N   0  0  0  0  0  0  0  0  0  0  0  0
    6.5450    1.3788    1.9096 C   0  0  0  0  0  0  0  0  0  0  0  0
    4.9863    1.0427    3.3040 H   0  0  0  0  0  0  0  0  0  0  0  0
    7.2476    0.5360    1.9868 H   0  0  0  0  0  0  0  0  0  0  0  0
    6.5061    1.7294    0.8677 H   0  0  0  0  0  0  0  0  0  0  0  0
    6.8834    2.1989    2.5600 H   0  0  0  0  0  0  0  0  0  0  0  0
 22 24  2  0  0  0  0
 24 26  1  0  0  0  0
 23 25  2  0  0  0  0
 25 26  1  0  0  0  0
 21 22  1  0  0  0  0
 22 23  1  0  0  0  0
  1  3  1  0  0  0  0
  1  7  1  0  0  0  0
  1  2  2  0  0  0  0
 35 36  1  0  0  0  0
 36 44  1  0  0  0  0
 36 37  2  0  0  0  0
  8  9  1  0  0  0  0
  9 17  1  0  0  0  0
  9 10  2  0  0  0  0
 18 19  1  0  0  0  0
 19 34  1  0  0  0  0
 19 20  2  0  0  0  0
 35 38  1  0  0  0  0
  8 11  1  0  0  0  0
 44 45  1  0  0  0  0
 18 21  1  0  0  0  0
 34 35  1  0  0  0  0
  7  8  1  0  0  0  0
 17 18  1  0  0  0  0
 24 31  1  0  0  0  0
 25 32  1  0  0  0  0
  3  4  1  0  0  0  0
  3  5  1  0  0  0  0
  3  6  1  0  0  0  0
 38 41  1  0  0  0  0
 38 42  1  0  0  0  0
 38 43  1  0  0  0  0
 11 14  1  0  0  0  0
 11 15  1  0  0  0  0
 11 16  1  0  0  0  0
 45 47  1  0  0  0  0
 45 48  1  0  0  0  0
 45 49  1  0  0  0  0
 21 29  1  0  0  0  0
 21 30  1  0  0  0  0
 35 40  1  0  0  0  0
  8 13  1  0  0  0  0
 18 28  1  0  0  0  0
 26 33  1  0  0  0  0
 44 46  1  0  0  0  0
  7 12  1  0  0  0  0
 34 39  1  0  0  0  0
 17 27  1  0  0  0  0
M  END
$$$$

  -OEChem-05262214473D

 49 49  0     1  0  0  0  0  0999 V2000
   -1.6183    0.5613    3.8201 C   0  0  0  0  0  0  0  0  0  0  0  0
   -0.6710   -0.0534    3.3444 O   0  0  0  0  0  0  0  0  0  0  0  0
   -2.0502    0.2789    5.2208 C   0  0  0  0  0  0  0  0  0  0  0  0
   -2.8099   -0.5175    5.2742 H   0  0  0  0  0  0  0  0  0  0  0  0
   -1.2190   -0.0687    5.8551 H   0  0  0  0  0  0  0  0  0  0  0  0
   -2.4882    1.1338    5.7604 H   0  0  0  0  0  0  0  0  0  0  0  0
   -2.3680    1.5337    3.1790 N   0  0  0  0  0  0  0  0  0  0  0  0
   -2.1212    1.9597    1.8266 C   0  0  2  0  0  0  0  0  0  0  0  0
   -0.7862    1.3744    1.3854 C   0  0  0  0  0  0  0  0  0  0  0  0
    0.0859    1.0216    2.1767 O   0  0  0  0  0  0  0  0  0  0  0  0
   -2.1124    3.4765    1.7171 C   0  0  0  0  0  0  0  0  0  0  0  0
   -3.1331    1.9695    3.6908 H   0  0  0  0  0  0  0  0  0  0  0  0
   -2.9253    1.5413    1.2115 H   0  0  0  0  0  0  0  0  0  0  0  0
   -1.3133    3.9138    2.3268 H   0  0  0  0  0  0  0  0  0  0  0  0
   -1.9529    3.7988    0.6829 H   0  0  0  0  0  0  0  0  0  0  0  0
   -3.0626    3.8977    2.0629 H   0  0  0  0  0  0  0  0  0  0  0  0
   -0.6635    1.3313    0.0020 N   0  0  0  0  0  0  0  0  0  0  0  0
    0.5138    0.8305   -0.6617 C   0  0  2  0  0  0  0  0  0  0  0  0
    1.7002    1.1073    0.2548 C   0  0  0  0  0  0  0  0  0  0  0  0
    2.1624    2.2328    0.4296 O   0  0  0  0  0  0  0  0  0  0  0  0
    0.7317    1.4885   -2.0290 C   0  0  0  0  0  0  0  0  0  0  0  0
   -0.3740    1.1789   -3.0085 C   0  0  0  0  0  0  0  0  0  0  0  0
   -0.4555   -0.0558   -3.6023 N   0  0  0  0  0  0  0  0  0  0  0  0
   -1.3899    2.0022   -3.4333 C   0  0  0  0  0  0  0  0  0  0  0  0
   -1.5122    0.0163   -4.3809 C   0  0  0  0  0  0  0  0  0  0  0  0
   -2.1105    1.2438   -4.3123 N   0  0  0  0  0  0  0  0  0  0  0  0
   -1.4467    1.6280   -0.5753 H   0  0  0  0  0  0  0  0  0  0  0  0
    0.3805   -0.2534   -0.7587 H   0  0  0  0  0  0  0  0  0  0  0  0
    1.6970    1.1777   -2.4512 H   0  0  0  0  0  0  0  0  0  0  0  0
    0.8016    2.5792   -1.9230 H   0  0  0  0  0  0  0  0  0  0  0  0
   -1.6591    3.0226   -3.2012 H   0  0  0  0  0  0  0  0  0  0  0  0
   -1.8934   -0.7740   -5.0120 H   0  0  0  0  0  0  0  0  0  0  0  0
   -2.9356    1.5362   -4.8187 H   0  0  0  0  0  0  0  0  0  0  0  0
    2.1461   -0.0437    0.8895 N   0  0  0  0  0  0  0  0  0  0  0  0
    3.2439   -0.0571    1.8294 C   0  0  2  0  0  0  0  0  0  0  0  0
    4.4187    0.6721    1.1908 C   0  0  0  0  0  0  0  0  0  0  0  0
    4.5413    0.8113   -0.0244 O   0  0  0  0  0  0  0  0  0  0  0  0
    3.6286   -1.4781    2.2107 C   0  0  0  0  0  0  0  0  0  0  0  0
    1.6773   -0.9208    0.6830 H   0  0  0  0  0  0  0  0  0  0  0  0
    2.9089    0.4941    2.7148 H   0  0  0  0  0  0  0  0  0  0  0  0
    3.9670   -2.0459    1.3363 H   0  0  0  0  0  0  0  0  0  0  0  0
    4.4414   -1.4858    2.9445 H   0  0  0  0  0  0  0  0  0  0  0  0
    2.7743   -2.0106    2.6425 H   0  0  0  0  0  0  0  0  0  0  0  0
    5.3359    1.1115    2.1352 N   0  0  0  0  0  0  0  0  0  0  0  0
    6.5431    1.8198    1.7789 C   0  0  0  0  0  0  0  0  0  0  0  0
    5.1437    0.9691    3.1224 H   0  0  0  0  0  0  0  0  0  0  0  0
    7.3682    1.1022    1.6597 H   0  0  0  0  0  0  0  0  0  0  0  0
    6.3863    2.3586    0.8328 H   0  0  0  0  0  0  0  0  0  0  0  0
    6.7942    2.5386    2.5728 H   0  0  0  0  0  0  0  0  0  0  0  0
 22 24  2  0  0  0  0
 24 26  1  0  0  0  0
 23 25  2  0  0  0  0
 25 26  1  0  0  0  0
 21 22  1  0  0  0  0
 22 23  1  0  0  0  0
  1  3  1  0  0  0  0
  1  7  1  0  0  0  0
  1  2  2  0  0  0  0
 35 36  1  0  0  0  0
 36 44  1  0  0  0  0
 36 37  2  0  0  0  0
  8  9  1  0  0  0  0
  9 17  1  0  0  0  0
  9 10  2  0  0  0  0
 18 19  1  0  0  0  0
 19 34  1  0  0  0  0
 19 20  2  0  0  0  0
 35 38  1  0  0  0  0
  8 11  1  0  0  0  0
 44 45  1  0  0  0  0
 18 21  1  0  0  0  0
 34 35  1  0  0  0  0
  7  8  1  0  0  0  0
 17 18  1  0  0  0  0
 24 31  1  0  0  0  0
 25 32  1  0  0  0  0
  3  4  1  0  0  0  0
  3  5  1  0  0  0  0
  3  6  1  0  0  0  0
 38 41  1  0  0  0  0
 38 42  1  0  0  0  0
 38 43  1  0  0  0  0
 11 14  1  0  0  0  0
 11 15  1  0  0  0  0
 11 16  1  0  0  0  0
 45 47  1  0  0  0  0
 45 48  1  0  0  0  0
 45 49  1  0  0  0  0
 21 29  1  0  0  0  0
 21 30  1  0  0  0  0
 35 40  1  0  0  0  0
  8 13  1  0  0  0  0
 18 28  1  0  0  0  0
 26 33  1  0  0  0  0
 44 46  1  0  0  0  0
  7 12  1  0  0  0  0
 34 39  1  0  0  0  0
 17 27  1  0  0  0  0
M  END
$$$$

  -OEChem-05262214473D

 49 49  0     1  0  0  0  0  0999 V2000
   -1.6183    0.5613    3.8201 C   0  0  0  0  0  0  0  0  0  0  0  0
   -0.6710   -0.0534    3.3444 O   0  0  0  0  0  0  0  0  0  0  0  0
   -2.0502    0.2789    5.2208 C   0  0  0  0  0  0  0  0  0  0  0  0
   -2.8099   -0.5175    5.2742 H   0  0  0  0  0  0  0  0  0  0  0  0
   -1.2190   -0.0687    5.8551 H   0  0  0  0  0  0  0  0  0  0  0  0
   -2.4882    1.1338    5.7604 H   0  0  0  0  0  0  0  0  0  0  0  0
   -2.3680    1.5337    3.1790 N   0  0  0  0  0  0  0  0  0  0  0  0
   -2.1212    1.9597    1.8266 C   0  0  2  0  0  0  0  0  0  0  0  0
   -0.7862    1.3744    1.3854 C   0  0  0  0  0  0  0  0  0  0  0  0
    0.0859    1.0216    2.1767 O   0  0  0  0  0  0  0  0  0  0  0  0
   -2.1124    3.4765    1.7171 C   0  0  0  0  0  0  0  0  0  0  0  0
   -3.1331    1.9695    3.6908 H   0  0  0  0  0  0  0  0  0  0  0  0
   -2.9253    1.5413    1.2115 H   0  0  0  0  0  0  0  0  0  0  0  0
   -1.3133    3.9138    2.3268 H   0  0  0  0  0  0  0  0  0  0  0  0
   -1.9529    3.7988    0.6829 H   0  0  0  0  0  0  0  0  0  0  0  0
   -3.0626    3.8977    2.0629 H   0  0  0  0  0  0  0  0  0  0  0  0
   -0.6635    1.3313    0.0020 N   0  0  0  0  0  0  0  0  0  0  0  0
    0.5138    0.8305   -0.6617 C   0  0  2  0  0  0  0  0  0  0  0  0
    1.7002    1.1073    0.2548 C   0  0  0  0  0  0  0  0  0  0  0  0
    1.9975    2.2352    0.6424 O   0  0  0  0  0  0  0  0  0  0  0  0
    0.7317    1.4885   -2.0290 C   0  0  0  0  0  0  0  0  0  0  0  0
   -0.3740    1.1789   -3.0085 C   0  0  0  0  0  0  0  0  0  0  0  0
   -0.4555   -0.0558   -3.6023 N   0  0  0  0  0  0  0  0  0  0  0  0
   -1.3899    2.0022   -3.4333 C   0  0  0  0  0  0  0  0  0  0  0  0
   -1.5122    0.0163   -4.3809 C   0  0  0  0  0  0  0  0  0  0  0  0
   -2.1105    1.2438   -4.3123 N   0  0  0  0  0  0  0  0  0  0  0  0
   -1.4467    1.6280   -0.5753 H   0  0  0  0  0  0  0  0  0  0  0  0
    0.3805   -0.2534   -0.7587 H   0  0  0  0  0  0  0  0  0  0  0  0
    1.6970    1.1777   -2.4512 H   0  0  0  0  0  0  0  0  0  0  0  0
    0.8016    2.5792   -1.9230 H   0  0  0  0  0  0  0  0  0  0  0  0
   -1.6591    3.0226   -3.2012 H   0  0  0  0  0  0  0  0  0  0  0  0
   -1.8934   -0.7740   -5.0120 H   0  0  0  0  0  0  0  0  0  0  0  0
   -2.9356    1.5362   -4.8187 H   0  0  0  0  0  0  0  0  0  0  0  0
    2.3536   -0.0598    0.6257 N   0  0  0  0  0  0  0  0  0  0  0  0
    3.4978   -0.0824    1.5083 C   0  0  2  0  0  0  0  0  0  0  0  0
    4.5067    0.9374    0.9968 C   0  0  0  0  0  0  0  0  0  0  0  0
    4.5302    1.3320   -0.1672 O   0  0  0  0  0  0  0  0  0  0  0  0
    4.1156   -1.4703    1.5779 C   0  0  0  0  0  0  0  0  0  0  0  0
    2.0103   -0.9423    0.2583 H   0  0  0  0  0  0  0  0  0  0  0  0
    3.1400    0.2218    2.4980 H   0  0  0  0  0  0  0  0  0  0  0  0
    4.4800   -1.7922    0.5955 H   0  0  0  0  0  0  0  0  0  0  0  0
    4.9648   -1.4925    2.2689 H   0  0  0  0  0  0  0  0  0  0  0  0
    3.3802   -2.2076    1.9176 H   0  0  0  0  0  0  0  0  0  0  0  0
    5.4047    1.3228    1.9822 N   0  0  0  0  0  0  0  0  0  0  0  0
    6.4665    2.2718    1.7415 C   0  0  0  0  0  0  0  0  0  0  0  0
    5.2988    0.9590    2.9247 H   0  0  0  0  0  0  0  0  0  0  0  0
    7.3812    1.7338    1.4521 H   0  0  0  0  0  0  0  0  0  0  0  0
    6.1710    2.9547    0.9314 H   0  0  0  0  0  0  0  0  0  0  0  0
    6.6558    2.8502    2.6579 H   0  0  0  0  0  0  0  0  0  0  0  0
 22 24  2  0  0  0  0
 24 26  1  0  0  0  0
 23 25  2  0  0  0  0
 25 26  1  0  0  0  0
 21 22  1  0  0  0  0
 22 23  1  0  0  0  0
  1  3  1  0  0  0  0
  1  7  1  0  0  0  0
  1  2  2  0  0  0  0
 35 36  1  0  0  0  0
 36 44  1  0  0  0  0
 36 37  2  0  0  0  0
  8  9  1  0  0  0  0
  9 17  1  0  0  0  0
  9 10  2  0  0  0  0
 18 19  1  0  0  0  0
 19 34  1  0  0  0  0
 19 20  2  0  0  0  0
 35 38  1  0  0  0  0
  8 11  1  0  0  0  0
 44 45  1  0  0  0  0
 18 21  1  0  0  0  0
 34 35  1  0  0  0  0
  7  8  1  0  0  0  0
 17 18  1  0  0  0  0
 24 31  1  0  0  0  0
 25 32  1  0  0  0  0
  3  4  1  0  0  0  0
  3  5  1  0  0  0  0
  3  6  1  0  0  0  0
 38 41  1  0  0  0  0
 38 42  1  0  0  0  0
 38 43  1  0  0  0  0
 11 14  1  0  0  0  0
 11 15  1  0  0  0  0
 11 16  1  0  0  0  0
 45 47  1  0  0  0  0
 45 48  1  0  0  0  0
 45 49  1  0  0  0  0
 21 29  1  0  0  0  0
 21 30  1  0  0  0  0
 35 40  1  0  0  0  0
  8 13  1  0  0  0  0
 18 28  1  0  0  0  0
 26 33  1  0  0  0  0
 44 46  1  0  0  0  0
  7 12  1  0  0  0  0
 34 39  1  0  0  0  0
 17 27  1  0  0  0  0
M  END
$$$$

  -OEChem-05262214473D

 49 49  0     1  0  0  0  0  0999 V2000
   -1.6183    0.5613    3.8201 C   0  0  0  0  0  0  0  0  0  0  0  0
   -0.6710   -0.0534    3.3444 O   0  0  0  0  0  0  0  0  0  0  0  0
   -2.0502    0.2789    5.2208 C   0  0  0  0  0  0  0  0  0  0  0  0
   -2.8099   -0.5175    5.2742 H   0  0  0  0  0  0  0  0  0  0  0  0
   -1.2190   -0.0687    5.8551 H   0  0  0  0  0  0  0  0  0  0  0  0
   -2.4882    1.1338    5.7604 H   0  0  0  0  0  0  0  0  0  0  0  0
   -2.3680    1.5337    3.1790 N   0  0  0  0  0  0  0  0  0  0  0  0
   -2.1212    1.9597    1.8266 C   0  0  2  0  0  0  0  0  0  0  0  0
   -0.7862    1.3744    1.3854 C   0  0  0  0  0  0  0  0  0  0  0  0
    0.0859    1.0216    2.1767 O   0  0  0  0  0  0  0  0  0  0  0  0
   -2.1124    3.4765    1.7171 C   0  0  0  0  0  0  0  0  0  0  0  0
   -3.1331    1.9695    3.6908 H   0  0  0  0  0  0  0  0  0  0  0  0
   -2.9253    1.5413    1.2115 H   0  0  0  0  0  0  0  0  0  0  0  0
   -1.3133    3.9138    2.3268 H   0  0  0  0  0  0  0  0  0  0  0  0
   -1.9529    3.7988    0.6829 H   0  0  0  0  0  0  0  0  0  0  0  0
   -3.0626    3.8977    2.0629 H   0  0  0  0  0  0  0  0  0  0  0  0
   -0.6635    1.3313    0.0020 N   0  0  0  0  0  0  0  0  0  0  0  0
    0.5138    0.8305   -0.6617 C   0  0  2  0  0  0  0  0  0  0  0  0
    1.7002    1.1073    0.2548 C   0  0  0  0  0  0  0  0  0  0  0  0
    1.8478    2.1691    0.8561 O   0  0  0  0  0  0  0  0  0  0  0  0
    0.7317    1.4885   -2.0290 C   0  0  0  0  0  0  0  0  0  0  0  0
   -0.3740    1.1789   -3.0085 C   0  0  0  0  0  0  0  0  0  0  0  0
   -0.4555   -0.0558   -3.6023 N   0  0  0  0  0  0  0  0  0  0  0  0
   -1.3899    2.0022   -3.4333 C   0  0  0  0  0  0  0  0  0  0  0  0
   -1.5122    0.0163   -4.3809 C   0  0  0  0  0  0  0  0  0  0  0  0
   -2.1105    1.2438   -4.3123 N   0  0  0  0  0  0  0  0  0  0  0  0
   -1.4467    1.6280   -0.5753 H   0  0  0  0  0  0  0  0  0  0  0  0
    0.3805   -0.2534   -0.7587 H   0  0  0  0  0  0  0  0  0  0  0  0
    1.6970    1.1777   -2.4512 H   0  0  0  0  0  0  0  0  0  0  0  0
    0.8016    2.5792   -1.9230 H   0  0  0  0  0  0  0  0  0  0  0  0
   -1.6591    3.0226   -3.2012 H   0  0  0  0  0  0  0  0  0  0  0  0
   -1.8934   -0.7740   -5.0120 H   0  0  0  0  0  0  0  0  0  0  0  0
   -2.9356    1.5362   -4.8187 H   0  0  0  0  0  0  0  0  0  0  0  0
    2.5441    0.0102    0.3579 N   0  0  0  0  0  0  0  0  0  0  0  0
    3.7319   -0.0027    1.1812 C   0  0  2  0  0  0  0  0  0  0  0  0
    4.5413    1.2465    0.8586 C   0  0  0  0  0  0  0  0  0  0  0  0
    4.4318    1.8619   -0.1998 O   0  0  0  0  0  0  0  0  0  0  0  0
    4.5550   -1.2596    0.9453 C   0  0  0  0  0  0  0  0  0  0  0  0
    2.3154   -0.8258   -0.1719 H   0  0  0  0  0  0  0  0  0  0  0  0
    3.3953    0.0384    2.2228 H   0  0  0  0  0  0  0  0  0  0  0  0
    4.9012   -1.3182   -0.0930 H   0  0  0  0  0  0  0  0  0  0  0  0
    5.4396   -1.2814    1.5903 H   0  0  0  0  0  0  0  0  0  0  0  0
    3.9621   -2.1577    1.1492 H   0  0  0  0  0  0  0  0  0  0  0  0
    5.4312    1.5683    1.8738 N   0  0  0  0  0  0  0  0  0  0  0  0
    6.3204    2.7040    1.8001 C   0  0  0  0  0  0  0  0  0  0  0  0
    5.4408    1.0133    2.7245 H   0  0  0  0  0  0  0  0  0  0  0  0
    7.2858    2.3877    1.3782 H   0  0  0  0  0  0  0  0  0  0  0  0
    5.8750    3.4772    1.1568 H   0  0  0  0  0  0  0  0  0  0  0  0
    6.4777    3.1125    2.8092 H   0  0  0  0  0  0  0  0  0  0  0  0
 22 24  2  0  0  0  0
 24 26  1  0  0  0  0
 23 25  2  0  0  0  0
 25 26  1  0  0  0  0
 21 22  1  0  0  0  0
 22 23  1  0  0  0  0
  1  3  1  0  0  0  0
  1  7  1  0  0  0  0
  1  2  2  0  0  0  0
 35 36  1  0  0  0  0
 36 44  1  0  0  0  0
 36 37  2  0  0  0  0
  8  9  1  0  0  0  0
  9 17  1  0  0  0  0
  9 10  2  0  0  0  0
 18 19  1  0  0  0  0
 19 34  1  0  0  0  0
 19 20  2  0  0  0  0
 35 38  1  0  0  0  0
  8 11  1  0  0  0  0
 44 45  1  0  0  0  0
 18 21  1  0  0  0  0
 34 35  1  0  0  0  0
  7  8  1  0  0  0  0
 17 18  1  0  0  0  0
 24 31  1  0  0  0  0
 25 32  1  0  0  0  0
  3  4  1  0  0  0  0
  3  5  1  0  0  0  0
  3  6  1  0  0  0  0
 38 41  1  0  0  0  0
 38 42  1  0  0  0  0
 38 43  1  0  0  0  0
 11 14  1  0  0  0  0
 11 15  1  0  0  0  0
 11 16  1  0  0  0  0
 45 47  1  0  0  0  0
 45 48  1  0  0  0  0
 45 49  1  0  0  0  0
 21 29  1  0  0  0  0
 21 30  1  0  0  0  0
 35 40  1  0  0  0  0
  8 13  1  0  0  0  0
 18 28  1  0  0  0  0
 26 33  1  0  0  0  0
 44 46  1  0  0  0  0
  7 12  1  0  0  0  0
 34 39  1  0  0  0  0
 17 27  1  0  0  0  0
M  END
$$$$

  -OEChem-05262214473D

 49 49  0     1  0  0  0  0  0999 V2000
   -1.6183    0.5613    3.8201 C   0  0  0  0  0  0  0  0  0  0  0  0
   -0.6710   -0.0534    3.3444 O   0  0  0  0  0  0  0  0  0  0  0  0
   -2.0502    0.2789    5.2208 C   0  0  0  0  0  0  0  0  0  0  0  0
   -2.8099   -0.5175    5.2742 H   0  0  0  0  0  0  0  0  0  0  0  0
   -1.2190   -0.0687    5.8551 H   0  0  0  0  0  0  0  0  0  0  0  0
   -2.4882    1.1338    5.7604 H   0  0  0  0  0  0  0  0  0  0  0  0
   -2.3680    1.5337    3.1790 N   0  0  0  0  0  0  0  0  0  0  0  0
   -2.1212    1.9597    1.8266 C   0  0  2  0  0  0  0  0  0  0  0  0
   -0.7862    1.3744    1.3854 C   0  0  0  0  0  0  0  0  0  0  0  0
    0.0859    1.0216    2.1767 O   0  0  0  0  0  0  0  0  0  0  0  0
   -2.1124    3.4765    1.7171 C   0  0  0  0  0  0  0  0  0  0  0  0
   -3.1331    1.9695    3.6908 H   0  0  0  0  0  0  0  0  0  0  0  0
   -2.9253    1.5413    1.2115 H   0  0  0  0  0  0  0  0  0  0  0  0
   -1.3133    3.9138    2.3268 H   0  0  0  0  0  0  0  0  0  0  0  0
   -1.9529    3.7988    0.6829 H   0  0  0  0  0  0  0  0  0  0  0  0
   -3.0626    3.8977    2.0629 H   0  0  0  0  0  0  0  0  0  0  0  0
   -0.6635    1.3313    0.0020 N   0  0  0  0  0  0  0  0  0  0  0  0
    0.5138    0.8305   -0.6617 C   0  0  2  0  0  0  0  0  0  0  0  0
    1.7002    1.1073    0.2548 C   0  0  0  0  0  0  0  0  0  0  0  0
    1.7236    2.0389    1.0563 O   0  0  0  0  0  0  0  0  0  0  0  0
    0.7317    1.4885   -2.0290 C   0  0  0  0  0  0  0  0  0  0  0  0
   -0.3740    1.1789   -3.0085 C   0  0  0  0  0  0  0  0  0  0  0  0
   -0.4555   -0.0558   -3.6023 N   0  0  0  0  0  0  0  0  0  0  0  0
   -1.3899    2.0022   -3.4333 C   0  0  0  0  0  0  0  0  0  0  0  0
   -1.5122    0.0163   -4.3809 C   0  0  0  0  0  0  0  0  0  0  0  0
   -2.1105    1.2438   -4.3123 N   0  0  0  0  0  0  0  0  0  0  0  0
   -1.4467    1.6280   -0.5753 H   0  0  0  0  0  0  0  0  0  0  0  0
    0.3805   -0.2534   -0.7587 H   0  0  0  0  0  0  0  0  0  0  0  0
    1.6970    1.1777   -2.4512 H   0  0  0  0  0  0  0  0  0  0  0  0
    0.8016    2.5792   -1.9230 H   0  0  0  0  0  0  0  0  0  0  0  0
   -1.6591    3.0226   -3.2012 H   0  0  0  0  0  0  0  0  0  0  0  0
   -1.8934   -0.7740   -5.0120 H   0  0  0  0  0  0  0  0  0  0  0  0
   -2.9356    1.5362   -4.8187 H   0  0  0  0  0  0  0  0  0  0  0  0
    2.7047    0.1613    0.1044 N   0  0  0  0  0  0  0  0  0  0  0  0
    3.9303    0.1766    0.8702 C   0  0  2  0  0  0  0  0  0  0  0  0
    4.5201    1.5782    0.7858 C   0  0  0  0  0  0  0  0  0  0  0  0
    4.2527    2.3651   -0.1199 O   0  0  0  0  0  0  0  0  0  0  0  0
    4.9170   -0.8602    0.3561 C   0  0  0  0  0  0  0  0  0  0  0  0
    2.5717   -0.5790   -0.5782 H   0  0  0  0  0  0  0  0  0  0  0  0
    3.6575   -0.0436    1.9081 H   0  0  0  0  0  0  0  0  0  0  0  0
    5.2020   -0.6561   -0.6824 H   0  0  0  0  0  0  0  0  0  0  0  0
    5.8336   -0.8669    0.9551 H   0  0  0  0  0  0  0  0  0  0  0  0
    4.4802   -1.8641    0.3897 H   0  0  0  0  0  0  0  0  0  0  0  0
    5.4134    1.8315    1.8173 N   0  0  0  0  0  0  0  0  0  0  0  0
    6.1149    3.0869    1.9506 C   0  0  0  0  0  0  0  0  0  0  0  0
    5.5601    1.1281    2.5353 H   0  0  0  0  0  0  0  0  0  0  0  0
    7.0884    3.0193    1.4429 H   0  0  0  0  0  0  0  0  0  0  0  0
    5.5184    3.8904    1.4937 H   0  0  0  0  0  0  0  0  0  0  0  0
    6.2719    3.3077    3.0167 H   0  0  0  0  0  0  0  0  0  0  0  0
 22 24  2  0  0  0  0
 24 26  1  0  0  0  0
 23 25  2  0  0  0  0
 25 26  1  0  0  0  0
 21 22  1  0  0  0  0
 22 23  1  0  0  0  0
  1  3  1  0  0  0  0
  1  7  1  0  0  0  0
  1  2  2  0  0  0  0
 35 36  1  0  0  0  0
 36 44  1  0  0  0  0
 36 37  2  0  0  0  0
  8  9  1  0  0  0  0
  9 17  1  0  0  0  0
  9 10  2  0  0  0  0
 18 19  1  0  0  0  0
 19 34  1  0  0  0  0
 19 20  2  0  0  0  0
 35 38  1  0  0  0  0
  8 11  1  0  0  0  0
 44 45  1  0  0  0  0
 18 21  1  0  0  0  0
 34 35  1  0  0  0  0
  7  8  1  0  0  0  0
 17 18  1  0  0  0  0
 24 31  1  0  0  0  0
 25 32  1  0  0  0  0
  3  4  1  0  0  0  0
  3  5  1  0  0  0  0
  3  6  1  0  0  0  0
 38 41  1  0  0  0  0
 38 42  1  0  0  0  0
 38 43  1  0  0  0  0
 11 14  1  0  0  0  0
 11 15  1  0  0  0  0
 11 16  1  0  0  0  0
 45 47  1  0  0  0  0
 45 48  1  0  0  0  0
 45 49  1  0  0  0  0
 21 29  1  0  0  0  0
 21 30  1  0  0  0  0
 35 40  1  0  0  0  0
  8 13  1  0  0  0  0
 18 28  1  0  0  0  0
 26 33  1  0  0  0  0
 44 46  1  0  0  0  0
  7 12  1  0  0  0  0
 34 39  1  0  0  0  0
 17 27  1  0  0  0  0
M  END
$$$$

  -OEChem-05262214473D

 49 49  0     1  0  0  0  0  0999 V2000
   -1.6183    0.5613    3.8201 C   0  0  0  0  0  0  0  0  0  0  0  0
   -0.6710   -0.0534    3.3444 O   0  0  0  0  0  0  0  0  0  0  0  0
   -2.0502    0.2789    5.2208 C   0  0  0  0  0  0  0  0  0  0  0  0
   -2.8099   -0.5175    5.2742 H   0  0  0  0  0  0  0  0  0  0  0  0
   -1.2190   -0.0687    5.8551 H   0  0  0  0  0  0  0  0  0  0  0  0
   -2.4882    1.1338    5.7604 H   0  0  0  0  0  0  0  0  0  0  0  0
   -2.3680    1.5337    3.1790 N   0  0  0  0  0  0  0  0  0  0  0  0
   -2.1212    1.9597    1.8266 C   0  0  2  0  0  0  0  0  0  0  0  0
   -0.7862    1.3744    1.3854 C   0  0  0  0  0  0  0  0  0  0  0  0
    0.0859    1.0216    2.1767 O   0  0  0  0  0  0  0  0  0  0  0  0
   -2.1124    3.4765    1.7171 C   0  0  0  0  0  0  0  0  0  0  0  0
   -3.1331    1.9695    3.6908 H   0  0  0  0  0  0  0  0  0  0  0  0
   -2.9253    1.5413    1.2115 H   0  0  0  0  0  0  0  0  0  0  0  0
   -1.3133    3.9138    2.3268 H   0  0  0  0  0  0  0  0  0  0  0  0
   -1.9529    3.7988    0.6829 H   0  0  0  0  0  0  0  0  0  0  0  0
   -3.0626    3.8977    2.0629 H   0  0  0  0  0  0  0  0  0  0  0  0
   -0.6635    1.3313    0.0020 N   0  0  0  0  0  0  0  0  0  0  0  0
    0.5138    0.8305   -0.6617 C   0  0  2  0  0  0  0  0  0  0  0  0
    1.7002    1.1073    0.2548 C   0  0  0  0  0  0  0  0  0  0  0  0
    1.6332    1.8535    1.2292 O   0  0  0  0  0  0  0  0  0  0  0  0
    0.7317    1.4885   -2.0290 C   0  0  0  0  0  0  0  0  0  0  0  0
   -0.3740    1.1789   -3.0085 C   0  0  0  0  0  0  0  0  0  0  0  0
   -0.4555   -0.0558   -3.6023 N   0  0  0  0  0  0  0  0  0  0  0  0
   -1.3899    2.0022   -3.4333 C   0  0  0  0  0  0  0  0  0  0  0  0
   -1.5122    0.0163   -4.3809 C   0  0  0  0  0  0  0  0  0  0  0  0
   -2.1105    1.2438   -4.3123 N   0  0  0  0  0  0  0  0  0  0  0  0
   -1.4467    1.6280   -0.5753 H   0  0  0  0  0  0  0  0  0  0  0  0
    0.3805   -0.2534   -0.7587 H   0  0  0  0  0  0  0  0  0  0  0  0
    1.6970    1.1777   -2.4512 H   0  0  0  0  0  0  0  0  0  0  0  0
    0.8016    2.5792   -1.9230 H   0  0  0  0  0  0  0  0  0  0  0  0
   -1.6591    3.0226   -3.2012 H   0  0  0  0  0  0  0  0  0  0  0  0
   -1.8934   -0.7740   -5.0120 H   0  0  0  0  0  0  0  0  0  0  0  0
   -2.9356    1.5362   -4.8187 H   0  0  0  0  0  0  0  0  0  0  0  0
    2.8244    0.3833   -0.1176 N   0  0  0  0  0  0  0  0  0  0  0  0
    4.0794    0.4433    0.5966 C   0  0  2  0  0  0  0  0  0  0  0  0
    4.4446    1.9100    0.7833 C   0  0  0  0  0  0  0  0  0  0  0  0
    4.0052    2.8071    0.0670 O   0  0  0  0  0  0  0  0  0  0  0  0
    5.1768   -0.2994   -0.1496 C   0  0  0  0  0  0  0  0  0  0  0  0
    2.7618   -0.2190   -0.9331 H   0  0  0  0  0  0  0  0  0  0  0  0
    3.9088   -0.0186    1.5752 H   0  0  0  0  0  0  0  0  0  0  0  0
    5.3618    0.1490   -1.1325 H   0  0  0  0  0  0  0  0  0  0  0  0
    6.1197   -0.2774    0.4066 H   0  0  0  0  0  0  0  0  0  0  0  0
    4.8994   -1.3470   -0.3091 H   0  0  0  0  0  0  0  0  0  0  0  0
    5.3527    2.0943    1.8166 N   0  0  0  0  0  0  0  0  0  0  0  0
    5.8638    3.3945    2.1827 C   0  0  0  0  0  0  0  0  0  0  0  0
    5.6486    1.2956    2.3701 H   0  0  0  0  0  0  0  0  0  0  0  0
    6.8025    3.5856    1.6420 H   0  0  0  0  0  0  0  0  0  0  0  0
    5.1254    4.1661    1.9192 H   0  0  0  0  0  0  0  0  0  0  0  0
    6.0526    3.4225    3.2660 H   0  0  0  0  0  0  0  0  0  0  0  0
 22 24  2  0  0  0  0
 24 26  1  0  0  0  0
 23 25  2  0  0  0  0
 25 26  1  0  0  0  0
 21 22  1  0  0  0  0
 22 23  1  0  0  0  0
  1  3  1  0  0  0  0
  1  7  1  0  0  0  0
  1  2  2  0  0  0  0
 35 36  1  0  0  0  0
 36 44  1  0  0  0  0
 36 37  2  0  0  0  0
  8  9  1  0  0  0  0
  9 17  1  0  0  0  0
  9 10  2  0  0  0  0
 18 19  1  0  0  0  0
 19 34  1  0  0  0  0
 19 20  2  0  0  0  0
 35 38  1  0  0  0  0
  8 11  1  0  0  0  0
 44 45  1  0  0  0  0
 18 21  1  0  0  0  0
 34 35  1  0  0  0  0
  7  8  1  0  0  0  0
 17 18  1  0  0  0  0
 24 31  1  0  0  0  0
 25 32  1  0  0  0  0
  3  4  1  0  0  0  0
  3  5  1  0  0  0  0
  3  6  1  0  0  0  0
 38 41  1  0  0  0  0
 38 42  1  0  0  0  0
 38 43  1  0  0  0  0
 11 14  1  0  0  0  0
 11 15  1  0  0  0  0
 11 16  1  0  0  0  0
 45 47  1  0  0  0  0
 45 48  1  0  0  0  0
 45 49  1  0  0  0  0
 21 29  1  0  0  0  0
 21 30  1  0  0  0  0
 35 40  1  0  0  0  0
  8 13  1  0  0  0  0
 18 28  1  0  0  0  0
 26 33  1  0  0  0  0
 44 46  1  0  0  0  0
  7 12  1  0  0  0  0
 34 39  1  0  0  0  0
 17 27  1  0  0  0  0
M  END
$$$$

  -OEChem-05262214473D

 49 49  0     1  0  0  0  0  0999 V2000
   -1.6183    0.5613    3.8201 C   0  0  0  0  0  0  0  0  0  0  0  0
   -0.6710   -0.0534    3.3444 O   0  0  0  0  0  0  0  0  0  0  0  0
   -2.0502    0.2789    5.2208 C   0  0  0  0  0  0  0  0  0  0  0  0
   -2.8099   -0.5175    5.2742 H   0  0  0  0  0  0  0  0  0  0  0  0
   -1.2190   -0.0687    5.8551 H   0  0  0  0  0  0  0  0  0  0  0  0
   -2.4882    1.1338    5.7604 H   0  0  0  0  0  0  0  0  0  0  0  0
   -2.3680    1.5337    3.1790 N   0  0  0  0  0  0  0  0  0  0  0  0
   -2.1212    1.9597    1.8266 C   0  0  2  0  0  0  0  0  0  0  0  0
   -0.7862    1.3744    1.3854 C   0  0  0  0  0  0  0  0  0  0  0  0
    0.0859    1.0216    2.1767 O   0  0  0  0  0  0  0  0  0  0  0  0
   -2.1124    3.4765    1.7171 C   0  0  0  0  0  0  0  0  0  0  0  0
   -3.1331    1.9695    3.6908 H   0  0  0  0  0  0  0  0  0  0  0  0
   -2.9253    1.5413    1.2115 H   0  0  0  0  0  0  0  0  0  0  0  0
   -1.3133    3.9138    2.3268 H   0  0  0  0  0  0  0  0  0  0  0  0
   -1.9529    3.7988    0.6829 H   0  0  0  0  0  0  0  0  0  0  0  0
   -3.0626    3.8977    2.0629 H   0  0  0  0  0  0  0  0  0  0  0  0
   -0.6635    1.3313    0.0020 N   0  0  0  0  0  0  0  0  0  0  0  0
    0.5138    0.8305   -0.6617 C   0  0  2  0  0  0  0  0  0  0  0  0
    1.6229    0.7573    0.3817 C   0  0  0  0  0  0  0  0  0  0  0  0
    1.4498    1.0469    1.5637 O   0  0  0  0  0  0  0  0  0  0  0  0
    0.9418    1.7223   -1.8328 C   0  0  0  0  0  0  0  0  0  0  0  0
   -0.0846    1.7662   -2.9384 C   0  0  0  0  0  0  0  0  0  0  0  0
   -0.2395    0.7013   -3.7903 N   0  0  0  0  0  0  0  0  0  0  0  0
   -0.9553    2.7833   -3.2516 C   0  0  0  0  0  0  0  0  0  0  0  0
   -1.1963    1.0678   -4.6138 C   0  0  0  0  0  0  0  0  0  0  0  0
   -1.6604    2.3215   -4.3270 N   0  0  0  0  0  0  0  0  0  0  0  0
   -1.4467    1.6280   -0.5753 H   0  0  0  0  0  0  0  0  0  0  0  0
    0.2732   -0.1838   -1.0014 H   0  0  0  0  0  0  0  0  0  0  0  0
    1.9054    1.3835   -2.2366 H   0  0  0  0  0  0  0  0  0  0  0  0
    1.1194    2.7495   -1.4877 H   0  0  0  0  0  0  0  0  0  0  0  0
   -1.1335    3.7600   -2.8252 H   0  0  0  0  0  0  0  0  0  0  0  0
   -1.5949    0.4802   -5.4288 H   0  0  0  0  0  0  0  0  0  0  0  0
   -2.3921    2.8157   -4.8200 H   0  0  0  0  0  0  0  0  0  0  0  0
    2.8115    0.2834   -0.1559 N   0  0  0  0  0  0  0  0  0  0  0  0
    4.0150    0.0954    0.6219 C   0  0  2  0  0  0  0  0  0  0  0  0
    4.2735    1.3756    1.4053 C   0  0  0  0  0  0  0  0  0  0  0  0
    3.8210    2.4689    1.0720 O   0  0  0  0  0  0  0  0  0  0  0  0
    5.2006   -0.2466   -0.2670 C   0  0  0  0  0  0  0  0  0  0  0  0
    2.8368    0.0573   -1.1458 H   0  0  0  0  0  0  0  0  0  0  0  0
    3.8161   -0.7261    1.3188 H   0  0  0  0  0  0  0  0  0  0  0  0
    5.4151    0.5648   -0.9721 H   0  0  0  0  0  0  0  0  0  0  0  0
    6.1052   -0.4167    0.3261 H   0  0  0  0  0  0  0  0  0  0  0  0
    5.0012   -1.1510   -0.8518 H   0  0  0  0  0  0  0  0  0  0  0  0
    5.1042    1.1612    2.4962 N   0  0  0  0  0  0  0  0  0  0  0  0
    5.5079    2.2221    3.3892 C   0  0  0  0  0  0  0  0  0  0  0  0
    5.4172    0.2184    2.7083 H   0  0  0  0  0  0  0  0  0  0  0  0
    6.4631    2.6468    3.0468 H   0  0  0  0  0  0  0  0  0  0  0  0
    4.7386    3.0084    3.3957 H   0  0  0  0  0  0  0  0  0  0  0  0
    5.6292    1.8195    4.4056 H   0  0  0  0  0  0  0  0  0  0  0  0
 22 24  2  0  0  0  0
 24 26  1  0  0  0  0
 23 25  2  0  0  0  0
 25 26  1  0  0  0  0
 21 22  1  0  0  0  0
 22 23  1  0  0  0  0
  1  3  1  0  0  0  0
  1  7  1  0  0  0  0
  1  2  2  0  0  0  0
 35 36  1  0  0  0  0
 36 44  1  0  0  0  0
 36 37  2  0  0  0  0
  8  9  1  0  0  0  0
  9 17  1  0  0  0  0
  9 10  2  0  0  0  0
 18 19  1  0  0  0  0
 19 34  1  0  0  0  0
 19 20  2  0  0  0  0
 35 38  1  0  0  0  0
  8 11  1  0  0  0  0
 44 45  1  0  0  0  0
 18 21  1  0  0  0  0
 34 35  1  0  0  0  0
  7  8  1  0  0  0  0
 17 18  1  0  0  0  0
 24 31  1  0  0  0  0
 25 32  1  0  0  0  0
  3  4  1  0  0  0  0
  3  5  1  0  0  0  0
  3  6  1  0  0  0  0
 38 41  1  0  0  0  0
 38 42  1  0  0  0  0
 38 43  1  0  0  0  0
 11 14  1  0  0  0  0
 11 15  1  0  0  0  0
 11 16  1  0  0  0  0
 45 47  1  0  0  0  0
 45 48  1  0  0  0  0
 45 49  1  0  0  0  0
 21 29  1  0  0  0  0
 21 30  1  0  0  0  0
 35 40  1  0  0  0  0
  8 13  1  0  0  0  0
 18 28  1  0  0  0  0
 26 33  1  0  0  0  0
 44 46  1  0  0  0  0
  7 12  1  0  0  0  0
 34 39  1  0  0  0  0
 17 27  1  0  0  0  0
M  END
$$$$

  -OEChem-05262214473D

 49 49  0     1  0  0  0  0  0999 V2000
   -1.6183    0.5613    3.8201 C   0  0  0  0  0  0  0  0  0  0  0  0
   -0.6710   -0.0534    3.3444 O   0  0  0  0  0  0  0  0  0  0  0  0
   -2.0502    0.2789    5.2208 C   0  0  0  0  0  0  0  0  0  0  0  0
   -2.8099   -0.5175    5.2742 H   0  0  0  0  0  0  0  0  0  0  0  0
   -1.2190   -0.0687    5.8551 H   0  0  0  0  0  0  0  0  0  0  0  0
   -2.4882    1.1338    5.7604 H   0  0  0  0  0  0  0  0  0  0  0  0
   -2.3680    1.5337    3.1790 N   0  0  0  0  0  0  0  0  0  0  0  0
   -2.1212    1.9597    1.8266 C   0  0  2  0  0  0  0  0  0  0  0  0
   -0.7862    1.3744    1.3854 C   0  0  0  0  0  0  0  0  0  0  0  0
    0.0859    1.0216    2.1767 O   0  0  0  0  0  0  0  0  0  0  0  0
   -2.1124    3.4765    1.7171 C   0  0  0  0  0  0  0  0  0  0  0  0
   -3.1331    1.9695    3.6908 H   0  0  0  0  0  0  0  0  0  0  0  0
   -2.9253    1.5413    1.2115 H   0  0  0  0  0  0  0  0  0  0  0  0
   -1.3133    3.9138    2.3268 H   0  0  0  0  0  0  0  0  0  0  0  0
   -1.9529    3.7988    0.6829 H   0  0  0  0  0  0  0  0  0  0  0  0
   -3.0626    3.8977    2.0629 H   0  0  0  0  0  0  0  0  0  0  0  0
   -0.6635    1.3313    0.0020 N   0  0  0  0  0  0  0  0  0  0  0  0
    0.5138    0.8305   -0.6617 C   0  0  2  0  0  0  0  0  0  0  0  0
    1.6229    0.7573    0.3817 C   0  0  0  0  0  0  0  0  0  0  0  0
    1.4064    0.7827    1.5914 O   0  0  0  0  0  0  0  0  0  0  0  0
    0.9418    1.7223   -1.8328 C   0  0  0  0  0  0  0  0  0  0  0  0
   -0.0846    1.7662   -2.9384 C   0  0  0  0  0  0  0  0  0  0  0  0
   -0.2395    0.7013   -3.7903 N   0  0  0  0  0  0  0  0  0  0  0  0
   -0.9553    2.7833   -3.2516 C   0  0  0  0  0  0  0  0  0  0  0  0
   -1.1963    1.0678   -4.6138 C   0  0  0  0  0  0  0  0  0  0  0  0
   -1.6604    2.3215   -4.3270 N   0  0  0  0  0  0  0  0  0  0  0  0
   -1.4467    1.6280   -0.5753 H   0  0  0  0  0  0  0  0  0  0  0  0
    0.2732   -0.1838   -1.0014 H   0  0  0  0  0  0  0  0  0  0  0  0
    1.9054    1.3835   -2.2366 H   0  0  0  0  0  0  0  0  0  0  0  0
    1.1194    2.7495   -1.4877 H   0  0  0  0  0  0  0  0  0  0  0  0
   -1.1335    3.7600   -2.8252 H   0  0  0  0  0  0  0  0  0  0  0  0
   -1.5949    0.4802   -5.4288 H   0  0  0  0  0  0  0  0  0  0  0  0
   -2.3921    2.8157   -4.8200 H   0  0  0  0  0  0  0  0  0  0  0  0
    2.8745    0.6105   -0.2000 N   0  0  0  0  0  0  0  0  0  0  0  0
    4.0958    0.4933    0.5639 C   0  0  2  0  0  0  0  0  0  0  0  0
    4.1254    1.6270    1.5804 C   0  0  0  0  0  0  0  0  0  0  0  0
    3.4837    2.6667    1.4445 O   0  0  0  0  0  0  0  0  0  0  0  0
    5.3193    0.5399   -0.3380 C   0  0  0  0  0  0  0  0  0  0  0  0
    2.9352    0.5840   -1.2136 H   0  0  0  0  0  0  0  0  0  0  0  0
    4.0497   -0.4673    1.0886 H   0  0  0  0  0  0  0  0  0  0  0  0
    5.3824    1.4950   -0.8722 H   0  0  0  0  0  0  0  0  0  0  0  0
    6.2424    0.4223    0.2391 H   0  0  0  0  0  0  0  0  0  0  0  0
    5.2817   -0.2581   -1.0874 H   0  0  0  0  0  0  0  0  0  0  0  0
    4.9860    1.3594    2.6358 N   0  0  0  0  0  0  0  0  0  0  0  0
    5.1981    2.2862    3.7231 C   0  0  0  0  0  0  0  0  0  0  0  0
    5.4630    0.4636    2.6768 H   0  0  0  0  0  0  0  0  0  0  0  0
    6.0607    2.9293    3.4944 H   0  0  0  0  0  0  0  0  0  0  0  0
    4.3010    2.9091    3.8540 H   0  0  0  0  0  0  0  0  0  0  0  0
    5.3939    1.7260    4.6493 H   0  0  0  0  0  0  0  0  0  0  0  0
 22 24  2  0  0  0  0
 24 26  1  0  0  0  0
 23 25  2  0  0  0  0
 25 26  1  0  0  0  0
 21 22  1  0  0  0  0
 22 23  1  0  0  0  0
  1  3  1  0  0  0  0
  1  7  1  0  0  0  0
  1  2  2  0  0  0  0
 35 36  1  0  0  0  0
 36 44  1  0  0  0  0
 36 37  2  0  0  0  0
  8  9  1  0  0  0  0
  9 17  1  0  0  0  0
  9 10  2  0  0  0  0
 18 19  1  0  0  0  0
 19 34  1  0  0  0  0
 19 20  2  0  0  0  0
 35 38  1  0  0  0  0
  8 11  1  0  0  0  0
 44 45  1  0  0  0  0
 18 21  1  0  0  0  0
 34 35  1  0  0  0  0
  7  8  1  0  0  0  0
 17 18  1  0  0  0  0
 24 31  1  0  0  0  0
 25 32  1  0  0  0  0
  3  4  1  0  0  0  0
  3  5  1  0  0  0  0
  3  6  1  0  0  0  0
 38 41  1  0  0  0  0
 38 42  1  0  0  0  0
 38 43  1  0  0  0  0
 11 14  1  0  0  0  0
 11 15  1  0  0  0  0
 11 16  1  0  0  0  0
 45 47  1  0  0  0  0
 45 48  1  0  0  0  0
 45 49  1  0  0  0  0
 21 29  1  0  0  0  0
 21 30  1  0  0  0  0
 35 40  1  0  0  0  0
  8 13  1  0  0  0  0
 18 28  1  0  0  0  0
 26 33  1  0  0  0  0
 44 46  1  0  0  0  0
  7 12  1  0  0  0  0
 34 39  1  0  0  0  0
 17 27  1  0  0  0  0
M  END
$$$$

  -OEChem-05262214473D

 49 49  0     1  0  0  0  0  0999 V2000
   -1.6183    0.5613    3.8201 C   0  0  0  0  0  0  0  0  0  0  0  0
   -0.6710   -0.0534    3.3444 O   0  0  0  0  0  0  0  0  0  0  0  0
   -2.0502    0.2789    5.2208 C   0  0  0  0  0  0  0  0  0  0  0  0
   -2.8099   -0.5175    5.2742 H   0  0  0  0  0  0  0  0  0  0  0  0
   -1.2190   -0.0687    5.8551 H   0  0  0  0  0  0  0  0  0  0  0  0
   -2.4882    1.1338    5.7604 H   0  0  0  0  0  0  0  0  0  0  0  0
   -2.3680    1.5337    3.1790 N   0  0  0  0  0  0  0  0  0  0  0  0
   -2.1212    1.9597    1.8266 C   0  0  2  0  0  0  0  0  0  0  0  0
   -0.7862    1.3744    1.3854 C   0  0  0  0  0  0  0  0  0  0  0  0
    0.0859    1.0216    2.1767 O   0  0  0  0  0  0  0  0  0  0  0  0
   -2.1124    3.4765    1.7171 C   0  0  0  0  0  0  0  0  0  0  0  0
   -3.1331    1.9695    3.6908 H   0  0  0  0  0  0  0  0  0  0  0  0
   -2.9253    1.5413    1.2115 H   0  0  0  0  0  0  0  0  0  0  0  0
   -1.3133    3.9138    2.3268 H   0  0  0  0  0  0  0  0  0  0  0  0
   -1.9529    3.7988    0.6829 H   0  0  0  0  0  0  0  0  0  0  0  0
   -3.0626    3.8977    2.0629 H   0  0  0  0  0  0  0  0  0  0  0  0
   -0.6635    1.3313    0.0020 N   0  0  0  0  0  0  0  0  0  0  0  0
    0.5138    0.8305   -0.6617 C   0  0  2  0  0  0  0  0  0  0  0  0
    1.6229    0.7573    0.3817 C   0  0  0  0  0  0  0  0  0  0  0  0
    1.4108    0.5146    1.5679 O   0  0  0  0  0  0  0  0  0  0  0  0
    0.9418    1.7223   -1.8328 C   0  0  0  0  0  0  0  0  0  0  0  0
   -0.0846    1.7662   -2.9384 C   0  0  0  0  0  0  0  0  0  0  0  0
   -0.2395    0.7013   -3.7903 N   0  0  0  0  0  0  0  0  0  0  0  0
   -0.9553    2.7833   -3.2516 C   0  0  0  0  0  0  0  0  0  0  0  0
   -1.1963    1.0678   -4.6138 C   0  0  0  0  0  0  0  0  0  0  0  0
   -1.6604    2.3215   -4.3270 N   0  0  0  0  0  0  0  0  0  0  0  0
   -1.4467    1.6280   -0.5753 H   0  0  0  0  0  0  0  0  0  0  0  0
    0.2732   -0.1838   -1.0014 H   0  0  0  0  0  0  0  0  0  0  0  0
    1.9054    1.3835   -2.2366 H   0  0  0  0  0  0  0  0  0  0  0  0
    1.1194    2.7495   -1.4877 H   0  0  0  0  0  0  0  0  0  0  0  0
   -1.1335    3.7600   -2.8252 H   0  0  0  0  0  0  0  0  0  0  0  0
   -1.5949    0.4802   -5.4288 H   0  0  0  0  0  0  0  0  0  0  0  0
   -2.3921    2.8157   -4.8200 H   0  0  0  0  0  0  0  0  0  0  0  0
    2.8780    0.9458   -0.1801 N   0  0  0  0  0  0  0  0  0  0  0  0
    4.1041    0.9028    0.5839 C   0  0  2  0  0  0  0  0  0  0  0  0
    3.9356    1.8107    1.7950 C   0  0  0  0  0  0  0  0  0  0  0  0
    3.1182    2.7278    1.8373 O   0  0  0  0  0  0  0  0  0  0  0  0
    5.2955    1.3340   -0.2571 C   0  0  0  0  0  0  0  0  0  0  0  0
    2.9378    1.1230   -1.1785 H   0  0  0  0  0  0  0  0  0  0  0  0
    4.2324   -0.1326    0.9179 H   0  0  0  0  0  0  0  0  0  0  0  0
    5.1849    2.3689   -0.6009 H   0  0  0  0  0  0  0  0  0  0  0  0
    6.2274    1.2735    0.3147 H   0  0  0  0  0  0  0  0  0  0  0  0
    5.3974    0.6984   -1.1434 H   0  0  0  0  0  0  0  0  0  0  0  0
    4.8350    1.5037    2.8065 N   0  0  0  0  0  0  0  0  0  0  0  0
    4.8833    2.2303    4.0538 C   0  0  0  0  0  0  0  0  0  0  0  0
    5.4643    0.7145    2.6930 H   0  0  0  0  0  0  0  0  0  0  0  0
    5.6164    3.0467    3.9749 H   0  0  0  0  0  0  0  0  0  0  0  0
    3.8901    2.6494    4.2726 H   0  0  0  0  0  0  0  0  0  0  0  0
    5.1801    1.5482    4.8641 H   0  0  0  0  0  0  0  0  0  0  0  0
 22 24  2  0  0  0  0
 24 26  1  0  0  0  0
 23 25  2  0  0  0  0
 25 26  1  0  0  0  0
 21 22  1  0  0  0  0
 22 23  1  0  0  0  0
  1  3  1  0  0  0  0
  1  7  1  0  0  0  0
  1  2  2  0  0  0  0
 35 36  1  0  0  0  0
 36 44  1  0  0  0  0
 36 37  2  0  0  0  0
  8  9  1  0  0  0  0
  9 17  1  0  0  0  0
  9 10  2  0  0  0  0
 18 19  1  0  0  0  0
 19 34  1  0  0  0  0
 19 20  2  0  0  0  0
 35 38  1  0  0  0  0
  8 11  1  0  0  0  0
 44 45  1  0  0  0  0
 18 21  1  0  0  0  0
 34 35  1  0  0  0  0
  7  8  1  0  0  0  0
 17 18  1  0  0  0  0
 24 31  1  0  0  0  0
 25 32  1  0  0  0  0
  3  4  1  0  0  0  0
  3  5  1  0  0  0  0
  3  6  1  0  0  0  0
 38 41  1  0  0  0  0
 38 42  1  0  0  0  0
 38 43  1  0  0  0  0
 11 14  1  0  0  0  0
 11 15  1  0  0  0  0
 11 16  1  0  0  0  0
 45 47  1  0  0  0  0
 45 48  1  0  0  0  0
 45 49  1  0  0  0  0
 21 29  1  0  0  0  0
 21 30  1  0  0  0  0
 35 40  1  0  0  0  0
  8 13  1  0  0  0  0
 18 28  1  0  0  0  0
 26 33  1  0  0  0  0
 44 46  1  0  0  0  0
  7 12  1  0  0  0  0
 34 39  1  0  0  0  0
 17 27  1  0  0  0  0
M  END
$$$$

  -OEChem-05262214473D

 49 49  0     1  0  0  0  0  0999 V2000
   -1.6183    0.5613    3.8201 C   0  0  0  0  0  0  0  0  0  0  0  0
   -0.6710   -0.0534    3.3444 O   0  0  0  0  0  0  0  0  0  0  0  0
   -2.0502    0.2789    5.2208 C   0  0  0  0  0  0  0  0  0  0  0  0
   -2.8099   -0.5175    5.2742 H   0  0  0  0  0  0  0  0  0  0  0  0
   -1.2190   -0.0687    5.8551 H   0  0  0  0  0  0  0  0  0  0  0  0
   -2.4882    1.1338    5.7604 H   0  0  0  0  0  0  0  0  0  0  0  0
   -2.3680    1.5337    3.1790 N   0  0  0  0  0  0  0  0  0  0  0  0
   -2.1212    1.9597    1.8266 C   0  0  2  0  0  0  0  0  0  0  0  0
   -0.7862    1.3744    1.3854 C   0  0  0  0  0  0  0  0  0  0  0  0
    0.0859    1.0216    2.1767 O   0  0  0  0  0  0  0  0  0  0  0  0
   -2.1124    3.4765    1.7171 C   0  0  0  0  0  0  0  0  0  0  0  0
   -3.1331    1.9695    3.6908 H   0  0  0  0  0  0  0  0  0  0  0  0
   -2.9253    1.5413    1.2115 H   0  0  0  0  0  0  0  0  0  0  0  0
   -1.3133    3.9138    2.3268 H   0  0  0  0  0  0  0  0  0  0  0  0
   -1.9529    3.7988    0.6829 H   0  0  0  0  0  0  0  0  0  0  0  0
   -3.0626    3.8977    2.0629 H   0  0  0  0  0  0  0  0  0  0  0  0
   -0.6635    1.3313    0.0020 N   0  0  0  0  0  0  0  0  0  0  0  0
    0.5138    0.8305   -0.6617 C   0  0  2  0  0  0  0  0  0  0  0  0
    1.6229    0.7573    0.3817 C   0  0  0  0  0  0  0  0  0  0  0  0
    1.4629    0.2608    1.4947 O   0  0  0  0  0  0  0  0  0  0  0  0
    0.9418    1.7223   -1.8328 C   0  0  0  0  0  0  0  0  0  0  0  0
   -0.0846    1.7662   -2.9384 C   0  0  0  0  0  0  0  0  0  0  0  0
   -0.2395    0.7013   -3.7903 N   0  0  0  0  0  0  0  0  0  0  0  0
   -0.9553    2.7833   -3.2516 C   0  0  0  0  0  0  0  0  0  0  0  0
   -1.1963    1.0678   -4.6138 C   0  0  0  0  0  0  0  0  0  0  0  0
   -1.6604    2.3215   -4.3270 N   0  0  0  0  0  0  0  0  0  0  0  0
   -1.4467    1.6280   -0.5753 H   0  0  0  0  0  0  0  0  0  0  0  0
    0.2732   -0.1838   -1.0014 H   0  0  0  0  0  0  0  0  0  0  0  0
    1.9054    1.3835   -2.2366 H   0  0  0  0  0  0  0  0  0  0  0  0
    1.1194    2.7495   -1.4877 H   0  0  0  0  0  0  0  0  0  0  0  0
   -1.1335    3.7600   -2.8252 H   0  0  0  0  0  0  0  0  0  0  0  0
   -1.5949    0.4802   -5.4288 H   0  0  0  0  0  0  0  0  0  0  0  0
   -2.3921    2.8157   -4.8200 H   0  0  0  0  0  0  0  0  0  0  0  0
    2.8217    1.2667   -0.0978 N   0  0  0  0  0  0  0  0  0  0  0  0
    4.0393    1.2961    0.6803 C   0  0  2  0  0  0  0  0  0  0  0  0
    3.7171    1.9141    2.0345 C   0  0  0  0  0  0  0  0  0  0  0  0
    2.7495    2.6482    2.2237 O   0  0  0  0  0  0  0  0  0  0  0  0
    5.1309    2.0815   -0.0297 C   0  0  0  0  0  0  0  0  0  0  0  0
    2.8445    1.6374   -1.0432 H   0  0  0  0  0  0  0  0  0  0  0  0
    4.3517    0.2552    0.8183 H   0  0  0  0  0  0  0  0  0  0  0  0
    4.8359    3.1269   -0.1768 H   0  0  0  0  0  0  0  0  0  0  0  0
    6.0612    2.0788    0.5478 H   0  0  0  0  0  0  0  0  0  0  0  0
    5.3404    1.6534   -1.0159 H   0  0  0  0  0  0  0  0  0  0  0  0
    4.6614    1.5841    2.9966 N   0  0  0  0  0  0  0  0  0  0  0  0
    4.5851    2.0583    4.3587 C   0  0  0  0  0  0  0  0  0  0  0  0
    5.4208    0.9540    2.7560 H   0  0  0  0  0  0  0  0  0  0  0  0
    5.1604    2.9908    4.4557 H   0  0  0  0  0  0  0  0  0  0  0  0
    3.5341    2.2470    4.6229 H   0  0  0  0  0  0  0  0  0  0  0  0
    5.0024    1.2981    5.0354 H   0  0  0  0  0  0  0  0  0  0  0  0
 22 24  2  0  0  0  0
 24 26  1  0  0  0  0
 23 25  2  0  0  0  0
 25 26  1  0  0  0  0
 21 22  1  0  0  0  0
 22 23  1  0  0  0  0
  1  3  1  0  0  0  0
  1  7  1  0  0  0  0
  1  2  2  0  0  0  0
 35 36  1  0  0  0  0
 36 44  1  0  0  0  0
 36 37  2  0  0  0  0
  8  9  1  0  0  0  0
  9 17  1  0  0  0  0
  9 10  2  0  0  0  0
 18 19  1  0  0  0  0
 19 34  1  0  0  0  0
 19 20  2  0  0  0  0
 35 38  1  0  0  0  0
  8 11  1  0  0  0  0
 44 45  1  0  0  0  0
 18 21  1  0  0  0  0
 34 35  1  0  0  0  0
  7  8  1  0  0  0  0
 17 18  1  0  0  0  0
 24 31  1  0  0  0  0
 25 32  1  0  0  0  0
  3  4  1  0  0  0  0
  3  5  1  0  0  0  0
  3  6  1  0  0  0  0
 38 41  1  0  0  0  0
 38 42  1  0  0  0  0
 38 43  1  0  0  0  0
 11 14  1  0  0  0  0
 11 15  1  0  0  0  0
 11 16  1  0  0  0  0
 45 47  1  0  0  0  0
 45 48  1  0  0  0  0
 45 49  1  0  0  0  0
 21 29  1  0  0  0  0
 21 30  1  0  0  0  0
 35 40  1  0  0  0  0
  8 13  1  0  0  0  0
 18 28  1  0  0  0  0
 26 33  1  0  0  0  0
 44 46  1  0  0  0  0
  7 12  1  0  0  0  0
 34 39  1  0  0  0  0
 17 27  1  0  0  0  0
M  END
$$$$

  -OEChem-05262214473D

 49 49  0     1  0  0  0  0  0999 V2000
   -1.6183    0.5613    3.8201 C   0  0  0  0  0  0  0  0  0  0  0  0
   -0.6710   -0.0534    3.3444 O   0  0  0  0  0  0  0  0  0  0  0  0
   -2.0502    0.2789    5.2208 C   0  0  0  0  0  0  0  0  0  0  0  0
   -2.8099   -0.5175    5.2742 H   0  0  0  0  0  0  0  0  0  0  0  0
   -1.2190   -0.0687    5.8551 H   0  0  0  0  0  0  0  0  0  0  0  0
   -2.4882    1.1338    5.7604 H   0  0  0  0  0  0  0  0  0  0  0  0
   -2.3680    1.5337    3.1790 N   0  0  0  0  0  0  0  0  0  0  0  0
   -2.1212    1.9597    1.8266 C   0  0  2  0  0  0  0  0  0  0  0  0
   -0.7862    1.3744    1.3854 C   0  0  0  0  0  0  0  0  0  0  0  0
    0.0859    1.0216    2.1767 O   0  0  0  0  0  0  0  0  0  0  0  0
   -2.1124    3.4765    1.7171 C   0  0  0  0  0  0  0  0  0  0  0  0
   -3.1331    1.9695    3.6908 H   0  0  0  0  0  0  0  0  0  0  0  0
   -2.9253    1.5413    1.2115 H   0  0  0  0  0  0  0  0  0  0  0  0
   -1.3133    3.9138    2.3268 H   0  0  0  0  0  0  0  0  0  0  0  0
   -1.9529    3.7988    0.6829 H   0  0  0  0  0  0  0  0  0  0  0  0
   -3.0626    3.8977    2.0629 H   0  0  0  0  0  0  0  0  0  0  0  0
   -0.6635    1.3313    0.0020 N   0  0  0  0  0  0  0  0  0  0  0  0
    0.5138    0.8305   -0.6617 C   0  0  2  0  0  0  0  0  0  0  0  0
    1.6229    0.7573    0.3817 C   0  0  0  0  0  0  0  0  0  0  0  0
    1.5591    0.0387    1.3769 O   0  0  0  0  0  0  0  0  0  0  0  0
    0.9418    1.7223   -1.8328 C   0  0  0  0  0  0  0  0  0  0  0  0
   -0.0846    1.7662   -2.9384 C   0  0  0  0  0  0  0  0  0  0  0  0
   -0.2395    0.7013   -3.7903 N   0  0  0  0  0  0  0  0  0  0  0  0
   -0.9553    2.7833   -3.2516 C   0  0  0  0  0  0  0  0  0  0  0  0
   -1.1963    1.0678   -4.6138 C   0  0  0  0  0  0  0  0  0  0  0  0
   -1.6604    2.3215   -4.3270 N   0  0  0  0  0  0  0  0  0  0  0  0
   -1.4467    1.6280   -0.5753 H   0  0  0  0  0  0  0  0  0  0  0  0
    0.2732   -0.1838   -1.0014 H   0  0  0  0  0  0  0  0  0  0  0  0
    1.9054    1.3835   -2.2366 H   0  0  0  0  0  0  0  0  0  0  0  0
    1.1194    2.7495   -1.4877 H   0  0  0  0  0  0  0  0  0  0  0  0
   -1.1335    3.7600   -2.8252 H   0  0  0  0  0  0  0  0  0  0  0  0
   -1.5949    0.4802   -5.4288 H   0  0  0  0  0  0  0  0  0  0  0  0
   -2.3921    2.8157   -4.8200 H   0  0  0  0  0  0  0  0  0  0  0  0
    2.7095    1.5511    0.0414 N   0  0  0  0  0  0  0  0  0  0  0  0
    3.9058    1.6463    0.8468 C   0  0  2  0  0  0  0  0  0  0  0  0
    3.4848    1.9301    2.2826 C   0  0  0  0  0  0  0  0  0  0  0  0
    2.4026    2.4332    2.5774 O   0  0  0  0  0  0  0  0  0  0  0  0
    4.8366    2.7316    0.3287 C   0  0  0  0  0  0  0  0  0  0  0  0
    2.6614    2.0923   -0.8168 H   0  0  0  0  0  0  0  0  0  0  0  0
    4.3994    0.6697    0.7965 H   0  0  0  0  0  0  0  0  0  0  0  0
    4.3593    3.7174    0.3713 H   0  0  0  0  0  0  0  0  0  0  0  0
    5.7552    2.7833    0.9225 H   0  0  0  0  0  0  0  0  0  0  0  0
    5.1146    2.5417   -0.7137 H   0  0  0  0  0  0  0  0  0  0  0  0
    4.4771    1.5953    3.1933 N   0  0  0  0  0  0  0  0  0  0  0  0
    4.3237    1.7819    4.6173 C   0  0  0  0  0  0  0  0  0  0  0  0
    5.3356    1.1658    2.8614 H   0  0  0  0  0  0  0  0  0  0  0  0
    4.7240    2.7656    4.9039 H   0  0  0  0  0  0  0  0  0  0  0  0
    3.2571    1.7292    4.8810 H   0  0  0  0  0  0  0  0  0  0  0  0
    4.8730    0.9928    5.1516 H   0  0  0  0  0  0  0  0  0  0  0  0
 22 24  2  0  0  0  0
 24 26  1  0  0  0  0
 23 25  2  0  0  0  0
 25 26  1  0  0  0  0
 21 22  1  0  0  0  0
 22 23  1  0  0  0  0
  1  3  1  0  0  0  0
  1  7  1  0  0  0  0
  1  2  2  0  0  0  0
 35 36  1  0  0  0  0
 36 44  1  0  0  0  0
 36 37  2  0  0  0  0
  8  9  1  0  0  0  0
  9 17  1  0  0  0  0
  9 10  2  0  0  0  0
 18 19  1  0  0  0  0
 19 34  1  0  0  0  0
 19 20  2  0  0  0  0
 35 38  1  0  0  0  0
  8 11  1  0  0  0  0
 44 45  1  0  0  0  0
 18 21  1  0  0  0  0
 34 35  1  0  0  0  0
  7  8  1  0  0  0  0
 17 18  1  0  0  0  0
 24 31  1  0  0  0  0
 25 32  1  0  0  0  0
  3  4  1  0  0  0  0
  3  5  1  0  0  0  0
  3  6  1  0  0  0  0
 38 41  1  0  0  0  0
 38 42  1  0  0  0  0
 38 43  1  0  0  0  0
 11 14  1  0  0  0  0
 11 15  1  0  0  0  0
 11 16  1  0  0  0  0
 45 47  1  0  0  0  0
 45 48  1  0  0  0  0
 45 49  1  0  0  0  0
 21 29  1  0  0  0  0
 21 30  1  0  0  0  0
 35 40  1  0  0  0  0
  8 13  1  0  0  0  0
 18 28  1  0  0  0  0
 26 33  1  0  0  0  0
 44 46  1  0  0  0  0
  7 12  1  0  0  0  0
 34 39  1  0  0  0  0
 17 27  1  0  0  0  0
M  END
$$$$

  -OEChem-05262214473D

 49 49  0     1  0  0  0  0  0999 V2000
   -1.6183    0.5613    3.8201 C   0  0  0  0  0  0  0  0  0  0  0  0
   -0.6710   -0.0534    3.3444 O   0  0  0  0  0  0  0  0  0  0  0  0
   -2.0502    0.2789    5.2208 C   0  0  0  0  0  0  0  0  0  0  0  0
   -2.8099   -0.5175    5.2742 H   0  0  0  0  0  0  0  0  0  0  0  0
   -1.2190   -0.0687    5.8551 H   0  0  0  0  0  0  0  0  0  0  0  0
   -2.4882    1.1338    5.7604 H   0  0  0  0  0  0  0  0  0  0  0  0
   -2.3680    1.5337    3.1790 N   0  0  0  0  0  0  0  0  0  0  0  0
   -2.1212    1.9597    1.8266 C   0  0  2  0  0  0  0  0  0  0  0  0
   -0.7862    1.3744    1.3854 C   0  0  0  0  0  0  0  0  0  0  0  0
    0.0859    1.0216    2.1767 O   0  0  0  0  0  0  0  0  0  0  0  0
   -2.1124    3.4765    1.7171 C   0  0  0  0  0  0  0  0  0  0  0  0
   -3.1331    1.9695    3.6908 H   0  0  0  0  0  0  0  0  0  0  0  0
   -2.9253    1.5413    1.2115 H   0  0  0  0  0  0  0  0  0  0  0  0
   -1.3133    3.9138    2.3268 H   0  0  0  0  0  0  0  0  0  0  0  0
   -1.9529    3.7988    0.6829 H   0  0  0  0  0  0  0  0  0  0  0  0
   -3.0626    3.8977    2.0629 H   0  0  0  0  0  0  0  0  0  0  0  0
   -0.6635    1.3313    0.0020 N   0  0  0  0  0  0  0  0  0  0  0  0
    0.5138    0.8305   -0.6617 C   0  0  2  0  0  0  0  0  0  0  0  0
    1.6229    0.7573    0.3817 C   0  0  0  0  0  0  0  0  0  0  0  0
    1.6928   -0.1366    1.2225 O   0  0  0  0  0  0  0  0  0  0  0  0
    0.9418    1.7223   -1.8328 C   0  0  0  0  0  0  0  0  0  0  0  0
   -0.0846    1.7662   -2.9384 C   0  0  0  0  0  0  0  0  0  0  0  0
   -0.2395    0.7013   -3.7903 N   0  0  0  0  0  0  0  0  0  0  0  0
   -0.9553    2.7833   -3.2516 C   0  0  0  0  0  0  0  0  0  0  0  0
   -1.1963    1.0678   -4.6138 C   0  0  0  0  0  0  0  0  0  0  0  0
   -1.6604    2.3215   -4.3270 N   0  0  0  0  0  0  0  0  0  0  0  0
   -1.4467    1.6280   -0.5753 H   0  0  0  0  0  0  0  0  0  0  0  0
    0.2732   -0.1838   -1.0014 H   0  0  0  0  0  0  0  0  0  0  0  0
    1.9054    1.3835   -2.2366 H   0  0  0  0  0  0  0  0  0  0  0  0
    1.1194    2.7495   -1.4877 H   0  0  0  0  0  0  0  0  0  0  0  0
   -1.1335    3.7600   -2.8252 H   0  0  0  0  0  0  0  0  0  0  0  0
   -1.5949    0.4802   -5.4288 H   0  0  0  0  0  0  0  0  0  0  0  0
   -2.3921    2.8157   -4.8200 H   0  0  0  0  0  0  0  0  0  0  0  0
    2.5490    1.7798    0.2281 N   0  0  0  0  0  0  0  0  0  0  0  0
    3.7128    1.9297    1.0718 C   0  0  2  0  0  0  0  0  0  0  0  0
    3.2545    1.8577    2.5224 C   0  0  0  0  0  0  0  0  0  0  0  0
    2.1013    2.0975    2.8742 O   0  0  0  0  0  0  0  0  0  0  0  0
    4.4328    3.2400    0.7936 C   0  0  0  0  0  0  0  0  0  0  0  0
    2.4013    2.4567   -0.5147 H   0  0  0  0  0  0  0  0  0  0  0  0
    4.3724    1.0826    0.8542 H   0  0  0  0  0  0  0  0  0  0  0  0
    3.7875    4.1002    1.0059 H   0  0  0  0  0  0  0  0  0  0  0  0
    5.3301    3.3390    1.4133 H   0  0  0  0  0  0  0  0  0  0  0  0
    4.7355    3.3029   -0.2572 H   0  0  0  0  0  0  0  0  0  0  0  0
    4.2947    1.5364    3.3831 N   0  0  0  0  0  0  0  0  0  0  0  0
    4.1170    1.4200    4.8117 C   0  0  0  0  0  0  0  0  0  0  0  0
    5.2146    1.3354    3.0020 H   0  0  0  0  0  0  0  0  0  0  0  0
    4.3367    2.3863    5.2890 H   0  0  0  0  0  0  0  0  0  0  0  0
    3.0781    1.1314    5.0294 H   0  0  0  0  0  0  0  0  0  0  0  0
    4.8006    0.6531    5.2048 H   0  0  0  0  0  0  0  0  0  0  0  0
 22 24  2  0  0  0  0
 24 26  1  0  0  0  0
 23 25  2  0  0  0  0
 25 26  1  0  0  0  0
 21 22  1  0  0  0  0
 22 23  1  0  0  0  0
  1  3  1  0  0  0  0
  1  7  1  0  0  0  0
  1  2  2  0  0  0  0
 35 36  1  0  0  0  0
 36 44  1  0  0  0  0
 36 37  2  0  0  0  0
  8  9  1  0  0  0  0
  9 17  1  0  0  0  0
  9 10  2  0  0  0  0
 18 19  1  0  0  0  0
 19 34  1  0  0  0  0
 19 20  2  0  0  0  0
 35 38  1  0  0  0  0
  8 11  1  0  0  0  0
 44 45  1  0  0  0  0
 18 21  1  0  0  0  0
 34 35  1  0  0  0  0
  7  8  1  0  0  0  0
 17 18  1  0  0  0  0
 24 31  1  0  0  0  0
 25 32  1  0  0  0  0
  3  4  1  0  0  0  0
  3  5  1  0  0  0  0
  3  6  1  0  0  0  0
 38 41  1  0  0  0  0
 38 42  1  0  0  0  0
 38 43  1  0  0  0  0
 11 14  1  0  0  0  0
 11 15  1  0  0  0  0
 11 16  1  0  0  0  0
 45 47  1  0  0  0  0
 45 48  1  0  0  0  0
 45 49  1  0  0  0  0
 21 29  1  0  0  0  0
 21 30  1  0  0  0  0
 35 40  1  0  0  0  0
  8 13  1  0  0  0  0
 18 28  1  0  0  0  0
 26 33  1  0  0  0  0
 44 46  1  0  0  0  0
  7 12  1  0  0  0  0
 34 39  1  0  0  0  0
 17 27  1  0  0  0  0
M  END
$$$$

  -OEChem-05262214473D

 49 49  0     1  0  0  0  0  0999 V2000
   -1.6183    0.5613    3.8201 C   0  0  0  0  0  0  0  0  0  0  0  0
   -0.6710   -0.0534    3.3444 O   0  0  0  0  0  0  0  0  0  0  0  0
   -2.0502    0.2789    5.2208 C   0  0  0  0  0  0  0  0  0  0  0  0
   -2.8099   -0.5175    5.2742 H   0  0  0  0  0  0  0  0  0  0  0  0
   -1.2190   -0.0687    5.8551 H   0  0  0  0  0  0  0  0  0  0  0  0
   -2.4882    1.1338    5.7604 H   0  0  0  0  0  0  0  0  0  0  0  0
   -2.3680    1.5337    3.1790 N   0  0  0  0  0  0  0  0  0  0  0  0
   -2.1212    1.9597    1.8266 C   0  0  2  0  0  0  0  0  0  0  0  0
   -0.7862    1.3744    1.3854 C   0  0  0  0  0  0  0  0  0  0  0  0
    0.0859    1.0216    2.1767 O   0  0  0  0  0  0  0  0  0  0  0  0
   -2.1124    3.4765    1.7171 C   0  0  0  0  0  0  0  0  0  0  0  0
   -3.1331    1.9695    3.6908 H   0  0  0  0  0  0  0  0  0  0  0  0
   -2.9253    1.5413    1.2115 H   0  0  0  0  0  0  0  0  0  0  0  0
   -1.3133    3.9138    2.3268 H   0  0  0  0  0  0  0  0  0  0  0  0
   -1.9529    3.7988    0.6829 H   0  0  0  0  0  0  0  0  0  0  0  0
   -3.0626    3.8977    2.0629 H   0  0  0  0  0  0  0  0  0  0  0  0
   -0.6635    1.3313    0.0020 N   0  0  0  0  0  0  0  0  0  0  0  0
    0.5138    0.8305   -0.6617 C   0  0  2  0  0  0  0  0  0  0  0  0
    1.6229    0.7573    0.3817 C   0  0  0  0  0  0  0  0  0  0  0  0
    1.8549   -0.2532    1.0420 O   0  0  0  0  0  0  0  0  0  0  0  0
    0.9418    1.7223   -1.8328 C   0  0  0  0  0  0  0  0  0  0  0  0
   -0.0846    1.7662   -2.9384 C   0  0  0  0  0  0  0  0  0  0  0  0
   -0.2395    0.7013   -3.7903 N   0  0  0  0  0  0  0  0  0  0  0  0
   -0.9553    2.7833   -3.2516 C   0  0  0  0  0  0  0  0  0  0  0  0
   -1.1963    1.0678   -4.6138 C   0  0  0  0  0  0  0  0  0  0  0  0
   -1.6604    2.3215   -4.3270 N   0  0  0  0  0  0  0  0  0  0  0  0
   -1.4467    1.6280   -0.5753 H   0  0  0  0  0  0  0  0  0  0  0  0
    0.2732   -0.1838   -1.0014 H   0  0  0  0  0  0  0  0  0  0  0  0
    1.9054    1.3835   -2.2366 H   0  0  0  0  0  0  0  0  0  0  0  0
    1.1194    2.7495   -1.4877 H   0  0  0  0  0  0  0  0  0  0  0  0
   -1.1335    3.7600   -2.8252 H   0  0  0  0  0  0  0  0  0  0  0  0
   -1.5949    0.4802   -5.4288 H   0  0  0  0  0  0  0  0  0  0  0  0
   -2.3921    2.8157   -4.8200 H   0  0  0  0  0  0  0  0  0  0  0  0
    2.3511    1.9370    0.4495 N   0  0  0  0  0  0  0  0  0  0  0  0
    3.4733    2.1268    1.3402 C   0  0  2  0  0  0  0  0  0  0  0  0
    3.0418    1.7019    2.7376 C   0  0  0  0  0  0  0  0  0  0  0  0
    1.8660    1.6640    3.0940 O   0  0  0  0  0  0  0  0  0  0  0  0
    3.9469    3.5719    1.3334 C   0  0  0  0  0  0  0  0  0  0  0  0
    2.0817    2.7057   -0.1575 H   0  0  0  0  0  0  0  0  0  0  0  0
    4.2725    1.4658    0.9873 H   0  0  0  0  0  0  0  0  0  0  0  0
    3.1596    4.2492    1.6840 H   0  0  0  0  0  0  0  0  0  0  0  0
    4.8150    3.7081    1.9868 H   0  0  0  0  0  0  0  0  0  0  0  0
    4.2287    3.8850    0.3223 H   0  0  0  0  0  0  0  0  0  0  0  0
    4.1266    1.4115    3.5530 N   0  0  0  0  0  0  0  0  0  0  0  0
    3.9790    0.9971    4.9287 C   0  0  0  0  0  0  0  0  0  0  0  0
    5.0658    1.4513    3.1683 H   0  0  0  0  0  0  0  0  0  0  0  0
    4.0250    1.8789    5.5848 H   0  0  0  0  0  0  0  0  0  0  0  0
    3.0092    0.4943    5.0580 H   0  0  0  0  0  0  0  0  0  0  0  0
    4.7902    0.3021    5.1913 H   0  0  0  0  0  0  0  0  0  0  0  0
 22 24  2  0  0  0  0
 24 26  1  0  0  0  0
 23 25  2  0  0  0  0
 25 26  1  0  0  0  0
 21 22  1  0  0  0  0
 22 23  1  0  0  0  0
  1  3  1  0  0  0  0
  1  7  1  0  0  0  0
  1  2  2  0  0  0  0
 35 36  1  0  0  0  0
 36 44  1  0  0  0  0
 36 37  2  0  0  0  0
  8  9  1  0  0  0  0
  9 17  1  0  0  0  0
  9 10  2  0  0  0  0
 18 19  1  0  0  0  0
 19 34  1  0  0  0  0
 19 20  2  0  0  0  0
 35 38  1  0  0  0  0
  8 11  1  0  0  0  0
 44 45  1  0  0  0  0
 18 21  1  0  0  0  0
 34 35  1  0  0  0  0
  7  8  1  0  0  0  0
 17 18  1  0  0  0  0
 24 31  1  0  0  0  0
 25 32  1  0  0  0  0
  3  4  1  0  0  0  0
  3  5  1  0  0  0  0
  3  6  1  0  0  0  0
 38 41  1  0  0  0  0
 38 42  1  0  0  0  0
 38 43  1  0  0  0  0
 11 14  1  0  0  0  0
 11 15  1  0  0  0  0
 11 16  1  0  0  0  0
 45 47  1  0  0  0  0
 45 48  1  0  0  0  0
 45 49  1  0  0  0  0
 21 29  1  0  0  0  0
 21 30  1  0  0  0  0
 35 40  1  0  0  0  0
  8 13  1  0  0  0  0
 18 28  1  0  0  0  0
 26 33  1  0  0  0  0
 44 46  1  0  0  0  0
  7 12  1  0  0  0  0
 34 39  1  0  0  0  0
 17 27  1  0  0  0  0
M  END
$$$$

  -OEChem-05262214473D

 49 49  0     1  0  0  0  0  0999 V2000
   -1.6183    0.5613    3.8201 C   0  0  0  0  0  0  0  0  0  0  0  0
   -0.6710   -0.0534    3.3444 O   0  0  0  0  0  0  0  0  0  0  0  0
   -2.0502    0.2789    5.2208 C   0  0  0  0  0  0  0  0  0  0  0  0
   -2.8099   -0.5175    5.2742 H   0  0  0  0  0  0  0  0  0  0  0  0
   -1.2190   -0.0687    5.8551 H   0  0  0  0  0  0  0  0  0  0  0  0
   -2.4882    1.1338    5.7604 H   0  0  0  0  0  0  0  0  0  0  0  0
   -2.3680    1.5337    3.1790 N   0  0  0  0  0  0  0  0  0  0  0  0
   -2.1212    1.9597    1.8266 C   0  0  2  0  0  0  0  0  0  0  0  0
   -0.7862    1.3744    1.3854 C   0  0  0  0  0  0  0  0  0  0  0  0
    0.0859    1.0216    2.1767 O   0  0  0  0  0  0  0  0  0  0  0  0
   -2.1124    3.4765    1.7171 C   0  0  0  0  0  0  0  0  0  0  0  0
   -3.1331    1.9695    3.6908 H   0  0  0  0  0  0  0  0  0  0  0  0
   -2.9253    1.5413    1.2115 H   0  0  0  0  0  0  0  0  0  0  0  0
   -1.3133    3.9138    2.3268 H   0  0  0  0  0  0  0  0  0  0  0  0
   -1.9529    3.7988    0.6829 H   0  0  0  0  0  0  0  0  0  0  0  0
   -3.0626    3.8977    2.0629 H   0  0  0  0  0  0  0  0  0  0  0  0
   -0.6635    1.3313    0.0020 N   0  0  0  0  0  0  0  0  0  0  0  0
    0.5138    0.8305   -0.6617 C   0  0  2  0  0  0  0  0  0  0  0  0
    1.6229    0.7573    0.3817 C   0  0  0  0  0  0  0  0  0  0  0  0
    2.0344   -0.3031    0.8477 O   0  0  0  0  0  0  0  0  0  0  0  0
    0.9418    1.7223   -1.8328 C   0  0  0  0  0  0  0  0  0  0  0  0
   -0.0846    1.7662   -2.9384 C   0  0  0  0  0  0  0  0  0  0  0  0
   -0.2395    0.7013   -3.7903 N   0  0  0  0  0  0  0  0  0  0  0  0
   -0.9553    2.7833   -3.2516 C   0  0  0  0  0  0  0  0  0  0  0  0
   -1.1963    1.0678   -4.6138 C   0  0  0  0  0  0  0  0  0  0  0  0
   -1.6604    2.3215   -4.3270 N   0  0  0  0  0  0  0  0  0  0  0  0
   -1.4467    1.6280   -0.5753 H   0  0  0  0  0  0  0  0  0  0  0  0
    0.2732   -0.1838   -1.0014 H   0  0  0  0  0  0  0  0  0  0  0  0
    1.9054    1.3835   -2.2366 H   0  0  0  0  0  0  0  0  0  0  0  0
    1.1194    2.7495   -1.4877 H   0  0  0  0  0  0  0  0  0  0  0  0
   -1.1335    3.7600   -2.8252 H   0  0  0  0  0  0  0  0  0  0  0  0
   -1.5949    0.4802   -5.4288 H   0  0  0  0  0  0  0  0  0  0  0  0
   -2.3921    2.8157   -4.8200 H   0  0  0  0  0  0  0  0  0  0  0  0
    2.1294    2.0122    0.6905 N   0  0  0  0  0  0  0  0  0  0  0  0
    3.2038    2.2243    1.6335 C   0  0  2  0  0  0  0  0  0  0  0  0
    2.8613    1.4732    2.9134 C   0  0  0  0  0  0  0  0  0  0  0  0
    1.7127    1.1622    3.2217 O   0  0  0  0  0  0  0  0  0  0  0  0
    3.4121    3.7049    1.9113 C   0  0  0  0  0  0  0  0  0  0  0  0
    1.7245    2.8223    0.2305 H   0  0  0  0  0  0  0  0  0  0  0  0
    4.1064    1.7932    1.1868 H   0  0  0  0  0  0  0  0  0  0  0  0
    2.5182    4.1542    2.3591 H   0  0  0  0  0  0  0  0  0  0  0  0
    4.2449    3.8653    2.6039 H   0  0  0  0  0  0  0  0  0  0  0  0
    3.6289    4.2484    0.9854 H   0  0  0  0  0  0  0  0  0  0  0  0
    3.9842    1.2290    3.6916 N   0  0  0  0  0  0  0  0  0  0  0  0
    3.9191    0.5422    4.9605 C   0  0  0  0  0  0  0  0  0  0  0  0
    4.8995    1.5056    3.3488 H   0  0  0  0  0  0  0  0  0  0  0  0
    3.8102    1.2778    5.7710 H   0  0  0  0  0  0  0  0  0  0  0  0
    3.0551   -0.1386    4.9648 H   0  0  0  0  0  0  0  0  0  0  0  0
    4.8424   -0.0362    5.1120 H   0  0  0  0  0  0  0  0  0  0  0  0
 22 24  2  0  0  0  0
 24 26  1  0  0  0  0
 23 25  2  0  0  0  0
 25 26  1  0  0  0  0
 21 22  1  0  0  0  0
 22 23  1  0  0  0  0
  1  3  1  0  0  0  0
  1  7  1  0  0  0  0
  1  2  2  0  0  0  0
 35 36  1  0  0  0  0
 36 44  1  0  0  0  0
 36 37  2  0  0  0  0
  8  9  1  0  0  0  0
  9 17  1  0  0  0  0
  9 10  2  0  0  0  0
 18 19  1  0  0  0  0
 19 34  1  0  0  0  0
 19 20  2  0  0  0  0
 35 38  1  0  0  0  0
  8 11  1  0  0  0  0
 44 45  1  0  0  0  0
 18 21  1  0  0  0  0
 34 35  1  0  0  0  0
  7  8  1  0  0  0  0
 17 18  1  0  0  0  0
 24 31  1  0  0  0  0
 25 32  1  0  0  0  0
  3  4  1  0  0  0  0
  3  5  1  0  0  0  0
  3  6  1  0  0  0  0
 38 41  1  0  0  0  0
 38 42  1  0  0  0  0
 38 43  1  0  0  0  0
 11 14  1  0  0  0  0
 11 15  1  0  0  0  0
 11 16  1  0  0  0  0
 45 47  1  0  0  0  0
 45 48  1  0  0  0  0
 45 49  1  0  0  0  0
 21 29  1  0  0  0  0
 21 30  1  0  0  0  0
 35 40  1  0  0  0  0
  8 13  1  0  0  0  0
 18 28  1  0  0  0  0
 26 33  1  0  0  0  0
 44 46  1  0  0  0  0
  7 12  1  0  0  0  0
 34 39  1  0  0  0  0
 17 27  1  0  0  0  0
M  END
$$$$

  -OEChem-05262214473D

 49 49  0     1  0  0  0  0  0999 V2000
   -1.6183    0.5613    3.8201 C   0  0  0  0  0  0  0  0  0  0  0  0
   -0.6710   -0.0534    3.3444 O   0  0  0  0  0  0  0  0  0  0  0  0
   -2.0502    0.2789    5.2208 C   0  0  0  0  0  0  0  0  0  0  0  0
   -2.8099   -0.5175    5.2742 H   0  0  0  0  0  0  0  0  0  0  0  0
   -1.2190   -0.0687    5.8551 H   0  0  0  0  0  0  0  0  0  0  0  0
   -2.4882    1.1338    5.7604 H   0  0  0  0  0  0  0  0  0  0  0  0
   -2.3680    1.5337    3.1790 N   0  0  0  0  0  0  0  0  0  0  0  0
   -2.1212    1.9597    1.8266 C   0  0  2  0  0  0  0  0  0  0  0  0
   -0.7862    1.3744    1.3854 C   0  0  0  0  0  0  0  0  0  0  0  0
    0.0859    1.0216    2.1767 O   0  0  0  0  0  0  0  0  0  0  0  0
   -2.1124    3.4765    1.7171 C   0  0  0  0  0  0  0  0  0  0  0  0
   -3.1331    1.9695    3.6908 H   0  0  0  0  0  0  0  0  0  0  0  0
   -2.9253    1.5413    1.2115 H   0  0  0  0  0  0  0  0  0  0  0  0
   -1.3133    3.9138    2.3268 H   0  0  0  0  0  0  0  0  0  0  0  0
   -1.9529    3.7988    0.6829 H   0  0  0  0  0  0  0  0  0  0  0  0
   -3.0626    3.8977    2.0629 H   0  0  0  0  0  0  0  0  0  0  0  0
   -0.6635    1.3313    0.0020 N   0  0  0  0  0  0  0  0  0  0  0  0
    0.5138    0.8305   -0.6617 C   0  0  2  0  0  0  0  0  0  0  0  0
    1.6229    0.7573    0.3817 C   0  0  0  0  0  0  0  0  0  0  0  0
    2.2190   -0.2829    0.6528 O   0  0  0  0  0  0  0  0  0  0  0  0
    0.9418    1.7223   -1.8328 C   0  0  0  0  0  0  0  0  0  0  0  0
   -0.0846    1.7662   -2.9384 C   0  0  0  0  0  0  0  0  0  0  0  0
   -0.2395    0.7013   -3.7903 N   0  0  0  0  0  0  0  0  0  0  0  0
   -0.9553    2.7833   -3.2516 C   0  0  0  0  0  0  0  0  0  0  0  0
   -1.1963    1.0678   -4.6138 C   0  0  0  0  0  0  0  0  0  0  0  0
   -1.6604    2.3215   -4.3270 N   0  0  0  0  0  0  0  0  0  0  0  0
   -1.4467    1.6280   -0.5753 H   0  0  0  0  0  0  0  0  0  0  0  0
    0.2732   -0.1838   -1.0014 H   0  0  0  0  0  0  0  0  0  0  0  0
    1.9054    1.3835   -2.2366 H   0  0  0  0  0  0  0  0  0  0  0  0
    1.1194    2.7495   -1.4877 H   0  0  0  0  0  0  0  0  0  0  0  0
   -1.1335    3.7600   -2.8252 H   0  0  0  0  0  0  0  0  0  0  0  0
   -1.5949    0.4802   -5.4288 H   0  0  0  0  0  0  0  0  0  0  0  0
   -2.3921    2.8157   -4.8200 H   0  0  0  0  0  0  0  0  0  0  0  0
    1.8989    2.0002    0.9346 N   0  0  0  0  0  0  0  0  0  0  0  0
    2.9226    2.2154    1.9319 C   0  0  2  0  0  0  0  0  0  0  0  0
    2.7254    1.1872    3.0379 C   0  0  0  0  0  0  0  0  0  0  0  0
    1.6520    0.6262    3.2487 O   0  0  0  0  0  0  0  0  0  0  0  0
    2.8647    3.6297    2.4879 C   0  0  0  0  0  0  0  0  0  0  0  0
    1.3539    2.7986    0.6227 H   0  0  0  0  0  0  0  0  0  0  0  0
    3.8855    2.0424    1.4391 H   0  0  0  0  0  0  0  0  0  0  0  0
    1.9071    3.8216    2.9854 H   0  0  0  0  0  0  0  0  0  0  0  0
    3.6588    3.8000    3.2224 H   0  0  0  0  0  0  0  0  0  0  0  0
    2.9770    4.3683    1.6868 H   0  0  0  0  0  0  0  0  0  0  0  0
    3.8773    1.0015    3.7893 N   0  0  0  0  0  0  0  0  0  0  0  0
    3.9415    0.0862    4.9047 C   0  0  0  0  0  0  0  0  0  0  0  0
    4.7270    1.4946    3.5314 H   0  0  0  0  0  0  0  0  0  0  0  0
    3.7069    0.6241    5.8351 H   0  0  0  0  0  0  0  0  0  0  0  0
    3.2128   -0.7243    4.7562 H   0  0  0  0  0  0  0  0  0  0  0  0
    4.9538   -0.3388    4.9723 H   0  0  0  0  0  0  0  0  0  0  0  0
 22 24  2  0  0  0  0
 24 26  1  0  0  0  0
 23 25  2  0  0  0  0
 25 26  1  0  0  0  0
 21 22  1  0  0  0  0
 22 23  1  0  0  0  0
  1  3  1  0  0  0  0
  1  7  1  0  0  0  0
  1  2  2  0  0  0  0
 35 36  1  0  0  0  0
 36 44  1  0  0  0  0
 36 37  2  0  0  0  0
  8  9  1  0  0  0  0
  9 17  1  0  0  0  0
  9 10  2  0  0  0  0
 18 19  1  0  0  0  0
 19 34  1  0  0  0  0
 19 20  2  0  0  0  0
 35 38  1  0  0  0  0
  8 11  1  0  0  0  0
 44 45  1  0  0  0  0
 18 21  1  0  0  0  0
 34 35  1  0  0  0  0
  7  8  1  0  0  0  0
 17 18  1  0  0  0  0
 24 31  1  0  0  0  0
 25 32  1  0  0  0  0
  3  4  1  0  0  0  0
  3  5  1  0  0  0  0
  3  6  1  0  0  0  0
 38 41  1  0  0  0  0
 38 42  1  0  0  0  0
 38 43  1  0  0  0  0
 11 14  1  0  0  0  0
 11 15  1  0  0  0  0
 11 16  1  0  0  0  0
 45 47  1  0  0  0  0
 45 48  1  0  0  0  0
 45 49  1  0  0  0  0
 21 29  1  0  0  0  0
 21 30  1  0  0  0  0
 35 40  1  0  0  0  0
  8 13  1  0  0  0  0
 18 28  1  0  0  0  0
 26 33  1  0  0  0  0
 44 46  1  0  0  0  0
  7 12  1  0  0  0  0
 34 39  1  0  0  0  0
 17 27  1  0  0  0  0
M  END
$$$$

  -OEChem-05262214473D

 49 49  0     1  0  0  0  0  0999 V2000
   -1.6183    0.5613    3.8201 C   0  0  0  0  0  0  0  0  0  0  0  0
   -0.6710   -0.0534    3.3444 O   0  0  0  0  0  0  0  0  0  0  0  0
   -2.0502    0.2789    5.2208 C   0  0  0  0  0  0  0  0  0  0  0  0
   -2.8099   -0.5175    5.2742 H   0  0  0  0  0  0  0  0  0  0  0  0
   -1.2190   -0.0687    5.8551 H   0  0  0  0  0  0  0  0  0  0  0  0
   -2.4882    1.1338    5.7604 H   0  0  0  0  0  0  0  0  0  0  0  0
   -2.3680    1.5337    3.1790 N   0  0  0  0  0  0  0  0  0  0  0  0
   -2.1212    1.9597    1.8266 C   0  0  2  0  0  0  0  0  0  0  0  0
   -0.7862    1.3744    1.3854 C   0  0  0  0  0  0  0  0  0  0  0  0
    0.0859    1.0216    2.1767 O   0  0  0  0  0  0  0  0  0  0  0  0
   -2.1124    3.4765    1.7171 C   0  0  0  0  0  0  0  0  0  0  0  0
   -3.1331    1.9695    3.6908 H   0  0  0  0  0  0  0  0  0  0  0  0
   -2.9253    1.5413    1.2115 H   0  0  0  0  0  0  0  0  0  0  0  0
   -1.3133    3.9138    2.3268 H   0  0  0  0  0  0  0  0  0  0  0  0
   -1.9529    3.7988    0.6829 H   0  0  0  0  0  0  0  0  0  0  0  0
   -3.0626    3.8977    2.0629 H   0  0  0  0  0  0  0  0  0  0  0  0
   -0.6635    1.3313    0.0020 N   0  0  0  0  0  0  0  0  0  0  0  0
    0.5138    0.8305   -0.6617 C   0  0  2  0  0  0  0  0  0  0  0  0
    1.6229    0.7573    0.3817 C   0  0  0  0  0  0  0  0  0  0  0  0
    2.3961   -0.1940    0.4707 O   0  0  0  0  0  0  0  0  0  0  0  0
    0.9418    1.7223   -1.8328 C   0  0  0  0  0  0  0  0  0  0  0  0
   -0.0846    1.7662   -2.9384 C   0  0  0  0  0  0  0  0  0  0  0  0
   -0.2395    0.7013   -3.7903 N   0  0  0  0  0  0  0  0  0  0  0  0
   -0.9553    2.7833   -3.2516 C   0  0  0  0  0  0  0  0  0  0  0  0
   -1.1963    1.0678   -4.6138 C   0  0  0  0  0  0  0  0  0  0  0  0
   -1.6604    2.3215   -4.3270 N   0  0  0  0  0  0  0  0  0  0  0  0
   -1.4467    1.6280   -0.5753 H   0  0  0  0  0  0  0  0  0  0  0  0
    0.2732   -0.1838   -1.0014 H   0  0  0  0  0  0  0  0  0  0  0  0
    1.9054    1.3835   -2.2366 H   0  0  0  0  0  0  0  0  0  0  0  0
    1.1194    2.7495   -1.4877 H   0  0  0  0  0  0  0  0  0  0  0  0
   -1.1335    3.7600   -2.8252 H   0  0  0  0  0  0  0  0  0  0  0  0
   -1.5949    0.4802   -5.4288 H   0  0  0  0  0  0  0  0  0  0  0  0
   -2.3921    2.8157   -4.8200 H   0  0  0  0  0  0  0  0  0  0  0  0
    1.6754    1.9017    1.1654 N   0  0  0  0  0  0  0  0  0  0  0  0
    2.6488    2.1009    2.2149 C   0  0  2  0  0  0  0  0  0  0  0  0
    2.6431    0.8634    3.1026 C   0  0  0  0  0  0  0  0  0  0  0  0
    1.6880    0.0928    3.1730 O   0  0  0  0  0  0  0  0  0  0  0  0
    2.3422    3.3516    3.0239 C   0  0  0  0  0  0  0  0  0  0  0  0
    0.9953    2.6362    0.9925 H   0  0  0  0  0  0  0  0  0  0  0  0
    3.6249    2.1965    1.7269 H   0  0  0  0  0  0  0  0  0  0  0  0
    1.3680    3.2743    3.5202 H   0  0  0  0  0  0  0  0  0  0  0  0
    3.0965    3.5167    3.8003 H   0  0  0  0  0  0  0  0  0  0  0  0
    2.3173    4.2366    2.3789 H   0  0  0  0  0  0  0  0  0  0  0  0
    3.8131    0.7443    3.8395 N   0  0  0  0  0  0  0  0  0  0  0  0
    4.0446   -0.3398    4.7653 C   0  0  0  0  0  0  0  0  0  0  0  0
    4.5601    1.4191    3.7036 H   0  0  0  0  0  0  0  0  0  0  0  0
    3.7220   -0.0377    5.7726 H   0  0  0  0  0  0  0  0  0  0  0  0
    3.4714   -1.2228    4.4463 H   0  0  0  0  0  0  0  0  0  0  0  0
    5.1168   -0.5851    4.7819 H   0  0  0  0  0  0  0  0  0  0  0  0
 22 24  2  0  0  0  0
 24 26  1  0  0  0  0
 23 25  2  0  0  0  0
 25 26  1  0  0  0  0
 21 22  1  0  0  0  0
 22 23  1  0  0  0  0
  1  3  1  0  0  0  0
  1  7  1  0  0  0  0
  1  2  2  0  0  0  0
 35 36  1  0  0  0  0
 36 44  1  0  0  0  0
 36 37  2  0  0  0  0
  8  9  1  0  0  0  0
  9 17  1  0  0  0  0
  9 10  2  0  0  0  0
 18 19  1  0  0  0  0
 19 34  1  0  0  0  0
 19 20  2  0  0  0  0
 35 38  1  0  0  0  0
  8 11  1  0  0  0  0
 44 45  1  0  0  0  0
 18 21  1  0  0  0  0
 34 35  1  0  0  0  0
  7  8  1  0  0  0  0
 17 18  1  0  0  0  0
 24 31  1  0  0  0  0
 25 32  1  0  0  0  0
  3  4  1  0  0  0  0
  3  5  1  0  0  0  0
  3  6  1  0  0  0  0
 38 41  1  0  0  0  0
 38 42  1  0  0  0  0
 38 43  1  0  0  0  0
 11 14  1  0  0  0  0
 11 15  1  0  0  0  0
 11 16  1  0  0  0  0
 45 47  1  0  0  0  0
 45 48  1  0  0  0  0
 45 49  1  0  0  0  0
 21 29  1  0  0  0  0
 21 30  1  0  0  0  0
 35 40  1  0  0  0  0
  8 13  1  0  0  0  0
 18 28  1  0  0  0  0
 26 33  1  0  0  0  0
 44 46  1  0  0  0  0
  7 12  1  0  0  0  0
 34 39  1  0  0  0  0
 17 27  1  0  0  0  0
M  END
$$$$

  -OEChem-05262214473D

 49 49  0     1  0  0  0  0  0999 V2000
   -1.6183    0.5613    3.8201 C   0  0  0  0  0  0  0  0  0  0  0  0
   -0.6710   -0.0534    3.3444 O   0  0  0  0  0  0  0  0  0  0  0  0
   -2.0502    0.2789    5.2208 C   0  0  0  0  0  0  0  0  0  0  0  0
   -2.8099   -0.5175    5.2742 H   0  0  0  0  0  0  0  0  0  0  0  0
   -1.2190   -0.0687    5.8551 H   0  0  0  0  0  0  0  0  0  0  0  0
   -2.4882    1.1338    5.7604 H   0  0  0  0  0  0  0  0  0  0  0  0
   -2.3680    1.5337    3.1790 N   0  0  0  0  0  0  0  0  0  0  0  0
   -2.1212    1.9597    1.8266 C   0  0  2  0  0  0  0  0  0  0  0  0
   -0.7862    1.3744    1.3854 C   0  0  0  0  0  0  0  0  0  0  0  0
    0.0859    1.0216    2.1767 O   0  0  0  0  0  0  0  0  0  0  0  0
   -2.1124    3.4765    1.7171 C   0  0  0  0  0  0  0  0  0  0  0  0
   -3.1331    1.9695    3.6908 H   0  0  0  0  0  0  0  0  0  0  0  0
   -2.9253    1.5413    1.2115 H   0  0  0  0  0  0  0  0  0  0  0  0
   -1.3133    3.9138    2.3268 H   0  0  0  0  0  0  0  0  0  0  0  0
   -1.9529    3.7988    0.6829 H   0  0  0  0  0  0  0  0  0  0  0  0
   -3.0626    3.8977    2.0629 H   0  0  0  0  0  0  0  0  0  0  0  0
   -0.6635    1.3313    0.0020 N   0  0  0  0  0  0  0  0  0  0  0  0
    0.5138    0.8305   -0.6617 C   0  0  2  0  0  0  0  0  0  0  0  0
    1.6229    0.7573    0.3817 C   0  0  0  0  0  0  0  0  0  0  0  0
    2.5538   -0.0425    0.3138 O   0  0  0  0  0  0  0  0  0  0  0  0
    0.9418    1.7223   -1.8328 C   0  0  0  0  0  0  0  0  0  0  0  0
   -0.0846    1.7662   -2.9384 C   0  0  0  0  0  0  0  0  0  0  0  0
   -0.2395    0.7013   -3.7903 N   0  0  0  0  0  0  0  0  0  0  0  0
   -0.9553    2.7833   -3.2516 C   0  0  0  0  0  0  0  0  0  0  0  0
   -1.1963    1.0678   -4.6138 C   0  0  0  0  0  0  0  0  0  0  0  0
   -1.6604    2.3215   -4.3270 N   0  0  0  0  0  0  0  0  0  0  0  0
   -1.4467    1.6280   -0.5753 H   0  0  0  0  0  0  0  0  0  0  0  0
    0.2732   -0.1838   -1.0014 H   0  0  0  0  0  0  0  0  0  0  0  0
    1.9054    1.3835   -2.2366 H   0  0  0  0  0  0  0  0  0  0  0  0
    1.1194    2.7495   -1.4877 H   0  0  0  0  0  0  0  0  0  0  0  0
   -1.1335    3.7600   -2.8252 H   0  0  0  0  0  0  0  0  0  0  0  0
   -1.5949    0.4802   -5.4288 H   0  0  0  0  0  0  0  0  0  0  0  0
   -2.3921    2.8157   -4.8200 H   0  0  0  0  0  0  0  0  0  0  0  0
    1.4740    1.7236    1.3669 N   0  0  0  0  0  0  0  0  0  0  0  0
    2.4011    1.8885    2.4633 C   0  0  2  0  0  0  0  0  0  0  0  0
    2.6202    0.5239    3.1032 C   0  0  0  0  0  0  0  0  0  0  0  0
    1.8182   -0.4019    3.0000 O   0  0  0  0  0  0  0  0  0  0  0  0
    1.8801    2.8895    3.4828 C   0  0  0  0  0  0  0  0  0  0  0  0
    0.6732    2.3462    1.3147 H   0  0  0  0  0  0  0  0  0  0  0  0
    3.3423    2.2450    2.0308 H   0  0  0  0  0  0  0  0  0  0  0  0
    0.9375    2.5493    3.9270 H   0  0  0  0  0  0  0  0  0  0  0  0
    2.5964    3.0346    4.2982 H   0  0  0  0  0  0  0  0  0  0  0  0
    1.6948    3.8621    3.0144 H   0  0  0  0  0  0  0  0  0  0  0  0
    3.7961    0.4752    3.8388 N   0  0  0  0  0  0  0  0  0  0  0  0
    4.2213   -0.7068    4.5516 C   0  0  0  0  0  0  0  0  0  0  0  0
    4.4101    1.2841    3.8536 H   0  0  0  0  0  0  0  0  0  0  0  0
    3.8547   -0.6625    5.5878 H   0  0  0  0  0  0  0  0  0  0  0  0
    3.8134   -1.6002    4.0563 H   0  0  0  0  0  0  0  0  0  0  0  0
    5.3201   -0.7582    4.5535 H   0  0  0  0  0  0  0  0  0  0  0  0
 22 24  2  0  0  0  0
 24 26  1  0  0  0  0
 23 25  2  0  0  0  0
 25 26  1  0  0  0  0
 21 22  1  0  0  0  0
 22 23  1  0  0  0  0
  1  3  1  0  0  0  0
  1  7  1  0  0  0  0
  1  2  2  0  0  0  0
 35 36  1  0  0  0  0
 36 44  1  0  0  0  0
 36 37  2  0  0  0  0
  8  9  1  0  0  0  0
  9 17  1  0  0  0  0
  9 10  2  0  0  0  0
 18 19  1  0  0  0  0
 19 34  1  0  0  0  0
 19 20  2  0  0  0  0
 35 38  1  0  0  0  0
  8 11  1  0  0  0  0
 44 45  1  0  0  0  0
 18 21  1  0  0  0  0
 34 35  1  0  0  0  0
  7  8  1  0  0  0  0
 17 18  1  0  0  0  0
 24 31  1  0  0  0  0
 25 32  1  0  0  0  0
  3  4  1  0  0  0  0
  3  5  1  0  0  0  0
  3  6  1  0  0  0  0
 38 41  1  0  0  0  0
 38 42  1  0  0  0  0
 38 43  1  0  0  0  0
 11 14  1  0  0  0  0
 11 15  1  0  0  0  0
 11 16  1  0  0  0  0
 45 47  1  0  0  0  0
 45 48  1  0  0  0  0
 45 49  1  0  0  0  0
 21 29  1  0  0  0  0
 21 30  1  0  0  0  0
 35 40  1  0  0  0  0
  8 13  1  0  0  0  0
 18 28  1  0  0  0  0
 26 33  1  0  0  0  0
 44 46  1  0  0  0  0
  7 12  1  0  0  0  0
 34 39  1  0  0  0  0
 17 27  1  0  0  0  0
M  END
$$$$

  -OEChem-05262214473D

 49 49  0     1  0  0  0  0  0999 V2000
   -1.6183    0.5613    3.8201 C   0  0  0  0  0  0  0  0  0  0  0  0
   -0.6710   -0.0534    3.3444 O   0  0  0  0  0  0  0  0  0  0  0  0
   -2.0502    0.2789    5.2208 C   0  0  0  0  0  0  0  0  0  0  0  0
   -2.8099   -0.5175    5.2742 H   0  0  0  0  0  0  0  0  0  0  0  0
   -1.2190   -0.0687    5.8551 H   0  0  0  0  0  0  0  0  0  0  0  0
   -2.4882    1.1338    5.7604 H   0  0  0  0  0  0  0  0  0  0  0  0
   -2.3680    1.5337    3.1790 N   0  0  0  0  0  0  0  0  0  0  0  0
   -2.1212    1.9597    1.8266 C   0  0  2  0  0  0  0  0  0  0  0  0
   -0.7862    1.3744    1.3854 C   0  0  0  0  0  0  0  0  0  0  0  0
    0.0859    1.0216    2.1767 O   0  0  0  0  0  0  0  0  0  0  0  0
   -2.1124    3.4765    1.7171 C   0  0  0  0  0  0  0  0  0  0  0  0
   -3.1331    1.9695    3.6908 H   0  0  0  0  0  0  0  0  0  0  0  0
   -2.9253    1.5413    1.2115 H   0  0  0  0  0  0  0  0  0  0  0  0
   -1.3133    3.9138    2.3268 H   0  0  0  0  0  0  0  0  0  0  0  0
   -1.9529    3.7988    0.6829 H   0  0  0  0  0  0  0  0  0  0  0  0
   -3.0626    3.8977    2.0629 H   0  0  0  0  0  0  0  0  0  0  0  0
   -0.6635    1.3313    0.0020 N   0  0  0  0  0  0  0  0  0  0  0  0
    0.5138    0.8305   -0.6617 C   0  0  2  0  0  0  0  0  0  0  0  0
    1.6229    0.7573    0.3817 C   0  0  0  0  0  0  0  0  0  0  0  0
    2.6812    0.1613    0.1926 O   0  0  0  0  0  0  0  0  0  0  0  0
    0.9418    1.7223   -1.8328 C   0  0  0  0  0  0  0  0  0  0  0  0
   -0.0846    1.7662   -2.9384 C   0  0  0  0  0  0  0  0  0  0  0  0
   -0.2395    0.7013   -3.7903 N   0  0  0  0  0  0  0  0  0  0  0  0
   -0.9553    2.7833   -3.2516 C   0  0  0  0  0  0  0  0  0  0  0  0
   -1.1963    1.0678   -4.6138 C   0  0  0  0  0  0  0  0  0  0  0  0
   -1.6604    2.3215   -4.3270 N   0  0  0  0  0  0  0  0  0  0  0  0
   -1.4467    1.6280   -0.5753 H   0  0  0  0  0  0  0  0  0  0  0  0
    0.2732   -0.1838   -1.0014 H   0  0  0  0  0  0  0  0  0  0  0  0
    1.9054    1.3835   -2.2366 H   0  0  0  0  0  0  0  0  0  0  0  0
    1.1194    2.7495   -1.4877 H   0  0  0  0  0  0  0  0  0  0  0  0
   -1.1335    3.7600   -2.8252 H   0  0  0  0  0  0  0  0  0  0  0  0
   -1.5949    0.4802   -5.4288 H   0  0  0  0  0  0  0  0  0  0  0  0
   -2.3921    2.8157   -4.8200 H   0  0  0  0  0  0  0  0  0  0  0  0
    1.3086    1.4779    1.5256 N   0  0  0  0  0  0  0  0  0  0  0  0
    2.1964    1.5926    2.6602 C   0  0  2  0  0  0  0  0  0  0  0  0
    2.6583    0.1918    3.0395 C   0  0  0  0  0  0  0  0  0  0  0  0
    2.0337   -0.8241    2.7413 O   0  0  0  0  0  0  0  0  0  0  0  0
    1.5099    2.2748    3.8332 C   0  0  0  0  0  0  0  0  0  0  0  0
    0.4093    1.9484    1.5673 H   0  0  0  0  0  0  0  0  0  0  0  0
    3.0569    2.1846    2.3299 H   0  0  0  0  0  0  0  0  0  0  0  0
    0.6451    1.6963    4.1781 H   0  0  0  0  0  0  0  0  0  0  0  0
    2.1925    2.3866    4.6821 H   0  0  0  0  0  0  0  0  0  0  0  0
    1.1520    3.2706    3.5500 H   0  0  0  0  0  0  0  0  0  0  0  0
    3.8273    0.2122    3.7872 N   0  0  0  0  0  0  0  0  0  0  0  0
    4.4597   -0.9897    4.2784 C   0  0  0  0  0  0  0  0  0  0  0  0
    4.2873    1.0990    3.9712 H   0  0  0  0  0  0  0  0  0  0  0  0
    4.0958   -1.2077    5.2933 H   0  0  0  0  0  0  0  0  0  0  0  0
    4.2153   -1.8307    3.6128 H   0  0  0  0  0  0  0  0  0  0  0  0
    5.5501   -0.8464    4.3029 H   0  0  0  0  0  0  0  0  0  0  0  0
 22 24  2  0  0  0  0
 24 26  1  0  0  0  0
 23 25  2  0  0  0  0
 25 26  1  0  0  0  0
 21 22  1  0  0  0  0
 22 23  1  0  0  0  0
  1  3  1  0  0  0  0
  1  7  1  0  0  0  0
  1  2  2  0  0  0  0
 35 36  1  0  0  0  0
 36 44  1  0  0  0  0
 36 37  2  0  0  0  0
  8  9  1  0  0  0  0
  9 17  1  0  0  0  0
  9 10  2  0  0  0  0
 18 19  1  0  0  0  0
 19 34  1  0  0  0  0
 19 20  2  0  0  0  0
 35 38  1  0  0  0  0
  8 11  1  0  0  0  0
 44 45  1  0  0  0  0
 18 21  1  0  0  0  0
 34 35  1  0  0  0  0
  7  8  1  0  0  0  0
 17 18  1  0  0  0  0
 24 31  1  0  0  0  0
 25 32  1  0  0  0  0
  3  4  1  0  0  0  0
  3  5  1  0  0  0  0
  3  6  1  0  0  0  0
 38 41  1  0  0  0  0
 38 42  1  0  0  0  0
 38 43  1  0  0  0  0
 11 14  1  0  0  0  0
 11 15  1  0  0  0  0
 11 16  1  0  0  0  0
 45 47  1  0  0  0  0
 45 48  1  0  0  0  0
 45 49  1  0  0  0  0
 21 29  1  0  0  0  0
 21 30  1  0  0  0  0
 35 40  1  0  0  0  0
  8 13  1  0  0  0  0
 18 28  1  0  0  0  0
 26 33  1  0  0  0  0
 44 46  1  0  0  0  0
  7 12  1  0  0  0  0
 34 39  1  0  0  0  0
 17 27  1  0  0  0  0
M  END
$$$$

  -OEChem-05262214473D

 49 49  0     1  0  0  0  0  0999 V2000
   -1.6183    0.5613    3.8201 C   0  0  0  0  0  0  0  0  0  0  0  0
   -0.6710   -0.0534    3.3444 O   0  0  0  0  0  0  0  0  0  0  0  0
   -2.0502    0.2789    5.2208 C   0  0  0  0  0  0  0  0  0  0  0  0
   -2.8099   -0.5175    5.2742 H   0  0  0  0  0  0  0  0  0  0  0  0
   -1.2190   -0.0687    5.8551 H   0  0  0  0  0  0  0  0  0  0  0  0
   -2.4882    1.1338    5.7604 H   0  0  0  0  0  0  0  0  0  0  0  0
   -2.3680    1.5337    3.1790 N   0  0  0  0  0  0  0  0  0  0  0  0
   -2.1212    1.9597    1.8266 C   0  0  2  0  0  0  0  0  0  0  0  0
   -0.7862    1.3744    1.3854 C   0  0  0  0  0  0  0  0  0  0  0  0
    0.0859    1.0216    2.1767 O   0  0  0  0  0  0  0  0  0  0  0  0
   -2.1124    3.4765    1.7171 C   0  0  0  0  0  0  0  0  0  0  0  0
   -3.1331    1.9695    3.6908 H   0  0  0  0  0  0  0  0  0  0  0  0
   -2.9253    1.5413    1.2115 H   0  0  0  0  0  0  0  0  0  0  0  0
   -1.3133    3.9138    2.3268 H   0  0  0  0  0  0  0  0  0  0  0  0
   -1.9529    3.7988    0.6829 H   0  0  0  0  0  0  0  0  0  0  0  0
   -3.0626    3.8977    2.0629 H   0  0  0  0  0  0  0  0  0  0  0  0
   -0.6635    1.3313    0.0020 N   0  0  0  0  0  0  0  0  0  0  0  0
    0.5138    0.8305   -0.6617 C   0  0  2  0  0  0  0  0  0  0  0  0
    1.6229    0.7573    0.3817 C   0  0  0  0  0  0  0  0  0  0  0  0
    2.7696    0.4036    0.1156 O   0  0  0  0  0  0  0  0  0  0  0  0
    0.9418    1.7223   -1.8328 C   0  0  0  0  0  0  0  0  0  0  0  0
   -0.0846    1.7662   -2.9384 C   0  0  0  0  0  0  0  0  0  0  0  0
   -0.2395    0.7013   -3.7903 N   0  0  0  0  0  0  0  0  0  0  0  0
   -0.9553    2.7833   -3.2516 C   0  0  0  0  0  0  0  0  0  0  0  0
   -1.1963    1.0678   -4.6138 C   0  0  0  0  0  0  0  0  0  0  0  0
   -1.6604    2.3215   -4.3270 N   0  0  0  0  0  0  0  0  0  0  0  0
   -1.4467    1.6280   -0.5753 H   0  0  0  0  0  0  0  0  0  0  0  0
    0.2732   -0.1838   -1.0014 H   0  0  0  0  0  0  0  0  0  0  0  0
    1.9054    1.3835   -2.2366 H   0  0  0  0  0  0  0  0  0  0  0  0
    1.1194    2.7495   -1.4877 H   0  0  0  0  0  0  0  0  0  0  0  0
   -1.1335    3.7600   -2.8252 H   0  0  0  0  0  0  0  0  0  0  0  0
   -1.5949    0.4802   -5.4288 H   0  0  0  0  0  0  0  0  0  0  0  0
   -2.3921    2.8157   -4.8200 H   0  0  0  0  0  0  0  0  0  0  0  0
    1.1903    1.1815    1.6305 N   0  0  0  0  0  0  0  0  0  0  0  0
    2.0486    1.2335    2.7921 C   0  0  2  0  0  0  0  0  0  0  0  0
    2.7546   -0.1103    2.9159 C   0  0  0  0  0  0  0  0  0  0  0  0
    2.3198   -1.1451    2.4146 O   0  0  0  0  0  0  0  0  0  0  0  0
    1.2568    1.5495    4.0514 C   0  0  0  0  0  0  0  0  0  0  0  0
    0.2218    1.4698    1.7331 H   0  0  0  0  0  0  0  0  0  0  0  0
    2.7883    2.0193    2.6039 H   0  0  0  0  0  0  0  0  0  0  0  0
    0.5106    0.7732    4.2563 H   0  0  0  0  0  0  0  0  0  0  0  0
    1.9124    1.6168    4.9259 H   0  0  0  0  0  0  0  0  0  0  0  0
    0.7258    2.5021    3.9492 H   0  0  0  0  0  0  0  0  0  0  0  0
    3.9046   -0.0265    3.6882 N   0  0  0  0  0  0  0  0  0  0  0  0
    4.7435   -1.1693    3.9641 C   0  0  0  0  0  0  0  0  0  0  0  0
    4.2000    0.8762    4.0484 H   0  0  0  0  0  0  0  0  0  0  0  0
    4.4289   -1.6362    4.9091 H   0  0  0  0  0  0  0  0  0  0  0  0
    4.6500   -1.8987    3.1460 H   0  0  0  0  0  0  0  0  0  0  0  0
    5.7909   -0.8437    4.0471 H   0  0  0  0  0  0  0  0  0  0  0  0
 22 24  2  0  0  0  0
 24 26  1  0  0  0  0
 23 25  2  0  0  0  0
 25 26  1  0  0  0  0
 21 22  1  0  0  0  0
 22 23  1  0  0  0  0
  1  3  1  0  0  0  0
  1  7  1  0  0  0  0
  1  2  2  0  0  0  0
 35 36  1  0  0  0  0
 36 44  1  0  0  0  0
 36 37  2  0  0  0  0
  8  9  1  0  0  0  0
  9 17  1  0  0  0  0
  9 10  2  0  0  0  0
 18 19  1  0  0  0  0
 19 34  1  0  0  0  0
 19 20  2  0  0  0  0
 35 38  1  0  0  0  0
  8 11  1  0  0  0  0
 44 45  1  0  0  0  0
 18 21  1  0  0  0  0
 34 35  1  0  0  0  0
  7  8  1  0  0  0  0
 17 18  1  0  0  0  0
 24 31  1  0  0  0  0
 25 32  1  0  0  0  0
  3  4  1  0  0  0  0
  3  5  1  0  0  0  0
  3  6  1  0  0  0  0
 38 41  1  0  0  0  0
 38 42  1  0  0  0  0
 38 43  1  0  0  0  0
 11 14  1  0  0  0  0
 11 15  1  0  0  0  0
 11 16  1  0  0  0  0
 45 47  1  0  0  0  0
 45 48  1  0  0  0  0
 45 49  1  0  0  0  0
 21 29  1  0  0  0  0
 21 30  1  0  0  0  0
 35 40  1  0  0  0  0
  8 13  1  0  0  0  0
 18 28  1  0  0  0  0
 26 33  1  0  0  0  0
 44 46  1  0  0  0  0
  7 12  1  0  0  0  0
 34 39  1  0  0  0  0
 17 27  1  0  0  0  0
M  END
$$$$

  -OEChem-05262214473D

 49 49  0     1  0  0  0  0  0999 V2000
   -1.6183    0.5613    3.8201 C   0  0  0  0  0  0  0  0  0  0  0  0
   -0.6710   -0.0534    3.3444 O   0  0  0  0  0  0  0  0  0  0  0  0
   -2.0502    0.2789    5.2208 C   0  0  0  0  0  0  0  0  0  0  0  0
   -2.8099   -0.5175    5.2742 H   0  0  0  0  0  0  0  0  0  0  0  0
   -1.2190   -0.0687    5.8551 H   0  0  0  0  0  0  0  0  0  0  0  0
   -2.4882    1.1338    5.7604 H   0  0  0  0  0  0  0  0  0  0  0  0
   -2.3680    1.5337    3.1790 N   0  0  0  0  0  0  0  0  0  0  0  0
   -2.1212    1.9597    1.8266 C   0  0  2  0  0  0  0  0  0  0  0  0
   -0.7862    1.3744    1.3854 C   0  0  0  0  0  0  0  0  0  0  0  0
    0.0859    1.0216    2.1767 O   0  0  0  0  0  0  0  0  0  0  0  0
   -2.1124    3.4765    1.7171 C   0  0  0  0  0  0  0  0  0  0  0  0
   -3.1331    1.9695    3.6908 H   0  0  0  0  0  0  0  0  0  0  0  0
   -2.9253    1.5413    1.2115 H   0  0  0  0  0  0  0  0  0  0  0  0
   -1.3133    3.9138    2.3268 H   0  0  0  0  0  0  0  0  0  0  0  0
   -1.9529    3.7988    0.6829 H   0  0  0  0  0  0  0  0  0  0  0  0
   -3.0626    3.8977    2.0629 H   0  0  0  0  0  0  0  0  0  0  0  0
   -0.6635    1.3313    0.0020 N   0  0  0  0  0  0  0  0  0  0  0  0
    0.5138    0.8305   -0.6617 C   0  0  2  0  0  0  0  0  0  0  0  0
    1.6229    0.7573    0.3817 C   0  0  0  0  0  0  0  0  0  0  0  0
    2.8131    0.6678    0.0879 O   0  0  0  0  0  0  0  0  0  0  0  0
    0.9418    1.7223   -1.8328 C   0  0  0  0  0  0  0  0  0  0  0  0
   -0.0846    1.7662   -2.9384 C   0  0  0  0  0  0  0  0  0  0  0  0
   -0.2395    0.7013   -3.7903 N   0  0  0  0  0  0  0  0  0  0  0  0
   -0.9553    2.7833   -3.2516 C   0  0  0  0  0  0  0  0  0  0  0  0
   -1.1963    1.0678   -4.6138 C   0  0  0  0  0  0  0  0  0  0  0  0
   -1.6604    2.3215   -4.3270 N   0  0  0  0  0  0  0  0  0  0  0  0
   -1.4467    1.6280   -0.5753 H   0  0  0  0  0  0  0  0  0  0  0  0
    0.2732   -0.1838   -1.0014 H   0  0  0  0  0  0  0  0  0  0  0  0
    1.9054    1.3835   -2.2366 H   0  0  0  0  0  0  0  0  0  0  0  0
    1.1194    2.7495   -1.4877 H   0  0  0  0  0  0  0  0  0  0  0  0
   -1.1335    3.7600   -2.8252 H   0  0  0  0  0  0  0  0  0  0  0  0
   -1.5949    0.4802   -5.4288 H   0  0  0  0  0  0  0  0  0  0  0  0
   -2.3921    2.8157   -4.8200 H   0  0  0  0  0  0  0  0  0  0  0  0
    1.1273    0.8544    1.6745 N   0  0  0  0  0  0  0  0  0  0  0  0
    1.9679    0.8357    2.8501 C   0  0  2  0  0  0  0  0  0  0  0  0
    2.9027   -0.3617    2.7408 C   0  0  0  0  0  0  0  0  0  0  0  0
    2.6571   -1.3428    2.0422 O   0  0  0  0  0  0  0  0  0  0  0  0
    1.1381    0.7631    4.1225 C   0  0  0  0  0  0  0  0  0  0  0  0
    0.1234    0.9430    1.8008 H   0  0  0  0  0  0  0  0  0  0  0  0
    2.5547    1.7605    2.8341 H   0  0  0  0  0  0  0  0  0  0  0  0
    0.5433   -0.1570    4.1564 H   0  0  0  0  0  0  0  0  0  0  0  0
    1.7752    0.7778    5.0130 H   0  0  0  0  0  0  0  0  0  0  0  0
    0.4453    1.6092    4.1848 H   0  0  0  0  0  0  0  0  0  0  0  0
    4.0228   -0.2247    3.5487 N   0  0  0  0  0  0  0  0  0  0  0  0
    5.0533   -1.2334    3.6303 C   0  0  0  0  0  0  0  0  0  0  0  0
    4.1541    0.6310    4.0799 H   0  0  0  0  0  0  0  0  0  0  0  0
    4.8313   -1.9187    4.4615 H   0  0  0  0  0  0  0  0  0  0  0  0
    5.0876   -1.7994    2.6877 H   0  0  0  0  0  0  0  0  0  0  0  0
    6.0263   -0.7502    3.8034 H   0  0  0  0  0  0  0  0  0  0  0  0
 22 24  2  0  0  0  0
 24 26  1  0  0  0  0
 23 25  2  0  0  0  0
 25 26  1  0  0  0  0
 21 22  1  0  0  0  0
 22 23  1  0  0  0  0
  1  3  1  0  0  0  0
  1  7  1  0  0  0  0
  1  2  2  0  0  0  0
 35 36  1  0  0  0  0
 36 44  1  0  0  0  0
 36 37  2  0  0  0  0
  8  9  1  0  0  0  0
  9 17  1  0  0  0  0
  9 10  2  0  0  0  0
 18 19  1  0  0  0  0
 19 34  1  0  0  0  0
 19 20  2  0  0  0  0
 35 38  1  0  0  0  0
  8 11  1  0  0  0  0
 44 45  1  0  0  0  0
 18 21  1  0  0  0  0
 34 35  1  0  0  0  0
  7  8  1  0  0  0  0
 17 18  1  0  0  0  0
 24 31  1  0  0  0  0
 25 32  1  0  0  0  0
  3  4  1  0  0  0  0
  3  5  1  0  0  0  0
  3  6  1  0  0  0  0
 38 41  1  0  0  0  0
 38 42  1  0  0  0  0
 38 43  1  0  0  0  0
 11 14  1  0  0  0  0
 11 15  1  0  0  0  0
 11 16  1  0  0  0  0
 45 47  1  0  0  0  0
 45 48  1  0  0  0  0
 45 49  1  0  0  0  0
 21 29  1  0  0  0  0
 21 30  1  0  0  0  0
 35 40  1  0  0  0  0
  8 13  1  0  0  0  0
 18 28  1  0  0  0  0
 26 33  1  0  0  0  0
 44 46  1  0  0  0  0
  7 12  1  0  0  0  0
 34 39  1  0  0  0  0
 17 27  1  0  0  0  0
M  END
$$$$

  -OEChem-05262214473D

 49 49  0     1  0  0  0  0  0999 V2000
   -1.6183    0.5613    3.8201 C   0  0  0  0  0  0  0  0  0  0  0  0
   -0.6710   -0.0534    3.3444 O   0  0  0  0  0  0  0  0  0  0  0  0
   -2.0502    0.2789    5.2208 C   0  0  0  0  0  0  0  0  0  0  0  0
   -2.8099   -0.5175    5.2742 H   0  0  0  0  0  0  0  0  0  0  0  0
   -1.2190   -0.0687    5.8551 H   0  0  0  0  0  0  0  0  0  0  0  0
   -2.4882    1.1338    5.7604 H   0  0  0  0  0  0  0  0  0  0  0  0
   -2.3680    1.5337    3.1790 N   0  0  0  0  0  0  0  0  0  0  0  0
   -2.1212    1.9597    1.8266 C   0  0  2  0  0  0  0  0  0  0  0  0
   -0.7862    1.3744    1.3854 C   0  0  0  0  0  0  0  0  0  0  0  0
    0.0859    1.0216    2.1767 O   0  0  0  0  0  0  0  0  0  0  0  0
   -2.1124    3.4765    1.7171 C   0  0  0  0  0  0  0  0  0  0  0  0
   -3.1331    1.9695    3.6908 H   0  0  0  0  0  0  0  0  0  0  0  0
   -2.9253    1.5413    1.2115 H   0  0  0  0  0  0  0  0  0  0  0  0
   -1.3133    3.9138    2.3268 H   0  0  0  0  0  0  0  0  0  0  0  0
   -1.9529    3.7988    0.6829 H   0  0  0  0  0  0  0  0  0  0  0  0
   -3.0626    3.8977    2.0629 H   0  0  0  0  0  0  0  0  0  0  0  0
   -0.6635    1.3313    0.0020 N   0  0  0  0  0  0  0  0  0  0  0  0
    0.5138    0.8305   -0.6617 C   0  0  2  0  0  0  0  0  0  0  0  0
    1.6229    0.7573    0.3817 C   0  0  0  0  0  0  0  0  0  0  0  0
    2.8086    0.9359    0.1114 O   0  0  0  0  0  0  0  0  0  0  0  0
    0.9418    1.7223   -1.8328 C   0  0  0  0  0  0  0  0  0  0  0  0
   -0.0846    1.7662   -2.9384 C   0  0  0  0  0  0  0  0  0  0  0  0
   -0.2395    0.7013   -3.7903 N   0  0  0  0  0  0  0  0  0  0  0  0
   -0.9553    2.7833   -3.2516 C   0  0  0  0  0  0  0  0  0  0  0  0
   -1.1963    1.0678   -4.6138 C   0  0  0  0  0  0  0  0  0  0  0  0
   -1.6604    2.3215   -4.3270 N   0  0  0  0  0  0  0  0  0  0  0  0
   -1.4467    1.6280   -0.5753 H   0  0  0  0  0  0  0  0  0  0  0  0
    0.2732   -0.1838   -1.0014 H   0  0  0  0  0  0  0  0  0  0  0  0
    1.9054    1.3835   -2.2366 H   0  0  0  0  0  0  0  0  0  0  0  0
    1.1194    2.7495   -1.4877 H   0  0  0  0  0  0  0  0  0  0  0  0
   -1.1335    3.7600   -2.8252 H   0  0  0  0  0  0  0  0  0  0  0  0
   -1.5949    0.4802   -5.4288 H   0  0  0  0  0  0  0  0  0  0  0  0
   -2.3921    2.8157   -4.8200 H   0  0  0  0  0  0  0  0  0  0  0  0
    1.1239    0.5190    1.6547 N   0  0  0  0  0  0  0  0  0  0  0  0
    1.9596    0.4261    2.8302 C   0  0  2  0  0  0  0  0  0  0  0  0
    3.0925   -0.5454    2.5262 C   0  0  0  0  0  0  0  0  0  0  0  0
    3.0226   -1.4040    1.6493 O   0  0  0  0  0  0  0  0  0  0  0  0
    1.1619   -0.0310    4.0416 C   0  0  0  0  0  0  0  0  0  0  0  0
    0.1208    0.4041    1.7658 H   0  0  0  0  0  0  0  0  0  0  0  0
    2.3720    1.4258    3.0048 H   0  0  0  0  0  0  0  0  0  0  0  0
    0.7408   -1.0309    3.8852 H   0  0  0  0  0  0  0  0  0  0  0  0
    1.7902   -0.0734    4.9374 H   0  0  0  0  0  0  0  0  0  0  0  0
    0.3296    0.6527    4.2408 H   0  0  0  0  0  0  0  0  0  0  0  0
    4.1739   -0.3690    3.3780 N   0  0  0  0  0  0  0  0  0  0  0  0
    5.3681   -1.1775    3.2996 C   0  0  0  0  0  0  0  0  0  0  0  0
    4.1529    0.3801    4.0637 H   0  0  0  0  0  0  0  0  0  0  0  0
    5.2756   -2.0361    3.9809 H   0  0  0  0  0  0  0  0  0  0  0  0
    5.4985   -1.5397    2.2691 H   0  0  0  0  0  0  0  0  0  0  0  0
    6.2400   -0.5724    3.5886 H   0  0  0  0  0  0  0  0  0  0  0  0
 22 24  2  0  0  0  0
 24 26  1  0  0  0  0
 23 25  2  0  0  0  0
 25 26  1  0  0  0  0
 21 22  1  0  0  0  0
 22 23  1  0  0  0  0
  1  3  1  0  0  0  0
  1  7  1  0  0  0  0
  1  2  2  0  0  0  0
 35 36  1  0  0  0  0
 36 44  1  0  0  0  0
 36 37  2  0  0  0  0
  8  9  1  0  0  0  0
  9 17  1  0  0  0  0
  9 10  2  0  0  0  0
 18 19  1  0  0  0  0
 19 34  1  0  0  0  0
 19 20  2  0  0  0  0
 35 38  1  0  0  0  0
  8 11  1  0  0  0  0
 44 45  1  0  0  0  0
 18 21  1  0  0  0  0
 34 35  1  0  0  0  0
  7  8  1  0  0  0  0
 17 18  1  0  0  0  0
 24 31  1  0  0  0  0
 25 32  1  0  0  0  0
  3  4  1  0  0  0  0
  3  5  1  0  0  0  0
  3  6  1  0  0  0  0
 38 41  1  0  0  0  0
 38 42  1  0  0  0  0
 38 43  1  0  0  0  0
 11 14  1  0  0  0  0
 11 15  1  0  0  0  0
 11 16  1  0  0  0  0
 45 47  1  0  0  0  0
 45 48  1  0  0  0  0
 45 49  1  0  0  0  0
 21 29  1  0  0  0  0
 21 30  1  0  0  0  0
 35 40  1  0  0  0  0
  8 13  1  0  0  0  0
 18 28  1  0  0  0  0
 26 33  1  0  0  0  0
 44 46  1  0  0  0  0
  7 12  1  0  0  0  0
 34 39  1  0  0  0  0
 17 27  1  0  0  0  0
M  END
$$$$

  -OEChem-05262214473D

 49 49  0     1  0  0  0  0  0999 V2000
   -1.6183    0.5613    3.8201 C   0  0  0  0  0  0  0  0  0  0  0  0
   -0.6710   -0.0534    3.3444 O   0  0  0  0  0  0  0  0  0  0  0  0
   -2.0502    0.2789    5.2208 C   0  0  0  0  0  0  0  0  0  0  0  0
   -2.8099   -0.5175    5.2742 H   0  0  0  0  0  0  0  0  0  0  0  0
   -1.2190   -0.0687    5.8551 H   0  0  0  0  0  0  0  0  0  0  0  0
   -2.4882    1.1338    5.7604 H   0  0  0  0  0  0  0  0  0  0  0  0
   -2.3680    1.5337    3.1790 N   0  0  0  0  0  0  0  0  0  0  0  0
   -2.1212    1.9597    1.8266 C   0  0  2  0  0  0  0  0  0  0  0  0
   -0.7862    1.3744    1.3854 C   0  0  0  0  0  0  0  0  0  0  0  0
    0.0859    1.0216    2.1767 O   0  0  0  0  0  0  0  0  0  0  0  0
   -2.1124    3.4765    1.7171 C   0  0  0  0  0  0  0  0  0  0  0  0
   -3.1331    1.9695    3.6908 H   0  0  0  0  0  0  0  0  0  0  0  0
   -2.9253    1.5413    1.2115 H   0  0  0  0  0  0  0  0  0  0  0  0
   -1.3133    3.9138    2.3268 H   0  0  0  0  0  0  0  0  0  0  0  0
   -1.9529    3.7988    0.6829 H   0  0  0  0  0  0  0  0  0  0  0  0
   -3.0626    3.8977    2.0629 H   0  0  0  0  0  0  0  0  0  0  0  0
   -0.6635    1.3313    0.0020 N   0  0  0  0  0  0  0  0  0  0  0  0
    0.5138    0.8305   -0.6617 C   0  0  2  0  0  0  0  0  0  0  0  0
    1.6229    0.7573    0.3817 C   0  0  0  0  0  0  0  0  0  0  0  0
    2.7566    1.1897    0.1846 O   0  0  0  0  0  0  0  0  0  0  0  0
    0.9418    1.7223   -1.8328 C   0  0  0  0  0  0  0  0  0  0  0  0
   -0.0846    1.7662   -2.9384 C   0  0  0  0  0  0  0  0  0  0  0  0
   -0.2395    0.7013   -3.7903 N   0  0  0  0  0  0  0  0  0  0  0  0
   -0.9553    2.7833   -3.2516 C   0  0  0  0  0  0  0  0  0  0  0  0
   -1.1963    1.0678   -4.6138 C   0  0  0  0  0  0  0  0  0  0  0  0
   -1.6604    2.3215   -4.3270 N   0  0  0  0  0  0  0  0  0  0  0  0
   -1.4467    1.6280   -0.5753 H   0  0  0  0  0  0  0  0  0  0  0  0
    0.2732   -0.1838   -1.0014 H   0  0  0  0  0  0  0  0  0  0  0  0
    1.9054    1.3835   -2.2366 H   0  0  0  0  0  0  0  0  0  0  0  0
    1.1194    2.7495   -1.4877 H   0  0  0  0  0  0  0  0  0  0  0  0
   -1.1335    3.7600   -2.8252 H   0  0  0  0  0  0  0  0  0  0  0  0
   -1.5949    0.4802   -5.4288 H   0  0  0  0  0  0  0  0  0  0  0  0
   -2.3921    2.8157   -4.8200 H   0  0  0  0  0  0  0  0  0  0  0  0
    1.1802    0.1982    1.5724 N   0  0  0  0  0  0  0  0  0  0  0  0
    2.0244    0.0328    2.7337 C   0  0  2  0  0  0  0  0  0  0  0  0
    3.3109   -0.6487    2.2867 C   0  0  0  0  0  0  0  0  0  0  0  0
    3.3914   -1.3244    1.2629 O   0  0  0  0  0  0  0  0  0  0  0  0
    1.3265   -0.7786    3.8141 C   0  0  0  0  0  0  0  0  0  0  0  0
    0.2142   -0.1104    1.6305 H   0  0  0  0  0  0  0  0  0  0  0  0
    2.2527    1.0380    3.1044 H   0  0  0  0  0  0  0  0  0  0  0  0
    1.0898   -1.7889    3.4611 H   0  0  0  0  0  0  0  0  0  0  0  0
    1.9564   -0.8787    4.7043 H   0  0  0  0  0  0  0  0  0  0  0  0
    0.3866   -0.3023    4.1133 H   0  0  0  0  0  0  0  0  0  0  0  0
    4.3475   -0.4494    3.1878 N   0  0  0  0  0  0  0  0  0  0  0  0
    5.6663   -1.0055    2.9946 C   0  0  0  0  0  0  0  0  0  0  0  0
    4.1963    0.1407    4.0007 H   0  0  0  0  0  0  0  0  0  0  0  0
    5.7315   -1.9802    3.5002 H   0  0  0  0  0  0  0  0  0  0  0  0
    5.8545   -1.1373    1.9188 H   0  0  0  0  0  0  0  0  0  0  0  0
    6.4177   -0.3223    3.4173 H   0  0  0  0  0  0  0  0  0  0  0  0
 22 24  2  0  0  0  0
 24 26  1  0  0  0  0
 23 25  2  0  0  0  0
 25 26  1  0  0  0  0
 21 22  1  0  0  0  0
 22 23  1  0  0  0  0
  1  3  1  0  0  0  0
  1  7  1  0  0  0  0
  1  2  2  0  0  0  0
 35 36  1  0  0  0  0
 36 44  1  0  0  0  0
 36 37  2  0  0  0  0
  8  9  1  0  0  0  0
  9 17  1  0  0  0  0
  9 10  2  0  0  0  0
 18 19  1  0  0  0  0
 19 34  1  0  0  0  0
 19 20  2  0  0  0  0
 35 38  1  0  0  0  0
  8 11  1  0  0  0  0
 44 45  1  0  0  0  0
 18 21  1  0  0  0  0
 34 35  1  0  0  0  0
  7  8  1  0  0  0  0
 17 18  1  0  0  0  0
 24 31  1  0  0  0  0
 25 32  1  0  0  0  0
  3  4  1  0  0  0  0
  3  5  1  0  0  0  0
  3  6  1  0  0  0  0
 38 41  1  0  0  0  0
 38 42  1  0  0  0  0
 38 43  1  0  0  0  0
 11 14  1  0  0  0  0
 11 15  1  0  0  0  0
 11 16  1  0  0  0  0
 45 47  1  0  0  0  0
 45 48  1  0  0  0  0
 45 49  1  0  0  0  0
 21 29  1  0  0  0  0
 21 30  1  0  0  0  0
 35 40  1  0  0  0  0
  8 13  1  0  0  0  0
 18 28  1  0  0  0  0
 26 33  1  0  0  0  0
 44 46  1  0  0  0  0
  7 12  1  0  0  0  0
 34 39  1  0  0  0  0
 17 27  1  0  0  0  0
M  END
$$$$

  -OEChem-05262214473D

 49 49  0     1  0  0  0  0  0999 V2000
   -1.6183    0.5613    3.8201 C   0  0  0  0  0  0  0  0  0  0  0  0
   -0.6710   -0.0534    3.3444 O   0  0  0  0  0  0  0  0  0  0  0  0
   -2.0502    0.2789    5.2208 C   0  0  0  0  0  0  0  0  0  0  0  0
   -2.8099   -0.5175    5.2742 H   0  0  0  0  0  0  0  0  0  0  0  0
   -1.2190   -0.0687    5.8551 H   0  0  0  0  0  0  0  0  0  0  0  0
   -2.4882    1.1338    5.7604 H   0  0  0  0  0  0  0  0  0  0  0  0
   -2.3680    1.5337    3.1790 N   0  0  0  0  0  0  0  0  0  0  0  0
   -2.1212    1.9597    1.8266 C   0  0  2  0  0  0  0  0  0  0  0  0
   -0.7862    1.3744    1.3854 C   0  0  0  0  0  0  0  0  0  0  0  0
    0.0859    1.0216    2.1767 O   0  0  0  0  0  0  0  0  0  0  0  0
   -2.1124    3.4765    1.7171 C   0  0  0  0  0  0  0  0  0  0  0  0
   -3.1331    1.9695    3.6908 H   0  0  0  0  0  0  0  0  0  0  0  0
   -2.9253    1.5413    1.2115 H   0  0  0  0  0  0  0  0  0  0  0  0
   -1.3133    3.9138    2.3268 H   0  0  0  0  0  0  0  0  0  0  0  0
   -1.9529    3.7988    0.6829 H   0  0  0  0  0  0  0  0  0  0  0  0
   -3.0626    3.8977    2.0629 H   0  0  0  0  0  0  0  0  0  0  0  0
   -0.6635    1.3313    0.0020 N   0  0  0  0  0  0  0  0  0  0  0  0
    0.5138    0.8305   -0.6617 C   0  0  2  0  0  0  0  0  0  0  0  0
    1.6229    0.7573    0.3817 C   0  0  0  0  0  0  0  0  0  0  0  0
    2.6604    1.4118    0.3024 O   0  0  0  0  0  0  0  0  0  0  0  0
    0.9418    1.7223   -1.8328 C   0  0  0  0  0  0  0  0  0  0  0  0
   -0.0846    1.7662   -2.9384 C   0  0  0  0  0  0  0  0  0  0  0  0
   -0.2395    0.7013   -3.7903 N   0  0  0  0  0  0  0  0  0  0  0  0
   -0.9553    2.7833   -3.2516 C   0  0  0  0  0  0  0  0  0  0  0  0
   -1.1963    1.0678   -4.6138 C   0  0  0  0  0  0  0  0  0  0  0  0
   -1.6604    2.3215   -4.3270 N   0  0  0  0  0  0  0  0  0  0  0  0
   -1.4467    1.6280   -0.5753 H   0  0  0  0  0  0  0  0  0  0  0  0
    0.2732   -0.1838   -1.0014 H   0  0  0  0  0  0  0  0  0  0  0  0
    1.9054    1.3835   -2.2366 H   0  0  0  0  0  0  0  0  0  0  0  0
    1.1194    2.7495   -1.4877 H   0  0  0  0  0  0  0  0  0  0  0  0
   -1.1335    3.7600   -2.8252 H   0  0  0  0  0  0  0  0  0  0  0  0
   -1.5949    0.4802   -5.4288 H   0  0  0  0  0  0  0  0  0  0  0  0
   -2.3921    2.8157   -4.8200 H   0  0  0  0  0  0  0  0  0  0  0  0
    1.2924   -0.0863    1.4331 N   0  0  0  0  0  0  0  0  0  0  0  0
    2.1579   -0.3174    2.5673 C   0  0  2  0  0  0  0  0  0  0  0  0
    3.5433   -0.6648    2.0386 C   0  0  0  0  0  0  0  0  0  0  0  0
    3.7382   -1.1094    0.9093 O   0  0  0  0  0  0  0  0  0  0  0  0
    1.6208   -1.4287    3.4558 C   0  0  0  0  0  0  0  0  0  0  0  0
    0.3972   -0.5653    1.4040 H   0  0  0  0  0  0  0  0  0  0  0  0
    2.2050    0.6236    3.1262 H   0  0  0  0  0  0  0  0  0  0  0  0
    1.5664   -2.3794    2.9130 H   0  0  0  0  0  0  0  0  0  0  0  0
    2.2624   -1.5832    4.3295 H   0  0  0  0  0  0  0  0  0  0  0  0
    0.6124   -1.1906    3.8110 H   0  0  0  0  0  0  0  0  0  0  0  0
    4.5317   -0.4606    2.9912 N   0  0  0  0  0  0  0  0  0  0  0  0
    5.9277   -0.7291    2.7361 C   0  0  0  0  0  0  0  0  0  0  0  0
    4.2815   -0.0711    3.8953 H   0  0  0  0  0  0  0  0  0  0  0  0
    6.1680   -1.7550    3.0520 H   0  0  0  0  0  0  0  0  0  0  0  0
    6.1315   -0.6195    1.6607 H   0  0  0  0  0  0  0  0  0  0  0  0
    6.5472   -0.0170    3.3011 H   0  0  0  0  0  0  0  0  0  0  0  0
 22 24  2  0  0  0  0
 24 26  1  0  0  0  0
 23 25  2  0  0  0  0
 25 26  1  0  0  0  0
 21 22  1  0  0  0  0
 22 23  1  0  0  0  0
  1  3  1  0  0  0  0
  1  7  1  0  0  0  0
  1  2  2  0  0  0  0
 35 36  1  0  0  0  0
 36 44  1  0  0  0  0
 36 37  2  0  0  0  0
  8  9  1  0  0  0  0
  9 17  1  0  0  0  0
  9 10  2  0  0  0  0
 18 19  1  0  0  0  0
 19 34  1  0  0  0  0
 19 20  2  0  0  0  0
 35 38  1  0  0  0  0
  8 11  1  0  0  0  0
 44 45  1  0  0  0  0
 18 21  1  0  0  0  0
 34 35  1  0  0  0  0
  7  8  1  0  0  0  0
 17 18  1  0  0  0  0
 24 31  1  0  0  0  0
 25 32  1  0  0  0  0
  3  4  1  0  0  0  0
  3  5  1  0  0  0  0
  3  6  1  0  0  0  0
 38 41  1  0  0  0  0
 38 42  1  0  0  0  0
 38 43  1  0  0  0  0
 11 14  1  0  0  0  0
 11 15  1  0  0  0  0
 11 16  1  0  0  0  0
 45 47  1  0  0  0  0
 45 48  1  0  0  0  0
 45 49  1  0  0  0  0
 21 29  1  0  0  0  0
 21 30  1  0  0  0  0
 35 40  1  0  0  0  0
  8 13  1  0  0  0  0
 18 28  1  0  0  0  0
 26 33  1  0  0  0  0
 44 46  1  0  0  0  0
  7 12  1  0  0  0  0
 34 39  1  0  0  0  0
 17 27  1  0  0  0  0
M  END
$$$$

  -OEChem-05262214473D

 49 49  0     1  0  0  0  0  0999 V2000
   -1.6183    0.5613    3.8201 C   0  0  0  0  0  0  0  0  0  0  0  0
   -0.6710   -0.0534    3.3444 O   0  0  0  0  0  0  0  0  0  0  0  0
   -2.0502    0.2789    5.2208 C   0  0  0  0  0  0  0  0  0  0  0  0
   -2.8099   -0.5175    5.2742 H   0  0  0  0  0  0  0  0  0  0  0  0
   -1.2190   -0.0687    5.8551 H   0  0  0  0  0  0  0  0  0  0  0  0
   -2.4882    1.1338    5.7604 H   0  0  0  0  0  0  0  0  0  0  0  0
   -2.3680    1.5337    3.1790 N   0  0  0  0  0  0  0  0  0  0  0  0
   -2.1212    1.9597    1.8266 C   0  0  2  0  0  0  0  0  0  0  0  0
   -0.7862    1.3744    1.3854 C   0  0  0  0  0  0  0  0  0  0  0  0
    0.0859    1.0216    2.1767 O   0  0  0  0  0  0  0  0  0  0  0  0
   -2.1124    3.4765    1.7171 C   0  0  0  0  0  0  0  0  0  0  0  0
   -3.1331    1.9695    3.6908 H   0  0  0  0  0  0  0  0  0  0  0  0
   -2.9253    1.5413    1.2115 H   0  0  0  0  0  0  0  0  0  0  0  0
   -1.3133    3.9138    2.3268 H   0  0  0  0  0  0  0  0  0  0  0  0
   -1.9529    3.7988    0.6829 H   0  0  0  0  0  0  0  0  0  0  0  0
   -3.0626    3.8977    2.0629 H   0  0  0  0  0  0  0  0  0  0  0  0
   -0.6635    1.3313    0.0020 N   0  0  0  0  0  0  0  0  0  0  0  0
    0.5138    0.8305   -0.6617 C   0  0  2  0  0  0  0  0  0  0  0  0
    1.6229    0.7573    0.3817 C   0  0  0  0  0  0  0  0  0  0  0  0
    2.5267    1.5871    0.4568 O   0  0  0  0  0  0  0  0  0  0  0  0
    0.9418    1.7223   -1.8328 C   0  0  0  0  0  0  0  0  0  0  0  0
   -0.0846    1.7662   -2.9384 C   0  0  0  0  0  0  0  0  0  0  0  0
   -0.2395    0.7013   -3.7903 N   0  0  0  0  0  0  0  0  0  0  0  0
   -0.9553    2.7833   -3.2516 C   0  0  0  0  0  0  0  0  0  0  0  0
   -1.1963    1.0678   -4.6138 C   0  0  0  0  0  0  0  0  0  0  0  0
   -1.6604    2.3215   -4.3270 N   0  0  0  0  0  0  0  0  0  0  0  0
   -1.4467    1.6280   -0.5753 H   0  0  0  0  0  0  0  0  0  0  0  0
    0.2732   -0.1838   -1.0014 H   0  0  0  0  0  0  0  0  0  0  0  0
    1.9054    1.3835   -2.2366 H   0  0  0  0  0  0  0  0  0  0  0  0
    1.1194    2.7495   -1.4877 H   0  0  0  0  0  0  0  0  0  0  0  0
   -1.1335    3.7600   -2.8252 H   0  0  0  0  0  0  0  0  0  0  0  0
   -1.5949    0.4802   -5.4288 H   0  0  0  0  0  0  0  0  0  0  0  0
   -2.3921    2.8157   -4.8200 H   0  0  0  0  0  0  0  0  0  0  0  0
    1.4529   -0.3149    1.2465 N   0  0  0  0  0  0  0  0  0  0  0  0
    2.3509   -0.6008    2.3422 C   0  0  2  0  0  0  0  0  0  0  0  0
    3.7736   -0.5924    1.7988 C   0  0  0  0  0  0  0  0  0  0  0  0
    4.0396   -0.7737    0.6124 O   0  0  0  0  0  0  0  0  0  0  0  0
    2.0246   -1.9370    2.9908 C   0  0  0  0  0  0  0  0  0  0  0  0
    0.6573   -0.9297    1.1019 H   0  0  0  0  0  0  0  0  0  0  0  0
    2.2320    0.2106    3.0685 H   0  0  0  0  0  0  0  0  0  0  0  0
    2.1382   -2.7622    2.2783 H   0  0  0  0  0  0  0  0  0  0  0  0
    2.6875   -2.1389    3.8387 H   0  0  0  0  0  0  0  0  0  0  0  0
    0.9915   -1.9518    3.3546 H   0  0  0  0  0  0  0  0  0  0  0  0
    4.7141   -0.4017    2.8014 N   0  0  0  0  0  0  0  0  0  0  0  0
    6.1345   -0.3671    2.5417 C   0  0  0  0  0  0  0  0  0  0  0  0
    4.4026   -0.2408    3.7547 H   0  0  0  0  0  0  0  0  0  0  0  0
    6.5553   -1.3757    2.6669 H   0  0  0  0  0  0  0  0  0  0  0  0
    6.3105   -0.0217    1.5123 H   0  0  0  0  0  0  0  0  0  0  0  0
    6.6196    0.3227    3.2479 H   0  0  0  0  0  0  0  0  0  0  0  0
 22 24  2  0  0  0  0
 24 26  1  0  0  0  0
 23 25  2  0  0  0  0
 25 26  1  0  0  0  0
 21 22  1  0  0  0  0
 22 23  1  0  0  0  0
  1  3  1  0  0  0  0
  1  7  1  0  0  0  0
  1  2  2  0  0  0  0
 35 36  1  0  0  0  0
 36 44  1  0  0  0  0
 36 37  2  0  0  0  0
  8  9  1  0  0  0  0
  9 17  1  0  0  0  0
  9 10  2  0  0  0  0
 18 19  1  0  0  0  0
 19 34  1  0  0  0  0
 19 20  2  0  0  0  0
 35 38  1  0  0  0  0
  8 11  1  0  0  0  0
 44 45  1  0  0  0  0
 18 21  1  0  0  0  0
 34 35  1  0  0  0  0
  7  8  1  0  0  0  0
 17 18  1  0  0  0  0
 24 31  1  0  0  0  0
 25 32  1  0  0  0  0
  3  4  1  0  0  0  0
  3  5  1  0  0  0  0
  3  6  1  0  0  0  0
 38 41  1  0  0  0  0
 38 42  1  0  0  0  0
 38 43  1  0  0  0  0
 11 14  1  0  0  0  0
 11 15  1  0  0  0  0
 11 16  1  0  0  0  0
 45 47  1  0  0  0  0
 45 48  1  0  0  0  0
 45 49  1  0  0  0  0
 21 29  1  0  0  0  0
 21 30  1  0  0  0  0
 35 40  1  0  0  0  0
  8 13  1  0  0  0  0
 18 28  1  0  0  0  0
 26 33  1  0  0  0  0
 44 46  1  0  0  0  0
  7 12  1  0  0  0  0
 34 39  1  0  0  0  0
 17 27  1  0  0  0  0
M  END
$$$$

  -OEChem-05262214473D

 49 49  0     1  0  0  0  0  0999 V2000
   -1.6183    0.5613    3.8201 C   0  0  0  0  0  0  0  0  0  0  0  0
   -0.6710   -0.0534    3.3444 O   0  0  0  0  0  0  0  0  0  0  0  0
   -2.0502    0.2789    5.2208 C   0  0  0  0  0  0  0  0  0  0  0  0
   -2.8099   -0.5175    5.2742 H   0  0  0  0  0  0  0  0  0  0  0  0
   -1.2190   -0.0687    5.8551 H   0  0  0  0  0  0  0  0  0  0  0  0
   -2.4882    1.1338    5.7604 H   0  0  0  0  0  0  0  0  0  0  0  0
   -2.3680    1.5337    3.1790 N   0  0  0  0  0  0  0  0  0  0  0  0
   -2.1212    1.9597    1.8266 C   0  0  2  0  0  0  0  0  0  0  0  0
   -0.7862    1.3744    1.3854 C   0  0  0  0  0  0  0  0  0  0  0  0
    0.0859    1.0216    2.1767 O   0  0  0  0  0  0  0  0  0  0  0  0
   -2.1124    3.4765    1.7171 C   0  0  0  0  0  0  0  0  0  0  0  0
   -3.1331    1.9695    3.6908 H   0  0  0  0  0  0  0  0  0  0  0  0
   -2.9253    1.5413    1.2115 H   0  0  0  0  0  0  0  0  0  0  0  0
   -1.3133    3.9138    2.3268 H   0  0  0  0  0  0  0  0  0  0  0  0
   -1.9529    3.7988    0.6829 H   0  0  0  0  0  0  0  0  0  0  0  0
   -3.0626    3.8977    2.0629 H   0  0  0  0  0  0  0  0  0  0  0  0
   -0.6635    1.3313    0.0020 N   0  0  0  0  0  0  0  0  0  0  0  0
    0.5138    0.8305   -0.6617 C   0  0  2  0  0  0  0  0  0  0  0  0
    1.6229    0.7573    0.3817 C   0  0  0  0  0  0  0  0  0  0  0  0
    2.3646    1.7037    0.6373 O   0  0  0  0  0  0  0  0  0  0  0  0
    0.9418    1.7223   -1.8328 C   0  0  0  0  0  0  0  0  0  0  0  0
   -0.0846    1.7662   -2.9384 C   0  0  0  0  0  0  0  0  0  0  0  0
   -0.2395    0.7013   -3.7903 N   0  0  0  0  0  0  0  0  0  0  0  0
   -0.9553    2.7833   -3.2516 C   0  0  0  0  0  0  0  0  0  0  0  0
   -1.1963    1.0678   -4.6138 C   0  0  0  0  0  0  0  0  0  0  0  0
   -1.6604    2.3215   -4.3270 N   0  0  0  0  0  0  0  0  0  0  0  0
   -1.4467    1.6280   -0.5753 H   0  0  0  0  0  0  0  0  0  0  0  0
    0.2732   -0.1838   -1.0014 H   0  0  0  0  0  0  0  0  0  0  0  0
    1.9054    1.3835   -2.2366 H   0  0  0  0  0  0  0  0  0  0  0  0
    1.1194    2.7495   -1.4877 H   0  0  0  0  0  0  0  0  0  0  0  0
   -1.1335    3.7600   -2.8252 H   0  0  0  0  0  0  0  0  0  0  0  0
   -1.5949    0.4802   -5.4288 H   0  0  0  0  0  0  0  0  0  0  0  0
   -2.3921    2.8157   -4.8200 H   0  0  0  0  0  0  0  0  0  0  0  0
    1.6508   -0.4722    1.0251 N   0  0  0  0  0  0  0  0  0  0  0  0
    2.5903   -0.7979    2.0739 C   0  0  2  0  0  0  0  0  0  0  0  0
    3.9863   -0.4366    1.5837 C   0  0  0  0  0  0  0  0  0  0  0  0
    4.2749   -0.3402    0.3927 O   0  0  0  0  0  0  0  0  0  0  0  0
    2.5105   -2.2690    2.4510 C   0  0  0  0  0  0  0  0  0  0  0  0
    0.9769   -1.1786    0.7447 H   0  0  0  0  0  0  0  0  0  0  0  0
    2.3319   -0.1725    2.9354 H   0  0  0  0  0  0  0  0  0  0  0  0
    2.7661   -2.9112    1.6003 H   0  0  0  0  0  0  0  0  0  0  0  0
    3.2026   -2.5080    3.2652 H   0  0  0  0  0  0  0  0  0  0  0  0
    1.4983   -2.5339    2.7751 H   0  0  0  0  0  0  0  0  0  0  0  0
    4.8822   -0.2767    2.6314 N   0  0  0  0  0  0  0  0  0  0  0  0
    6.2724    0.0557    2.4246 C   0  0  0  0  0  0  0  0  0  0  0  0
    4.5513   -0.3567    3.5884 H   0  0  0  0  0  0  0  0  0  0  0  0
    6.8669   -0.8683    2.3711 H   0  0  0  0  0  0  0  0  0  0  0  0
    6.3794    0.6154    1.4837 H   0  0  0  0  0  0  0  0  0  0  0  0
    6.6300    0.6737    3.2615 H   0  0  0  0  0  0  0  0  0  0  0  0
 22 24  2  0  0  0  0
 24 26  1  0  0  0  0
 23 25  2  0  0  0  0
 25 26  1  0  0  0  0
 21 22  1  0  0  0  0
 22 23  1  0  0  0  0
  1  3  1  0  0  0  0
  1  7  1  0  0  0  0
  1  2  2  0  0  0  0
 35 36  1  0  0  0  0
 36 44  1  0  0  0  0
 36 37  2  0  0  0  0
  8  9  1  0  0  0  0
  9 17  1  0  0  0  0
  9 10  2  0  0  0  0
 18 19  1  0  0  0  0
 19 34  1  0  0  0  0
 19 20  2  0  0  0  0
 35 38  1  0  0  0  0
  8 11  1  0  0  0  0
 44 45  1  0  0  0  0
 18 21  1  0  0  0  0
 34 35  1  0  0  0  0
  7  8  1  0  0  0  0
 17 18  1  0  0  0  0
 24 31  1  0  0  0  0
 25 32  1  0  0  0  0
  3  4  1  0  0  0  0
  3  5  1  0  0  0  0
  3  6  1  0  0  0  0
 38 41  1  0  0  0  0
 38 42  1  0  0  0  0
 38 43  1  0  0  0  0
 11 14  1  0  0  0  0
 11 15  1  0  0  0  0
 11 16  1  0  0  0  0
 45 47  1  0  0  0  0
 45 48  1  0  0  0  0
 45 49  1  0  0  0  0
 21 29  1  0  0  0  0
 21 30  1  0  0  0  0
 35 40  1  0  0  0  0
  8 13  1  0  0  0  0
 18 28  1  0  0  0  0
 26 33  1  0  0  0  0
 44 46  1  0  0  0  0
  7 12  1  0  0  0  0
 34 39  1  0  0  0  0
 17 27  1  0  0  0  0
M  END
$$$$

  -OEChem-05262214473D

 49 49  0     1  0  0  0  0  0999 V2000
   -1.6183    0.5613    3.8201 C   0  0  0  0  0  0  0  0  0  0  0  0
   -0.6710   -0.0534    3.3444 O   0  0  0  0  0  0  0  0  0  0  0  0
   -2.0502    0.2789    5.2208 C   0  0  0  0  0  0  0  0  0  0  0  0
   -2.8099   -0.5175    5.2742 H   0  0  0  0  0  0  0  0  0  0  0  0
   -1.2190   -0.0687    5.8551 H   0  0  0  0  0  0  0  0  0  0  0  0
   -2.4882    1.1338    5.7604 H   0  0  0  0  0  0  0  0  0  0  0  0
   -2.3680    1.5337    3.1790 N   0  0  0  0  0  0  0  0  0  0  0  0
   -2.1212    1.9597    1.8266 C   0  0  2  0  0  0  0  0  0  0  0  0
   -0.7862    1.3744    1.3854 C   0  0  0  0  0  0  0  0  0  0  0  0
    0.0859    1.0216    2.1767 O   0  0  0  0  0  0  0  0  0  0  0  0
   -2.1124    3.4765    1.7171 C   0  0  0  0  0  0  0  0  0  0  0  0
   -3.1331    1.9695    3.6908 H   0  0  0  0  0  0  0  0  0  0  0  0
   -2.9253    1.5413    1.2115 H   0  0  0  0  0  0  0  0  0  0  0  0
   -1.3133    3.9138    2.3268 H   0  0  0  0  0  0  0  0  0  0  0  0
   -1.9529    3.7988    0.6829 H   0  0  0  0  0  0  0  0  0  0  0  0
   -3.0626    3.8977    2.0629 H   0  0  0  0  0  0  0  0  0  0  0  0
   -0.6635    1.3313    0.0020 N   0  0  0  0  0  0  0  0  0  0  0  0
    0.5138    0.8305   -0.6617 C   0  0  2  0  0  0  0  0  0  0  0  0
    1.6229    0.7573    0.3817 C   0  0  0  0  0  0  0  0  0  0  0  0
    2.1851    1.7536    0.8316 O   0  0  0  0  0  0  0  0  0  0  0  0
    0.9418    1.7223   -1.8328 C   0  0  0  0  0  0  0  0  0  0  0  0
   -0.0846    1.7662   -2.9384 C   0  0  0  0  0  0  0  0  0  0  0  0
   -0.2395    0.7013   -3.7903 N   0  0  0  0  0  0  0  0  0  0  0  0
   -0.9553    2.7833   -3.2516 C   0  0  0  0  0  0  0  0  0  0  0  0
   -1.1963    1.0678   -4.6138 C   0  0  0  0  0  0  0  0  0  0  0  0
   -1.6604    2.3215   -4.3270 N   0  0  0  0  0  0  0  0  0  0  0  0
   -1.4467    1.6280   -0.5753 H   0  0  0  0  0  0  0  0  0  0  0  0
    0.2732   -0.1838   -1.0014 H   0  0  0  0  0  0  0  0  0  0  0  0
    1.9054    1.3835   -2.2366 H   0  0  0  0  0  0  0  0  0  0  0  0
    1.1194    2.7495   -1.4877 H   0  0  0  0  0  0  0  0  0  0  0  0
   -1.1335    3.7600   -2.8252 H   0  0  0  0  0  0  0  0  0  0  0  0
   -1.5949    0.4802   -5.4288 H   0  0  0  0  0  0  0  0  0  0  0  0
   -2.3921    2.8157   -4.8200 H   0  0  0  0  0  0  0  0  0  0  0  0
    1.8725   -0.5473    0.7841 N   0  0  0  0  0  0  0  0  0  0  0  0
    2.8598   -0.8953    1.7805 C   0  0  2  0  0  0  0  0  0  0  0  0
    4.1667   -0.2079    1.4078 C   0  0  0  0  0  0  0  0  0  0  0  0
    4.4281    0.1617    0.2649 O   0  0  0  0  0  0  0  0  0  0  0  0
    3.0454   -2.4019    1.8731 C   0  0  0  0  0  0  0  0  0  0  0  0
    1.3342   -1.2952    0.3568 H   0  0  0  0  0  0  0  0  0  0  0  0
    2.4980   -0.4999    2.7359 H   0  0  0  0  0  0  0  0  0  0  0  0
    3.4075   -2.8162    0.9251 H   0  0  0  0  0  0  0  0  0  0  0  0
    3.7727   -2.6652    2.6482 H   0  0  0  0  0  0  0  0  0  0  0  0
    2.0981   -2.8973    2.1120 H   0  0  0  0  0  0  0  0  0  0  0  0
    5.0246   -0.0943    2.4929 N   0  0  0  0  0  0  0  0  0  0  0  0
    6.3323    0.5106    2.3929 C   0  0  0  0  0  0  0  0  0  0  0  0
    4.7176   -0.4110    3.4079 H   0  0  0  0  0  0  0  0  0  0  0  0
    7.0818   -0.2672    2.1849 H   0  0  0  0  0  0  0  0  0  0  0  0
    6.3335    1.2483    1.5769 H   0  0  0  0  0  0  0  0  0  0  0  0
    6.5777    1.0120    3.3407 H   0  0  0  0  0  0  0  0  0  0  0  0
 22 24  2  0  0  0  0
 24 26  1  0  0  0  0
 23 25  2  0  0  0  0
 25 26  1  0  0  0  0
 21 22  1  0  0  0  0
 22 23  1  0  0  0  0
  1  3  1  0  0  0  0
  1  7  1  0  0  0  0
  1  2  2  0  0  0  0
 35 36  1  0  0  0  0
 36 44  1  0  0  0  0
 36 37  2  0  0  0  0
  8  9  1  0  0  0  0
  9 17  1  0  0  0  0
  9 10  2  0  0  0  0
 18 19  1  0  0  0  0
 19 34  1  0  0  0  0
 19 20  2  0  0  0  0
 35 38  1  0  0  0  0
  8 11  1  0  0  0  0
 44 45  1  0  0  0  0
 18 21  1  0  0  0  0
 34 35  1  0  0  0  0
  7  8  1  0  0  0  0
 17 18  1  0  0  0  0
 24 31  1  0  0  0  0
 25 32  1  0  0  0  0
  3  4  1  0  0  0  0
  3  5  1  0  0  0  0
  3  6  1  0  0  0  0
 38 41  1  0  0  0  0
 38 42  1  0  0  0  0
 38 43  1  0  0  0  0
 11 14  1  0  0  0  0
 11 15  1  0  0  0  0
 11 16  1  0  0  0  0
 45 47  1  0  0  0  0
 45 48  1  0  0  0  0
 45 49  1  0  0  0  0
 21 29  1  0  0  0  0
 21 30  1  0  0  0  0
 35 40  1  0  0  0  0
  8 13  1  0  0  0  0
 18 28  1  0  0  0  0
 26 33  1  0  0  0  0
 44 46  1  0  0  0  0
  7 12  1  0  0  0  0
 34 39  1  0  0  0  0
 17 27  1  0  0  0  0
M  END
$$$$

  -OEChem-05262214473D

 49 49  0     1  0  0  0  0  0999 V2000
   -1.6183    0.5613    3.8201 C   0  0  0  0  0  0  0  0  0  0  0  0
   -0.6710   -0.0534    3.3444 O   0  0  0  0  0  0  0  0  0  0  0  0
   -2.0502    0.2789    5.2208 C   0  0  0  0  0  0  0  0  0  0  0  0
   -2.8099   -0.5175    5.2742 H   0  0  0  0  0  0  0  0  0  0  0  0
   -1.2190   -0.0687    5.8551 H   0  0  0  0  0  0  0  0  0  0  0  0
   -2.4882    1.1338    5.7604 H   0  0  0  0  0  0  0  0  0  0  0  0
   -2.3680    1.5337    3.1790 N   0  0  0  0  0  0  0  0  0  0  0  0
   -2.1212    1.9597    1.8266 C   0  0  2  0  0  0  0  0  0  0  0  0
   -0.7862    1.3744    1.3854 C   0  0  0  0  0  0  0  0  0  0  0  0
    0.0859    1.0216    2.1767 O   0  0  0  0  0  0  0  0  0  0  0  0
   -2.1124    3.4765    1.7171 C   0  0  0  0  0  0  0  0  0  0  0  0
   -3.1331    1.9695    3.6908 H   0  0  0  0  0  0  0  0  0  0  0  0
   -2.9253    1.5413    1.2115 H   0  0  0  0  0  0  0  0  0  0  0  0
   -1.3133    3.9138    2.3268 H   0  0  0  0  0  0  0  0  0  0  0  0
   -1.9529    3.7988    0.6829 H   0  0  0  0  0  0  0  0  0  0  0  0
   -3.0626    3.8977    2.0629 H   0  0  0  0  0  0  0  0  0  0  0  0
   -0.6635    1.3313    0.0020 N   0  0  0  0  0  0  0  0  0  0  0  0
    0.5138    0.8305   -0.6617 C   0  0  2  0  0  0  0  0  0  0  0  0
    1.6229    0.7573    0.3817 C   0  0  0  0  0  0  0  0  0  0  0  0
    2.0005    1.7334    1.0264 O   0  0  0  0  0  0  0  0  0  0  0  0
    0.9418    1.7223   -1.8328 C   0  0  0  0  0  0  0  0  0  0  0  0
   -0.0846    1.7662   -2.9384 C   0  0  0  0  0  0  0  0  0  0  0  0
   -0.2395    0.7013   -3.7903 N   0  0  0  0  0  0  0  0  0  0  0  0
   -0.9553    2.7833   -3.2516 C   0  0  0  0  0  0  0  0  0  0  0  0
   -1.1963    1.0678   -4.6138 C   0  0  0  0  0  0  0  0  0  0  0  0
   -1.6604    2.3215   -4.3270 N   0  0  0  0  0  0  0  0  0  0  0  0
   -1.4467    1.6280   -0.5753 H   0  0  0  0  0  0  0  0  0  0  0  0
    0.2732   -0.1838   -1.0014 H   0  0  0  0  0  0  0  0  0  0  0  0
    1.9054    1.3835   -2.2366 H   0  0  0  0  0  0  0  0  0  0  0  0
    1.1194    2.7495   -1.4877 H   0  0  0  0  0  0  0  0  0  0  0  0
   -1.1335    3.7600   -2.8252 H   0  0  0  0  0  0  0  0  0  0  0  0
   -1.5949    0.4802   -5.4288 H   0  0  0  0  0  0  0  0  0  0  0  0
   -2.3921    2.8157   -4.8200 H   0  0  0  0  0  0  0  0  0  0  0  0
    2.1030   -0.5353    0.5399 N   0  0  0  0  0  0  0  0  0  0  0  0
    3.1411   -0.8865    1.4822 C   0  0  2  0  0  0  0  0  0  0  0  0
    4.3027    0.0781    1.2833 C   0  0  0  0  0  0  0  0  0  0  0  0
    4.4888    0.6976    0.2380 O   0  0  0  0  0  0  0  0  0  0  0  0
    3.5927   -2.3267    1.2965 C   0  0  0  0  0  0  0  0  0  0  0  0
    1.7047   -1.2715   -0.0354 H   0  0  0  0  0  0  0  0  0  0  0  0
    2.7189   -0.7491    2.4836 H   0  0  0  0  0  0  0  0  0  0  0  0
    4.0186   -2.4836    0.2988 H   0  0  0  0  0  0  0  0  0  0  0  0
    4.3588   -2.6000    2.0296 H   0  0  0  0  0  0  0  0  0  0  0  0
    2.7500   -3.0172    1.4105 H   0  0  0  0  0  0  0  0  0  0  0  0
    5.1315    0.1333    2.3952 N   0  0  0  0  0  0  0  0  0  0  0  0
    6.3099    0.9666    2.4486 C   0  0  0  0  0  0  0  0  0  0  0  0
    4.8901   -0.4000    3.2253 H   0  0  0  0  0  0  0  0  0  0  0  0
    7.1851    0.3865    2.1208 H   0  0  0  0  0  0  0  0  0  0  0  0
    6.1758    1.8340    1.7855 H   0  0  0  0  0  0  0  0  0  0  0  0
    6.4663    1.3146    3.4804 H   0  0  0  0  0  0  0  0  0  0  0  0
 22 24  2  0  0  0  0
 24 26  1  0  0  0  0
 23 25  2  0  0  0  0
 25 26  1  0  0  0  0
 21 22  1  0  0  0  0
 22 23  1  0  0  0  0
  1  3  1  0  0  0  0
  1  7  1  0  0  0  0
  1  2  2  0  0  0  0
 35 36  1  0  0  0  0
 36 44  1  0  0  0  0
 36 37  2  0  0  0  0
  8  9  1  0  0  0  0
  9 17  1  0  0  0  0
  9 10  2  0  0  0  0
 18 19  1  0  0  0  0
 19 34  1  0  0  0  0
 19 20  2  0  0  0  0
 35 38  1  0  0  0  0
  8 11  1  0  0  0  0
 44 45  1  0  0  0  0
 18 21  1  0  0  0  0
 34 35  1  0  0  0  0
  7  8  1  0  0  0  0
 17 18  1  0  0  0  0
 24 31  1  0  0  0  0
 25 32  1  0  0  0  0
  3  4  1  0  0  0  0
  3  5  1  0  0  0  0
  3  6  1  0  0  0  0
 38 41  1  0  0  0  0
 38 42  1  0  0  0  0
 38 43  1  0  0  0  0
 11 14  1  0  0  0  0
 11 15  1  0  0  0  0
 11 16  1  0  0  0  0
 45 47  1  0  0  0  0
 45 48  1  0  0  0  0
 45 49  1  0  0  0  0
 21 29  1  0  0  0  0
 21 30  1  0  0  0  0
 35 40  1  0  0  0  0
  8 13  1  0  0  0  0
 18 28  1  0  0  0  0
 26 33  1  0  0  0  0
 44 46  1  0  0  0  0
  7 12  1  0  0  0  0
 34 39  1  0  0  0  0
 17 27  1  0  0  0  0
M  END
$$$$

  -OEChem-05262214473D

 49 49  0     1  0  0  0  0  0999 V2000
   -1.6183    0.5613    3.8201 C   0  0  0  0  0  0  0  0  0  0  0  0
   -0.6710   -0.0534    3.3444 O   0  0  0  0  0  0  0  0  0  0  0  0
   -2.0502    0.2789    5.2208 C   0  0  0  0  0  0  0  0  0  0  0  0
   -2.8099   -0.5175    5.2742 H   0  0  0  0  0  0  0  0  0  0  0  0
   -1.2190   -0.0687    5.8551 H   0  0  0  0  0  0  0  0  0  0  0  0
   -2.4882    1.1338    5.7604 H   0  0  0  0  0  0  0  0  0  0  0  0
   -2.3680    1.5337    3.1790 N   0  0  0  0  0  0  0  0  0  0  0  0
   -2.1212    1.9597    1.8266 C   0  0  2  0  0  0  0  0  0  0  0  0
   -0.7862    1.3744    1.3854 C   0  0  0  0  0  0  0  0  0  0  0  0
    0.0859    1.0216    2.1767 O   0  0  0  0  0  0  0  0  0  0  0  0
   -2.1124    3.4765    1.7171 C   0  0  0  0  0  0  0  0  0  0  0  0
   -3.1331    1.9695    3.6908 H   0  0  0  0  0  0  0  0  0  0  0  0
   -2.9253    1.5413    1.2115 H   0  0  0  0  0  0  0  0  0  0  0  0
   -1.3133    3.9138    2.3268 H   0  0  0  0  0  0  0  0  0  0  0  0
   -1.9529    3.7988    0.6829 H   0  0  0  0  0  0  0  0  0  0  0  0
   -3.0626    3.8977    2.0629 H   0  0  0  0  0  0  0  0  0  0  0  0
   -0.6635    1.3313    0.0020 N   0  0  0  0  0  0  0  0  0  0  0  0
    0.5138    0.8305   -0.6617 C   0  0  2  0  0  0  0  0  0  0  0  0
    1.6229    0.7573    0.3817 C   0  0  0  0  0  0  0  0  0  0  0  0
    1.8233    1.6445    1.2085 O   0  0  0  0  0  0  0  0  0  0  0  0
    0.9418    1.7223   -1.8328 C   0  0  0  0  0  0  0  0  0  0  0  0
   -0.0846    1.7662   -2.9384 C   0  0  0  0  0  0  0  0  0  0  0  0
   -0.2395    0.7013   -3.7903 N   0  0  0  0  0  0  0  0  0  0  0  0
   -0.9553    2.7833   -3.2516 C   0  0  0  0  0  0  0  0  0  0  0  0
   -1.1963    1.0678   -4.6138 C   0  0  0  0  0  0  0  0  0  0  0  0
   -1.6604    2.3215   -4.3270 N   0  0  0  0  0  0  0  0  0  0  0  0
   -1.4467    1.6280   -0.5753 H   0  0  0  0  0  0  0  0  0  0  0  0
    0.2732   -0.1838   -1.0014 H   0  0  0  0  0  0  0  0  0  0  0  0
    1.9054    1.3835   -2.2366 H   0  0  0  0  0  0  0  0  0  0  0  0
    1.1194    2.7495   -1.4877 H   0  0  0  0  0  0  0  0  0  0  0  0
   -1.1335    3.7600   -2.8252 H   0  0  0  0  0  0  0  0  0  0  0  0
   -1.5949    0.4802   -5.4288 H   0  0  0  0  0  0  0  0  0  0  0  0
   -2.3921    2.8157   -4.8200 H   0  0  0  0  0  0  0  0  0  0  0  0
    2.3265   -0.4369    0.3092 N   0  0  0  0  0  0  0  0  0  0  0  0
    3.4149   -0.7720    1.1992 C   0  0  2  0  0  0  0  0  0  0  0  0
    4.3849    0.4019    1.2186 C   0  0  0  0  0  0  0  0  0  0  0  0
    4.4528    1.2311    0.3136 O   0  0  0  0  0  0  0  0  0  0  0  0
    4.1152   -2.0486    0.7606 C   0  0  0  0  0  0  0  0  0  0  0  0
    2.0633   -1.1092   -0.4053 H   0  0  0  0  0  0  0  0  0  0  0  0
    2.9795   -0.9033    2.1958 H   0  0  0  0  0  0  0  0  0  0  0  0
    4.5577   -1.9363   -0.2359 H   0  0  0  0  0  0  0  0  0  0  0  0
    4.9211   -2.3166    1.4517 H   0  0  0  0  0  0  0  0  0  0  0  0
    3.4097   -2.8854    0.7184 H   0  0  0  0  0  0  0  0  0  0  0  0
    5.1957    0.3904    2.3450 N   0  0  0  0  0  0  0  0  0  0  0  0
    6.2068    1.3926    2.5881 C   0  0  0  0  0  0  0  0  0  0  0  0
    5.0570   -0.3245    3.0531 H   0  0  0  0  0  0  0  0  0  0  0  0
    7.1699    1.0483    2.1833 H   0  0  0  0  0  0  0  0  0  0  0  0
    5.9172    2.3325    2.0954 H   0  0  0  0  0  0  0  0  0  0  0  0
    6.3034    1.5608    3.6708 H   0  0  0  0  0  0  0  0  0  0  0  0
 22 24  2  0  0  0  0
 24 26  1  0  0  0  0
 23 25  2  0  0  0  0
 25 26  1  0  0  0  0
 21 22  1  0  0  0  0
 22 23  1  0  0  0  0
  1  3  1  0  0  0  0
  1  7  1  0  0  0  0
  1  2  2  0  0  0  0
 35 36  1  0  0  0  0
 36 44  1  0  0  0  0
 36 37  2  0  0  0  0
  8  9  1  0  0  0  0
  9 17  1  0  0  0  0
  9 10  2  0  0  0  0
 18 19  1  0  0  0  0
 19 34  1  0  0  0  0
 19 20  2  0  0  0  0
 35 38  1  0  0  0  0
  8 11  1  0  0  0  0
 44 45  1  0  0  0  0
 18 21  1  0  0  0  0
 34 35  1  0  0  0  0
  7  8  1  0  0  0  0
 17 18  1  0  0  0  0
 24 31  1  0  0  0  0
 25 32  1  0  0  0  0
  3  4  1  0  0  0  0
  3  5  1  0  0  0  0
  3  6  1  0  0  0  0
 38 41  1  0  0  0  0
 38 42  1  0  0  0  0
 38 43  1  0  0  0  0
 11 14  1  0  0  0  0
 11 15  1  0  0  0  0
 11 16  1  0  0  0  0
 45 47  1  0  0  0  0
 45 48  1  0  0  0  0
 45 49  1  0  0  0  0
 21 29  1  0  0  0  0
 21 30  1  0  0  0  0
 35 40  1  0  0  0  0
  8 13  1  0  0  0  0
 18 28  1  0  0  0  0
 26 33  1  0  0  0  0
 44 46  1  0  0  0  0
  7 12  1  0  0  0  0
 34 39  1  0  0  0  0
 17 27  1  0  0  0  0
M  END
$$$$

  -OEChem-05262214473D

 49 49  0     1  0  0  0  0  0999 V2000
   -1.6183    0.5613    3.8201 C   0  0  0  0  0  0  0  0  0  0  0  0
   -0.6710   -0.0534    3.3444 O   0  0  0  0  0  0  0  0  0  0  0  0
   -2.0502    0.2789    5.2208 C   0  0  0  0  0  0  0  0  0  0  0  0
   -2.8099   -0.5175    5.2742 H   0  0  0  0  0  0  0  0  0  0  0  0
   -1.2190   -0.0687    5.8551 H   0  0  0  0  0  0  0  0  0  0  0  0
   -2.4882    1.1338    5.7604 H   0  0  0  0  0  0  0  0  0  0  0  0
   -2.3680    1.5337    3.1790 N   0  0  0  0  0  0  0  0  0  0  0  0
   -2.1212    1.9597    1.8266 C   0  0  2  0  0  0  0  0  0  0  0  0
   -0.7862    1.3744    1.3854 C   0  0  0  0  0  0  0  0  0  0  0  0
    0.0859    1.0216    2.1767 O   0  0  0  0  0  0  0  0  0  0  0  0
   -2.1124    3.4765    1.7171 C   0  0  0  0  0  0  0  0  0  0  0  0
   -3.1331    1.9695    3.6908 H   0  0  0  0  0  0  0  0  0  0  0  0
   -2.9253    1.5413    1.2115 H   0  0  0  0  0  0  0  0  0  0  0  0
   -1.3133    3.9138    2.3268 H   0  0  0  0  0  0  0  0  0  0  0  0
   -1.9529    3.7988    0.6829 H   0  0  0  0  0  0  0  0  0  0  0  0
   -3.0626    3.8977    2.0629 H   0  0  0  0  0  0  0  0  0  0  0  0
   -0.6635    1.3313    0.0020 N   0  0  0  0  0  0  0  0  0  0  0  0
    0.5138    0.8305   -0.6617 C   0  0  2  0  0  0  0  0  0  0  0  0
    1.6229    0.7573    0.3817 C   0  0  0  0  0  0  0  0  0  0  0  0
    1.6657    1.4930    1.3655 O   0  0  0  0  0  0  0  0  0  0  0  0
    0.9418    1.7223   -1.8328 C   0  0  0  0  0  0  0  0  0  0  0  0
   -0.0846    1.7662   -2.9384 C   0  0  0  0  0  0  0  0  0  0  0  0
   -0.2395    0.7013   -3.7903 N   0  0  0  0  0  0  0  0  0  0  0  0
   -0.9553    2.7833   -3.2516 C   0  0  0  0  0  0  0  0  0  0  0  0
   -1.1963    1.0678   -4.6138 C   0  0  0  0  0  0  0  0  0  0  0  0
   -1.6604    2.3215   -4.3270 N   0  0  0  0  0  0  0  0  0  0  0  0
   -1.4467    1.6280   -0.5753 H   0  0  0  0  0  0  0  0  0  0  0  0
    0.2732   -0.1838   -1.0014 H   0  0  0  0  0  0  0  0  0  0  0  0
    1.9054    1.3835   -2.2366 H   0  0  0  0  0  0  0  0  0  0  0  0
    1.1194    2.7495   -1.4877 H   0  0  0  0  0  0  0  0  0  0  0  0
   -1.1335    3.7600   -2.8252 H   0  0  0  0  0  0  0  0  0  0  0  0
   -1.5949    0.4802   -5.4288 H   0  0  0  0  0  0  0  0  0  0  0  0
   -2.3921    2.8157   -4.8200 H   0  0  0  0  0  0  0  0  0  0  0  0
    2.5279   -0.2588    0.1077 N   0  0  0  0  0  0  0  0  0  0  0  0
    3.6626   -0.5595    0.9507 C   0  0  2  0  0  0  0  0  0  0  0  0
    4.4078    0.7414    1.2181 C   0  0  0  0  0  0  0  0  0  0  0  0
    4.3227    1.7258    0.4866 O   0  0  0  0  0  0  0  0  0  0  0  0
    4.5773   -1.5865    0.3017 C   0  0  0  0  0  0  0  0  0  0  0  0
    2.3855   -0.8192   -0.7274 H   0  0  0  0  0  0  0  0  0  0  0  0
    3.2621   -0.9518    1.8919 H   0  0  0  0  0  0  0  0  0  0  0  0
    4.9882   -1.2113   -0.6427 H   0  0  0  0  0  0  0  0  0  0  0  0
    5.4212   -1.8345    0.9539 H   0  0  0  0  0  0  0  0  0  0  0  0
    4.0322   -2.5110    0.0830 H   0  0  0  0  0  0  0  0  0  0  0  0
    5.2128    0.6596    2.3457 N   0  0  0  0  0  0  0  0  0  0  0  0
    6.0301    1.7596    2.8017 C   0  0  0  0  0  0  0  0  0  0  0  0
    5.2070   -0.1895    2.9031 H   0  0  0  0  0  0  0  0  0  0  0  0
    7.0373    1.6731    2.3681 H   0  0  0  0  0  0  0  0  0  0  0  0
    5.5752    2.7099    2.4854 H   0  0  0  0  0  0  0  0  0  0  0  0
    6.1000    1.7339    3.8992 H   0  0  0  0  0  0  0  0  0  0  0  0
 22 24  2  0  0  0  0
 24 26  1  0  0  0  0
 23 25  2  0  0  0  0
 25 26  1  0  0  0  0
 21 22  1  0  0  0  0
 22 23  1  0  0  0  0
  1  3  1  0  0  0  0
  1  7  1  0  0  0  0
  1  2  2  0  0  0  0
 35 36  1  0  0  0  0
 36 44  1  0  0  0  0
 36 37  2  0  0  0  0
  8  9  1  0  0  0  0
  9 17  1  0  0  0  0
  9 10  2  0  0  0  0
 18 19  1  0  0  0  0
 19 34  1  0  0  0  0
 19 20  2  0  0  0  0
 35 38  1  0  0  0  0
  8 11  1  0  0  0  0
 44 45  1  0  0  0  0
 18 21  1  0  0  0  0
 34 35  1  0  0  0  0
  7  8  1  0  0  0  0
 17 18  1  0  0  0  0
 24 31  1  0  0  0  0
 25 32  1  0  0  0  0
  3  4  1  0  0  0  0
  3  5  1  0  0  0  0
  3  6  1  0  0  0  0
 38 41  1  0  0  0  0
 38 42  1  0  0  0  0
 38 43  1  0  0  0  0
 11 14  1  0  0  0  0
 11 15  1  0  0  0  0
 11 16  1  0  0  0  0
 45 47  1  0  0  0  0
 45 48  1  0  0  0  0
 45 49  1  0  0  0  0
 21 29  1  0  0  0  0
 21 30  1  0  0  0  0
 35 40  1  0  0  0  0
  8 13  1  0  0  0  0
 18 28  1  0  0  0  0
 26 33  1  0  0  0  0
 44 46  1  0  0  0  0
  7 12  1  0  0  0  0
 34 39  1  0  0  0  0
 17 27  1  0  0  0  0
M  END
$$$$

  -OEChem-05262214473D

 49 49  0     1  0  0  0  0  0999 V2000
   -1.6183    0.5613    3.8201 C   0  0  0  0  0  0  0  0  0  0  0  0
   -0.6710   -0.0534    3.3444 O   0  0  0  0  0  0  0  0  0  0  0  0
   -2.0502    0.2789    5.2208 C   0  0  0  0  0  0  0  0  0  0  0  0
   -2.8099   -0.5175    5.2742 H   0  0  0  0  0  0  0  0  0  0  0  0
   -1.2190   -0.0687    5.8551 H   0  0  0  0  0  0  0  0  0  0  0  0
   -2.4882    1.1338    5.7604 H   0  0  0  0  0  0  0  0  0  0  0  0
   -2.3680    1.5337    3.1790 N   0  0  0  0  0  0  0  0  0  0  0  0
   -2.1212    1.9597    1.8266 C   0  0  2  0  0  0  0  0  0  0  0  0
   -0.7862    1.3744    1.3854 C   0  0  0  0  0  0  0  0  0  0  0  0
    0.0859    1.0216    2.1767 O   0  0  0  0  0  0  0  0  0  0  0  0
   -2.1124    3.4765    1.7171 C   0  0  0  0  0  0  0  0  0  0  0  0
   -3.1331    1.9695    3.6908 H   0  0  0  0  0  0  0  0  0  0  0  0
   -2.9253    1.5413    1.2115 H   0  0  0  0  0  0  0  0  0  0  0  0
   -1.3133    3.9138    2.3268 H   0  0  0  0  0  0  0  0  0  0  0  0
   -1.9529    3.7988    0.6829 H   0  0  0  0  0  0  0  0  0  0  0  0
   -3.0626    3.8977    2.0629 H   0  0  0  0  0  0  0  0  0  0  0  0
   -0.6635    1.3313    0.0020 N   0  0  0  0  0  0  0  0  0  0  0  0
    0.5138    0.8305   -0.6617 C   0  0  2  0  0  0  0  0  0  0  0  0
    1.6229    0.7573    0.3817 C   0  0  0  0  0  0  0  0  0  0  0  0
    1.5383    1.2892    1.4866 O   0  0  0  0  0  0  0  0  0  0  0  0
    0.9418    1.7223   -1.8328 C   0  0  0  0  0  0  0  0  0  0  0  0
   -0.0846    1.7662   -2.9384 C   0  0  0  0  0  0  0  0  0  0  0  0
   -0.2395    0.7013   -3.7903 N   0  0  0  0  0  0  0  0  0  0  0  0
   -0.9553    2.7833   -3.2516 C   0  0  0  0  0  0  0  0  0  0  0  0
   -1.1963    1.0678   -4.6138 C   0  0  0  0  0  0  0  0  0  0  0  0
   -1.6604    2.3215   -4.3270 N   0  0  0  0  0  0  0  0  0  0  0  0
   -1.4467    1.6280   -0.5753 H   0  0  0  0  0  0  0  0  0  0  0  0
    0.2732   -0.1838   -1.0014 H   0  0  0  0  0  0  0  0  0  0  0  0
    1.9054    1.3835   -2.2366 H   0  0  0  0  0  0  0  0  0  0  0  0
    1.1194    2.7495   -1.4877 H   0  0  0  0  0  0  0  0  0  0  0  0
   -1.1335    3.7600   -2.8252 H   0  0  0  0  0  0  0  0  0  0  0  0
   -1.5949    0.4802   -5.4288 H   0  0  0  0  0  0  0  0  0  0  0  0
   -2.3921    2.8157   -4.8200 H   0  0  0  0  0  0  0  0  0  0  0  0
    2.6933   -0.0131   -0.0510 N   0  0  0  0  0  0  0  0  0  0  0  0
    3.8673   -0.2637    0.7538 C   0  0  2  0  0  0  0  0  0  0  0  0
    4.3698    1.0735    1.2818 C   0  0  0  0  0  0  0  0  0  0  0  0
    4.1072    2.1480    0.7453 O   0  0  0  0  0  0  0  0  0  0  0  0
    4.9475   -0.9719   -0.0488 C   0  0  0  0  0  0  0  0  0  0  0  0
    2.6493   -0.4213   -0.9800 H   0  0  0  0  0  0  0  0  0  0  0  0
    3.5475   -0.8913    1.5928 H   0  0  0  0  0  0  0  0  0  0  0  0
    5.2806   -0.3583   -0.8938 H   0  0  0  0  0  0  0  0  0  0  0  0
    5.8251   -1.1865    0.5699 H   0  0  0  0  0  0  0  0  0  0  0  0
    4.5750   -1.9194   -0.4526 H   0  0  0  0  0  0  0  0  0  0  0  0
    5.1816    0.9225    2.3973 N   0  0  0  0  0  0  0  0  0  0  0  0
    5.7917    2.0425    3.0750 C   0  0  0  0  0  0  0  0  0  0  0  0
    5.3299   -0.0043    2.7855 H   0  0  0  0  0  0  0  0  0  0  0  0
    6.7962    2.2183    2.6626 H   0  0  0  0  0  0  0  0  0  0  0  0
    5.1732    2.9404    2.9289 H   0  0  0  0  0  0  0  0  0  0  0  0
    5.8701    1.8222    4.1498 H   0  0  0  0  0  0  0  0  0  0  0  0
 22 24  2  0  0  0  0
 24 26  1  0  0  0  0
 23 25  2  0  0  0  0
 25 26  1  0  0  0  0
 21 22  1  0  0  0  0
 22 23  1  0  0  0  0
  1  3  1  0  0  0  0
  1  7  1  0  0  0  0
  1  2  2  0  0  0  0
 35 36  1  0  0  0  0
 36 44  1  0  0  0  0
 36 37  2  0  0  0  0
  8  9  1  0  0  0  0
  9 17  1  0  0  0  0
  9 10  2  0  0  0  0
 18 19  1  0  0  0  0
 19 34  1  0  0  0  0
 19 20  2  0  0  0  0
 35 38  1  0  0  0  0
  8 11  1  0  0  0  0
 44 45  1  0  0  0  0
 18 21  1  0  0  0  0
 34 35  1  0  0  0  0
  7  8  1  0  0  0  0
 17 18  1  0  0  0  0
 24 31  1  0  0  0  0
 25 32  1  0  0  0  0
  3  4  1  0  0  0  0
  3  5  1  0  0  0  0
  3  6  1  0  0  0  0
 38 41  1  0  0  0  0
 38 42  1  0  0  0  0
 38 43  1  0  0  0  0
 11 14  1  0  0  0  0
 11 15  1  0  0  0  0
 11 16  1  0  0  0  0
 45 47  1  0  0  0  0
 45 48  1  0  0  0  0
 45 49  1  0  0  0  0
 21 29  1  0  0  0  0
 21 30  1  0  0  0  0
 35 40  1  0  0  0  0
  8 13  1  0  0  0  0
 18 28  1  0  0  0  0
 26 33  1  0  0  0  0
 44 46  1  0  0  0  0
  7 12  1  0  0  0  0
 34 39  1  0  0  0  0
 17 27  1  0  0  0  0
M  END
$$$$

  -OEChem-05262214473D

 49 49  0     1  0  0  0  0  0999 V2000
   -1.6183    0.5613    3.8201 C   0  0  0  0  0  0  0  0  0  0  0  0
   -0.6710   -0.0534    3.3444 O   0  0  0  0  0  0  0  0  0  0  0  0
   -2.0502    0.2789    5.2208 C   0  0  0  0  0  0  0  0  0  0  0  0
   -2.8099   -0.5175    5.2742 H   0  0  0  0  0  0  0  0  0  0  0  0
   -1.2190   -0.0687    5.8551 H   0  0  0  0  0  0  0  0  0  0  0  0
   -2.4882    1.1338    5.7604 H   0  0  0  0  0  0  0  0  0  0  0  0
   -2.3680    1.5337    3.1790 N   0  0  0  0  0  0  0  0  0  0  0  0
   -2.1212    1.9597    1.8266 C   0  0  2  0  0  0  0  0  0  0  0  0
   -0.7862    1.3744    1.3854 C   0  0  0  0  0  0  0  0  0  0  0  0
    0.0859    1.0216    2.1767 O   0  0  0  0  0  0  0  0  0  0  0  0
   -2.1124    3.4765    1.7171 C   0  0  0  0  0  0  0  0  0  0  0  0
   -3.1331    1.9695    3.6908 H   0  0  0  0  0  0  0  0  0  0  0  0
   -2.9253    1.5413    1.2115 H   0  0  0  0  0  0  0  0  0  0  0  0
   -1.3133    3.9138    2.3268 H   0  0  0  0  0  0  0  0  0  0  0  0
   -1.9529    3.7988    0.6829 H   0  0  0  0  0  0  0  0  0  0  0  0
   -3.0626    3.8977    2.0629 H   0  0  0  0  0  0  0  0  0  0  0  0
   -0.6635    1.3313    0.0020 N   0  0  0  0  0  0  0  0  0  0  0  0
    0.5138    0.8305   -0.6617 C   0  0  2  0  0  0  0  0  0  0  0  0
    1.4951    0.4017    0.4234 C   0  0  0  0  0  0  0  0  0  0  0  0
    1.2343    0.4614    1.6231 O   0  0  0  0  0  0  0  0  0  0  0  0
    1.1549    1.8817   -1.5749 C   0  0  0  0  0  0  0  0  0  0  0  0
    0.2586    2.2842   -2.7205 C   0  0  0  0  0  0  0  0  0  0  0  0
    0.0764    1.4466   -3.7924 N   0  0  0  0  0  0  0  0  0  0  0  0
   -0.4587    3.4475   -2.8718 C   0  0  0  0  0  0  0  0  0  0  0  0
   -0.7448    2.0950   -4.5881 C   0  0  0  0  0  0  0  0  0  0  0  0
   -1.0959    3.3119   -4.0729 N   0  0  0  0  0  0  0  0  0  0  0  0
   -1.4467    1.6280   -0.5753 H   0  0  0  0  0  0  0  0  0  0  0  0
    0.1998   -0.0524   -1.2308 H   0  0  0  0  0  0  0  0  0  0  0  0
    2.1120    1.5120   -1.9671 H   0  0  0  0  0  0  0  0  0  0  0  0
    1.4076    2.7841   -1.0027 H   0  0  0  0  0  0  0  0  0  0  0  0
   -0.5717    4.3301   -2.2588 H   0  0  0  0  0  0  0  0  0  0  0  0
   -1.1195    1.7442   -5.5393 H   0  0  0  0  0  0  0  0  0  0  0  0
   -1.7145    3.9871   -4.5019 H   0  0  0  0  0  0  0  0  0  0  0  0
    2.6736   -0.1005   -0.1109 N   0  0  0  0  0  0  0  0  0  0  0  0
    3.7630   -0.5981    0.6980 C   0  0  2  0  0  0  0  0  0  0  0  0
    4.0782    0.4491    1.7580 C   0  0  0  0  0  0  0  0  0  0  0  0
    3.7848    1.6366    1.6358 O   0  0  0  0  0  0  0  0  0  0  0  0
    4.9890   -0.8995   -0.1498 C   0  0  0  0  0  0  0  0  0  0  0  0
    2.7756   -0.1192   -1.1214 H   0  0  0  0  0  0  0  0  0  0  0  0
    3.4047   -1.5129    1.1827 H   0  0  0  0  0  0  0  0  0  0  0  0
    5.3623    0.0052   -0.6434 H   0  0  0  0  0  0  0  0  0  0  0  0
    5.8037   -1.3033    0.4603 H   0  0  0  0  0  0  0  0  0  0  0  0
    4.7528   -1.6307   -0.9304 H   0  0  0  0  0  0  0  0  0  0  0  0
    4.7639   -0.0906    2.8372 N   0  0  0  0  0  0  0  0  0  0  0  0
    5.1875    0.7026    3.9674 C   0  0  0  0  0  0  0  0  0  0  0  0
    4.9483   -1.0891    2.8632 H   0  0  0  0  0  0  0  0  0  0  0  0
    6.2135    1.0620    3.7999 H   0  0  0  0  0  0  0  0  0  0  0  0
    4.5123    1.5631    4.0849 H   0  0  0  0  0  0  0  0  0  0  0  0
    5.1589    0.0870    4.8785 H   0  0  0  0  0  0  0  0  0  0  0  0
 22 24  2  0  0  0  0
 24 26  1  0  0  0  0
 23 25  2  0  0  0  0
 25 26  1  0  0  0  0
 21 22  1  0  0  0  0
 22 23  1  0  0  0  0
  1  3  1  0  0  0  0
  1  7  1  0  0  0  0
  1  2  2  0  0  0  0
 35 36  1  0  0  0  0
 36 44  1  0  0  0  0
 36 37  2  0  0  0  0
  8  9  1  0  0  0  0
  9 17  1  0  0  0  0
  9 10  2  0  0  0  0
 18 19  1  0  0  0  0
 19 34  1  0  0  0  0
 19 20  2  0  0  0  0
 35 38  1  0  0  0  0
  8 11  1  0  0  0  0
 44 45  1  0  0  0  0
 18 21  1  0  0  0  0
 34 35  1  0  0  0  0
  7  8  1  0  0  0  0
 17 18  1  0  0  0  0
 24 31  1  0  0  0  0
 25 32  1  0  0  0  0
  3  4  1  0  0  0  0
  3  5  1  0  0  0  0
  3  6  1  0  0  0  0
 38 41  1  0  0  0  0
 38 42  1  0  0  0  0
 38 43  1  0  0  0  0
 11 14  1  0  0  0  0
 11 15  1  0  0  0  0
 11 16  1  0  0  0  0
 45 47  1  0  0  0  0
 45 48  1  0  0  0  0
 45 49  1  0  0  0  0
 21 29  1  0  0  0  0
 21 30  1  0  0  0  0
 35 40  1  0  0  0  0
  8 13  1  0  0  0  0
 18 28  1  0  0  0  0
 26 33  1  0  0  0  0
 44 46  1  0  0  0  0
  7 12  1  0  0  0  0
 34 39  1  0  0  0  0
 17 27  1  0  0  0  0
M  END
$$$$

  -OEChem-05262214473D

 49 49  0     1  0  0  0  0  0999 V2000
   -1.6183    0.5613    3.8201 C   0  0  0  0  0  0  0  0  0  0  0  0
   -0.6710   -0.0534    3.3444 O   0  0  0  0  0  0  0  0  0  0  0  0
   -2.0502    0.2789    5.2208 C   0  0  0  0  0  0  0  0  0  0  0  0
   -2.8099   -0.5175    5.2742 H   0  0  0  0  0  0  0  0  0  0  0  0
   -1.2190   -0.0687    5.8551 H   0  0  0  0  0  0  0  0  0  0  0  0
   -2.4882    1.1338    5.7604 H   0  0  0  0  0  0  0  0  0  0  0  0
   -2.3680    1.5337    3.1790 N   0  0  0  0  0  0  0  0  0  0  0  0
   -2.1212    1.9597    1.8266 C   0  0  2  0  0  0  0  0  0  0  0  0
   -0.7862    1.3744    1.3854 C   0  0  0  0  0  0  0  0  0  0  0  0
    0.0859    1.0216    2.1767 O   0  0  0  0  0  0  0  0  0  0  0  0
   -2.1124    3.4765    1.7171 C   0  0  0  0  0  0  0  0  0  0  0  0
   -3.1331    1.9695    3.6908 H   0  0  0  0  0  0  0  0  0  0  0  0
   -2.9253    1.5413    1.2115 H   0  0  0  0  0  0  0  0  0  0  0  0
   -1.3133    3.9138    2.3268 H   0  0  0  0  0  0  0  0  0  0  0  0
   -1.9529    3.7988    0.6829 H   0  0  0  0  0  0  0  0  0  0  0  0
   -3.0626    3.8977    2.0629 H   0  0  0  0  0  0  0  0  0  0  0  0
   -0.6635    1.3313    0.0020 N   0  0  0  0  0  0  0  0  0  0  0  0
    0.5138    0.8305   -0.6617 C   0  0  2  0  0  0  0  0  0  0  0  0
    1.4951    0.4017    0.4234 C   0  0  0  0  0  0  0  0  0  0  0  0
    1.1595    0.2051    1.5894 O   0  0  0  0  0  0  0  0  0  0  0  0
    1.1549    1.8817   -1.5749 C   0  0  0  0  0  0  0  0  0  0  0  0
    0.2586    2.2842   -2.7205 C   0  0  0  0  0  0  0  0  0  0  0  0
    0.0764    1.4466   -3.7924 N   0  0  0  0  0  0  0  0  0  0  0  0
   -0.4587    3.4475   -2.8718 C   0  0  0  0  0  0  0  0  0  0  0  0
   -0.7448    2.0950   -4.5881 C   0  0  0  0  0  0  0  0  0  0  0  0
   -1.0959    3.3119   -4.0729 N   0  0  0  0  0  0  0  0  0  0  0  0
   -1.4467    1.6280   -0.5753 H   0  0  0  0  0  0  0  0  0  0  0  0
    0.1998   -0.0524   -1.2308 H   0  0  0  0  0  0  0  0  0  0  0  0
    2.1120    1.5120   -1.9671 H   0  0  0  0  0  0  0  0  0  0  0  0
    1.4076    2.7841   -1.0027 H   0  0  0  0  0  0  0  0  0  0  0  0
   -0.5717    4.3301   -2.2588 H   0  0  0  0  0  0  0  0  0  0  0  0
   -1.1195    1.7442   -5.5393 H   0  0  0  0  0  0  0  0  0  0  0  0
   -1.7145    3.9871   -4.5019 H   0  0  0  0  0  0  0  0  0  0  0  0
    2.7762    0.2178   -0.0780 N   0  0  0  0  0  0  0  0  0  0  0  0
    3.8923   -0.2106    0.7341 C   0  0  2  0  0  0  0  0  0  0  0  0
    3.9413    0.6760    1.9715 C   0  0  0  0  0  0  0  0  0  0  0  0
    3.4347    1.7952    2.0152 O   0  0  0  0  0  0  0  0  0  0  0  0
    5.1997   -0.1373   -0.0392 C   0  0  0  0  0  0  0  0  0  0  0  0
    2.9375    0.3930   -1.0655 H   0  0  0  0  0  0  0  0  0  0  0  0
    3.6877   -1.2445    1.0329 H   0  0  0  0  0  0  0  0  0  0  0  0
    5.4216    0.8911   -0.3470 H   0  0  0  0  0  0  0  0  0  0  0  0
    6.0402   -0.4891    0.5681 H   0  0  0  0  0  0  0  0  0  0  0  0
    5.1521   -0.7521   -0.9444 H   0  0  0  0  0  0  0  0  0  0  0  0
    4.6544    0.0882    3.0069 N   0  0  0  0  0  0  0  0  0  0  0  0
    4.8539    0.7359    4.2823 C   0  0  0  0  0  0  0  0  0  0  0  0
    5.0237   -0.8507    2.8892 H   0  0  0  0  0  0  0  0  0  0  0  0
    5.8006    1.2957    4.2657 H   0  0  0  0  0  0  0  0  0  0  0  0
    4.0217    1.4288    4.4756 H   0  0  0  0  0  0  0  0  0  0  0  0
    4.8909   -0.0235    5.0772 H   0  0  0  0  0  0  0  0  0  0  0  0
 22 24  2  0  0  0  0
 24 26  1  0  0  0  0
 23 25  2  0  0  0  0
 25 26  1  0  0  0  0
 21 22  1  0  0  0  0
 22 23  1  0  0  0  0
  1  3  1  0  0  0  0
  1  7  1  0  0  0  0
  1  2  2  0  0  0  0
 35 36  1  0  0  0  0
 36 44  1  0  0  0  0
 36 37  2  0  0  0  0
  8  9  1  0  0  0  0
  9 17  1  0  0  0  0
  9 10  2  0  0  0  0
 18 19  1  0  0  0  0
 19 34  1  0  0  0  0
 19 20  2  0  0  0  0
 35 38  1  0  0  0  0
  8 11  1  0  0  0  0
 44 45  1  0  0  0  0
 18 21  1  0  0  0  0
 34 35  1  0  0  0  0
  7  8  1  0  0  0  0
 17 18  1  0  0  0  0
 24 31  1  0  0  0  0
 25 32  1  0  0  0  0
  3  4  1  0  0  0  0
  3  5  1  0  0  0  0
  3  6  1  0  0  0  0
 38 41  1  0  0  0  0
 38 42  1  0  0  0  0
 38 43  1  0  0  0  0
 11 14  1  0  0  0  0
 11 15  1  0  0  0  0
 11 16  1  0  0  0  0
 45 47  1  0  0  0  0
 45 48  1  0  0  0  0
 45 49  1  0  0  0  0
 21 29  1  0  0  0  0
 21 30  1  0  0  0  0
 35 40  1  0  0  0  0
  8 13  1  0  0  0  0
 18 28  1  0  0  0  0
 26 33  1  0  0  0  0
 44 46  1  0  0  0  0
  7 12  1  0  0  0  0
 34 39  1  0  0  0  0
 17 27  1  0  0  0  0
M  END
$$$$

  -OEChem-05262214473D

 49 49  0     1  0  0  0  0  0999 V2000
   -1.6183    0.5613    3.8201 C   0  0  0  0  0  0  0  0  0  0  0  0
   -0.6710   -0.0534    3.3444 O   0  0  0  0  0  0  0  0  0  0  0  0
   -2.0502    0.2789    5.2208 C   0  0  0  0  0  0  0  0  0  0  0  0
   -2.8099   -0.5175    5.2742 H   0  0  0  0  0  0  0  0  0  0  0  0
   -1.2190   -0.0687    5.8551 H   0  0  0  0  0  0  0  0  0  0  0  0
   -2.4882    1.1338    5.7604 H   0  0  0  0  0  0  0  0  0  0  0  0
   -2.3680    1.5337    3.1790 N   0  0  0  0  0  0  0  0  0  0  0  0
   -2.1212    1.9597    1.8266 C   0  0  2  0  0  0  0  0  0  0  0  0
   -0.7862    1.3744    1.3854 C   0  0  0  0  0  0  0  0  0  0  0  0
    0.0859    1.0216    2.1767 O   0  0  0  0  0  0  0  0  0  0  0  0
   -2.1124    3.4765    1.7171 C   0  0  0  0  0  0  0  0  0  0  0  0
   -3.1331    1.9695    3.6908 H   0  0  0  0  0  0  0  0  0  0  0  0
   -2.9253    1.5413    1.2115 H   0  0  0  0  0  0  0  0  0  0  0  0
   -1.3133    3.9138    2.3268 H   0  0  0  0  0  0  0  0  0  0  0  0
   -1.9529    3.7988    0.6829 H   0  0  0  0  0  0  0  0  0  0  0  0
   -3.0626    3.8977    2.0629 H   0  0  0  0  0  0  0  0  0  0  0  0
   -0.6635    1.3313    0.0020 N   0  0  0  0  0  0  0  0  0  0  0  0
    0.5138    0.8305   -0.6617 C   0  0  2  0  0  0  0  0  0  0  0  0
    1.4951    0.4017    0.4234 C   0  0  0  0  0  0  0  0  0  0  0  0
    1.1370   -0.0507    1.5087 O   0  0  0  0  0  0  0  0  0  0  0  0
    1.1549    1.8817   -1.5749 C   0  0  0  0  0  0  0  0  0  0  0  0
    0.2586    2.2842   -2.7205 C   0  0  0  0  0  0  0  0  0  0  0  0
    0.0764    1.4466   -3.7924 N   0  0  0  0  0  0  0  0  0  0  0  0
   -0.4587    3.4475   -2.8718 C   0  0  0  0  0  0  0  0  0  0  0  0
   -0.7448    2.0950   -4.5881 C   0  0  0  0  0  0  0  0  0  0  0  0
   -1.0959    3.3119   -4.0729 N   0  0  0  0  0  0  0  0  0  0  0  0
   -1.4467    1.6280   -0.5753 H   0  0  0  0  0  0  0  0  0  0  0  0
    0.1998   -0.0524   -1.2308 H   0  0  0  0  0  0  0  0  0  0  0  0
    2.1120    1.5120   -1.9671 H   0  0  0  0  0  0  0  0  0  0  0  0
    1.4076    2.7841   -1.0027 H   0  0  0  0  0  0  0  0  0  0  0  0
   -0.5717    4.3301   -2.2588 H   0  0  0  0  0  0  0  0  0  0  0  0
   -1.1195    1.7442   -5.5393 H   0  0  0  0  0  0  0  0  0  0  0  0
   -1.7145    3.9871   -4.5019 H   0  0  0  0  0  0  0  0  0  0  0  0
    2.8144    0.5386    0.0143 N   0  0  0  0  0  0  0  0  0  0  0  0
    3.9433    0.1815    0.8430 C   0  0  2  0  0  0  0  0  0  0  0  0
    3.7517    0.8344    2.2055 C   0  0  0  0  0  0  0  0  0  0  0  0
    3.0397    1.8207    2.3825 O   0  0  0  0  0  0  0  0  0  0  0  0
    5.2549    0.6194    0.2100 C   0  0  0  0  0  0  0  0  0  0  0  0
    2.9955    0.9083   -0.9143 H   0  0  0  0  0  0  0  0  0  0  0  0
    3.9225   -0.9082    0.9534 H   0  0  0  0  0  0  0  0  0  0  0  0
    5.2941    1.7084    0.0913 H   0  0  0  0  0  0  0  0  0  0  0  0
    6.1108    0.3229    0.8251 H   0  0  0  0  0  0  0  0  0  0  0  0
    5.3770    0.1723   -0.7825 H   0  0  0  0  0  0  0  0  0  0  0  0
    4.5033    0.2124    3.1926 N   0  0  0  0  0  0  0  0  0  0  0  0
    4.5026    0.6541    4.5677 C   0  0  0  0  0  0  0  0  0  0  0  0
    5.0507   -0.6109    2.9596 H   0  0  0  0  0  0  0  0  0  0  0  0
    5.3248    1.3678    4.7245 H   0  0  0  0  0  0  0  0  0  0  0  0
    3.5440    1.1436    4.7949 H   0  0  0  0  0  0  0  0  0  0  0  0
    4.6380   -0.2127    5.2312 H   0  0  0  0  0  0  0  0  0  0  0  0
 22 24  2  0  0  0  0
 24 26  1  0  0  0  0
 23 25  2  0  0  0  0
 25 26  1  0  0  0  0
 21 22  1  0  0  0  0
 22 23  1  0  0  0  0
  1  3  1  0  0  0  0
  1  7  1  0  0  0  0
  1  2  2  0  0  0  0
 35 36  1  0  0  0  0
 36 44  1  0  0  0  0
 36 37  2  0  0  0  0
  8  9  1  0  0  0  0
  9 17  1  0  0  0  0
  9 10  2  0  0  0  0
 18 19  1  0  0  0  0
 19 34  1  0  0  0  0
 19 20  2  0  0  0  0
 35 38  1  0  0  0  0
  8 11  1  0  0  0  0
 44 45  1  0  0  0  0
 18 21  1  0  0  0  0
 34 35  1  0  0  0  0
  7  8  1  0  0  0  0
 17 18  1  0  0  0  0
 24 31  1  0  0  0  0
 25 32  1  0  0  0  0
  3  4  1  0  0  0  0
  3  5  1  0  0  0  0
  3  6  1  0  0  0  0
 38 41  1  0  0  0  0
 38 42  1  0  0  0  0
 38 43  1  0  0  0  0
 11 14  1  0  0  0  0
 11 15  1  0  0  0  0
 11 16  1  0  0  0  0
 45 47  1  0  0  0  0
 45 48  1  0  0  0  0
 45 49  1  0  0  0  0
 21 29  1  0  0  0  0
 21 30  1  0  0  0  0
 35 40  1  0  0  0  0
  8 13  1  0  0  0  0
 18 28  1  0  0  0  0
 26 33  1  0  0  0  0
 44 46  1  0  0  0  0
  7 12  1  0  0  0  0
 34 39  1  0  0  0  0
 17 27  1  0  0  0  0
M  END
$$$$

  -OEChem-05262214473D

 49 49  0     1  0  0  0  0  0999 V2000
   -1.6183    0.5613    3.8201 C   0  0  0  0  0  0  0  0  0  0  0  0
   -0.6710   -0.0534    3.3444 O   0  0  0  0  0  0  0  0  0  0  0  0
   -2.0502    0.2789    5.2208 C   0  0  0  0  0  0  0  0  0  0  0  0
   -2.8099   -0.5175    5.2742 H   0  0  0  0  0  0  0  0  0  0  0  0
   -1.2190   -0.0687    5.8551 H   0  0  0  0  0  0  0  0  0  0  0  0
   -2.4882    1.1338    5.7604 H   0  0  0  0  0  0  0  0  0  0  0  0
   -2.3680    1.5337    3.1790 N   0  0  0  0  0  0  0  0  0  0  0  0
   -2.1212    1.9597    1.8266 C   0  0  2  0  0  0  0  0  0  0  0  0
   -0.7862    1.3744    1.3854 C   0  0  0  0  0  0  0  0  0  0  0  0
    0.0859    1.0216    2.1767 O   0  0  0  0  0  0  0  0  0  0  0  0
   -2.1124    3.4765    1.7171 C   0  0  0  0  0  0  0  0  0  0  0  0
   -3.1331    1.9695    3.6908 H   0  0  0  0  0  0  0  0  0  0  0  0
   -2.9253    1.5413    1.2115 H   0  0  0  0  0  0  0  0  0  0  0  0
   -1.3133    3.9138    2.3268 H   0  0  0  0  0  0  0  0  0  0  0  0
   -1.9529    3.7988    0.6829 H   0  0  0  0  0  0  0  0  0  0  0  0
   -3.0626    3.8977    2.0629 H   0  0  0  0  0  0  0  0  0  0  0  0
   -0.6635    1.3313    0.0020 N   0  0  0  0  0  0  0  0  0  0  0  0
    0.5138    0.8305   -0.6617 C   0  0  2  0  0  0  0  0  0  0  0  0
    1.4951    0.4017    0.4234 C   0  0  0  0  0  0  0  0  0  0  0  0
    1.1682   -0.2885    1.3865 O   0  0  0  0  0  0  0  0  0  0  0  0
    1.1549    1.8817   -1.5749 C   0  0  0  0  0  0  0  0  0  0  0  0
    0.2586    2.2842   -2.7205 C   0  0  0  0  0  0  0  0  0  0  0  0
    0.0764    1.4466   -3.7924 N   0  0  0  0  0  0  0  0  0  0  0  0
   -0.4587    3.4475   -2.8718 C   0  0  0  0  0  0  0  0  0  0  0  0
   -0.7448    2.0950   -4.5881 C   0  0  0  0  0  0  0  0  0  0  0  0
   -1.0959    3.3119   -4.0729 N   0  0  0  0  0  0  0  0  0  0  0  0
   -1.4467    1.6280   -0.5753 H   0  0  0  0  0  0  0  0  0  0  0  0
    0.1998   -0.0524   -1.2308 H   0  0  0  0  0  0  0  0  0  0  0  0
    2.1120    1.5120   -1.9671 H   0  0  0  0  0  0  0  0  0  0  0  0
    1.4076    2.7841   -1.0027 H   0  0  0  0  0  0  0  0  0  0  0  0
   -0.5717    4.3301   -2.2588 H   0  0  0  0  0  0  0  0  0  0  0  0
   -1.1195    1.7442   -5.5393 H   0  0  0  0  0  0  0  0  0  0  0  0
   -1.7145    3.9871   -4.5019 H   0  0  0  0  0  0  0  0  0  0  0  0
    2.7854    0.8401    0.1596 N   0  0  0  0  0  0  0  0  0  0  0  0
    3.9124    0.5515    1.0171 C   0  0  2  0  0  0  0  0  0  0  0  0
    3.5224    0.9135    2.4441 C   0  0  0  0  0  0  0  0  0  0  0  0
    2.6267    1.7114    2.7129 O   0  0  0  0  0  0  0  0  0  0  0  0
    5.1506    1.3190    0.5807 C   0  0  0  0  0  0  0  0  0  0  0  0
    2.9456    1.3915   -0.6782 H   0  0  0  0  0  0  0  0  0  0  0  0
    4.0931   -0.5269    0.9497 H   0  0  0  0  0  0  0  0  0  0  0  0
    4.9886    2.4013    0.6415 H   0  0  0  0  0  0  0  0  0  0  0  0
    6.0108    1.0775    1.2138 H   0  0  0  0  0  0  0  0  0  0  0  0
    5.4122    1.0798   -0.4557 H   0  0  0  0  0  0  0  0  0  0  0  0
    4.3210    0.2737    3.3817 N   0  0  0  0  0  0  0  0  0  0  0  0
    4.1575    0.4629    4.8042 C   0  0  0  0  0  0  0  0  0  0  0  0
    5.0275   -0.3859    3.0694 H   0  0  0  0  0  0  0  0  0  0  0  0
    4.8185    1.2734    5.1451 H   0  0  0  0  0  0  0  0  0  0  0  0
    3.1120    0.7269    5.0211 H   0  0  0  0  0  0  0  0  0  0  0  0
    4.4174   -0.4677    5.3300 H   0  0  0  0  0  0  0  0  0  0  0  0
 22 24  2  0  0  0  0
 24 26  1  0  0  0  0
 23 25  2  0  0  0  0
 25 26  1  0  0  0  0
 21 22  1  0  0  0  0
 22 23  1  0  0  0  0
  1  3  1  0  0  0  0
  1  7  1  0  0  0  0
  1  2  2  0  0  0  0
 35 36  1  0  0  0  0
 36 44  1  0  0  0  0
 36 37  2  0  0  0  0
  8  9  1  0  0  0  0
  9 17  1  0  0  0  0
  9 10  2  0  0  0  0
 18 19  1  0  0  0  0
 19 34  1  0  0  0  0
 19 20  2  0  0  0  0
 35 38  1  0  0  0  0
  8 11  1  0  0  0  0
 44 45  1  0  0  0  0
 18 21  1  0  0  0  0
 34 35  1  0  0  0  0
  7  8  1  0  0  0  0
 17 18  1  0  0  0  0
 24 31  1  0  0  0  0
 25 32  1  0  0  0  0
  3  4  1  0  0  0  0
  3  5  1  0  0  0  0
  3  6  1  0  0  0  0
 38 41  1  0  0  0  0
 38 42  1  0  0  0  0
 38 43  1  0  0  0  0
 11 14  1  0  0  0  0
 11 15  1  0  0  0  0
 11 16  1  0  0  0  0
 45 47  1  0  0  0  0
 45 48  1  0  0  0  0
 45 49  1  0  0  0  0
 21 29  1  0  0  0  0
 21 30  1  0  0  0  0
 35 40  1  0  0  0  0
  8 13  1  0  0  0  0
 18 28  1  0  0  0  0
 26 33  1  0  0  0  0
 44 46  1  0  0  0  0
  7 12  1  0  0  0  0
 34 39  1  0  0  0  0
 17 27  1  0  0  0  0
M  END
$$$$

  -OEChem-05262214473D

 49 49  0     1  0  0  0  0  0999 V2000
   -1.6183    0.5613    3.8201 C   0  0  0  0  0  0  0  0  0  0  0  0
   -0.6710   -0.0534    3.3444 O   0  0  0  0  0  0  0  0  0  0  0  0
   -2.0502    0.2789    5.2208 C   0  0  0  0  0  0  0  0  0  0  0  0
   -2.8099   -0.5175    5.2742 H   0  0  0  0  0  0  0  0  0  0  0  0
   -1.2190   -0.0687    5.8551 H   0  0  0  0  0  0  0  0  0  0  0  0
   -2.4882    1.1338    5.7604 H   0  0  0  0  0  0  0  0  0  0  0  0
   -2.3680    1.5337    3.1790 N   0  0  0  0  0  0  0  0  0  0  0  0
   -2.1212    1.9597    1.8266 C   0  0  2  0  0  0  0  0  0  0  0  0
   -0.7862    1.3744    1.3854 C   0  0  0  0  0  0  0  0  0  0  0  0
    0.0859    1.0216    2.1767 O   0  0  0  0  0  0  0  0  0  0  0  0
   -2.1124    3.4765    1.7171 C   0  0  0  0  0  0  0  0  0  0  0  0
   -3.1331    1.9695    3.6908 H   0  0  0  0  0  0  0  0  0  0  0  0
   -2.9253    1.5413    1.2115 H   0  0  0  0  0  0  0  0  0  0  0  0
   -1.3133    3.9138    2.3268 H   0  0  0  0  0  0  0  0  0  0  0  0
   -1.9529    3.7988    0.6829 H   0  0  0  0  0  0  0  0  0  0  0  0
   -3.0626    3.8977    2.0629 H   0  0  0  0  0  0  0  0  0  0  0  0
   -0.6635    1.3313    0.0020 N   0  0  0  0  0  0  0  0  0  0  0  0
    0.5138    0.8305   -0.6617 C   0  0  2  0  0  0  0  0  0  0  0  0
    1.4951    0.4017    0.4234 C   0  0  0  0  0  0  0  0  0  0  0  0
    1.2511   -0.4921    1.2311 O   0  0  0  0  0  0  0  0  0  0  0  0
    1.1549    1.8817   -1.5749 C   0  0  0  0  0  0  0  0  0  0  0  0
    0.2586    2.2842   -2.7205 C   0  0  0  0  0  0  0  0  0  0  0  0
    0.0764    1.4466   -3.7924 N   0  0  0  0  0  0  0  0  0  0  0  0
   -0.4587    3.4475   -2.8718 C   0  0  0  0  0  0  0  0  0  0  0  0
   -0.7448    2.0950   -4.5881 C   0  0  0  0  0  0  0  0  0  0  0  0
   -1.0959    3.3119   -4.0729 N   0  0  0  0  0  0  0  0  0  0  0  0
   -1.4467    1.6280   -0.5753 H   0  0  0  0  0  0  0  0  0  0  0  0
    0.1998   -0.0524   -1.2308 H   0  0  0  0  0  0  0  0  0  0  0  0
    2.1120    1.5120   -1.9671 H   0  0  0  0  0  0  0  0  0  0  0  0
    1.4076    2.7841   -1.0027 H   0  0  0  0  0  0  0  0  0  0  0  0
   -0.5717    4.3301   -2.2588 H   0  0  0  0  0  0  0  0  0  0  0  0
   -1.1195    1.7442   -5.5393 H   0  0  0  0  0  0  0  0  0  0  0  0
   -1.7145    3.9871   -4.5019 H   0  0  0  0  0  0  0  0  0  0  0  0
    2.6913    1.1018    0.3482 N   0  0  0  0  0  0  0  0  0  0  0  0
    3.8017    0.8742    1.2448 C   0  0  2  0  0  0  0  0  0  0  0  0
    3.2690    0.9079    2.6712 C   0  0  0  0  0  0  0  0  0  0  0  0
    2.2239    1.4747    2.9837 O   0  0  0  0  0  0  0  0  0  0  0  0
    4.8941    1.9137    1.0477 C   0  0  0  0  0  0  0  0  0  0  0  0
    2.7912    1.8097   -0.3733 H   0  0  0  0  0  0  0  0  0  0  0  0
    4.1879   -0.1265    1.0222 H   0  0  0  0  0  0  0  0  0  0  0  0
    4.5257    2.9227    1.2662 H   0  0  0  0  0  0  0  0  0  0  0  0
    5.7468    1.7231    1.7077 H   0  0  0  0  0  0  0  0  0  0  0  0
    5.2552    1.9083    0.0136 H   0  0  0  0  0  0  0  0  0  0  0  0
    4.1199    0.2677    3.5613 N   0  0  0  0  0  0  0  0  0  0  0  0
    3.8423    0.1752    4.9757 C   0  0  0  0  0  0  0  0  0  0  0  0
    4.9557   -0.1912    3.2113 H   0  0  0  0  0  0  0  0  0  0  0  0
    4.3163    1.0188    5.4988 H   0  0  0  0  0  0  0  0  0  0  0  0
    2.7549    0.2072    5.1386 H   0  0  0  0  0  0  0  0  0  0  0  0
    4.2440   -0.7711    5.3669 H   0  0  0  0  0  0  0  0  0  0  0  0
 22 24  2  0  0  0  0
 24 26  1  0  0  0  0
 23 25  2  0  0  0  0
 25 26  1  0  0  0  0
 21 22  1  0  0  0  0
 22 23  1  0  0  0  0
  1  3  1  0  0  0  0
  1  7  1  0  0  0  0
  1  2  2  0  0  0  0
 35 36  1  0  0  0  0
 36 44  1  0  0  0  0
 36 37  2  0  0  0  0
  8  9  1  0  0  0  0
  9 17  1  0  0  0  0
  9 10  2  0  0  0  0
 18 19  1  0  0  0  0
 19 34  1  0  0  0  0
 19 20  2  0  0  0  0
 35 38  1  0  0  0  0
  8 11  1  0  0  0  0
 44 45  1  0  0  0  0
 18 21  1  0  0  0  0
 34 35  1  0  0  0  0
  7  8  1  0  0  0  0
 17 18  1  0  0  0  0
 24 31  1  0  0  0  0
 25 32  1  0  0  0  0
  3  4  1  0  0  0  0
  3  5  1  0  0  0  0
  3  6  1  0  0  0  0
 38 41  1  0  0  0  0
 38 42  1  0  0  0  0
 38 43  1  0  0  0  0
 11 14  1  0  0  0  0
 11 15  1  0  0  0  0
 11 16  1  0  0  0  0
 45 47  1  0  0  0  0
 45 48  1  0  0  0  0
 45 49  1  0  0  0  0
 21 29  1  0  0  0  0
 21 30  1  0  0  0  0
 35 40  1  0  0  0  0
  8 13  1  0  0  0  0
 18 28  1  0  0  0  0
 26 33  1  0  0  0  0
 44 46  1  0  0  0  0
  7 12  1  0  0  0  0
 34 39  1  0  0  0  0
 17 27  1  0  0  0  0
M  END
$$$$

  -OEChem-05262214473D

 49 49  0     1  0  0  0  0  0999 V2000
   -1.6183    0.5613    3.8201 C   0  0  0  0  0  0  0  0  0  0  0  0
   -0.6710   -0.0534    3.3444 O   0  0  0  0  0  0  0  0  0  0  0  0
   -2.0502    0.2789    5.2208 C   0  0  0  0  0  0  0  0  0  0  0  0
   -2.8099   -0.5175    5.2742 H   0  0  0  0  0  0  0  0  0  0  0  0
   -1.2190   -0.0687    5.8551 H   0  0  0  0  0  0  0  0  0  0  0  0
   -2.4882    1.1338    5.7604 H   0  0  0  0  0  0  0  0  0  0  0  0
   -2.3680    1.5337    3.1790 N   0  0  0  0  0  0  0  0  0  0  0  0
   -2.1212    1.9597    1.8266 C   0  0  2  0  0  0  0  0  0  0  0  0
   -0.7862    1.3744    1.3854 C   0  0  0  0  0  0  0  0  0  0  0  0
    0.0859    1.0216    2.1767 O   0  0  0  0  0  0  0  0  0  0  0  0
   -2.1124    3.4765    1.7171 C   0  0  0  0  0  0  0  0  0  0  0  0
   -3.1331    1.9695    3.6908 H   0  0  0  0  0  0  0  0  0  0  0  0
   -2.9253    1.5413    1.2115 H   0  0  0  0  0  0  0  0  0  0  0  0
   -1.3133    3.9138    2.3268 H   0  0  0  0  0  0  0  0  0  0  0  0
   -1.9529    3.7988    0.6829 H   0  0  0  0  0  0  0  0  0  0  0  0
   -3.0626    3.8977    2.0629 H   0  0  0  0  0  0  0  0  0  0  0  0
   -0.6635    1.3313    0.0020 N   0  0  0  0  0  0  0  0  0  0  0  0
    0.5138    0.8305   -0.6617 C   0  0  2  0  0  0  0  0  0  0  0  0
    1.4951    0.4017    0.4234 C   0  0  0  0  0  0  0  0  0  0  0  0
    1.3799   -0.6476    1.0531 O   0  0  0  0  0  0  0  0  0  0  0  0
    1.1549    1.8817   -1.5749 C   0  0  0  0  0  0  0  0  0  0  0  0
    0.2586    2.2842   -2.7205 C   0  0  0  0  0  0  0  0  0  0  0  0
    0.0764    1.4466   -3.7924 N   0  0  0  0  0  0  0  0  0  0  0  0
   -0.4587    3.4475   -2.8718 C   0  0  0  0  0  0  0  0  0  0  0  0
   -0.7448    2.0950   -4.5881 C   0  0  0  0  0  0  0  0  0  0  0  0
   -1.0959    3.3119   -4.0729 N   0  0  0  0  0  0  0  0  0  0  0  0
   -1.4467    1.6280   -0.5753 H   0  0  0  0  0  0  0  0  0  0  0  0
    0.1998   -0.0524   -1.2308 H   0  0  0  0  0  0  0  0  0  0  0  0
    2.1120    1.5120   -1.9671 H   0  0  0  0  0  0  0  0  0  0  0  0
    1.4076    2.7841   -1.0027 H   0  0  0  0  0  0  0  0  0  0  0  0
   -0.5717    4.3301   -2.2588 H   0  0  0  0  0  0  0  0  0  0  0  0
   -1.1195    1.7442   -5.5393 H   0  0  0  0  0  0  0  0  0  0  0  0
   -1.7145    3.9871   -4.5019 H   0  0  0  0  0  0  0  0  0  0  0  0
    2.5384    1.3058    0.5670 N   0  0  0  0  0  0  0  0  0  0  0  0
    3.6188    1.1275    1.5103 C   0  0  2  0  0  0  0  0  0  0  0  0
    3.0087    0.8180    2.8711 C   0  0  0  0  0  0  0  0  0  0  0  0
    1.8587    1.1267    3.1765 O   0  0  0  0  0  0  0  0  0  0  0  0
    4.5027    2.3631    1.5793 C   0  0  0  0  0  0  0  0  0  0  0  0
    2.5429    2.1345   -0.0204 H   0  0  0  0  0  0  0  0  0  0  0  0
    4.2005    0.2657    1.1657 H   0  0  0  0  0  0  0  0  0  0  0  0
    3.9371    3.2370    1.9227 H   0  0  0  0  0  0  0  0  0  0  0  0
    5.3370    2.2159    2.2731 H   0  0  0  0  0  0  0  0  0  0  0  0
    4.9168    2.6015    0.5937 H   0  0  0  0  0  0  0  0  0  0  0  0
    3.9136    0.1950    3.7191 N   0  0  0  0  0  0  0  0  0  0  0  0
    3.5783   -0.1893    5.0704 C   0  0  0  0  0  0  0  0  0  0  0  0
    4.8401   -0.0400    3.3756 H   0  0  0  0  0  0  0  0  0  0  0  0
    3.8523    0.6215    5.7615 H   0  0  0  0  0  0  0  0  0  0  0  0
    2.4972   -0.3802    5.1396 H   0  0  0  0  0  0  0  0  0  0  0  0
    4.1298   -1.1022    5.3394 H   0  0  0  0  0  0  0  0  0  0  0  0
 22 24  2  0  0  0  0
 24 26  1  0  0  0  0
 23 25  2  0  0  0  0
 25 26  1  0  0  0  0
 21 22  1  0  0  0  0
 22 23  1  0  0  0  0
  1  3  1  0  0  0  0
  1  7  1  0  0  0  0
  1  2  2  0  0  0  0
 35 36  1  0  0  0  0
 36 44  1  0  0  0  0
 36 37  2  0  0  0  0
  8  9  1  0  0  0  0
  9 17  1  0  0  0  0
  9 10  2  0  0  0  0
 18 19  1  0  0  0  0
 19 34  1  0  0  0  0
 19 20  2  0  0  0  0
 35 38  1  0  0  0  0
  8 11  1  0  0  0  0
 44 45  1  0  0  0  0
 18 21  1  0  0  0  0
 34 35  1  0  0  0  0
  7  8  1  0  0  0  0
 17 18  1  0  0  0  0
 24 31  1  0  0  0  0
 25 32  1  0  0  0  0
  3  4  1  0  0  0  0
  3  5  1  0  0  0  0
  3  6  1  0  0  0  0
 38 41  1  0  0  0  0
 38 42  1  0  0  0  0
 38 43  1  0  0  0  0
 11 14  1  0  0  0  0
 11 15  1  0  0  0  0
 11 16  1  0  0  0  0
 45 47  1  0  0  0  0
 45 48  1  0  0  0  0
 45 49  1  0  0  0  0
 21 29  1  0  0  0  0
 21 30  1  0  0  0  0
 35 40  1  0  0  0  0
  8 13  1  0  0  0  0
 18 28  1  0  0  0  0
 26 33  1  0  0  0  0
 44 46  1  0  0  0  0
  7 12  1  0  0  0  0
 34 39  1  0  0  0  0
 17 27  1  0  0  0  0
M  END
$$$$

  -OEChem-05262214473D

 49 49  0     1  0  0  0  0  0999 V2000
   -1.6183    0.5613    3.8201 C   0  0  0  0  0  0  0  0  0  0  0  0
   -0.6710   -0.0534    3.3444 O   0  0  0  0  0  0  0  0  0  0  0  0
   -2.0502    0.2789    5.2208 C   0  0  0  0  0  0  0  0  0  0  0  0
   -2.8099   -0.5175    5.2742 H   0  0  0  0  0  0  0  0  0  0  0  0
   -1.2190   -0.0687    5.8551 H   0  0  0  0  0  0  0  0  0  0  0  0
   -2.4882    1.1338    5.7604 H   0  0  0  0  0  0  0  0  0  0  0  0
   -2.3680    1.5337    3.1790 N   0  0  0  0  0  0  0  0  0  0  0  0
   -2.1212    1.9597    1.8266 C   0  0  2  0  0  0  0  0  0  0  0  0
   -0.7862    1.3744    1.3854 C   0  0  0  0  0  0  0  0  0  0  0  0
    0.0859    1.0216    2.1767 O   0  0  0  0  0  0  0  0  0  0  0  0
   -2.1124    3.4765    1.7171 C   0  0  0  0  0  0  0  0  0  0  0  0
   -3.1331    1.9695    3.6908 H   0  0  0  0  0  0  0  0  0  0  0  0
   -2.9253    1.5413    1.2115 H   0  0  0  0  0  0  0  0  0  0  0  0
   -1.3133    3.9138    2.3268 H   0  0  0  0  0  0  0  0  0  0  0  0
   -1.9529    3.7988    0.6829 H   0  0  0  0  0  0  0  0  0  0  0  0
   -3.0626    3.8977    2.0629 H   0  0  0  0  0  0  0  0  0  0  0  0
   -0.6635    1.3313    0.0020 N   0  0  0  0  0  0  0  0  0  0  0  0
    0.5138    0.8305   -0.6617 C   0  0  2  0  0  0  0  0  0  0  0  0
    1.4951    0.4017    0.4234 C   0  0  0  0  0  0  0  0  0  0  0  0
    1.5460   -0.7444    0.8647 O   0  0  0  0  0  0  0  0  0  0  0  0
    1.1549    1.8817   -1.5749 C   0  0  0  0  0  0  0  0  0  0  0  0
    0.2586    2.2842   -2.7205 C   0  0  0  0  0  0  0  0  0  0  0  0
    0.0764    1.4466   -3.7924 N   0  0  0  0  0  0  0  0  0  0  0  0
   -0.4587    3.4475   -2.8718 C   0  0  0  0  0  0  0  0  0  0  0  0
   -0.7448    2.0950   -4.5881 C   0  0  0  0  0  0  0  0  0  0  0  0
   -1.0959    3.3119   -4.0729 N   0  0  0  0  0  0  0  0  0  0  0  0
   -1.4467    1.6280   -0.5753 H   0  0  0  0  0  0  0  0  0  0  0  0
    0.1998   -0.0524   -1.2308 H   0  0  0  0  0  0  0  0  0  0  0  0
    2.1120    1.5120   -1.9671 H   0  0  0  0  0  0  0  0  0  0  0  0
    1.4076    2.7841   -1.0027 H   0  0  0  0  0  0  0  0  0  0  0  0
   -0.5717    4.3301   -2.2588 H   0  0  0  0  0  0  0  0  0  0  0  0
   -1.1195    1.7442   -5.5393 H   0  0  0  0  0  0  0  0  0  0  0  0
   -1.7145    3.9871   -4.5019 H   0  0  0  0  0  0  0  0  0  0  0  0
    2.3373    1.4383    0.8013 N   0  0  0  0  0  0  0  0  0  0  0  0
    3.3761    1.2943    1.7958 C   0  0  2  0  0  0  0  0  0  0  0  0
    2.7593    0.6499    3.0302 C   0  0  0  0  0  0  0  0  0  0  0  0
    1.5560    0.6913    3.2782 O   0  0  0  0  0  0  0  0  0  0  0  0
    4.0032    2.6365    2.1391 C   0  0  0  0  0  0  0  0  0  0  0  0
    2.2175    2.3436    0.3566 H   0  0  0  0  0  0  0  0  0  0  0  0
    4.1300    0.6228    1.3707 H   0  0  0  0  0  0  0  0  0  0  0  0
    3.2629    3.3227    2.5664 H   0  0  0  0  0  0  0  0  0  0  0  0
    4.8092    2.5221    2.8714 H   0  0  0  0  0  0  0  0  0  0  0  0
    4.4200    3.1122    1.2448 H   0  0  0  0  0  0  0  0  0  0  0  0
    3.7162    0.0605    3.8445 N   0  0  0  0  0  0  0  0  0  0  0  0
    3.3835   -0.6058    5.0820 C   0  0  0  0  0  0  0  0  0  0  0  0
    4.6887    0.0574    3.5511 H   0  0  0  0  0  0  0  0  0  0  0  0
    3.4582    0.1085    5.9152 H   0  0  0  0  0  0  0  0  0  0  0  0
    2.3564   -0.9952    5.0240 H   0  0  0  0  0  0  0  0  0  0  0  0
    4.0824   -1.4386    5.2493 H   0  0  0  0  0  0  0  0  0  0  0  0
 22 24  2  0  0  0  0
 24 26  1  0  0  0  0
 23 25  2  0  0  0  0
 25 26  1  0  0  0  0
 21 22  1  0  0  0  0
 22 23  1  0  0  0  0
  1  3  1  0  0  0  0
  1  7  1  0  0  0  0
  1  2  2  0  0  0  0
 35 36  1  0  0  0  0
 36 44  1  0  0  0  0
 36 37  2  0  0  0  0
  8  9  1  0  0  0  0
  9 17  1  0  0  0  0
  9 10  2  0  0  0  0
 18 19  1  0  0  0  0
 19 34  1  0  0  0  0
 19 20  2  0  0  0  0
 35 38  1  0  0  0  0
  8 11  1  0  0  0  0
 44 45  1  0  0  0  0
 18 21  1  0  0  0  0
 34 35  1  0  0  0  0
  7  8  1  0  0  0  0
 17 18  1  0  0  0  0
 24 31  1  0  0  0  0
 25 32  1  0  0  0  0
  3  4  1  0  0  0  0
  3  5  1  0  0  0  0
  3  6  1  0  0  0  0
 38 41  1  0  0  0  0
 38 42  1  0  0  0  0
 38 43  1  0  0  0  0
 11 14  1  0  0  0  0
 11 15  1  0  0  0  0
 11 16  1  0  0  0  0
 45 47  1  0  0  0  0
 45 48  1  0  0  0  0
 45 49  1  0  0  0  0
 21 29  1  0  0  0  0
 21 30  1  0  0  0  0
 35 40  1  0  0  0  0
  8 13  1  0  0  0  0
 18 28  1  0  0  0  0
 26 33  1  0  0  0  0
 44 46  1  0  0  0  0
  7 12  1  0  0  0  0
 34 39  1  0  0  0  0
 17 27  1  0  0  0  0
M  END
$$$$

  -OEChem-05262214473D

 49 49  0     1  0  0  0  0  0999 V2000
   -1.6183    0.5613    3.8201 C   0  0  0  0  0  0  0  0  0  0  0  0
   -0.6710   -0.0534    3.3444 O   0  0  0  0  0  0  0  0  0  0  0  0
   -2.0502    0.2789    5.2208 C   0  0  0  0  0  0  0  0  0  0  0  0
   -2.8099   -0.5175    5.2742 H   0  0  0  0  0  0  0  0  0  0  0  0
   -1.2190   -0.0687    5.8551 H   0  0  0  0  0  0  0  0  0  0  0  0
   -2.4882    1.1338    5.7604 H   0  0  0  0  0  0  0  0  0  0  0  0
   -2.3680    1.5337    3.1790 N   0  0  0  0  0  0  0  0  0  0  0  0
   -2.1212    1.9597    1.8266 C   0  0  2  0  0  0  0  0  0  0  0  0
   -0.7862    1.3744    1.3854 C   0  0  0  0  0  0  0  0  0  0  0  0
    0.0859    1.0216    2.1767 O   0  0  0  0  0  0  0  0  0  0  0  0
   -2.1124    3.4765    1.7171 C   0  0  0  0  0  0  0  0  0  0  0  0
   -3.1331    1.9695    3.6908 H   0  0  0  0  0  0  0  0  0  0  0  0
   -2.9253    1.5413    1.2115 H   0  0  0  0  0  0  0  0  0  0  0  0
   -1.3133    3.9138    2.3268 H   0  0  0  0  0  0  0  0  0  0  0  0
   -1.9529    3.7988    0.6829 H   0  0  0  0  0  0  0  0  0  0  0  0
   -3.0626    3.8977    2.0629 H   0  0  0  0  0  0  0  0  0  0  0  0
   -0.6635    1.3313    0.0020 N   0  0  0  0  0  0  0  0  0  0  0  0
    0.5138    0.8305   -0.6617 C   0  0  2  0  0  0  0  0  0  0  0  0
    1.4951    0.4017    0.4234 C   0  0  0  0  0  0  0  0  0  0  0  0
    1.7379   -0.7759    0.6786 O   0  0  0  0  0  0  0  0  0  0  0  0
    1.1549    1.8817   -1.5749 C   0  0  0  0  0  0  0  0  0  0  0  0
    0.2586    2.2842   -2.7205 C   0  0  0  0  0  0  0  0  0  0  0  0
    0.0764    1.4466   -3.7924 N   0  0  0  0  0  0  0  0  0  0  0  0
   -0.4587    3.4475   -2.8718 C   0  0  0  0  0  0  0  0  0  0  0  0
   -0.7448    2.0950   -4.5881 C   0  0  0  0  0  0  0  0  0  0  0  0
   -1.0959    3.3119   -4.0729 N   0  0  0  0  0  0  0  0  0  0  0  0
   -1.4467    1.6280   -0.5753 H   0  0  0  0  0  0  0  0  0  0  0  0
    0.1998   -0.0524   -1.2308 H   0  0  0  0  0  0  0  0  0  0  0  0
    2.1120    1.5120   -1.9671 H   0  0  0  0  0  0  0  0  0  0  0  0
    1.4076    2.7841   -1.0027 H   0  0  0  0  0  0  0  0  0  0  0  0
   -0.5717    4.3301   -2.2588 H   0  0  0  0  0  0  0  0  0  0  0  0
   -1.1195    1.7442   -5.5393 H   0  0  0  0  0  0  0  0  0  0  0  0
   -1.7145    3.9871   -4.5019 H   0  0  0  0  0  0  0  0  0  0  0  0
    2.1015    1.4901    1.0350 N   0  0  0  0  0  0  0  0  0  0  0  0
    3.0901    1.3632    2.0816 C   0  0  2  0  0  0  0  0  0  0  0  0
    2.5378    0.4151    3.1378 C   0  0  0  0  0  0  0  0  0  0  0  0
    1.3365    0.1979    3.2818 O   0  0  0  0  0  0  0  0  0  0  0  0
    3.4296    2.7154    2.6891 C   0  0  0  0  0  0  0  0  0  0  0  0
    1.8372    2.4228    0.7318 H   0  0  0  0  0  0  0  0  0  0  0  0
    3.9812    0.9207    1.6230 H   0  0  0  0  0  0  0  0  0  0  0  0
    2.5490    3.1742    3.1534 H   0  0  0  0  0  0  0  0  0  0  0  0
    4.1994    2.6211    3.4621 H   0  0  0  0  0  0  0  0  0  0  0  0
    3.7987    3.4054    1.9226 H   0  0  0  0  0  0  0  0  0  0  0  0
    3.5412   -0.1267    3.9288 N   0  0  0  0  0  0  0  0  0  0  0  0
    3.2713   -1.0459    5.0096 C   0  0  0  0  0  0  0  0  0  0  0  0
    4.5117    0.0943    3.7258 H   0  0  0  0  0  0  0  0  0  0  0  0
    3.1609   -0.4853    5.9495 H   0  0  0  0  0  0  0  0  0  0  0  0
    2.3421   -1.5959    4.7995 H   0  0  0  0  0  0  0  0  0  0  0  0
    4.1052   -1.7571    5.1028 H   0  0  0  0  0  0  0  0  0  0  0  0
 22 24  2  0  0  0  0
 24 26  1  0  0  0  0
 23 25  2  0  0  0  0
 25 26  1  0  0  0  0
 21 22  1  0  0  0  0
 22 23  1  0  0  0  0
  1  3  1  0  0  0  0
  1  7  1  0  0  0  0
  1  2  2  0  0  0  0
 35 36  1  0  0  0  0
 36 44  1  0  0  0  0
 36 37  2  0  0  0  0
  8  9  1  0  0  0  0
  9 17  1  0  0  0  0
  9 10  2  0  0  0  0
 18 19  1  0  0  0  0
 19 34  1  0  0  0  0
 19 20  2  0  0  0  0
 35 38  1  0  0  0  0
  8 11  1  0  0  0  0
 44 45  1  0  0  0  0
 18 21  1  0  0  0  0
 34 35  1  0  0  0  0
  7  8  1  0  0  0  0
 17 18  1  0  0  0  0
 24 31  1  0  0  0  0
 25 32  1  0  0  0  0
  3  4  1  0  0  0  0
  3  5  1  0  0  0  0
  3  6  1  0  0  0  0
 38 41  1  0  0  0  0
 38 42  1  0  0  0  0
 38 43  1  0  0  0  0
 11 14  1  0  0  0  0
 11 15  1  0  0  0  0
 11 16  1  0  0  0  0
 45 47  1  0  0  0  0
 45 48  1  0  0  0  0
 45 49  1  0  0  0  0
 21 29  1  0  0  0  0
 21 30  1  0  0  0  0
 35 40  1  0  0  0  0
  8 13  1  0  0  0  0
 18 28  1  0  0  0  0
 26 33  1  0  0  0  0
 44 46  1  0  0  0  0
  7 12  1  0  0  0  0
 34 39  1  0  0  0  0
 17 27  1  0  0  0  0
M  END
$$$$

  -OEChem-05262214473D

 49 49  0     1  0  0  0  0  0999 V2000
   -1.6183    0.5613    3.8201 C   0  0  0  0  0  0  0  0  0  0  0  0
   -0.6710   -0.0534    3.3444 O   0  0  0  0  0  0  0  0  0  0  0  0
   -2.0502    0.2789    5.2208 C   0  0  0  0  0  0  0  0  0  0  0  0
   -2.8099   -0.5175    5.2742 H   0  0  0  0  0  0  0  0  0  0  0  0
   -1.2190   -0.0687    5.8551 H   0  0  0  0  0  0  0  0  0  0  0  0
   -2.4882    1.1338    5.7604 H   0  0  0  0  0  0  0  0  0  0  0  0
   -2.3680    1.5337    3.1790 N   0  0  0  0  0  0  0  0  0  0  0  0
   -2.1212    1.9597    1.8266 C   0  0  2  0  0  0  0  0  0  0  0  0
   -0.7862    1.3744    1.3854 C   0  0  0  0  0  0  0  0  0  0  0  0
    0.0859    1.0216    2.1767 O   0  0  0  0  0  0  0  0  0  0  0  0
   -2.1124    3.4765    1.7171 C   0  0  0  0  0  0  0  0  0  0  0  0
   -3.1331    1.9695    3.6908 H   0  0  0  0  0  0  0  0  0  0  0  0
   -2.9253    1.5413    1.2115 H   0  0  0  0  0  0  0  0  0  0  0  0
   -1.3133    3.9138    2.3268 H   0  0  0  0  0  0  0  0  0  0  0  0
   -1.9529    3.7988    0.6829 H   0  0  0  0  0  0  0  0  0  0  0  0
   -3.0626    3.8977    2.0629 H   0  0  0  0  0  0  0  0  0  0  0  0
   -0.6635    1.3313    0.0020 N   0  0  0  0  0  0  0  0  0  0  0  0
    0.5138    0.8305   -0.6617 C   0  0  2  0  0  0  0  0  0  0  0  0
    1.4951    0.4017    0.4234 C   0  0  0  0  0  0  0  0  0  0  0  0
    1.9427   -0.7400    0.5076 O   0  0  0  0  0  0  0  0  0  0  0  0
    1.1549    1.8817   -1.5749 C   0  0  0  0  0  0  0  0  0  0  0  0
    0.2586    2.2842   -2.7205 C   0  0  0  0  0  0  0  0  0  0  0  0
    0.0764    1.4466   -3.7924 N   0  0  0  0  0  0  0  0  0  0  0  0
   -0.4587    3.4475   -2.8718 C   0  0  0  0  0  0  0  0  0  0  0  0
   -0.7448    2.0950   -4.5881 C   0  0  0  0  0  0  0  0  0  0  0  0
   -1.0959    3.3119   -4.0729 N   0  0  0  0  0  0  0  0  0  0  0  0
   -1.4467    1.6280   -0.5753 H   0  0  0  0  0  0  0  0  0  0  0  0
    0.1998   -0.0524   -1.2308 H   0  0  0  0  0  0  0  0  0  0  0  0
    2.1120    1.5120   -1.9671 H   0  0  0  0  0  0  0  0  0  0  0  0
    1.4076    2.7841   -1.0027 H   0  0  0  0  0  0  0  0  0  0  0  0
   -0.5717    4.3301   -2.2588 H   0  0  0  0  0  0  0  0  0  0  0  0
   -1.1195    1.7442   -5.5393 H   0  0  0  0  0  0  0  0  0  0  0  0
   -1.7145    3.9871   -4.5019 H   0  0  0  0  0  0  0  0  0  0  0  0
    1.8473    1.4579    1.2523 N   0  0  0  0  0  0  0  0  0  0  0  0
    2.7805    1.3294    2.3483 C   0  0  2  0  0  0  0  0  0  0  0  0
    2.3592    0.1296    3.1865 C   0  0  0  0  0  0  0  0  0  0  0  0
    1.2150   -0.3197    3.1872 O   0  0  0  0  0  0  0  0  0  0  0  0
    2.8210    2.5942    3.1917 C   0  0  0  0  0  0  0  0  0  0  0  0
    1.4280    2.3668    1.0798 H   0  0  0  0  0  0  0  0  0  0  0  0
    3.7642    1.1390    1.9055 H   0  0  0  0  0  0  0  0  0  0  0  0
    1.8441    2.8013    3.6436 H   0  0  0  0  0  0  0  0  0  0  0  0
    3.5492    2.5059    4.0046 H   0  0  0  0  0  0  0  0  0  0  0  0
    3.0952    3.4612    2.5810 H   0  0  0  0  0  0  0  0  0  0  0  0
    3.4006   -0.3538    3.9663 N   0  0  0  0  0  0  0  0  0  0  0  0
    3.2492   -1.4797    4.8582 C   0  0  0  0  0  0  0  0  0  0  0  0
    4.3212    0.0682    3.8878 H   0  0  0  0  0  0  0  0  0  0  0  0
    2.9805   -1.1193    5.8621 H   0  0  0  0  0  0  0  0  0  0  0  0
    2.4552   -2.1414    4.4816 H   0  0  0  0  0  0  0  0  0  0  0  0
    4.1966   -2.0363    4.9099 H   0  0  0  0  0  0  0  0  0  0  0  0
 22 24  2  0  0  0  0
 24 26  1  0  0  0  0
 23 25  2  0  0  0  0
 25 26  1  0  0  0  0
 21 22  1  0  0  0  0
 22 23  1  0  0  0  0
  1  3  1  0  0  0  0
  1  7  1  0  0  0  0
  1  2  2  0  0  0  0
 35 36  1  0  0  0  0
 36 44  1  0  0  0  0
 36 37  2  0  0  0  0
  8  9  1  0  0  0  0
  9 17  1  0  0  0  0
  9 10  2  0  0  0  0
 18 19  1  0  0  0  0
 19 34  1  0  0  0  0
 19 20  2  0  0  0  0
 35 38  1  0  0  0  0
  8 11  1  0  0  0  0
 44 45  1  0  0  0  0
 18 21  1  0  0  0  0
 34 35  1  0  0  0  0
  7  8  1  0  0  0  0
 17 18  1  0  0  0  0
 24 31  1  0  0  0  0
 25 32  1  0  0  0  0
  3  4  1  0  0  0  0
  3  5  1  0  0  0  0
  3  6  1  0  0  0  0
 38 41  1  0  0  0  0
 38 42  1  0  0  0  0
 38 43  1  0  0  0  0
 11 14  1  0  0  0  0
 11 15  1  0  0  0  0
 11 16  1  0  0  0  0
 45 47  1  0  0  0  0
 45 48  1  0  0  0  0
 45 49  1  0  0  0  0
 21 29  1  0  0  0  0
 21 30  1  0  0  0  0
 35 40  1  0  0  0  0
  8 13  1  0  0  0  0
 18 28  1  0  0  0  0
 26 33  1  0  0  0  0
 44 46  1  0  0  0  0
  7 12  1  0  0  0  0
 34 39  1  0  0  0  0
 17 27  1  0  0  0  0
M  END
$$$$

  -OEChem-05262214473D

 49 49  0     1  0  0  0  0  0999 V2000
   -1.6183    0.5613    3.8201 C   0  0  0  0  0  0  0  0  0  0  0  0
   -0.6710   -0.0534    3.3444 O   0  0  0  0  0  0  0  0  0  0  0  0
   -2.0502    0.2789    5.2208 C   0  0  0  0  0  0  0  0  0  0  0  0
   -2.8099   -0.5175    5.2742 H   0  0  0  0  0  0  0  0  0  0  0  0
   -1.2190   -0.0687    5.8551 H   0  0  0  0  0  0  0  0  0  0  0  0
   -2.4882    1.1338    5.7604 H   0  0  0  0  0  0  0  0  0  0  0  0
   -2.3680    1.5337    3.1790 N   0  0  0  0  0  0  0  0  0  0  0  0
   -2.1212    1.9597    1.8266 C   0  0  2  0  0  0  0  0  0  0  0  0
   -0.7862    1.3744    1.3854 C   0  0  0  0  0  0  0  0  0  0  0  0
    0.0859    1.0216    2.1767 O   0  0  0  0  0  0  0  0  0  0  0  0
   -2.1124    3.4765    1.7171 C   0  0  0  0  0  0  0  0  0  0  0  0
   -3.1331    1.9695    3.6908 H   0  0  0  0  0  0  0  0  0  0  0  0
   -2.9253    1.5413    1.2115 H   0  0  0  0  0  0  0  0  0  0  0  0
   -1.3133    3.9138    2.3268 H   0  0  0  0  0  0  0  0  0  0  0  0
   -1.9529    3.7988    0.6829 H   0  0  0  0  0  0  0  0  0  0  0  0
   -3.0626    3.8977    2.0629 H   0  0  0  0  0  0  0  0  0  0  0  0
   -0.6635    1.3313    0.0020 N   0  0  0  0  0  0  0  0  0  0  0  0
    0.5138    0.8305   -0.6617 C   0  0  2  0  0  0  0  0  0  0  0  0
    1.4951    0.4017    0.4234 C   0  0  0  0  0  0  0  0  0  0  0  0
    2.1463   -0.6391    0.3633 O   0  0  0  0  0  0  0  0  0  0  0  0
    1.1549    1.8817   -1.5749 C   0  0  0  0  0  0  0  0  0  0  0  0
    0.2586    2.2842   -2.7205 C   0  0  0  0  0  0  0  0  0  0  0  0
    0.0764    1.4466   -3.7924 N   0  0  0  0  0  0  0  0  0  0  0  0
   -0.4587    3.4475   -2.8718 C   0  0  0  0  0  0  0  0  0  0  0  0
   -0.7448    2.0950   -4.5881 C   0  0  0  0  0  0  0  0  0  0  0  0
   -1.0959    3.3119   -4.0729 N   0  0  0  0  0  0  0  0  0  0  0  0
   -1.4467    1.6280   -0.5753 H   0  0  0  0  0  0  0  0  0  0  0  0
    0.1998   -0.0524   -1.2308 H   0  0  0  0  0  0  0  0  0  0  0  0
    2.1120    1.5120   -1.9671 H   0  0  0  0  0  0  0  0  0  0  0  0
    1.4076    2.7841   -1.0027 H   0  0  0  0  0  0  0  0  0  0  0  0
   -0.5717    4.3301   -2.2588 H   0  0  0  0  0  0  0  0  0  0  0  0
   -1.1195    1.7442   -5.5393 H   0  0  0  0  0  0  0  0  0  0  0  0
   -1.7145    3.9871   -4.5019 H   0  0  0  0  0  0  0  0  0  0  0  0
    1.5918    1.3437    1.4382 N   0  0  0  0  0  0  0  0  0  0  0  0
    2.4682    1.1953    2.5778 C   0  0  2  0  0  0  0  0  0  0  0  0
    2.2358   -0.1873    3.1729 C   0  0  0  0  0  0  0  0  0  0  0  0
    1.1999   -0.8262    3.0007 O   0  0  0  0  0  0  0  0  0  0  0  0
    2.2189    2.2814    3.6127 C   0  0  0  0  0  0  0  0  0  0  0  0
    1.0177    2.1793    1.3769 H   0  0  0  0  0  0  0  0  0  0  0  0
    3.4938    1.2628    2.1990 H   0  0  0  0  0  0  0  0  0  0  0  0
    1.1962    2.2297    4.0038 H   0  0  0  0  0  0  0  0  0  0  0  0
    2.9029    2.1844    4.4622 H   0  0  0  0  0  0  0  0  0  0  0  0
    2.3574    3.2759    3.1750 H   0  0  0  0  0  0  0  0  0  0  0  0
    3.3038   -0.6053    3.9544 N   0  0  0  0  0  0  0  0  0  0  0  0
    3.3188   -1.8775    4.6380 C   0  0  0  0  0  0  0  0  0  0  0  0
    4.1302   -0.0190    4.0261 H   0  0  0  0  0  0  0  0  0  0  0  0
    2.9295   -1.7503    5.6589 H   0  0  0  0  0  0  0  0  0  0  0  0
    2.6882   -2.5945    4.0919 H   0  0  0  0  0  0  0  0  0  0  0  0
    4.3503   -2.2569    4.6837 H   0  0  0  0  0  0  0  0  0  0  0  0
 22 24  2  0  0  0  0
 24 26  1  0  0  0  0
 23 25  2  0  0  0  0
 25 26  1  0  0  0  0
 21 22  1  0  0  0  0
 22 23  1  0  0  0  0
  1  3  1  0  0  0  0
  1  7  1  0  0  0  0
  1  2  2  0  0  0  0
 35 36  1  0  0  0  0
 36 44  1  0  0  0  0
 36 37  2  0  0  0  0
  8  9  1  0  0  0  0
  9 17  1  0  0  0  0
  9 10  2  0  0  0  0
 18 19  1  0  0  0  0
 19 34  1  0  0  0  0
 19 20  2  0  0  0  0
 35 38  1  0  0  0  0
  8 11  1  0  0  0  0
 44 45  1  0  0  0  0
 18 21  1  0  0  0  0
 34 35  1  0  0  0  0
  7  8  1  0  0  0  0
 17 18  1  0  0  0  0
 24 31  1  0  0  0  0
 25 32  1  0  0  0  0
  3  4  1  0  0  0  0
  3  5  1  0  0  0  0
  3  6  1  0  0  0  0
 38 41  1  0  0  0  0
 38 42  1  0  0  0  0
 38 43  1  0  0  0  0
 11 14  1  0  0  0  0
 11 15  1  0  0  0  0
 11 16  1  0  0  0  0
 45 47  1  0  0  0  0
 45 48  1  0  0  0  0
 45 49  1  0  0  0  0
 21 29  1  0  0  0  0
 21 30  1  0  0  0  0
 35 40  1  0  0  0  0
  8 13  1  0  0  0  0
 18 28  1  0  0  0  0
 26 33  1  0  0  0  0
 44 46  1  0  0  0  0
  7 12  1  0  0  0  0
 34 39  1  0  0  0  0
 17 27  1  0  0  0  0
M  END
$$$$

  -OEChem-05262214473D

 49 49  0     1  0  0  0  0  0999 V2000
   -1.6183    0.5613    3.8201 C   0  0  0  0  0  0  0  0  0  0  0  0
   -0.6710   -0.0534    3.3444 O   0  0  0  0  0  0  0  0  0  0  0  0
   -2.0502    0.2789    5.2208 C   0  0  0  0  0  0  0  0  0  0  0  0
   -2.8099   -0.5175    5.2742 H   0  0  0  0  0  0  0  0  0  0  0  0
   -1.2190   -0.0687    5.8551 H   0  0  0  0  0  0  0  0  0  0  0  0
   -2.4882    1.1338    5.7604 H   0  0  0  0  0  0  0  0  0  0  0  0
   -2.3680    1.5337    3.1790 N   0  0  0  0  0  0  0  0  0  0  0  0
   -2.1212    1.9597    1.8266 C   0  0  2  0  0  0  0  0  0  0  0  0
   -0.7862    1.3744    1.3854 C   0  0  0  0  0  0  0  0  0  0  0  0
    0.0859    1.0216    2.1767 O   0  0  0  0  0  0  0  0  0  0  0  0
   -2.1124    3.4765    1.7171 C   0  0  0  0  0  0  0  0  0  0  0  0
   -3.1331    1.9695    3.6908 H   0  0  0  0  0  0  0  0  0  0  0  0
   -2.9253    1.5413    1.2115 H   0  0  0  0  0  0  0  0  0  0  0  0
   -1.3133    3.9138    2.3268 H   0  0  0  0  0  0  0  0  0  0  0  0
   -1.9529    3.7988    0.6829 H   0  0  0  0  0  0  0  0  0  0  0  0
   -3.0626    3.8977    2.0629 H   0  0  0  0  0  0  0  0  0  0  0  0
   -0.6635    1.3313    0.0020 N   0  0  0  0  0  0  0  0  0  0  0  0
    0.5138    0.8305   -0.6617 C   0  0  2  0  0  0  0  0  0  0  0  0
    1.4951    0.4017    0.4234 C   0  0  0  0  0  0  0  0  0  0  0  0
    2.3349   -0.4801    0.2556 O   0  0  0  0  0  0  0  0  0  0  0  0
    1.1549    1.8817   -1.5749 C   0  0  0  0  0  0  0  0  0  0  0  0
    0.2586    2.2842   -2.7205 C   0  0  0  0  0  0  0  0  0  0  0  0
    0.0764    1.4466   -3.7924 N   0  0  0  0  0  0  0  0  0  0  0  0
   -0.4587    3.4475   -2.8718 C   0  0  0  0  0  0  0  0  0  0  0  0
   -0.7448    2.0950   -4.5881 C   0  0  0  0  0  0  0  0  0  0  0  0
   -1.0959    3.3119   -4.0729 N   0  0  0  0  0  0  0  0  0  0  0  0
   -1.4467    1.6280   -0.5753 H   0  0  0  0  0  0  0  0  0  0  0  0
    0.1998   -0.0524   -1.2308 H   0  0  0  0  0  0  0  0  0  0  0  0
    2.1120    1.5120   -1.9671 H   0  0  0  0  0  0  0  0  0  0  0  0
    1.4076    2.7841   -1.0027 H   0  0  0  0  0  0  0  0  0  0  0  0
   -0.5717    4.3301   -2.2588 H   0  0  0  0  0  0  0  0  0  0  0  0
   -1.1195    1.7442   -5.5393 H   0  0  0  0  0  0  0  0  0  0  0  0
   -1.7145    3.9871   -4.5019 H   0  0  0  0  0  0  0  0  0  0  0  0
    1.3525    1.1553    1.5802 N   0  0  0  0  0  0  0  0  0  0  0  0
    2.1745    0.9699    2.7544 C   0  0  2  0  0  0  0  0  0  0  0  0
    2.1759   -0.5138    3.0980 C   0  0  0  0  0  0  0  0  0  0  0  0
    1.2922   -1.2873    2.7350 O   0  0  0  0  0  0  0  0  0  0  0  0
    1.6643    1.7981    3.9234 C   0  0  0  0  0  0  0  0  0  0  0  0
    0.6343    1.8732    1.6027 H   0  0  0  0  0  0  0  0  0  0  0  0
    3.1885    1.2836    2.4834 H   0  0  0  0  0  0  0  0  0  0  0  0
    0.6495    1.4981    4.2092 H   0  0  0  0  0  0  0  0  0  0  0  0
    2.3045    1.6787    4.8036 H   0  0  0  0  0  0  0  0  0  0  0  0
    1.6357    2.8620    3.6642 H   0  0  0  0  0  0  0  0  0  0  0  0
    3.2575   -0.8641    3.8940 N   0  0  0  0  0  0  0  0  0  0  0  0
    3.4753   -2.2122    4.3642 C   0  0  0  0  0  0  0  0  0  0  0  0
    3.9517   -0.1615    4.1312 H   0  0  0  0  0  0  0  0  0  0  0  0
    3.0112   -2.3354    5.3538 H   0  0  0  0  0  0  0  0  0  0  0  0
    3.0250   -2.9243    3.6569 H   0  0  0  0  0  0  0  0  0  0  0  0
    4.5558   -2.4040    4.4396 H   0  0  0  0  0  0  0  0  0  0  0  0
 22 24  2  0  0  0  0
 24 26  1  0  0  0  0
 23 25  2  0  0  0  0
 25 26  1  0  0  0  0
 21 22  1  0  0  0  0
 22 23  1  0  0  0  0
  1  3  1  0  0  0  0
  1  7  1  0  0  0  0
  1  2  2  0  0  0  0
 35 36  1  0  0  0  0
 36 44  1  0  0  0  0
 36 37  2  0  0  0  0
  8  9  1  0  0  0  0
  9 17  1  0  0  0  0
  9 10  2  0  0  0  0
 18 19  1  0  0  0  0
 19 34  1  0  0  0  0
 19 20  2  0  0  0  0
 35 38  1  0  0  0  0
  8 11  1  0  0  0  0
 44 45  1  0  0  0  0
 18 21  1  0  0  0  0
 34 35  1  0  0  0  0
  7  8  1  0  0  0  0
 17 18  1  0  0  0  0
 24 31  1  0  0  0  0
 25 32  1  0  0  0  0
  3  4  1  0  0  0  0
  3  5  1  0  0  0  0
  3  6  1  0  0  0  0
 38 41  1  0  0  0  0
 38 42  1  0  0  0  0
 38 43  1  0  0  0  0
 11 14  1  0  0  0  0
 11 15  1  0  0  0  0
 11 16  1  0  0  0  0
 45 47  1  0  0  0  0
 45 48  1  0  0  0  0
 45 49  1  0  0  0  0
 21 29  1  0  0  0  0
 21 30  1  0  0  0  0
 35 40  1  0  0  0  0
  8 13  1  0  0  0  0
 18 28  1  0  0  0  0
 26 33  1  0  0  0  0
 44 46  1  0  0  0  0
  7 12  1  0  0  0  0
 34 39  1  0  0  0  0
 17 27  1  0  0  0  0
M  END
$$$$

  -OEChem-05262214473D

 49 49  0     1  0  0  0  0  0999 V2000
   -1.6183    0.5613    3.8201 C   0  0  0  0  0  0  0  0  0  0  0  0
   -0.6710   -0.0534    3.3444 O   0  0  0  0  0  0  0  0  0  0  0  0
   -2.0502    0.2789    5.2208 C   0  0  0  0  0  0  0  0  0  0  0  0
   -2.8099   -0.5175    5.2742 H   0  0  0  0  0  0  0  0  0  0  0  0
   -1.2190   -0.0687    5.8551 H   0  0  0  0  0  0  0  0  0  0  0  0
   -2.4882    1.1338    5.7604 H   0  0  0  0  0  0  0  0  0  0  0  0
   -2.3680    1.5337    3.1790 N   0  0  0  0  0  0  0  0  0  0  0  0
   -2.1212    1.9597    1.8266 C   0  0  2  0  0  0  0  0  0  0  0  0
   -0.7862    1.3744    1.3854 C   0  0  0  0  0  0  0  0  0  0  0  0
    0.0859    1.0216    2.1767 O   0  0  0  0  0  0  0  0  0  0  0  0
   -2.1124    3.4765    1.7171 C   0  0  0  0  0  0  0  0  0  0  0  0
   -3.1331    1.9695    3.6908 H   0  0  0  0  0  0  0  0  0  0  0  0
   -2.9253    1.5413    1.2115 H   0  0  0  0  0  0  0  0  0  0  0  0
   -1.3133    3.9138    2.3268 H   0  0  0  0  0  0  0  0  0  0  0  0
   -1.9529    3.7988    0.6829 H   0  0  0  0  0  0  0  0  0  0  0  0
   -3.0626    3.8977    2.0629 H   0  0  0  0  0  0  0  0  0  0  0  0
   -0.6635    1.3313    0.0020 N   0  0  0  0  0  0  0  0  0  0  0  0
    0.5138    0.8305   -0.6617 C   0  0  2  0  0  0  0  0  0  0  0  0
    1.4951    0.4017    0.4234 C   0  0  0  0  0  0  0  0  0  0  0  0
    2.4956   -0.2738    0.1917 O   0  0  0  0  0  0  0  0  0  0  0  0
    1.1549    1.8817   -1.5749 C   0  0  0  0  0  0  0  0  0  0  0  0
    0.2586    2.2842   -2.7205 C   0  0  0  0  0  0  0  0  0  0  0  0
    0.0764    1.4466   -3.7924 N   0  0  0  0  0  0  0  0  0  0  0  0
   -0.4587    3.4475   -2.8718 C   0  0  0  0  0  0  0  0  0  0  0  0
   -0.7448    2.0950   -4.5881 C   0  0  0  0  0  0  0  0  0  0  0  0
   -1.0959    3.3119   -4.0729 N   0  0  0  0  0  0  0  0  0  0  0  0
   -1.4467    1.6280   -0.5753 H   0  0  0  0  0  0  0  0  0  0  0  0
    0.1998   -0.0524   -1.2308 H   0  0  0  0  0  0  0  0  0  0  0  0
    2.1120    1.5120   -1.9671 H   0  0  0  0  0  0  0  0  0  0  0  0
    1.4076    2.7841   -1.0027 H   0  0  0  0  0  0  0  0  0  0  0  0
   -0.5717    4.3301   -2.2588 H   0  0  0  0  0  0  0  0  0  0  0  0
   -1.1195    1.7442   -5.5393 H   0  0  0  0  0  0  0  0  0  0  0  0
   -1.7145    3.9871   -4.5019 H   0  0  0  0  0  0  0  0  0  0  0  0
    1.1458    0.9056    1.6685 N   0  0  0  0  0  0  0  0  0  0  0  0
    1.9195    0.6688    2.8660 C   0  0  2  0  0  0  0  0  0  0  0  0
    2.1837   -0.8277    2.9669 C   0  0  0  0  0  0  0  0  0  0  0  0
    1.4856   -1.6713    2.4083 O   0  0  0  0  0  0  0  0  0  0  0  0
    1.1949    1.1774    4.1026 C   0  0  0  0  0  0  0  0  0  0  0  0
    0.3039    1.4692    1.7419 H   0  0  0  0  0  0  0  0  0  0  0  0
    2.8690    1.2002    2.7393 H   0  0  0  0  0  0  0  0  0  0  0  0
    0.2412    0.6566    4.2460 H   0  0  0  0  0  0  0  0  0  0  0  0
    1.7948    1.0230    5.0056 H   0  0  0  0  0  0  0  0  0  0  0  0
    0.9793    2.2478    4.0153 H   0  0  0  0  0  0  0  0  0  0  0  0
    3.2649   -1.1125    3.7892 N   0  0  0  0  0  0  0  0  0  0  0  0
    3.7081   -2.4611    4.0553 C   0  0  0  0  0  0  0  0  0  0  0  0
    3.7979   -0.3495    4.1960 H   0  0  0  0  0  0  0  0  0  0  0  0
    3.2201   -2.8347    4.9676 H   0  0  0  0  0  0  0  0  0  0  0  0
    3.4428   -3.1083    3.2063 H   0  0  0  0  0  0  0  0  0  0  0  0
    4.7992   -2.4676    4.1943 H   0  0  0  0  0  0  0  0  0  0  0  0
 22 24  2  0  0  0  0
 24 26  1  0  0  0  0
 23 25  2  0  0  0  0
 25 26  1  0  0  0  0
 21 22  1  0  0  0  0
 22 23  1  0  0  0  0
  1  3  1  0  0  0  0
  1  7  1  0  0  0  0
  1  2  2  0  0  0  0
 35 36  1  0  0  0  0
 36 44  1  0  0  0  0
 36 37  2  0  0  0  0
  8  9  1  0  0  0  0
  9 17  1  0  0  0  0
  9 10  2  0  0  0  0
 18 19  1  0  0  0  0
 19 34  1  0  0  0  0
 19 20  2  0  0  0  0
 35 38  1  0  0  0  0
  8 11  1  0  0  0  0
 44 45  1  0  0  0  0
 18 21  1  0  0  0  0
 34 35  1  0  0  0  0
  7  8  1  0  0  0  0
 17 18  1  0  0  0  0
 24 31  1  0  0  0  0
 25 32  1  0  0  0  0
  3  4  1  0  0  0  0
  3  5  1  0  0  0  0
  3  6  1  0  0  0  0
 38 41  1  0  0  0  0
 38 42  1  0  0  0  0
 38 43  1  0  0  0  0
 11 14  1  0  0  0  0
 11 15  1  0  0  0  0
 11 16  1  0  0  0  0
 45 47  1  0  0  0  0
 45 48  1  0  0  0  0
 45 49  1  0  0  0  0
 21 29  1  0  0  0  0
 21 30  1  0  0  0  0
 35 40  1  0  0  0  0
  8 13  1  0  0  0  0
 18 28  1  0  0  0  0
 26 33  1  0  0  0  0
 44 46  1  0  0  0  0
  7 12  1  0  0  0  0
 34 39  1  0  0  0  0
 17 27  1  0  0  0  0
M  END
$$$$

  -OEChem-05262214473D

 49 49  0     1  0  0  0  0  0999 V2000
   -1.6183    0.5613    3.8201 C   0  0  0  0  0  0  0  0  0  0  0  0
   -0.6710   -0.0534    3.3444 O   0  0  0  0  0  0  0  0  0  0  0  0
   -2.0502    0.2789    5.2208 C   0  0  0  0  0  0  0  0  0  0  0  0
   -2.8099   -0.5175    5.2742 H   0  0  0  0  0  0  0  0  0  0  0  0
   -1.2190   -0.0687    5.8551 H   0  0  0  0  0  0  0  0  0  0  0  0
   -2.4882    1.1338    5.7604 H   0  0  0  0  0  0  0  0  0  0  0  0
   -2.3680    1.5337    3.1790 N   0  0  0  0  0  0  0  0  0  0  0  0
   -2.1212    1.9597    1.8266 C   0  0  2  0  0  0  0  0  0  0  0  0
   -0.7862    1.3744    1.3854 C   0  0  0  0  0  0  0  0  0  0  0  0
    0.0859    1.0216    2.1767 O   0  0  0  0  0  0  0  0  0  0  0  0
   -2.1124    3.4765    1.7171 C   0  0  0  0  0  0  0  0  0  0  0  0
   -3.1331    1.9695    3.6908 H   0  0  0  0  0  0  0  0  0  0  0  0
   -2.9253    1.5413    1.2115 H   0  0  0  0  0  0  0  0  0  0  0  0
   -1.3133    3.9138    2.3268 H   0  0  0  0  0  0  0  0  0  0  0  0
   -1.9529    3.7988    0.6829 H   0  0  0  0  0  0  0  0  0  0  0  0
   -3.0626    3.8977    2.0629 H   0  0  0  0  0  0  0  0  0  0  0  0
   -0.6635    1.3313    0.0020 N   0  0  0  0  0  0  0  0  0  0  0  0
    0.5138    0.8305   -0.6617 C   0  0  2  0  0  0  0  0  0  0  0  0
    1.4951    0.4017    0.4234 C   0  0  0  0  0  0  0  0  0  0  0  0
    2.6175   -0.0343    0.1761 O   0  0  0  0  0  0  0  0  0  0  0  0
    1.1549    1.8817   -1.5749 C   0  0  0  0  0  0  0  0  0  0  0  0
    0.2586    2.2842   -2.7205 C   0  0  0  0  0  0  0  0  0  0  0  0
    0.0764    1.4466   -3.7924 N   0  0  0  0  0  0  0  0  0  0  0  0
   -0.4587    3.4475   -2.8718 C   0  0  0  0  0  0  0  0  0  0  0  0
   -0.7448    2.0950   -4.5881 C   0  0  0  0  0  0  0  0  0  0  0  0
   -1.0959    3.3119   -4.0729 N   0  0  0  0  0  0  0  0  0  0  0  0
   -1.4467    1.6280   -0.5753 H   0  0  0  0  0  0  0  0  0  0  0  0
    0.1998   -0.0524   -1.2308 H   0  0  0  0  0  0  0  0  0  0  0  0
    2.1120    1.5120   -1.9671 H   0  0  0  0  0  0  0  0  0  0  0  0
    1.4076    2.7841   -1.0027 H   0  0  0  0  0  0  0  0  0  0  0  0
   -0.5717    4.3301   -2.2588 H   0  0  0  0  0  0  0  0  0  0  0  0
   -1.1195    1.7442   -5.5393 H   0  0  0  0  0  0  0  0  0  0  0  0
   -1.7145    3.9871   -4.5019 H   0  0  0  0  0  0  0  0  0  0  0  0
    0.9856    0.6117    1.6972 N   0  0  0  0  0  0  0  0  0  0  0  0
    1.7205    0.3123    2.9052 C   0  0  2  0  0  0  0  0  0  0  0  0
    2.2586   -1.1077    2.7886 C   0  0  0  0  0  0  0  0  0  0  0  0
    1.7669   -1.9522    2.0429 O   0  0  0  0  0  0  0  0  0  0  0  0
    0.8429    0.4615    4.1381 C   0  0  0  0  0  0  0  0  0  0  0  0
    0.0490    0.9950    1.7850 H   0  0  0  0  0  0  0  0  0  0  0  0
    2.5572    1.0181    2.9494 H   0  0  0  0  0  0  0  0  0  0  0  0
   -0.0009   -0.2376    4.1116 H   0  0  0  0  0  0  0  0  0  0  0  0
    1.4085    0.2622    5.0543 H   0  0  0  0  0  0  0  0  0  0  0  0
    0.4327    1.4751    4.2043 H   0  0  0  0  0  0  0  0  0  0  0  0
    3.3254   -1.3336    3.6471 N   0  0  0  0  0  0  0  0  0  0  0  0
    4.0013   -2.6072    3.7324 C   0  0  0  0  0  0  0  0  0  0  0  0
    3.6792   -0.5702    4.2161 H   0  0  0  0  0  0  0  0  0  0  0  0
    3.5420   -3.2141    4.5265 H   0  0  0  0  0  0  0  0  0  0  0  0
    3.9130   -3.1341    2.7709 H   0  0  0  0  0  0  0  0  0  0  0  0
    5.0639   -2.4433    3.9645 H   0  0  0  0  0  0  0  0  0  0  0  0
 22 24  2  0  0  0  0
 24 26  1  0  0  0  0
 23 25  2  0  0  0  0
 25 26  1  0  0  0  0
 21 22  1  0  0  0  0
 22 23  1  0  0  0  0
  1  3  1  0  0  0  0
  1  7  1  0  0  0  0
  1  2  2  0  0  0  0
 35 36  1  0  0  0  0
 36 44  1  0  0  0  0
 36 37  2  0  0  0  0
  8  9  1  0  0  0  0
  9 17  1  0  0  0  0
  9 10  2  0  0  0  0
 18 19  1  0  0  0  0
 19 34  1  0  0  0  0
 19 20  2  0  0  0  0
 35 38  1  0  0  0  0
  8 11  1  0  0  0  0
 44 45  1  0  0  0  0
 18 21  1  0  0  0  0
 34 35  1  0  0  0  0
  7  8  1  0  0  0  0
 17 18  1  0  0  0  0
 24 31  1  0  0  0  0
 25 32  1  0  0  0  0
  3  4  1  0  0  0  0
  3  5  1  0  0  0  0
  3  6  1  0  0  0  0
 38 41  1  0  0  0  0
 38 42  1  0  0  0  0
 38 43  1  0  0  0  0
 11 14  1  0  0  0  0
 11 15  1  0  0  0  0
 11 16  1  0  0  0  0
 45 47  1  0  0  0  0
 45 48  1  0  0  0  0
 45 49  1  0  0  0  0
 21 29  1  0  0  0  0
 21 30  1  0  0  0  0
 35 40  1  0  0  0  0
  8 13  1  0  0  0  0
 18 28  1  0  0  0  0
 26 33  1  0  0  0  0
 44 46  1  0  0  0  0
  7 12  1  0  0  0  0
 34 39  1  0  0  0  0
 17 27  1  0  0  0  0
M  END
$$$$

  -OEChem-05262214473D

 49 49  0     1  0  0  0  0  0999 V2000
   -1.6183    0.5613    3.8201 C   0  0  0  0  0  0  0  0  0  0  0  0
   -0.6710   -0.0534    3.3444 O   0  0  0  0  0  0  0  0  0  0  0  0
   -2.0502    0.2789    5.2208 C   0  0  0  0  0  0  0  0  0  0  0  0
   -2.8099   -0.5175    5.2742 H   0  0  0  0  0  0  0  0  0  0  0  0
   -1.2190   -0.0687    5.8551 H   0  0  0  0  0  0  0  0  0  0  0  0
   -2.4882    1.1338    5.7604 H   0  0  0  0  0  0  0  0  0  0  0  0
   -2.3680    1.5337    3.1790 N   0  0  0  0  0  0  0  0  0  0  0  0
   -2.1212    1.9597    1.8266 C   0  0  2  0  0  0  0  0  0  0  0  0
   -0.7862    1.3744    1.3854 C   0  0  0  0  0  0  0  0  0  0  0  0
    0.0859    1.0216    2.1767 O   0  0  0  0  0  0  0  0  0  0  0  0
   -2.1124    3.4765    1.7171 C   0  0  0  0  0  0  0  0  0  0  0  0
   -3.1331    1.9695    3.6908 H   0  0  0  0  0  0  0  0  0  0  0  0
   -2.9253    1.5413    1.2115 H   0  0  0  0  0  0  0  0  0  0  0  0
   -1.3133    3.9138    2.3268 H   0  0  0  0  0  0  0  0  0  0  0  0
   -1.9529    3.7988    0.6829 H   0  0  0  0  0  0  0  0  0  0  0  0
   -3.0626    3.8977    2.0629 H   0  0  0  0  0  0  0  0  0  0  0  0
   -0.6635    1.3313    0.0020 N   0  0  0  0  0  0  0  0  0  0  0  0
    0.5138    0.8305   -0.6617 C   0  0  2  0  0  0  0  0  0  0  0  0
    1.4951    0.4017    0.4234 C   0  0  0  0  0  0  0  0  0  0  0  0
    2.6922    0.2220    0.2098 O   0  0  0  0  0  0  0  0  0  0  0  0
    1.1549    1.8817   -1.5749 C   0  0  0  0  0  0  0  0  0  0  0  0
    0.2586    2.2842   -2.7205 C   0  0  0  0  0  0  0  0  0  0  0  0
    0.0764    1.4466   -3.7924 N   0  0  0  0  0  0  0  0  0  0  0  0
   -0.4587    3.4475   -2.8718 C   0  0  0  0  0  0  0  0  0  0  0  0
   -0.7448    2.0950   -4.5881 C   0  0  0  0  0  0  0  0  0  0  0  0
   -1.0959    3.3119   -4.0729 N   0  0  0  0  0  0  0  0  0  0  0  0
   -1.4467    1.6280   -0.5753 H   0  0  0  0  0  0  0  0  0  0  0  0
    0.1998   -0.0524   -1.2308 H   0  0  0  0  0  0  0  0  0  0  0  0
    2.1120    1.5120   -1.9671 H   0  0  0  0  0  0  0  0  0  0  0  0
    1.4076    2.7841   -1.0027 H   0  0  0  0  0  0  0  0  0  0  0  0
   -0.5717    4.3301   -2.2588 H   0  0  0  0  0  0  0  0  0  0  0  0
   -1.1195    1.7442   -5.5393 H   0  0  0  0  0  0  0  0  0  0  0  0
   -1.7145    3.9871   -4.5019 H   0  0  0  0  0  0  0  0  0  0  0  0
    0.8830    0.2934    1.6643 N   0  0  0  0  0  0  0  0  0  0  0  0
    1.5911   -0.0752    2.8691 C   0  0  2  0  0  0  0  0  0  0  0  0
    2.3955   -1.3346    2.5751 C   0  0  0  0  0  0  0  0  0  0  0  0
    2.1170   -2.1108    1.6635 O   0  0  0  0  0  0  0  0  0  0  0  0
    0.6321   -0.3007    4.0276 C   0  0  0  0  0  0  0  0  0  0  0  0
   -0.1129    0.4828    1.7290 H   0  0  0  0  0  0  0  0  0  0  0  0
    2.2742    0.7497    3.0993 H   0  0  0  0  0  0  0  0  0  0  0  0
   -0.0602   -1.1235    3.8152 H   0  0  0  0  0  0  0  0  0  0  0  0
    1.1720   -0.5519    4.9465 H   0  0  0  0  0  0  0  0  0  0  0  0
    0.0334    0.5965    4.2183 H   0  0  0  0  0  0  0  0  0  0  0  0
    3.4349   -1.5124    3.4774 N   0  0  0  0  0  0  0  0  0  0  0  0
    4.3349   -2.6404    3.4175 C   0  0  0  0  0  0  0  0  0  0  0  0
    3.6038   -0.8087    4.1901 H   0  0  0  0  0  0  0  0  0  0  0  0
    3.9549   -3.4479    4.0607 H   0  0  0  0  0  0  0  0  0  0  0  0
    4.4036   -2.9998    2.3801 H   0  0  0  0  0  0  0  0  0  0  0  0
    5.3319   -2.3328    3.7658 H   0  0  0  0  0  0  0  0  0  0  0  0
 22 24  2  0  0  0  0
 24 26  1  0  0  0  0
 23 25  2  0  0  0  0
 25 26  1  0  0  0  0
 21 22  1  0  0  0  0
 22 23  1  0  0  0  0
  1  3  1  0  0  0  0
  1  7  1  0  0  0  0
  1  2  2  0  0  0  0
 35 36  1  0  0  0  0
 36 44  1  0  0  0  0
 36 37  2  0  0  0  0
  8  9  1  0  0  0  0
  9 17  1  0  0  0  0
  9 10  2  0  0  0  0
 18 19  1  0  0  0  0
 19 34  1  0  0  0  0
 19 20  2  0  0  0  0
 35 38  1  0  0  0  0
  8 11  1  0  0  0  0
 44 45  1  0  0  0  0
 18 21  1  0  0  0  0
 34 35  1  0  0  0  0
  7  8  1  0  0  0  0
 17 18  1  0  0  0  0
 24 31  1  0  0  0  0
 25 32  1  0  0  0  0
  3  4  1  0  0  0  0
  3  5  1  0  0  0  0
  3  6  1  0  0  0  0
 38 41  1  0  0  0  0
 38 42  1  0  0  0  0
 38 43  1  0  0  0  0
 11 14  1  0  0  0  0
 11 15  1  0  0  0  0
 11 16  1  0  0  0  0
 45 47  1  0  0  0  0
 45 48  1  0  0  0  0
 45 49  1  0  0  0  0
 21 29  1  0  0  0  0
 21 30  1  0  0  0  0
 35 40  1  0  0  0  0
  8 13  1  0  0  0  0
 18 28  1  0  0  0  0
 26 33  1  0  0  0  0
 44 46  1  0  0  0  0
  7 12  1  0  0  0  0
 34 39  1  0  0  0  0
 17 27  1  0  0  0  0
M  END
$$$$

  -OEChem-05262214473D

 49 49  0     1  0  0  0  0  0999 V2000
   -1.6183    0.5613    3.8201 C   0  0  0  0  0  0  0  0  0  0  0  0
   -0.6710   -0.0534    3.3444 O   0  0  0  0  0  0  0  0  0  0  0  0
   -2.0502    0.2789    5.2208 C   0  0  0  0  0  0  0  0  0  0  0  0
   -2.8099   -0.5175    5.2742 H   0  0  0  0  0  0  0  0  0  0  0  0
   -1.2190   -0.0687    5.8551 H   0  0  0  0  0  0  0  0  0  0  0  0
   -2.4882    1.1338    5.7604 H   0  0  0  0  0  0  0  0  0  0  0  0
   -2.3680    1.5337    3.1790 N   0  0  0  0  0  0  0  0  0  0  0  0
   -2.1212    1.9597    1.8266 C   0  0  2  0  0  0  0  0  0  0  0  0
   -0.7862    1.3744    1.3854 C   0  0  0  0  0  0  0  0  0  0  0  0
    0.0859    1.0216    2.1767 O   0  0  0  0  0  0  0  0  0  0  0  0
   -2.1124    3.4765    1.7171 C   0  0  0  0  0  0  0  0  0  0  0  0
   -3.1331    1.9695    3.6908 H   0  0  0  0  0  0  0  0  0  0  0  0
   -2.9253    1.5413    1.2115 H   0  0  0  0  0  0  0  0  0  0  0  0
   -1.3133    3.9138    2.3268 H   0  0  0  0  0  0  0  0  0  0  0  0
   -1.9529    3.7988    0.6829 H   0  0  0  0  0  0  0  0  0  0  0  0
   -3.0626    3.8977    2.0629 H   0  0  0  0  0  0  0  0  0  0  0  0
   -0.6635    1.3313    0.0020 N   0  0  0  0  0  0  0  0  0  0  0  0
    0.5138    0.8305   -0.6617 C   0  0  2  0  0  0  0  0  0  0  0  0
    1.4951    0.4017    0.4234 C   0  0  0  0  0  0  0  0  0  0  0  0
    2.7147    0.4778    0.2905 O   0  0  0  0  0  0  0  0  0  0  0  0
    1.1549    1.8817   -1.5749 C   0  0  0  0  0  0  0  0  0  0  0  0
    0.2586    2.2842   -2.7205 C   0  0  0  0  0  0  0  0  0  0  0  0
    0.0764    1.4466   -3.7924 N   0  0  0  0  0  0  0  0  0  0  0  0
   -0.4587    3.4475   -2.8718 C   0  0  0  0  0  0  0  0  0  0  0  0
   -0.7448    2.0950   -4.5881 C   0  0  0  0  0  0  0  0  0  0  0  0
   -1.0959    3.3119   -4.0729 N   0  0  0  0  0  0  0  0  0  0  0  0
   -1.4467    1.6280   -0.5753 H   0  0  0  0  0  0  0  0  0  0  0  0
    0.1998   -0.0524   -1.2308 H   0  0  0  0  0  0  0  0  0  0  0  0
    2.1120    1.5120   -1.9671 H   0  0  0  0  0  0  0  0  0  0  0  0
    1.4076    2.7841   -1.0027 H   0  0  0  0  0  0  0  0  0  0  0  0
   -0.5717    4.3301   -2.2588 H   0  0  0  0  0  0  0  0  0  0  0  0
   -1.1195    1.7442   -5.5393 H   0  0  0  0  0  0  0  0  0  0  0  0
   -1.7145    3.9871   -4.5019 H   0  0  0  0  0  0  0  0  0  0  0  0
    0.8448   -0.0274    1.5720 N   0  0  0  0  0  0  0  0  0  0  0  0
    1.5402   -0.4673    2.7602 C   0  0  2  0  0  0  0  0  0  0  0  0
    2.5850   -1.4930    2.3411 C   0  0  0  0  0  0  0  0  0  0  0  0
    2.5120   -2.1363    1.2962 O   0  0  0  0  0  0  0  0  0  0  0  0
    0.5770   -1.0574    3.7784 C   0  0  0  0  0  0  0  0  0  0  0  0
   -0.1709   -0.0325    1.5779 H   0  0  0  0  0  0  0  0  0  0  0  0
    2.0394    0.4134    3.1788 H   0  0  0  0  0  0  0  0  0  0  0  0
    0.0672   -1.9408    3.3769 H   0  0  0  0  0  0  0  0  0  0  0  0
    1.1014   -1.3640    4.6895 H   0  0  0  0  0  0  0  0  0  0  0  0
   -0.1915   -0.3280    4.0564 H   0  0  0  0  0  0  0  0  0  0  0  0
    3.5860   -1.6366    3.2917 N   0  0  0  0  0  0  0  0  0  0  0  0
    4.6862   -2.5587    3.1321 C   0  0  0  0  0  0  0  0  0  0  0  0
    3.5768   -1.0485    4.1198 H   0  0  0  0  0  0  0  0  0  0  0  0
    4.4307   -3.5200    3.6018 H   0  0  0  0  0  0  0  0  0  0  0  0
    4.8813   -2.7146    2.0608 H   0  0  0  0  0  0  0  0  0  0  0  0
    5.5848   -2.1436    3.6119 H   0  0  0  0  0  0  0  0  0  0  0  0
 22 24  2  0  0  0  0
 24 26  1  0  0  0  0
 23 25  2  0  0  0  0
 25 26  1  0  0  0  0
 21 22  1  0  0  0  0
 22 23  1  0  0  0  0
  1  3  1  0  0  0  0
  1  7  1  0  0  0  0
  1  2  2  0  0  0  0
 35 36  1  0  0  0  0
 36 44  1  0  0  0  0
 36 37  2  0  0  0  0
  8  9  1  0  0  0  0
  9 17  1  0  0  0  0
  9 10  2  0  0  0  0
 18 19  1  0  0  0  0
 19 34  1  0  0  0  0
 19 20  2  0  0  0  0
 35 38  1  0  0  0  0
  8 11  1  0  0  0  0
 44 45  1  0  0  0  0
 18 21  1  0  0  0  0
 34 35  1  0  0  0  0
  7  8  1  0  0  0  0
 17 18  1  0  0  0  0
 24 31  1  0  0  0  0
 25 32  1  0  0  0  0
  3  4  1  0  0  0  0
  3  5  1  0  0  0  0
  3  6  1  0  0  0  0
 38 41  1  0  0  0  0
 38 42  1  0  0  0  0
 38 43  1  0  0  0  0
 11 14  1  0  0  0  0
 11 15  1  0  0  0  0
 11 16  1  0  0  0  0
 45 47  1  0  0  0  0
 45 48  1  0  0  0  0
 45 49  1  0  0  0  0
 21 29  1  0  0  0  0
 21 30  1  0  0  0  0
 35 40  1  0  0  0  0
  8 13  1  0  0  0  0
 18 28  1  0  0  0  0
 26 33  1  0  0  0  0
 44 46  1  0  0  0  0
  7 12  1  0  0  0  0
 34 39  1  0  0  0  0
 17 27  1  0  0  0  0
M  END
$$$$

  -OEChem-05262214473D

 49 49  0     1  0  0  0  0  0999 V2000
   -1.6183    0.5613    3.8201 C   0  0  0  0  0  0  0  0  0  0  0  0
   -0.6710   -0.0534    3.3444 O   0  0  0  0  0  0  0  0  0  0  0  0
   -2.0502    0.2789    5.2208 C   0  0  0  0  0  0  0  0  0  0  0  0
   -2.8099   -0.5175    5.2742 H   0  0  0  0  0  0  0  0  0  0  0  0
   -1.2190   -0.0687    5.8551 H   0  0  0  0  0  0  0  0  0  0  0  0
   -2.4882    1.1338    5.7604 H   0  0  0  0  0  0  0  0  0  0  0  0
   -2.3680    1.5337    3.1790 N   0  0  0  0  0  0  0  0  0  0  0  0
   -2.1212    1.9597    1.8266 C   0  0  2  0  0  0  0  0  0  0  0  0
   -0.7862    1.3744    1.3854 C   0  0  0  0  0  0  0  0  0  0  0  0
    0.0859    1.0216    2.1767 O   0  0  0  0  0  0  0  0  0  0  0  0
   -2.1124    3.4765    1.7171 C   0  0  0  0  0  0  0  0  0  0  0  0
   -3.1331    1.9695    3.6908 H   0  0  0  0  0  0  0  0  0  0  0  0
   -2.9253    1.5413    1.2115 H   0  0  0  0  0  0  0  0  0  0  0  0
   -1.3133    3.9138    2.3268 H   0  0  0  0  0  0  0  0  0  0  0  0
   -1.9529    3.7988    0.6829 H   0  0  0  0  0  0  0  0  0  0  0  0
   -3.0626    3.8977    2.0629 H   0  0  0  0  0  0  0  0  0  0  0  0
   -0.6635    1.3313    0.0020 N   0  0  0  0  0  0  0  0  0  0  0  0
    0.5138    0.8305   -0.6617 C   0  0  2  0  0  0  0  0  0  0  0  0
    1.4951    0.4017    0.4234 C   0  0  0  0  0  0  0  0  0  0  0  0
    2.6835    0.7156    0.4127 O   0  0  0  0  0  0  0  0  0  0  0  0
    1.1549    1.8817   -1.5749 C   0  0  0  0  0  0  0  0  0  0  0  0
    0.2586    2.2842   -2.7205 C   0  0  0  0  0  0  0  0  0  0  0  0
    0.0764    1.4466   -3.7924 N   0  0  0  0  0  0  0  0  0  0  0  0
   -0.4587    3.4475   -2.8718 C   0  0  0  0  0  0  0  0  0  0  0  0
   -0.7448    2.0950   -4.5881 C   0  0  0  0  0  0  0  0  0  0  0  0
   -1.0959    3.3119   -4.0729 N   0  0  0  0  0  0  0  0  0  0  0  0
   -1.4467    1.6280   -0.5753 H   0  0  0  0  0  0  0  0  0  0  0  0
    0.1998   -0.0524   -1.2308 H   0  0  0  0  0  0  0  0  0  0  0  0
    2.1120    1.5120   -1.9671 H   0  0  0  0  0  0  0  0  0  0  0  0
    1.4076    2.7841   -1.0027 H   0  0  0  0  0  0  0  0  0  0  0  0
   -0.5717    4.3301   -2.2588 H   0  0  0  0  0  0  0  0  0  0  0  0
   -1.1195    1.7442   -5.5393 H   0  0  0  0  0  0  0  0  0  0  0  0
   -1.7145    3.9871   -4.5019 H   0  0  0  0  0  0  0  0  0  0  0  0
    0.8738   -0.3289    1.4267 N   0  0  0  0  0  0  0  0  0  0  0  0
    1.5711   -0.8373    2.5861 C   0  0  2  0  0  0  0  0  0  0  0  0
    2.8143   -1.5721    2.1024 C   0  0  0  0  0  0  0  0  0  0  0  0
    2.9250   -2.0270    0.9658 O   0  0  0  0  0  0  0  0  0  0  0  0
    0.6812   -1.7569    3.4077 C   0  0  0  0  0  0  0  0  0  0  0  0
   -0.1210   -0.5157    1.3418 H   0  0  0  0  0  0  0  0  0  0  0  0
    1.8688    0.0321    3.1824 H   0  0  0  0  0  0  0  0  0  0  0  0
    0.3728   -2.6338    2.8267 H   0  0  0  0  0  0  0  0  0  0  0  0
    1.2015   -2.1185    4.3008 H   0  0  0  0  0  0  0  0  0  0  0  0
   -0.2266   -1.2354    3.7296 H   0  0  0  0  0  0  0  0  0  0  0  0
    3.7683   -1.6979    3.1026 N   0  0  0  0  0  0  0  0  0  0  0  0
    5.0312   -2.3674    2.8956 C   0  0  0  0  0  0  0  0  0  0  0  0
    3.6000   -1.2735    4.0099 H   0  0  0  0  0  0  0  0  0  0  0  0
    4.9370   -3.4255    3.1813 H   0  0  0  0  0  0  0  0  0  0  0  0
    5.3133   -2.2980    1.8347 H   0  0  0  0  0  0  0  0  0  0  0  0
    5.8054   -1.8886    3.5131 H   0  0  0  0  0  0  0  0  0  0  0  0
 22 24  2  0  0  0  0
 24 26  1  0  0  0  0
 23 25  2  0  0  0  0
 25 26  1  0  0  0  0
 21 22  1  0  0  0  0
 22 23  1  0  0  0  0
  1  3  1  0  0  0  0
  1  7  1  0  0  0  0
  1  2  2  0  0  0  0
 35 36  1  0  0  0  0
 36 44  1  0  0  0  0
 36 37  2  0  0  0  0
  8  9  1  0  0  0  0
  9 17  1  0  0  0  0
  9 10  2  0  0  0  0
 18 19  1  0  0  0  0
 19 34  1  0  0  0  0
 19 20  2  0  0  0  0
 35 38  1  0  0  0  0
  8 11  1  0  0  0  0
 44 45  1  0  0  0  0
 18 21  1  0  0  0  0
 34 35  1  0  0  0  0
  7  8  1  0  0  0  0
 17 18  1  0  0  0  0
 24 31  1  0  0  0  0
 25 32  1  0  0  0  0
  3  4  1  0  0  0  0
  3  5  1  0  0  0  0
  3  6  1  0  0  0  0
 38 41  1  0  0  0  0
 38 42  1  0  0  0  0
 38 43  1  0  0  0  0
 11 14  1  0  0  0  0
 11 15  1  0  0  0  0
 11 16  1  0  0  0  0
 45 47  1  0  0  0  0
 45 48  1  0  0  0  0
 45 49  1  0  0  0  0
 21 29  1  0  0  0  0
 21 30  1  0  0  0  0
 35 40  1  0  0  0  0
  8 13  1  0  0  0  0
 18 28  1  0  0  0  0
 26 33  1  0  0  0  0
 44 46  1  0  0  0  0
  7 12  1  0  0  0  0
 34 39  1  0  0  0  0
 17 27  1  0  0  0  0
M  END
$$$$

  -OEChem-05262214473D

 49 49  0     1  0  0  0  0  0999 V2000
   -1.6183    0.5613    3.8201 C   0  0  0  0  0  0  0  0  0  0  0  0
   -0.6710   -0.0534    3.3444 O   0  0  0  0  0  0  0  0  0  0  0  0
   -2.0502    0.2789    5.2208 C   0  0  0  0  0  0  0  0  0  0  0  0
   -2.8099   -0.5175    5.2742 H   0  0  0  0  0  0  0  0  0  0  0  0
   -1.2190   -0.0687    5.8551 H   0  0  0  0  0  0  0  0  0  0  0  0
   -2.4882    1.1338    5.7604 H   0  0  0  0  0  0  0  0  0  0  0  0
   -2.3680    1.5337    3.1790 N   0  0  0  0  0  0  0  0  0  0  0  0
   -2.1212    1.9597    1.8266 C   0  0  2  0  0  0  0  0  0  0  0  0
   -0.7862    1.3744    1.3854 C   0  0  0  0  0  0  0  0  0  0  0  0
    0.0859    1.0216    2.1767 O   0  0  0  0  0  0  0  0  0  0  0  0
   -2.1124    3.4765    1.7171 C   0  0  0  0  0  0  0  0  0  0  0  0
   -3.1331    1.9695    3.6908 H   0  0  0  0  0  0  0  0  0  0  0  0
   -2.9253    1.5413    1.2115 H   0  0  0  0  0  0  0  0  0  0  0  0
   -1.3133    3.9138    2.3268 H   0  0  0  0  0  0  0  0  0  0  0  0
   -1.9529    3.7988    0.6829 H   0  0  0  0  0  0  0  0  0  0  0  0
   -3.0626    3.8977    2.0629 H   0  0  0  0  0  0  0  0  0  0  0  0
   -0.6635    1.3313    0.0020 N   0  0  0  0  0  0  0  0  0  0  0  0
    0.5138    0.8305   -0.6617 C   0  0  2  0  0  0  0  0  0  0  0  0
    1.4951    0.4017    0.4234 C   0  0  0  0  0  0  0  0  0  0  0  0
    2.6007    0.9192    0.5681 O   0  0  0  0  0  0  0  0  0  0  0  0
    1.1549    1.8817   -1.5749 C   0  0  0  0  0  0  0  0  0  0  0  0
    0.2586    2.2842   -2.7205 C   0  0  0  0  0  0  0  0  0  0  0  0
    0.0764    1.4466   -3.7924 N   0  0  0  0  0  0  0  0  0  0  0  0
   -0.4587    3.4475   -2.8718 C   0  0  0  0  0  0  0  0  0  0  0  0
   -0.7448    2.0950   -4.5881 C   0  0  0  0  0  0  0  0  0  0  0  0
   -1.0959    3.3119   -4.0729 N   0  0  0  0  0  0  0  0  0  0  0  0
   -1.4467    1.6280   -0.5753 H   0  0  0  0  0  0  0  0  0  0  0  0
    0.1998   -0.0524   -1.2308 H   0  0  0  0  0  0  0  0  0  0  0  0
    2.1120    1.5120   -1.9671 H   0  0  0  0  0  0  0  0  0  0  0  0
    1.4076    2.7841   -1.0027 H   0  0  0  0  0  0  0  0  0  0  0  0
   -0.5717    4.3301   -2.2588 H   0  0  0  0  0  0  0  0  0  0  0  0
   -1.1195    1.7442   -5.5393 H   0  0  0  0  0  0  0  0  0  0  0  0
   -1.7145    3.9871   -4.5019 H   0  0  0  0  0  0  0  0  0  0  0  0
    0.9679   -0.5906    1.2381 N   0  0  0  0  0  0  0  0  0  0  0  0
    1.6818   -1.1599    2.3584 C   0  0  2  0  0  0  0  0  0  0  0  0
    3.0677   -1.5665    1.8754 C   0  0  0  0  0  0  0  0  0  0  0  0
    3.3278   -1.7903    0.6950 O   0  0  0  0  0  0  0  0  0  0  0  0
    0.9378   -2.3517    2.9406 C   0  0  0  0  0  0  0  0  0  0  0  0
    0.0334   -0.9339    1.0369 H   0  0  0  0  0  0  0  0  0  0  0  0
    1.7739   -0.3683    3.1100 H   0  0  0  0  0  0  0  0  0  0  0  0
    0.8357   -3.1551    2.2021 H   0  0  0  0  0  0  0  0  0  0  0  0
    1.4654   -2.7642    3.8069 H   0  0  0  0  0  0  0  0  0  0  0  0
   -0.0696   -2.0640    3.2602 H   0  0  0  0  0  0  0  0  0  0  0  0
    3.9695   -1.6920    2.9230 N   0  0  0  0  0  0  0  0  0  0  0  0
    5.3464   -2.0798    2.7241 C   0  0  0  0  0  0  0  0  0  0  0  0
    3.6718   -1.4682    3.8680 H   0  0  0  0  0  0  0  0  0  0  0  0
    5.4392   -3.1710    2.8276 H   0  0  0  0  0  0  0  0  0  0  0  0
    5.6704   -1.7782    1.7171 H   0  0  0  0  0  0  0  0  0  0  0  0
    5.9788   -1.5852    3.4762 H   0  0  0  0  0  0  0  0  0  0  0  0
 22 24  2  0  0  0  0
 24 26  1  0  0  0  0
 23 25  2  0  0  0  0
 25 26  1  0  0  0  0
 21 22  1  0  0  0  0
 22 23  1  0  0  0  0
  1  3  1  0  0  0  0
  1  7  1  0  0  0  0
  1  2  2  0  0  0  0
 35 36  1  0  0  0  0
 36 44  1  0  0  0  0
 36 37  2  0  0  0  0
  8  9  1  0  0  0  0
  9 17  1  0  0  0  0
  9 10  2  0  0  0  0
 18 19  1  0  0  0  0
 19 34  1  0  0  0  0
 19 20  2  0  0  0  0
 35 38  1  0  0  0  0
  8 11  1  0  0  0  0
 44 45  1  0  0  0  0
 18 21  1  0  0  0  0
 34 35  1  0  0  0  0
  7  8  1  0  0  0  0
 17 18  1  0  0  0  0
 24 31  1  0  0  0  0
 25 32  1  0  0  0  0
  3  4  1  0  0  0  0
  3  5  1  0  0  0  0
  3  6  1  0  0  0  0
 38 41  1  0  0  0  0
 38 42  1  0  0  0  0
 38 43  1  0  0  0  0
 11 14  1  0  0  0  0
 11 15  1  0  0  0  0
 11 16  1  0  0  0  0
 45 47  1  0  0  0  0
 45 48  1  0  0  0  0
 45 49  1  0  0  0  0
 21 29  1  0  0  0  0
 21 30  1  0  0  0  0
 35 40  1  0  0  0  0
  8 13  1  0  0  0  0
 18 28  1  0  0  0  0
 26 33  1  0  0  0  0
 44 46  1  0  0  0  0
  7 12  1  0  0  0  0
 34 39  1  0  0  0  0
 17 27  1  0  0  0  0
M  END
$$$$

  -OEChem-05262214473D

 49 49  0     1  0  0  0  0  0999 V2000
   -1.6183    0.5613    3.8201 C   0  0  0  0  0  0  0  0  0  0  0  0
   -0.6710   -0.0534    3.3444 O   0  0  0  0  0  0  0  0  0  0  0  0
   -2.0502    0.2789    5.2208 C   0  0  0  0  0  0  0  0  0  0  0  0
   -2.8099   -0.5175    5.2742 H   0  0  0  0  0  0  0  0  0  0  0  0
   -1.2190   -0.0687    5.8551 H   0  0  0  0  0  0  0  0  0  0  0  0
   -2.4882    1.1338    5.7604 H   0  0  0  0  0  0  0  0  0  0  0  0
   -2.3680    1.5337    3.1790 N   0  0  0  0  0  0  0  0  0  0  0  0
   -2.1212    1.9597    1.8266 C   0  0  2  0  0  0  0  0  0  0  0  0
   -0.7862    1.3744    1.3854 C   0  0  0  0  0  0  0  0  0  0  0  0
    0.0859    1.0216    2.1767 O   0  0  0  0  0  0  0  0  0  0  0  0
   -2.1124    3.4765    1.7171 C   0  0  0  0  0  0  0  0  0  0  0  0
   -3.1331    1.9695    3.6908 H   0  0  0  0  0  0  0  0  0  0  0  0
   -2.9253    1.5413    1.2115 H   0  0  0  0  0  0  0  0  0  0  0  0
   -1.3133    3.9138    2.3268 H   0  0  0  0  0  0  0  0  0  0  0  0
   -1.9529    3.7988    0.6829 H   0  0  0  0  0  0  0  0  0  0  0  0
   -3.0626    3.8977    2.0629 H   0  0  0  0  0  0  0  0  0  0  0  0
   -0.6635    1.3313    0.0020 N   0  0  0  0  0  0  0  0  0  0  0  0
    0.5138    0.8305   -0.6617 C   0  0  2  0  0  0  0  0  0  0  0  0
    1.4951    0.4017    0.4234 C   0  0  0  0  0  0  0  0  0  0  0  0
    2.4718    1.0747    0.7461 O   0  0  0  0  0  0  0  0  0  0  0  0
    1.1549    1.8817   -1.5749 C   0  0  0  0  0  0  0  0  0  0  0  0
    0.2586    2.2842   -2.7205 C   0  0  0  0  0  0  0  0  0  0  0  0
    0.0764    1.4466   -3.7924 N   0  0  0  0  0  0  0  0  0  0  0  0
   -0.4587    3.4475   -2.8718 C   0  0  0  0  0  0  0  0  0  0  0  0
   -0.7448    2.0950   -4.5881 C   0  0  0  0  0  0  0  0  0  0  0  0
   -1.0959    3.3119   -4.0729 N   0  0  0  0  0  0  0  0  0  0  0  0
   -1.4467    1.6280   -0.5753 H   0  0  0  0  0  0  0  0  0  0  0  0
    0.1998   -0.0524   -1.2308 H   0  0  0  0  0  0  0  0  0  0  0  0
    2.1120    1.5120   -1.9671 H   0  0  0  0  0  0  0  0  0  0  0  0
    1.4076    2.7841   -1.0027 H   0  0  0  0  0  0  0  0  0  0  0  0
   -0.5717    4.3301   -2.2588 H   0  0  0  0  0  0  0  0  0  0  0  0
   -1.1195    1.7442   -5.5393 H   0  0  0  0  0  0  0  0  0  0  0  0
   -1.7145    3.9871   -4.5019 H   0  0  0  0  0  0  0  0  0  0  0  0
    1.1208   -0.7946    1.0193 N   0  0  0  0  0  0  0  0  0  0  0  0
    1.8647   -1.4133    2.0929 C   0  0  2  0  0  0  0  0  0  0  0  0
    3.3280   -1.4766    1.6755 C   0  0  0  0  0  0  0  0  0  0  0  0
    3.6930   -1.4424    0.5022 O   0  0  0  0  0  0  0  0  0  0  0  0
    1.3292   -2.8011    2.4091 C   0  0  0  0  0  0  0  0  0  0  0  0
    0.2818   -1.2587    0.6839 H   0  0  0  0  0  0  0  0  0  0  0  0
    1.7614   -0.7605    2.9664 H   0  0  0  0  0  0  0  0  0  0  0  0
    1.4242   -3.4694    1.5455 H   0  0  0  0  0  0  0  0  0  0  0  0
    1.8753   -3.2569    3.2415 H   0  0  0  0  0  0  0  0  0  0  0  0
    0.2688   -2.7572    2.6802 H   0  0  0  0  0  0  0  0  0  0  0  0
    4.1757   -1.6192    2.7651 N   0  0  0  0  0  0  0  0  0  0  0  0
    5.6104   -1.7153    2.6294 C   0  0  0  0  0  0  0  0  0  0  0  0
    3.7874   -1.6193    3.7037 H   0  0  0  0  0  0  0  0  0  0  0  0
    5.9032   -2.7736    2.5649 H   0  0  0  0  0  0  0  0  0  0  0  0
    5.9281   -1.1908    1.7161 H   0  0  0  0  0  0  0  0  0  0  0  0
    6.0930   -1.2541    3.5037 H   0  0  0  0  0  0  0  0  0  0  0  0
 22 24  2  0  0  0  0
 24 26  1  0  0  0  0
 23 25  2  0  0  0  0
 25 26  1  0  0  0  0
 21 22  1  0  0  0  0
 22 23  1  0  0  0  0
  1  3  1  0  0  0  0
  1  7  1  0  0  0  0
  1  2  2  0  0  0  0
 35 36  1  0  0  0  0
 36 44  1  0  0  0  0
 36 37  2  0  0  0  0
  8  9  1  0  0  0  0
  9 17  1  0  0  0  0
  9 10  2  0  0  0  0
 18 19  1  0  0  0  0
 19 34  1  0  0  0  0
 19 20  2  0  0  0  0
 35 38  1  0  0  0  0
  8 11  1  0  0  0  0
 44 45  1  0  0  0  0
 18 21  1  0  0  0  0
 34 35  1  0  0  0  0
  7  8  1  0  0  0  0
 17 18  1  0  0  0  0
 24 31  1  0  0  0  0
 25 32  1  0  0  0  0
  3  4  1  0  0  0  0
  3  5  1  0  0  0  0
  3  6  1  0  0  0  0
 38 41  1  0  0  0  0
 38 42  1  0  0  0  0
 38 43  1  0  0  0  0
 11 14  1  0  0  0  0
 11 15  1  0  0  0  0
 11 16  1  0  0  0  0
 45 47  1  0  0  0  0
 45 48  1  0  0  0  0
 45 49  1  0  0  0  0
 21 29  1  0  0  0  0
 21 30  1  0  0  0  0
 35 40  1  0  0  0  0
  8 13  1  0  0  0  0
 18 28  1  0  0  0  0
 26 33  1  0  0  0  0
 44 46  1  0  0  0  0
  7 12  1  0  0  0  0
 34 39  1  0  0  0  0
 17 27  1  0  0  0  0
M  END
$$$$

  -OEChem-05262214473D

 49 49  0     1  0  0  0  0  0999 V2000
   -1.6183    0.5613    3.8201 C   0  0  0  0  0  0  0  0  0  0  0  0
   -0.6710   -0.0534    3.3444 O   0  0  0  0  0  0  0  0  0  0  0  0
   -2.0502    0.2789    5.2208 C   0  0  0  0  0  0  0  0  0  0  0  0
   -2.8099   -0.5175    5.2742 H   0  0  0  0  0  0  0  0  0  0  0  0
   -1.2190   -0.0687    5.8551 H   0  0  0  0  0  0  0  0  0  0  0  0
   -2.4882    1.1338    5.7604 H   0  0  0  0  0  0  0  0  0  0  0  0
   -2.3680    1.5337    3.1790 N   0  0  0  0  0  0  0  0  0  0  0  0
   -2.1212    1.9597    1.8266 C   0  0  2  0  0  0  0  0  0  0  0  0
   -0.7862    1.3744    1.3854 C   0  0  0  0  0  0  0  0  0  0  0  0
    0.0859    1.0216    2.1767 O   0  0  0  0  0  0  0  0  0  0  0  0
   -2.1124    3.4765    1.7171 C   0  0  0  0  0  0  0  0  0  0  0  0
   -3.1331    1.9695    3.6908 H   0  0  0  0  0  0  0  0  0  0  0  0
   -2.9253    1.5413    1.2115 H   0  0  0  0  0  0  0  0  0  0  0  0
   -1.3133    3.9138    2.3268 H   0  0  0  0  0  0  0  0  0  0  0  0
   -1.9529    3.7988    0.6829 H   0  0  0  0  0  0  0  0  0  0  0  0
   -3.0626    3.8977    2.0629 H   0  0  0  0  0  0  0  0  0  0  0  0
   -0.6635    1.3313    0.0020 N   0  0  0  0  0  0  0  0  0  0  0  0
    0.5138    0.8305   -0.6617 C   0  0  2  0  0  0  0  0  0  0  0  0
    1.4951    0.4017    0.4234 C   0  0  0  0  0  0  0  0  0  0  0  0
    2.3058    1.1715    0.9345 O   0  0  0  0  0  0  0  0  0  0  0  0
    1.1549    1.8817   -1.5749 C   0  0  0  0  0  0  0  0  0  0  0  0
    0.2586    2.2842   -2.7205 C   0  0  0  0  0  0  0  0  0  0  0  0
    0.0764    1.4466   -3.7924 N   0  0  0  0  0  0  0  0  0  0  0  0
   -0.4587    3.4475   -2.8718 C   0  0  0  0  0  0  0  0  0  0  0  0
   -0.7448    2.0950   -4.5881 C   0  0  0  0  0  0  0  0  0  0  0  0
   -1.0959    3.3119   -4.0729 N   0  0  0  0  0  0  0  0  0  0  0  0
   -1.4467    1.6280   -0.5753 H   0  0  0  0  0  0  0  0  0  0  0  0
    0.1998   -0.0524   -1.2308 H   0  0  0  0  0  0  0  0  0  0  0  0
    2.1120    1.5120   -1.9671 H   0  0  0  0  0  0  0  0  0  0  0  0
    1.4076    2.7841   -1.0027 H   0  0  0  0  0  0  0  0  0  0  0  0
   -0.5717    4.3301   -2.2588 H   0  0  0  0  0  0  0  0  0  0  0  0
   -1.1195    1.7442   -5.5393 H   0  0  0  0  0  0  0  0  0  0  0  0
   -1.7145    3.9871   -4.5019 H   0  0  0  0  0  0  0  0  0  0  0  0
    1.3219   -0.9271    0.7850 N   0  0  0  0  0  0  0  0  0  0  0  0
    2.1074   -1.5801    1.8074 C   0  0  2  0  0  0  0  0  0  0  0  0
    3.5774   -1.3085    1.5164 C   0  0  0  0  0  0  0  0  0  0  0  0
    3.9957   -1.0069    0.4005 O   0  0  0  0  0  0  0  0  0  0  0  0
    1.8286   -3.0745    1.8493 C   0  0  0  0  0  0  0  0  0  0  0  0
    0.6072   -1.4678    0.3070 H   0  0  0  0  0  0  0  0  0  0  0  0
    1.8319   -1.1176    2.7615 H   0  0  0  0  0  0  0  0  0  0  0  0
    2.0985   -3.5552    0.9018 H   0  0  0  0  0  0  0  0  0  0  0  0
    2.4031   -3.5632    2.6431 H   0  0  0  0  0  0  0  0  0  0  0  0
    0.7656   -3.2678    2.0291 H   0  0  0  0  0  0  0  0  0  0  0  0
    4.3731   -1.4847    2.6398 N   0  0  0  0  0  0  0  0  0  0  0  0
    5.8052   -1.2987    2.6178 C   0  0  0  0  0  0  0  0  0  0  0  0
    3.9389   -1.7167    3.5282 H   0  0  0  0  0  0  0  0  0  0  0  0
    6.2973   -2.2606    2.4112 H   0  0  0  0  0  0  0  0  0  0  0  0
    6.0689   -0.5758    1.8317 H   0  0  0  0  0  0  0  0  0  0  0  0
    6.1404   -0.9177    3.5938 H   0  0  0  0  0  0  0  0  0  0  0  0
 22 24  2  0  0  0  0
 24 26  1  0  0  0  0
 23 25  2  0  0  0  0
 25 26  1  0  0  0  0
 21 22  1  0  0  0  0
 22 23  1  0  0  0  0
  1  3  1  0  0  0  0
  1  7  1  0  0  0  0
  1  2  2  0  0  0  0
 35 36  1  0  0  0  0
 36 44  1  0  0  0  0
 36 37  2  0  0  0  0
  8  9  1  0  0  0  0
  9 17  1  0  0  0  0
  9 10  2  0  0  0  0
 18 19  1  0  0  0  0
 19 34  1  0  0  0  0
 19 20  2  0  0  0  0
 35 38  1  0  0  0  0
  8 11  1  0  0  0  0
 44 45  1  0  0  0  0
 18 21  1  0  0  0  0
 34 35  1  0  0  0  0
  7  8  1  0  0  0  0
 17 18  1  0  0  0  0
 24 31  1  0  0  0  0
 25 32  1  0  0  0  0
  3  4  1  0  0  0  0
  3  5  1  0  0  0  0
  3  6  1  0  0  0  0
 38 41  1  0  0  0  0
 38 42  1  0  0  0  0
 38 43  1  0  0  0  0
 11 14  1  0  0  0  0
 11 15  1  0  0  0  0
 11 16  1  0  0  0  0
 45 47  1  0  0  0  0
 45 48  1  0  0  0  0
 45 49  1  0  0  0  0
 21 29  1  0  0  0  0
 21 30  1  0  0  0  0
 35 40  1  0  0  0  0
  8 13  1  0  0  0  0
 18 28  1  0  0  0  0
 26 33  1  0  0  0  0
 44 46  1  0  0  0  0
  7 12  1  0  0  0  0
 34 39  1  0  0  0  0
 17 27  1  0  0  0  0
M  END
$$$$

  -OEChem-05262214473D

 49 49  0     1  0  0  0  0  0999 V2000
   -1.6183    0.5613    3.8201 C   0  0  0  0  0  0  0  0  0  0  0  0
   -0.6710   -0.0534    3.3444 O   0  0  0  0  0  0  0  0  0  0  0  0
   -2.0502    0.2789    5.2208 C   0  0  0  0  0  0  0  0  0  0  0  0
   -2.8099   -0.5175    5.2742 H   0  0  0  0  0  0  0  0  0  0  0  0
   -1.2190   -0.0687    5.8551 H   0  0  0  0  0  0  0  0  0  0  0  0
   -2.4882    1.1338    5.7604 H   0  0  0  0  0  0  0  0  0  0  0  0
   -2.3680    1.5337    3.1790 N   0  0  0  0  0  0  0  0  0  0  0  0
   -2.1212    1.9597    1.8266 C   0  0  2  0  0  0  0  0  0  0  0  0
   -0.7862    1.3744    1.3854 C   0  0  0  0  0  0  0  0  0  0  0  0
    0.0859    1.0216    2.1767 O   0  0  0  0  0  0  0  0  0  0  0  0
   -2.1124    3.4765    1.7171 C   0  0  0  0  0  0  0  0  0  0  0  0
   -3.1331    1.9695    3.6908 H   0  0  0  0  0  0  0  0  0  0  0  0
   -2.9253    1.5413    1.2115 H   0  0  0  0  0  0  0  0  0  0  0  0
   -1.3133    3.9138    2.3268 H   0  0  0  0  0  0  0  0  0  0  0  0
   -1.9529    3.7988    0.6829 H   0  0  0  0  0  0  0  0  0  0  0  0
   -3.0626    3.8977    2.0629 H   0  0  0  0  0  0  0  0  0  0  0  0
   -0.6635    1.3313    0.0020 N   0  0  0  0  0  0  0  0  0  0  0  0
    0.5138    0.8305   -0.6617 C   0  0  2  0  0  0  0  0  0  0  0  0
    1.4951    0.4017    0.4234 C   0  0  0  0  0  0  0  0  0  0  0  0
    2.1138    1.2030    1.1206 O   0  0  0  0  0  0  0  0  0  0  0  0
    1.1549    1.8817   -1.5749 C   0  0  0  0  0  0  0  0  0  0  0  0
    0.2586    2.2842   -2.7205 C   0  0  0  0  0  0  0  0  0  0  0  0
    0.0764    1.4466   -3.7924 N   0  0  0  0  0  0  0  0  0  0  0  0
   -0.4587    3.4475   -2.8718 C   0  0  0  0  0  0  0  0  0  0  0  0
   -0.7448    2.0950   -4.5881 C   0  0  0  0  0  0  0  0  0  0  0  0
   -1.0959    3.3119   -4.0729 N   0  0  0  0  0  0  0  0  0  0  0  0
   -1.4467    1.6280   -0.5753 H   0  0  0  0  0  0  0  0  0  0  0  0
    0.1998   -0.0524   -1.2308 H   0  0  0  0  0  0  0  0  0  0  0  0
    2.1120    1.5120   -1.9671 H   0  0  0  0  0  0  0  0  0  0  0  0
    1.4076    2.7841   -1.0027 H   0  0  0  0  0  0  0  0  0  0  0  0
   -0.5717    4.3301   -2.2588 H   0  0  0  0  0  0  0  0  0  0  0  0
   -1.1195    1.7442   -5.5393 H   0  0  0  0  0  0  0  0  0  0  0  0
   -1.7145    3.9871   -4.5019 H   0  0  0  0  0  0  0  0  0  0  0  0
    1.5577   -0.9789    0.5513 N   0  0  0  0  0  0  0  0  0  0  0  0
    2.3933   -1.6489    1.5216 C   0  0  2  0  0  0  0  0  0  0  0  0
    3.7990   -1.0737    1.4088 C   0  0  0  0  0  0  0  0  0  0  0  0
    4.2153   -0.5135    0.3969 O   0  0  0  0  0  0  0  0  0  0  0  0
    2.4022   -3.1533    1.2993 C   0  0  0  0  0  0  0  0  0  0  0  0
    0.9874   -1.5470   -0.0683 H   0  0  0  0  0  0  0  0  0  0  0  0
    1.9807   -1.4155    2.5092 H   0  0  0  0  0  0  0  0  0  0  0  0
    2.8123   -3.4066    0.3148 H   0  0  0  0  0  0  0  0  0  0  0  0
    3.0128   -3.6621    2.0525 H   0  0  0  0  0  0  0  0  0  0  0  0
    1.3869   -3.5610    1.3512 H   0  0  0  0  0  0  0  0  0  0  0  0
    4.5481   -1.2975    2.5555 N   0  0  0  0  0  0  0  0  0  0  0  0
    5.9174   -0.8586    2.6902 C   0  0  0  0  0  0  0  0  0  0  0  0
    4.1159   -1.7537    3.3535 H   0  0  0  0  0  0  0  0  0  0  0  0
    6.5946   -1.6669    2.3769 H   0  0  0  0  0  0  0  0  0  0  0  0
    6.0832    0.0249    2.0562 H   0  0  0  0  0  0  0  0  0  0  0  0
    6.1176   -0.5992    3.7402 H   0  0  0  0  0  0  0  0  0  0  0  0
 22 24  2  0  0  0  0
 24 26  1  0  0  0  0
 23 25  2  0  0  0  0
 25 26  1  0  0  0  0
 21 22  1  0  0  0  0
 22 23  1  0  0  0  0
  1  3  1  0  0  0  0
  1  7  1  0  0  0  0
  1  2  2  0  0  0  0
 35 36  1  0  0  0  0
 36 44  1  0  0  0  0
 36 37  2  0  0  0  0
  8  9  1  0  0  0  0
  9 17  1  0  0  0  0
  9 10  2  0  0  0  0
 18 19  1  0  0  0  0
 19 34  1  0  0  0  0
 19 20  2  0  0  0  0
 35 38  1  0  0  0  0
  8 11  1  0  0  0  0
 44 45  1  0  0  0  0
 18 21  1  0  0  0  0
 34 35  1  0  0  0  0
  7  8  1  0  0  0  0
 17 18  1  0  0  0  0
 24 31  1  0  0  0  0
 25 32  1  0  0  0  0
  3  4  1  0  0  0  0
  3  5  1  0  0  0  0
  3  6  1  0  0  0  0
 38 41  1  0  0  0  0
 38 42  1  0  0  0  0
 38 43  1  0  0  0  0
 11 14  1  0  0  0  0
 11 15  1  0  0  0  0
 11 16  1  0  0  0  0
 45 47  1  0  0  0  0
 45 48  1  0  0  0  0
 45 49  1  0  0  0  0
 21 29  1  0  0  0  0
 21 30  1  0  0  0  0
 35 40  1  0  0  0  0
  8 13  1  0  0  0  0
 18 28  1  0  0  0  0
 26 33  1  0  0  0  0
 44 46  1  0  0  0  0
  7 12  1  0  0  0  0
 34 39  1  0  0  0  0
 17 27  1  0  0  0  0
M  END
$$$$

  -OEChem-05262214473D

 49 49  0     1  0  0  0  0  0999 V2000
   -1.6183    0.5613    3.8201 C   0  0  0  0  0  0  0  0  0  0  0  0
   -0.6710   -0.0534    3.3444 O   0  0  0  0  0  0  0  0  0  0  0  0
   -2.0502    0.2789    5.2208 C   0  0  0  0  0  0  0  0  0  0  0  0
   -2.8099   -0.5175    5.2742 H   0  0  0  0  0  0  0  0  0  0  0  0
   -1.2190   -0.0687    5.8551 H   0  0  0  0  0  0  0  0  0  0  0  0
   -2.4882    1.1338    5.7604 H   0  0  0  0  0  0  0  0  0  0  0  0
   -2.3680    1.5337    3.1790 N   0  0  0  0  0  0  0  0  0  0  0  0
   -2.1212    1.9597    1.8266 C   0  0  2  0  0  0  0  0  0  0  0  0
   -0.7862    1.3744    1.3854 C   0  0  0  0  0  0  0  0  0  0  0  0
    0.0859    1.0216    2.1767 O   0  0  0  0  0  0  0  0  0  0  0  0
   -2.1124    3.4765    1.7171 C   0  0  0  0  0  0  0  0  0  0  0  0
   -3.1331    1.9695    3.6908 H   0  0  0  0  0  0  0  0  0  0  0  0
   -2.9253    1.5413    1.2115 H   0  0  0  0  0  0  0  0  0  0  0  0
   -1.3133    3.9138    2.3268 H   0  0  0  0  0  0  0  0  0  0  0  0
   -1.9529    3.7988    0.6829 H   0  0  0  0  0  0  0  0  0  0  0  0
   -3.0626    3.8977    2.0629 H   0  0  0  0  0  0  0  0  0  0  0  0
   -0.6635    1.3313    0.0020 N   0  0  0  0  0  0  0  0  0  0  0  0
    0.5138    0.8305   -0.6617 C   0  0  2  0  0  0  0  0  0  0  0  0
    1.4951    0.4017    0.4234 C   0  0  0  0  0  0  0  0  0  0  0  0
    1.9091    1.1671    1.2916 O   0  0  0  0  0  0  0  0  0  0  0  0
    1.1549    1.8817   -1.5749 C   0  0  0  0  0  0  0  0  0  0  0  0
    0.2586    2.2842   -2.7205 C   0  0  0  0  0  0  0  0  0  0  0  0
    0.0764    1.4466   -3.7924 N   0  0  0  0  0  0  0  0  0  0  0  0
   -0.4587    3.4475   -2.8718 C   0  0  0  0  0  0  0  0  0  0  0  0
   -0.7448    2.0950   -4.5881 C   0  0  0  0  0  0  0  0  0  0  0  0
   -1.0959    3.3119   -4.0729 N   0  0  0  0  0  0  0  0  0  0  0  0
   -1.4467    1.6280   -0.5753 H   0  0  0  0  0  0  0  0  0  0  0  0
    0.1998   -0.0524   -1.2308 H   0  0  0  0  0  0  0  0  0  0  0  0
    2.1120    1.5120   -1.9671 H   0  0  0  0  0  0  0  0  0  0  0  0
    1.4076    2.7841   -1.0027 H   0  0  0  0  0  0  0  0  0  0  0  0
   -0.5717    4.3301   -2.2588 H   0  0  0  0  0  0  0  0  0  0  0  0
   -1.1195    1.7442   -5.5393 H   0  0  0  0  0  0  0  0  0  0  0  0
   -1.7145    3.9871   -4.5019 H   0  0  0  0  0  0  0  0  0  0  0  0
    1.8120   -0.9466    0.3340 N   0  0  0  0  0  0  0  0  0  0  0  0
    2.7030   -1.6152    1.2549 C   0  0  2  0  0  0  0  0  0  0  0  0
    3.9775   -0.7881    1.3601 C   0  0  0  0  0  0  0  0  0  0  0  0
    4.3367    0.0041    0.4915 O   0  0  0  0  0  0  0  0  0  0  0  0
    3.0108   -3.0322    0.7967 C   0  0  0  0  0  0  0  0  0  0  0  0
    1.3967   -1.4910   -0.4163 H   0  0  0  0  0  0  0  0  0  0  0  0
    2.1977   -1.6338    2.2267 H   0  0  0  0  0  0  0  0  0  0  0  0
    3.5173   -3.0338   -0.1754 H   0  0  0  0  0  0  0  0  0  0  0  0
    3.6630   -3.5469    1.5099 H   0  0  0  0  0  0  0  0  0  0  0  0
    2.0904   -3.6168    0.6929 H   0  0  0  0  0  0  0  0  0  0  0  0
    4.6887   -1.0704    2.5180 N   0  0  0  0  0  0  0  0  0  0  0  0
    5.9395   -0.4249    2.8416 C   0  0  0  0  0  0  0  0  0  0  0  0
    4.3064   -1.7276    3.1915 H   0  0  0  0  0  0  0  0  0  0  0  0
    6.7750   -1.0329    2.4643 H   0  0  0  0  0  0  0  0  0  0  0  0
    5.9701    0.5704    2.3741 H   0  0  0  0  0  0  0  0  0  0  0  0
    6.0262   -0.3200    3.9332 H   0  0  0  0  0  0  0  0  0  0  0  0
 22 24  2  0  0  0  0
 24 26  1  0  0  0  0
 23 25  2  0  0  0  0
 25 26  1  0  0  0  0
 21 22  1  0  0  0  0
 22 23  1  0  0  0  0
  1  3  1  0  0  0  0
  1  7  1  0  0  0  0
  1  2  2  0  0  0  0
 35 36  1  0  0  0  0
 36 44  1  0  0  0  0
 36 37  2  0  0  0  0
  8  9  1  0  0  0  0
  9 17  1  0  0  0  0
  9 10  2  0  0  0  0
 18 19  1  0  0  0  0
 19 34  1  0  0  0  0
 19 20  2  0  0  0  0
 35 38  1  0  0  0  0
  8 11  1  0  0  0  0
 44 45  1  0  0  0  0
 18 21  1  0  0  0  0
 34 35  1  0  0  0  0
  7  8  1  0  0  0  0
 17 18  1  0  0  0  0
 24 31  1  0  0  0  0
 25 32  1  0  0  0  0
  3  4  1  0  0  0  0
  3  5  1  0  0  0  0
  3  6  1  0  0  0  0
 38 41  1  0  0  0  0
 38 42  1  0  0  0  0
 38 43  1  0  0  0  0
 11 14  1  0  0  0  0
 11 15  1  0  0  0  0
 11 16  1  0  0  0  0
 45 47  1  0  0  0  0
 45 48  1  0  0  0  0
 45 49  1  0  0  0  0
 21 29  1  0  0  0  0
 21 30  1  0  0  0  0
 35 40  1  0  0  0  0
  8 13  1  0  0  0  0
 18 28  1  0  0  0  0
 26 33  1  0  0  0  0
 44 46  1  0  0  0  0
  7 12  1  0  0  0  0
 34 39  1  0  0  0  0
 17 27  1  0  0  0  0
M  END
$$$$

  -OEChem-05262214473D

 49 49  0     1  0  0  0  0  0999 V2000
   -1.6183    0.5613    3.8201 C   0  0  0  0  0  0  0  0  0  0  0  0
   -0.6710   -0.0534    3.3444 O   0  0  0  0  0  0  0  0  0  0  0  0
   -2.0502    0.2789    5.2208 C   0  0  0  0  0  0  0  0  0  0  0  0
   -2.8099   -0.5175    5.2742 H   0  0  0  0  0  0  0  0  0  0  0  0
   -1.2190   -0.0687    5.8551 H   0  0  0  0  0  0  0  0  0  0  0  0
   -2.4882    1.1338    5.7604 H   0  0  0  0  0  0  0  0  0  0  0  0
   -2.3680    1.5337    3.1790 N   0  0  0  0  0  0  0  0  0  0  0  0
   -2.1212    1.9597    1.8266 C   0  0  2  0  0  0  0  0  0  0  0  0
   -0.7862    1.3744    1.3854 C   0  0  0  0  0  0  0  0  0  0  0  0
    0.0859    1.0216    2.1767 O   0  0  0  0  0  0  0  0  0  0  0  0
   -2.1124    3.4765    1.7171 C   0  0  0  0  0  0  0  0  0  0  0  0
   -3.1331    1.9695    3.6908 H   0  0  0  0  0  0  0  0  0  0  0  0
   -2.9253    1.5413    1.2115 H   0  0  0  0  0  0  0  0  0  0  0  0
   -1.3133    3.9138    2.3268 H   0  0  0  0  0  0  0  0  0  0  0  0
   -1.9529    3.7988    0.6829 H   0  0  0  0  0  0  0  0  0  0  0  0
   -3.0626    3.8977    2.0629 H   0  0  0  0  0  0  0  0  0  0  0  0
   -0.6635    1.3313    0.0020 N   0  0  0  0  0  0  0  0  0  0  0  0
    0.5138    0.8305   -0.6617 C   0  0  2  0  0  0  0  0  0  0  0  0
    1.4951    0.4017    0.4234 C   0  0  0  0  0  0  0  0  0  0  0  0
    1.7055    1.0662    1.4358 O   0  0  0  0  0  0  0  0  0  0  0  0
    1.1549    1.8817   -1.5749 C   0  0  0  0  0  0  0  0  0  0  0  0
    0.2586    2.2842   -2.7205 C   0  0  0  0  0  0  0  0  0  0  0  0
    0.0764    1.4466   -3.7924 N   0  0  0  0  0  0  0  0  0  0  0  0
   -0.4587    3.4475   -2.8718 C   0  0  0  0  0  0  0  0  0  0  0  0
   -0.7448    2.0950   -4.5881 C   0  0  0  0  0  0  0  0  0  0  0  0
   -1.0959    3.3119   -4.0729 N   0  0  0  0  0  0  0  0  0  0  0  0
   -1.4467    1.6280   -0.5753 H   0  0  0  0  0  0  0  0  0  0  0  0
    0.1998   -0.0524   -1.2308 H   0  0  0  0  0  0  0  0  0  0  0  0
    2.1120    1.5120   -1.9671 H   0  0  0  0  0  0  0  0  0  0  0  0
    1.4076    2.7841   -1.0027 H   0  0  0  0  0  0  0  0  0  0  0  0
   -0.5717    4.3301   -2.2588 H   0  0  0  0  0  0  0  0  0  0  0  0
   -1.1195    1.7442   -5.5393 H   0  0  0  0  0  0  0  0  0  0  0  0
   -1.7145    3.9871   -4.5019 H   0  0  0  0  0  0  0  0  0  0  0  0
    2.0674   -0.8324    0.1481 N   0  0  0  0  0  0  0  0  0  0  0  0
    3.0153   -1.4810    1.0254 C   0  0  2  0  0  0  0  0  0  0  0  0
    4.1009   -0.4713    1.3737 C   0  0  0  0  0  0  0  0  0  0  0  0
    4.3518    0.5106    0.6780 O   0  0  0  0  0  0  0  0  0  0  0  0
    3.6130   -2.7193    0.3757 C   0  0  0  0  0  0  0  0  0  0  0  0
    1.8069   -1.3035   -0.7133 H   0  0  0  0  0  0  0  0  0  0  0  0
    2.4681   -1.7576    1.9332 H   0  0  0  0  0  0  0  0  0  0  0  0
    4.1652   -2.4621   -0.5355 H   0  0  0  0  0  0  0  0  0  0  0  0
    4.3094   -3.2255    1.0524 H   0  0  0  0  0  0  0  0  0  0  0  0
    2.8281   -3.4315    0.0988 H   0  0  0  0  0  0  0  0  0  0  0  0
    4.7855   -0.8189    2.5298 N   0  0  0  0  0  0  0  0  0  0  0  0
    5.8699   -0.0271    3.0617 C   0  0  0  0  0  0  0  0  0  0  0  0
    4.4974   -1.6404    3.0533 H   0  0  0  0  0  0  0  0  0  0  0  0
    6.8260   -0.4018    2.6674 H   0  0  0  0  0  0  0  0  0  0  0  0
    5.7371    1.0234    2.7638 H   0  0  0  0  0  0  0  0  0  0  0  0
    5.8725   -0.0994    4.1594 H   0  0  0  0  0  0  0  0  0  0  0  0
 22 24  2  0  0  0  0
 24 26  1  0  0  0  0
 23 25  2  0  0  0  0
 25 26  1  0  0  0  0
 21 22  1  0  0  0  0
 22 23  1  0  0  0  0
  1  3  1  0  0  0  0
  1  7  1  0  0  0  0
  1  2  2  0  0  0  0
 35 36  1  0  0  0  0
 36 44  1  0  0  0  0
 36 37  2  0  0  0  0
  8  9  1  0  0  0  0
  9 17  1  0  0  0  0
  9 10  2  0  0  0  0
 18 19  1  0  0  0  0
 19 34  1  0  0  0  0
 19 20  2  0  0  0  0
 35 38  1  0  0  0  0
  8 11  1  0  0  0  0
 44 45  1  0  0  0  0
 18 21  1  0  0  0  0
 34 35  1  0  0  0  0
  7  8  1  0  0  0  0
 17 18  1  0  0  0  0
 24 31  1  0  0  0  0
 25 32  1  0  0  0  0
  3  4  1  0  0  0  0
  3  5  1  0  0  0  0
  3  6  1  0  0  0  0
 38 41  1  0  0  0  0
 38 42  1  0  0  0  0
 38 43  1  0  0  0  0
 11 14  1  0  0  0  0
 11 15  1  0  0  0  0
 11 16  1  0  0  0  0
 45 47  1  0  0  0  0
 45 48  1  0  0  0  0
 45 49  1  0  0  0  0
 21 29  1  0  0  0  0
 21 30  1  0  0  0  0
 35 40  1  0  0  0  0
  8 13  1  0  0  0  0
 18 28  1  0  0  0  0
 26 33  1  0  0  0  0
 44 46  1  0  0  0  0
  7 12  1  0  0  0  0
 34 39  1  0  0  0  0
 17 27  1  0  0  0  0
M  END
$$$$

  -OEChem-05262214473D

 49 49  0     1  0  0  0  0  0999 V2000
   -1.6183    0.5613    3.8201 C   0  0  0  0  0  0  0  0  0  0  0  0
   -0.6710   -0.0534    3.3444 O   0  0  0  0  0  0  0  0  0  0  0  0
   -2.0502    0.2789    5.2208 C   0  0  0  0  0  0  0  0  0  0  0  0
   -2.8099   -0.5175    5.2742 H   0  0  0  0  0  0  0  0  0  0  0  0
   -1.2190   -0.0687    5.8551 H   0  0  0  0  0  0  0  0  0  0  0  0
   -2.4882    1.1338    5.7604 H   0  0  0  0  0  0  0  0  0  0  0  0
   -2.3680    1.5337    3.1790 N   0  0  0  0  0  0  0  0  0  0  0  0
   -2.1212    1.9597    1.8266 C   0  0  2  0  0  0  0  0  0  0  0  0
   -0.7862    1.3744    1.3854 C   0  0  0  0  0  0  0  0  0  0  0  0
    0.0859    1.0216    2.1767 O   0  0  0  0  0  0  0  0  0  0  0  0
   -2.1124    3.4765    1.7171 C   0  0  0  0  0  0  0  0  0  0  0  0
   -3.1331    1.9695    3.6908 H   0  0  0  0  0  0  0  0  0  0  0  0
   -2.9253    1.5413    1.2115 H   0  0  0  0  0  0  0  0  0  0  0  0
   -1.3133    3.9138    2.3268 H   0  0  0  0  0  0  0  0  0  0  0  0
   -1.9529    3.7988    0.6829 H   0  0  0  0  0  0  0  0  0  0  0  0
   -3.0626    3.8977    2.0629 H   0  0  0  0  0  0  0  0  0  0  0  0
   -0.6635    1.3313    0.0020 N   0  0  0  0  0  0  0  0  0  0  0  0
    0.5138    0.8305   -0.6617 C   0  0  2  0  0  0  0  0  0  0  0  0
    1.4951    0.4017    0.4234 C   0  0  0  0  0  0  0  0  0  0  0  0
    1.5169    0.9072    1.5436 O   0  0  0  0  0  0  0  0  0  0  0  0
    1.1549    1.8817   -1.5749 C   0  0  0  0  0  0  0  0  0  0  0  0
    0.2586    2.2842   -2.7205 C   0  0  0  0  0  0  0  0  0  0  0  0
    0.0764    1.4466   -3.7924 N   0  0  0  0  0  0  0  0  0  0  0  0
   -0.4587    3.4475   -2.8718 C   0  0  0  0  0  0  0  0  0  0  0  0
   -0.7448    2.0950   -4.5881 C   0  0  0  0  0  0  0  0  0  0  0  0
   -1.0959    3.3119   -4.0729 N   0  0  0  0  0  0  0  0  0  0  0  0
   -1.4467    1.6280   -0.5753 H   0  0  0  0  0  0  0  0  0  0  0  0
    0.1998   -0.0524   -1.2308 H   0  0  0  0  0  0  0  0  0  0  0  0
    2.1120    1.5120   -1.9671 H   0  0  0  0  0  0  0  0  0  0  0  0
    1.4076    2.7841   -1.0027 H   0  0  0  0  0  0  0  0  0  0  0  0
   -0.5717    4.3301   -2.2588 H   0  0  0  0  0  0  0  0  0  0  0  0
   -1.1195    1.7442   -5.5393 H   0  0  0  0  0  0  0  0  0  0  0  0
   -1.7145    3.9871   -4.5019 H   0  0  0  0  0  0  0  0  0  0  0  0
    2.3067   -0.6441    0.0061 N   0  0  0  0  0  0  0  0  0  0  0  0
    3.3090   -1.2557    0.8488 C   0  0  2  0  0  0  0  0  0  0  0  0
    4.1608   -0.1448    1.4486 C   0  0  0  0  0  0  0  0  0  0  0  0
    4.2595    0.9716    0.9437 O   0  0  0  0  0  0  0  0  0  0  0  0
    4.1676   -2.2361    0.0650 C   0  0  0  0  0  0  0  0  0  0  0  0
    2.1903   -0.9974   -0.9391 H   0  0  0  0  0  0  0  0  0  0  0  0
    2.7734   -1.7784    1.6488 H   0  0  0  0  0  0  0  0  0  0  0  0
    4.7119   -1.7306   -0.7410 H   0  0  0  0  0  0  0  0  0  0  0  0
    4.9078   -2.7197    0.7110 H   0  0  0  0  0  0  0  0  0  0  0  0
    3.5498   -3.0176   -0.3904 H   0  0  0  0  0  0  0  0  0  0  0  0
    4.8318   -0.5602    2.5902 N   0  0  0  0  0  0  0  0  0  0  0  0
    5.7134    0.3077    3.3356 C   0  0  0  0  0  0  0  0  0  0  0  0
    4.6758   -1.4979    2.9481 H   0  0  0  0  0  0  0  0  0  0  0  0
    6.7443    0.1833    2.9726 H   0  0  0  0  0  0  0  0  0  0  0  0
    5.4003    1.3533    3.1988 H   0  0  0  0  0  0  0  0  0  0  0  0
    5.6670    0.0477    4.4034 H   0  0  0  0  0  0  0  0  0  0  0  0
 22 24  2  0  0  0  0
 24 26  1  0  0  0  0
 23 25  2  0  0  0  0
 25 26  1  0  0  0  0
 21 22  1  0  0  0  0
 22 23  1  0  0  0  0
  1  3  1  0  0  0  0
  1  7  1  0  0  0  0
  1  2  2  0  0  0  0
 35 36  1  0  0  0  0
 36 44  1  0  0  0  0
 36 37  2  0  0  0  0
  8  9  1  0  0  0  0
  9 17  1  0  0  0  0
  9 10  2  0  0  0  0
 18 19  1  0  0  0  0
 19 34  1  0  0  0  0
 19 20  2  0  0  0  0
 35 38  1  0  0  0  0
  8 11  1  0  0  0  0
 44 45  1  0  0  0  0
 18 21  1  0  0  0  0
 34 35  1  0  0  0  0
  7  8  1  0  0  0  0
 17 18  1  0  0  0  0
 24 31  1  0  0  0  0
 25 32  1  0  0  0  0
  3  4  1  0  0  0  0
  3  5  1  0  0  0  0
  3  6  1  0  0  0  0
 38 41  1  0  0  0  0
 38 42  1  0  0  0  0
 38 43  1  0  0  0  0
 11 14  1  0  0  0  0
 11 15  1  0  0  0  0
 11 16  1  0  0  0  0
 45 47  1  0  0  0  0
 45 48  1  0  0  0  0
 45 49  1  0  0  0  0
 21 29  1  0  0  0  0
 21 30  1  0  0  0  0
 35 40  1  0  0  0  0
  8 13  1  0  0  0  0
 18 28  1  0  0  0  0
 26 33  1  0  0  0  0
 44 46  1  0  0  0  0
  7 12  1  0  0  0  0
 34 39  1  0  0  0  0
 17 27  1  0  0  0  0
M  END
$$$$

  -OEChem-05262214473D

 49 49  0     1  0  0  0  0  0999 V2000
   -1.6183    0.5613    3.8201 C   0  0  0  0  0  0  0  0  0  0  0  0
   -0.6710   -0.0534    3.3444 O   0  0  0  0  0  0  0  0  0  0  0  0
   -2.0502    0.2789    5.2208 C   0  0  0  0  0  0  0  0  0  0  0  0
   -2.8099   -0.5175    5.2742 H   0  0  0  0  0  0  0  0  0  0  0  0
   -1.2190   -0.0687    5.8551 H   0  0  0  0  0  0  0  0  0  0  0  0
   -2.4882    1.1338    5.7604 H   0  0  0  0  0  0  0  0  0  0  0  0
   -2.3680    1.5337    3.1790 N   0  0  0  0  0  0  0  0  0  0  0  0
   -2.1212    1.9597    1.8266 C   0  0  2  0  0  0  0  0  0  0  0  0
   -0.7862    1.3744    1.3854 C   0  0  0  0  0  0  0  0  0  0  0  0
    0.0859    1.0216    2.1767 O   0  0  0  0  0  0  0  0  0  0  0  0
   -2.1124    3.4765    1.7171 C   0  0  0  0  0  0  0  0  0  0  0  0
   -3.1331    1.9695    3.6908 H   0  0  0  0  0  0  0  0  0  0  0  0
   -2.9253    1.5413    1.2115 H   0  0  0  0  0  0  0  0  0  0  0  0
   -1.3133    3.9138    2.3268 H   0  0  0  0  0  0  0  0  0  0  0  0
   -1.9529    3.7988    0.6829 H   0  0  0  0  0  0  0  0  0  0  0  0
   -3.0626    3.8977    2.0629 H   0  0  0  0  0  0  0  0  0  0  0  0
   -0.6635    1.3313    0.0020 N   0  0  0  0  0  0  0  0  0  0  0  0
    0.5138    0.8305   -0.6617 C   0  0  2  0  0  0  0  0  0  0  0  0
    1.4951    0.4017    0.4234 C   0  0  0  0  0  0  0  0  0  0  0  0
    1.3562    0.7009    1.6074 O   0  0  0  0  0  0  0  0  0  0  0  0
    1.1549    1.8817   -1.5749 C   0  0  0  0  0  0  0  0  0  0  0  0
    0.2586    2.2842   -2.7205 C   0  0  0  0  0  0  0  0  0  0  0  0
    0.0764    1.4466   -3.7924 N   0  0  0  0  0  0  0  0  0  0  0  0
   -0.4587    3.4475   -2.8718 C   0  0  0  0  0  0  0  0  0  0  0  0
   -0.7448    2.0950   -4.5881 C   0  0  0  0  0  0  0  0  0  0  0  0
   -1.0959    3.3119   -4.0729 N   0  0  0  0  0  0  0  0  0  0  0  0
   -1.4467    1.6280   -0.5753 H   0  0  0  0  0  0  0  0  0  0  0  0
    0.1998   -0.0524   -1.2308 H   0  0  0  0  0  0  0  0  0  0  0  0
    2.1120    1.5120   -1.9671 H   0  0  0  0  0  0  0  0  0  0  0  0
    1.4076    2.7841   -1.0027 H   0  0  0  0  0  0  0  0  0  0  0  0
   -0.5717    4.3301   -2.2588 H   0  0  0  0  0  0  0  0  0  0  0  0
   -1.1195    1.7442   -5.5393 H   0  0  0  0  0  0  0  0  0  0  0  0
   -1.7145    3.9871   -4.5019 H   0  0  0  0  0  0  0  0  0  0  0  0
    2.5135   -0.3944   -0.0822 N   0  0  0  0  0  0  0  0  0  0  0  0
    3.5640   -0.9546    0.7372 C   0  0  2  0  0  0  0  0  0  0  0  0
    4.1530    0.1691    1.5796 C   0  0  0  0  0  0  0  0  0  0  0  0
    4.0661    1.3557    1.2704 O   0  0  0  0  0  0  0  0  0  0  0  0
    4.6369   -1.6154   -0.1142 C   0  0  0  0  0  0  0  0  0  0  0  0
    2.5207   -0.5934   -1.0783 H   0  0  0  0  0  0  0  0  0  0  0  0
    3.0929   -1.6950    1.3928 H   0  0  0  0  0  0  0  0  0  0  0  0
    5.1202   -0.8890   -0.7778 H   0  0  0  0  0  0  0  0  0  0  0  0
    5.4175   -2.0641    0.5090 H   0  0  0  0  0  0  0  0  0  0  0  0
    4.2063   -2.4034   -0.7414 H   0  0  0  0  0  0  0  0  0  0  0  0
    4.8244   -0.3117    2.6951 N   0  0  0  0  0  0  0  0  0  0  0  0
    5.4806    0.5566    3.6445 C   0  0  0  0  0  0  0  0  0  0  0  0
    4.8296   -1.3099    2.8833 H   0  0  0  0  0  0  0  0  0  0  0  0
    6.5354    0.6826    3.3588 H   0  0  0  0  0  0  0  0  0  0  0  0
    4.9825    1.5373    3.6494 H   0  0  0  0  0  0  0  0  0  0  0  0
    5.4236    0.1113    4.6487 H   0  0  0  0  0  0  0  0  0  0  0  0
 22 24  2  0  0  0  0
 24 26  1  0  0  0  0
 23 25  2  0  0  0  0
 25 26  1  0  0  0  0
 21 22  1  0  0  0  0
 22 23  1  0  0  0  0
  1  3  1  0  0  0  0
  1  7  1  0  0  0  0
  1  2  2  0  0  0  0
 35 36  1  0  0  0  0
 36 44  1  0  0  0  0
 36 37  2  0  0  0  0
  8  9  1  0  0  0  0
  9 17  1  0  0  0  0
  9 10  2  0  0  0  0
 18 19  1  0  0  0  0
 19 34  1  0  0  0  0
 19 20  2  0  0  0  0
 35 38  1  0  0  0  0
  8 11  1  0  0  0  0
 44 45  1  0  0  0  0
 18 21  1  0  0  0  0
 34 35  1  0  0  0  0
  7  8  1  0  0  0  0
 17 18  1  0  0  0  0
 24 31  1  0  0  0  0
 25 32  1  0  0  0  0
  3  4  1  0  0  0  0
  3  5  1  0  0  0  0
  3  6  1  0  0  0  0
 38 41  1  0  0  0  0
 38 42  1  0  0  0  0
 38 43  1  0  0  0  0
 11 14  1  0  0  0  0
 11 15  1  0  0  0  0
 11 16  1  0  0  0  0
 45 47  1  0  0  0  0
 45 48  1  0  0  0  0
 45 49  1  0  0  0  0
 21 29  1  0  0  0  0
 21 30  1  0  0  0  0
 35 40  1  0  0  0  0
  8 13  1  0  0  0  0
 18 28  1  0  0  0  0
 26 33  1  0  0  0  0
 44 46  1  0  0  0  0
  7 12  1  0  0  0  0
 34 39  1  0  0  0  0
 17 27  1  0  0  0  0
M  END
$$$$

  -OEChem-05262214473D

 49 49  0     1  0  0  0  0  0999 V2000
   -1.6183    0.5613    3.8201 C   0  0  0  0  0  0  0  0  0  0  0  0
   -0.6710   -0.0534    3.3444 O   0  0  0  0  0  0  0  0  0  0  0  0
   -2.0502    0.2789    5.2208 C   0  0  0  0  0  0  0  0  0  0  0  0
   -2.8099   -0.5175    5.2742 H   0  0  0  0  0  0  0  0  0  0  0  0
   -1.2190   -0.0687    5.8551 H   0  0  0  0  0  0  0  0  0  0  0  0
   -2.4882    1.1338    5.7604 H   0  0  0  0  0  0  0  0  0  0  0  0
   -2.3680    1.5337    3.1790 N   0  0  0  0  0  0  0  0  0  0  0  0
   -2.1212    1.9597    1.8266 C   0  0  2  0  0  0  0  0  0  0  0  0
   -0.7862    1.3744    1.3854 C   0  0  0  0  0  0  0  0  0  0  0  0
    0.0859    1.0216    2.1767 O   0  0  0  0  0  0  0  0  0  0  0  0
   -2.1124    3.4765    1.7171 C   0  0  0  0  0  0  0  0  0  0  0  0
   -3.1331    1.9695    3.6908 H   0  0  0  0  0  0  0  0  0  0  0  0
   -2.9253    1.5413    1.2115 H   0  0  0  0  0  0  0  0  0  0  0  0
   -1.3133    3.9138    2.3268 H   0  0  0  0  0  0  0  0  0  0  0  0
   -1.9529    3.7988    0.6829 H   0  0  0  0  0  0  0  0  0  0  0  0
   -3.0626    3.8977    2.0629 H   0  0  0  0  0  0  0  0  0  0  0  0
   -0.6635    1.3313    0.0020 N   0  0  0  0  0  0  0  0  0  0  0  0
    0.5138    0.8305   -0.6617 C   0  0  2  0  0  0  0  0  0  0  0  0
    1.3256    0.0646    0.3769 C   0  0  0  0  0  0  0  0  0  0  0  0
    0.9509   -0.0909    1.5372 O   0  0  0  0  0  0  0  0  0  0  0  0
    1.3566    1.9557   -1.2730 C   0  0  0  0  0  0  0  0  0  0  0  0
    0.6322    2.6976   -2.3696 C   0  0  0  0  0  0  0  0  0  0  0  0
    0.4705    2.1294   -3.6084 N   0  0  0  0  0  0  0  0  0  0  0  0
    0.0660    3.9496   -2.3199 C   0  0  0  0  0  0  0  0  0  0  0  0
   -0.1887    3.0280   -4.3055 C   0  0  0  0  0  0  0  0  0  0  0  0
   -0.4554    4.1475   -3.5673 N   0  0  0  0  0  0  0  0  0  0  0  0
   -1.4467    1.6280   -0.5753 H   0  0  0  0  0  0  0  0  0  0  0  0
    0.1652    0.1317   -1.4312 H   0  0  0  0  0  0  0  0  0  0  0  0
    2.3027    1.5545   -1.6610 H   0  0  0  0  0  0  0  0  0  0  0  0
    1.6464    2.6806   -0.5009 H   0  0  0  0  0  0  0  0  0  0  0  0
   -0.0120    4.6940   -1.5407 H   0  0  0  0  0  0  0  0  0  0  0  0
   -0.4997    2.9319   -5.3362 H   0  0  0  0  0  0  0  0  0  0  0  0
   -0.9490    4.9706   -3.8861 H   0  0  0  0  0  0  0  0  0  0  0  0
    2.4906   -0.4643   -0.1611 N   0  0  0  0  0  0  0  0  0  0  0  0
    3.4300   -1.2540    0.6023 C   0  0  2  0  0  0  0  0  0  0  0  0
    3.7474   -0.4971    1.8852 C   0  0  0  0  0  0  0  0  0  0  0  0
    3.5999    0.7178    2.0012 O   0  0  0  0  0  0  0  0  0  0  0  0
    4.6962   -1.5297   -0.1936 C   0  0  0  0  0  0  0  0  0  0  0  0
    2.6932   -0.2875   -1.1406 H   0  0  0  0  0  0  0  0  0  0  0  0
    2.9258   -2.1950    0.8480 H   0  0  0  0  0  0  0  0  0  0  0  0
    5.2151   -0.5986   -0.4490 H   0  0  0  0  0  0  0  0  0  0  0  0
    5.3948   -2.1520    0.3754 H   0  0  0  0  0  0  0  0  0  0  0  0
    4.4629   -2.0478   -1.1300 H   0  0  0  0  0  0  0  0  0  0  0  0
    4.2554   -1.3313    2.8712 N   0  0  0  0  0  0  0  0  0  0  0  0
    4.6448   -0.8492    4.1758 C   0  0  0  0  0  0  0  0  0  0  0  0
    4.3256   -2.3290    2.6942 H   0  0  0  0  0  0  0  0  0  0  0  0
    5.7158   -0.5983    4.1698 H   0  0  0  0  0  0  0  0  0  0  0  0
    4.0595    0.0483    4.4247 H   0  0  0  0  0  0  0  0  0  0  0  0
    4.4555   -1.6303    4.9268 H   0  0  0  0  0  0  0  0  0  0  0  0
 22 24  2  0  0  0  0
 24 26  1  0  0  0  0
 23 25  2  0  0  0  0
 25 26  1  0  0  0  0
 21 22  1  0  0  0  0
 22 23  1  0  0  0  0
  1  3  1  0  0  0  0
  1  7  1  0  0  0  0
  1  2  2  0  0  0  0
 35 36  1  0  0  0  0
 36 44  1  0  0  0  0
 36 37  2  0  0  0  0
  8  9  1  0  0  0  0
  9 17  1  0  0  0  0
  9 10  2  0  0  0  0
 18 19  1  0  0  0  0
 19 34  1  0  0  0  0
 19 20  2  0  0  0  0
 35 38  1  0  0  0  0
  8 11  1  0  0  0  0
 44 45  1  0  0  0  0
 18 21  1  0  0  0  0
 34 35  1  0  0  0  0
  7  8  1  0  0  0  0
 17 18  1  0  0  0  0
 24 31  1  0  0  0  0
 25 32  1  0  0  0  0
  3  4  1  0  0  0  0
  3  5  1  0  0  0  0
  3  6  1  0  0  0  0
 38 41  1  0  0  0  0
 38 42  1  0  0  0  0
 38 43  1  0  0  0  0
 11 14  1  0  0  0  0
 11 15  1  0  0  0  0
 11 16  1  0  0  0  0
 45 47  1  0  0  0  0
 45 48  1  0  0  0  0
 45 49  1  0  0  0  0
 21 29  1  0  0  0  0
 21 30  1  0  0  0  0
 35 40  1  0  0  0  0
  8 13  1  0  0  0  0
 18 28  1  0  0  0  0
 26 33  1  0  0  0  0
 44 46  1  0  0  0  0
  7 12  1  0  0  0  0
 34 39  1  0  0  0  0
 17 27  1  0  0  0  0
M  END
$$$$

  -OEChem-05262214473D

 49 49  0     1  0  0  0  0  0999 V2000
   -1.6183    0.5613    3.8201 C   0  0  0  0  0  0  0  0  0  0  0  0
   -0.6710   -0.0534    3.3444 O   0  0  0  0  0  0  0  0  0  0  0  0
   -2.0502    0.2789    5.2208 C   0  0  0  0  0  0  0  0  0  0  0  0
   -2.8099   -0.5175    5.2742 H   0  0  0  0  0  0  0  0  0  0  0  0
   -1.2190   -0.0687    5.8551 H   0  0  0  0  0  0  0  0  0  0  0  0
   -2.4882    1.1338    5.7604 H   0  0  0  0  0  0  0  0  0  0  0  0
   -2.3680    1.5337    3.1790 N   0  0  0  0  0  0  0  0  0  0  0  0
   -2.1212    1.9597    1.8266 C   0  0  2  0  0  0  0  0  0  0  0  0
   -0.7862    1.3744    1.3854 C   0  0  0  0  0  0  0  0  0  0  0  0
    0.0859    1.0216    2.1767 O   0  0  0  0  0  0  0  0  0  0  0  0
   -2.1124    3.4765    1.7171 C   0  0  0  0  0  0  0  0  0  0  0  0
   -3.1331    1.9695    3.6908 H   0  0  0  0  0  0  0  0  0  0  0  0
   -2.9253    1.5413    1.2115 H   0  0  0  0  0  0  0  0  0  0  0  0
   -1.3133    3.9138    2.3268 H   0  0  0  0  0  0  0  0  0  0  0  0
   -1.9529    3.7988    0.6829 H   0  0  0  0  0  0  0  0  0  0  0  0
   -3.0626    3.8977    2.0629 H   0  0  0  0  0  0  0  0  0  0  0  0
   -0.6635    1.3313    0.0020 N   0  0  0  0  0  0  0  0  0  0  0  0
    0.5138    0.8305   -0.6617 C   0  0  2  0  0  0  0  0  0  0  0  0
    1.3256    0.0646    0.3769 C   0  0  0  0  0  0  0  0  0  0  0  0
    0.8524   -0.3230    1.4431 O   0  0  0  0  0  0  0  0  0  0  0  0
    1.3566    1.9557   -1.2730 C   0  0  0  0  0  0  0  0  0  0  0  0
    0.6322    2.6976   -2.3696 C   0  0  0  0  0  0  0  0  0  0  0  0
    0.4705    2.1294   -3.6084 N   0  0  0  0  0  0  0  0  0  0  0  0
    0.0660    3.9496   -2.3199 C   0  0  0  0  0  0  0  0  0  0  0  0
   -0.1887    3.0280   -4.3055 C   0  0  0  0  0  0  0  0  0  0  0  0
   -0.4554    4.1475   -3.5673 N   0  0  0  0  0  0  0  0  0  0  0  0
   -1.4467    1.6280   -0.5753 H   0  0  0  0  0  0  0  0  0  0  0  0
    0.1652    0.1317   -1.4312 H   0  0  0  0  0  0  0  0  0  0  0  0
    2.3027    1.5545   -1.6610 H   0  0  0  0  0  0  0  0  0  0  0  0
    1.6464    2.6806   -0.5009 H   0  0  0  0  0  0  0  0  0  0  0  0
   -0.0120    4.6940   -1.5407 H   0  0  0  0  0  0  0  0  0  0  0  0
   -0.4997    2.9319   -5.3362 H   0  0  0  0  0  0  0  0  0  0  0  0
   -0.9490    4.9706   -3.8861 H   0  0  0  0  0  0  0  0  0  0  0  0
    2.6235   -0.1756   -0.0521 N   0  0  0  0  0  0  0  0  0  0  0  0
    3.5966   -0.9022    0.7314 C   0  0  2  0  0  0  0  0  0  0  0  0
    3.6150   -0.3033    2.1316 C   0  0  0  0  0  0  0  0  0  0  0  0
    3.2322    0.8386    2.3778 O   0  0  0  0  0  0  0  0  0  0  0  0
    4.9767   -0.8403    0.0956 C   0  0  0  0  0  0  0  0  0  0  0  0
    2.9036    0.1770   -0.9626 H   0  0  0  0  0  0  0  0  0  0  0  0
    3.2504   -1.9403    0.7821 H   0  0  0  0  0  0  0  0  0  0  0  0
    5.3403    0.1921    0.0362 H   0  0  0  0  0  0  0  0  0  0  0  0
    5.7067   -1.4149    0.6751 H   0  0  0  0  0  0  0  0  0  0  0  0
    4.9553   -1.2441   -0.9224 H   0  0  0  0  0  0  0  0  0  0  0  0
    4.1492   -1.1787    3.0667 N   0  0  0  0  0  0  0  0  0  0  0  0
    4.2863   -0.8387    4.4637 C   0  0  0  0  0  0  0  0  0  0  0  0
    4.4236   -2.1128    2.7771 H   0  0  0  0  0  0  0  0  0  0  0  0
    5.2853   -0.4143    4.6420 H   0  0  0  0  0  0  0  0  0  0  0  0
    3.5196   -0.0992    4.7379 H   0  0  0  0  0  0  0  0  0  0  0  0
    4.1581   -1.7439    5.0755 H   0  0  0  0  0  0  0  0  0  0  0  0
 22 24  2  0  0  0  0
 24 26  1  0  0  0  0
 23 25  2  0  0  0  0
 25 26  1  0  0  0  0
 21 22  1  0  0  0  0
 22 23  1  0  0  0  0
  1  3  1  0  0  0  0
  1  7  1  0  0  0  0
  1  2  2  0  0  0  0
 35 36  1  0  0  0  0
 36 44  1  0  0  0  0
 36 37  2  0  0  0  0
  8  9  1  0  0  0  0
  9 17  1  0  0  0  0
  9 10  2  0  0  0  0
 18 19  1  0  0  0  0
 19 34  1  0  0  0  0
 19 20  2  0  0  0  0
 35 38  1  0  0  0  0
  8 11  1  0  0  0  0
 44 45  1  0  0  0  0
 18 21  1  0  0  0  0
 34 35  1  0  0  0  0
  7  8  1  0  0  0  0
 17 18  1  0  0  0  0
 24 31  1  0  0  0  0
 25 32  1  0  0  0  0
  3  4  1  0  0  0  0
  3  5  1  0  0  0  0
  3  6  1  0  0  0  0
 38 41  1  0  0  0  0
 38 42  1  0  0  0  0
 38 43  1  0  0  0  0
 11 14  1  0  0  0  0
 11 15  1  0  0  0  0
 11 16  1  0  0  0  0
 45 47  1  0  0  0  0
 45 48  1  0  0  0  0
 45 49  1  0  0  0  0
 21 29  1  0  0  0  0
 21 30  1  0  0  0  0
 35 40  1  0  0  0  0
  8 13  1  0  0  0  0
 18 28  1  0  0  0  0
 26 33  1  0  0  0  0
 44 46  1  0  0  0  0
  7 12  1  0  0  0  0
 34 39  1  0  0  0  0
 17 27  1  0  0  0  0
M  END
$$$$

  -OEChem-05262214473D

 49 49  0     1  0  0  0  0  0999 V2000
   -1.6183    0.5613    3.8201 C   0  0  0  0  0  0  0  0  0  0  0  0
   -0.6710   -0.0534    3.3444 O   0  0  0  0  0  0  0  0  0  0  0  0
   -2.0502    0.2789    5.2208 C   0  0  0  0  0  0  0  0  0  0  0  0
   -2.8099   -0.5175    5.2742 H   0  0  0  0  0  0  0  0  0  0  0  0
   -1.2190   -0.0687    5.8551 H   0  0  0  0  0  0  0  0  0  0  0  0
   -2.4882    1.1338    5.7604 H   0  0  0  0  0  0  0  0  0  0  0  0
   -2.3680    1.5337    3.1790 N   0  0  0  0  0  0  0  0  0  0  0  0
   -2.1212    1.9597    1.8266 C   0  0  2  0  0  0  0  0  0  0  0  0
   -0.7862    1.3744    1.3854 C   0  0  0  0  0  0  0  0  0  0  0  0
    0.0859    1.0216    2.1767 O   0  0  0  0  0  0  0  0  0  0  0  0
   -2.1124    3.4765    1.7171 C   0  0  0  0  0  0  0  0  0  0  0  0
   -3.1331    1.9695    3.6908 H   0  0  0  0  0  0  0  0  0  0  0  0
   -2.9253    1.5413    1.2115 H   0  0  0  0  0  0  0  0  0  0  0  0
   -1.3133    3.9138    2.3268 H   0  0  0  0  0  0  0  0  0  0  0  0
   -1.9529    3.7988    0.6829 H   0  0  0  0  0  0  0  0  0  0  0  0
   -3.0626    3.8977    2.0629 H   0  0  0  0  0  0  0  0  0  0  0  0
   -0.6635    1.3313    0.0020 N   0  0  0  0  0  0  0  0  0  0  0  0
    0.5138    0.8305   -0.6617 C   0  0  2  0  0  0  0  0  0  0  0  0
    1.3256    0.0646    0.3769 C   0  0  0  0  0  0  0  0  0  0  0  0
    0.8104   -0.5516    1.3074 O   0  0  0  0  0  0  0  0  0  0  0  0
    1.3566    1.9557   -1.2730 C   0  0  0  0  0  0  0  0  0  0  0  0
    0.6322    2.6976   -2.3696 C   0  0  0  0  0  0  0  0  0  0  0  0
    0.4705    2.1294   -3.6084 N   0  0  0  0  0  0  0  0  0  0  0  0
    0.0660    3.9496   -2.3199 C   0  0  0  0  0  0  0  0  0  0  0  0
   -0.1887    3.0280   -4.3055 C   0  0  0  0  0  0  0  0  0  0  0  0
   -0.4554    4.1475   -3.5673 N   0  0  0  0  0  0  0  0  0  0  0  0
   -1.4467    1.6280   -0.5753 H   0  0  0  0  0  0  0  0  0  0  0  0
    0.1652    0.1317   -1.4312 H   0  0  0  0  0  0  0  0  0  0  0  0
    2.3027    1.5545   -1.6610 H   0  0  0  0  0  0  0  0  0  0  0  0
    1.6464    2.6806   -0.5009 H   0  0  0  0  0  0  0  0  0  0  0  0
   -0.0120    4.6940   -1.5407 H   0  0  0  0  0  0  0  0  0  0  0  0
   -0.4997    2.9319   -5.3362 H   0  0  0  0  0  0  0  0  0  0  0  0
   -0.9490    4.9706   -3.8861 H   0  0  0  0  0  0  0  0  0  0  0  0
    2.6869    0.1117    0.1102 N   0  0  0  0  0  0  0  0  0  0  0  0
    3.6788   -0.5509    0.9263 C   0  0  2  0  0  0  0  0  0  0  0  0
    3.4209   -0.1734    2.3791 C   0  0  0  0  0  0  0  0  0  0  0  0
    2.8067    0.8386    2.7103 O   0  0  0  0  0  0  0  0  0  0  0  0
    5.0884   -0.1647    0.5064 C   0  0  0  0  0  0  0  0  0  0  0  0
    3.0018    0.6382   -0.6993 H   0  0  0  0  0  0  0  0  0  0  0  0
    3.5275   -1.6280    0.7958 H   0  0  0  0  0  0  0  0  0  0  0  0
    5.2587    0.9111    0.6301 H   0  0  0  0  0  0  0  0  0  0  0  0
    5.8390   -0.6893    1.1067 H   0  0  0  0  0  0  0  0  0  0  0  0
    5.2622   -0.4097   -0.5470 H   0  0  0  0  0  0  0  0  0  0  0  0
    3.9944   -1.0769    3.2627 N   0  0  0  0  0  0  0  0  0  0  0  0
    3.9007   -0.9316    4.6966 C   0  0  0  0  0  0  0  0  0  0  0  0
    4.4694   -1.8981    2.8996 H   0  0  0  0  0  0  0  0  0  0  0  0
    4.7757   -0.3775    5.0675 H   0  0  0  0  0  0  0  0  0  0  0  0
    2.9833   -0.3801    4.9500 H   0  0  0  0  0  0  0  0  0  0  0  0
    3.8716   -1.9266    5.1648 H   0  0  0  0  0  0  0  0  0  0  0  0
 22 24  2  0  0  0  0
 24 26  1  0  0  0  0
 23 25  2  0  0  0  0
 25 26  1  0  0  0  0
 21 22  1  0  0  0  0
 22 23  1  0  0  0  0
  1  3  1  0  0  0  0
  1  7  1  0  0  0  0
  1  2  2  0  0  0  0
 35 36  1  0  0  0  0
 36 44  1  0  0  0  0
 36 37  2  0  0  0  0
  8  9  1  0  0  0  0
  9 17  1  0  0  0  0
  9 10  2  0  0  0  0
 18 19  1  0  0  0  0
 19 34  1  0  0  0  0
 19 20  2  0  0  0  0
 35 38  1  0  0  0  0
  8 11  1  0  0  0  0
 44 45  1  0  0  0  0
 18 21  1  0  0  0  0
 34 35  1  0  0  0  0
  7  8  1  0  0  0  0
 17 18  1  0  0  0  0
 24 31  1  0  0  0  0
 25 32  1  0  0  0  0
  3  4  1  0  0  0  0
  3  5  1  0  0  0  0
  3  6  1  0  0  0  0
 38 41  1  0  0  0  0
 38 42  1  0  0  0  0
 38 43  1  0  0  0  0
 11 14  1  0  0  0  0
 11 15  1  0  0  0  0
 11 16  1  0  0  0  0
 45 47  1  0  0  0  0
 45 48  1  0  0  0  0
 45 49  1  0  0  0  0
 21 29  1  0  0  0  0
 21 30  1  0  0  0  0
 35 40  1  0  0  0  0
  8 13  1  0  0  0  0
 18 28  1  0  0  0  0
 26 33  1  0  0  0  0
 44 46  1  0  0  0  0
  7 12  1  0  0  0  0
 34 39  1  0  0  0  0
 17 27  1  0  0  0  0
M  END
$$$$

  -OEChem-05262214473D

 49 49  0     1  0  0  0  0  0999 V2000
   -1.6183    0.5613    3.8201 C   0  0  0  0  0  0  0  0  0  0  0  0
   -0.6710   -0.0534    3.3444 O   0  0  0  0  0  0  0  0  0  0  0  0
   -2.0502    0.2789    5.2208 C   0  0  0  0  0  0  0  0  0  0  0  0
   -2.8099   -0.5175    5.2742 H   0  0  0  0  0  0  0  0  0  0  0  0
   -1.2190   -0.0687    5.8551 H   0  0  0  0  0  0  0  0  0  0  0  0
   -2.4882    1.1338    5.7604 H   0  0  0  0  0  0  0  0  0  0  0  0
   -2.3680    1.5337    3.1790 N   0  0  0  0  0  0  0  0  0  0  0  0
   -2.1212    1.9597    1.8266 C   0  0  2  0  0  0  0  0  0  0  0  0
   -0.7862    1.3744    1.3854 C   0  0  0  0  0  0  0  0  0  0  0  0
    0.0859    1.0216    2.1767 O   0  0  0  0  0  0  0  0  0  0  0  0
   -2.1124    3.4765    1.7171 C   0  0  0  0  0  0  0  0  0  0  0  0
   -3.1331    1.9695    3.6908 H   0  0  0  0  0  0  0  0  0  0  0  0
   -2.9253    1.5413    1.2115 H   0  0  0  0  0  0  0  0  0  0  0  0
   -1.3133    3.9138    2.3268 H   0  0  0  0  0  0  0  0  0  0  0  0
   -1.9529    3.7988    0.6829 H   0  0  0  0  0  0  0  0  0  0  0  0
   -3.0626    3.8977    2.0629 H   0  0  0  0  0  0  0  0  0  0  0  0
   -0.6635    1.3313    0.0020 N   0  0  0  0  0  0  0  0  0  0  0  0
    0.5138    0.8305   -0.6617 C   0  0  2  0  0  0  0  0  0  0  0  0
    1.3256    0.0646    0.3769 C   0  0  0  0  0  0  0  0  0  0  0  0
    0.8278   -0.7612    1.1393 O   0  0  0  0  0  0  0  0  0  0  0  0
    1.3566    1.9557   -1.2730 C   0  0  0  0  0  0  0  0  0  0  0  0
    0.6322    2.6976   -2.3696 C   0  0  0  0  0  0  0  0  0  0  0  0
    0.4705    2.1294   -3.6084 N   0  0  0  0  0  0  0  0  0  0  0  0
    0.0660    3.9496   -2.3199 C   0  0  0  0  0  0  0  0  0  0  0  0
   -0.1887    3.0280   -4.3055 C   0  0  0  0  0  0  0  0  0  0  0  0
   -0.4554    4.1475   -3.5673 N   0  0  0  0  0  0  0  0  0  0  0  0
   -1.4467    1.6280   -0.5753 H   0  0  0  0  0  0  0  0  0  0  0  0
    0.1652    0.1317   -1.4312 H   0  0  0  0  0  0  0  0  0  0  0  0
    2.3027    1.5545   -1.6610 H   0  0  0  0  0  0  0  0  0  0  0  0
    1.6464    2.6806   -0.5009 H   0  0  0  0  0  0  0  0  0  0  0  0
   -0.0120    4.6940   -1.5407 H   0  0  0  0  0  0  0  0  0  0  0  0
   -0.4997    2.9319   -5.3362 H   0  0  0  0  0  0  0  0  0  0  0  0
   -0.9490    4.9706   -3.8861 H   0  0  0  0  0  0  0  0  0  0  0  0
    2.6763    0.3780    0.3148 N   0  0  0  0  0  0  0  0  0  0  0  0
    3.6708   -0.2238    1.1736 C   0  0  2  0  0  0  0  0  0  0  0  0
    3.1783   -0.1163    2.6108 C   0  0  0  0  0  0  0  0  0  0  0  0
    2.3525    0.7177    2.9762 O   0  0  0  0  0  0  0  0  0  0  0  0
    5.0239    0.4510    1.0108 C   0  0  0  0  0  0  0  0  0  0  0  0
    2.9812    1.0648   -0.3686 H   0  0  0  0  0  0  0  0  0  0  0  0
    3.7383   -1.2793    0.8881 H   0  0  0  0  0  0  0  0  0  0  0  0
    4.9760    1.5093    1.2922 H   0  0  0  0  0  0  0  0  0  0  0  0
    5.7828   -0.0245    1.6409 H   0  0  0  0  0  0  0  0  0  0  0  0
    5.3628    0.3987   -0.0295 H   0  0  0  0  0  0  0  0  0  0  0  0
    3.8014   -1.0330    3.4460 N   0  0  0  0  0  0  0  0  0  0  0  0
    3.5144   -1.1213    4.8587 C   0  0  0  0  0  0  0  0  0  0  0  0
    4.4598   -1.6995    3.0535 H   0  0  0  0  0  0  0  0  0  0  0  0
    4.2216   -0.4905    5.4172 H   0  0  0  0  0  0  0  0  0  0  0  0
    2.4873   -0.7752    5.0464 H   0  0  0  0  0  0  0  0  0  0  0  0
    3.6153   -2.1658    5.1886 H   0  0  0  0  0  0  0  0  0  0  0  0
 22 24  2  0  0  0  0
 24 26  1  0  0  0  0
 23 25  2  0  0  0  0
 25 26  1  0  0  0  0
 21 22  1  0  0  0  0
 22 23  1  0  0  0  0
  1  3  1  0  0  0  0
  1  7  1  0  0  0  0
  1  2  2  0  0  0  0
 35 36  1  0  0  0  0
 36 44  1  0  0  0  0
 36 37  2  0  0  0  0
  8  9  1  0  0  0  0
  9 17  1  0  0  0  0
  9 10  2  0  0  0  0
 18 19  1  0  0  0  0
 19 34  1  0  0  0  0
 19 20  2  0  0  0  0
 35 38  1  0  0  0  0
  8 11  1  0  0  0  0
 44 45  1  0  0  0  0
 18 21  1  0  0  0  0
 34 35  1  0  0  0  0
  7  8  1  0  0  0  0
 17 18  1  0  0  0  0
 24 31  1  0  0  0  0
 25 32  1  0  0  0  0
  3  4  1  0  0  0  0
  3  5  1  0  0  0  0
  3  6  1  0  0  0  0
 38 41  1  0  0  0  0
 38 42  1  0  0  0  0
 38 43  1  0  0  0  0
 11 14  1  0  0  0  0
 11 15  1  0  0  0  0
 11 16  1  0  0  0  0
 45 47  1  0  0  0  0
 45 48  1  0  0  0  0
 45 49  1  0  0  0  0
 21 29  1  0  0  0  0
 21 30  1  0  0  0  0
 35 40  1  0  0  0  0
  8 13  1  0  0  0  0
 18 28  1  0  0  0  0
 26 33  1  0  0  0  0
 44 46  1  0  0  0  0
  7 12  1  0  0  0  0
 34 39  1  0  0  0  0
 17 27  1  0  0  0  0
M  END
$$$$

  -OEChem-05262214473D

 49 49  0     1  0  0  0  0  0999 V2000
   -1.6183    0.5613    3.8201 C   0  0  0  0  0  0  0  0  0  0  0  0
   -0.6710   -0.0534    3.3444 O   0  0  0  0  0  0  0  0  0  0  0  0
   -2.0502    0.2789    5.2208 C   0  0  0  0  0  0  0  0  0  0  0  0
   -2.8099   -0.5175    5.2742 H   0  0  0  0  0  0  0  0  0  0  0  0
   -1.2190   -0.0687    5.8551 H   0  0  0  0  0  0  0  0  0  0  0  0
   -2.4882    1.1338    5.7604 H   0  0  0  0  0  0  0  0  0  0  0  0
   -2.3680    1.5337    3.1790 N   0  0  0  0  0  0  0  0  0  0  0  0
   -2.1212    1.9597    1.8266 C   0  0  2  0  0  0  0  0  0  0  0  0
   -0.7862    1.3744    1.3854 C   0  0  0  0  0  0  0  0  0  0  0  0
    0.0859    1.0216    2.1767 O   0  0  0  0  0  0  0  0  0  0  0  0
   -2.1124    3.4765    1.7171 C   0  0  0  0  0  0  0  0  0  0  0  0
   -3.1331    1.9695    3.6908 H   0  0  0  0  0  0  0  0  0  0  0  0
   -2.9253    1.5413    1.2115 H   0  0  0  0  0  0  0  0  0  0  0  0
   -1.3133    3.9138    2.3268 H   0  0  0  0  0  0  0  0  0  0  0  0
   -1.9529    3.7988    0.6829 H   0  0  0  0  0  0  0  0  0  0  0  0
   -3.0626    3.8977    2.0629 H   0  0  0  0  0  0  0  0  0  0  0  0
   -0.6635    1.3313    0.0020 N   0  0  0  0  0  0  0  0  0  0  0  0
    0.5138    0.8305   -0.6617 C   0  0  2  0  0  0  0  0  0  0  0  0
    1.3256    0.0646    0.3769 C   0  0  0  0  0  0  0  0  0  0  0  0
    0.9034   -0.9373    0.9503 O   0  0  0  0  0  0  0  0  0  0  0  0
    1.3566    1.9557   -1.2730 C   0  0  0  0  0  0  0  0  0  0  0  0
    0.6322    2.6976   -2.3696 C   0  0  0  0  0  0  0  0  0  0  0  0
    0.4705    2.1294   -3.6084 N   0  0  0  0  0  0  0  0  0  0  0  0
    0.0660    3.9496   -2.3199 C   0  0  0  0  0  0  0  0  0  0  0  0
   -0.1887    3.0280   -4.3055 C   0  0  0  0  0  0  0  0  0  0  0  0
   -0.4554    4.1475   -3.5673 N   0  0  0  0  0  0  0  0  0  0  0  0
   -1.4467    1.6280   -0.5753 H   0  0  0  0  0  0  0  0  0  0  0  0
    0.1652    0.1317   -1.4312 H   0  0  0  0  0  0  0  0  0  0  0  0
    2.3027    1.5545   -1.6610 H   0  0  0  0  0  0  0  0  0  0  0  0
    1.6464    2.6806   -0.5009 H   0  0  0  0  0  0  0  0  0  0  0  0
   -0.0120    4.6940   -1.5407 H   0  0  0  0  0  0  0  0  0  0  0  0
   -0.4997    2.9319   -5.3362 H   0  0  0  0  0  0  0  0  0  0  0  0
   -0.9490    4.9706   -3.8861 H   0  0  0  0  0  0  0  0  0  0  0  0
    2.5925    0.6051    0.5478 N   0  0  0  0  0  0  0  0  0  0  0  0
    3.5733    0.0565    1.4566 C   0  0  2  0  0  0  0  0  0  0  0  0
    2.9038   -0.1358    2.8109 C   0  0  0  0  0  0  0  0  0  0  0  0
    1.9005    0.4842    3.1574 O   0  0  0  0  0  0  0  0  0  0  0  0
    4.7874    0.9648    1.5745 C   0  0  0  0  0  0  0  0  0  0  0  0
    2.8430    1.4276    0.0069 H   0  0  0  0  0  0  0  0  0  0  0  0
    3.8685   -0.9180    1.0527 H   0  0  0  0  0  0  0  0  0  0  0  0
    4.5113    1.9460    1.9775 H   0  0  0  0  0  0  0  0  0  0  0  0
    5.5418    0.5341    2.2412 H   0  0  0  0  0  0  0  0  0  0  0  0
    5.2501    1.1260    0.5949 H   0  0  0  0  0  0  0  0  0  0  0  0
    3.5834   -1.0498    3.6040 N   0  0  0  0  0  0  0  0  0  0  0  0
    3.1536   -1.3951    4.9389 C   0  0  0  0  0  0  0  0  0  0  0  0
    4.3955   -1.5306    3.2283 H   0  0  0  0  0  0  0  0  0  0  0  0
    3.6608   -0.7456    5.6675 H   0  0  0  0  0  0  0  0  0  0  0  0
    2.0653   -1.2575    5.0206 H   0  0  0  0  0  0  0  0  0  0  0  0
    3.4069   -2.4454    5.1454 H   0  0  0  0  0  0  0  0  0  0  0  0
 22 24  2  0  0  0  0
 24 26  1  0  0  0  0
 23 25  2  0  0  0  0
 25 26  1  0  0  0  0
 21 22  1  0  0  0  0
 22 23  1  0  0  0  0
  1  3  1  0  0  0  0
  1  7  1  0  0  0  0
  1  2  2  0  0  0  0
 35 36  1  0  0  0  0
 36 44  1  0  0  0  0
 36 37  2  0  0  0  0
  8  9  1  0  0  0  0
  9 17  1  0  0  0  0
  9 10  2  0  0  0  0
 18 19  1  0  0  0  0
 19 34  1  0  0  0  0
 19 20  2  0  0  0  0
 35 38  1  0  0  0  0
  8 11  1  0  0  0  0
 44 45  1  0  0  0  0
 18 21  1  0  0  0  0
 34 35  1  0  0  0  0
  7  8  1  0  0  0  0
 17 18  1  0  0  0  0
 24 31  1  0  0  0  0
 25 32  1  0  0  0  0
  3  4  1  0  0  0  0
  3  5  1  0  0  0  0
  3  6  1  0  0  0  0
 38 41  1  0  0  0  0
 38 42  1  0  0  0  0
 38 43  1  0  0  0  0
 11 14  1  0  0  0  0
 11 15  1  0  0  0  0
 11 16  1  0  0  0  0
 45 47  1  0  0  0  0
 45 48  1  0  0  0  0
 45 49  1  0  0  0  0
 21 29  1  0  0  0  0
 21 30  1  0  0  0  0
 35 40  1  0  0  0  0
  8 13  1  0  0  0  0
 18 28  1  0  0  0  0
 26 33  1  0  0  0  0
 44 46  1  0  0  0  0
  7 12  1  0  0  0  0
 34 39  1  0  0  0  0
 17 27  1  0  0  0  0
M  END
$$$$

  -OEChem-05262214473D

 49 49  0     1  0  0  0  0  0999 V2000
   -1.6183    0.5613    3.8201 C   0  0  0  0  0  0  0  0  0  0  0  0
   -0.6710   -0.0534    3.3444 O   0  0  0  0  0  0  0  0  0  0  0  0
   -2.0502    0.2789    5.2208 C   0  0  0  0  0  0  0  0  0  0  0  0
   -2.8099   -0.5175    5.2742 H   0  0  0  0  0  0  0  0  0  0  0  0
   -1.2190   -0.0687    5.8551 H   0  0  0  0  0  0  0  0  0  0  0  0
   -2.4882    1.1338    5.7604 H   0  0  0  0  0  0  0  0  0  0  0  0
   -2.3680    1.5337    3.1790 N   0  0  0  0  0  0  0  0  0  0  0  0
   -2.1212    1.9597    1.8266 C   0  0  2  0  0  0  0  0  0  0  0  0
   -0.7862    1.3744    1.3854 C   0  0  0  0  0  0  0  0  0  0  0  0
    0.0859    1.0216    2.1767 O   0  0  0  0  0  0  0  0  0  0  0  0
   -2.1124    3.4765    1.7171 C   0  0  0  0  0  0  0  0  0  0  0  0
   -3.1331    1.9695    3.6908 H   0  0  0  0  0  0  0  0  0  0  0  0
   -2.9253    1.5413    1.2115 H   0  0  0  0  0  0  0  0  0  0  0  0
   -1.3133    3.9138    2.3268 H   0  0  0  0  0  0  0  0  0  0  0  0
   -1.9529    3.7988    0.6829 H   0  0  0  0  0  0  0  0  0  0  0  0
   -3.0626    3.8977    2.0629 H   0  0  0  0  0  0  0  0  0  0  0  0
   -0.6635    1.3313    0.0020 N   0  0  0  0  0  0  0  0  0  0  0  0
    0.5138    0.8305   -0.6617 C   0  0  2  0  0  0  0  0  0  0  0  0
    1.3256    0.0646    0.3769 C   0  0  0  0  0  0  0  0  0  0  0  0
    1.0321   -1.0681    0.7533 O   0  0  0  0  0  0  0  0  0  0  0  0
    1.3566    1.9557   -1.2730 C   0  0  0  0  0  0  0  0  0  0  0  0
    0.6322    2.6976   -2.3696 C   0  0  0  0  0  0  0  0  0  0  0  0
    0.4705    2.1294   -3.6084 N   0  0  0  0  0  0  0  0  0  0  0  0
    0.0660    3.9496   -2.3199 C   0  0  0  0  0  0  0  0  0  0  0  0
   -0.1887    3.0280   -4.3055 C   0  0  0  0  0  0  0  0  0  0  0  0
   -0.4554    4.1475   -3.5673 N   0  0  0  0  0  0  0  0  0  0  0  0
   -1.4467    1.6280   -0.5753 H   0  0  0  0  0  0  0  0  0  0  0  0
    0.1652    0.1317   -1.4312 H   0  0  0  0  0  0  0  0  0  0  0  0
    2.3027    1.5545   -1.6610 H   0  0  0  0  0  0  0  0  0  0  0  0
    1.6464    2.6806   -0.5009 H   0  0  0  0  0  0  0  0  0  0  0  0
   -0.0120    4.6940   -1.5407 H   0  0  0  0  0  0  0  0  0  0  0  0
   -0.4997    2.9319   -5.3362 H   0  0  0  0  0  0  0  0  0  0  0  0
   -0.9490    4.9706   -3.8861 H   0  0  0  0  0  0  0  0  0  0  0  0
    2.4413    0.7776    0.7933 N   0  0  0  0  0  0  0  0  0  0  0  0
    3.3929    0.2712    1.7559 C   0  0  2  0  0  0  0  0  0  0  0  0
    2.6161   -0.2307    2.9659 C   0  0  0  0  0  0  0  0  0  0  0  0
    1.4816    0.1541    3.2414 O   0  0  0  0  0  0  0  0  0  0  0  0
    4.3950    1.3416    2.1591 C   0  0  0  0  0  0  0  0  0  0  0  0
    2.5968    1.7019    0.4017 H   0  0  0  0  0  0  0  0  0  0  0  0
    3.9091   -0.5688    1.2785 H   0  0  0  0  0  0  0  0  0  0  0  0
    3.8963    2.1915    2.6392 H   0  0  0  0  0  0  0  0  0  0  0  0
    5.1325    0.9484    2.8666 H   0  0  0  0  0  0  0  0  0  0  0  0
    4.9318    1.7226    1.2836 H   0  0  0  0  0  0  0  0  0  0  0  0
    3.3553   -1.1263    3.7259 N   0  0  0  0  0  0  0  0  0  0  0  0
    2.8429   -1.7342    4.9317 C   0  0  0  0  0  0  0  0  0  0  0  0
    4.2809   -1.4029    3.4121 H   0  0  0  0  0  0  0  0  0  0  0  0
    3.1316   -1.1253    5.8011 H   0  0  0  0  0  0  0  0  0  0  0  0
    1.7461   -1.7943    4.8743 H   0  0  0  0  0  0  0  0  0  0  0  0
    3.2606   -2.7463    5.0380 H   0  0  0  0  0  0  0  0  0  0  0  0
 22 24  2  0  0  0  0
 24 26  1  0  0  0  0
 23 25  2  0  0  0  0
 25 26  1  0  0  0  0
 21 22  1  0  0  0  0
 22 23  1  0  0  0  0
  1  3  1  0  0  0  0
  1  7  1  0  0  0  0
  1  2  2  0  0  0  0
 35 36  1  0  0  0  0
 36 44  1  0  0  0  0
 36 37  2  0  0  0  0
  8  9  1  0  0  0  0
  9 17  1  0  0  0  0
  9 10  2  0  0  0  0
 18 19  1  0  0  0  0
 19 34  1  0  0  0  0
 19 20  2  0  0  0  0
 35 38  1  0  0  0  0
  8 11  1  0  0  0  0
 44 45  1  0  0  0  0
 18 21  1  0  0  0  0
 34 35  1  0  0  0  0
  7  8  1  0  0  0  0
 17 18  1  0  0  0  0
 24 31  1  0  0  0  0
 25 32  1  0  0  0  0
  3  4  1  0  0  0  0
  3  5  1  0  0  0  0
  3  6  1  0  0  0  0
 38 41  1  0  0  0  0
 38 42  1  0  0  0  0
 38 43  1  0  0  0  0
 11 14  1  0  0  0  0
 11 15  1  0  0  0  0
 11 16  1  0  0  0  0
 45 47  1  0  0  0  0
 45 48  1  0  0  0  0
 45 49  1  0  0  0  0
 21 29  1  0  0  0  0
 21 30  1  0  0  0  0
 35 40  1  0  0  0  0
  8 13  1  0  0  0  0
 18 28  1  0  0  0  0
 26 33  1  0  0  0  0
 44 46  1  0  0  0  0
  7 12  1  0  0  0  0
 34 39  1  0  0  0  0
 17 27  1  0  0  0  0
M  END
$$$$

  -OEChem-05262214473D

 49 49  0     1  0  0  0  0  0999 V2000
   -1.6183    0.5613    3.8201 C   0  0  0  0  0  0  0  0  0  0  0  0
   -0.6710   -0.0534    3.3444 O   0  0  0  0  0  0  0  0  0  0  0  0
   -2.0502    0.2789    5.2208 C   0  0  0  0  0  0  0  0  0  0  0  0
   -2.8099   -0.5175    5.2742 H   0  0  0  0  0  0  0  0  0  0  0  0
   -1.2190   -0.0687    5.8551 H   0  0  0  0  0  0  0  0  0  0  0  0
   -2.4882    1.1338    5.7604 H   0  0  0  0  0  0  0  0  0  0  0  0
   -2.3680    1.5337    3.1790 N   0  0  0  0  0  0  0  0  0  0  0  0
   -2.1212    1.9597    1.8266 C   0  0  2  0  0  0  0  0  0  0  0  0
   -0.7862    1.3744    1.3854 C   0  0  0  0  0  0  0  0  0  0  0  0
    0.0859    1.0216    2.1767 O   0  0  0  0  0  0  0  0  0  0  0  0
   -2.1124    3.4765    1.7171 C   0  0  0  0  0  0  0  0  0  0  0  0
   -3.1331    1.9695    3.6908 H   0  0  0  0  0  0  0  0  0  0  0  0
   -2.9253    1.5413    1.2115 H   0  0  0  0  0  0  0  0  0  0  0  0
   -1.3133    3.9138    2.3268 H   0  0  0  0  0  0  0  0  0  0  0  0
   -1.9529    3.7988    0.6829 H   0  0  0  0  0  0  0  0  0  0  0  0
   -3.0626    3.8977    2.0629 H   0  0  0  0  0  0  0  0  0  0  0  0
   -0.6635    1.3313    0.0020 N   0  0  0  0  0  0  0  0  0  0  0  0
    0.5138    0.8305   -0.6617 C   0  0  2  0  0  0  0  0  0  0  0  0
    1.3256    0.0646    0.3769 C   0  0  0  0  0  0  0  0  0  0  0  0
    1.2050   -1.1446    0.5617 O   0  0  0  0  0  0  0  0  0  0  0  0
    1.3566    1.9557   -1.2730 C   0  0  0  0  0  0  0  0  0  0  0  0
    0.6322    2.6976   -2.3696 C   0  0  0  0  0  0  0  0  0  0  0  0
    0.4705    2.1294   -3.6084 N   0  0  0  0  0  0  0  0  0  0  0  0
    0.0660    3.9496   -2.3199 C   0  0  0  0  0  0  0  0  0  0  0  0
   -0.1887    3.0280   -4.3055 C   0  0  0  0  0  0  0  0  0  0  0  0
   -0.4554    4.1475   -3.5673 N   0  0  0  0  0  0  0  0  0  0  0  0
   -1.4467    1.6280   -0.5753 H   0  0  0  0  0  0  0  0  0  0  0  0
    0.1652    0.1317   -1.4312 H   0  0  0  0  0  0  0  0  0  0  0  0
    2.3027    1.5545   -1.6610 H   0  0  0  0  0  0  0  0  0  0  0  0
    1.6464    2.6806   -0.5009 H   0  0  0  0  0  0  0  0  0  0  0  0
   -0.0120    4.6940   -1.5407 H   0  0  0  0  0  0  0  0  0  0  0  0
   -0.4997    2.9319   -5.3362 H   0  0  0  0  0  0  0  0  0  0  0  0
   -0.9490    4.9706   -3.8861 H   0  0  0  0  0  0  0  0  0  0  0  0
    2.2328    0.8838    1.0345 N   0  0  0  0  0  0  0  0  0  0  0  0
    3.1419    0.4055    2.0511 C   0  0  2  0  0  0  0  0  0  0  0  0
    2.3348   -0.3944    3.0651 C   0  0  0  0  0  0  0  0  0  0  0  0
    1.1242   -0.2503    3.2226 O   0  0  0  0  0  0  0  0  0  0  0  0
    3.8736    1.5559    2.7247 C   0  0  0  0  0  0  0  0  0  0  0  0
    2.2592    1.8690    0.7888 H   0  0  0  0  0  0  0  0  0  0  0  0
    3.8574   -0.2555    1.5499 H   0  0  0  0  0  0  0  0  0  0  0  0
    3.1730    2.2290    3.2322 H   0  0  0  0  0  0  0  0  0  0  0  0
    4.5827    1.1903    3.4747 H   0  0  0  0  0  0  0  0  0  0  0  0
    4.4297    2.1478    1.9896 H   0  0  0  0  0  0  0  0  0  0  0  0
    3.1326   -1.2572    3.8035 N   0  0  0  0  0  0  0  0  0  0  0  0
    2.6036   -2.1155    4.8376 C   0  0  0  0  0  0  0  0  0  0  0  0
    4.1238   -1.3251    3.5923 H   0  0  0  0  0  0  0  0  0  0  0  0
    2.6700   -1.6039    5.8091 H   0  0  0  0  0  0  0  0  0  0  0  0
    1.5514   -2.3489    4.6175 H   0  0  0  0  0  0  0  0  0  0  0  0
    3.1862   -3.0479    4.8737 H   0  0  0  0  0  0  0  0  0  0  0  0
 22 24  2  0  0  0  0
 24 26  1  0  0  0  0
 23 25  2  0  0  0  0
 25 26  1  0  0  0  0
 21 22  1  0  0  0  0
 22 23  1  0  0  0  0
  1  3  1  0  0  0  0
  1  7  1  0  0  0  0
  1  2  2  0  0  0  0
 35 36  1  0  0  0  0
 36 44  1  0  0  0  0
 36 37  2  0  0  0  0
  8  9  1  0  0  0  0
  9 17  1  0  0  0  0
  9 10  2  0  0  0  0
 18 19  1  0  0  0  0
 19 34  1  0  0  0  0
 19 20  2  0  0  0  0
 35 38  1  0  0  0  0
  8 11  1  0  0  0  0
 44 45  1  0  0  0  0
 18 21  1  0  0  0  0
 34 35  1  0  0  0  0
  7  8  1  0  0  0  0
 17 18  1  0  0  0  0
 24 31  1  0  0  0  0
 25 32  1  0  0  0  0
  3  4  1  0  0  0  0
  3  5  1  0  0  0  0
  3  6  1  0  0  0  0
 38 41  1  0  0  0  0
 38 42  1  0  0  0  0
 38 43  1  0  0  0  0
 11 14  1  0  0  0  0
 11 15  1  0  0  0  0
 11 16  1  0  0  0  0
 45 47  1  0  0  0  0
 45 48  1  0  0  0  0
 45 49  1  0  0  0  0
 21 29  1  0  0  0  0
 21 30  1  0  0  0  0
 35 40  1  0  0  0  0
  8 13  1  0  0  0  0
 18 28  1  0  0  0  0
 26 33  1  0  0  0  0
 44 46  1  0  0  0  0
  7 12  1  0  0  0  0
 34 39  1  0  0  0  0
 17 27  1  0  0  0  0
M  END
$$$$

  -OEChem-05262214473D

 49 49  0     1  0  0  0  0  0999 V2000
   -1.6183    0.5613    3.8201 C   0  0  0  0  0  0  0  0  0  0  0  0
   -0.6710   -0.0534    3.3444 O   0  0  0  0  0  0  0  0  0  0  0  0
   -2.0502    0.2789    5.2208 C   0  0  0  0  0  0  0  0  0  0  0  0
   -2.8099   -0.5175    5.2742 H   0  0  0  0  0  0  0  0  0  0  0  0
   -1.2190   -0.0687    5.8551 H   0  0  0  0  0  0  0  0  0  0  0  0
   -2.4882    1.1338    5.7604 H   0  0  0  0  0  0  0  0  0  0  0  0
   -2.3680    1.5337    3.1790 N   0  0  0  0  0  0  0  0  0  0  0  0
   -2.1212    1.9597    1.8266 C   0  0  2  0  0  0  0  0  0  0  0  0
   -0.7862    1.3744    1.3854 C   0  0  0  0  0  0  0  0  0  0  0  0
    0.0859    1.0216    2.1767 O   0  0  0  0  0  0  0  0  0  0  0  0
   -2.1124    3.4765    1.7171 C   0  0  0  0  0  0  0  0  0  0  0  0
   -3.1331    1.9695    3.6908 H   0  0  0  0  0  0  0  0  0  0  0  0
   -2.9253    1.5413    1.2115 H   0  0  0  0  0  0  0  0  0  0  0  0
   -1.3133    3.9138    2.3268 H   0  0  0  0  0  0  0  0  0  0  0  0
   -1.9529    3.7988    0.6829 H   0  0  0  0  0  0  0  0  0  0  0  0
   -3.0626    3.8977    2.0629 H   0  0  0  0  0  0  0  0  0  0  0  0
   -0.6635    1.3313    0.0020 N   0  0  0  0  0  0  0  0  0  0  0  0
    0.5138    0.8305   -0.6617 C   0  0  2  0  0  0  0  0  0  0  0  0
    1.3256    0.0646    0.3769 C   0  0  0  0  0  0  0  0  0  0  0  0
    1.4104   -1.1616    0.3886 O   0  0  0  0  0  0  0  0  0  0  0  0
    1.3566    1.9557   -1.2730 C   0  0  0  0  0  0  0  0  0  0  0  0
    0.6322    2.6976   -2.3696 C   0  0  0  0  0  0  0  0  0  0  0  0
    0.4705    2.1294   -3.6084 N   0  0  0  0  0  0  0  0  0  0  0  0
    0.0660    3.9496   -2.3199 C   0  0  0  0  0  0  0  0  0  0  0  0
   -0.1887    3.0280   -4.3055 C   0  0  0  0  0  0  0  0  0  0  0  0
   -0.4554    4.1475   -3.5673 N   0  0  0  0  0  0  0  0  0  0  0  0
   -1.4467    1.6280   -0.5753 H   0  0  0  0  0  0  0  0  0  0  0  0
    0.1652    0.1317   -1.4312 H   0  0  0  0  0  0  0  0  0  0  0  0
    2.3027    1.5545   -1.6610 H   0  0  0  0  0  0  0  0  0  0  0  0
    1.6464    2.6806   -0.5009 H   0  0  0  0  0  0  0  0  0  0  0  0
   -0.0120    4.6940   -1.5407 H   0  0  0  0  0  0  0  0  0  0  0  0
   -0.4997    2.9319   -5.3362 H   0  0  0  0  0  0  0  0  0  0  0  0
   -0.9490    4.9706   -3.8861 H   0  0  0  0  0  0  0  0  0  0  0  0
    1.9814    0.9163    1.2550 N   0  0  0  0  0  0  0  0  0  0  0  0
    2.8374    0.4502    2.3221 C   0  0  2  0  0  0  0  0  0  0  0  0
    2.0790   -0.6158    3.1018 C   0  0  0  0  0  0  0  0  0  0  0  0
    0.8527   -0.7014    3.1022 O   0  0  0  0  0  0  0  0  0  0  0  0
    3.2587    1.5930    3.2327 C   0  0  0  0  0  0  0  0  0  0  0  0
    1.8534    1.9176    1.1418 H   0  0  0  0  0  0  0  0  0  0  0  0
    3.7170    0.0007    1.8486 H   0  0  0  0  0  0  0  0  0  0  0  0
    2.3906    2.0559    3.7162 H   0  0  0  0  0  0  0  0  0  0  0  0
    3.9300    1.2432    4.0239 H   0  0  0  0  0  0  0  0  0  0  0  0
    3.7779    2.3727    2.6649 H   0  0  0  0  0  0  0  0  0  0  0  0
    2.9305   -1.4336    3.8314 N   0  0  0  0  0  0  0  0  0  0  0  0
    2.4518   -2.5131    4.6630 C   0  0  0  0  0  0  0  0  0  0  0  0
    3.9349   -1.3024    3.7566 H   0  0  0  0  0  0  0  0  0  0  0  0
    2.3075   -2.1486    5.6908 H   0  0  0  0  0  0  0  0  0  0  0  0
    1.4945   -2.8836    4.2677 H   0  0  0  0  0  0  0  0  0  0  0  0
    3.1889   -3.3296    4.6638 H   0  0  0  0  0  0  0  0  0  0  0  0
 22 24  2  0  0  0  0
 24 26  1  0  0  0  0
 23 25  2  0  0  0  0
 25 26  1  0  0  0  0
 21 22  1  0  0  0  0
 22 23  1  0  0  0  0
  1  3  1  0  0  0  0
  1  7  1  0  0  0  0
  1  2  2  0  0  0  0
 35 36  1  0  0  0  0
 36 44  1  0  0  0  0
 36 37  2  0  0  0  0
  8  9  1  0  0  0  0
  9 17  1  0  0  0  0
  9 10  2  0  0  0  0
 18 19  1  0  0  0  0
 19 34  1  0  0  0  0
 19 20  2  0  0  0  0
 35 38  1  0  0  0  0
  8 11  1  0  0  0  0
 44 45  1  0  0  0  0
 18 21  1  0  0  0  0
 34 35  1  0  0  0  0
  7  8  1  0  0  0  0
 17 18  1  0  0  0  0
 24 31  1  0  0  0  0
 25 32  1  0  0  0  0
  3  4  1  0  0  0  0
  3  5  1  0  0  0  0
  3  6  1  0  0  0  0
 38 41  1  0  0  0  0
 38 42  1  0  0  0  0
 38 43  1  0  0  0  0
 11 14  1  0  0  0  0
 11 15  1  0  0  0  0
 11 16  1  0  0  0  0
 45 47  1  0  0  0  0
 45 48  1  0  0  0  0
 45 49  1  0  0  0  0
 21 29  1  0  0  0  0
 21 30  1  0  0  0  0
 35 40  1  0  0  0  0
  8 13  1  0  0  0  0
 18 28  1  0  0  0  0
 26 33  1  0  0  0  0
 44 46  1  0  0  0  0
  7 12  1  0  0  0  0
 34 39  1  0  0  0  0
 17 27  1  0  0  0  0
M  END
$$$$

  -OEChem-05262214473D

 49 49  0     1  0  0  0  0  0999 V2000
   -1.6183    0.5613    3.8201 C   0  0  0  0  0  0  0  0  0  0  0  0
   -0.6710   -0.0534    3.3444 O   0  0  0  0  0  0  0  0  0  0  0  0
   -2.0502    0.2789    5.2208 C   0  0  0  0  0  0  0  0  0  0  0  0
   -2.8099   -0.5175    5.2742 H   0  0  0  0  0  0  0  0  0  0  0  0
   -1.2190   -0.0687    5.8551 H   0  0  0  0  0  0  0  0  0  0  0  0
   -2.4882    1.1338    5.7604 H   0  0  0  0  0  0  0  0  0  0  0  0
   -2.3680    1.5337    3.1790 N   0  0  0  0  0  0  0  0  0  0  0  0
   -2.1212    1.9597    1.8266 C   0  0  2  0  0  0  0  0  0  0  0  0
   -0.7862    1.3744    1.3854 C   0  0  0  0  0  0  0  0  0  0  0  0
    0.0859    1.0216    2.1767 O   0  0  0  0  0  0  0  0  0  0  0  0
   -2.1124    3.4765    1.7171 C   0  0  0  0  0  0  0  0  0  0  0  0
   -3.1331    1.9695    3.6908 H   0  0  0  0  0  0  0  0  0  0  0  0
   -2.9253    1.5413    1.2115 H   0  0  0  0  0  0  0  0  0  0  0  0
   -1.3133    3.9138    2.3268 H   0  0  0  0  0  0  0  0  0  0  0  0
   -1.9529    3.7988    0.6829 H   0  0  0  0  0  0  0  0  0  0  0  0
   -3.0626    3.8977    2.0629 H   0  0  0  0  0  0  0  0  0  0  0  0
   -0.6635    1.3313    0.0020 N   0  0  0  0  0  0  0  0  0  0  0  0
    0.5138    0.8305   -0.6617 C   0  0  2  0  0  0  0  0  0  0  0  0
    1.3256    0.0646    0.3769 C   0  0  0  0  0  0  0  0  0  0  0  0
    1.6343   -1.1179    0.2458 O   0  0  0  0  0  0  0  0  0  0  0  0
    1.3566    1.9557   -1.2730 C   0  0  0  0  0  0  0  0  0  0  0  0
    0.6322    2.6976   -2.3696 C   0  0  0  0  0  0  0  0  0  0  0  0
    0.4705    2.1294   -3.6084 N   0  0  0  0  0  0  0  0  0  0  0  0
    0.0660    3.9496   -2.3199 C   0  0  0  0  0  0  0  0  0  0  0  0
   -0.1887    3.0280   -4.3055 C   0  0  0  0  0  0  0  0  0  0  0  0
   -0.4554    4.1475   -3.5673 N   0  0  0  0  0  0  0  0  0  0  0  0
   -1.4467    1.6280   -0.5753 H   0  0  0  0  0  0  0  0  0  0  0  0
    0.1652    0.1317   -1.4312 H   0  0  0  0  0  0  0  0  0  0  0  0
    2.3027    1.5545   -1.6610 H   0  0  0  0  0  0  0  0  0  0  0  0
    1.6464    2.6806   -0.5009 H   0  0  0  0  0  0  0  0  0  0  0  0
   -0.0120    4.6940   -1.5407 H   0  0  0  0  0  0  0  0  0  0  0  0
   -0.4997    2.9319   -5.3362 H   0  0  0  0  0  0  0  0  0  0  0  0
   -0.9490    4.9706   -3.8861 H   0  0  0  0  0  0  0  0  0  0  0  0
    1.7042    0.8730    1.4398 N   0  0  0  0  0  0  0  0  0  0  0  0
    2.5001    0.4024    2.5505 C   0  0  2  0  0  0  0  0  0  0  0  0
    1.8662   -0.8798    3.0735 C   0  0  0  0  0  0  0  0  0  0  0  0
    0.6856   -1.1683    2.8885 O   0  0  0  0  0  0  0  0  0  0  0  0
    2.5921    1.4504    3.6486 C   0  0  0  0  0  0  0  0  0  0  0  0
    1.4069    1.8443    1.4368 H   0  0  0  0  0  0  0  0  0  0  0  0
    3.4973    0.1822    2.1541 H   0  0  0  0  0  0  0  0  0  0  0  0
    1.6025    1.6841    4.0581 H   0  0  0  0  0  0  0  0  0  0  0  0
    3.2188    1.1035    4.4768 H   0  0  0  0  0  0  0  0  0  0  0  0
    3.0208    2.3819    3.2635 H   0  0  0  0  0  0  0  0  0  0  0  0
    2.7627   -1.6435    3.8078 N   0  0  0  0  0  0  0  0  0  0  0  0
    2.3981   -2.8998    4.4199 C   0  0  0  0  0  0  0  0  0  0  0  0
    3.7271   -1.3365    3.8939 H   0  0  0  0  0  0  0  0  0  0  0  0
    2.0688   -2.7223    5.4544 H   0  0  0  0  0  0  0  0  0  0  0  0
    1.5793   -3.3618    3.8488 H   0  0  0  0  0  0  0  0  0  0  0  0
    3.2684   -3.5724    4.4226 H   0  0  0  0  0  0  0  0  0  0  0  0
 22 24  2  0  0  0  0
 24 26  1  0  0  0  0
 23 25  2  0  0  0  0
 25 26  1  0  0  0  0
 21 22  1  0  0  0  0
 22 23  1  0  0  0  0
  1  3  1  0  0  0  0
  1  7  1  0  0  0  0
  1  2  2  0  0  0  0
 35 36  1  0  0  0  0
 36 44  1  0  0  0  0
 36 37  2  0  0  0  0
  8  9  1  0  0  0  0
  9 17  1  0  0  0  0
  9 10  2  0  0  0  0
 18 19  1  0  0  0  0
 19 34  1  0  0  0  0
 19 20  2  0  0  0  0
 35 38  1  0  0  0  0
  8 11  1  0  0  0  0
 44 45  1  0  0  0  0
 18 21  1  0  0  0  0
 34 35  1  0  0  0  0
  7  8  1  0  0  0  0
 17 18  1  0  0  0  0
 24 31  1  0  0  0  0
 25 32  1  0  0  0  0
  3  4  1  0  0  0  0
  3  5  1  0  0  0  0
  3  6  1  0  0  0  0
 38 41  1  0  0  0  0
 38 42  1  0  0  0  0
 38 43  1  0  0  0  0
 11 14  1  0  0  0  0
 11 15  1  0  0  0  0
 11 16  1  0  0  0  0
 45 47  1  0  0  0  0
 45 48  1  0  0  0  0
 45 49  1  0  0  0  0
 21 29  1  0  0  0  0
 21 30  1  0  0  0  0
 35 40  1  0  0  0  0
  8 13  1  0  0  0  0
 18 28  1  0  0  0  0
 26 33  1  0  0  0  0
 44 46  1  0  0  0  0
  7 12  1  0  0  0  0
 34 39  1  0  0  0  0
 17 27  1  0  0  0  0
M  END
$$$$

  -OEChem-05262214473D

 49 49  0     1  0  0  0  0  0999 V2000
   -1.6183    0.5613    3.8201 C   0  0  0  0  0  0  0  0  0  0  0  0
   -0.6710   -0.0534    3.3444 O   0  0  0  0  0  0  0  0  0  0  0  0
   -2.0502    0.2789    5.2208 C   0  0  0  0  0  0  0  0  0  0  0  0
   -2.8099   -0.5175    5.2742 H   0  0  0  0  0  0  0  0  0  0  0  0
   -1.2190   -0.0687    5.8551 H   0  0  0  0  0  0  0  0  0  0  0  0
   -2.4882    1.1338    5.7604 H   0  0  0  0  0  0  0  0  0  0  0  0
   -2.3680    1.5337    3.1790 N   0  0  0  0  0  0  0  0  0  0  0  0
   -2.1212    1.9597    1.8266 C   0  0  2  0  0  0  0  0  0  0  0  0
   -0.7862    1.3744    1.3854 C   0  0  0  0  0  0  0  0  0  0  0  0
    0.0859    1.0216    2.1767 O   0  0  0  0  0  0  0  0  0  0  0  0
   -2.1124    3.4765    1.7171 C   0  0  0  0  0  0  0  0  0  0  0  0
   -3.1331    1.9695    3.6908 H   0  0  0  0  0  0  0  0  0  0  0  0
   -2.9253    1.5413    1.2115 H   0  0  0  0  0  0  0  0  0  0  0  0
   -1.3133    3.9138    2.3268 H   0  0  0  0  0  0  0  0  0  0  0  0
   -1.9529    3.7988    0.6829 H   0  0  0  0  0  0  0  0  0  0  0  0
   -3.0626    3.8977    2.0629 H   0  0  0  0  0  0  0  0  0  0  0  0
   -0.6635    1.3313    0.0020 N   0  0  0  0  0  0  0  0  0  0  0  0
    0.5138    0.8305   -0.6617 C   0  0  2  0  0  0  0  0  0  0  0  0
    1.3256    0.0646    0.3769 C   0  0  0  0  0  0  0  0  0  0  0  0
    1.8615   -1.0165    0.1430 O   0  0  0  0  0  0  0  0  0  0  0  0
    1.3566    1.9557   -1.2730 C   0  0  0  0  0  0  0  0  0  0  0  0
    0.6322    2.6976   -2.3696 C   0  0  0  0  0  0  0  0  0  0  0  0
    0.4705    2.1294   -3.6084 N   0  0  0  0  0  0  0  0  0  0  0  0
    0.0660    3.9496   -2.3199 C   0  0  0  0  0  0  0  0  0  0  0  0
   -0.1887    3.0280   -4.3055 C   0  0  0  0  0  0  0  0  0  0  0  0
   -0.4554    4.1475   -3.5673 N   0  0  0  0  0  0  0  0  0  0  0  0
   -1.4467    1.6280   -0.5753 H   0  0  0  0  0  0  0  0  0  0  0  0
    0.1652    0.1317   -1.4312 H   0  0  0  0  0  0  0  0  0  0  0  0
    2.3027    1.5545   -1.6610 H   0  0  0  0  0  0  0  0  0  0  0  0
    1.6464    2.6806   -0.5009 H   0  0  0  0  0  0  0  0  0  0  0  0
   -0.0120    4.6940   -1.5407 H   0  0  0  0  0  0  0  0  0  0  0  0
   -0.4997    2.9319   -5.3362 H   0  0  0  0  0  0  0  0  0  0  0  0
   -0.9490    4.9706   -3.8861 H   0  0  0  0  0  0  0  0  0  0  0  0
    1.4200    0.7569    1.5762 N   0  0  0  0  0  0  0  0  0  0  0  0
    2.1531    0.2653    2.7207 C   0  0  2  0  0  0  0  0  0  0  0  0
    1.7108   -1.1684    2.9820 C   0  0  0  0  0  0  0  0  0  0  0  0
    0.6344   -1.6193    2.5959 O   0  0  0  0  0  0  0  0  0  0  0  0
    1.9193    1.1378    3.9440 C   0  0  0  0  0  0  0  0  0  0  0  0
    0.9502    1.6541    1.6535 H   0  0  0  0  0  0  0  0  0  0  0  0
    3.2134    0.2767    2.4457 H   0  0  0  0  0  0  0  0  0  0  0  0
    0.8623    1.1389    4.2346 H   0  0  0  0  0  0  0  0  0  0  0  0
    2.4976    0.7807    4.8025 H   0  0  0  0  0  0  0  0  0  0  0  0
    2.2101    2.1748    3.7445 H   0  0  0  0  0  0  0  0  0  0  0  0
    2.6407   -1.8725    3.7343 N   0  0  0  0  0  0  0  0  0  0  0  0
    2.4459   -3.2493    4.1248 C   0  0  0  0  0  0  0  0  0  0  0  0
    3.5145   -1.4250    3.9949 H   0  0  0  0  0  0  0  0  0  0  0  0
    1.9700   -3.2861    5.1158 H   0  0  0  0  0  0  0  0  0  0  0  0
    1.8001   -3.7511    3.3892 H   0  0  0  0  0  0  0  0  0  0  0  0
    3.4195   -3.7597    4.1665 H   0  0  0  0  0  0  0  0  0  0  0  0
 22 24  2  0  0  0  0
 24 26  1  0  0  0  0
 23 25  2  0  0  0  0
 25 26  1  0  0  0  0
 21 22  1  0  0  0  0
 22 23  1  0  0  0  0
  1  3  1  0  0  0  0
  1  7  1  0  0  0  0
  1  2  2  0  0  0  0
 35 36  1  0  0  0  0
 36 44  1  0  0  0  0
 36 37  2  0  0  0  0
  8  9  1  0  0  0  0
  9 17  1  0  0  0  0
  9 10  2  0  0  0  0
 18 19  1  0  0  0  0
 19 34  1  0  0  0  0
 19 20  2  0  0  0  0
 35 38  1  0  0  0  0
  8 11  1  0  0  0  0
 44 45  1  0  0  0  0
 18 21  1  0  0  0  0
 34 35  1  0  0  0  0
  7  8  1  0  0  0  0
 17 18  1  0  0  0  0
 24 31  1  0  0  0  0
 25 32  1  0  0  0  0
  3  4  1  0  0  0  0
  3  5  1  0  0  0  0
  3  6  1  0  0  0  0
 38 41  1  0  0  0  0
 38 42  1  0  0  0  0
 38 43  1  0  0  0  0
 11 14  1  0  0  0  0
 11 15  1  0  0  0  0
 11 16  1  0  0  0  0
 45 47  1  0  0  0  0
 45 48  1  0  0  0  0
 45 49  1  0  0  0  0
 21 29  1  0  0  0  0
 21 30  1  0  0  0  0
 35 40  1  0  0  0  0
  8 13  1  0  0  0  0
 18 28  1  0  0  0  0
 26 33  1  0  0  0  0
 44 46  1  0  0  0  0
  7 12  1  0  0  0  0
 34 39  1  0  0  0  0
 17 27  1  0  0  0  0
M  END
$$$$

  -OEChem-05262214473D

 49 49  0     1  0  0  0  0  0999 V2000
   -1.6183    0.5613    3.8201 C   0  0  0  0  0  0  0  0  0  0  0  0
   -0.6710   -0.0534    3.3444 O   0  0  0  0  0  0  0  0  0  0  0  0
   -2.0502    0.2789    5.2208 C   0  0  0  0  0  0  0  0  0  0  0  0
   -2.8099   -0.5175    5.2742 H   0  0  0  0  0  0  0  0  0  0  0  0
   -1.2190   -0.0687    5.8551 H   0  0  0  0  0  0  0  0  0  0  0  0
   -2.4882    1.1338    5.7604 H   0  0  0  0  0  0  0  0  0  0  0  0
   -2.3680    1.5337    3.1790 N   0  0  0  0  0  0  0  0  0  0  0  0
   -2.1212    1.9597    1.8266 C   0  0  2  0  0  0  0  0  0  0  0  0
   -0.7862    1.3744    1.3854 C   0  0  0  0  0  0  0  0  0  0  0  0
    0.0859    1.0216    2.1767 O   0  0  0  0  0  0  0  0  0  0  0  0
   -2.1124    3.4765    1.7171 C   0  0  0  0  0  0  0  0  0  0  0  0
   -3.1331    1.9695    3.6908 H   0  0  0  0  0  0  0  0  0  0  0  0
   -2.9253    1.5413    1.2115 H   0  0  0  0  0  0  0  0  0  0  0  0
   -1.3133    3.9138    2.3268 H   0  0  0  0  0  0  0  0  0  0  0  0
   -1.9529    3.7988    0.6829 H   0  0  0  0  0  0  0  0  0  0  0  0
   -3.0626    3.8977    2.0629 H   0  0  0  0  0  0  0  0  0  0  0  0
   -0.6635    1.3313    0.0020 N   0  0  0  0  0  0  0  0  0  0  0  0
    0.5138    0.8305   -0.6617 C   0  0  2  0  0  0  0  0  0  0  0  0
    1.3256    0.0646    0.3769 C   0  0  0  0  0  0  0  0  0  0  0  0
    2.0764   -0.8644    0.0871 O   0  0  0  0  0  0  0  0  0  0  0  0
    1.3566    1.9557   -1.2730 C   0  0  0  0  0  0  0  0  0  0  0  0
    0.6322    2.6976   -2.3696 C   0  0  0  0  0  0  0  0  0  0  0  0
    0.4705    2.1294   -3.6084 N   0  0  0  0  0  0  0  0  0  0  0  0
    0.0660    3.9496   -2.3199 C   0  0  0  0  0  0  0  0  0  0  0  0
   -0.1887    3.0280   -4.3055 C   0  0  0  0  0  0  0  0  0  0  0  0
   -0.4554    4.1475   -3.5673 N   0  0  0  0  0  0  0  0  0  0  0  0
   -1.4467    1.6280   -0.5753 H   0  0  0  0  0  0  0  0  0  0  0  0
    0.1652    0.1317   -1.4312 H   0  0  0  0  0  0  0  0  0  0  0  0
    2.3027    1.5545   -1.6610 H   0  0  0  0  0  0  0  0  0  0  0  0
    1.6464    2.6806   -0.5009 H   0  0  0  0  0  0  0  0  0  0  0  0
   -0.0120    4.6940   -1.5407 H   0  0  0  0  0  0  0  0  0  0  0  0
   -0.4997    2.9319   -5.3362 H   0  0  0  0  0  0  0  0  0  0  0  0
   -0.9490    4.9706   -3.8861 H   0  0  0  0  0  0  0  0  0  0  0  0
    1.1482    0.5758    1.6551 N   0  0  0  0  0  0  0  0  0  0  0  0
    1.8199    0.0482    2.8210 C   0  0  2  0  0  0  0  0  0  0  0  0
    1.6236   -1.4620    2.8337 C   0  0  0  0  0  0  0  0  0  0  0  0
    0.7025   -2.0237    2.2446 O   0  0  0  0  0  0  0  0  0  0  0  0
    1.2861    0.6765    4.0988 C   0  0  0  0  0  0  0  0  0  0  0  0
    0.5144    1.3601    1.7773 H   0  0  0  0  0  0  0  0  0  0  0  0
    2.8846    0.2777    2.7035 H   0  0  0  0  0  0  0  0  0  0  0  0
    0.2206    0.4574    4.2337 H   0  0  0  0  0  0  0  0  0  0  0  0
    1.8155    0.2969    4.9789 H   0  0  0  0  0  0  0  0  0  0  0  0
    1.4010    1.7656    4.0752 H   0  0  0  0  0  0  0  0  0  0  0  0
    2.5728   -2.1051    3.6158 N   0  0  0  0  0  0  0  0  0  0  0  0
    2.5921   -3.5378    3.7978 C   0  0  0  0  0  0  0  0  0  0  0  0
    3.3116   -1.5619    4.0525 H   0  0  0  0  0  0  0  0  0  0  0  0
    2.0181   -3.8013    4.6983 H   0  0  0  0  0  0  0  0  0  0  0  0
    2.1416   -4.0248    2.9204 H   0  0  0  0  0  0  0  0  0  0  0  0
    3.6317   -3.8786    3.9129 H   0  0  0  0  0  0  0  0  0  0  0  0
 22 24  2  0  0  0  0
 24 26  1  0  0  0  0
 23 25  2  0  0  0  0
 25 26  1  0  0  0  0
 21 22  1  0  0  0  0
 22 23  1  0  0  0  0
  1  3  1  0  0  0  0
  1  7  1  0  0  0  0
  1  2  2  0  0  0  0
 35 36  1  0  0  0  0
 36 44  1  0  0  0  0
 36 37  2  0  0  0  0
  8  9  1  0  0  0  0
  9 17  1  0  0  0  0
  9 10  2  0  0  0  0
 18 19  1  0  0  0  0
 19 34  1  0  0  0  0
 19 20  2  0  0  0  0
 35 38  1  0  0  0  0
  8 11  1  0  0  0  0
 44 45  1  0  0  0  0
 18 21  1  0  0  0  0
 34 35  1  0  0  0  0
  7  8  1  0  0  0  0
 17 18  1  0  0  0  0
 24 31  1  0  0  0  0
 25 32  1  0  0  0  0
  3  4  1  0  0  0  0
  3  5  1  0  0  0  0
  3  6  1  0  0  0  0
 38 41  1  0  0  0  0
 38 42  1  0  0  0  0
 38 43  1  0  0  0  0
 11 14  1  0  0  0  0
 11 15  1  0  0  0  0
 11 16  1  0  0  0  0
 45 47  1  0  0  0  0
 45 48  1  0  0  0  0
 45 49  1  0  0  0  0
 21 29  1  0  0  0  0
 21 30  1  0  0  0  0
 35 40  1  0  0  0  0
  8 13  1  0  0  0  0
 18 28  1  0  0  0  0
 26 33  1  0  0  0  0
 44 46  1  0  0  0  0
  7 12  1  0  0  0  0
 34 39  1  0  0  0  0
 17 27  1  0  0  0  0
M  END
$$$$

  -OEChem-05262214473D

 49 49  0     1  0  0  0  0  0999 V2000
   -1.6183    0.5613    3.8201 C   0  0  0  0  0  0  0  0  0  0  0  0
   -0.6710   -0.0534    3.3444 O   0  0  0  0  0  0  0  0  0  0  0  0
   -2.0502    0.2789    5.2208 C   0  0  0  0  0  0  0  0  0  0  0  0
   -2.8099   -0.5175    5.2742 H   0  0  0  0  0  0  0  0  0  0  0  0
   -1.2190   -0.0687    5.8551 H   0  0  0  0  0  0  0  0  0  0  0  0
   -2.4882    1.1338    5.7604 H   0  0  0  0  0  0  0  0  0  0  0  0
   -2.3680    1.5337    3.1790 N   0  0  0  0  0  0  0  0  0  0  0  0
   -2.1212    1.9597    1.8266 C   0  0  2  0  0  0  0  0  0  0  0  0
   -0.7862    1.3744    1.3854 C   0  0  0  0  0  0  0  0  0  0  0  0
    0.0859    1.0216    2.1767 O   0  0  0  0  0  0  0  0  0  0  0  0
   -2.1124    3.4765    1.7171 C   0  0  0  0  0  0  0  0  0  0  0  0
   -3.1331    1.9695    3.6908 H   0  0  0  0  0  0  0  0  0  0  0  0
   -2.9253    1.5413    1.2115 H   0  0  0  0  0  0  0  0  0  0  0  0
   -1.3133    3.9138    2.3268 H   0  0  0  0  0  0  0  0  0  0  0  0
   -1.9529    3.7988    0.6829 H   0  0  0  0  0  0  0  0  0  0  0  0
   -3.0626    3.8977    2.0629 H   0  0  0  0  0  0  0  0  0  0  0  0
   -0.6635    1.3313    0.0020 N   0  0  0  0  0  0  0  0  0  0  0  0
    0.5138    0.8305   -0.6617 C   0  0  2  0  0  0  0  0  0  0  0  0
    1.3256    0.0646    0.3769 C   0  0  0  0  0  0  0  0  0  0  0  0
    2.2645   -0.6719    0.0821 O   0  0  0  0  0  0  0  0  0  0  0  0
    1.3566    1.9557   -1.2730 C   0  0  0  0  0  0  0  0  0  0  0  0
    0.6322    2.6976   -2.3696 C   0  0  0  0  0  0  0  0  0  0  0  0
    0.4705    2.1294   -3.6084 N   0  0  0  0  0  0  0  0  0  0  0  0
    0.0660    3.9496   -2.3199 C   0  0  0  0  0  0  0  0  0  0  0  0
   -0.1887    3.0280   -4.3055 C   0  0  0  0  0  0  0  0  0  0  0  0
   -0.4554    4.1475   -3.5673 N   0  0  0  0  0  0  0  0  0  0  0  0
   -1.4467    1.6280   -0.5753 H   0  0  0  0  0  0  0  0  0  0  0  0
    0.1652    0.1317   -1.4312 H   0  0  0  0  0  0  0  0  0  0  0  0
    2.3027    1.5545   -1.6610 H   0  0  0  0  0  0  0  0  0  0  0  0
    1.6464    2.6806   -0.5009 H   0  0  0  0  0  0  0  0  0  0  0  0
   -0.0120    4.6940   -1.5407 H   0  0  0  0  0  0  0  0  0  0  0  0
   -0.4997    2.9319   -5.3362 H   0  0  0  0  0  0  0  0  0  0  0  0
   -0.9490    4.9706   -3.8861 H   0  0  0  0  0  0  0  0  0  0  0  0
    0.9074    0.3420    1.6710 N   0  0  0  0  0  0  0  0  0  0  0  0
    1.5234   -0.2341    2.8447 C   0  0  2  0  0  0  0  0  0  0  0  0
    1.6104   -1.7406    2.6387 C   0  0  0  0  0  0  0  0  0  0  0  0
    0.8852   -2.3539    1.8583 O   0  0  0  0  0  0  0  0  0  0  0  0
    0.7357    0.0980    4.1024 C   0  0  0  0  0  0  0  0  0  0  0  0
    0.1293    0.9821    1.7997 H   0  0  0  0  0  0  0  0  0  0  0  0
    2.5334    0.1851    2.9098 H   0  0  0  0  0  0  0  0  0  0  0  0
   -0.2790   -0.3139    4.0555 H   0  0  0  0  0  0  0  0  0  0  0  0
    1.2191   -0.3150    4.9939 H   0  0  0  0  0  0  0  0  0  0  0  0
    0.6487    1.1820    4.2330 H   0  0  0  0  0  0  0  0  0  0  0  0
    2.5636   -2.3255    3.4605 N   0  0  0  0  0  0  0  0  0  0  0  0
    2.8268   -3.7456    3.4611 C   0  0  0  0  0  0  0  0  0  0  0  0
    3.1323   -1.7378    4.0629 H   0  0  0  0  0  0  0  0  0  0  0  0
    2.2097   -4.2330    4.2303 H   0  0  0  0  0  0  0  0  0  0  0  0
    2.5808   -4.1644    2.4742 H   0  0  0  0  0  0  0  0  0  0  0  0
    3.8906   -3.9211    3.6792 H   0  0  0  0  0  0  0  0  0  0  0  0
 22 24  2  0  0  0  0
 24 26  1  0  0  0  0
 23 25  2  0  0  0  0
 25 26  1  0  0  0  0
 21 22  1  0  0  0  0
 22 23  1  0  0  0  0
  1  3  1  0  0  0  0
  1  7  1  0  0  0  0
  1  2  2  0  0  0  0
 35 36  1  0  0  0  0
 36 44  1  0  0  0  0
 36 37  2  0  0  0  0
  8  9  1  0  0  0  0
  9 17  1  0  0  0  0
  9 10  2  0  0  0  0
 18 19  1  0  0  0  0
 19 34  1  0  0  0  0
 19 20  2  0  0  0  0
 35 38  1  0  0  0  0
  8 11  1  0  0  0  0
 44 45  1  0  0  0  0
 18 21  1  0  0  0  0
 34 35  1  0  0  0  0
  7  8  1  0  0  0  0
 17 18  1  0  0  0  0
 24 31  1  0  0  0  0
 25 32  1  0  0  0  0
  3  4  1  0  0  0  0
  3  5  1  0  0  0  0
  3  6  1  0  0  0  0
 38 41  1  0  0  0  0
 38 42  1  0  0  0  0
 38 43  1  0  0  0  0
 11 14  1  0  0  0  0
 11 15  1  0  0  0  0
 11 16  1  0  0  0  0
 45 47  1  0  0  0  0
 45 48  1  0  0  0  0
 45 49  1  0  0  0  0
 21 29  1  0  0  0  0
 21 30  1  0  0  0  0
 35 40  1  0  0  0  0
  8 13  1  0  0  0  0
 18 28  1  0  0  0  0
 26 33  1  0  0  0  0
 44 46  1  0  0  0  0
  7 12  1  0  0  0  0
 34 39  1  0  0  0  0
 17 27  1  0  0  0  0
M  END
$$$$

  -OEChem-05262214473D

 49 49  0     1  0  0  0  0  0999 V2000
   -1.6183    0.5613    3.8201 C   0  0  0  0  0  0  0  0  0  0  0  0
   -0.6710   -0.0534    3.3444 O   0  0  0  0  0  0  0  0  0  0  0  0
   -2.0502    0.2789    5.2208 C   0  0  0  0  0  0  0  0  0  0  0  0
   -2.8099   -0.5175    5.2742 H   0  0  0  0  0  0  0  0  0  0  0  0
   -1.2190   -0.0687    5.8551 H   0  0  0  0  0  0  0  0  0  0  0  0
   -2.4882    1.1338    5.7604 H   0  0  0  0  0  0  0  0  0  0  0  0
   -2.3680    1.5337    3.1790 N   0  0  0  0  0  0  0  0  0  0  0  0
   -2.1212    1.9597    1.8266 C   0  0  2  0  0  0  0  0  0  0  0  0
   -0.7862    1.3744    1.3854 C   0  0  0  0  0  0  0  0  0  0  0  0
    0.0859    1.0216    2.1767 O   0  0  0  0  0  0  0  0  0  0  0  0
   -2.1124    3.4765    1.7171 C   0  0  0  0  0  0  0  0  0  0  0  0
   -3.1331    1.9695    3.6908 H   0  0  0  0  0  0  0  0  0  0  0  0
   -2.9253    1.5413    1.2115 H   0  0  0  0  0  0  0  0  0  0  0  0
   -1.3133    3.9138    2.3268 H   0  0  0  0  0  0  0  0  0  0  0  0
   -1.9529    3.7988    0.6829 H   0  0  0  0  0  0  0  0  0  0  0  0
   -3.0626    3.8977    2.0629 H   0  0  0  0  0  0  0  0  0  0  0  0
   -0.6635    1.3313    0.0020 N   0  0  0  0  0  0  0  0  0  0  0  0
    0.5138    0.8305   -0.6617 C   0  0  2  0  0  0  0  0  0  0  0  0
    1.3256    0.0646    0.3769 C   0  0  0  0  0  0  0  0  0  0  0  0
    2.4128   -0.4520    0.1283 O   0  0  0  0  0  0  0  0  0  0  0  0
    1.3566    1.9557   -1.2730 C   0  0  0  0  0  0  0  0  0  0  0  0
    0.6322    2.6976   -2.3696 C   0  0  0  0  0  0  0  0  0  0  0  0
    0.4705    2.1294   -3.6084 N   0  0  0  0  0  0  0  0  0  0  0  0
    0.0660    3.9496   -2.3199 C   0  0  0  0  0  0  0  0  0  0  0  0
   -0.1887    3.0280   -4.3055 C   0  0  0  0  0  0  0  0  0  0  0  0
   -0.4554    4.1475   -3.5673 N   0  0  0  0  0  0  0  0  0  0  0  0
   -1.4467    1.6280   -0.5753 H   0  0  0  0  0  0  0  0  0  0  0  0
    0.1652    0.1317   -1.4312 H   0  0  0  0  0  0  0  0  0  0  0  0
    2.3027    1.5545   -1.6610 H   0  0  0  0  0  0  0  0  0  0  0  0
    1.6464    2.6806   -0.5009 H   0  0  0  0  0  0  0  0  0  0  0  0
   -0.0120    4.6940   -1.5407 H   0  0  0  0  0  0  0  0  0  0  0  0
   -0.4997    2.9319   -5.3362 H   0  0  0  0  0  0  0  0  0  0  0  0
   -0.9490    4.9706   -3.8861 H   0  0  0  0  0  0  0  0  0  0  0  0
    0.7139    0.0716    1.6228 N   0  0  0  0  0  0  0  0  0  0  0  0
    1.2836   -0.5623    2.7901 C   0  0  2  0  0  0  0  0  0  0  0  0
    1.6721   -1.9850    2.4102 C   0  0  0  0  0  0  0  0  0  0  0  0
    1.1701   -2.5873    1.4634 O   0  0  0  0  0  0  0  0  0  0  0  0
    0.3056   -0.5584    3.9546 C   0  0  0  0  0  0  0  0  0  0  0  0
   -0.1790    0.5460    1.7191 H   0  0  0  0  0  0  0  0  0  0  0  0
    2.1835    0.0054    3.0507 H   0  0  0  0  0  0  0  0  0  0  0  0
   -0.6025   -1.1224    3.7121 H   0  0  0  0  0  0  0  0  0  0  0  0
    0.7489   -1.0133    4.8466 H   0  0  0  0  0  0  0  0  0  0  0  0
    0.0043    0.4640    4.2072 H   0  0  0  0  0  0  0  0  0  0  0  0
    2.6138   -2.5185    3.2789 N   0  0  0  0  0  0  0  0  0  0  0  0
    3.1338   -3.8585    3.1378 C   0  0  0  0  0  0  0  0  0  0  0  0
    2.9888   -1.9408    4.0255 H   0  0  0  0  0  0  0  0  0  0  0  0
    2.5317   -4.5517    3.7436 H   0  0  0  0  0  0  0  0  0  0  0  0
    3.0876   -4.1603    2.0810 H   0  0  0  0  0  0  0  0  0  0  0  0
    4.1785   -3.8844    3.4812 H   0  0  0  0  0  0  0  0  0  0  0  0
 22 24  2  0  0  0  0
 24 26  1  0  0  0  0
 23 25  2  0  0  0  0
 25 26  1  0  0  0  0
 21 22  1  0  0  0  0
 22 23  1  0  0  0  0
  1  3  1  0  0  0  0
  1  7  1  0  0  0  0
  1  2  2  0  0  0  0
 35 36  1  0  0  0  0
 36 44  1  0  0  0  0
 36 37  2  0  0  0  0
  8  9  1  0  0  0  0
  9 17  1  0  0  0  0
  9 10  2  0  0  0  0
 18 19  1  0  0  0  0
 19 34  1  0  0  0  0
 19 20  2  0  0  0  0
 35 38  1  0  0  0  0
  8 11  1  0  0  0  0
 44 45  1  0  0  0  0
 18 21  1  0  0  0  0
 34 35  1  0  0  0  0
  7  8  1  0  0  0  0
 17 18  1  0  0  0  0
 24 31  1  0  0  0  0
 25 32  1  0  0  0  0
  3  4  1  0  0  0  0
  3  5  1  0  0  0  0
  3  6  1  0  0  0  0
 38 41  1  0  0  0  0
 38 42  1  0  0  0  0
 38 43  1  0  0  0  0
 11 14  1  0  0  0  0
 11 15  1  0  0  0  0
 11 16  1  0  0  0  0
 45 47  1  0  0  0  0
 45 48  1  0  0  0  0
 45 49  1  0  0  0  0
 21 29  1  0  0  0  0
 21 30  1  0  0  0  0
 35 40  1  0  0  0  0
  8 13  1  0  0  0  0
 18 28  1  0  0  0  0
 26 33  1  0  0  0  0
 44 46  1  0  0  0  0
  7 12  1  0  0  0  0
 34 39  1  0  0  0  0
 17 27  1  0  0  0  0
M  END
$$$$

  -OEChem-05262214473D

 49 49  0     1  0  0  0  0  0999 V2000
   -1.6183    0.5613    3.8201 C   0  0  0  0  0  0  0  0  0  0  0  0
   -0.6710   -0.0534    3.3444 O   0  0  0  0  0  0  0  0  0  0  0  0
   -2.0502    0.2789    5.2208 C   0  0  0  0  0  0  0  0  0  0  0  0
   -2.8099   -0.5175    5.2742 H   0  0  0  0  0  0  0  0  0  0  0  0
   -1.2190   -0.0687    5.8551 H   0  0  0  0  0  0  0  0  0  0  0  0
   -2.4882    1.1338    5.7604 H   0  0  0  0  0  0  0  0  0  0  0  0
   -2.3680    1.5337    3.1790 N   0  0  0  0  0  0  0  0  0  0  0  0
   -2.1212    1.9597    1.8266 C   0  0  2  0  0  0  0  0  0  0  0  0
   -0.7862    1.3744    1.3854 C   0  0  0  0  0  0  0  0  0  0  0  0
    0.0859    1.0216    2.1767 O   0  0  0  0  0  0  0  0  0  0  0  0
   -2.1124    3.4765    1.7171 C   0  0  0  0  0  0  0  0  0  0  0  0
   -3.1331    1.9695    3.6908 H   0  0  0  0  0  0  0  0  0  0  0  0
   -2.9253    1.5413    1.2115 H   0  0  0  0  0  0  0  0  0  0  0  0
   -1.3133    3.9138    2.3268 H   0  0  0  0  0  0  0  0  0  0  0  0
   -1.9529    3.7988    0.6829 H   0  0  0  0  0  0  0  0  0  0  0  0
   -3.0626    3.8977    2.0629 H   0  0  0  0  0  0  0  0  0  0  0  0
   -0.6635    1.3313    0.0020 N   0  0  0  0  0  0  0  0  0  0  0  0
    0.5138    0.8305   -0.6617 C   0  0  2  0  0  0  0  0  0  0  0  0
    1.3256    0.0646    0.3769 C   0  0  0  0  0  0  0  0  0  0  0  0
    2.5113   -0.2199    0.2224 O   0  0  0  0  0  0  0  0  0  0  0  0
    1.3566    1.9557   -1.2730 C   0  0  0  0  0  0  0  0  0  0  0  0
    0.6322    2.6976   -2.3696 C   0  0  0  0  0  0  0  0  0  0  0  0
    0.4705    2.1294   -3.6084 N   0  0  0  0  0  0  0  0  0  0  0  0
    0.0660    3.9496   -2.3199 C   0  0  0  0  0  0  0  0  0  0  0  0
   -0.1887    3.0280   -4.3055 C   0  0  0  0  0  0  0  0  0  0  0  0
   -0.4554    4.1475   -3.5673 N   0  0  0  0  0  0  0  0  0  0  0  0
   -1.4467    1.6280   -0.5753 H   0  0  0  0  0  0  0  0  0  0  0  0
    0.1652    0.1317   -1.4312 H   0  0  0  0  0  0  0  0  0  0  0  0
    2.3027    1.5545   -1.6610 H   0  0  0  0  0  0  0  0  0  0  0  0
    1.6464    2.6806   -0.5009 H   0  0  0  0  0  0  0  0  0  0  0  0
   -0.0120    4.6940   -1.5407 H   0  0  0  0  0  0  0  0  0  0  0  0
   -0.4997    2.9319   -5.3362 H   0  0  0  0  0  0  0  0  0  0  0  0
   -0.9490    4.9706   -3.8861 H   0  0  0  0  0  0  0  0  0  0  0  0
    0.5810   -0.2171    1.5139 N   0  0  0  0  0  0  0  0  0  0  0  0
    1.1170   -0.9140    2.6609 C   0  0  2  0  0  0  0  0  0  0  0  0
    1.8045   -2.1788    2.1638 C   0  0  0  0  0  0  0  0  0  0  0  0
    1.5379   -2.7082    1.0869 O   0  0  0  0  0  0  0  0  0  0  0  0
    0.0251   -1.2479    3.6655 C   0  0  0  0  0  0  0  0  0  0  0  0
   -0.3895    0.0815    1.5411 H   0  0  0  0  0  0  0  0  0  0  0  0
    1.8590   -0.2493    3.1166 H   0  0  0  0  0  0  0  0  0  0  0  0
   -0.7277   -1.9131    3.2270 H   0  0  0  0  0  0  0  0  0  0  0  0
    0.4370   -1.7504    4.5468 H   0  0  0  0  0  0  0  0  0  0  0  0
   -0.4881   -0.3397    3.9995 H   0  0  0  0  0  0  0  0  0  0  0  0
    2.7200   -2.6711    3.0834 N   0  0  0  0  0  0  0  0  0  0  0  0
    3.4923   -3.8690    2.8499 C   0  0  0  0  0  0  0  0  0  0  0  0
    2.8908   -2.1570    3.9426 H   0  0  0  0  0  0  0  0  0  0  0  0
    2.9622   -4.7357    3.2714 H   0  0  0  0  0  0  0  0  0  0  0  0
    3.6276   -4.0128    1.7678 H   0  0  0  0  0  0  0  0  0  0  0  0
    4.4759   -3.7708    3.3325 H   0  0  0  0  0  0  0  0  0  0  0  0
 22 24  2  0  0  0  0
 24 26  1  0  0  0  0
 23 25  2  0  0  0  0
 25 26  1  0  0  0  0
 21 22  1  0  0  0  0
 22 23  1  0  0  0  0
  1  3  1  0  0  0  0
  1  7  1  0  0  0  0
  1  2  2  0  0  0  0
 35 36  1  0  0  0  0
 36 44  1  0  0  0  0
 36 37  2  0  0  0  0
  8  9  1  0  0  0  0
  9 17  1  0  0  0  0
  9 10  2  0  0  0  0
 18 19  1  0  0  0  0
 19 34  1  0  0  0  0
 19 20  2  0  0  0  0
 35 38  1  0  0  0  0
  8 11  1  0  0  0  0
 44 45  1  0  0  0  0
 18 21  1  0  0  0  0
 34 35  1  0  0  0  0
  7  8  1  0  0  0  0
 17 18  1  0  0  0  0
 24 31  1  0  0  0  0
 25 32  1  0  0  0  0
  3  4  1  0  0  0  0
  3  5  1  0  0  0  0
  3  6  1  0  0  0  0
 38 41  1  0  0  0  0
 38 42  1  0  0  0  0
 38 43  1  0  0  0  0
 11 14  1  0  0  0  0
 11 15  1  0  0  0  0
 11 16  1  0  0  0  0
 45 47  1  0  0  0  0
 45 48  1  0  0  0  0
 45 49  1  0  0  0  0
 21 29  1  0  0  0  0
 21 30  1  0  0  0  0
 35 40  1  0  0  0  0
  8 13  1  0  0  0  0
 18 28  1  0  0  0  0
 26 33  1  0  0  0  0
 44 46  1  0  0  0  0
  7 12  1  0  0  0  0
 34 39  1  0  0  0  0
 17 27  1  0  0  0  0
M  END
$$$$

  -OEChem-05262214473D

 49 49  0     1  0  0  0  0  0999 V2000
   -1.6183    0.5613    3.8201 C   0  0  0  0  0  0  0  0  0  0  0  0
   -0.6710   -0.0534    3.3444 O   0  0  0  0  0  0  0  0  0  0  0  0
   -2.0502    0.2789    5.2208 C   0  0  0  0  0  0  0  0  0  0  0  0
   -2.8099   -0.5175    5.2742 H   0  0  0  0  0  0  0  0  0  0  0  0
   -1.2190   -0.0687    5.8551 H   0  0  0  0  0  0  0  0  0  0  0  0
   -2.4882    1.1338    5.7604 H   0  0  0  0  0  0  0  0  0  0  0  0
   -2.3680    1.5337    3.1790 N   0  0  0  0  0  0  0  0  0  0  0  0
   -2.1212    1.9597    1.8266 C   0  0  2  0  0  0  0  0  0  0  0  0
   -0.7862    1.3744    1.3854 C   0  0  0  0  0  0  0  0  0  0  0  0
    0.0859    1.0216    2.1767 O   0  0  0  0  0  0  0  0  0  0  0  0
   -2.1124    3.4765    1.7171 C   0  0  0  0  0  0  0  0  0  0  0  0
   -3.1331    1.9695    3.6908 H   0  0  0  0  0  0  0  0  0  0  0  0
   -2.9253    1.5413    1.2115 H   0  0  0  0  0  0  0  0  0  0  0  0
   -1.3133    3.9138    2.3268 H   0  0  0  0  0  0  0  0  0  0  0  0
   -1.9529    3.7988    0.6829 H   0  0  0  0  0  0  0  0  0  0  0  0
   -3.0626    3.8977    2.0629 H   0  0  0  0  0  0  0  0  0  0  0  0
   -0.6635    1.3313    0.0020 N   0  0  0  0  0  0  0  0  0  0  0  0
    0.5138    0.8305   -0.6617 C   0  0  2  0  0  0  0  0  0  0  0  0
    1.3256    0.0646    0.3769 C   0  0  0  0  0  0  0  0  0  0  0  0
    2.5533    0.0087    0.3582 O   0  0  0  0  0  0  0  0  0  0  0  0
    1.3566    1.9557   -1.2730 C   0  0  0  0  0  0  0  0  0  0  0  0
    0.6322    2.6976   -2.3696 C   0  0  0  0  0  0  0  0  0  0  0  0
    0.4705    2.1294   -3.6084 N   0  0  0  0  0  0  0  0  0  0  0  0
    0.0660    3.9496   -2.3199 C   0  0  0  0  0  0  0  0  0  0  0  0
   -0.1887    3.0280   -4.3055 C   0  0  0  0  0  0  0  0  0  0  0  0
   -0.4554    4.1475   -3.5673 N   0  0  0  0  0  0  0  0  0  0  0  0
   -1.4467    1.6280   -0.5753 H   0  0  0  0  0  0  0  0  0  0  0  0
    0.1652    0.1317   -1.4312 H   0  0  0  0  0  0  0  0  0  0  0  0
    2.3027    1.5545   -1.6610 H   0  0  0  0  0  0  0  0  0  0  0  0
    1.6464    2.6806   -0.5009 H   0  0  0  0  0  0  0  0  0  0  0  0
   -0.0120    4.6940   -1.5407 H   0  0  0  0  0  0  0  0  0  0  0  0
   -0.4997    2.9319   -5.3362 H   0  0  0  0  0  0  0  0  0  0  0  0
   -0.9490    4.9706   -3.8861 H   0  0  0  0  0  0  0  0  0  0  0  0
    0.5176   -0.5044    1.3516 N   0  0  0  0  0  0  0  0  0  0  0  0
    1.0348   -1.2654    2.4661 C   0  0  2  0  0  0  0  0  0  0  0  0
    1.9986   -2.3087    1.9163 C   0  0  0  0  0  0  0  0  0  0  0  0
    1.9633   -2.7081    0.7543 O   0  0  0  0  0  0  0  0  0  0  0  0
   -0.0867   -1.9235    3.2547 C   0  0  0  0  0  0  0  0  0  0  0  0
   -0.4877   -0.3797    1.2778 H   0  0  0  0  0  0  0  0  0  0  0  0
    1.5819   -0.5617    3.1029 H   0  0  0  0  0  0  0  0  0  0  0  0
   -0.6461   -2.6321    2.6331 H   0  0  0  0  0  0  0  0  0  0  0  0
    0.3046   -2.4761    4.1152 H   0  0  0  0  0  0  0  0  0  0  0  0
   -0.7951   -1.1741    3.6241 H   0  0  0  0  0  0  0  0  0  0  0  0
    2.8748   -2.7728    2.8874 N   0  0  0  0  0  0  0  0  0  0  0  0
    3.8779   -3.7761    2.6170 C   0  0  0  0  0  0  0  0  0  0  0  0
    2.8450   -2.3717    3.8201 H   0  0  0  0  0  0  0  0  0  0  0  0
    3.4718   -4.7725    2.8459 H   0  0  0  0  0  0  0  0  0  0  0  0
    4.1638   -3.7319    1.5557 H   0  0  0  0  0  0  0  0  0  0  0  0
    4.7625   -3.5881    3.2432 H   0  0  0  0  0  0  0  0  0  0  0  0
 22 24  2  0  0  0  0
 24 26  1  0  0  0  0
 23 25  2  0  0  0  0
 25 26  1  0  0  0  0
 21 22  1  0  0  0  0
 22 23  1  0  0  0  0
  1  3  1  0  0  0  0
  1  7  1  0  0  0  0
  1  2  2  0  0  0  0
 35 36  1  0  0  0  0
 36 44  1  0  0  0  0
 36 37  2  0  0  0  0
  8  9  1  0  0  0  0
  9 17  1  0  0  0  0
  9 10  2  0  0  0  0
 18 19  1  0  0  0  0
 19 34  1  0  0  0  0
 19 20  2  0  0  0  0
 35 38  1  0  0  0  0
  8 11  1  0  0  0  0
 44 45  1  0  0  0  0
 18 21  1  0  0  0  0
 34 35  1  0  0  0  0
  7  8  1  0  0  0  0
 17 18  1  0  0  0  0
 24 31  1  0  0  0  0
 25 32  1  0  0  0  0
  3  4  1  0  0  0  0
  3  5  1  0  0  0  0
  3  6  1  0  0  0  0
 38 41  1  0  0  0  0
 38 42  1  0  0  0  0
 38 43  1  0  0  0  0
 11 14  1  0  0  0  0
 11 15  1  0  0  0  0
 11 16  1  0  0  0  0
 45 47  1  0  0  0  0
 45 48  1  0  0  0  0
 45 49  1  0  0  0  0
 21 29  1  0  0  0  0
 21 30  1  0  0  0  0
 35 40  1  0  0  0  0
  8 13  1  0  0  0  0
 18 28  1  0  0  0  0
 26 33  1  0  0  0  0
 44 46  1  0  0  0  0
  7 12  1  0  0  0  0
 34 39  1  0  0  0  0
 17 27  1  0  0  0  0
M  END
$$$$

  -OEChem-05262214473D

 49 49  0     1  0  0  0  0  0999 V2000
   -1.6183    0.5613    3.8201 C   0  0  0  0  0  0  0  0  0  0  0  0
   -0.6710   -0.0534    3.3444 O   0  0  0  0  0  0  0  0  0  0  0  0
   -2.0502    0.2789    5.2208 C   0  0  0  0  0  0  0  0  0  0  0  0
   -2.8099   -0.5175    5.2742 H   0  0  0  0  0  0  0  0  0  0  0  0
   -1.2190   -0.0687    5.8551 H   0  0  0  0  0  0  0  0  0  0  0  0
   -2.4882    1.1338    5.7604 H   0  0  0  0  0  0  0  0  0  0  0  0
   -2.3680    1.5337    3.1790 N   0  0  0  0  0  0  0  0  0  0  0  0
   -2.1212    1.9597    1.8266 C   0  0  2  0  0  0  0  0  0  0  0  0
   -0.7862    1.3744    1.3854 C   0  0  0  0  0  0  0  0  0  0  0  0
    0.0859    1.0216    2.1767 O   0  0  0  0  0  0  0  0  0  0  0  0
   -2.1124    3.4765    1.7171 C   0  0  0  0  0  0  0  0  0  0  0  0
   -3.1331    1.9695    3.6908 H   0  0  0  0  0  0  0  0  0  0  0  0
   -2.9253    1.5413    1.2115 H   0  0  0  0  0  0  0  0  0  0  0  0
   -1.3133    3.9138    2.3268 H   0  0  0  0  0  0  0  0  0  0  0  0
   -1.9529    3.7988    0.6829 H   0  0  0  0  0  0  0  0  0  0  0  0
   -3.0626    3.8977    2.0629 H   0  0  0  0  0  0  0  0  0  0  0  0
   -0.6635    1.3313    0.0020 N   0  0  0  0  0  0  0  0  0  0  0  0
    0.5138    0.8305   -0.6617 C   0  0  2  0  0  0  0  0  0  0  0  0
    1.3256    0.0646    0.3769 C   0  0  0  0  0  0  0  0  0  0  0  0
    2.5360    0.2182    0.5263 O   0  0  0  0  0  0  0  0  0  0  0  0
    1.3566    1.9557   -1.2730 C   0  0  0  0  0  0  0  0  0  0  0  0
    0.6322    2.6976   -2.3696 C   0  0  0  0  0  0  0  0  0  0  0  0
    0.4705    2.1294   -3.6084 N   0  0  0  0  0  0  0  0  0  0  0  0
    0.0660    3.9496   -2.3199 C   0  0  0  0  0  0  0  0  0  0  0  0
   -0.1887    3.0280   -4.3055 C   0  0  0  0  0  0  0  0  0  0  0  0
   -0.4554    4.1475   -3.5673 N   0  0  0  0  0  0  0  0  0  0  0  0
   -1.4467    1.6280   -0.5753 H   0  0  0  0  0  0  0  0  0  0  0  0
    0.1652    0.1317   -1.4312 H   0  0  0  0  0  0  0  0  0  0  0  0
    2.3027    1.5545   -1.6610 H   0  0  0  0  0  0  0  0  0  0  0  0
    1.6464    2.6806   -0.5009 H   0  0  0  0  0  0  0  0  0  0  0  0
   -0.0120    4.6940   -1.5407 H   0  0  0  0  0  0  0  0  0  0  0  0
   -0.4997    2.9319   -5.3362 H   0  0  0  0  0  0  0  0  0  0  0  0
   -0.9490    4.9706   -3.8861 H   0  0  0  0  0  0  0  0  0  0  0  0
    0.5282   -0.7707    1.1469 N   0  0  0  0  0  0  0  0  0  0  0  0
    1.0428   -1.5924    2.2187 C   0  0  2  0  0  0  0  0  0  0  0  0
    2.2411   -2.3658    1.6846 C   0  0  0  0  0  0  0  0  0  0  0  0
    2.4175   -2.5873    0.4884 O   0  0  0  0  0  0  0  0  0  0  0  0
   -0.0221   -2.5391    2.7502 C   0  0  0  0  0  0  0  0  0  0  0  0
   -0.4671   -0.8062    0.9471 H   0  0  0  0  0  0  0  0  0  0  0  0
    1.3710   -0.9103    3.0106 H   0  0  0  0  0  0  0  0  0  0  0  0
   -0.3634   -3.2303    1.9709 H   0  0  0  0  0  0  0  0  0  0  0  0
    0.3609   -3.1409    3.5810 H   0  0  0  0  0  0  0  0  0  0  0  0
   -0.8956   -1.9826    3.1066 H   0  0  0  0  0  0  0  0  0  0  0  0
    3.0678   -2.8168    2.7041 N   0  0  0  0  0  0  0  0  0  0  0  0
    4.2643   -3.5864    2.4549 C   0  0  0  0  0  0  0  0  0  0  0  0
    2.8546   -2.5702    3.6662 H   0  0  0  0  0  0  0  0  0  0  0  0
    4.0259   -4.6594    2.4962 H   0  0  0  0  0  0  0  0  0  0  0  0
    4.6599   -3.3368    1.4593 H   0  0  0  0  0  0  0  0  0  0  0  0
    5.0187   -3.3488    3.2193 H   0  0  0  0  0  0  0  0  0  0  0  0
 22 24  2  0  0  0  0
 24 26  1  0  0  0  0
 23 25  2  0  0  0  0
 25 26  1  0  0  0  0
 21 22  1  0  0  0  0
 22 23  1  0  0  0  0
  1  3  1  0  0  0  0
  1  7  1  0  0  0  0
  1  2  2  0  0  0  0
 35 36  1  0  0  0  0
 36 44  1  0  0  0  0
 36 37  2  0  0  0  0
  8  9  1  0  0  0  0
  9 17  1  0  0  0  0
  9 10  2  0  0  0  0
 18 19  1  0  0  0  0
 19 34  1  0  0  0  0
 19 20  2  0  0  0  0
 35 38  1  0  0  0  0
  8 11  1  0  0  0  0
 44 45  1  0  0  0  0
 18 21  1  0  0  0  0
 34 35  1  0  0  0  0
  7  8  1  0  0  0  0
 17 18  1  0  0  0  0
 24 31  1  0  0  0  0
 25 32  1  0  0  0  0
  3  4  1  0  0  0  0
  3  5  1  0  0  0  0
  3  6  1  0  0  0  0
 38 41  1  0  0  0  0
 38 42  1  0  0  0  0
 38 43  1  0  0  0  0
 11 14  1  0  0  0  0
 11 15  1  0  0  0  0
 11 16  1  0  0  0  0
 45 47  1  0  0  0  0
 45 48  1  0  0  0  0
 45 49  1  0  0  0  0
 21 29  1  0  0  0  0
 21 30  1  0  0  0  0
 35 40  1  0  0  0  0
  8 13  1  0  0  0  0
 18 28  1  0  0  0  0
 26 33  1  0  0  0  0
 44 46  1  0  0  0  0
  7 12  1  0  0  0  0
 34 39  1  0  0  0  0
 17 27  1  0  0  0  0
M  END
$$$$

  -OEChem-05262214473D

 49 49  0     1  0  0  0  0  0999 V2000
   -1.6183    0.5613    3.8201 C   0  0  0  0  0  0  0  0  0  0  0  0
   -0.6710   -0.0534    3.3444 O   0  0  0  0  0  0  0  0  0  0  0  0
   -2.0502    0.2789    5.2208 C   0  0  0  0  0  0  0  0  0  0  0  0
   -2.8099   -0.5175    5.2742 H   0  0  0  0  0  0  0  0  0  0  0  0
   -1.2190   -0.0687    5.8551 H   0  0  0  0  0  0  0  0  0  0  0  0
   -2.4882    1.1338    5.7604 H   0  0  0  0  0  0  0  0  0  0  0  0
   -2.3680    1.5337    3.1790 N   0  0  0  0  0  0  0  0  0  0  0  0
   -2.1212    1.9597    1.8266 C   0  0  2  0  0  0  0  0  0  0  0  0
   -0.7862    1.3744    1.3854 C   0  0  0  0  0  0  0  0  0  0  0  0
    0.0859    1.0216    2.1767 O   0  0  0  0  0  0  0  0  0  0  0  0
   -2.1124    3.4765    1.7171 C   0  0  0  0  0  0  0  0  0  0  0  0
   -3.1331    1.9695    3.6908 H   0  0  0  0  0  0  0  0  0  0  0  0
   -2.9253    1.5413    1.2115 H   0  0  0  0  0  0  0  0  0  0  0  0
   -1.3133    3.9138    2.3268 H   0  0  0  0  0  0  0  0  0  0  0  0
   -1.9529    3.7988    0.6829 H   0  0  0  0  0  0  0  0  0  0  0  0
   -3.0626    3.8977    2.0629 H   0  0  0  0  0  0  0  0  0  0  0  0
   -0.6635    1.3313    0.0020 N   0  0  0  0  0  0  0  0  0  0  0  0
    0.5138    0.8305   -0.6617 C   0  0  2  0  0  0  0  0  0  0  0  0
    1.3256    0.0646    0.3769 C   0  0  0  0  0  0  0  0  0  0  0  0
    2.4604    0.3944    0.7152 O   0  0  0  0  0  0  0  0  0  0  0  0
    1.3566    1.9557   -1.2730 C   0  0  0  0  0  0  0  0  0  0  0  0
    0.6322    2.6976   -2.3696 C   0  0  0  0  0  0  0  0  0  0  0  0
    0.4705    2.1294   -3.6084 N   0  0  0  0  0  0  0  0  0  0  0  0
    0.0660    3.9496   -2.3199 C   0  0  0  0  0  0  0  0  0  0  0  0
   -0.1887    3.0280   -4.3055 C   0  0  0  0  0  0  0  0  0  0  0  0
   -0.4554    4.1475   -3.5673 N   0  0  0  0  0  0  0  0  0  0  0  0
   -1.4467    1.6280   -0.5753 H   0  0  0  0  0  0  0  0  0  0  0  0
    0.1652    0.1317   -1.4312 H   0  0  0  0  0  0  0  0  0  0  0  0
    2.3027    1.5545   -1.6610 H   0  0  0  0  0  0  0  0  0  0  0  0
    1.6464    2.6806   -0.5009 H   0  0  0  0  0  0  0  0  0  0  0  0
   -0.0120    4.6940   -1.5407 H   0  0  0  0  0  0  0  0  0  0  0  0
   -0.4997    2.9319   -5.3362 H   0  0  0  0  0  0  0  0  0  0  0  0
   -0.9490    4.9706   -3.8861 H   0  0  0  0  0  0  0  0  0  0  0  0
    0.6120   -0.9978    0.9140 N   0  0  0  0  0  0  0  0  0  0  0  0
    1.1403   -1.8728    1.9358 C   0  0  2  0  0  0  0  0  0  0  0  0
    2.5156   -2.3463    1.4844 C   0  0  0  0  0  0  0  0  0  0  0  0
    2.8695   -2.3538    0.3073 O   0  0  0  0  0  0  0  0  0  0  0  0
    0.2144   -3.0529    2.1865 C   0  0  0  0  0  0  0  0  0  0  0  0
   -0.3289   -1.1690    0.5716 H   0  0  0  0  0  0  0  0  0  0  0  0
    1.2409   -1.2716    2.8459 H   0  0  0  0  0  0  0  0  0  0  0  0
    0.1013   -3.6670    1.2857 H   0  0  0  0  0  0  0  0  0  0  0  0
    0.6019   -3.6995    2.9808 H   0  0  0  0  0  0  0  0  0  0  0  0
   -0.7829   -2.7098    2.4822 H   0  0  0  0  0  0  0  0  0  0  0  0
    3.2858   -2.7999    2.5462 N   0  0  0  0  0  0  0  0  0  0  0  0
    4.6251   -3.3126    2.3747 C   0  0  0  0  0  0  0  0  0  0  0  0
    2.9189   -2.7391    3.4914 H   0  0  0  0  0  0  0  0  0  0  0  0
    4.5866   -4.4044    2.2459 H   0  0  0  0  0  0  0  0  0  0  0  0
    5.0819   -2.8544    1.4851 H   0  0  0  0  0  0  0  0  0  0  0  0
    5.2271   -3.0692    3.2626 H   0  0  0  0  0  0  0  0  0  0  0  0
 22 24  2  0  0  0  0
 24 26  1  0  0  0  0
 23 25  2  0  0  0  0
 25 26  1  0  0  0  0
 21 22  1  0  0  0  0
 22 23  1  0  0  0  0
  1  3  1  0  0  0  0
  1  7  1  0  0  0  0
  1  2  2  0  0  0  0
 35 36  1  0  0  0  0
 36 44  1  0  0  0  0
 36 37  2  0  0  0  0
  8  9  1  0  0  0  0
  9 17  1  0  0  0  0
  9 10  2  0  0  0  0
 18 19  1  0  0  0  0
 19 34  1  0  0  0  0
 19 20  2  0  0  0  0
 35 38  1  0  0  0  0
  8 11  1  0  0  0  0
 44 45  1  0  0  0  0
 18 21  1  0  0  0  0
 34 35  1  0  0  0  0
  7  8  1  0  0  0  0
 17 18  1  0  0  0  0
 24 31  1  0  0  0  0
 25 32  1  0  0  0  0
  3  4  1  0  0  0  0
  3  5  1  0  0  0  0
  3  6  1  0  0  0  0
 38 41  1  0  0  0  0
 38 42  1  0  0  0  0
 38 43  1  0  0  0  0
 11 14  1  0  0  0  0
 11 15  1  0  0  0  0
 11 16  1  0  0  0  0
 45 47  1  0  0  0  0
 45 48  1  0  0  0  0
 45 49  1  0  0  0  0
 21 29  1  0  0  0  0
 21 30  1  0  0  0  0
 35 40  1  0  0  0  0
  8 13  1  0  0  0  0
 18 28  1  0  0  0  0
 26 33  1  0  0  0  0
 44 46  1  0  0  0  0
  7 12  1  0  0  0  0
 34 39  1  0  0  0  0
 17 27  1  0  0  0  0
M  END
$$$$

  -OEChem-05262214473D

 49 49  0     1  0  0  0  0  0999 V2000
   -1.6183    0.5613    3.8201 C   0  0  0  0  0  0  0  0  0  0  0  0
   -0.6710   -0.0534    3.3444 O   0  0  0  0  0  0  0  0  0  0  0  0
   -2.0502    0.2789    5.2208 C   0  0  0  0  0  0  0  0  0  0  0  0
   -2.8099   -0.5175    5.2742 H   0  0  0  0  0  0  0  0  0  0  0  0
   -1.2190   -0.0687    5.8551 H   0  0  0  0  0  0  0  0  0  0  0  0
   -2.4882    1.1338    5.7604 H   0  0  0  0  0  0  0  0  0  0  0  0
   -2.3680    1.5337    3.1790 N   0  0  0  0  0  0  0  0  0  0  0  0
   -2.1212    1.9597    1.8266 C   0  0  2  0  0  0  0  0  0  0  0  0
   -0.7862    1.3744    1.3854 C   0  0  0  0  0  0  0  0  0  0  0  0
    0.0859    1.0216    2.1767 O   0  0  0  0  0  0  0  0  0  0  0  0
   -2.1124    3.4765    1.7171 C   0  0  0  0  0  0  0  0  0  0  0  0
   -3.1331    1.9695    3.6908 H   0  0  0  0  0  0  0  0  0  0  0  0
   -2.9253    1.5413    1.2115 H   0  0  0  0  0  0  0  0  0  0  0  0
   -1.3133    3.9138    2.3268 H   0  0  0  0  0  0  0  0  0  0  0  0
   -1.9529    3.7988    0.6829 H   0  0  0  0  0  0  0  0  0  0  0  0
   -3.0626    3.8977    2.0629 H   0  0  0  0  0  0  0  0  0  0  0  0
   -0.6635    1.3313    0.0020 N   0  0  0  0  0  0  0  0  0  0  0  0
    0.5138    0.8305   -0.6617 C   0  0  2  0  0  0  0  0  0  0  0  0
    1.3256    0.0646    0.3769 C   0  0  0  0  0  0  0  0  0  0  0  0
    2.3317    0.5251    0.9122 O   0  0  0  0  0  0  0  0  0  0  0  0
    1.3566    1.9557   -1.2730 C   0  0  0  0  0  0  0  0  0  0  0  0
    0.6322    2.6976   -2.3696 C   0  0  0  0  0  0  0  0  0  0  0  0
    0.4705    2.1294   -3.6084 N   0  0  0  0  0  0  0  0  0  0  0  0
    0.0660    3.9496   -2.3199 C   0  0  0  0  0  0  0  0  0  0  0  0
   -0.1887    3.0280   -4.3055 C   0  0  0  0  0  0  0  0  0  0  0  0
   -0.4554    4.1475   -3.5673 N   0  0  0  0  0  0  0  0  0  0  0  0
   -1.4467    1.6280   -0.5753 H   0  0  0  0  0  0  0  0  0  0  0  0
    0.1652    0.1317   -1.4312 H   0  0  0  0  0  0  0  0  0  0  0  0
    2.3027    1.5545   -1.6610 H   0  0  0  0  0  0  0  0  0  0  0  0
    1.6464    2.6806   -0.5009 H   0  0  0  0  0  0  0  0  0  0  0  0
   -0.0120    4.6940   -1.5407 H   0  0  0  0  0  0  0  0  0  0  0  0
   -0.4997    2.9319   -5.3362 H   0  0  0  0  0  0  0  0  0  0  0  0
   -0.9490    4.9706   -3.8861 H   0  0  0  0  0  0  0  0  0  0  0  0
    0.7632   -1.1703    0.6685 N   0  0  0  0  0  0  0  0  0  0  0  0
    1.3206   -2.0875    1.6365 C   0  0  2  0  0  0  0  0  0  0  0  0
    2.8033   -2.2515    1.3295 C   0  0  0  0  0  0  0  0  0  0  0  0
    3.2885   -2.0236    0.2232 O   0  0  0  0  0  0  0  0  0  0  0  0
    0.6067   -3.4298    1.6020 C   0  0  0  0  0  0  0  0  0  0  0  0
   -0.0826   -1.4433    0.1769 H   0  0  0  0  0  0  0  0  0  0  0  0
    1.2002   -1.6208    2.6202 H   0  0  0  0  0  0  0  0  0  0  0  0
    0.7163   -3.9125    0.6240 H   0  0  0  0  0  0  0  0  0  0  0  0
    1.0112   -4.1138    2.3553 H   0  0  0  0  0  0  0  0  0  0  0  0
   -0.4647   -3.3064    1.7935 H   0  0  0  0  0  0  0  0  0  0  0  0
    3.5139   -2.7235    2.4242 N   0  0  0  0  0  0  0  0  0  0  0  0
    4.9357   -2.9735    2.3819 C   0  0  0  0  0  0  0  0  0  0  0  0
    3.0335   -2.8669    3.3076 H   0  0  0  0  0  0  0  0  0  0  0  0
    5.1159   -4.0246    2.1123 H   0  0  0  0  0  0  0  0  0  0  0  0
    5.4011   -2.3177    1.6314 H   0  0  0  0  0  0  0  0  0  0  0  0
    5.3735   -2.7684    3.3700 H   0  0  0  0  0  0  0  0  0  0  0  0
 22 24  2  0  0  0  0
 24 26  1  0  0  0  0
 23 25  2  0  0  0  0
 25 26  1  0  0  0  0
 21 22  1  0  0  0  0
 22 23  1  0  0  0  0
  1  3  1  0  0  0  0
  1  7  1  0  0  0  0
  1  2  2  0  0  0  0
 35 36  1  0  0  0  0
 36 44  1  0  0  0  0
 36 37  2  0  0  0  0
  8  9  1  0  0  0  0
  9 17  1  0  0  0  0
  9 10  2  0  0  0  0
 18 19  1  0  0  0  0
 19 34  1  0  0  0  0
 19 20  2  0  0  0  0
 35 38  1  0  0  0  0
  8 11  1  0  0  0  0
 44 45  1  0  0  0  0
 18 21  1  0  0  0  0
 34 35  1  0  0  0  0
  7  8  1  0  0  0  0
 17 18  1  0  0  0  0
 24 31  1  0  0  0  0
 25 32  1  0  0  0  0
  3  4  1  0  0  0  0
  3  5  1  0  0  0  0
  3  6  1  0  0  0  0
 38 41  1  0  0  0  0
 38 42  1  0  0  0  0
 38 43  1  0  0  0  0
 11 14  1  0  0  0  0
 11 15  1  0  0  0  0
 11 16  1  0  0  0  0
 45 47  1  0  0  0  0
 45 48  1  0  0  0  0
 45 49  1  0  0  0  0
 21 29  1  0  0  0  0
 21 30  1  0  0  0  0
 35 40  1  0  0  0  0
  8 13  1  0  0  0  0
 18 28  1  0  0  0  0
 26 33  1  0  0  0  0
 44 46  1  0  0  0  0
  7 12  1  0  0  0  0
 34 39  1  0  0  0  0
 17 27  1  0  0  0  0
M  END
$$$$

  -OEChem-05262214473D

 49 49  0     1  0  0  0  0  0999 V2000
   -1.6183    0.5613    3.8201 C   0  0  0  0  0  0  0  0  0  0  0  0
   -0.6710   -0.0534    3.3444 O   0  0  0  0  0  0  0  0  0  0  0  0
   -2.0502    0.2789    5.2208 C   0  0  0  0  0  0  0  0  0  0  0  0
   -2.8099   -0.5175    5.2742 H   0  0  0  0  0  0  0  0  0  0  0  0
   -1.2190   -0.0687    5.8551 H   0  0  0  0  0  0  0  0  0  0  0  0
   -2.4882    1.1338    5.7604 H   0  0  0  0  0  0  0  0  0  0  0  0
   -2.3680    1.5337    3.1790 N   0  0  0  0  0  0  0  0  0  0  0  0
   -2.1212    1.9597    1.8266 C   0  0  2  0  0  0  0  0  0  0  0  0
   -0.7862    1.3744    1.3854 C   0  0  0  0  0  0  0  0  0  0  0  0
    0.0859    1.0216    2.1767 O   0  0  0  0  0  0  0  0  0  0  0  0
   -2.1124    3.4765    1.7171 C   0  0  0  0  0  0  0  0  0  0  0  0
   -3.1331    1.9695    3.6908 H   0  0  0  0  0  0  0  0  0  0  0  0
   -2.9253    1.5413    1.2115 H   0  0  0  0  0  0  0  0  0  0  0  0
   -1.3133    3.9138    2.3268 H   0  0  0  0  0  0  0  0  0  0  0  0
   -1.9529    3.7988    0.6829 H   0  0  0  0  0  0  0  0  0  0  0  0
   -3.0626    3.8977    2.0629 H   0  0  0  0  0  0  0  0  0  0  0  0
   -0.6635    1.3313    0.0020 N   0  0  0  0  0  0  0  0  0  0  0  0
    0.5138    0.8305   -0.6617 C   0  0  2  0  0  0  0  0  0  0  0  0
    1.3256    0.0646    0.3769 C   0  0  0  0  0  0  0  0  0  0  0  0
    2.1588    0.6016    1.1038 O   0  0  0  0  0  0  0  0  0  0  0  0
    1.3566    1.9557   -1.2730 C   0  0  0  0  0  0  0  0  0  0  0  0
    0.6322    2.6976   -2.3696 C   0  0  0  0  0  0  0  0  0  0  0  0
    0.4705    2.1294   -3.6084 N   0  0  0  0  0  0  0  0  0  0  0  0
    0.0660    3.9496   -2.3199 C   0  0  0  0  0  0  0  0  0  0  0  0
   -0.1887    3.0280   -4.3055 C   0  0  0  0  0  0  0  0  0  0  0  0
   -0.4554    4.1475   -3.5673 N   0  0  0  0  0  0  0  0  0  0  0  0
   -1.4467    1.6280   -0.5753 H   0  0  0  0  0  0  0  0  0  0  0  0
    0.1652    0.1317   -1.4312 H   0  0  0  0  0  0  0  0  0  0  0  0
    2.3027    1.5545   -1.6610 H   0  0  0  0  0  0  0  0  0  0  0  0
    1.6464    2.6806   -0.5009 H   0  0  0  0  0  0  0  0  0  0  0  0
   -0.0120    4.6940   -1.5407 H   0  0  0  0  0  0  0  0  0  0  0  0
   -0.4997    2.9319   -5.3362 H   0  0  0  0  0  0  0  0  0  0  0  0
   -0.9490    4.9706   -3.8861 H   0  0  0  0  0  0  0  0  0  0  0  0
    0.9717   -1.2765    0.4273 N   0  0  0  0  0  0  0  0  0  0  0  0
    1.5717   -2.2218    1.3413 C   0  0  2  0  0  0  0  0  0  0  0  0
    3.0847   -2.0878    1.2303 C   0  0  0  0  0  0  0  0  0  0  0  0
    3.6459   -1.6192    0.2420 O   0  0  0  0  0  0  0  0  0  0  0  0
    1.1281   -3.6441    1.0364 C   0  0  0  0  0  0  0  0  0  0  0  0
    0.2549   -1.6105   -0.2102 H   0  0  0  0  0  0  0  0  0  0  0  0
    1.2519   -1.9341    2.3488 H   0  0  0  0  0  0  0  0  0  0  0  0
    1.4396   -3.9500    0.0309 H   0  0  0  0  0  0  0  0  0  0  0  0
    1.5609   -4.3557    1.7473 H   0  0  0  0  0  0  0  0  0  0  0  0
    0.0375   -3.7316    1.0875 H   0  0  0  0  0  0  0  0  0  0  0  0
    3.7366   -2.5926    2.3466 N   0  0  0  0  0  0  0  0  0  0  0  0
    5.1751   -2.5922    2.4760 C   0  0  0  0  0  0  0  0  0  0  0  0
    3.1906   -2.9447    3.1275 H   0  0  0  0  0  0  0  0  0  0  0  0
    5.5774   -3.5461    2.1043 H   0  0  0  0  0  0  0  0  0  0  0  0
    5.5957   -1.7630    1.8882 H   0  0  0  0  0  0  0  0  0  0  0  0
    5.4479   -2.4668    3.5343 H   0  0  0  0  0  0  0  0  0  0  0  0
 22 24  2  0  0  0  0
 24 26  1  0  0  0  0
 23 25  2  0  0  0  0
 25 26  1  0  0  0  0
 21 22  1  0  0  0  0
 22 23  1  0  0  0  0
  1  3  1  0  0  0  0
  1  7  1  0  0  0  0
  1  2  2  0  0  0  0
 35 36  1  0  0  0  0
 36 44  1  0  0  0  0
 36 37  2  0  0  0  0
  8  9  1  0  0  0  0
  9 17  1  0  0  0  0
  9 10  2  0  0  0  0
 18 19  1  0  0  0  0
 19 34  1  0  0  0  0
 19 20  2  0  0  0  0
 35 38  1  0  0  0  0
  8 11  1  0  0  0  0
 44 45  1  0  0  0  0
 18 21  1  0  0  0  0
 34 35  1  0  0  0  0
  7  8  1  0  0  0  0
 17 18  1  0  0  0  0
 24 31  1  0  0  0  0
 25 32  1  0  0  0  0
  3  4  1  0  0  0  0
  3  5  1  0  0  0  0
  3  6  1  0  0  0  0
 38 41  1  0  0  0  0
 38 42  1  0  0  0  0
 38 43  1  0  0  0  0
 11 14  1  0  0  0  0
 11 15  1  0  0  0  0
 11 16  1  0  0  0  0
 45 47  1  0  0  0  0
 45 48  1  0  0  0  0
 45 49  1  0  0  0  0
 21 29  1  0  0  0  0
 21 30  1  0  0  0  0
 35 40  1  0  0  0  0
  8 13  1  0  0  0  0
 18 28  1  0  0  0  0
 26 33  1  0  0  0  0
 44 46  1  0  0  0  0
  7 12  1  0  0  0  0
 34 39  1  0  0  0  0
 17 27  1  0  0  0  0
M  END
$$$$

  -OEChem-05262214473D

 49 49  0     1  0  0  0  0  0999 V2000
   -1.6183    0.5613    3.8201 C   0  0  0  0  0  0  0  0  0  0  0  0
   -0.6710   -0.0534    3.3444 O   0  0  0  0  0  0  0  0  0  0  0  0
   -2.0502    0.2789    5.2208 C   0  0  0  0  0  0  0  0  0  0  0  0
   -2.8099   -0.5175    5.2742 H   0  0  0  0  0  0  0  0  0  0  0  0
   -1.2190   -0.0687    5.8551 H   0  0  0  0  0  0  0  0  0  0  0  0
   -2.4882    1.1338    5.7604 H   0  0  0  0  0  0  0  0  0  0  0  0
   -2.3680    1.5337    3.1790 N   0  0  0  0  0  0  0  0  0  0  0  0
   -2.1212    1.9597    1.8266 C   0  0  2  0  0  0  0  0  0  0  0  0
   -0.7862    1.3744    1.3854 C   0  0  0  0  0  0  0  0  0  0  0  0
    0.0859    1.0216    2.1767 O   0  0  0  0  0  0  0  0  0  0  0  0
   -2.1124    3.4765    1.7171 C   0  0  0  0  0  0  0  0  0  0  0  0
   -3.1331    1.9695    3.6908 H   0  0  0  0  0  0  0  0  0  0  0  0
   -2.9253    1.5413    1.2115 H   0  0  0  0  0  0  0  0  0  0  0  0
   -1.3133    3.9138    2.3268 H   0  0  0  0  0  0  0  0  0  0  0  0
   -1.9529    3.7988    0.6829 H   0  0  0  0  0  0  0  0  0  0  0  0
   -3.0626    3.8977    2.0629 H   0  0  0  0  0  0  0  0  0  0  0  0
   -0.6635    1.3313    0.0020 N   0  0  0  0  0  0  0  0  0  0  0  0
    0.5138    0.8305   -0.6617 C   0  0  2  0  0  0  0  0  0  0  0  0
    1.3256    0.0646    0.3769 C   0  0  0  0  0  0  0  0  0  0  0  0
    1.9534    0.6186    1.2769 O   0  0  0  0  0  0  0  0  0  0  0  0
    1.3566    1.9557   -1.2730 C   0  0  0  0  0  0  0  0  0  0  0  0
    0.6322    2.6976   -2.3696 C   0  0  0  0  0  0  0  0  0  0  0  0
    0.4705    2.1294   -3.6084 N   0  0  0  0  0  0  0  0  0  0  0  0
    0.0660    3.9496   -2.3199 C   0  0  0  0  0  0  0  0  0  0  0  0
   -0.1887    3.0280   -4.3055 C   0  0  0  0  0  0  0  0  0  0  0  0
   -0.4554    4.1475   -3.5673 N   0  0  0  0  0  0  0  0  0  0  0  0
   -1.4467    1.6280   -0.5753 H   0  0  0  0  0  0  0  0  0  0  0  0
    0.1652    0.1317   -1.4312 H   0  0  0  0  0  0  0  0  0  0  0  0
    2.3027    1.5545   -1.6610 H   0  0  0  0  0  0  0  0  0  0  0  0
    1.6464    2.6806   -0.5009 H   0  0  0  0  0  0  0  0  0  0  0  0
   -0.0120    4.6940   -1.5407 H   0  0  0  0  0  0  0  0  0  0  0  0
   -0.4997    2.9319   -5.3362 H   0  0  0  0  0  0  0  0  0  0  0  0
   -0.9490    4.9706   -3.8861 H   0  0  0  0  0  0  0  0  0  0  0  0
    1.2231   -1.3090    0.2068 N   0  0  0  0  0  0  0  0  0  0  0  0
    1.8762   -2.2665    1.0702 C   0  0  2  0  0  0  0  0  0  0  0  0
    3.3405   -1.8664    1.1936 C   0  0  0  0  0  0  0  0  0  0  0  0
    3.9174   -1.1682    0.3624 O   0  0  0  0  0  0  0  0  0  0  0  0
    1.7431   -3.6812    0.5283 C   0  0  0  0  0  0  0  0  0  0  0  0
    0.6607   -1.6590   -0.5633 H   0  0  0  0  0  0  0  0  0  0  0  0
    1.3923   -2.1903    2.0501 H   0  0  0  0  0  0  0  0  0  0  0  0
    2.2220   -3.7769   -0.4530 H   0  0  0  0  0  0  0  0  0  0  0  0
    2.2137   -4.4085    1.1981 H   0  0  0  0  0  0  0  0  0  0  0  0
    0.6893   -3.9565    0.4122 H   0  0  0  0  0  0  0  0  0  0  0  0
    3.9387   -2.4162    2.3187 N   0  0  0  0  0  0  0  0  0  0  0  0
    5.3268   -2.1946    2.6506 C   0  0  0  0  0  0  0  0  0  0  0  0
    3.3795   -2.9673    2.9631 H   0  0  0  0  0  0  0  0  0  0  0  0
    5.9400   -3.0014    2.2226 H   0  0  0  0  0  0  0  0  0  0  0  0
    5.6526   -1.2284    2.2380 H   0  0  0  0  0  0  0  0  0  0  0  0
    5.4452   -2.1850    3.7441 H   0  0  0  0  0  0  0  0  0  0  0  0
 22 24  2  0  0  0  0
 24 26  1  0  0  0  0
 23 25  2  0  0  0  0
 25 26  1  0  0  0  0
 21 22  1  0  0  0  0
 22 23  1  0  0  0  0
  1  3  1  0  0  0  0
  1  7  1  0  0  0  0
  1  2  2  0  0  0  0
 35 36  1  0  0  0  0
 36 44  1  0  0  0  0
 36 37  2  0  0  0  0
  8  9  1  0  0  0  0
  9 17  1  0  0  0  0
  9 10  2  0  0  0  0
 18 19  1  0  0  0  0
 19 34  1  0  0  0  0
 19 20  2  0  0  0  0
 35 38  1  0  0  0  0
  8 11  1  0  0  0  0
 44 45  1  0  0  0  0
 18 21  1  0  0  0  0
 34 35  1  0  0  0  0
  7  8  1  0  0  0  0
 17 18  1  0  0  0  0
 24 31  1  0  0  0  0
 25 32  1  0  0  0  0
  3  4  1  0  0  0  0
  3  5  1  0  0  0  0
  3  6  1  0  0  0  0
 38 41  1  0  0  0  0
 38 42  1  0  0  0  0
 38 43  1  0  0  0  0
 11 14  1  0  0  0  0
 11 15  1  0  0  0  0
 11 16  1  0  0  0  0
 45 47  1  0  0  0  0
 45 48  1  0  0  0  0
 45 49  1  0  0  0  0
 21 29  1  0  0  0  0
 21 30  1  0  0  0  0
 35 40  1  0  0  0  0
  8 13  1  0  0  0  0
 18 28  1  0  0  0  0
 26 33  1  0  0  0  0
 44 46  1  0  0  0  0
  7 12  1  0  0  0  0
 34 39  1  0  0  0  0
 17 27  1  0  0  0  0
M  END
$$$$

  -OEChem-05262214473D

 49 49  0     1  0  0  0  0  0999 V2000
   -1.6183    0.5613    3.8201 C   0  0  0  0  0  0  0  0  0  0  0  0
   -0.6710   -0.0534    3.3444 O   0  0  0  0  0  0  0  0  0  0  0  0
   -2.0502    0.2789    5.2208 C   0  0  0  0  0  0  0  0  0  0  0  0
   -2.8099   -0.5175    5.2742 H   0  0  0  0  0  0  0  0  0  0  0  0
   -1.2190   -0.0687    5.8551 H   0  0  0  0  0  0  0  0  0  0  0  0
   -2.4882    1.1338    5.7604 H   0  0  0  0  0  0  0  0  0  0  0  0
   -2.3680    1.5337    3.1790 N   0  0  0  0  0  0  0  0  0  0  0  0
   -2.1212    1.9597    1.8266 C   0  0  2  0  0  0  0  0  0  0  0  0
   -0.7862    1.3744    1.3854 C   0  0  0  0  0  0  0  0  0  0  0  0
    0.0859    1.0216    2.1767 O   0  0  0  0  0  0  0  0  0  0  0  0
   -2.1124    3.4765    1.7171 C   0  0  0  0  0  0  0  0  0  0  0  0
   -3.1331    1.9695    3.6908 H   0  0  0  0  0  0  0  0  0  0  0  0
   -2.9253    1.5413    1.2115 H   0  0  0  0  0  0  0  0  0  0  0  0
   -1.3133    3.9138    2.3268 H   0  0  0  0  0  0  0  0  0  0  0  0
   -1.9529    3.7988    0.6829 H   0  0  0  0  0  0  0  0  0  0  0  0
   -3.0626    3.8977    2.0629 H   0  0  0  0  0  0  0  0  0  0  0  0
   -0.6635    1.3313    0.0020 N   0  0  0  0  0  0  0  0  0  0  0  0
    0.5138    0.8305   -0.6617 C   0  0  2  0  0  0  0  0  0  0  0  0
    1.3256    0.0646    0.3769 C   0  0  0  0  0  0  0  0  0  0  0  0
    1.7294    0.5749    1.4197 O   0  0  0  0  0  0  0  0  0  0  0  0
    1.3566    1.9557   -1.2730 C   0  0  0  0  0  0  0  0  0  0  0  0
    0.6322    2.6976   -2.3696 C   0  0  0  0  0  0  0  0  0  0  0  0
    0.4705    2.1294   -3.6084 N   0  0  0  0  0  0  0  0  0  0  0  0
    0.0660    3.9496   -2.3199 C   0  0  0  0  0  0  0  0  0  0  0  0
   -0.1887    3.0280   -4.3055 C   0  0  0  0  0  0  0  0  0  0  0  0
   -0.4554    4.1475   -3.5673 N   0  0  0  0  0  0  0  0  0  0  0  0
   -1.4467    1.6280   -0.5753 H   0  0  0  0  0  0  0  0  0  0  0  0
    0.1652    0.1317   -1.4312 H   0  0  0  0  0  0  0  0  0  0  0  0
    2.3027    1.5545   -1.6610 H   0  0  0  0  0  0  0  0  0  0  0  0
    1.6464    2.6806   -0.5009 H   0  0  0  0  0  0  0  0  0  0  0  0
   -0.0120    4.6940   -1.5407 H   0  0  0  0  0  0  0  0  0  0  0  0
   -0.4997    2.9319   -5.3362 H   0  0  0  0  0  0  0  0  0  0  0  0
   -0.9490    4.9706   -3.8861 H   0  0  0  0  0  0  0  0  0  0  0  0
    1.5003   -1.2658    0.0220 N   0  0  0  0  0  0  0  0  0  0  0  0
    2.2134   -2.2187    0.8419 C   0  0  2  0  0  0  0  0  0  0  0  0
    3.5533   -1.6023    1.2219 C   0  0  0  0  0  0  0  0  0  0  0  0
    4.0844   -0.7013    0.5762 O   0  0  0  0  0  0  0  0  0  0  0  0
    2.4097   -3.5386    0.1124 C   0  0  0  0  0  0  0  0  0  0  0  0
    1.1072   -1.5857   -0.8582 H   0  0  0  0  0  0  0  0  0  0  0  0
    1.6120   -2.3718    1.7446 H   0  0  0  0  0  0  0  0  0  0  0  0
    3.0101   -3.4051   -0.7949 H   0  0  0  0  0  0  0  0  0  0  0  0
    2.9248   -4.2688    0.7452 H   0  0  0  0  0  0  0  0  0  0  0  0
    1.4463   -3.9657   -0.1864 H   0  0  0  0  0  0  0  0  0  0  0  0
    4.1065   -2.2063    2.3423 N   0  0  0  0  0  0  0  0  0  0  0  0
    5.3806   -1.8079    2.8937 C   0  0  0  0  0  0  0  0  0  0  0  0
    3.5873   -2.9333    2.8258 H   0  0  0  0  0  0  0  0  0  0  0  0
    6.1787   -2.4276    2.4591 H   0  0  0  0  0  0  0  0  0  0  0  0
    5.5678   -0.7501    2.6569 H   0  0  0  0  0  0  0  0  0  0  0  0
    5.3656   -1.9422    3.9854 H   0  0  0  0  0  0  0  0  0  0  0  0
 22 24  2  0  0  0  0
 24 26  1  0  0  0  0
 23 25  2  0  0  0  0
 25 26  1  0  0  0  0
 21 22  1  0  0  0  0
 22 23  1  0  0  0  0
  1  3  1  0  0  0  0
  1  7  1  0  0  0  0
  1  2  2  0  0  0  0
 35 36  1  0  0  0  0
 36 44  1  0  0  0  0
 36 37  2  0  0  0  0
  8  9  1  0  0  0  0
  9 17  1  0  0  0  0
  9 10  2  0  0  0  0
 18 19  1  0  0  0  0
 19 34  1  0  0  0  0
 19 20  2  0  0  0  0
 35 38  1  0  0  0  0
  8 11  1  0  0  0  0
 44 45  1  0  0  0  0
 18 21  1  0  0  0  0
 34 35  1  0  0  0  0
  7  8  1  0  0  0  0
 17 18  1  0  0  0  0
 24 31  1  0  0  0  0
 25 32  1  0  0  0  0
  3  4  1  0  0  0  0
  3  5  1  0  0  0  0
  3  6  1  0  0  0  0
 38 41  1  0  0  0  0
 38 42  1  0  0  0  0
 38 43  1  0  0  0  0
 11 14  1  0  0  0  0
 11 15  1  0  0  0  0
 11 16  1  0  0  0  0
 45 47  1  0  0  0  0
 45 48  1  0  0  0  0
 45 49  1  0  0  0  0
 21 29  1  0  0  0  0
 21 30  1  0  0  0  0
 35 40  1  0  0  0  0
  8 13  1  0  0  0  0
 18 28  1  0  0  0  0
 26 33  1  0  0  0  0
 44 46  1  0  0  0  0
  7 12  1  0  0  0  0
 34 39  1  0  0  0  0
 17 27  1  0  0  0  0
M  END
$$$$

  -OEChem-05262214473D

 49 49  0     1  0  0  0  0  0999 V2000
   -1.6183    0.5613    3.8201 C   0  0  0  0  0  0  0  0  0  0  0  0
   -0.6710   -0.0534    3.3444 O   0  0  0  0  0  0  0  0  0  0  0  0
   -2.0502    0.2789    5.2208 C   0  0  0  0  0  0  0  0  0  0  0  0
   -2.8099   -0.5175    5.2742 H   0  0  0  0  0  0  0  0  0  0  0  0
   -1.2190   -0.0687    5.8551 H   0  0  0  0  0  0  0  0  0  0  0  0
   -2.4882    1.1338    5.7604 H   0  0  0  0  0  0  0  0  0  0  0  0
   -2.3680    1.5337    3.1790 N   0  0  0  0  0  0  0  0  0  0  0  0
   -2.1212    1.9597    1.8266 C   0  0  2  0  0  0  0  0  0  0  0  0
   -0.7862    1.3744    1.3854 C   0  0  0  0  0  0  0  0  0  0  0  0
    0.0859    1.0216    2.1767 O   0  0  0  0  0  0  0  0  0  0  0  0
   -2.1124    3.4765    1.7171 C   0  0  0  0  0  0  0  0  0  0  0  0
   -3.1331    1.9695    3.6908 H   0  0  0  0  0  0  0  0  0  0  0  0
   -2.9253    1.5413    1.2115 H   0  0  0  0  0  0  0  0  0  0  0  0
   -1.3133    3.9138    2.3268 H   0  0  0  0  0  0  0  0  0  0  0  0
   -1.9529    3.7988    0.6829 H   0  0  0  0  0  0  0  0  0  0  0  0
   -3.0626    3.8977    2.0629 H   0  0  0  0  0  0  0  0  0  0  0  0
   -0.6635    1.3313    0.0020 N   0  0  0  0  0  0  0  0  0  0  0  0
    0.5138    0.8305   -0.6617 C   0  0  2  0  0  0  0  0  0  0  0  0
    1.3256    0.0646    0.3769 C   0  0  0  0  0  0  0  0  0  0  0  0
    1.5023    0.4736    1.5226 O   0  0  0  0  0  0  0  0  0  0  0  0
    1.3566    1.9557   -1.2730 C   0  0  0  0  0  0  0  0  0  0  0  0
    0.6322    2.6976   -2.3696 C   0  0  0  0  0  0  0  0  0  0  0  0
    0.4705    2.1294   -3.6084 N   0  0  0  0  0  0  0  0  0  0  0  0
    0.0660    3.9496   -2.3199 C   0  0  0  0  0  0  0  0  0  0  0  0
   -0.1887    3.0280   -4.3055 C   0  0  0  0  0  0  0  0  0  0  0  0
   -0.4554    4.1475   -3.5673 N   0  0  0  0  0  0  0  0  0  0  0  0
   -1.4467    1.6280   -0.5753 H   0  0  0  0  0  0  0  0  0  0  0  0
    0.1652    0.1317   -1.4312 H   0  0  0  0  0  0  0  0  0  0  0  0
    2.3027    1.5545   -1.6610 H   0  0  0  0  0  0  0  0  0  0  0  0
    1.6464    2.6806   -0.5009 H   0  0  0  0  0  0  0  0  0  0  0  0
   -0.0120    4.6940   -1.5407 H   0  0  0  0  0  0  0  0  0  0  0  0
   -0.4997    2.9319   -5.3362 H   0  0  0  0  0  0  0  0  0  0  0  0
   -0.9490    4.9706   -3.8861 H   0  0  0  0  0  0  0  0  0  0  0  0
    1.7845   -1.1496   -0.1145 N   0  0  0  0  0  0  0  0  0  0  0  0
    2.5605   -2.0816    0.6717 C   0  0  2  0  0  0  0  0  0  0  0  0
    3.7086   -1.3137    1.3134 C   0  0  0  0  0  0  0  0  0  0  0  0
    4.1357   -0.2502    0.8687 O   0  0  0  0  0  0  0  0  0  0  0  0
    3.0825   -3.2260   -0.1830 C   0  0  0  0  0  0  0  0  0  0  0  0
    1.5639   -1.3956   -1.0750 H   0  0  0  0  0  0  0  0  0  0  0  0
    1.8959   -2.4663    1.4530 H   0  0  0  0  0  0  0  0  0  0  0  0
    3.7502   -2.8599   -0.9714 H   0  0  0  0  0  0  0  0  0  0  0  0
    3.6461   -3.9461    0.4194 H   0  0  0  0  0  0  0  0  0  0  0  0
    2.2570   -3.7587   -0.6674 H   0  0  0  0  0  0  0  0  0  0  0  0
    4.2285   -1.9773    2.4159 N   0  0  0  0  0  0  0  0  0  0  0  0
    5.3327   -1.4584    3.1888 C   0  0  0  0  0  0  0  0  0  0  0  0
    3.7999   -2.8448    2.7249 H   0  0  0  0  0  0  0  0  0  0  0  0
    6.2774   -1.8639    2.7976 H   0  0  0  0  0  0  0  0  0  0  0  0
    5.3471   -0.3609    3.1165 H   0  0  0  0  0  0  0  0  0  0  0  0
    5.2146   -1.7550    4.2415 H   0  0  0  0  0  0  0  0  0  0  0  0
 22 24  2  0  0  0  0
 24 26  1  0  0  0  0
 23 25  2  0  0  0  0
 25 26  1  0  0  0  0
 21 22  1  0  0  0  0
 22 23  1  0  0  0  0
  1  3  1  0  0  0  0
  1  7  1  0  0  0  0
  1  2  2  0  0  0  0
 35 36  1  0  0  0  0
 36 44  1  0  0  0  0
 36 37  2  0  0  0  0
  8  9  1  0  0  0  0
  9 17  1  0  0  0  0
  9 10  2  0  0  0  0
 18 19  1  0  0  0  0
 19 34  1  0  0  0  0
 19 20  2  0  0  0  0
 35 38  1  0  0  0  0
  8 11  1  0  0  0  0
 44 45  1  0  0  0  0
 18 21  1  0  0  0  0
 34 35  1  0  0  0  0
  7  8  1  0  0  0  0
 17 18  1  0  0  0  0
 24 31  1  0  0  0  0
 25 32  1  0  0  0  0
  3  4  1  0  0  0  0
  3  5  1  0  0  0  0
  3  6  1  0  0  0  0
 38 41  1  0  0  0  0
 38 42  1  0  0  0  0
 38 43  1  0  0  0  0
 11 14  1  0  0  0  0
 11 15  1  0  0  0  0
 11 16  1  0  0  0  0
 45 47  1  0  0  0  0
 45 48  1  0  0  0  0
 45 49  1  0  0  0  0
 21 29  1  0  0  0  0
 21 30  1  0  0  0  0
 35 40  1  0  0  0  0
  8 13  1  0  0  0  0
 18 28  1  0  0  0  0
 26 33  1  0  0  0  0
 44 46  1  0  0  0  0
  7 12  1  0  0  0  0
 34 39  1  0  0  0  0
 17 27  1  0  0  0  0
M  END
$$$$

  -OEChem-05262214473D

 49 49  0     1  0  0  0  0  0999 V2000
   -1.6183    0.5613    3.8201 C   0  0  0  0  0  0  0  0  0  0  0  0
   -0.6710   -0.0534    3.3444 O   0  0  0  0  0  0  0  0  0  0  0  0
   -2.0502    0.2789    5.2208 C   0  0  0  0  0  0  0  0  0  0  0  0
   -2.8099   -0.5175    5.2742 H   0  0  0  0  0  0  0  0  0  0  0  0
   -1.2190   -0.0687    5.8551 H   0  0  0  0  0  0  0  0  0  0  0  0
   -2.4882    1.1338    5.7604 H   0  0  0  0  0  0  0  0  0  0  0  0
   -2.3680    1.5337    3.1790 N   0  0  0  0  0  0  0  0  0  0  0  0
   -2.1212    1.9597    1.8266 C   0  0  2  0  0  0  0  0  0  0  0  0
   -0.7862    1.3744    1.3854 C   0  0  0  0  0  0  0  0  0  0  0  0
    0.0859    1.0216    2.1767 O   0  0  0  0  0  0  0  0  0  0  0  0
   -2.1124    3.4765    1.7171 C   0  0  0  0  0  0  0  0  0  0  0  0
   -3.1331    1.9695    3.6908 H   0  0  0  0  0  0  0  0  0  0  0  0
   -2.9253    1.5413    1.2115 H   0  0  0  0  0  0  0  0  0  0  0  0
   -1.3133    3.9138    2.3268 H   0  0  0  0  0  0  0  0  0  0  0  0
   -1.9529    3.7988    0.6829 H   0  0  0  0  0  0  0  0  0  0  0  0
   -3.0626    3.8977    2.0629 H   0  0  0  0  0  0  0  0  0  0  0  0
   -0.6635    1.3313    0.0020 N   0  0  0  0  0  0  0  0  0  0  0  0
    0.5138    0.8305   -0.6617 C   0  0  2  0  0  0  0  0  0  0  0  0
    1.3256    0.0646    0.3769 C   0  0  0  0  0  0  0  0  0  0  0  0
    1.2873    0.3214    1.5784 O   0  0  0  0  0  0  0  0  0  0  0  0
    1.3566    1.9557   -1.2730 C   0  0  0  0  0  0  0  0  0  0  0  0
    0.6322    2.6976   -2.3696 C   0  0  0  0  0  0  0  0  0  0  0  0
    0.4705    2.1294   -3.6084 N   0  0  0  0  0  0  0  0  0  0  0  0
    0.0660    3.9496   -2.3199 C   0  0  0  0  0  0  0  0  0  0  0  0
   -0.1887    3.0280   -4.3055 C   0  0  0  0  0  0  0  0  0  0  0  0
   -0.4554    4.1475   -3.5673 N   0  0  0  0  0  0  0  0  0  0  0  0
   -1.4467    1.6280   -0.5753 H   0  0  0  0  0  0  0  0  0  0  0  0
    0.1652    0.1317   -1.4312 H   0  0  0  0  0  0  0  0  0  0  0  0
    2.3027    1.5545   -1.6610 H   0  0  0  0  0  0  0  0  0  0  0  0
    1.6464    2.6806   -0.5009 H   0  0  0  0  0  0  0  0  0  0  0  0
   -0.0120    4.6940   -1.5407 H   0  0  0  0  0  0  0  0  0  0  0  0
   -0.4997    2.9319   -5.3362 H   0  0  0  0  0  0  0  0  0  0  0  0
   -0.9490    4.9706   -3.8861 H   0  0  0  0  0  0  0  0  0  0  0  0
    2.0563   -0.9685   -0.1933 N   0  0  0  0  0  0  0  0  0  0  0  0
    2.8936   -1.8645    0.5714 C   0  0  2  0  0  0  0  0  0  0  0  0
    3.7958   -1.0201    1.4616 C   0  0  0  0  0  0  0  0  0  0  0  0
    4.0676    0.1541    1.2201 O   0  0  0  0  0  0  0  0  0  0  0  0
    3.7157   -2.7647   -0.3378 C   0  0  0  0  0  0  0  0  0  0  0  0
    1.9997   -1.1015   -1.1988 H   0  0  0  0  0  0  0  0  0  0  0  0
    2.2247   -2.4673    1.1952 H   0  0  0  0  0  0  0  0  0  0  0  0
    4.3920   -2.1784   -0.9705 H   0  0  0  0  0  0  0  0  0  0  0  0
    4.3281   -3.4623    0.2430 H   0  0  0  0  0  0  0  0  0  0  0  0
    3.0661   -3.3494   -0.9981 H   0  0  0  0  0  0  0  0  0  0  0  0
    4.2964   -1.7446    2.5343 N   0  0  0  0  0  0  0  0  0  0  0  0
    5.1865   -1.1699    3.5159 C   0  0  0  0  0  0  0  0  0  0  0  0
    4.0028   -2.7079    2.6672 H   0  0  0  0  0  0  0  0  0  0  0  0
    6.2294   -1.3487    3.2151 H   0  0  0  0  0  0  0  0  0  0  0  0
    5.0055   -0.0871    3.5853 H   0  0  0  0  0  0  0  0  0  0  0  0
    5.0024   -1.6360    4.4951 H   0  0  0  0  0  0  0  0  0  0  0  0
 22 24  2  0  0  0  0
 24 26  1  0  0  0  0
 23 25  2  0  0  0  0
 25 26  1  0  0  0  0
 21 22  1  0  0  0  0
 22 23  1  0  0  0  0
  1  3  1  0  0  0  0
  1  7  1  0  0  0  0
  1  2  2  0  0  0  0
 35 36  1  0  0  0  0
 36 44  1  0  0  0  0
 36 37  2  0  0  0  0
  8  9  1  0  0  0  0
  9 17  1  0  0  0  0
  9 10  2  0  0  0  0
 18 19  1  0  0  0  0
 19 34  1  0  0  0  0
 19 20  2  0  0  0  0
 35 38  1  0  0  0  0
  8 11  1  0  0  0  0
 44 45  1  0  0  0  0
 18 21  1  0  0  0  0
 34 35  1  0  0  0  0
  7  8  1  0  0  0  0
 17 18  1  0  0  0  0
 24 31  1  0  0  0  0
 25 32  1  0  0  0  0
  3  4  1  0  0  0  0
  3  5  1  0  0  0  0
  3  6  1  0  0  0  0
 38 41  1  0  0  0  0
 38 42  1  0  0  0  0
 38 43  1  0  0  0  0
 11 14  1  0  0  0  0
 11 15  1  0  0  0  0
 11 16  1  0  0  0  0
 45 47  1  0  0  0  0
 45 48  1  0  0  0  0
 45 49  1  0  0  0  0
 21 29  1  0  0  0  0
 21 30  1  0  0  0  0
 35 40  1  0  0  0  0
  8 13  1  0  0  0  0
 18 28  1  0  0  0  0
 26 33  1  0  0  0  0
 44 46  1  0  0  0  0
  7 12  1  0  0  0  0
 34 39  1  0  0  0  0
 17 27  1  0  0  0  0
M  END
$$$$

  -OEChem-05262214473D

 49 49  0     1  0  0  0  0  0999 V2000
   -1.6183    0.5613    3.8201 C   0  0  0  0  0  0  0  0  0  0  0  0
   -0.6710   -0.0534    3.3444 O   0  0  0  0  0  0  0  0  0  0  0  0
   -2.0502    0.2789    5.2208 C   0  0  0  0  0  0  0  0  0  0  0  0
   -2.8099   -0.5175    5.2742 H   0  0  0  0  0  0  0  0  0  0  0  0
   -1.2190   -0.0687    5.8551 H   0  0  0  0  0  0  0  0  0  0  0  0
   -2.4882    1.1338    5.7604 H   0  0  0  0  0  0  0  0  0  0  0  0
   -2.3680    1.5337    3.1790 N   0  0  0  0  0  0  0  0  0  0  0  0
   -2.1212    1.9597    1.8266 C   0  0  2  0  0  0  0  0  0  0  0  0
   -0.7862    1.3744    1.3854 C   0  0  0  0  0  0  0  0  0  0  0  0
    0.0859    1.0216    2.1767 O   0  0  0  0  0  0  0  0  0  0  0  0
   -2.1124    3.4765    1.7171 C   0  0  0  0  0  0  0  0  0  0  0  0
   -3.1331    1.9695    3.6908 H   0  0  0  0  0  0  0  0  0  0  0  0
   -2.9253    1.5413    1.2115 H   0  0  0  0  0  0  0  0  0  0  0  0
   -1.3133    3.9138    2.3268 H   0  0  0  0  0  0  0  0  0  0  0  0
   -1.9529    3.7988    0.6829 H   0  0  0  0  0  0  0  0  0  0  0  0
   -3.0626    3.8977    2.0629 H   0  0  0  0  0  0  0  0  0  0  0  0
   -0.6635    1.3313    0.0020 N   0  0  0  0  0  0  0  0  0  0  0  0
    0.5138    0.8305   -0.6617 C   0  0  2  0  0  0  0  0  0  0  0  0
    1.3256    0.0646    0.3769 C   0  0  0  0  0  0  0  0  0  0  0  0
    1.0993    0.1289    1.5834 O   0  0  0  0  0  0  0  0  0  0  0  0
    1.3566    1.9557   -1.2730 C   0  0  0  0  0  0  0  0  0  0  0  0
    0.6322    2.6976   -2.3696 C   0  0  0  0  0  0  0  0  0  0  0  0
    0.4705    2.1294   -3.6084 N   0  0  0  0  0  0  0  0  0  0  0  0
    0.0660    3.9496   -2.3199 C   0  0  0  0  0  0  0  0  0  0  0  0
   -0.1887    3.0280   -4.3055 C   0  0  0  0  0  0  0  0  0  0  0  0
   -0.4554    4.1475   -3.5673 N   0  0  0  0  0  0  0  0  0  0  0  0
   -1.4467    1.6280   -0.5753 H   0  0  0  0  0  0  0  0  0  0  0  0
    0.1652    0.1317   -1.4312 H   0  0  0  0  0  0  0  0  0  0  0  0
    2.3027    1.5545   -1.6610 H   0  0  0  0  0  0  0  0  0  0  0  0
    1.6464    2.6806   -0.5009 H   0  0  0  0  0  0  0  0  0  0  0  0
   -0.0120    4.6940   -1.5407 H   0  0  0  0  0  0  0  0  0  0  0  0
   -0.4997    2.9319   -5.3362 H   0  0  0  0  0  0  0  0  0  0  0  0
   -0.9490    4.9706   -3.8861 H   0  0  0  0  0  0  0  0  0  0  0  0
    2.2971   -0.7347   -0.2092 N   0  0  0  0  0  0  0  0  0  0  0  0
    3.1902   -1.5822    0.5477 C   0  0  2  0  0  0  0  0  0  0  0  0
    3.8091   -0.7416    1.6567 C   0  0  0  0  0  0  0  0  0  0  0  0
    3.8849    0.4843    1.6063 O   0  0  0  0  0  0  0  0  0  0  0  0
    4.2661   -2.1861   -0.3414 C   0  0  0  0  0  0  0  0  0  0  0  0
    2.3849   -0.7235   -1.2211 H   0  0  0  0  0  0  0  0  0  0  0  0
    2.5760   -2.3748    0.9889 H   0  0  0  0  0  0  0  0  0  0  0  0
    4.8916   -1.4072   -0.7923 H   0  0  0  0  0  0  0  0  0  0  0  0
    4.9246   -2.8503    0.2280 H   0  0  0  0  0  0  0  0  0  0  0  0
    3.8185   -2.7659   -1.1559 H   0  0  0  0  0  0  0  0  0  0  0  0
    4.3056   -1.5243    2.6896 N   0  0  0  0  0  0  0  0  0  0  0  0
    4.9519   -0.9621    3.8525 C   0  0  0  0  0  0  0  0  0  0  0  0
    4.1821   -2.5320    2.6568 H   0  0  0  0  0  0  0  0  0  0  0  0
    6.0378   -0.9170    3.6831 H   0  0  0  0  0  0  0  0  0  0  0  0
    4.5663    0.0524    4.0315 H   0  0  0  0  0  0  0  0  0  0  0  0
    4.7435   -1.5935    4.7288 H   0  0  0  0  0  0  0  0  0  0  0  0
 22 24  2  0  0  0  0
 24 26  1  0  0  0  0
 23 25  2  0  0  0  0
 25 26  1  0  0  0  0
 21 22  1  0  0  0  0
 22 23  1  0  0  0  0
  1  3  1  0  0  0  0
  1  7  1  0  0  0  0
  1  2  2  0  0  0  0
 35 36  1  0  0  0  0
 36 44  1  0  0  0  0
 36 37  2  0  0  0  0
  8  9  1  0  0  0  0
  9 17  1  0  0  0  0
  9 10  2  0  0  0  0
 18 19  1  0  0  0  0
 19 34  1  0  0  0  0
 19 20  2  0  0  0  0
 35 38  1  0  0  0  0
  8 11  1  0  0  0  0
 44 45  1  0  0  0  0
 18 21  1  0  0  0  0
 34 35  1  0  0  0  0
  7  8  1  0  0  0  0
 17 18  1  0  0  0  0
 24 31  1  0  0  0  0
 25 32  1  0  0  0  0
  3  4  1  0  0  0  0
  3  5  1  0  0  0  0
  3  6  1  0  0  0  0
 38 41  1  0  0  0  0
 38 42  1  0  0  0  0
 38 43  1  0  0  0  0
 11 14  1  0  0  0  0
 11 15  1  0  0  0  0
 11 16  1  0  0  0  0
 45 47  1  0  0  0  0
 45 48  1  0  0  0  0
 45 49  1  0  0  0  0
 21 29  1  0  0  0  0
 21 30  1  0  0  0  0
 35 40  1  0  0  0  0
  8 13  1  0  0  0  0
 18 28  1  0  0  0  0
 26 33  1  0  0  0  0
 44 46  1  0  0  0  0
  7 12  1  0  0  0  0
 34 39  1  0  0  0  0
 17 27  1  0  0  0  0
M  END
$$$$

  -OEChem-05262214473D

 49 49  0     1  0  0  0  0  0999 V2000
   -1.6183    0.5613    3.8201 C   0  0  0  0  0  0  0  0  0  0  0  0
   -0.6710   -0.0534    3.3444 O   0  0  0  0  0  0  0  0  0  0  0  0
   -2.0502    0.2789    5.2208 C   0  0  0  0  0  0  0  0  0  0  0  0
   -2.8099   -0.5175    5.2742 H   0  0  0  0  0  0  0  0  0  0  0  0
   -1.2190   -0.0687    5.8551 H   0  0  0  0  0  0  0  0  0  0  0  0
   -2.4882    1.1338    5.7604 H   0  0  0  0  0  0  0  0  0  0  0  0
   -2.3680    1.5337    3.1790 N   0  0  0  0  0  0  0  0  0  0  0  0
   -2.1212    1.9597    1.8266 C   0  0  2  0  0  0  0  0  0  0  0  0
   -0.7862    1.3744    1.3854 C   0  0  0  0  0  0  0  0  0  0  0  0
    0.0859    1.0216    2.1767 O   0  0  0  0  0  0  0  0  0  0  0  0
   -2.1124    3.4765    1.7171 C   0  0  0  0  0  0  0  0  0  0  0  0
   -3.1331    1.9695    3.6908 H   0  0  0  0  0  0  0  0  0  0  0  0
   -2.9253    1.5413    1.2115 H   0  0  0  0  0  0  0  0  0  0  0  0
   -1.3133    3.9138    2.3268 H   0  0  0  0  0  0  0  0  0  0  0  0
   -1.9529    3.7988    0.6829 H   0  0  0  0  0  0  0  0  0  0  0  0
   -3.0626    3.8977    2.0629 H   0  0  0  0  0  0  0  0  0  0  0  0
   -0.6635    1.3313    0.0020 N   0  0  0  0  0  0  0  0  0  0  0  0
    0.5138    0.8305   -0.6617 C   0  0  2  0  0  0  0  0  0  0  0  0
    1.1258   -0.2309    0.2456 C   0  0  0  0  0  0  0  0  0  0  0  0
    0.6192   -0.5725    1.3121 O   0  0  0  0  0  0  0  0  0  0  0  0
    1.5330    1.9393   -0.9476 C   0  0  0  0  0  0  0  0  0  0  0  0
    1.0108    2.9781   -1.9097 C   0  0  0  0  0  0  0  0  0  0  0  0
    0.9160    2.7029   -3.2510 N   0  0  0  0  0  0  0  0  0  0  0  0
    0.5831    4.2553   -1.6335 C   0  0  0  0  0  0  0  0  0  0  0  0
    0.4343    3.8032   -3.7852 C   0  0  0  0  0  0  0  0  0  0  0  0
    0.2174    4.7715   -2.8447 N   0  0  0  0  0  0  0  0  0  0  0  0
   -1.4467    1.6280   -0.5753 H   0  0  0  0  0  0  0  0  0  0  0  0
    0.1717    0.3560   -1.5890 H   0  0  0  0  0  0  0  0  0  0  0  0
    2.4644    1.5081   -1.3392 H   0  0  0  0  0  0  0  0  0  0  0  0
    1.8197    2.4461   -0.0167 H   0  0  0  0  0  0  0  0  0  0  0  0
    0.5073    4.8271   -0.7197 H   0  0  0  0  0  0  0  0  0  0  0  0
    0.2222    3.9623   -4.8331 H   0  0  0  0  0  0  0  0  0  0  0  0
   -0.1477    5.6991   -3.0144 H   0  0  0  0  0  0  0  0  0  0  0  0
    2.2750   -0.7833   -0.3028 N   0  0  0  0  0  0  0  0  0  0  0  0
    3.0388   -1.8276    0.3412 C   0  0  2  0  0  0  0  0  0  0  0  0
    3.3036   -1.3985    1.7783 C   0  0  0  0  0  0  0  0  0  0  0  0
    3.2790   -0.2250    2.1433 O   0  0  0  0  0  0  0  0  0  0  0  0
    4.3422   -2.0943   -0.3955 C   0  0  0  0  0  0  0  0  0  0  0  0
    2.5952   -0.4361   -1.2021 H   0  0  0  0  0  0  0  0  0  0  0  0
    2.4121   -2.7261    0.3373 H   0  0  0  0  0  0  0  0  0  0  0  0
    4.9834   -1.2054   -0.4021 H   0  0  0  0  0  0  0  0  0  0  0  0
    4.9063   -2.9052    0.0771 H   0  0  0  0  0  0  0  0  0  0  0  0
    4.1510   -2.3739   -1.4371 H   0  0  0  0  0  0  0  0  0  0  0  0
    3.6132   -2.4762    2.5961 N   0  0  0  0  0  0  0  0  0  0  0  0
    3.9170   -2.3275    4.0002 C   0  0  0  0  0  0  0  0  0  0  0  0
    3.5916   -3.4167    2.2129 H   0  0  0  0  0  0  0  0  0  0  0  0
    5.0040   -2.2208    4.1314 H   0  0  0  0  0  0  0  0  0  0  0  0
    3.4111   -1.4327    4.3919 H   0  0  0  0  0  0  0  0  0  0  0  0
    3.5672   -3.2155    4.5470 H   0  0  0  0  0  0  0  0  0  0  0  0
 22 24  2  0  0  0  0
 24 26  1  0  0  0  0
 23 25  2  0  0  0  0
 25 26  1  0  0  0  0
 21 22  1  0  0  0  0
 22 23  1  0  0  0  0
  1  3  1  0  0  0  0
  1  7  1  0  0  0  0
  1  2  2  0  0  0  0
 35 36  1  0  0  0  0
 36 44  1  0  0  0  0
 36 37  2  0  0  0  0
  8  9  1  0  0  0  0
  9 17  1  0  0  0  0
  9 10  2  0  0  0  0
 18 19  1  0  0  0  0
 19 34  1  0  0  0  0
 19 20  2  0  0  0  0
 35 38  1  0  0  0  0
  8 11  1  0  0  0  0
 44 45  1  0  0  0  0
 18 21  1  0  0  0  0
 34 35  1  0  0  0  0
  7  8  1  0  0  0  0
 17 18  1  0  0  0  0
 24 31  1  0  0  0  0
 25 32  1  0  0  0  0
  3  4  1  0  0  0  0
  3  5  1  0  0  0  0
  3  6  1  0  0  0  0
 38 41  1  0  0  0  0
 38 42  1  0  0  0  0
 38 43  1  0  0  0  0
 11 14  1  0  0  0  0
 11 15  1  0  0  0  0
 11 16  1  0  0  0  0
 45 47  1  0  0  0  0
 45 48  1  0  0  0  0
 45 49  1  0  0  0  0
 21 29  1  0  0  0  0
 21 30  1  0  0  0  0
 35 40  1  0  0  0  0
  8 13  1  0  0  0  0
 18 28  1  0  0  0  0
 26 33  1  0  0  0  0
 44 46  1  0  0  0  0
  7 12  1  0  0  0  0
 34 39  1  0  0  0  0
 17 27  1  0  0  0  0
M  END
$$$$

  -OEChem-05262214473D

 49 49  0     1  0  0  0  0  0999 V2000
   -1.6183    0.5613    3.8201 C   0  0  0  0  0  0  0  0  0  0  0  0
   -0.6710   -0.0534    3.3444 O   0  0  0  0  0  0  0  0  0  0  0  0
   -2.0502    0.2789    5.2208 C   0  0  0  0  0  0  0  0  0  0  0  0
   -2.8099   -0.5175    5.2742 H   0  0  0  0  0  0  0  0  0  0  0  0
   -1.2190   -0.0687    5.8551 H   0  0  0  0  0  0  0  0  0  0  0  0
   -2.4882    1.1338    5.7604 H   0  0  0  0  0  0  0  0  0  0  0  0
   -2.3680    1.5337    3.1790 N   0  0  0  0  0  0  0  0  0  0  0  0
   -2.1212    1.9597    1.8266 C   0  0  2  0  0  0  0  0  0  0  0  0
   -0.7862    1.3744    1.3854 C   0  0  0  0  0  0  0  0  0  0  0  0
    0.0859    1.0216    2.1767 O   0  0  0  0  0  0  0  0  0  0  0  0
   -2.1124    3.4765    1.7171 C   0  0  0  0  0  0  0  0  0  0  0  0
   -3.1331    1.9695    3.6908 H   0  0  0  0  0  0  0  0  0  0  0  0
   -2.9253    1.5413    1.2115 H   0  0  0  0  0  0  0  0  0  0  0  0
   -1.3133    3.9138    2.3268 H   0  0  0  0  0  0  0  0  0  0  0  0
   -1.9529    3.7988    0.6829 H   0  0  0  0  0  0  0  0  0  0  0  0
   -3.0626    3.8977    2.0629 H   0  0  0  0  0  0  0  0  0  0  0  0
   -0.6635    1.3313    0.0020 N   0  0  0  0  0  0  0  0  0  0  0  0
    0.5138    0.8305   -0.6617 C   0  0  2  0  0  0  0  0  0  0  0  0
    1.1258   -0.2309    0.2456 C   0  0  0  0  0  0  0  0  0  0  0  0
    0.5060   -0.7656    1.1625 O   0  0  0  0  0  0  0  0  0  0  0  0
    1.5330    1.9393   -0.9476 C   0  0  0  0  0  0  0  0  0  0  0  0
    1.0108    2.9781   -1.9097 C   0  0  0  0  0  0  0  0  0  0  0  0
    0.9160    2.7029   -3.2510 N   0  0  0  0  0  0  0  0  0  0  0  0
    0.5831    4.2553   -1.6335 C   0  0  0  0  0  0  0  0  0  0  0  0
    0.4343    3.8032   -3.7852 C   0  0  0  0  0  0  0  0  0  0  0  0
    0.2174    4.7715   -2.8447 N   0  0  0  0  0  0  0  0  0  0  0  0
   -1.4467    1.6280   -0.5753 H   0  0  0  0  0  0  0  0  0  0  0  0
    0.1717    0.3560   -1.5890 H   0  0  0  0  0  0  0  0  0  0  0  0
    2.4644    1.5081   -1.3392 H   0  0  0  0  0  0  0  0  0  0  0  0
    1.8197    2.4461   -0.0167 H   0  0  0  0  0  0  0  0  0  0  0  0
    0.5073    4.8271   -0.7197 H   0  0  0  0  0  0  0  0  0  0  0  0
    0.2222    3.9623   -4.8331 H   0  0  0  0  0  0  0  0  0  0  0  0
   -0.1477    5.6991   -3.0144 H   0  0  0  0  0  0  0  0  0  0  0  0
    2.4268   -0.5429   -0.1240 N   0  0  0  0  0  0  0  0  0  0  0  0
    3.2288   -1.5345    0.5560 C   0  0  2  0  0  0  0  0  0  0  0  0
    3.1686   -1.2442    2.0498 C   0  0  0  0  0  0  0  0  0  0  0  0
    2.8900   -0.1379    2.5075 O   0  0  0  0  0  0  0  0  0  0  0  0
    4.6653   -1.5212    0.0571 C   0  0  0  0  0  0  0  0  0  0  0  0
    2.8359   -0.0494   -0.9119 H   0  0  0  0  0  0  0  0  0  0  0  0
    2.7676   -2.5073    0.3535 H   0  0  0  0  0  0  0  0  0  0  0  0
    5.1439   -0.5544    0.2512 H   0  0  0  0  0  0  0  0  0  0  0  0
    5.2646   -2.2921    0.5527 H   0  0  0  0  0  0  0  0  0  0  0  0
    4.7045   -1.7006   -1.0228 H   0  0  0  0  0  0  0  0  0  0  0  0
    3.5049   -2.3548    2.8112 N   0  0  0  0  0  0  0  0  0  0  0  0
    3.5341   -2.3305    4.2550 C   0  0  0  0  0  0  0  0  0  0  0  0
    3.7037   -3.2367    2.3480 H   0  0  0  0  0  0  0  0  0  0  0  0
    4.5500   -2.0842    4.5976 H   0  0  0  0  0  0  0  0  0  0  0  0
    2.8289   -1.5708    4.6231 H   0  0  0  0  0  0  0  0  0  0  0  0
    3.2454   -3.3180    4.6442 H   0  0  0  0  0  0  0  0  0  0  0  0
 22 24  2  0  0  0  0
 24 26  1  0  0  0  0
 23 25  2  0  0  0  0
 25 26  1  0  0  0  0
 21 22  1  0  0  0  0
 22 23  1  0  0  0  0
  1  3  1  0  0  0  0
  1  7  1  0  0  0  0
  1  2  2  0  0  0  0
 35 36  1  0  0  0  0
 36 44  1  0  0  0  0
 36 37  2  0  0  0  0
  8  9  1  0  0  0  0
  9 17  1  0  0  0  0
  9 10  2  0  0  0  0
 18 19  1  0  0  0  0
 19 34  1  0  0  0  0
 19 20  2  0  0  0  0
 35 38  1  0  0  0  0
  8 11  1  0  0  0  0
 44 45  1  0  0  0  0
 18 21  1  0  0  0  0
 34 35  1  0  0  0  0
  7  8  1  0  0  0  0
 17 18  1  0  0  0  0
 24 31  1  0  0  0  0
 25 32  1  0  0  0  0
  3  4  1  0  0  0  0
  3  5  1  0  0  0  0
  3  6  1  0  0  0  0
 38 41  1  0  0  0  0
 38 42  1  0  0  0  0
 38 43  1  0  0  0  0
 11 14  1  0  0  0  0
 11 15  1  0  0  0  0
 11 16  1  0  0  0  0
 45 47  1  0  0  0  0
 45 48  1  0  0  0  0
 45 49  1  0  0  0  0
 21 29  1  0  0  0  0
 21 30  1  0  0  0  0
 35 40  1  0  0  0  0
  8 13  1  0  0  0  0
 18 28  1  0  0  0  0
 26 33  1  0  0  0  0
 44 46  1  0  0  0  0
  7 12  1  0  0  0  0
 34 39  1  0  0  0  0
 17 27  1  0  0  0  0
M  END
$$$$

  -OEChem-05262214473D

 49 49  0     1  0  0  0  0  0999 V2000
   -1.6183    0.5613    3.8201 C   0  0  0  0  0  0  0  0  0  0  0  0
   -0.6710   -0.0534    3.3444 O   0  0  0  0  0  0  0  0  0  0  0  0
   -2.0502    0.2789    5.2208 C   0  0  0  0  0  0  0  0  0  0  0  0
   -2.8099   -0.5175    5.2742 H   0  0  0  0  0  0  0  0  0  0  0  0
   -1.2190   -0.0687    5.8551 H   0  0  0  0  0  0  0  0  0  0  0  0
   -2.4882    1.1338    5.7604 H   0  0  0  0  0  0  0  0  0  0  0  0
   -2.3680    1.5337    3.1790 N   0  0  0  0  0  0  0  0  0  0  0  0
   -2.1212    1.9597    1.8266 C   0  0  2  0  0  0  0  0  0  0  0  0
   -0.7862    1.3744    1.3854 C   0  0  0  0  0  0  0  0  0  0  0  0
    0.0859    1.0216    2.1767 O   0  0  0  0  0  0  0  0  0  0  0  0
   -2.1124    3.4765    1.7171 C   0  0  0  0  0  0  0  0  0  0  0  0
   -3.1331    1.9695    3.6908 H   0  0  0  0  0  0  0  0  0  0  0  0
   -2.9253    1.5413    1.2115 H   0  0  0  0  0  0  0  0  0  0  0  0
   -1.3133    3.9138    2.3268 H   0  0  0  0  0  0  0  0  0  0  0  0
   -1.9529    3.7988    0.6829 H   0  0  0  0  0  0  0  0  0  0  0  0
   -3.0626    3.8977    2.0629 H   0  0  0  0  0  0  0  0  0  0  0  0
   -0.6635    1.3313    0.0020 N   0  0  0  0  0  0  0  0  0  0  0  0
    0.5138    0.8305   -0.6617 C   0  0  2  0  0  0  0  0  0  0  0  0
    1.1258   -0.2309    0.2456 C   0  0  0  0  0  0  0  0  0  0  0  0
    0.4534   -0.9540    0.9776 O   0  0  0  0  0  0  0  0  0  0  0  0
    1.5330    1.9393   -0.9476 C   0  0  0  0  0  0  0  0  0  0  0  0
    1.0108    2.9781   -1.9097 C   0  0  0  0  0  0  0  0  0  0  0  0
    0.9160    2.7029   -3.2510 N   0  0  0  0  0  0  0  0  0  0  0  0
    0.5831    4.2553   -1.6335 C   0  0  0  0  0  0  0  0  0  0  0  0
    0.4343    3.8032   -3.7852 C   0  0  0  0  0  0  0  0  0  0  0  0
    0.2174    4.7715   -2.8447 N   0  0  0  0  0  0  0  0  0  0  0  0
   -1.4467    1.6280   -0.5753 H   0  0  0  0  0  0  0  0  0  0  0  0
    0.1717    0.3560   -1.5890 H   0  0  0  0  0  0  0  0  0  0  0  0
    2.4644    1.5081   -1.3392 H   0  0  0  0  0  0  0  0  0  0  0  0
    1.8197    2.4461   -0.0167 H   0  0  0  0  0  0  0  0  0  0  0  0
    0.5073    4.8271   -0.7197 H   0  0  0  0  0  0  0  0  0  0  0  0
    0.2222    3.9623   -4.8331 H   0  0  0  0  0  0  0  0  0  0  0  0
   -0.1477    5.6991   -3.0144 H   0  0  0  0  0  0  0  0  0  0  0  0
    2.5042   -0.3058    0.1012 N   0  0  0  0  0  0  0  0  0  0  0  0
    3.3284   -1.2444    0.8282 C   0  0  2  0  0  0  0  0  0  0  0  0
    2.9655   -1.1442    2.3039 C   0  0  0  0  0  0  0  0  0  0  0  0
    2.4352   -0.1516    2.7984 O   0  0  0  0  0  0  0  0  0  0  0  0
    4.8076   -0.9649    0.6120 C   0  0  0  0  0  0  0  0  0  0  0  0
    2.9564    0.3312   -0.5481 H   0  0  0  0  0  0  0  0  0  0  0  0
    3.0743   -2.2428    0.4559 H   0  0  0  0  0  0  0  0  0  0  0  0
    5.0810    0.0312    0.9788 H   0  0  0  0  0  0  0  0  0  0  0  0
    5.4305   -1.6941    1.1403 H   0  0  0  0  0  0  0  0  0  0  0  0
    5.0608   -1.0080   -0.4528 H   0  0  0  0  0  0  0  0  0  0  0  0
    3.3428   -2.2766    3.0121 N   0  0  0  0  0  0  0  0  0  0  0  0
    3.1188   -2.4188    4.4318 C   0  0  0  0  0  0  0  0  0  0  0  0
    3.7598   -3.0595    2.5173 H   0  0  0  0  0  0  0  0  0  0  0  0
    4.0064   -2.0705    4.9803 H   0  0  0  0  0  0  0  0  0  0  0  0
    2.2462   -1.8178    4.7272 H   0  0  0  0  0  0  0  0  0  0  0  0
    2.9329   -3.4766    4.6694 H   0  0  0  0  0  0  0  0  0  0  0  0
 22 24  2  0  0  0  0
 24 26  1  0  0  0  0
 23 25  2  0  0  0  0
 25 26  1  0  0  0  0
 21 22  1  0  0  0  0
 22 23  1  0  0  0  0
  1  3  1  0  0  0  0
  1  7  1  0  0  0  0
  1  2  2  0  0  0  0
 35 36  1  0  0  0  0
 36 44  1  0  0  0  0
 36 37  2  0  0  0  0
  8  9  1  0  0  0  0
  9 17  1  0  0  0  0
  9 10  2  0  0  0  0
 18 19  1  0  0  0  0
 19 34  1  0  0  0  0
 19 20  2  0  0  0  0
 35 38  1  0  0  0  0
  8 11  1  0  0  0  0
 44 45  1  0  0  0  0
 18 21  1  0  0  0  0
 34 35  1  0  0  0  0
  7  8  1  0  0  0  0
 17 18  1  0  0  0  0
 24 31  1  0  0  0  0
 25 32  1  0  0  0  0
  3  4  1  0  0  0  0
  3  5  1  0  0  0  0
  3  6  1  0  0  0  0
 38 41  1  0  0  0  0
 38 42  1  0  0  0  0
 38 43  1  0  0  0  0
 11 14  1  0  0  0  0
 11 15  1  0  0  0  0
 11 16  1  0  0  0  0
 45 47  1  0  0  0  0
 45 48  1  0  0  0  0
 45 49  1  0  0  0  0
 21 29  1  0  0  0  0
 21 30  1  0  0  0  0
 35 40  1  0  0  0  0
  8 13  1  0  0  0  0
 18 28  1  0  0  0  0
 26 33  1  0  0  0  0
 44 46  1  0  0  0  0
  7 12  1  0  0  0  0
 34 39  1  0  0  0  0
 17 27  1  0  0  0  0
M  END
$$$$

  -OEChem-05262214473D

 49 49  0     1  0  0  0  0  0999 V2000
   -1.6183    0.5613    3.8201 C   0  0  0  0  0  0  0  0  0  0  0  0
   -0.6710   -0.0534    3.3444 O   0  0  0  0  0  0  0  0  0  0  0  0
   -2.0502    0.2789    5.2208 C   0  0  0  0  0  0  0  0  0  0  0  0
   -2.8099   -0.5175    5.2742 H   0  0  0  0  0  0  0  0  0  0  0  0
   -1.2190   -0.0687    5.8551 H   0  0  0  0  0  0  0  0  0  0  0  0
   -2.4882    1.1338    5.7604 H   0  0  0  0  0  0  0  0  0  0  0  0
   -2.3680    1.5337    3.1790 N   0  0  0  0  0  0  0  0  0  0  0  0
   -2.1212    1.9597    1.8266 C   0  0  2  0  0  0  0  0  0  0  0  0
   -0.7862    1.3744    1.3854 C   0  0  0  0  0  0  0  0  0  0  0  0
    0.0859    1.0216    2.1767 O   0  0  0  0  0  0  0  0  0  0  0  0
   -2.1124    3.4765    1.7171 C   0  0  0  0  0  0  0  0  0  0  0  0
   -3.1331    1.9695    3.6908 H   0  0  0  0  0  0  0  0  0  0  0  0
   -2.9253    1.5413    1.2115 H   0  0  0  0  0  0  0  0  0  0  0  0
   -1.3133    3.9138    2.3268 H   0  0  0  0  0  0  0  0  0  0  0  0
   -1.9529    3.7988    0.6829 H   0  0  0  0  0  0  0  0  0  0  0  0
   -3.0626    3.8977    2.0629 H   0  0  0  0  0  0  0  0  0  0  0  0
   -0.6635    1.3313    0.0020 N   0  0  0  0  0  0  0  0  0  0  0  0
    0.5138    0.8305   -0.6617 C   0  0  2  0  0  0  0  0  0  0  0  0
    1.1258   -0.2309    0.2456 C   0  0  0  0  0  0  0  0  0  0  0  0
    0.4649   -1.1249    0.7700 O   0  0  0  0  0  0  0  0  0  0  0  0
    1.5330    1.9393   -0.9476 C   0  0  0  0  0  0  0  0  0  0  0  0
    1.0108    2.9781   -1.9097 C   0  0  0  0  0  0  0  0  0  0  0  0
    0.9160    2.7029   -3.2510 N   0  0  0  0  0  0  0  0  0  0  0  0
    0.5831    4.2553   -1.6335 C   0  0  0  0  0  0  0  0  0  0  0  0
    0.4343    3.8032   -3.7852 C   0  0  0  0  0  0  0  0  0  0  0  0
    0.2174    4.7715   -2.8447 N   0  0  0  0  0  0  0  0  0  0  0  0
   -1.4467    1.6280   -0.5753 H   0  0  0  0  0  0  0  0  0  0  0  0
    0.1717    0.3560   -1.5890 H   0  0  0  0  0  0  0  0  0  0  0  0
    2.4644    1.5081   -1.3392 H   0  0  0  0  0  0  0  0  0  0  0  0
    1.8197    2.4461   -0.0167 H   0  0  0  0  0  0  0  0  0  0  0  0
    0.5073    4.8271   -0.7197 H   0  0  0  0  0  0  0  0  0  0  0  0
    0.2222    3.9623   -4.8331 H   0  0  0  0  0  0  0  0  0  0  0  0
   -0.1477    5.6991   -3.0144 H   0  0  0  0  0  0  0  0  0  0  0  0
    2.5019   -0.0883    0.3572 N   0  0  0  0  0  0  0  0  0  0  0  0
    3.3310   -0.9770    1.1392 C   0  0  2  0  0  0  0  0  0  0  0  0
    2.7082   -1.1053    2.5231 C   0  0  0  0  0  0  0  0  0  0  0  0
    1.9455   -0.2651    2.9959 O   0  0  0  0  0  0  0  0  0  0  0  0
    4.7593   -0.4632    1.2314 C   0  0  0  0  0  0  0  0  0  0  0  0
    2.9487    0.6795   -0.1354 H   0  0  0  0  0  0  0  0  0  0  0  0
    3.3115   -1.9508    0.6376 H   0  0  0  0  0  0  0  0  0  0  0  0
    4.7989    0.5116    1.7311 H   0  0  0  0  0  0  0  0  0  0  0  0
    5.3928   -1.1520    1.8000 H   0  0  0  0  0  0  0  0  0  0  0  0
    5.1956   -0.3433    0.2339 H   0  0  0  0  0  0  0  0  0  0  0  0
    3.1380   -2.2468    3.1851 N   0  0  0  0  0  0  0  0  0  0  0  0
    2.6994   -2.5865    4.5186 C   0  0  0  0  0  0  0  0  0  0  0  0
    3.7563   -2.8974    2.7094 H   0  0  0  0  0  0  0  0  0  0  0  0
    3.4103   -2.1808    5.2535 H   0  0  0  0  0  0  0  0  0  0  0  0
    1.7026   -2.1570    4.6971 H   0  0  0  0  0  0  0  0  0  0  0  0
    2.6510   -3.6806    4.6209 H   0  0  0  0  0  0  0  0  0  0  0  0
 22 24  2  0  0  0  0
 24 26  1  0  0  0  0
 23 25  2  0  0  0  0
 25 26  1  0  0  0  0
 21 22  1  0  0  0  0
 22 23  1  0  0  0  0
  1  3  1  0  0  0  0
  1  7  1  0  0  0  0
  1  2  2  0  0  0  0
 35 36  1  0  0  0  0
 36 44  1  0  0  0  0
 36 37  2  0  0  0  0
  8  9  1  0  0  0  0
  9 17  1  0  0  0  0
  9 10  2  0  0  0  0
 18 19  1  0  0  0  0
 19 34  1  0  0  0  0
 19 20  2  0  0  0  0
 35 38  1  0  0  0  0
  8 11  1  0  0  0  0
 44 45  1  0  0  0  0
 18 21  1  0  0  0  0
 34 35  1  0  0  0  0
  7  8  1  0  0  0  0
 17 18  1  0  0  0  0
 24 31  1  0  0  0  0
 25 32  1  0  0  0  0
  3  4  1  0  0  0  0
  3  5  1  0  0  0  0
  3  6  1  0  0  0  0
 38 41  1  0  0  0  0
 38 42  1  0  0  0  0
 38 43  1  0  0  0  0
 11 14  1  0  0  0  0
 11 15  1  0  0  0  0
 11 16  1  0  0  0  0
 45 47  1  0  0  0  0
 45 48  1  0  0  0  0
 45 49  1  0  0  0  0
 21 29  1  0  0  0  0
 21 30  1  0  0  0  0
 35 40  1  0  0  0  0
  8 13  1  0  0  0  0
 18 28  1  0  0  0  0
 26 33  1  0  0  0  0
 44 46  1  0  0  0  0
  7 12  1  0  0  0  0
 34 39  1  0  0  0  0
 17 27  1  0  0  0  0
M  END
$$$$

  -OEChem-05262214473D

 49 49  0     1  0  0  0  0  0999 V2000
   -1.6183    0.5613    3.8201 C   0  0  0  0  0  0  0  0  0  0  0  0
   -0.6710   -0.0534    3.3444 O   0  0  0  0  0  0  0  0  0  0  0  0
   -2.0502    0.2789    5.2208 C   0  0  0  0  0  0  0  0  0  0  0  0
   -2.8099   -0.5175    5.2742 H   0  0  0  0  0  0  0  0  0  0  0  0
   -1.2190   -0.0687    5.8551 H   0  0  0  0  0  0  0  0  0  0  0  0
   -2.4882    1.1338    5.7604 H   0  0  0  0  0  0  0  0  0  0  0  0
   -2.3680    1.5337    3.1790 N   0  0  0  0  0  0  0  0  0  0  0  0
   -2.1212    1.9597    1.8266 C   0  0  2  0  0  0  0  0  0  0  0  0
   -0.7862    1.3744    1.3854 C   0  0  0  0  0  0  0  0  0  0  0  0
    0.0859    1.0216    2.1767 O   0  0  0  0  0  0  0  0  0  0  0  0
   -2.1124    3.4765    1.7171 C   0  0  0  0  0  0  0  0  0  0  0  0
   -3.1331    1.9695    3.6908 H   0  0  0  0  0  0  0  0  0  0  0  0
   -2.9253    1.5413    1.2115 H   0  0  0  0  0  0  0  0  0  0  0  0
   -1.3133    3.9138    2.3268 H   0  0  0  0  0  0  0  0  0  0  0  0
   -1.9529    3.7988    0.6829 H   0  0  0  0  0  0  0  0  0  0  0  0
   -3.0626    3.8977    2.0629 H   0  0  0  0  0  0  0  0  0  0  0  0
   -0.6635    1.3313    0.0020 N   0  0  0  0  0  0  0  0  0  0  0  0
    0.5138    0.8305   -0.6617 C   0  0  2  0  0  0  0  0  0  0  0  0
    1.1258   -0.2309    0.2456 C   0  0  0  0  0  0  0  0  0  0  0  0
    0.5398   -1.2666    0.5537 O   0  0  0  0  0  0  0  0  0  0  0  0
    1.5330    1.9393   -0.9476 C   0  0  0  0  0  0  0  0  0  0  0  0
    1.0108    2.9781   -1.9097 C   0  0  0  0  0  0  0  0  0  0  0  0
    0.9160    2.7029   -3.2510 N   0  0  0  0  0  0  0  0  0  0  0  0
    0.5831    4.2553   -1.6335 C   0  0  0  0  0  0  0  0  0  0  0  0
    0.4343    3.8032   -3.7852 C   0  0  0  0  0  0  0  0  0  0  0  0
    0.2174    4.7715   -2.8447 N   0  0  0  0  0  0  0  0  0  0  0  0
   -1.4467    1.6280   -0.5753 H   0  0  0  0  0  0  0  0  0  0  0  0
    0.1717    0.3560   -1.5890 H   0  0  0  0  0  0  0  0  0  0  0  0
    2.4644    1.5081   -1.3392 H   0  0  0  0  0  0  0  0  0  0  0  0
    1.8197    2.4461   -0.0167 H   0  0  0  0  0  0  0  0  0  0  0  0
    0.5073    4.8271   -0.7197 H   0  0  0  0  0  0  0  0  0  0  0  0
    0.2222    3.9623   -4.8331 H   0  0  0  0  0  0  0  0  0  0  0  0
   -0.1477    5.6991   -3.0144 H   0  0  0  0  0  0  0  0  0  0  0  0
    2.4200    0.0949    0.6268 N   0  0  0  0  0  0  0  0  0  0  0  0
    3.2362   -0.7508    1.4678 C   0  0  2  0  0  0  0  0  0  0  0  0
    2.4141   -1.1301    2.6925 C   0  0  0  0  0  0  0  0  0  0  0  0
    1.4545   -0.4707    3.0867 O   0  0  0  0  0  0  0  0  0  0  0  0
    4.5239   -0.0505    1.8732 C   0  0  0  0  0  0  0  0  0  0  0  0
    2.8133    0.9719    0.2981 H   0  0  0  0  0  0  0  0  0  0  0  0
    3.4628   -1.6510    0.8862 H   0  0  0  0  0  0  0  0  0  0  0  0
    4.3169    0.8539    2.4568 H   0  0  0  0  0  0  0  0  0  0  0  0
    5.1541   -0.7028    2.4867 H   0  0  0  0  0  0  0  0  0  0  0  0
    5.0997    0.2481    0.9905 H   0  0  0  0  0  0  0  0  0  0  0  0
    2.9045   -2.2676    3.3184 N   0  0  0  0  0  0  0  0  0  0  0  0
    2.3045   -2.8221    4.5094 C   0  0  0  0  0  0  0  0  0  0  0  0
    3.6933   -2.7613    2.9112 H   0  0  0  0  0  0  0  0  0  0  0  0
    2.8023   -2.4075    5.3984 H   0  0  0  0  0  0  0  0  0  0  0  0
    1.2352   -2.5652    4.5348 H   0  0  0  0  0  0  0  0  0  0  0  0
    2.4187   -3.9161    4.5021 H   0  0  0  0  0  0  0  0  0  0  0  0
 22 24  2  0  0  0  0
 24 26  1  0  0  0  0
 23 25  2  0  0  0  0
 25 26  1  0  0  0  0
 21 22  1  0  0  0  0
 22 23  1  0  0  0  0
  1  3  1  0  0  0  0
  1  7  1  0  0  0  0
  1  2  2  0  0  0  0
 35 36  1  0  0  0  0
 36 44  1  0  0  0  0
 36 37  2  0  0  0  0
  8  9  1  0  0  0  0
  9 17  1  0  0  0  0
  9 10  2  0  0  0  0
 18 19  1  0  0  0  0
 19 34  1  0  0  0  0
 19 20  2  0  0  0  0
 35 38  1  0  0  0  0
  8 11  1  0  0  0  0
 44 45  1  0  0  0  0
 18 21  1  0  0  0  0
 34 35  1  0  0  0  0
  7  8  1  0  0  0  0
 17 18  1  0  0  0  0
 24 31  1  0  0  0  0
 25 32  1  0  0  0  0
  3  4  1  0  0  0  0
  3  5  1  0  0  0  0
  3  6  1  0  0  0  0
 38 41  1  0  0  0  0
 38 42  1  0  0  0  0
 38 43  1  0  0  0  0
 11 14  1  0  0  0  0
 11 15  1  0  0  0  0
 11 16  1  0  0  0  0
 45 47  1  0  0  0  0
 45 48  1  0  0  0  0
 45 49  1  0  0  0  0
 21 29  1  0  0  0  0
 21 30  1  0  0  0  0
 35 40  1  0  0  0  0
  8 13  1  0  0  0  0
 18 28  1  0  0  0  0
 26 33  1  0  0  0  0
 44 46  1  0  0  0  0
  7 12  1  0  0  0  0
 34 39  1  0  0  0  0
 17 27  1  0  0  0  0
M  END
$$$$

  -OEChem-05262214473D

 49 49  0     1  0  0  0  0  0999 V2000
   -1.6183    0.5613    3.8201 C   0  0  0  0  0  0  0  0  0  0  0  0
   -0.6710   -0.0534    3.3444 O   0  0  0  0  0  0  0  0  0  0  0  0
   -2.0502    0.2789    5.2208 C   0  0  0  0  0  0  0  0  0  0  0  0
   -2.8099   -0.5175    5.2742 H   0  0  0  0  0  0  0  0  0  0  0  0
   -1.2190   -0.0687    5.8551 H   0  0  0  0  0  0  0  0  0  0  0  0
   -2.4882    1.1338    5.7604 H   0  0  0  0  0  0  0  0  0  0  0  0
   -2.3680    1.5337    3.1790 N   0  0  0  0  0  0  0  0  0  0  0  0
   -2.1212    1.9597    1.8266 C   0  0  2  0  0  0  0  0  0  0  0  0
   -0.7862    1.3744    1.3854 C   0  0  0  0  0  0  0  0  0  0  0  0
    0.0859    1.0216    2.1767 O   0  0  0  0  0  0  0  0  0  0  0  0
   -2.1124    3.4765    1.7171 C   0  0  0  0  0  0  0  0  0  0  0  0
   -3.1331    1.9695    3.6908 H   0  0  0  0  0  0  0  0  0  0  0  0
   -2.9253    1.5413    1.2115 H   0  0  0  0  0  0  0  0  0  0  0  0
   -1.3133    3.9138    2.3268 H   0  0  0  0  0  0  0  0  0  0  0  0
   -1.9529    3.7988    0.6829 H   0  0  0  0  0  0  0  0  0  0  0  0
   -3.0626    3.8977    2.0629 H   0  0  0  0  0  0  0  0  0  0  0  0
   -0.6635    1.3313    0.0020 N   0  0  0  0  0  0  0  0  0  0  0  0
    0.5138    0.8305   -0.6617 C   0  0  2  0  0  0  0  0  0  0  0  0
    1.1258   -0.2309    0.2456 C   0  0  0  0  0  0  0  0  0  0  0  0
    0.6729   -1.3694    0.3436 O   0  0  0  0  0  0  0  0  0  0  0  0
    1.5330    1.9393   -0.9476 C   0  0  0  0  0  0  0  0  0  0  0  0
    1.0108    2.9781   -1.9097 C   0  0  0  0  0  0  0  0  0  0  0  0
    0.9160    2.7029   -3.2510 N   0  0  0  0  0  0  0  0  0  0  0  0
    0.5831    4.2553   -1.6335 C   0  0  0  0  0  0  0  0  0  0  0  0
    0.4343    3.8032   -3.7852 C   0  0  0  0  0  0  0  0  0  0  0  0
    0.2174    4.7715   -2.8447 N   0  0  0  0  0  0  0  0  0  0  0  0
   -1.4467    1.6280   -0.5753 H   0  0  0  0  0  0  0  0  0  0  0  0
    0.1717    0.3560   -1.5890 H   0  0  0  0  0  0  0  0  0  0  0  0
    2.4644    1.5081   -1.3392 H   0  0  0  0  0  0  0  0  0  0  0  0
    1.8197    2.4461   -0.0167 H   0  0  0  0  0  0  0  0  0  0  0  0
    0.5073    4.8271   -0.7197 H   0  0  0  0  0  0  0  0  0  0  0  0
    0.2222    3.9623   -4.8331 H   0  0  0  0  0  0  0  0  0  0  0  0
   -0.1477    5.6991   -3.0144 H   0  0  0  0  0  0  0  0  0  0  0  0
    2.2641    0.2312    0.8914 N   0  0  0  0  0  0  0  0  0  0  0  0
    3.0506   -0.5810    1.7917 C   0  0  2  0  0  0  0  0  0  0  0  0
    2.1033   -1.2169    2.8005 C   0  0  0  0  0  0  0  0  0  0  0  0
    0.9955   -0.7543    3.0645 O   0  0  0  0  0  0  0  0  0  0  0  0
    4.1172    0.2453    2.4935 C   0  0  0  0  0  0  0  0  0  0  0  0
    2.5593    1.1884    0.7227 H   0  0  0  0  0  0  0  0  0  0  0  0
    3.5180   -1.3640    1.1847 H   0  0  0  0  0  0  0  0  0  0  0  0
    3.6679    1.0350    3.1066 H   0  0  0  0  0  0  0  0  0  0  0  0
    4.7305   -0.3769    3.1537 H   0  0  0  0  0  0  0  0  0  0  0  0
    4.7796    0.7260    1.7655 H   0  0  0  0  0  0  0  0  0  0  0  0
    2.6580   -2.3375    3.4029 N   0  0  0  0  0  0  0  0  0  0  0  0
    1.9610   -3.1095    4.4049 C   0  0  0  0  0  0  0  0  0  0  0  0
    3.5751   -2.6604    3.1088 H   0  0  0  0  0  0  0  0  0  0  0  0
    2.2237   -2.7352    5.4053 H   0  0  0  0  0  0  0  0  0  0  0  0
    0.8759   -3.0147    4.2514 H   0  0  0  0  0  0  0  0  0  0  0  0
    2.2521   -4.1669    4.3211 H   0  0  0  0  0  0  0  0  0  0  0  0
 22 24  2  0  0  0  0
 24 26  1  0  0  0  0
 23 25  2  0  0  0  0
 25 26  1  0  0  0  0
 21 22  1  0  0  0  0
 22 23  1  0  0  0  0
  1  3  1  0  0  0  0
  1  7  1  0  0  0  0
  1  2  2  0  0  0  0
 35 36  1  0  0  0  0
 36 44  1  0  0  0  0
 36 37  2  0  0  0  0
  8  9  1  0  0  0  0
  9 17  1  0  0  0  0
  9 10  2  0  0  0  0
 18 19  1  0  0  0  0
 19 34  1  0  0  0  0
 19 20  2  0  0  0  0
 35 38  1  0  0  0  0
  8 11  1  0  0  0  0
 44 45  1  0  0  0  0
 18 21  1  0  0  0  0
 34 35  1  0  0  0  0
  7  8  1  0  0  0  0
 17 18  1  0  0  0  0
 24 31  1  0  0  0  0
 25 32  1  0  0  0  0
  3  4  1  0  0  0  0
  3  5  1  0  0  0  0
  3  6  1  0  0  0  0
 38 41  1  0  0  0  0
 38 42  1  0  0  0  0
 38 43  1  0  0  0  0
 11 14  1  0  0  0  0
 11 15  1  0  0  0  0
 11 16  1  0  0  0  0
 45 47  1  0  0  0  0
 45 48  1  0  0  0  0
 45 49  1  0  0  0  0
 21 29  1  0  0  0  0
 21 30  1  0  0  0  0
 35 40  1  0  0  0  0
  8 13  1  0  0  0  0
 18 28  1  0  0  0  0
 26 33  1  0  0  0  0
 44 46  1  0  0  0  0
  7 12  1  0  0  0  0
 34 39  1  0  0  0  0
 17 27  1  0  0  0  0
M  END
$$$$

  -OEChem-05262214473D

 49 49  0     1  0  0  0  0  0999 V2000
   -1.6183    0.5613    3.8201 C   0  0  0  0  0  0  0  0  0  0  0  0
   -0.6710   -0.0534    3.3444 O   0  0  0  0  0  0  0  0  0  0  0  0
   -2.0502    0.2789    5.2208 C   0  0  0  0  0  0  0  0  0  0  0  0
   -2.8099   -0.5175    5.2742 H   0  0  0  0  0  0  0  0  0  0  0  0
   -1.2190   -0.0687    5.8551 H   0  0  0  0  0  0  0  0  0  0  0  0
   -2.4882    1.1338    5.7604 H   0  0  0  0  0  0  0  0  0  0  0  0
   -2.3680    1.5337    3.1790 N   0  0  0  0  0  0  0  0  0  0  0  0
   -2.1212    1.9597    1.8266 C   0  0  2  0  0  0  0  0  0  0  0  0
   -0.7862    1.3744    1.3854 C   0  0  0  0  0  0  0  0  0  0  0  0
    0.0859    1.0216    2.1767 O   0  0  0  0  0  0  0  0  0  0  0  0
   -2.1124    3.4765    1.7171 C   0  0  0  0  0  0  0  0  0  0  0  0
   -3.1331    1.9695    3.6908 H   0  0  0  0  0  0  0  0  0  0  0  0
   -2.9253    1.5413    1.2115 H   0  0  0  0  0  0  0  0  0  0  0  0
   -1.3133    3.9138    2.3268 H   0  0  0  0  0  0  0  0  0  0  0  0
   -1.9529    3.7988    0.6829 H   0  0  0  0  0  0  0  0  0  0  0  0
   -3.0626    3.8977    2.0629 H   0  0  0  0  0  0  0  0  0  0  0  0
   -0.6635    1.3313    0.0020 N   0  0  0  0  0  0  0  0  0  0  0  0
    0.5138    0.8305   -0.6617 C   0  0  2  0  0  0  0  0  0  0  0  0
    1.1258   -0.2309    0.2456 C   0  0  0  0  0  0  0  0  0  0  0  0
    0.8552   -1.4264    0.1539 O   0  0  0  0  0  0  0  0  0  0  0  0
    1.5330    1.9393   -0.9476 C   0  0  0  0  0  0  0  0  0  0  0  0
    1.0108    2.9781   -1.9097 C   0  0  0  0  0  0  0  0  0  0  0  0
    0.9160    2.7029   -3.2510 N   0  0  0  0  0  0  0  0  0  0  0  0
    0.5831    4.2553   -1.6335 C   0  0  0  0  0  0  0  0  0  0  0  0
    0.4343    3.8032   -3.7852 C   0  0  0  0  0  0  0  0  0  0  0  0
    0.2174    4.7715   -2.8447 N   0  0  0  0  0  0  0  0  0  0  0  0
   -1.4467    1.6280   -0.5753 H   0  0  0  0  0  0  0  0  0  0  0  0
    0.1717    0.3560   -1.5890 H   0  0  0  0  0  0  0  0  0  0  0  0
    2.4644    1.5081   -1.3392 H   0  0  0  0  0  0  0  0  0  0  0  0
    1.8197    2.4461   -0.0167 H   0  0  0  0  0  0  0  0  0  0  0  0
    0.5073    4.8271   -0.7197 H   0  0  0  0  0  0  0  0  0  0  0  0
    0.2222    3.9623   -4.8331 H   0  0  0  0  0  0  0  0  0  0  0  0
   -0.1477    5.6991   -3.0144 H   0  0  0  0  0  0  0  0  0  0  0  0
    2.0449    0.3113    1.1330 N   0  0  0  0  0  0  0  0  0  0  0  0
    2.7868   -0.4792    2.0888 C   0  0  2  0  0  0  0  0  0  0  0  0
    1.7971   -1.3599    2.8398 C   0  0  0  0  0  0  0  0  0  0  0  0
    0.5998   -1.0966    2.9310 O   0  0  0  0  0  0  0  0  0  0  0  0
    3.5671    0.4038    3.0502 C   0  0  0  0  0  0  0  0  0  0  0  0
    2.2041    1.3143    1.1096 H   0  0  0  0  0  0  0  0  0  0  0  0
    3.4734   -1.1093    1.5129 H   0  0  0  0  0  0  0  0  0  0  0  0
    2.8959    1.0424    3.6360 H   0  0  0  0  0  0  0  0  0  0  0  0
    4.1510   -0.1967    3.7554 H   0  0  0  0  0  0  0  0  0  0  0  0
    4.2571    1.0577    2.5061 H   0  0  0  0  0  0  0  0  0  0  0  0
    2.4155   -2.4517    3.4328 N   0  0  0  0  0  0  0  0  0  0  0  0
    1.6922   -3.4292    4.2122 C   0  0  0  0  0  0  0  0  0  0  0  0
    3.4098   -2.6018    3.2890 H   0  0  0  0  0  0  0  0  0  0  0  0
    1.7142   -3.1415    5.2737 H   0  0  0  0  0  0  0  0  0  0  0  0
    0.6490   -3.4747    3.8663 H   0  0  0  0  0  0  0  0  0  0  0  0
    2.1624   -4.4161    4.0901 H   0  0  0  0  0  0  0  0  0  0  0  0
 22 24  2  0  0  0  0
 24 26  1  0  0  0  0
 23 25  2  0  0  0  0
 25 26  1  0  0  0  0
 21 22  1  0  0  0  0
 22 23  1  0  0  0  0
  1  3  1  0  0  0  0
  1  7  1  0  0  0  0
  1  2  2  0  0  0  0
 35 36  1  0  0  0  0
 36 44  1  0  0  0  0
 36 37  2  0  0  0  0
  8  9  1  0  0  0  0
  9 17  1  0  0  0  0
  9 10  2  0  0  0  0
 18 19  1  0  0  0  0
 19 34  1  0  0  0  0
 19 20  2  0  0  0  0
 35 38  1  0  0  0  0
  8 11  1  0  0  0  0
 44 45  1  0  0  0  0
 18 21  1  0  0  0  0
 34 35  1  0  0  0  0
  7  8  1  0  0  0  0
 17 18  1  0  0  0  0
 24 31  1  0  0  0  0
 25 32  1  0  0  0  0
  3  4  1  0  0  0  0
  3  5  1  0  0  0  0
  3  6  1  0  0  0  0
 38 41  1  0  0  0  0
 38 42  1  0  0  0  0
 38 43  1  0  0  0  0
 11 14  1  0  0  0  0
 11 15  1  0  0  0  0
 11 16  1  0  0  0  0
 45 47  1  0  0  0  0
 45 48  1  0  0  0  0
 45 49  1  0  0  0  0
 21 29  1  0  0  0  0
 21 30  1  0  0  0  0
 35 40  1  0  0  0  0
  8 13  1  0  0  0  0
 18 28  1  0  0  0  0
 26 33  1  0  0  0  0
 44 46  1  0  0  0  0
  7 12  1  0  0  0  0
 34 39  1  0  0  0  0
 17 27  1  0  0  0  0
M  END
$$$$

  -OEChem-05262214473D

 49 49  0     1  0  0  0  0  0999 V2000
   -1.6183    0.5613    3.8201 C   0  0  0  0  0  0  0  0  0  0  0  0
   -0.6710   -0.0534    3.3444 O   0  0  0  0  0  0  0  0  0  0  0  0
   -2.0502    0.2789    5.2208 C   0  0  0  0  0  0  0  0  0  0  0  0
   -2.8099   -0.5175    5.2742 H   0  0  0  0  0  0  0  0  0  0  0  0
   -1.2190   -0.0687    5.8551 H   0  0  0  0  0  0  0  0  0  0  0  0
   -2.4882    1.1338    5.7604 H   0  0  0  0  0  0  0  0  0  0  0  0
   -2.3680    1.5337    3.1790 N   0  0  0  0  0  0  0  0  0  0  0  0
   -2.1212    1.9597    1.8266 C   0  0  2  0  0  0  0  0  0  0  0  0
   -0.7862    1.3744    1.3854 C   0  0  0  0  0  0  0  0  0  0  0  0
    0.0859    1.0216    2.1767 O   0  0  0  0  0  0  0  0  0  0  0  0
   -2.1124    3.4765    1.7171 C   0  0  0  0  0  0  0  0  0  0  0  0
   -3.1331    1.9695    3.6908 H   0  0  0  0  0  0  0  0  0  0  0  0
   -2.9253    1.5413    1.2115 H   0  0  0  0  0  0  0  0  0  0  0  0
   -1.3133    3.9138    2.3268 H   0  0  0  0  0  0  0  0  0  0  0  0
   -1.9529    3.7988    0.6829 H   0  0  0  0  0  0  0  0  0  0  0  0
   -3.0626    3.8977    2.0629 H   0  0  0  0  0  0  0  0  0  0  0  0
   -0.6635    1.3313    0.0020 N   0  0  0  0  0  0  0  0  0  0  0  0
    0.5138    0.8305   -0.6617 C   0  0  2  0  0  0  0  0  0  0  0  0
    1.1258   -0.2309    0.2456 C   0  0  0  0  0  0  0  0  0  0  0  0
    1.0742   -1.4337   -0.0024 O   0  0  0  0  0  0  0  0  0  0  0  0
    1.5330    1.9393   -0.9476 C   0  0  0  0  0  0  0  0  0  0  0  0
    1.0108    2.9781   -1.9097 C   0  0  0  0  0  0  0  0  0  0  0  0
    0.9160    2.7029   -3.2510 N   0  0  0  0  0  0  0  0  0  0  0  0
    0.5831    4.2553   -1.6335 C   0  0  0  0  0  0  0  0  0  0  0  0
    0.4343    3.8032   -3.7852 C   0  0  0  0  0  0  0  0  0  0  0  0
    0.2174    4.7715   -2.8447 N   0  0  0  0  0  0  0  0  0  0  0  0
   -1.4467    1.6280   -0.5753 H   0  0  0  0  0  0  0  0  0  0  0  0
    0.1717    0.3560   -1.5890 H   0  0  0  0  0  0  0  0  0  0  0  0
    2.4644    1.5081   -1.3392 H   0  0  0  0  0  0  0  0  0  0  0  0
    1.8197    2.4461   -0.0167 H   0  0  0  0  0  0  0  0  0  0  0  0
    0.5073    4.8271   -0.7197 H   0  0  0  0  0  0  0  0  0  0  0  0
    0.2222    3.9623   -4.8331 H   0  0  0  0  0  0  0  0  0  0  0  0
   -0.1477    5.6991   -3.0144 H   0  0  0  0  0  0  0  0  0  0  0  0
    1.7773    0.3299    1.3353 N   0  0  0  0  0  0  0  0  0  0  0  0
    2.4628   -0.4523    2.3387 C   0  0  2  0  0  0  0  0  0  0  0  0
    1.5162   -1.5493    2.8078 C   0  0  0  0  0  0  0  0  0  0  0  0
    0.2944   -1.4744    2.6951 O   0  0  0  0  0  0  0  0  0  0  0  0
    2.9109    0.4144    3.5052 C   0  0  0  0  0  0  0  0  0  0  0  0
    1.7719    1.3410    1.4325 H   0  0  0  0  0  0  0  0  0  0  0  0
    3.3319   -0.9042    1.8482 H   0  0  0  0  0  0  0  0  0  0  0  0
    2.0537    0.8757    4.0091 H   0  0  0  0  0  0  0  0  0  0  0  0
    3.4551   -0.1744    4.2510 H   0  0  0  0  0  0  0  0  0  0  0  0
    3.5679    1.2208    3.1618 H   0  0  0  0  0  0  0  0  0  0  0  0
    2.1935   -2.6025    3.4061 N   0  0  0  0  0  0  0  0  0  0  0  0
    1.5166   -3.7593    3.9444 C   0  0  0  0  0  0  0  0  0  0  0  0
    3.2086   -2.5894    3.4393 H   0  0  0  0  0  0  0  0  0  0  0  0
    1.3082   -3.5988    5.0125 H   0  0  0  0  0  0  0  0  0  0  0  0
    0.5702   -3.9139    3.4055 H   0  0  0  0  0  0  0  0  0  0  0  0
    2.1558   -4.6465    3.8249 H   0  0  0  0  0  0  0  0  0  0  0  0
 22 24  2  0  0  0  0
 24 26  1  0  0  0  0
 23 25  2  0  0  0  0
 25 26  1  0  0  0  0
 21 22  1  0  0  0  0
 22 23  1  0  0  0  0
  1  3  1  0  0  0  0
  1  7  1  0  0  0  0
  1  2  2  0  0  0  0
 35 36  1  0  0  0  0
 36 44  1  0  0  0  0
 36 37  2  0  0  0  0
  8  9  1  0  0  0  0
  9 17  1  0  0  0  0
  9 10  2  0  0  0  0
 18 19  1  0  0  0  0
 19 34  1  0  0  0  0
 19 20  2  0  0  0  0
 35 38  1  0  0  0  0
  8 11  1  0  0  0  0
 44 45  1  0  0  0  0
 18 21  1  0  0  0  0
 34 35  1  0  0  0  0
  7  8  1  0  0  0  0
 17 18  1  0  0  0  0
 24 31  1  0  0  0  0
 25 32  1  0  0  0  0
  3  4  1  0  0  0  0
  3  5  1  0  0  0  0
  3  6  1  0  0  0  0
 38 41  1  0  0  0  0
 38 42  1  0  0  0  0
 38 43  1  0  0  0  0
 11 14  1  0  0  0  0
 11 15  1  0  0  0  0
 11 16  1  0  0  0  0
 45 47  1  0  0  0  0
 45 48  1  0  0  0  0
 45 49  1  0  0  0  0
 21 29  1  0  0  0  0
 21 30  1  0  0  0  0
 35 40  1  0  0  0  0
  8 13  1  0  0  0  0
 18 28  1  0  0  0  0
 26 33  1  0  0  0  0
 44 46  1  0  0  0  0
  7 12  1  0  0  0  0
 34 39  1  0  0  0  0
 17 27  1  0  0  0  0
M  END
$$$$

  -OEChem-05262214473D

 49 49  0     1  0  0  0  0  0999 V2000
   -1.6183    0.5613    3.8201 C   0  0  0  0  0  0  0  0  0  0  0  0
   -0.6710   -0.0534    3.3444 O   0  0  0  0  0  0  0  0  0  0  0  0
   -2.0502    0.2789    5.2208 C   0  0  0  0  0  0  0  0  0  0  0  0
   -2.8099   -0.5175    5.2742 H   0  0  0  0  0  0  0  0  0  0  0  0
   -1.2190   -0.0687    5.8551 H   0  0  0  0  0  0  0  0  0  0  0  0
   -2.4882    1.1338    5.7604 H   0  0  0  0  0  0  0  0  0  0  0  0
   -2.3680    1.5337    3.1790 N   0  0  0  0  0  0  0  0  0  0  0  0
   -2.1212    1.9597    1.8266 C   0  0  2  0  0  0  0  0  0  0  0  0
   -0.7862    1.3744    1.3854 C   0  0  0  0  0  0  0  0  0  0  0  0
    0.0859    1.0216    2.1767 O   0  0  0  0  0  0  0  0  0  0  0  0
   -2.1124    3.4765    1.7171 C   0  0  0  0  0  0  0  0  0  0  0  0
   -3.1331    1.9695    3.6908 H   0  0  0  0  0  0  0  0  0  0  0  0
   -2.9253    1.5413    1.2115 H   0  0  0  0  0  0  0  0  0  0  0  0
   -1.3133    3.9138    2.3268 H   0  0  0  0  0  0  0  0  0  0  0  0
   -1.9529    3.7988    0.6829 H   0  0  0  0  0  0  0  0  0  0  0  0
   -3.0626    3.8977    2.0629 H   0  0  0  0  0  0  0  0  0  0  0  0
   -0.6635    1.3313    0.0020 N   0  0  0  0  0  0  0  0  0  0  0  0
    0.5138    0.8305   -0.6617 C   0  0  2  0  0  0  0  0  0  0  0  0
    1.1258   -0.2309    0.2456 C   0  0  0  0  0  0  0  0  0  0  0  0
    1.3150   -1.3908   -0.1147 O   0  0  0  0  0  0  0  0  0  0  0  0
    1.5330    1.9393   -0.9476 C   0  0  0  0  0  0  0  0  0  0  0  0
    1.0108    2.9781   -1.9097 C   0  0  0  0  0  0  0  0  0  0  0  0
    0.9160    2.7029   -3.2510 N   0  0  0  0  0  0  0  0  0  0  0  0
    0.5831    4.2553   -1.6335 C   0  0  0  0  0  0  0  0  0  0  0  0
    0.4343    3.8032   -3.7852 C   0  0  0  0  0  0  0  0  0  0  0  0
    0.2174    4.7715   -2.8447 N   0  0  0  0  0  0  0  0  0  0  0  0
   -1.4467    1.6280   -0.5753 H   0  0  0  0  0  0  0  0  0  0  0  0
    0.1717    0.3560   -1.5890 H   0  0  0  0  0  0  0  0  0  0  0  0
    2.4644    1.5081   -1.3392 H   0  0  0  0  0  0  0  0  0  0  0  0
    1.8197    2.4461   -0.0167 H   0  0  0  0  0  0  0  0  0  0  0  0
    0.5073    4.8271   -0.7197 H   0  0  0  0  0  0  0  0  0  0  0  0
    0.2222    3.9623   -4.8331 H   0  0  0  0  0  0  0  0  0  0  0  0
   -0.1477    5.6991   -3.0144 H   0  0  0  0  0  0  0  0  0  0  0  0
    1.4794    0.2856    1.4844 N   0  0  0  0  0  0  0  0  0  0  0  0
    2.1007   -0.5023    2.5246 C   0  0  2  0  0  0  0  0  0  0  0  0
    1.2798   -1.7721    2.7066 C   0  0  0  0  0  0  0  0  0  0  0  0
    0.1000   -1.8618    2.3729 O   0  0  0  0  0  0  0  0  0  0  0  0
    2.1935    0.2763    3.8276 C   0  0  0  0  0  0  0  0  0  0  0  0
    1.2922    1.2667    1.6692 H   0  0  0  0  0  0  0  0  0  0  0  0
    3.1032   -0.7628    2.1680 H   0  0  0  0  0  0  0  0  0  0  0  0
    1.1987    0.5462    4.2004 H   0  0  0  0  0  0  0  0  0  0  0  0
    2.6901   -0.3116    4.6066 H   0  0  0  0  0  0  0  0  0  0  0  0
    2.7590    1.2040    3.6879 H   0  0  0  0  0  0  0  0  0  0  0  0
    2.0070   -2.7796    3.3247 N   0  0  0  0  0  0  0  0  0  0  0  0
    1.4461   -4.0774    3.6198 C   0  0  0  0  0  0  0  0  0  0  0  0
    2.9853   -2.6239    3.5495 H   0  0  0  0  0  0  0  0  0  0  0  0
    1.0337   -4.0759    4.6396 H   0  0  0  0  0  0  0  0  0  0  0  0
    0.6447   -4.3025    2.9007 H   0  0  0  0  0  0  0  0  0  0  0  0
    2.2326   -4.8426    3.5437 H   0  0  0  0  0  0  0  0  0  0  0  0
 22 24  2  0  0  0  0
 24 26  1  0  0  0  0
 23 25  2  0  0  0  0
 25 26  1  0  0  0  0
 21 22  1  0  0  0  0
 22 23  1  0  0  0  0
  1  3  1  0  0  0  0
  1  7  1  0  0  0  0
  1  2  2  0  0  0  0
 35 36  1  0  0  0  0
 36 44  1  0  0  0  0
 36 37  2  0  0  0  0
  8  9  1  0  0  0  0
  9 17  1  0  0  0  0
  9 10  2  0  0  0  0
 18 19  1  0  0  0  0
 19 34  1  0  0  0  0
 19 20  2  0  0  0  0
 35 38  1  0  0  0  0
  8 11  1  0  0  0  0
 44 45  1  0  0  0  0
 18 21  1  0  0  0  0
 34 35  1  0  0  0  0
  7  8  1  0  0  0  0
 17 18  1  0  0  0  0
 24 31  1  0  0  0  0
 25 32  1  0  0  0  0
  3  4  1  0  0  0  0
  3  5  1  0  0  0  0
  3  6  1  0  0  0  0
 38 41  1  0  0  0  0
 38 42  1  0  0  0  0
 38 43  1  0  0  0  0
 11 14  1  0  0  0  0
 11 15  1  0  0  0  0
 11 16  1  0  0  0  0
 45 47  1  0  0  0  0
 45 48  1  0  0  0  0
 45 49  1  0  0  0  0
 21 29  1  0  0  0  0
 21 30  1  0  0  0  0
 35 40  1  0  0  0  0
  8 13  1  0  0  0  0
 18 28  1  0  0  0  0
 26 33  1  0  0  0  0
 44 46  1  0  0  0  0
  7 12  1  0  0  0  0
 34 39  1  0  0  0  0
 17 27  1  0  0  0  0
M  END
$$$$

  -OEChem-05262214473D

 49 49  0     1  0  0  0  0  0999 V2000
   -1.6183    0.5613    3.8201 C   0  0  0  0  0  0  0  0  0  0  0  0
   -0.6710   -0.0534    3.3444 O   0  0  0  0  0  0  0  0  0  0  0  0
   -2.0502    0.2789    5.2208 C   0  0  0  0  0  0  0  0  0  0  0  0
   -2.8099   -0.5175    5.2742 H   0  0  0  0  0  0  0  0  0  0  0  0
   -1.2190   -0.0687    5.8551 H   0  0  0  0  0  0  0  0  0  0  0  0
   -2.4882    1.1338    5.7604 H   0  0  0  0  0  0  0  0  0  0  0  0
   -2.3680    1.5337    3.1790 N   0  0  0  0  0  0  0  0  0  0  0  0
   -2.1212    1.9597    1.8266 C   0  0  2  0  0  0  0  0  0  0  0  0
   -0.7862    1.3744    1.3854 C   0  0  0  0  0  0  0  0  0  0  0  0
    0.0859    1.0216    2.1767 O   0  0  0  0  0  0  0  0  0  0  0  0
   -2.1124    3.4765    1.7171 C   0  0  0  0  0  0  0  0  0  0  0  0
   -3.1331    1.9695    3.6908 H   0  0  0  0  0  0  0  0  0  0  0  0
   -2.9253    1.5413    1.2115 H   0  0  0  0  0  0  0  0  0  0  0  0
   -1.3133    3.9138    2.3268 H   0  0  0  0  0  0  0  0  0  0  0  0
   -1.9529    3.7988    0.6829 H   0  0  0  0  0  0  0  0  0  0  0  0
   -3.0626    3.8977    2.0629 H   0  0  0  0  0  0  0  0  0  0  0  0
   -0.6635    1.3313    0.0020 N   0  0  0  0  0  0  0  0  0  0  0  0
    0.5138    0.8305   -0.6617 C   0  0  2  0  0  0  0  0  0  0  0  0
    1.1258   -0.2309    0.2456 C   0  0  0  0  0  0  0  0  0  0  0  0
    1.5613   -1.3006   -0.1753 O   0  0  0  0  0  0  0  0  0  0  0  0
    1.5330    1.9393   -0.9476 C   0  0  0  0  0  0  0  0  0  0  0  0
    1.0108    2.9781   -1.9097 C   0  0  0  0  0  0  0  0  0  0  0  0
    0.9160    2.7029   -3.2510 N   0  0  0  0  0  0  0  0  0  0  0  0
    0.5831    4.2553   -1.6335 C   0  0  0  0  0  0  0  0  0  0  0  0
    0.4343    3.8032   -3.7852 C   0  0  0  0  0  0  0  0  0  0  0  0
    0.2174    4.7715   -2.8447 N   0  0  0  0  0  0  0  0  0  0  0  0
   -1.4467    1.6280   -0.5753 H   0  0  0  0  0  0  0  0  0  0  0  0
    0.1717    0.3560   -1.5890 H   0  0  0  0  0  0  0  0  0  0  0  0
    2.4644    1.5081   -1.3392 H   0  0  0  0  0  0  0  0  0  0  0  0
    1.8197    2.4461   -0.0167 H   0  0  0  0  0  0  0  0  0  0  0  0
    0.5073    4.8271   -0.7197 H   0  0  0  0  0  0  0  0  0  0  0  0
    0.2222    3.9623   -4.8331 H   0  0  0  0  0  0  0  0  0  0  0  0
   -0.1477    5.6991   -3.0144 H   0  0  0  0  0  0  0  0  0  0  0  0
    1.1717    0.1814    1.5701 N   0  0  0  0  0  0  0  0  0  0  0  0
    1.7251   -0.6256    2.6337 C   0  0  2  0  0  0  0  0  0  0  0  0
    1.1040   -2.0133    2.5430 C   0  0  0  0  0  0  0  0  0  0  0  0
    0.0301   -2.2324    1.9865 O   0  0  0  0  0  0  0  0  0  0  0  0
    1.4638   -0.0011    3.9954 C   0  0  0  0  0  0  0  0  0  0  0  0
    0.7976    1.0964    1.8036 H   0  0  0  0  0  0  0  0  0  0  0  0
    2.8029   -0.6946    2.4503 H   0  0  0  0  0  0  0  0  0  0  0  0
    0.3891    0.0763    4.1969 H   0  0  0  0  0  0  0  0  0  0  0  0
    1.9083   -0.5988    4.7980 H   0  0  0  0  0  0  0  0  0  0  0  0
    1.8854    1.0085    4.0486 H   0  0  0  0  0  0  0  0  0  0  0  0
    1.8689   -2.9710    3.1941 N   0  0  0  0  0  0  0  0  0  0  0  0
    1.4855   -4.3619    3.2605 C   0  0  0  0  0  0  0  0  0  0  0  0
    2.7550   -2.7032    3.6121 H   0  0  0  0  0  0  0  0  0  0  0  0
    0.9091   -4.5403    4.1803 H   0  0  0  0  0  0  0  0  0  0  0  0
    0.8675   -4.6139    2.3861 H   0  0  0  0  0  0  0  0  0  0  0  0
    2.3878   -4.9910    3.2655 H   0  0  0  0  0  0  0  0  0  0  0  0
 22 24  2  0  0  0  0
 24 26  1  0  0  0  0
 23 25  2  0  0  0  0
 25 26  1  0  0  0  0
 21 22  1  0  0  0  0
 22 23  1  0  0  0  0
  1  3  1  0  0  0  0
  1  7  1  0  0  0  0
  1  2  2  0  0  0  0
 35 36  1  0  0  0  0
 36 44  1  0  0  0  0
 36 37  2  0  0  0  0
  8  9  1  0  0  0  0
  9 17  1  0  0  0  0
  9 10  2  0  0  0  0
 18 19  1  0  0  0  0
 19 34  1  0  0  0  0
 19 20  2  0  0  0  0
 35 38  1  0  0  0  0
  8 11  1  0  0  0  0
 44 45  1  0  0  0  0
 18 21  1  0  0  0  0
 34 35  1  0  0  0  0
  7  8  1  0  0  0  0
 17 18  1  0  0  0  0
 24 31  1  0  0  0  0
 25 32  1  0  0  0  0
  3  4  1  0  0  0  0
  3  5  1  0  0  0  0
  3  6  1  0  0  0  0
 38 41  1  0  0  0  0
 38 42  1  0  0  0  0
 38 43  1  0  0  0  0
 11 14  1  0  0  0  0
 11 15  1  0  0  0  0
 11 16  1  0  0  0  0
 45 47  1  0  0  0  0
 45 48  1  0  0  0  0
 45 49  1  0  0  0  0
 21 29  1  0  0  0  0
 21 30  1  0  0  0  0
 35 40  1  0  0  0  0
  8 13  1  0  0  0  0
 18 28  1  0  0  0  0
 26 33  1  0  0  0  0
 44 46  1  0  0  0  0
  7 12  1  0  0  0  0
 34 39  1  0  0  0  0
 17 27  1  0  0  0  0
M  END
$$$$

  -OEChem-05262214473D

 49 49  0     1  0  0  0  0  0999 V2000
   -1.6183    0.5613    3.8201 C   0  0  0  0  0  0  0  0  0  0  0  0
   -0.6710   -0.0534    3.3444 O   0  0  0  0  0  0  0  0  0  0  0  0
   -2.0502    0.2789    5.2208 C   0  0  0  0  0  0  0  0  0  0  0  0
   -2.8099   -0.5175    5.2742 H   0  0  0  0  0  0  0  0  0  0  0  0
   -1.2190   -0.0687    5.8551 H   0  0  0  0  0  0  0  0  0  0  0  0
   -2.4882    1.1338    5.7604 H   0  0  0  0  0  0  0  0  0  0  0  0
   -2.3680    1.5337    3.1790 N   0  0  0  0  0  0  0  0  0  0  0  0
   -2.1212    1.9597    1.8266 C   0  0  2  0  0  0  0  0  0  0  0  0
   -0.7862    1.3744    1.3854 C   0  0  0  0  0  0  0  0  0  0  0  0
    0.0859    1.0216    2.1767 O   0  0  0  0  0  0  0  0  0  0  0  0
   -2.1124    3.4765    1.7171 C   0  0  0  0  0  0  0  0  0  0  0  0
   -3.1331    1.9695    3.6908 H   0  0  0  0  0  0  0  0  0  0  0  0
   -2.9253    1.5413    1.2115 H   0  0  0  0  0  0  0  0  0  0  0  0
   -1.3133    3.9138    2.3268 H   0  0  0  0  0  0  0  0  0  0  0  0
   -1.9529    3.7988    0.6829 H   0  0  0  0  0  0  0  0  0  0  0  0
   -3.0626    3.8977    2.0629 H   0  0  0  0  0  0  0  0  0  0  0  0
   -0.6635    1.3313    0.0020 N   0  0  0  0  0  0  0  0  0  0  0  0
    0.5138    0.8305   -0.6617 C   0  0  2  0  0  0  0  0  0  0  0  0
    1.1258   -0.2309    0.2456 C   0  0  0  0  0  0  0  0  0  0  0  0
    1.7962   -1.1692   -0.1800 O   0  0  0  0  0  0  0  0  0  0  0  0
    1.5330    1.9393   -0.9476 C   0  0  0  0  0  0  0  0  0  0  0  0
    1.0108    2.9781   -1.9097 C   0  0  0  0  0  0  0  0  0  0  0  0
    0.9160    2.7029   -3.2510 N   0  0  0  0  0  0  0  0  0  0  0  0
    0.5831    4.2553   -1.6335 C   0  0  0  0  0  0  0  0  0  0  0  0
    0.4343    3.8032   -3.7852 C   0  0  0  0  0  0  0  0  0  0  0  0
    0.2174    4.7715   -2.8447 N   0  0  0  0  0  0  0  0  0  0  0  0
   -1.4467    1.6280   -0.5753 H   0  0  0  0  0  0  0  0  0  0  0  0
    0.1717    0.3560   -1.5890 H   0  0  0  0  0  0  0  0  0  0  0  0
    2.4644    1.5081   -1.3392 H   0  0  0  0  0  0  0  0  0  0  0  0
    1.8197    2.4461   -0.0167 H   0  0  0  0  0  0  0  0  0  0  0  0
    0.5073    4.8271   -0.7197 H   0  0  0  0  0  0  0  0  0  0  0  0
    0.2222    3.9623   -4.8331 H   0  0  0  0  0  0  0  0  0  0  0  0
   -0.1477    5.6991   -3.0144 H   0  0  0  0  0  0  0  0  0  0  0  0
    0.8751    0.0245    1.5866 N   0  0  0  0  0  0  0  0  0  0  0  0
    1.3616   -0.8140    2.6586 C   0  0  2  0  0  0  0  0  0  0  0  0
    1.0008   -2.2563    2.3283 C   0  0  0  0  0  0  0  0  0  0  0  0
    0.0892   -2.5611    1.5621 O   0  0  0  0  0  0  0  0  0  0  0  0
    0.7713   -0.3988    3.9972 C   0  0  0  0  0  0  0  0  0  0  0  0
    0.3218    0.8418    1.8267 H   0  0  0  0  0  0  0  0  0  0  0  0
    2.4515   -0.7044    2.6760 H   0  0  0  0  0  0  0  0  0  0  0  0
   -0.3199   -0.5019    3.9988 H   0  0  0  0  0  0  0  0  0  0  0  0
    1.1628   -1.0166    4.8121 H   0  0  0  0  0  0  0  0  0  0  0  0
    1.0067    0.6476    4.2192 H   0  0  0  0  0  0  0  0  0  0  0  0
    1.7885   -3.1635    3.0231 N   0  0  0  0  0  0  0  0  0  0  0  0
    1.6320   -4.5932    2.8910 C   0  0  0  0  0  0  0  0  0  0  0  0
    2.5336   -2.8217    3.6229 H   0  0  0  0  0  0  0  0  0  0  0  0
    0.9431   -4.9604    3.6659 H   0  0  0  0  0  0  0  0  0  0  0  0
    1.2234   -4.8269    1.8968 H   0  0  0  0  0  0  0  0  0  0  0  0
    2.6106   -5.0815    3.0093 H   0  0  0  0  0  0  0  0  0  0  0  0
 22 24  2  0  0  0  0
 24 26  1  0  0  0  0
 23 25  2  0  0  0  0
 25 26  1  0  0  0  0
 21 22  1  0  0  0  0
 22 23  1  0  0  0  0
  1  3  1  0  0  0  0
  1  7  1  0  0  0  0
  1  2  2  0  0  0  0
 35 36  1  0  0  0  0
 36 44  1  0  0  0  0
 36 37  2  0  0  0  0
  8  9  1  0  0  0  0
  9 17  1  0  0  0  0
  9 10  2  0  0  0  0
 18 19  1  0  0  0  0
 19 34  1  0  0  0  0
 19 20  2  0  0  0  0
 35 38  1  0  0  0  0
  8 11  1  0  0  0  0
 44 45  1  0  0  0  0
 18 21  1  0  0  0  0
 34 35  1  0  0  0  0
  7  8  1  0  0  0  0
 17 18  1  0  0  0  0
 24 31  1  0  0  0  0
 25 32  1  0  0  0  0
  3  4  1  0  0  0  0
  3  5  1  0  0  0  0
  3  6  1  0  0  0  0
 38 41  1  0  0  0  0
 38 42  1  0  0  0  0
 38 43  1  0  0  0  0
 11 14  1  0  0  0  0
 11 15  1  0  0  0  0
 11 16  1  0  0  0  0
 45 47  1  0  0  0  0
 45 48  1  0  0  0  0
 45 49  1  0  0  0  0
 21 29  1  0  0  0  0
 21 30  1  0  0  0  0
 35 40  1  0  0  0  0
  8 13  1  0  0  0  0
 18 28  1  0  0  0  0
 26 33  1  0  0  0  0
 44 46  1  0  0  0  0
  7 12  1  0  0  0  0
 34 39  1  0  0  0  0
 17 27  1  0  0  0  0
M  END
$$$$

  -OEChem-05262214473D

 49 49  0     1  0  0  0  0  0999 V2000
   -1.6183    0.5613    3.8201 C   0  0  0  0  0  0  0  0  0  0  0  0
   -0.6710   -0.0534    3.3444 O   0  0  0  0  0  0  0  0  0  0  0  0
   -2.0502    0.2789    5.2208 C   0  0  0  0  0  0  0  0  0  0  0  0
   -2.8099   -0.5175    5.2742 H   0  0  0  0  0  0  0  0  0  0  0  0
   -1.2190   -0.0687    5.8551 H   0  0  0  0  0  0  0  0  0  0  0  0
   -2.4882    1.1338    5.7604 H   0  0  0  0  0  0  0  0  0  0  0  0
   -2.3680    1.5337    3.1790 N   0  0  0  0  0  0  0  0  0  0  0  0
   -2.1212    1.9597    1.8266 C   0  0  2  0  0  0  0  0  0  0  0  0
   -0.7862    1.3744    1.3854 C   0  0  0  0  0  0  0  0  0  0  0  0
    0.0859    1.0216    2.1767 O   0  0  0  0  0  0  0  0  0  0  0  0
   -2.1124    3.4765    1.7171 C   0  0  0  0  0  0  0  0  0  0  0  0
   -3.1331    1.9695    3.6908 H   0  0  0  0  0  0  0  0  0  0  0  0
   -2.9253    1.5413    1.2115 H   0  0  0  0  0  0  0  0  0  0  0  0
   -1.3133    3.9138    2.3268 H   0  0  0  0  0  0  0  0  0  0  0  0
   -1.9529    3.7988    0.6829 H   0  0  0  0  0  0  0  0  0  0  0  0
   -3.0626    3.8977    2.0629 H   0  0  0  0  0  0  0  0  0  0  0  0
   -0.6635    1.3313    0.0020 N   0  0  0  0  0  0  0  0  0  0  0  0
    0.5138    0.8305   -0.6617 C   0  0  2  0  0  0  0  0  0  0  0  0
    1.1258   -0.2309    0.2456 C   0  0  0  0  0  0  0  0  0  0  0  0
    2.0037   -1.0056   -0.1286 O   0  0  0  0  0  0  0  0  0  0  0  0
    1.5330    1.9393   -0.9476 C   0  0  0  0  0  0  0  0  0  0  0  0
    1.0108    2.9781   -1.9097 C   0  0  0  0  0  0  0  0  0  0  0  0
    0.9160    2.7029   -3.2510 N   0  0  0  0  0  0  0  0  0  0  0  0
    0.5831    4.2553   -1.6335 C   0  0  0  0  0  0  0  0  0  0  0  0
    0.4343    3.8032   -3.7852 C   0  0  0  0  0  0  0  0  0  0  0  0
    0.2174    4.7715   -2.8447 N   0  0  0  0  0  0  0  0  0  0  0  0
   -1.4467    1.6280   -0.5753 H   0  0  0  0  0  0  0  0  0  0  0  0
    0.1717    0.3560   -1.5890 H   0  0  0  0  0  0  0  0  0  0  0  0
    2.4644    1.5081   -1.3392 H   0  0  0  0  0  0  0  0  0  0  0  0
    1.8197    2.4461   -0.0167 H   0  0  0  0  0  0  0  0  0  0  0  0
    0.5073    4.8271   -0.7197 H   0  0  0  0  0  0  0  0  0  0  0  0
    0.2222    3.9623   -4.8331 H   0  0  0  0  0  0  0  0  0  0  0  0
   -0.1477    5.6991   -3.0144 H   0  0  0  0  0  0  0  0  0  0  0  0
    0.6098   -0.1745    1.5328 N   0  0  0  0  0  0  0  0  0  0  0  0
    1.0351   -1.0544    2.5975 C   0  0  2  0  0  0  0  0  0  0  0  0
    0.9773   -2.4846    2.0771 C   0  0  0  0  0  0  0  0  0  0  0  0
    0.2734   -2.8253    1.1287 O   0  0  0  0  0  0  0  0  0  0  0  0
    0.1635   -0.8899    3.8328 C   0  0  0  0  0  0  0  0  0  0  0  0
   -0.1027    0.5202    1.7368 H   0  0  0  0  0  0  0  0  0  0  0  0
    2.0728   -0.7913    2.8297 H   0  0  0  0  0  0  0  0  0  0  0  0
   -0.8800   -1.1490    3.6196 H   0  0  0  0  0  0  0  0  0  0  0  0
    0.5045   -1.5364    4.6481 H   0  0  0  0  0  0  0  0  0  0  0  0
    0.1827    0.1460    4.1882 H   0  0  0  0  0  0  0  0  0  0  0  0
    1.7712   -3.3440    2.8235 N   0  0  0  0  0  0  0  0  0  0  0  0
    1.8758   -4.7557    2.5364 C   0  0  0  0  0  0  0  0  0  0  0  0
    2.3360   -2.9713    3.5811 H   0  0  0  0  0  0  0  0  0  0  0  0
    1.1333   -5.3074    3.1316 H   0  0  0  0  0  0  0  0  0  0  0  0
    1.6882   -4.9269    1.4662 H   0  0  0  0  0  0  0  0  0  0  0  0
    2.8859   -5.1079    2.7926 H   0  0  0  0  0  0  0  0  0  0  0  0
 22 24  2  0  0  0  0
 24 26  1  0  0  0  0
 23 25  2  0  0  0  0
 25 26  1  0  0  0  0
 21 22  1  0  0  0  0
 22 23  1  0  0  0  0
  1  3  1  0  0  0  0
  1  7  1  0  0  0  0
  1  2  2  0  0  0  0
 35 36  1  0  0  0  0
 36 44  1  0  0  0  0
 36 37  2  0  0  0  0
  8  9  1  0  0  0  0
  9 17  1  0  0  0  0
  9 10  2  0  0  0  0
 18 19  1  0  0  0  0
 19 34  1  0  0  0  0
 19 20  2  0  0  0  0
 35 38  1  0  0  0  0
  8 11  1  0  0  0  0
 44 45  1  0  0  0  0
 18 21  1  0  0  0  0
 34 35  1  0  0  0  0
  7  8  1  0  0  0  0
 17 18  1  0  0  0  0
 24 31  1  0  0  0  0
 25 32  1  0  0  0  0
  3  4  1  0  0  0  0
  3  5  1  0  0  0  0
  3  6  1  0  0  0  0
 38 41  1  0  0  0  0
 38 42  1  0  0  0  0
 38 43  1  0  0  0  0
 11 14  1  0  0  0  0
 11 15  1  0  0  0  0
 11 16  1  0  0  0  0
 45 47  1  0  0  0  0
 45 48  1  0  0  0  0
 45 49  1  0  0  0  0
 21 29  1  0  0  0  0
 21 30  1  0  0  0  0
 35 40  1  0  0  0  0
  8 13  1  0  0  0  0
 18 28  1  0  0  0  0
 26 33  1  0  0  0  0
 44 46  1  0  0  0  0
  7 12  1  0  0  0  0
 34 39  1  0  0  0  0
 17 27  1  0  0  0  0
M  END
$$$$

  -OEChem-05262214473D

 49 49  0     1  0  0  0  0  0999 V2000
   -1.6183    0.5613    3.8201 C   0  0  0  0  0  0  0  0  0  0  0  0
   -0.6710   -0.0534    3.3444 O   0  0  0  0  0  0  0  0  0  0  0  0
   -2.0502    0.2789    5.2208 C   0  0  0  0  0  0  0  0  0  0  0  0
   -2.8099   -0.5175    5.2742 H   0  0  0  0  0  0  0  0  0  0  0  0
   -1.2190   -0.0687    5.8551 H   0  0  0  0  0  0  0  0  0  0  0  0
   -2.4882    1.1338    5.7604 H   0  0  0  0  0  0  0  0  0  0  0  0
   -2.3680    1.5337    3.1790 N   0  0  0  0  0  0  0  0  0  0  0  0
   -2.1212    1.9597    1.8266 C   0  0  2  0  0  0  0  0  0  0  0  0
   -0.7862    1.3744    1.3854 C   0  0  0  0  0  0  0  0  0  0  0  0
    0.0859    1.0216    2.1767 O   0  0  0  0  0  0  0  0  0  0  0  0
   -2.1124    3.4765    1.7171 C   0  0  0  0  0  0  0  0  0  0  0  0
   -3.1331    1.9695    3.6908 H   0  0  0  0  0  0  0  0  0  0  0  0
   -2.9253    1.5413    1.2115 H   0  0  0  0  0  0  0  0  0  0  0  0
   -1.3133    3.9138    2.3268 H   0  0  0  0  0  0  0  0  0  0  0  0
   -1.9529    3.7988    0.6829 H   0  0  0  0  0  0  0  0  0  0  0  0
   -3.0626    3.8977    2.0629 H   0  0  0  0  0  0  0  0  0  0  0  0
   -0.6635    1.3313    0.0020 N   0  0  0  0  0  0  0  0  0  0  0  0
    0.5138    0.8305   -0.6617 C   0  0  2  0  0  0  0  0  0  0  0  0
    1.1258   -0.2309    0.2456 C   0  0  0  0  0  0  0  0  0  0  0  0
    2.1697   -0.8210   -0.0246 O   0  0  0  0  0  0  0  0  0  0  0  0
    1.5330    1.9393   -0.9476 C   0  0  0  0  0  0  0  0  0  0  0  0
    1.0108    2.9781   -1.9097 C   0  0  0  0  0  0  0  0  0  0  0  0
    0.9160    2.7029   -3.2510 N   0  0  0  0  0  0  0  0  0  0  0  0
    0.5831    4.2553   -1.6335 C   0  0  0  0  0  0  0  0  0  0  0  0
    0.4343    3.8032   -3.7852 C   0  0  0  0  0  0  0  0  0  0  0  0
    0.2174    4.7715   -2.8447 N   0  0  0  0  0  0  0  0  0  0  0  0
   -1.4467    1.6280   -0.5753 H   0  0  0  0  0  0  0  0  0  0  0  0
    0.1717    0.3560   -1.5890 H   0  0  0  0  0  0  0  0  0  0  0  0
    2.4644    1.5081   -1.3392 H   0  0  0  0  0  0  0  0  0  0  0  0
    1.8197    2.4461   -0.0167 H   0  0  0  0  0  0  0  0  0  0  0  0
    0.5073    4.8271   -0.7197 H   0  0  0  0  0  0  0  0  0  0  0  0
    0.2222    3.9623   -4.8331 H   0  0  0  0  0  0  0  0  0  0  0  0
   -0.1477    5.6991   -3.0144 H   0  0  0  0  0  0  0  0  0  0  0  0
    0.3938   -0.4020    1.4124 N   0  0  0  0  0  0  0  0  0  0  0  0
    0.7677   -1.3307    2.4547 C   0  0  2  0  0  0  0  0  0  0  0  0
    1.0350   -2.6826    1.8065 C   0  0  0  0  0  0  0  0  0  0  0  0
    0.5701   -3.0072    0.7158 O   0  0  0  0  0  0  0  0  0  0  0  0
   -0.3185   -1.4408    3.5134 C   0  0  0  0  0  0  0  0  0  0  0  0
   -0.4470    0.1535    1.5401 H   0  0  0  0  0  0  0  0  0  0  0  0
    1.6928   -0.9496    2.9009 H   0  0  0  0  0  0  0  0  0  0  0  0
   -1.2531   -1.8209    3.0851 H   0  0  0  0  0  0  0  0  0  0  0  0
   -0.0216   -2.1229    4.3170 H   0  0  0  0  0  0  0  0  0  0  0  0
   -0.5303   -0.4622    3.9577 H   0  0  0  0  0  0  0  0  0  0  0  0
    1.8184   -3.5004    2.6088 N   0  0  0  0  0  0  0  0  0  0  0  0
    2.2002   -4.8382    2.2210 C   0  0  0  0  0  0  0  0  0  0  0  0
    2.1757   -3.1420    3.4895 H   0  0  0  0  0  0  0  0  0  0  0  0
    1.4668   -5.5578    2.6137 H   0  0  0  0  0  0  0  0  0  0  0  0
    2.2301   -4.9073    1.1236 H   0  0  0  0  0  0  0  0  0  0  0  0
    3.1950   -5.0686    2.6301 H   0  0  0  0  0  0  0  0  0  0  0  0
 22 24  2  0  0  0  0
 24 26  1  0  0  0  0
 23 25  2  0  0  0  0
 25 26  1  0  0  0  0
 21 22  1  0  0  0  0
 22 23  1  0  0  0  0
  1  3  1  0  0  0  0
  1  7  1  0  0  0  0
  1  2  2  0  0  0  0
 35 36  1  0  0  0  0
 36 44  1  0  0  0  0
 36 37  2  0  0  0  0
  8  9  1  0  0  0  0
  9 17  1  0  0  0  0
  9 10  2  0  0  0  0
 18 19  1  0  0  0  0
 19 34  1  0  0  0  0
 19 20  2  0  0  0  0
 35 38  1  0  0  0  0
  8 11  1  0  0  0  0
 44 45  1  0  0  0  0
 18 21  1  0  0  0  0
 34 35  1  0  0  0  0
  7  8  1  0  0  0  0
 17 18  1  0  0  0  0
 24 31  1  0  0  0  0
 25 32  1  0  0  0  0
  3  4  1  0  0  0  0
  3  5  1  0  0  0  0
  3  6  1  0  0  0  0
 38 41  1  0  0  0  0
 38 42  1  0  0  0  0
 38 43  1  0  0  0  0
 11 14  1  0  0  0  0
 11 15  1  0  0  0  0
 11 16  1  0  0  0  0
 45 47  1  0  0  0  0
 45 48  1  0  0  0  0
 45 49  1  0  0  0  0
 21 29  1  0  0  0  0
 21 30  1  0  0  0  0
 35 40  1  0  0  0  0
  8 13  1  0  0  0  0
 18 28  1  0  0  0  0
 26 33  1  0  0  0  0
 44 46  1  0  0  0  0
  7 12  1  0  0  0  0
 34 39  1  0  0  0  0
 17 27  1  0  0  0  0
M  END
$$$$

  -OEChem-05262214473D

 49 49  0     1  0  0  0  0  0999 V2000
   -1.6183    0.5613    3.8201 C   0  0  0  0  0  0  0  0  0  0  0  0
   -0.6710   -0.0534    3.3444 O   0  0  0  0  0  0  0  0  0  0  0  0
   -2.0502    0.2789    5.2208 C   0  0  0  0  0  0  0  0  0  0  0  0
   -2.8099   -0.5175    5.2742 H   0  0  0  0  0  0  0  0  0  0  0  0
   -1.2190   -0.0687    5.8551 H   0  0  0  0  0  0  0  0  0  0  0  0
   -2.4882    1.1338    5.7604 H   0  0  0  0  0  0  0  0  0  0  0  0
   -2.3680    1.5337    3.1790 N   0  0  0  0  0  0  0  0  0  0  0  0
   -2.1212    1.9597    1.8266 C   0  0  2  0  0  0  0  0  0  0  0  0
   -0.7862    1.3744    1.3854 C   0  0  0  0  0  0  0  0  0  0  0  0
    0.0859    1.0216    2.1767 O   0  0  0  0  0  0  0  0  0  0  0  0
   -2.1124    3.4765    1.7171 C   0  0  0  0  0  0  0  0  0  0  0  0
   -3.1331    1.9695    3.6908 H   0  0  0  0  0  0  0  0  0  0  0  0
   -2.9253    1.5413    1.2115 H   0  0  0  0  0  0  0  0  0  0  0  0
   -1.3133    3.9138    2.3268 H   0  0  0  0  0  0  0  0  0  0  0  0
   -1.9529    3.7988    0.6829 H   0  0  0  0  0  0  0  0  0  0  0  0
   -3.0626    3.8977    2.0629 H   0  0  0  0  0  0  0  0  0  0  0  0
   -0.6635    1.3313    0.0020 N   0  0  0  0  0  0  0  0  0  0  0  0
    0.5138    0.8305   -0.6617 C   0  0  2  0  0  0  0  0  0  0  0  0
    1.1258   -0.2309    0.2456 C   0  0  0  0  0  0  0  0  0  0  0  0
    2.2828   -0.6279    0.1249 O   0  0  0  0  0  0  0  0  0  0  0  0
    1.5330    1.9393   -0.9476 C   0  0  0  0  0  0  0  0  0  0  0  0
    1.0108    2.9781   -1.9097 C   0  0  0  0  0  0  0  0  0  0  0  0
    0.9160    2.7029   -3.2510 N   0  0  0  0  0  0  0  0  0  0  0  0
    0.5831    4.2553   -1.6335 C   0  0  0  0  0  0  0  0  0  0  0  0
    0.4343    3.8032   -3.7852 C   0  0  0  0  0  0  0  0  0  0  0  0
    0.2174    4.7715   -2.8447 N   0  0  0  0  0  0  0  0  0  0  0  0
   -1.4467    1.6280   -0.5753 H   0  0  0  0  0  0  0  0  0  0  0  0
    0.1717    0.3560   -1.5890 H   0  0  0  0  0  0  0  0  0  0  0  0
    2.4644    1.5081   -1.3392 H   0  0  0  0  0  0  0  0  0  0  0  0
    1.8197    2.4461   -0.0167 H   0  0  0  0  0  0  0  0  0  0  0  0
    0.5073    4.8271   -0.7197 H   0  0  0  0  0  0  0  0  0  0  0  0
    0.2222    3.9623   -4.8331 H   0  0  0  0  0  0  0  0  0  0  0  0
   -0.1477    5.6991   -3.0144 H   0  0  0  0  0  0  0  0  0  0  0  0
    0.2420   -0.6425    1.2335 N   0  0  0  0  0  0  0  0  0  0  0  0
    0.5777   -1.6238    2.2399 C   0  0  2  0  0  0  0  0  0  0  0  0
    1.1700   -2.8369    1.5349 C   0  0  0  0  0  0  0  0  0  0  0  0
    0.9591   -3.0942    0.3515 O   0  0  0  0  0  0  0  0  0  0  0  0
   -0.6416   -2.0139    3.0609 C   0  0  0  0  0  0  0  0  0  0  0  0
   -0.6876   -0.2333    1.2499 H   0  0  0  0  0  0  0  0  0  0  0  0
    1.3373   -1.1685    2.8847 H   0  0  0  0  0  0  0  0  0  0  0  0
   -1.4136   -2.4719    2.4318 H   0  0  0  0  0  0  0  0  0  0  0  0
   -0.3799   -2.7360    3.8414 H   0  0  0  0  0  0  0  0  0  0  0  0
   -1.0838   -1.1355    3.5433 H   0  0  0  0  0  0  0  0  0  0  0  0
    1.9267   -3.6218    2.3936 N   0  0  0  0  0  0  0  0  0  0  0  0
    2.5831   -4.8352    1.9662 C   0  0  0  0  0  0  0  0  0  0  0  0
    2.0636   -3.3221    3.3544 H   0  0  0  0  0  0  0  0  0  0  0  0
    1.9207   -5.6945    2.1475 H   0  0  0  0  0  0  0  0  0  0  0  0
    2.8123   -4.7692    0.8923 H   0  0  0  0  0  0  0  0  0  0  0  0
    3.5167   -4.9661    2.5329 H   0  0  0  0  0  0  0  0  0  0  0  0
 22 24  2  0  0  0  0
 24 26  1  0  0  0  0
 23 25  2  0  0  0  0
 25 26  1  0  0  0  0
 21 22  1  0  0  0  0
 22 23  1  0  0  0  0
  1  3  1  0  0  0  0
  1  7  1  0  0  0  0
  1  2  2  0  0  0  0
 35 36  1  0  0  0  0
 36 44  1  0  0  0  0
 36 37  2  0  0  0  0
  8  9  1  0  0  0  0
  9 17  1  0  0  0  0
  9 10  2  0  0  0  0
 18 19  1  0  0  0  0
 19 34  1  0  0  0  0
 19 20  2  0  0  0  0
 35 38  1  0  0  0  0
  8 11  1  0  0  0  0
 44 45  1  0  0  0  0
 18 21  1  0  0  0  0
 34 35  1  0  0  0  0
  7  8  1  0  0  0  0
 17 18  1  0  0  0  0
 24 31  1  0  0  0  0
 25 32  1  0  0  0  0
  3  4  1  0  0  0  0
  3  5  1  0  0  0  0
  3  6  1  0  0  0  0
 38 41  1  0  0  0  0
 38 42  1  0  0  0  0
 38 43  1  0  0  0  0
 11 14  1  0  0  0  0
 11 15  1  0  0  0  0
 11 16  1  0  0  0  0
 45 47  1  0  0  0  0
 45 48  1  0  0  0  0
 45 49  1  0  0  0  0
 21 29  1  0  0  0  0
 21 30  1  0  0  0  0
 35 40  1  0  0  0  0
  8 13  1  0  0  0  0
 18 28  1  0  0  0  0
 26 33  1  0  0  0  0
 44 46  1  0  0  0  0
  7 12  1  0  0  0  0
 34 39  1  0  0  0  0
 17 27  1  0  0  0  0
M  END
$$$$

  -OEChem-05262214473D

 49 49  0     1  0  0  0  0  0999 V2000
   -1.6183    0.5613    3.8201 C   0  0  0  0  0  0  0  0  0  0  0  0
   -0.6710   -0.0534    3.3444 O   0  0  0  0  0  0  0  0  0  0  0  0
   -2.0502    0.2789    5.2208 C   0  0  0  0  0  0  0  0  0  0  0  0
   -2.8099   -0.5175    5.2742 H   0  0  0  0  0  0  0  0  0  0  0  0
   -1.2190   -0.0687    5.8551 H   0  0  0  0  0  0  0  0  0  0  0  0
   -2.4882    1.1338    5.7604 H   0  0  0  0  0  0  0  0  0  0  0  0
   -2.3680    1.5337    3.1790 N   0  0  0  0  0  0  0  0  0  0  0  0
   -2.1212    1.9597    1.8266 C   0  0  2  0  0  0  0  0  0  0  0  0
   -0.7862    1.3744    1.3854 C   0  0  0  0  0  0  0  0  0  0  0  0
    0.0859    1.0216    2.1767 O   0  0  0  0  0  0  0  0  0  0  0  0
   -2.1124    3.4765    1.7171 C   0  0  0  0  0  0  0  0  0  0  0  0
   -3.1331    1.9695    3.6908 H   0  0  0  0  0  0  0  0  0  0  0  0
   -2.9253    1.5413    1.2115 H   0  0  0  0  0  0  0  0  0  0  0  0
   -1.3133    3.9138    2.3268 H   0  0  0  0  0  0  0  0  0  0  0  0
   -1.9529    3.7988    0.6829 H   0  0  0  0  0  0  0  0  0  0  0  0
   -3.0626    3.8977    2.0629 H   0  0  0  0  0  0  0  0  0  0  0  0
   -0.6635    1.3313    0.0020 N   0  0  0  0  0  0  0  0  0  0  0  0
    0.5138    0.8305   -0.6617 C   0  0  2  0  0  0  0  0  0  0  0  0
    1.1258   -0.2309    0.2456 C   0  0  0  0  0  0  0  0  0  0  0  0
    2.3354   -0.4395    0.3098 O   0  0  0  0  0  0  0  0  0  0  0  0
    1.5330    1.9393   -0.9476 C   0  0  0  0  0  0  0  0  0  0  0  0
    1.0108    2.9781   -1.9097 C   0  0  0  0  0  0  0  0  0  0  0  0
    0.9160    2.7029   -3.2510 N   0  0  0  0  0  0  0  0  0  0  0  0
    0.5831    4.2553   -1.6335 C   0  0  0  0  0  0  0  0  0  0  0  0
    0.4343    3.8032   -3.7852 C   0  0  0  0  0  0  0  0  0  0  0  0
    0.2174    4.7715   -2.8447 N   0  0  0  0  0  0  0  0  0  0  0  0
   -1.4467    1.6280   -0.5753 H   0  0  0  0  0  0  0  0  0  0  0  0
    0.1717    0.3560   -1.5890 H   0  0  0  0  0  0  0  0  0  0  0  0
    2.4644    1.5081   -1.3392 H   0  0  0  0  0  0  0  0  0  0  0  0
    1.8197    2.4461   -0.0167 H   0  0  0  0  0  0  0  0  0  0  0  0
    0.5073    4.8271   -0.7197 H   0  0  0  0  0  0  0  0  0  0  0  0
    0.2222    3.9623   -4.8331 H   0  0  0  0  0  0  0  0  0  0  0  0
   -0.1477    5.6991   -3.0144 H   0  0  0  0  0  0  0  0  0  0  0  0
    0.1646   -0.8795    1.0083 N   0  0  0  0  0  0  0  0  0  0  0  0
    0.4780   -1.9140    1.9677 C   0  0  2  0  0  0  0  0  0  0  0  0
    1.3731   -2.9369    1.2808 C   0  0  0  0  0  0  0  0  0  0  0  0
    1.4139   -3.0805    0.0607 O   0  0  0  0  0  0  0  0  0  0  0  0
   -0.7838   -2.5702    2.5060 C   0  0  0  0  0  0  0  0  0  0  0  0
   -0.8082   -0.6138    0.8861 H   0  0  0  0  0  0  0  0  0  0  0  0
    1.0305   -1.4329    2.7823 H   0  0  0  0  0  0  0  0  0  0  0  0
   -1.3507   -3.0575    1.7043 H   0  0  0  0  0  0  0  0  0  0  0  0
   -0.5459   -3.3339    3.2537 H   0  0  0  0  0  0  0  0  0  0  0  0
   -1.4401   -1.8281    2.9734 H   0  0  0  0  0  0  0  0  0  0  0  0
    2.0888   -3.7001    2.1927 N   0  0  0  0  0  0  0  0  0  0  0  0
    2.9984   -4.7469    1.7894 C   0  0  0  0  0  0  0  0  0  0  0  0
    2.0075   -3.4992    3.1851 H   0  0  0  0  0  0  0  0  0  0  0  0
    2.4643   -5.7082    1.7648 H   0  0  0  0  0  0  0  0  0  0  0  0
    3.3950   -4.5222    0.7882 H   0  0  0  0  0  0  0  0  0  0  0  0
    3.8293   -4.8074    2.5077 H   0  0  0  0  0  0  0  0  0  0  0  0
 22 24  2  0  0  0  0
 24 26  1  0  0  0  0
 23 25  2  0  0  0  0
 25 26  1  0  0  0  0
 21 22  1  0  0  0  0
 22 23  1  0  0  0  0
  1  3  1  0  0  0  0
  1  7  1  0  0  0  0
  1  2  2  0  0  0  0
 35 36  1  0  0  0  0
 36 44  1  0  0  0  0
 36 37  2  0  0  0  0
  8  9  1  0  0  0  0
  9 17  1  0  0  0  0
  9 10  2  0  0  0  0
 18 19  1  0  0  0  0
 19 34  1  0  0  0  0
 19 20  2  0  0  0  0
 35 38  1  0  0  0  0
  8 11  1  0  0  0  0
 44 45  1  0  0  0  0
 18 21  1  0  0  0  0
 34 35  1  0  0  0  0
  7  8  1  0  0  0  0
 17 18  1  0  0  0  0
 24 31  1  0  0  0  0
 25 32  1  0  0  0  0
  3  4  1  0  0  0  0
  3  5  1  0  0  0  0
  3  6  1  0  0  0  0
 38 41  1  0  0  0  0
 38 42  1  0  0  0  0
 38 43  1  0  0  0  0
 11 14  1  0  0  0  0
 11 15  1  0  0  0  0
 11 16  1  0  0  0  0
 45 47  1  0  0  0  0
 45 48  1  0  0  0  0
 45 49  1  0  0  0  0
 21 29  1  0  0  0  0
 21 30  1  0  0  0  0
 35 40  1  0  0  0  0
  8 13  1  0  0  0  0
 18 28  1  0  0  0  0
 26 33  1  0  0  0  0
 44 46  1  0  0  0  0
  7 12  1  0  0  0  0
 34 39  1  0  0  0  0
 17 27  1  0  0  0  0
M  END
$$$$

  -OEChem-05262214473D

 49 49  0     1  0  0  0  0  0999 V2000
   -1.6183    0.5613    3.8201 C   0  0  0  0  0  0  0  0  0  0  0  0
   -0.6710   -0.0534    3.3444 O   0  0  0  0  0  0  0  0  0  0  0  0
   -2.0502    0.2789    5.2208 C   0  0  0  0  0  0  0  0  0  0  0  0
   -2.8099   -0.5175    5.2742 H   0  0  0  0  0  0  0  0  0  0  0  0
   -1.2190   -0.0687    5.8551 H   0  0  0  0  0  0  0  0  0  0  0  0
   -2.4882    1.1338    5.7604 H   0  0  0  0  0  0  0  0  0  0  0  0
   -2.3680    1.5337    3.1790 N   0  0  0  0  0  0  0  0  0  0  0  0
   -2.1212    1.9597    1.8266 C   0  0  2  0  0  0  0  0  0  0  0  0
   -0.7862    1.3744    1.3854 C   0  0  0  0  0  0  0  0  0  0  0  0
    0.0859    1.0216    2.1767 O   0  0  0  0  0  0  0  0  0  0  0  0
   -2.1124    3.4765    1.7171 C   0  0  0  0  0  0  0  0  0  0  0  0
   -3.1331    1.9695    3.6908 H   0  0  0  0  0  0  0  0  0  0  0  0
   -2.9253    1.5413    1.2115 H   0  0  0  0  0  0  0  0  0  0  0  0
   -1.3133    3.9138    2.3268 H   0  0  0  0  0  0  0  0  0  0  0  0
   -1.9529    3.7988    0.6829 H   0  0  0  0  0  0  0  0  0  0  0  0
   -3.0626    3.8977    2.0629 H   0  0  0  0  0  0  0  0  0  0  0  0
   -0.6635    1.3313    0.0020 N   0  0  0  0  0  0  0  0  0  0  0  0
    0.5138    0.8305   -0.6617 C   0  0  2  0  0  0  0  0  0  0  0  0
    1.1258   -0.2309    0.2456 C   0  0  0  0  0  0  0  0  0  0  0  0
    2.3239   -0.2687    0.5175 O   0  0  0  0  0  0  0  0  0  0  0  0
    1.5330    1.9393   -0.9476 C   0  0  0  0  0  0  0  0  0  0  0  0
    1.0108    2.9781   -1.9097 C   0  0  0  0  0  0  0  0  0  0  0  0
    0.9160    2.7029   -3.2510 N   0  0  0  0  0  0  0  0  0  0  0  0
    0.5831    4.2553   -1.6335 C   0  0  0  0  0  0  0  0  0  0  0  0
    0.4343    3.8032   -3.7852 C   0  0  0  0  0  0  0  0  0  0  0  0
    0.2174    4.7715   -2.8447 N   0  0  0  0  0  0  0  0  0  0  0  0
   -1.4467    1.6280   -0.5753 H   0  0  0  0  0  0  0  0  0  0  0  0
    0.1717    0.3560   -1.5890 H   0  0  0  0  0  0  0  0  0  0  0  0
    2.4644    1.5081   -1.3392 H   0  0  0  0  0  0  0  0  0  0  0  0
    1.8197    2.4461   -0.0167 H   0  0  0  0  0  0  0  0  0  0  0  0
    0.5073    4.8271   -0.7197 H   0  0  0  0  0  0  0  0  0  0  0  0
    0.2222    3.9623   -4.8331 H   0  0  0  0  0  0  0  0  0  0  0  0
   -0.1477    5.6991   -3.0144 H   0  0  0  0  0  0  0  0  0  0  0  0
    0.1669   -1.0971    0.7523 N   0  0  0  0  0  0  0  0  0  0  0  0
    0.4755   -2.1813    1.6567 C   0  0  2  0  0  0  0  0  0  0  0  0
    1.6304   -2.9759    1.0616 C   0  0  0  0  0  0  0  0  0  0  0  0
    1.9035   -2.9671   -0.1369 O   0  0  0  0  0  0  0  0  0  0  0  0
   -0.7356   -3.0719    1.8865 C   0  0  0  0  0  0  0  0  0  0  0  0
   -0.8005   -0.9622    0.4733 H   0  0  0  0  0  0  0  0  0  0  0  0
    0.7934   -1.7250    2.6006 H   0  0  0  0  0  0  0  0  0  0  0  0
   -1.0686   -3.5378    0.9520 H   0  0  0  0  0  0  0  0  0  0  0  0
   -0.5082   -3.8760    2.5941 H   0  0  0  0  0  0  0  0  0  0  0  0
   -1.5749   -2.4928    2.2867 H   0  0  0  0  0  0  0  0  0  0  0  0
    2.2936   -3.7298    2.0198 N   0  0  0  0  0  0  0  0  0  0  0  0
    3.4178   -4.5792    1.7026 C   0  0  0  0  0  0  0  0  0  0  0  0
    2.0110   -3.6614    2.9930 H   0  0  0  0  0  0  0  0  0  0  0  0
    3.0604   -5.5979    1.4916 H   0  0  0  0  0  0  0  0  0  0  0  0
    3.9386   -4.1830    0.8183 H   0  0  0  0  0  0  0  0  0  0  0  0
    4.1112   -4.6034    2.5562 H   0  0  0  0  0  0  0  0  0  0  0  0
 22 24  2  0  0  0  0
 24 26  1  0  0  0  0
 23 25  2  0  0  0  0
 25 26  1  0  0  0  0
 21 22  1  0  0  0  0
 22 23  1  0  0  0  0
  1  3  1  0  0  0  0
  1  7  1  0  0  0  0
  1  2  2  0  0  0  0
 35 36  1  0  0  0  0
 36 44  1  0  0  0  0
 36 37  2  0  0  0  0
  8  9  1  0  0  0  0
  9 17  1  0  0  0  0
  9 10  2  0  0  0  0
 18 19  1  0  0  0  0
 19 34  1  0  0  0  0
 19 20  2  0  0  0  0
 35 38  1  0  0  0  0
  8 11  1  0  0  0  0
 44 45  1  0  0  0  0
 18 21  1  0  0  0  0
 34 35  1  0  0  0  0
  7  8  1  0  0  0  0
 17 18  1  0  0  0  0
 24 31  1  0  0  0  0
 25 32  1  0  0  0  0
  3  4  1  0  0  0  0
  3  5  1  0  0  0  0
  3  6  1  0  0  0  0
 38 41  1  0  0  0  0
 38 42  1  0  0  0  0
 38 43  1  0  0  0  0
 11 14  1  0  0  0  0
 11 15  1  0  0  0  0
 11 16  1  0  0  0  0
 45 47  1  0  0  0  0
 45 48  1  0  0  0  0
 45 49  1  0  0  0  0
 21 29  1  0  0  0  0
 21 30  1  0  0  0  0
 35 40  1  0  0  0  0
  8 13  1  0  0  0  0
 18 28  1  0  0  0  0
 26 33  1  0  0  0  0
 44 46  1  0  0  0  0
  7 12  1  0  0  0  0
 34 39  1  0  0  0  0
 17 27  1  0  0  0  0
M  END
$$$$

  -OEChem-05262214473D

 49 49  0     1  0  0  0  0  0999 V2000
   -1.6183    0.5613    3.8201 C   0  0  0  0  0  0  0  0  0  0  0  0
   -0.6710   -0.0534    3.3444 O   0  0  0  0  0  0  0  0  0  0  0  0
   -2.0502    0.2789    5.2208 C   0  0  0  0  0  0  0  0  0  0  0  0
   -2.8099   -0.5175    5.2742 H   0  0  0  0  0  0  0  0  0  0  0  0
   -1.2190   -0.0687    5.8551 H   0  0  0  0  0  0  0  0  0  0  0  0
   -2.4882    1.1338    5.7604 H   0  0  0  0  0  0  0  0  0  0  0  0
   -2.3680    1.5337    3.1790 N   0  0  0  0  0  0  0  0  0  0  0  0
   -2.1212    1.9597    1.8266 C   0  0  2  0  0  0  0  0  0  0  0  0
   -0.7862    1.3744    1.3854 C   0  0  0  0  0  0  0  0  0  0  0  0
    0.0859    1.0216    2.1767 O   0  0  0  0  0  0  0  0  0  0  0  0
   -2.1124    3.4765    1.7171 C   0  0  0  0  0  0  0  0  0  0  0  0
   -3.1331    1.9695    3.6908 H   0  0  0  0  0  0  0  0  0  0  0  0
   -2.9253    1.5413    1.2115 H   0  0  0  0  0  0  0  0  0  0  0  0
   -1.3133    3.9138    2.3268 H   0  0  0  0  0  0  0  0  0  0  0  0
   -1.9529    3.7988    0.6829 H   0  0  0  0  0  0  0  0  0  0  0  0
   -3.0626    3.8977    2.0629 H   0  0  0  0  0  0  0  0  0  0  0  0
   -0.6635    1.3313    0.0020 N   0  0  0  0  0  0  0  0  0  0  0  0
    0.5138    0.8305   -0.6617 C   0  0  2  0  0  0  0  0  0  0  0  0
    1.1258   -0.2309    0.2456 C   0  0  0  0  0  0  0  0  0  0  0  0
    2.2491   -0.1270    0.7338 O   0  0  0  0  0  0  0  0  0  0  0  0
    1.5330    1.9393   -0.9476 C   0  0  0  0  0  0  0  0  0  0  0  0
    1.0108    2.9781   -1.9097 C   0  0  0  0  0  0  0  0  0  0  0  0
    0.9160    2.7029   -3.2510 N   0  0  0  0  0  0  0  0  0  0  0  0
    0.5831    4.2553   -1.6335 C   0  0  0  0  0  0  0  0  0  0  0  0
    0.4343    3.8032   -3.7852 C   0  0  0  0  0  0  0  0  0  0  0  0
    0.2174    4.7715   -2.8447 N   0  0  0  0  0  0  0  0  0  0  0  0
   -1.4467    1.6280   -0.5753 H   0  0  0  0  0  0  0  0  0  0  0  0
    0.1717    0.3560   -1.5890 H   0  0  0  0  0  0  0  0  0  0  0  0
    2.4644    1.5081   -1.3392 H   0  0  0  0  0  0  0  0  0  0  0  0
    1.8197    2.4461   -0.0167 H   0  0  0  0  0  0  0  0  0  0  0  0
    0.5073    4.8271   -0.7197 H   0  0  0  0  0  0  0  0  0  0  0  0
    0.2222    3.9623   -4.8331 H   0  0  0  0  0  0  0  0  0  0  0  0
   -0.1477    5.6991   -3.0144 H   0  0  0  0  0  0  0  0  0  0  0  0
    0.2488   -1.2802    0.4827 N   0  0  0  0  0  0  0  0  0  0  0  0
    0.5702   -2.4075    1.3281 C   0  0  2  0  0  0  0  0  0  0  0  0
    1.9245   -2.9511    0.8923 C   0  0  0  0  0  0  0  0  0  0  0  0
    2.3946   -2.7615   -0.2277 O   0  0  0  0  0  0  0  0  0  0  0  0
   -0.5001   -3.4846    1.2448 C   0  0  0  0  0  0  0  0  0  0  0  0
   -0.6650   -1.2545    0.0399 H   0  0  0  0  0  0  0  0  0  0  0  0
    0.6420   -2.0247    2.3520 H   0  0  0  0  0  0  0  0  0  0  0  0
   -0.5866   -3.8802    0.2262 H   0  0  0  0  0  0  0  0  0  0  0  0
   -0.2694   -4.3253    1.9074 H   0  0  0  0  0  0  0  0  0  0  0  0
   -1.4790   -3.0842    1.5300 H   0  0  0  0  0  0  0  0  0  0  0  0
    2.5272   -3.7090    1.8865 N   0  0  0  0  0  0  0  0  0  0  0  0
    3.8128   -4.3436    1.7118 C   0  0  0  0  0  0  0  0  0  0  0  0
    2.0740   -3.7975    2.7912 H   0  0  0  0  0  0  0  0  0  0  0  0
    3.6685   -5.3712    1.3467 H   0  0  0  0  0  0  0  0  0  0  0  0
    4.4060   -3.7748    0.9806 H   0  0  0  0  0  0  0  0  0  0  0  0
    4.3434   -4.3680    2.6750 H   0  0  0  0  0  0  0  0  0  0  0  0
 22 24  2  0  0  0  0
 24 26  1  0  0  0  0
 23 25  2  0  0  0  0
 25 26  1  0  0  0  0
 21 22  1  0  0  0  0
 22 23  1  0  0  0  0
  1  3  1  0  0  0  0
  1  7  1  0  0  0  0
  1  2  2  0  0  0  0
 35 36  1  0  0  0  0
 36 44  1  0  0  0  0
 36 37  2  0  0  0  0
  8  9  1  0  0  0  0
  9 17  1  0  0  0  0
  9 10  2  0  0  0  0
 18 19  1  0  0  0  0
 19 34  1  0  0  0  0
 19 20  2  0  0  0  0
 35 38  1  0  0  0  0
  8 11  1  0  0  0  0
 44 45  1  0  0  0  0
 18 21  1  0  0  0  0
 34 35  1  0  0  0  0
  7  8  1  0  0  0  0
 17 18  1  0  0  0  0
 24 31  1  0  0  0  0
 25 32  1  0  0  0  0
  3  4  1  0  0  0  0
  3  5  1  0  0  0  0
  3  6  1  0  0  0  0
 38 41  1  0  0  0  0
 38 42  1  0  0  0  0
 38 43  1  0  0  0  0
 11 14  1  0  0  0  0
 11 15  1  0  0  0  0
 11 16  1  0  0  0  0
 45 47  1  0  0  0  0
 45 48  1  0  0  0  0
 45 49  1  0  0  0  0
 21 29  1  0  0  0  0
 21 30  1  0  0  0  0
 35 40  1  0  0  0  0
  8 13  1  0  0  0  0
 18 28  1  0  0  0  0
 26 33  1  0  0  0  0
 44 46  1  0  0  0  0
  7 12  1  0  0  0  0
 34 39  1  0  0  0  0
 17 27  1  0  0  0  0
M  END
$$$$

  -OEChem-05262214473D

 49 49  0     1  0  0  0  0  0999 V2000
   -1.6183    0.5613    3.8201 C   0  0  0  0  0  0  0  0  0  0  0  0
   -0.6710   -0.0534    3.3444 O   0  0  0  0  0  0  0  0  0  0  0  0
   -2.0502    0.2789    5.2208 C   0  0  0  0  0  0  0  0  0  0  0  0
   -2.8099   -0.5175    5.2742 H   0  0  0  0  0  0  0  0  0  0  0  0
   -1.2190   -0.0687    5.8551 H   0  0  0  0  0  0  0  0  0  0  0  0
   -2.4882    1.1338    5.7604 H   0  0  0  0  0  0  0  0  0  0  0  0
   -2.3680    1.5337    3.1790 N   0  0  0  0  0  0  0  0  0  0  0  0
   -2.1212    1.9597    1.8266 C   0  0  2  0  0  0  0  0  0  0  0  0
   -0.7862    1.3744    1.3854 C   0  0  0  0  0  0  0  0  0  0  0  0
    0.0859    1.0216    2.1767 O   0  0  0  0  0  0  0  0  0  0  0  0
   -2.1124    3.4765    1.7171 C   0  0  0  0  0  0  0  0  0  0  0  0
   -3.1331    1.9695    3.6908 H   0  0  0  0  0  0  0  0  0  0  0  0
   -2.9253    1.5413    1.2115 H   0  0  0  0  0  0  0  0  0  0  0  0
   -1.3133    3.9138    2.3268 H   0  0  0  0  0  0  0  0  0  0  0  0
   -1.9529    3.7988    0.6829 H   0  0  0  0  0  0  0  0  0  0  0  0
   -3.0626    3.8977    2.0629 H   0  0  0  0  0  0  0  0  0  0  0  0
   -0.6635    1.3313    0.0020 N   0  0  0  0  0  0  0  0  0  0  0  0
    0.5138    0.8305   -0.6617 C   0  0  2  0  0  0  0  0  0  0  0  0
    1.1258   -0.2309    0.2456 C   0  0  0  0  0  0  0  0  0  0  0  0
    2.1160   -0.0241    0.9439 O   0  0  0  0  0  0  0  0  0  0  0  0
    1.5330    1.9393   -0.9476 C   0  0  0  0  0  0  0  0  0  0  0  0
    1.0108    2.9781   -1.9097 C   0  0  0  0  0  0  0  0  0  0  0  0
    0.9160    2.7029   -3.2510 N   0  0  0  0  0  0  0  0  0  0  0  0
    0.5831    4.2553   -1.6335 C   0  0  0  0  0  0  0  0  0  0  0  0
    0.4343    3.8032   -3.7852 C   0  0  0  0  0  0  0  0  0  0  0  0
    0.2174    4.7715   -2.8447 N   0  0  0  0  0  0  0  0  0  0  0  0
   -1.4467    1.6280   -0.5753 H   0  0  0  0  0  0  0  0  0  0  0  0
    0.1717    0.3560   -1.5890 H   0  0  0  0  0  0  0  0  0  0  0  0
    2.4644    1.5081   -1.3392 H   0  0  0  0  0  0  0  0  0  0  0  0
    1.8197    2.4461   -0.0167 H   0  0  0  0  0  0  0  0  0  0  0  0
    0.5073    4.8271   -0.7197 H   0  0  0  0  0  0  0  0  0  0  0  0
    0.2222    3.9623   -4.8331 H   0  0  0  0  0  0  0  0  0  0  0  0
   -0.1477    5.6991   -3.0144 H   0  0  0  0  0  0  0  0  0  0  0  0
    0.4046   -1.4165    0.2181 N   0  0  0  0  0  0  0  0  0  0  0  0
    0.7558   -2.5773    1.0042 C   0  0  2  0  0  0  0  0  0  0  0  0
    2.2353   -2.8642    0.7842 C   0  0  0  0  0  0  0  0  0  0  0  0
    2.8536   -2.4779   -0.2055 O   0  0  0  0  0  0  0  0  0  0  0  0
   -0.0934   -3.7803    0.6244 C   0  0  0  0  0  0  0  0  0  0  0  0
   -0.4110   -1.4710   -0.3847 H   0  0  0  0  0  0  0  0  0  0  0  0
    0.5868   -2.3118    2.0534 H   0  0  0  0  0  0  0  0  0  0  0  0
    0.0625   -4.0613   -0.4235 H   0  0  0  0  0  0  0  0  0  0  0  0
    0.1541   -4.6512    1.2404 H   0  0  0  0  0  0  0  0  0  0  0  0
   -1.1589   -3.5621    0.7550 H   0  0  0  0  0  0  0  0  0  0  0  0
    2.7736   -3.6391    1.8020 N   0  0  0  0  0  0  0  0  0  0  0  0
    4.1563   -4.0562    1.8163 C   0  0  0  0  0  0  0  0  0  0  0  0
    2.1922   -3.8983    2.5936 H   0  0  0  0  0  0  0  0  0  0  0  0
    4.2470   -5.0435    1.3398 H   0  0  0  0  0  0  0  0  0  0  0  0
    4.7653   -3.3254    1.2640 H   0  0  0  0  0  0  0  0  0  0  0  0
    4.5101   -4.1171    2.8560 H   0  0  0  0  0  0  0  0  0  0  0  0
 22 24  2  0  0  0  0
 24 26  1  0  0  0  0
 23 25  2  0  0  0  0
 25 26  1  0  0  0  0
 21 22  1  0  0  0  0
 22 23  1  0  0  0  0
  1  3  1  0  0  0  0
  1  7  1  0  0  0  0
  1  2  2  0  0  0  0
 35 36  1  0  0  0  0
 36 44  1  0  0  0  0
 36 37  2  0  0  0  0
  8  9  1  0  0  0  0
  9 17  1  0  0  0  0
  9 10  2  0  0  0  0
 18 19  1  0  0  0  0
 19 34  1  0  0  0  0
 19 20  2  0  0  0  0
 35 38  1  0  0  0  0
  8 11  1  0  0  0  0
 44 45  1  0  0  0  0
 18 21  1  0  0  0  0
 34 35  1  0  0  0  0
  7  8  1  0  0  0  0
 17 18  1  0  0  0  0
 24 31  1  0  0  0  0
 25 32  1  0  0  0  0
  3  4  1  0  0  0  0
  3  5  1  0  0  0  0
  3  6  1  0  0  0  0
 38 41  1  0  0  0  0
 38 42  1  0  0  0  0
 38 43  1  0  0  0  0
 11 14  1  0  0  0  0
 11 15  1  0  0  0  0
 11 16  1  0  0  0  0
 45 47  1  0  0  0  0
 45 48  1  0  0  0  0
 45 49  1  0  0  0  0
 21 29  1  0  0  0  0
 21 30  1  0  0  0  0
 35 40  1  0  0  0  0
  8 13  1  0  0  0  0
 18 28  1  0  0  0  0
 26 33  1  0  0  0  0
 44 46  1  0  0  0  0
  7 12  1  0  0  0  0
 34 39  1  0  0  0  0
 17 27  1  0  0  0  0
M  END
$$$$

  -OEChem-05262214473D

 49 49  0     1  0  0  0  0  0999 V2000
   -1.6183    0.5613    3.8201 C   0  0  0  0  0  0  0  0  0  0  0  0
   -0.6710   -0.0534    3.3444 O   0  0  0  0  0  0  0  0  0  0  0  0
   -2.0502    0.2789    5.2208 C   0  0  0  0  0  0  0  0  0  0  0  0
   -2.8099   -0.5175    5.2742 H   0  0  0  0  0  0  0  0  0  0  0  0
   -1.2190   -0.0687    5.8551 H   0  0  0  0  0  0  0  0  0  0  0  0
   -2.4882    1.1338    5.7604 H   0  0  0  0  0  0  0  0  0  0  0  0
   -2.3680    1.5337    3.1790 N   0  0  0  0  0  0  0  0  0  0  0  0
   -2.1212    1.9597    1.8266 C   0  0  2  0  0  0  0  0  0  0  0  0
   -0.7862    1.3744    1.3854 C   0  0  0  0  0  0  0  0  0  0  0  0
    0.0859    1.0216    2.1767 O   0  0  0  0  0  0  0  0  0  0  0  0
   -2.1124    3.4765    1.7171 C   0  0  0  0  0  0  0  0  0  0  0  0
   -3.1331    1.9695    3.6908 H   0  0  0  0  0  0  0  0  0  0  0  0
   -2.9253    1.5413    1.2115 H   0  0  0  0  0  0  0  0  0  0  0  0
   -1.3133    3.9138    2.3268 H   0  0  0  0  0  0  0  0  0  0  0  0
   -1.9529    3.7988    0.6829 H   0  0  0  0  0  0  0  0  0  0  0  0
   -3.0626    3.8977    2.0629 H   0  0  0  0  0  0  0  0  0  0  0  0
   -0.6635    1.3313    0.0020 N   0  0  0  0  0  0  0  0  0  0  0  0
    0.5138    0.8305   -0.6617 C   0  0  2  0  0  0  0  0  0  0  0  0
    1.1258   -0.2309    0.2456 C   0  0  0  0  0  0  0  0  0  0  0  0
    1.9337    0.0329    1.1336 O   0  0  0  0  0  0  0  0  0  0  0  0
    1.5330    1.9393   -0.9476 C   0  0  0  0  0  0  0  0  0  0  0  0
    1.0108    2.9781   -1.9097 C   0  0  0  0  0  0  0  0  0  0  0  0
    0.9160    2.7029   -3.2510 N   0  0  0  0  0  0  0  0  0  0  0  0
    0.5831    4.2553   -1.6335 C   0  0  0  0  0  0  0  0  0  0  0  0
    0.4343    3.8032   -3.7852 C   0  0  0  0  0  0  0  0  0  0  0  0
    0.2174    4.7715   -2.8447 N   0  0  0  0  0  0  0  0  0  0  0  0
   -1.4467    1.6280   -0.5753 H   0  0  0  0  0  0  0  0  0  0  0  0
    0.1717    0.3560   -1.5890 H   0  0  0  0  0  0  0  0  0  0  0  0
    2.4644    1.5081   -1.3392 H   0  0  0  0  0  0  0  0  0  0  0  0
    1.8197    2.4461   -0.0167 H   0  0  0  0  0  0  0  0  0  0  0  0
    0.5073    4.8271   -0.7197 H   0  0  0  0  0  0  0  0  0  0  0  0
    0.2222    3.9623   -4.8331 H   0  0  0  0  0  0  0  0  0  0  0  0
   -0.1477    5.6991   -3.0144 H   0  0  0  0  0  0  0  0  0  0  0  0
    0.6239   -1.4967   -0.0235 N   0  0  0  0  0  0  0  0  0  0  0  0
    1.0196   -2.6791    0.7071 C   0  0  2  0  0  0  0  0  0  0  0  0
    2.5416   -2.7213    0.7449 C   0  0  0  0  0  0  0  0  0  0  0  0
    3.2493   -2.1355   -0.0719 O   0  0  0  0  0  0  0  0  0  0  0  0
    0.4567   -3.9389    0.0678 C   0  0  0  0  0  0  0  0  0  0  0  0
   -0.0559   -1.5969   -0.7717 H   0  0  0  0  0  0  0  0  0  0  0  0
    0.6315   -2.5665    1.7253 H   0  0  0  0  0  0  0  0  0  0  0  0
    0.8344   -4.0687   -0.9530 H   0  0  0  0  0  0  0  0  0  0  0  0
    0.7336   -4.8314    0.6386 H   0  0  0  0  0  0  0  0  0  0  0  0
   -0.6364   -3.8938    0.0144 H   0  0  0  0  0  0  0  0  0  0  0  0
    3.0161   -3.5249    1.7721 N   0  0  0  0  0  0  0  0  0  0  0  0
    4.4250   -3.7365    2.0090 C   0  0  0  0  0  0  0  0  0  0  0  0
    2.3575   -3.9569    2.4134 H   0  0  0  0  0  0  0  0  0  0  0  0
    4.7566   -4.6371    1.4714 H   0  0  0  0  0  0  0  0  0  0  0  0
    4.9921   -2.8653    1.6492 H   0  0  0  0  0  0  0  0  0  0  0  0
    4.5998   -3.8680    3.0870 H   0  0  0  0  0  0  0  0  0  0  0  0
 22 24  2  0  0  0  0
 24 26  1  0  0  0  0
 23 25  2  0  0  0  0
 25 26  1  0  0  0  0
 21 22  1  0  0  0  0
 22 23  1  0  0  0  0
  1  3  1  0  0  0  0
  1  7  1  0  0  0  0
  1  2  2  0  0  0  0
 35 36  1  0  0  0  0
 36 44  1  0  0  0  0
 36 37  2  0  0  0  0
  8  9  1  0  0  0  0
  9 17  1  0  0  0  0
  9 10  2  0  0  0  0
 18 19  1  0  0  0  0
 19 34  1  0  0  0  0
 19 20  2  0  0  0  0
 35 38  1  0  0  0  0
  8 11  1  0  0  0  0
 44 45  1  0  0  0  0
 18 21  1  0  0  0  0
 34 35  1  0  0  0  0
  7  8  1  0  0  0  0
 17 18  1  0  0  0  0
 24 31  1  0  0  0  0
 25 32  1  0  0  0  0
  3  4  1  0  0  0  0
  3  5  1  0  0  0  0
  3  6  1  0  0  0  0
 38 41  1  0  0  0  0
 38 42  1  0  0  0  0
 38 43  1  0  0  0  0
 11 14  1  0  0  0  0
 11 15  1  0  0  0  0
 11 16  1  0  0  0  0
 45 47  1  0  0  0  0
 45 48  1  0  0  0  0
 45 49  1  0  0  0  0
 21 29  1  0  0  0  0
 21 30  1  0  0  0  0
 35 40  1  0  0  0  0
  8 13  1  0  0  0  0
 18 28  1  0  0  0  0
 26 33  1  0  0  0  0
 44 46  1  0  0  0  0
  7 12  1  0  0  0  0
 34 39  1  0  0  0  0
 17 27  1  0  0  0  0
M  END
$$$$

  -OEChem-05262214473D

 49 49  0     1  0  0  0  0  0999 V2000
   -1.6183    0.5613    3.8201 C   0  0  0  0  0  0  0  0  0  0  0  0
   -0.6710   -0.0534    3.3444 O   0  0  0  0  0  0  0  0  0  0  0  0
   -2.0502    0.2789    5.2208 C   0  0  0  0  0  0  0  0  0  0  0  0
   -2.8099   -0.5175    5.2742 H   0  0  0  0  0  0  0  0  0  0  0  0
   -1.2190   -0.0687    5.8551 H   0  0  0  0  0  0  0  0  0  0  0  0
   -2.4882    1.1338    5.7604 H   0  0  0  0  0  0  0  0  0  0  0  0
   -2.3680    1.5337    3.1790 N   0  0  0  0  0  0  0  0  0  0  0  0
   -2.1212    1.9597    1.8266 C   0  0  2  0  0  0  0  0  0  0  0  0
   -0.7862    1.3744    1.3854 C   0  0  0  0  0  0  0  0  0  0  0  0
    0.0859    1.0216    2.1767 O   0  0  0  0  0  0  0  0  0  0  0  0
   -2.1124    3.4765    1.7171 C   0  0  0  0  0  0  0  0  0  0  0  0
   -3.1331    1.9695    3.6908 H   0  0  0  0  0  0  0  0  0  0  0  0
   -2.9253    1.5413    1.2115 H   0  0  0  0  0  0  0  0  0  0  0  0
   -1.3133    3.9138    2.3268 H   0  0  0  0  0  0  0  0  0  0  0  0
   -1.9529    3.7988    0.6829 H   0  0  0  0  0  0  0  0  0  0  0  0
   -3.0626    3.8977    2.0629 H   0  0  0  0  0  0  0  0  0  0  0  0
   -0.6635    1.3313    0.0020 N   0  0  0  0  0  0  0  0  0  0  0  0
    0.5138    0.8305   -0.6617 C   0  0  2  0  0  0  0  0  0  0  0  0
    1.1258   -0.2309    0.2456 C   0  0  0  0  0  0  0  0  0  0  0  0
    1.7147    0.0402    1.2899 O   0  0  0  0  0  0  0  0  0  0  0  0
    1.5330    1.9393   -0.9476 C   0  0  0  0  0  0  0  0  0  0  0  0
    1.0108    2.9781   -1.9097 C   0  0  0  0  0  0  0  0  0  0  0  0
    0.9160    2.7029   -3.2510 N   0  0  0  0  0  0  0  0  0  0  0  0
    0.5831    4.2553   -1.6335 C   0  0  0  0  0  0  0  0  0  0  0  0
    0.4343    3.8032   -3.7852 C   0  0  0  0  0  0  0  0  0  0  0  0
    0.2174    4.7715   -2.8447 N   0  0  0  0  0  0  0  0  0  0  0  0
   -1.4467    1.6280   -0.5753 H   0  0  0  0  0  0  0  0  0  0  0  0
    0.1717    0.3560   -1.5890 H   0  0  0  0  0  0  0  0  0  0  0  0
    2.4644    1.5081   -1.3392 H   0  0  0  0  0  0  0  0  0  0  0  0
    1.8197    2.4461   -0.0167 H   0  0  0  0  0  0  0  0  0  0  0  0
    0.5073    4.8271   -0.7197 H   0  0  0  0  0  0  0  0  0  0  0  0
    0.2222    3.9623   -4.8331 H   0  0  0  0  0  0  0  0  0  0  0  0
   -0.1477    5.6991   -3.0144 H   0  0  0  0  0  0  0  0  0  0  0  0
    0.8915   -1.5152   -0.2258 N   0  0  0  0  0  0  0  0  0  0  0  0
    1.3436   -2.7060    0.4572 C   0  0  2  0  0  0  0  0  0  0  0  0
    2.8225   -2.5319    0.7769 C   0  0  0  0  0  0  0  0  0  0  0  0
    3.5547   -1.7578    0.1639 O   0  0  0  0  0  0  0  0  0  0  0  0
    1.1128   -3.9495   -0.3873 C   0  0  0  0  0  0  0  0  0  0  0  0
    0.3763   -1.6237   -1.0945 H   0  0  0  0  0  0  0  0  0  0  0  0
    0.7730   -2.7715    1.3899 H   0  0  0  0  0  0  0  0  0  0  0  0
    1.6766   -3.9020   -1.3261 H   0  0  0  0  0  0  0  0  0  0  0  0
    1.4296   -4.8536    0.1431 H   0  0  0  0  0  0  0  0  0  0  0  0
    0.0527   -4.0569   -0.6413 H   0  0  0  0  0  0  0  0  0  0  0  0
    3.2381   -3.3741    1.7987 N   0  0  0  0  0  0  0  0  0  0  0  0
    4.6007   -3.4064    2.2768 C   0  0  0  0  0  0  0  0  0  0  0  0
    2.5587   -3.9694    2.2631 H   0  0  0  0  0  0  0  0  0  0  0  0
    5.1625   -4.1798    1.7326 H   0  0  0  0  0  0  0  0  0  0  0  0
    5.0710   -2.4261    2.1099 H   0  0  0  0  0  0  0  0  0  0  0  0
    4.6064   -3.6375    3.3522 H   0  0  0  0  0  0  0  0  0  0  0  0
 22 24  2  0  0  0  0
 24 26  1  0  0  0  0
 23 25  2  0  0  0  0
 25 26  1  0  0  0  0
 21 22  1  0  0  0  0
 22 23  1  0  0  0  0
  1  3  1  0  0  0  0
  1  7  1  0  0  0  0
  1  2  2  0  0  0  0
 35 36  1  0  0  0  0
 36 44  1  0  0  0  0
 36 37  2  0  0  0  0
  8  9  1  0  0  0  0
  9 17  1  0  0  0  0
  9 10  2  0  0  0  0
 18 19  1  0  0  0  0
 19 34  1  0  0  0  0
 19 20  2  0  0  0  0
 35 38  1  0  0  0  0
  8 11  1  0  0  0  0
 44 45  1  0  0  0  0
 18 21  1  0  0  0  0
 34 35  1  0  0  0  0
  7  8  1  0  0  0  0
 17 18  1  0  0  0  0
 24 31  1  0  0  0  0
 25 32  1  0  0  0  0
  3  4  1  0  0  0  0
  3  5  1  0  0  0  0
  3  6  1  0  0  0  0
 38 41  1  0  0  0  0
 38 42  1  0  0  0  0
 38 43  1  0  0  0  0
 11 14  1  0  0  0  0
 11 15  1  0  0  0  0
 11 16  1  0  0  0  0
 45 47  1  0  0  0  0
 45 48  1  0  0  0  0
 45 49  1  0  0  0  0
 21 29  1  0  0  0  0
 21 30  1  0  0  0  0
 35 40  1  0  0  0  0
  8 13  1  0  0  0  0
 18 28  1  0  0  0  0
 26 33  1  0  0  0  0
 44 46  1  0  0  0  0
  7 12  1  0  0  0  0
 34 39  1  0  0  0  0
 17 27  1  0  0  0  0
M  END
$$$$

  -OEChem-05262214473D

 49 49  0     1  0  0  0  0  0999 V2000
   -1.6183    0.5613    3.8201 C   0  0  0  0  0  0  0  0  0  0  0  0
   -0.6710   -0.0534    3.3444 O   0  0  0  0  0  0  0  0  0  0  0  0
   -2.0502    0.2789    5.2208 C   0  0  0  0  0  0  0  0  0  0  0  0
   -2.8099   -0.5175    5.2742 H   0  0  0  0  0  0  0  0  0  0  0  0
   -1.2190   -0.0687    5.8551 H   0  0  0  0  0  0  0  0  0  0  0  0
   -2.4882    1.1338    5.7604 H   0  0  0  0  0  0  0  0  0  0  0  0
   -2.3680    1.5337    3.1790 N   0  0  0  0  0  0  0  0  0  0  0  0
   -2.1212    1.9597    1.8266 C   0  0  2  0  0  0  0  0  0  0  0  0
   -0.7862    1.3744    1.3854 C   0  0  0  0  0  0  0  0  0  0  0  0
    0.0859    1.0216    2.1767 O   0  0  0  0  0  0  0  0  0  0  0  0
   -2.1124    3.4765    1.7171 C   0  0  0  0  0  0  0  0  0  0  0  0
   -3.1331    1.9695    3.6908 H   0  0  0  0  0  0  0  0  0  0  0  0
   -2.9253    1.5413    1.2115 H   0  0  0  0  0  0  0  0  0  0  0  0
   -1.3133    3.9138    2.3268 H   0  0  0  0  0  0  0  0  0  0  0  0
   -1.9529    3.7988    0.6829 H   0  0  0  0  0  0  0  0  0  0  0  0
   -3.0626    3.8977    2.0629 H   0  0  0  0  0  0  0  0  0  0  0  0
   -0.6635    1.3313    0.0020 N   0  0  0  0  0  0  0  0  0  0  0  0
    0.5138    0.8305   -0.6617 C   0  0  2  0  0  0  0  0  0  0  0  0
    1.1258   -0.2309    0.2456 C   0  0  0  0  0  0  0  0  0  0  0  0
    1.4738   -0.0027    1.4022 O   0  0  0  0  0  0  0  0  0  0  0  0
    1.5330    1.9393   -0.9476 C   0  0  0  0  0  0  0  0  0  0  0  0
    1.0108    2.9781   -1.9097 C   0  0  0  0  0  0  0  0  0  0  0  0
    0.9160    2.7029   -3.2510 N   0  0  0  0  0  0  0  0  0  0  0  0
    0.5831    4.2553   -1.6335 C   0  0  0  0  0  0  0  0  0  0  0  0
    0.4343    3.8032   -3.7852 C   0  0  0  0  0  0  0  0  0  0  0  0
    0.2174    4.7715   -2.8447 N   0  0  0  0  0  0  0  0  0  0  0  0
   -1.4467    1.6280   -0.5753 H   0  0  0  0  0  0  0  0  0  0  0  0
    0.1717    0.3560   -1.5890 H   0  0  0  0  0  0  0  0  0  0  0  0
    2.4644    1.5081   -1.3392 H   0  0  0  0  0  0  0  0  0  0  0  0
    1.8197    2.4461   -0.0167 H   0  0  0  0  0  0  0  0  0  0  0  0
    0.5073    4.8271   -0.7197 H   0  0  0  0  0  0  0  0  0  0  0  0
    0.2222    3.9623   -4.8331 H   0  0  0  0  0  0  0  0  0  0  0  0
   -0.1477    5.6991   -3.0144 H   0  0  0  0  0  0  0  0  0  0  0  0
    1.1893   -1.4709   -0.3749 N   0  0  0  0  0  0  0  0  0  0  0  0
    1.7058   -2.6560    0.2713 C   0  0  2  0  0  0  0  0  0  0  0  0
    3.0589   -2.3090    0.8782 C   0  0  0  0  0  0  0  0  0  0  0  0
    3.7490   -1.3704    0.4861 O   0  0  0  0  0  0  0  0  0  0  0  0
    1.8302   -3.8114   -0.7097 C   0  0  0  0  0  0  0  0  0  0  0  0
    0.8561   -1.5493   -1.3312 H   0  0  0  0  0  0  0  0  0  0  0  0
    1.0017   -2.9130    1.0702 H   0  0  0  0  0  0  0  0  0  0  0  0
    2.5316   -3.5724   -1.5174 H   0  0  0  0  0  0  0  0  0  0  0  0
    2.1945   -4.7165   -0.2125 H   0  0  0  0  0  0  0  0  0  0  0  0
    0.8617   -4.0401   -1.1674 H   0  0  0  0  0  0  0  0  0  0  0  0
    3.4246   -3.1970    1.8801 N   0  0  0  0  0  0  0  0  0  0  0  0
    4.6712   -3.0882    2.6014 C   0  0  0  0  0  0  0  0  0  0  0  0
    2.7820   -3.9348    2.1529 H   0  0  0  0  0  0  0  0  0  0  0  0
    5.4371   -3.7027    2.1055 H   0  0  0  0  0  0  0  0  0  0  0  0
    4.9964   -2.0375    2.6148 H   0  0  0  0  0  0  0  0  0  0  0  0
    4.5295   -3.4414    3.6334 H   0  0  0  0  0  0  0  0  0  0  0  0
 22 24  2  0  0  0  0
 24 26  1  0  0  0  0
 23 25  2  0  0  0  0
 25 26  1  0  0  0  0
 21 22  1  0  0  0  0
 22 23  1  0  0  0  0
  1  3  1  0  0  0  0
  1  7  1  0  0  0  0
  1  2  2  0  0  0  0
 35 36  1  0  0  0  0
 36 44  1  0  0  0  0
 36 37  2  0  0  0  0
  8  9  1  0  0  0  0
  9 17  1  0  0  0  0
  9 10  2  0  0  0  0
 18 19  1  0  0  0  0
 19 34  1  0  0  0  0
 19 20  2  0  0  0  0
 35 38  1  0  0  0  0
  8 11  1  0  0  0  0
 44 45  1  0  0  0  0
 18 21  1  0  0  0  0
 34 35  1  0  0  0  0
  7  8  1  0  0  0  0
 17 18  1  0  0  0  0
 24 31  1  0  0  0  0
 25 32  1  0  0  0  0
  3  4  1  0  0  0  0
  3  5  1  0  0  0  0
  3  6  1  0  0  0  0
 38 41  1  0  0  0  0
 38 42  1  0  0  0  0
 38 43  1  0  0  0  0
 11 14  1  0  0  0  0
 11 15  1  0  0  0  0
 11 16  1  0  0  0  0
 45 47  1  0  0  0  0
 45 48  1  0  0  0  0
 45 49  1  0  0  0  0
 21 29  1  0  0  0  0
 21 30  1  0  0  0  0
 35 40  1  0  0  0  0
  8 13  1  0  0  0  0
 18 28  1  0  0  0  0
 26 33  1  0  0  0  0
 44 46  1  0  0  0  0
  7 12  1  0  0  0  0
 34 39  1  0  0  0  0
 17 27  1  0  0  0  0
M  END
$$$$

  -OEChem-05262214473D

 49 49  0     1  0  0  0  0  0999 V2000
   -1.6183    0.5613    3.8201 C   0  0  0  0  0  0  0  0  0  0  0  0
   -0.6710   -0.0534    3.3444 O   0  0  0  0  0  0  0  0  0  0  0  0
   -2.0502    0.2789    5.2208 C   0  0  0  0  0  0  0  0  0  0  0  0
   -2.8099   -0.5175    5.2742 H   0  0  0  0  0  0  0  0  0  0  0  0
   -1.2190   -0.0687    5.8551 H   0  0  0  0  0  0  0  0  0  0  0  0
   -2.4882    1.1338    5.7604 H   0  0  0  0  0  0  0  0  0  0  0  0
   -2.3680    1.5337    3.1790 N   0  0  0  0  0  0  0  0  0  0  0  0
   -2.1212    1.9597    1.8266 C   0  0  2  0  0  0  0  0  0  0  0  0
   -0.7862    1.3744    1.3854 C   0  0  0  0  0  0  0  0  0  0  0  0
    0.0859    1.0216    2.1767 O   0  0  0  0  0  0  0  0  0  0  0  0
   -2.1124    3.4765    1.7171 C   0  0  0  0  0  0  0  0  0  0  0  0
   -3.1331    1.9695    3.6908 H   0  0  0  0  0  0  0  0  0  0  0  0
   -2.9253    1.5413    1.2115 H   0  0  0  0  0  0  0  0  0  0  0  0
   -1.3133    3.9138    2.3268 H   0  0  0  0  0  0  0  0  0  0  0  0
   -1.9529    3.7988    0.6829 H   0  0  0  0  0  0  0  0  0  0  0  0
   -3.0626    3.8977    2.0629 H   0  0  0  0  0  0  0  0  0  0  0  0
   -0.6635    1.3313    0.0020 N   0  0  0  0  0  0  0  0  0  0  0  0
    0.5138    0.8305   -0.6617 C   0  0  2  0  0  0  0  0  0  0  0  0
    1.1258   -0.2309    0.2456 C   0  0  0  0  0  0  0  0  0  0  0  0
    1.2275   -0.0930    1.4627 O   0  0  0  0  0  0  0  0  0  0  0  0
    1.5330    1.9393   -0.9476 C   0  0  0  0  0  0  0  0  0  0  0  0
    1.0108    2.9781   -1.9097 C   0  0  0  0  0  0  0  0  0  0  0  0
    0.9160    2.7029   -3.2510 N   0  0  0  0  0  0  0  0  0  0  0  0
    0.5831    4.2553   -1.6335 C   0  0  0  0  0  0  0  0  0  0  0  0
    0.4343    3.8032   -3.7852 C   0  0  0  0  0  0  0  0  0  0  0  0
    0.2174    4.7715   -2.8447 N   0  0  0  0  0  0  0  0  0  0  0  0
   -1.4467    1.6280   -0.5753 H   0  0  0  0  0  0  0  0  0  0  0  0
    0.1717    0.3560   -1.5890 H   0  0  0  0  0  0  0  0  0  0  0  0
    2.4644    1.5081   -1.3392 H   0  0  0  0  0  0  0  0  0  0  0  0
    1.8197    2.4461   -0.0167 H   0  0  0  0  0  0  0  0  0  0  0  0
    0.5073    4.8271   -0.7197 H   0  0  0  0  0  0  0  0  0  0  0  0
    0.2222    3.9623   -4.8331 H   0  0  0  0  0  0  0  0  0  0  0  0
   -0.1477    5.6991   -3.0144 H   0  0  0  0  0  0  0  0  0  0  0  0
    1.4970   -1.3667   -0.4606 N   0  0  0  0  0  0  0  0  0  0  0  0
    2.0814   -2.5327    0.1622 C   0  0  2  0  0  0  0  0  0  0  0  0
    3.2346   -2.0679    1.0417 C   0  0  0  0  0  0  0  0  0  0  0  0
    3.8190   -0.9997    0.8725 O   0  0  0  0  0  0  0  0  0  0  0  0
    2.5600   -3.5340   -0.8775 C   0  0  0  0  0  0  0  0  0  0  0  0
    1.3507   -1.3791   -1.4657 H   0  0  0  0  0  0  0  0  0  0  0  0
    1.3019   -2.9811    0.7878 H   0  0  0  0  0  0  0  0  0  0  0  0
    3.3412   -3.1026   -1.5138 H   0  0  0  0  0  0  0  0  0  0  0  0
    2.9764   -4.4292   -0.4039 H   0  0  0  0  0  0  0  0  0  0  0  0
    1.7353   -3.8446   -1.5280 H   0  0  0  0  0  0  0  0  0  0  0  0
    3.5627   -3.0057    2.0108 N   0  0  0  0  0  0  0  0  0  0  0  0
    4.6318   -2.8038    2.9607 C   0  0  0  0  0  0  0  0  0  0  0  0
    3.0122   -3.8556    2.0903 H   0  0  0  0  0  0  0  0  0  0  0  0
    5.5616   -3.2383    2.5648 H   0  0  0  0  0  0  0  0  0  0  0  0
    4.7736   -1.7261    3.1294 H   0  0  0  0  0  0  0  0  0  0  0  0
    4.3744   -3.2931    3.9117 H   0  0  0  0  0  0  0  0  0  0  0  0
 22 24  2  0  0  0  0
 24 26  1  0  0  0  0
 23 25  2  0  0  0  0
 25 26  1  0  0  0  0
 21 22  1  0  0  0  0
 22 23  1  0  0  0  0
  1  3  1  0  0  0  0
  1  7  1  0  0  0  0
  1  2  2  0  0  0  0
 35 36  1  0  0  0  0
 36 44  1  0  0  0  0
 36 37  2  0  0  0  0
  8  9  1  0  0  0  0
  9 17  1  0  0  0  0
  9 10  2  0  0  0  0
 18 19  1  0  0  0  0
 19 34  1  0  0  0  0
 19 20  2  0  0  0  0
 35 38  1  0  0  0  0
  8 11  1  0  0  0  0
 44 45  1  0  0  0  0
 18 21  1  0  0  0  0
 34 35  1  0  0  0  0
  7  8  1  0  0  0  0
 17 18  1  0  0  0  0
 24 31  1  0  0  0  0
 25 32  1  0  0  0  0
  3  4  1  0  0  0  0
  3  5  1  0  0  0  0
  3  6  1  0  0  0  0
 38 41  1  0  0  0  0
 38 42  1  0  0  0  0
 38 43  1  0  0  0  0
 11 14  1  0  0  0  0
 11 15  1  0  0  0  0
 11 16  1  0  0  0  0
 45 47  1  0  0  0  0
 45 48  1  0  0  0  0
 45 49  1  0  0  0  0
 21 29  1  0  0  0  0
 21 30  1  0  0  0  0
 35 40  1  0  0  0  0
  8 13  1  0  0  0  0
 18 28  1  0  0  0  0
 26 33  1  0  0  0  0
 44 46  1  0  0  0  0
  7 12  1  0  0  0  0
 34 39  1  0  0  0  0
 17 27  1  0  0  0  0
M  END
$$$$

  -OEChem-05262214473D

 49 49  0     1  0  0  0  0  0999 V2000
   -1.6183    0.5613    3.8201 C   0  0  0  0  0  0  0  0  0  0  0  0
   -0.6710   -0.0534    3.3444 O   0  0  0  0  0  0  0  0  0  0  0  0
   -2.0502    0.2789    5.2208 C   0  0  0  0  0  0  0  0  0  0  0  0
   -2.8099   -0.5175    5.2742 H   0  0  0  0  0  0  0  0  0  0  0  0
   -1.2190   -0.0687    5.8551 H   0  0  0  0  0  0  0  0  0  0  0  0
   -2.4882    1.1338    5.7604 H   0  0  0  0  0  0  0  0  0  0  0  0
   -2.3680    1.5337    3.1790 N   0  0  0  0  0  0  0  0  0  0  0  0
   -2.1212    1.9597    1.8266 C   0  0  2  0  0  0  0  0  0  0  0  0
   -0.7862    1.3744    1.3854 C   0  0  0  0  0  0  0  0  0  0  0  0
    0.0859    1.0216    2.1767 O   0  0  0  0  0  0  0  0  0  0  0  0
   -2.1124    3.4765    1.7171 C   0  0  0  0  0  0  0  0  0  0  0  0
   -3.1331    1.9695    3.6908 H   0  0  0  0  0  0  0  0  0  0  0  0
   -2.9253    1.5413    1.2115 H   0  0  0  0  0  0  0  0  0  0  0  0
   -1.3133    3.9138    2.3268 H   0  0  0  0  0  0  0  0  0  0  0  0
   -1.9529    3.7988    0.6829 H   0  0  0  0  0  0  0  0  0  0  0  0
   -3.0626    3.8977    2.0629 H   0  0  0  0  0  0  0  0  0  0  0  0
   -0.6635    1.3313    0.0020 N   0  0  0  0  0  0  0  0  0  0  0  0
    0.5138    0.8305   -0.6617 C   0  0  2  0  0  0  0  0  0  0  0  0
    1.1258   -0.2309    0.2456 C   0  0  0  0  0  0  0  0  0  0  0  0
    0.9927   -0.2243    1.4675 O   0  0  0  0  0  0  0  0  0  0  0  0
    1.5330    1.9393   -0.9476 C   0  0  0  0  0  0  0  0  0  0  0  0
    1.0108    2.9781   -1.9097 C   0  0  0  0  0  0  0  0  0  0  0  0
    0.9160    2.7029   -3.2510 N   0  0  0  0  0  0  0  0  0  0  0  0
    0.5831    4.2553   -1.6335 C   0  0  0  0  0  0  0  0  0  0  0  0
    0.4343    3.8032   -3.7852 C   0  0  0  0  0  0  0  0  0  0  0  0
    0.2174    4.7715   -2.8447 N   0  0  0  0  0  0  0  0  0  0  0  0
   -1.4467    1.6280   -0.5753 H   0  0  0  0  0  0  0  0  0  0  0  0
    0.1717    0.3560   -1.5890 H   0  0  0  0  0  0  0  0  0  0  0  0
    2.4644    1.5081   -1.3392 H   0  0  0  0  0  0  0  0  0  0  0  0
    1.8197    2.4461   -0.0167 H   0  0  0  0  0  0  0  0  0  0  0  0
    0.5073    4.8271   -0.7197 H   0  0  0  0  0  0  0  0  0  0  0  0
    0.2222    3.9623   -4.8331 H   0  0  0  0  0  0  0  0  0  0  0  0
   -0.1477    5.6991   -3.0144 H   0  0  0  0  0  0  0  0  0  0  0  0
    1.7937   -1.2098   -0.4771 N   0  0  0  0  0  0  0  0  0  0  0  0
    2.4448   -2.3443    0.1373 C   0  0  2  0  0  0  0  0  0  0  0  0
    3.3378   -1.8249    1.2564 C   0  0  0  0  0  0  0  0  0  0  0  0
    3.7599   -0.6711    1.2969 O   0  0  0  0  0  0  0  0  0  0  0  0
    3.2524   -3.1362   -0.8792 C   0  0  0  0  0  0  0  0  0  0  0  0
    1.8265   -1.1244   -1.4887 H   0  0  0  0  0  0  0  0  0  0  0  0
    1.6534   -2.9714    0.5621 H   0  0  0  0  0  0  0  0  0  0  0  0
    4.0503   -2.5244   -1.3157 H   0  0  0  0  0  0  0  0  0  0  0  0
    3.7218   -4.0115   -0.4181 H   0  0  0  0  0  0  0  0  0  0  0  0
    2.6140   -3.4838   -1.6987 H   0  0  0  0  0  0  0  0  0  0  0  0
    3.6431   -2.8131    2.1817 N   0  0  0  0  0  0  0  0  0  0  0  0
    4.4852   -2.5725    3.3302 C   0  0  0  0  0  0  0  0  0  0  0  0
    3.2337   -3.7371    2.0795 H   0  0  0  0  0  0  0  0  0  0  0  0
    5.5276   -2.8183    3.0792 H   0  0  0  0  0  0  0  0  0  0  0  0
    4.4177   -1.5131    3.6187 H   0  0  0  0  0  0  0  0  0  0  0  0
    4.1516   -3.2026    4.1678 H   0  0  0  0  0  0  0  0  0  0  0  0
 22 24  2  0  0  0  0
 24 26  1  0  0  0  0
 23 25  2  0  0  0  0
 25 26  1  0  0  0  0
 21 22  1  0  0  0  0
 22 23  1  0  0  0  0
  1  3  1  0  0  0  0
  1  7  1  0  0  0  0
  1  2  2  0  0  0  0
 35 36  1  0  0  0  0
 36 44  1  0  0  0  0
 36 37  2  0  0  0  0
  8  9  1  0  0  0  0
  9 17  1  0  0  0  0
  9 10  2  0  0  0  0
 18 19  1  0  0  0  0
 19 34  1  0  0  0  0
 19 20  2  0  0  0  0
 35 38  1  0  0  0  0
  8 11  1  0  0  0  0
 44 45  1  0  0  0  0
 18 21  1  0  0  0  0
 34 35  1  0  0  0  0
  7  8  1  0  0  0  0
 17 18  1  0  0  0  0
 24 31  1  0  0  0  0
 25 32  1  0  0  0  0
  3  4  1  0  0  0  0
  3  5  1  0  0  0  0
  3  6  1  0  0  0  0
 38 41  1  0  0  0  0
 38 42  1  0  0  0  0
 38 43  1  0  0  0  0
 11 14  1  0  0  0  0
 11 15  1  0  0  0  0
 11 16  1  0  0  0  0
 45 47  1  0  0  0  0
 45 48  1  0  0  0  0
 45 49  1  0  0  0  0
 21 29  1  0  0  0  0
 21 30  1  0  0  0  0
 35 40  1  0  0  0  0
  8 13  1  0  0  0  0
 18 28  1  0  0  0  0
 26 33  1  0  0  0  0
 44 46  1  0  0  0  0
  7 12  1  0  0  0  0
 34 39  1  0  0  0  0
 17 27  1  0  0  0  0
M  END
$$$$

  -OEChem-05262214473D

 49 49  0     1  0  0  0  0  0999 V2000
   -1.6183    0.5613    3.8201 C   0  0  0  0  0  0  0  0  0  0  0  0
   -0.6710   -0.0534    3.3444 O   0  0  0  0  0  0  0  0  0  0  0  0
   -2.0502    0.2789    5.2208 C   0  0  0  0  0  0  0  0  0  0  0  0
   -2.8099   -0.5175    5.2742 H   0  0  0  0  0  0  0  0  0  0  0  0
   -1.2190   -0.0687    5.8551 H   0  0  0  0  0  0  0  0  0  0  0  0
   -2.4882    1.1338    5.7604 H   0  0  0  0  0  0  0  0  0  0  0  0
   -2.3680    1.5337    3.1790 N   0  0  0  0  0  0  0  0  0  0  0  0
   -2.1212    1.9597    1.8266 C   0  0  2  0  0  0  0  0  0  0  0  0
   -0.7862    1.3744    1.3854 C   0  0  0  0  0  0  0  0  0  0  0  0
    0.0859    1.0216    2.1767 O   0  0  0  0  0  0  0  0  0  0  0  0
   -2.1124    3.4765    1.7171 C   0  0  0  0  0  0  0  0  0  0  0  0
   -3.1331    1.9695    3.6908 H   0  0  0  0  0  0  0  0  0  0  0  0
   -2.9253    1.5413    1.2115 H   0  0  0  0  0  0  0  0  0  0  0  0
   -1.3133    3.9138    2.3268 H   0  0  0  0  0  0  0  0  0  0  0  0
   -1.9529    3.7988    0.6829 H   0  0  0  0  0  0  0  0  0  0  0  0
   -3.0626    3.8977    2.0629 H   0  0  0  0  0  0  0  0  0  0  0  0
   -0.6635    1.3313    0.0020 N   0  0  0  0  0  0  0  0  0  0  0  0
    0.5138    0.8305   -0.6617 C   0  0  2  0  0  0  0  0  0  0  0  0
    1.1258   -0.2309    0.2456 C   0  0  0  0  0  0  0  0  0  0  0  0
    0.7851   -0.3879    1.4161 O   0  0  0  0  0  0  0  0  0  0  0  0
    1.5330    1.9393   -0.9476 C   0  0  0  0  0  0  0  0  0  0  0  0
    1.0108    2.9781   -1.9097 C   0  0  0  0  0  0  0  0  0  0  0  0
    0.9160    2.7029   -3.2510 N   0  0  0  0  0  0  0  0  0  0  0  0
    0.5831    4.2553   -1.6335 C   0  0  0  0  0  0  0  0  0  0  0  0
    0.4343    3.8032   -3.7852 C   0  0  0  0  0  0  0  0  0  0  0  0
    0.2174    4.7715   -2.8447 N   0  0  0  0  0  0  0  0  0  0  0  0
   -1.4467    1.6280   -0.5753 H   0  0  0  0  0  0  0  0  0  0  0  0
    0.1717    0.3560   -1.5890 H   0  0  0  0  0  0  0  0  0  0  0  0
    2.4644    1.5081   -1.3392 H   0  0  0  0  0  0  0  0  0  0  0  0
    1.8197    2.4461   -0.0167 H   0  0  0  0  0  0  0  0  0  0  0  0
    0.5073    4.8271   -0.7197 H   0  0  0  0  0  0  0  0  0  0  0  0
    0.2222    3.9623   -4.8331 H   0  0  0  0  0  0  0  0  0  0  0  0
   -0.1477    5.6991   -3.0144 H   0  0  0  0  0  0  0  0  0  0  0  0
    2.0590   -1.0108   -0.4233 N   0  0  0  0  0  0  0  0  0  0  0  0
    2.7714   -2.1039    0.1984 C   0  0  2  0  0  0  0  0  0  0  0  0
    3.3613   -1.5966    1.5076 C   0  0  0  0  0  0  0  0  0  0  0  0
    3.5757   -0.4068    1.7303 O   0  0  0  0  0  0  0  0  0  0  0  0
    3.8603   -2.6452   -0.7148 C   0  0  0  0  0  0  0  0  0  0  0  0
    2.2509   -0.8028   -1.3988 H   0  0  0  0  0  0  0  0  0  0  0  0
    2.0320   -2.8844    0.4085 H   0  0  0  0  0  0  0  0  0  0  0  0
    4.6104   -1.8773   -0.9365 H   0  0  0  0  0  0  0  0  0  0  0  0
    4.3801   -3.4916   -0.2540 H   0  0  0  0  0  0  0  0  0  0  0  0
    3.4380   -2.9821   -1.6677 H   0  0  0  0  0  0  0  0  0  0  0  0
    3.6604   -2.6326    2.3814 N   0  0  0  0  0  0  0  0  0  0  0  0
    4.2414   -2.4100    3.6848 C   0  0  0  0  0  0  0  0  0  0  0  0
    3.4313   -3.5874    2.1213 H   0  0  0  0  0  0  0  0  0  0  0  0
    5.3374   -2.4712    3.6135 H   0  0  0  0  0  0  0  0  0  0  0  0
    3.9530   -1.4131    4.0493 H   0  0  0  0  0  0  0  0  0  0  0  0
    3.8763   -3.1761    4.3846 H   0  0  0  0  0  0  0  0  0  0  0  0
 22 24  2  0  0  0  0
 24 26  1  0  0  0  0
 23 25  2  0  0  0  0
 25 26  1  0  0  0  0
 21 22  1  0  0  0  0
 22 23  1  0  0  0  0
  1  3  1  0  0  0  0
  1  7  1  0  0  0  0
  1  2  2  0  0  0  0
 35 36  1  0  0  0  0
 36 44  1  0  0  0  0
 36 37  2  0  0  0  0
  8  9  1  0  0  0  0
  9 17  1  0  0  0  0
  9 10  2  0  0  0  0
 18 19  1  0  0  0  0
 19 34  1  0  0  0  0
 19 20  2  0  0  0  0
 35 38  1  0  0  0  0
  8 11  1  0  0  0  0
 44 45  1  0  0  0  0
 18 21  1  0  0  0  0
 34 35  1  0  0  0  0
  7  8  1  0  0  0  0
 17 18  1  0  0  0  0
 24 31  1  0  0  0  0
 25 32  1  0  0  0  0
  3  4  1  0  0  0  0
  3  5  1  0  0  0  0
  3  6  1  0  0  0  0
 38 41  1  0  0  0  0
 38 42  1  0  0  0  0
 38 43  1  0  0  0  0
 11 14  1  0  0  0  0
 11 15  1  0  0  0  0
 11 16  1  0  0  0  0
 45 47  1  0  0  0  0
 45 48  1  0  0  0  0
 45 49  1  0  0  0  0
 21 29  1  0  0  0  0
 21 30  1  0  0  0  0
 35 40  1  0  0  0  0
  8 13  1  0  0  0  0
 18 28  1  0  0  0  0
 26 33  1  0  0  0  0
 44 46  1  0  0  0  0
  7 12  1  0  0  0  0
 34 39  1  0  0  0  0
 17 27  1  0  0  0  0
M  END
$$$$

  -OEChem-05262214473D

 49 49  0     1  0  0  0  0  0999 V2000
   -1.6183    0.5613    3.8201 C   0  0  0  0  0  0  0  0  0  0  0  0
   -0.6710   -0.0534    3.3444 O   0  0  0  0  0  0  0  0  0  0  0  0
   -2.0502    0.2789    5.2208 C   0  0  0  0  0  0  0  0  0  0  0  0
   -2.8099   -0.5175    5.2742 H   0  0  0  0  0  0  0  0  0  0  0  0
   -1.2190   -0.0687    5.8551 H   0  0  0  0  0  0  0  0  0  0  0  0
   -2.4882    1.1338    5.7604 H   0  0  0  0  0  0  0  0  0  0  0  0
   -2.3680    1.5337    3.1790 N   0  0  0  0  0  0  0  0  0  0  0  0
   -2.1212    1.9597    1.8266 C   0  0  2  0  0  0  0  0  0  0  0  0
   -0.7862    1.3744    1.3854 C   0  0  0  0  0  0  0  0  0  0  0  0
    0.0859    1.0216    2.1767 O   0  0  0  0  0  0  0  0  0  0  0  0
   -2.1124    3.4765    1.7171 C   0  0  0  0  0  0  0  0  0  0  0  0
   -3.1331    1.9695    3.6908 H   0  0  0  0  0  0  0  0  0  0  0  0
   -2.9253    1.5413    1.2115 H   0  0  0  0  0  0  0  0  0  0  0  0
   -1.3133    3.9138    2.3268 H   0  0  0  0  0  0  0  0  0  0  0  0
   -1.9529    3.7988    0.6829 H   0  0  0  0  0  0  0  0  0  0  0  0
   -3.0626    3.8977    2.0629 H   0  0  0  0  0  0  0  0  0  0  0  0
   -0.6635    1.3313    0.0020 N   0  0  0  0  0  0  0  0  0  0  0  0
    0.5138    0.8305   -0.6617 C   0  0  2  0  0  0  0  0  0  0  0  0
    0.9094   -0.4648    0.0382 C   0  0  0  0  0  0  0  0  0  0  0  0
    0.2615   -0.9506    0.9630 O   0  0  0  0  0  0  0  0  0  0  0  0
    1.6723    1.8336   -0.6209 C   0  0  0  0  0  0  0  0  0  0  0  0
    1.3686    3.1068   -1.3721 C   0  0  0  0  0  0  0  0  0  0  0  0
    1.3825    3.1283   -2.7444 N   0  0  0  0  0  0  0  0  0  0  0  0
    1.0572    4.3440   -0.8593 C   0  0  0  0  0  0  0  0  0  0  0  0
    1.0817    4.3677   -3.0628 C   0  0  0  0  0  0  0  0  0  0  0  0
    0.8766    5.1412   -1.9543 N   0  0  0  0  0  0  0  0  0  0  0  0
   -1.4467    1.6280   -0.5753 H   0  0  0  0  0  0  0  0  0  0  0  0
    0.2189    0.6053   -1.6933 H   0  0  0  0  0  0  0  0  0  0  0  0
    2.5861    1.3760   -1.0236 H   0  0  0  0  0  0  0  0  0  0  0  0
    1.9155    2.0966    0.4171 H   0  0  0  0  0  0  0  0  0  0  0  0
    0.9510    4.7201    0.1481 H   0  0  0  0  0  0  0  0  0  0  0  0
    0.9970    4.7652   -4.0644 H   0  0  0  0  0  0  0  0  0  0  0  0
    0.6347    6.1231   -1.9464 H   0  0  0  0  0  0  0  0  0  0  0  0
    2.0414   -1.0358   -0.5266 N   0  0  0  0  0  0  0  0  0  0  0  0
    2.6160   -2.2799   -0.0675 C   0  0  2  0  0  0  0  0  0  0  0  0
    2.7772   -2.1938    1.4445 C   0  0  0  0  0  0  0  0  0  0  0  0
    2.8439   -1.1274    2.0523 O   0  0  0  0  0  0  0  0  0  0  0  0
    3.9512   -2.5548   -0.7417 C   0  0  0  0  0  0  0  0  0  0  0  0
    2.4885   -0.5551   -1.3018 H   0  0  0  0  0  0  0  0  0  0  0  0
    1.8984   -3.0699   -0.3144 H   0  0  0  0  0  0  0  0  0  0  0  0
    4.6831   -1.7737   -0.5059 H   0  0  0  0  0  0  0  0  0  0  0  0
    4.3715   -3.5114   -0.4141 H   0  0  0  0  0  0  0  0  0  0  0  0
    3.8385   -2.5869   -1.8308 H   0  0  0  0  0  0  0  0  0  0  0  0
    2.8813   -3.4475    2.0305 N   0  0  0  0  0  0  0  0  0  0  0  0
    3.0536   -3.6315    3.4526 C   0  0  0  0  0  0  0  0  0  0  0  0
    2.7963   -4.2781    1.4520 H   0  0  0  0  0  0  0  0  0  0  0  0
    4.1264   -3.6952    3.6873 H   0  0  0  0  0  0  0  0  0  0  0  0
    2.6111   -2.7791    3.9888 H   0  0  0  0  0  0  0  0  0  0  0  0
    2.5543   -4.5605    3.7652 H   0  0  0  0  0  0  0  0  0  0  0  0
 22 24  2  0  0  0  0
 24 26  1  0  0  0  0
 23 25  2  0  0  0  0
 25 26  1  0  0  0  0
 21 22  1  0  0  0  0
 22 23  1  0  0  0  0
  1  3  1  0  0  0  0
  1  7  1  0  0  0  0
  1  2  2  0  0  0  0
 35 36  1  0  0  0  0
 36 44  1  0  0  0  0
 36 37  2  0  0  0  0
  8  9  1  0  0  0  0
  9 17  1  0  0  0  0
  9 10  2  0  0  0  0
 18 19  1  0  0  0  0
 19 34  1  0  0  0  0
 19 20  2  0  0  0  0
 35 38  1  0  0  0  0
  8 11  1  0  0  0  0
 44 45  1  0  0  0  0
 18 21  1  0  0  0  0
 34 35  1  0  0  0  0
  7  8  1  0  0  0  0
 17 18  1  0  0  0  0
 24 31  1  0  0  0  0
 25 32  1  0  0  0  0
  3  4  1  0  0  0  0
  3  5  1  0  0  0  0
  3  6  1  0  0  0  0
 38 41  1  0  0  0  0
 38 42  1  0  0  0  0
 38 43  1  0  0  0  0
 11 14  1  0  0  0  0
 11 15  1  0  0  0  0
 11 16  1  0  0  0  0
 45 47  1  0  0  0  0
 45 48  1  0  0  0  0
 45 49  1  0  0  0  0
 21 29  1  0  0  0  0
 21 30  1  0  0  0  0
 35 40  1  0  0  0  0
  8 13  1  0  0  0  0
 18 28  1  0  0  0  0
 26 33  1  0  0  0  0
 44 46  1  0  0  0  0
  7 12  1  0  0  0  0
 34 39  1  0  0  0  0
 17 27  1  0  0  0  0
M  END
$$$$

  -OEChem-05262214473D

 49 49  0     1  0  0  0  0  0999 V2000
   -1.6183    0.5613    3.8201 C   0  0  0  0  0  0  0  0  0  0  0  0
   -0.6710   -0.0534    3.3444 O   0  0  0  0  0  0  0  0  0  0  0  0
   -2.0502    0.2789    5.2208 C   0  0  0  0  0  0  0  0  0  0  0  0
   -2.8099   -0.5175    5.2742 H   0  0  0  0  0  0  0  0  0  0  0  0
   -1.2190   -0.0687    5.8551 H   0  0  0  0  0  0  0  0  0  0  0  0
   -2.4882    1.1338    5.7604 H   0  0  0  0  0  0  0  0  0  0  0  0
   -2.3680    1.5337    3.1790 N   0  0  0  0  0  0  0  0  0  0  0  0
   -2.1212    1.9597    1.8266 C   0  0  2  0  0  0  0  0  0  0  0  0
   -0.7862    1.3744    1.3854 C   0  0  0  0  0  0  0  0  0  0  0  0
    0.0859    1.0216    2.1767 O   0  0  0  0  0  0  0  0  0  0  0  0
   -2.1124    3.4765    1.7171 C   0  0  0  0  0  0  0  0  0  0  0  0
   -3.1331    1.9695    3.6908 H   0  0  0  0  0  0  0  0  0  0  0  0
   -2.9253    1.5413    1.2115 H   0  0  0  0  0  0  0  0  0  0  0  0
   -1.3133    3.9138    2.3268 H   0  0  0  0  0  0  0  0  0  0  0  0
   -1.9529    3.7988    0.6829 H   0  0  0  0  0  0  0  0  0  0  0  0
   -3.0626    3.8977    2.0629 H   0  0  0  0  0  0  0  0  0  0  0  0
   -0.6635    1.3313    0.0020 N   0  0  0  0  0  0  0  0  0  0  0  0
    0.5138    0.8305   -0.6617 C   0  0  2  0  0  0  0  0  0  0  0  0
    0.9094   -0.4648    0.0382 C   0  0  0  0  0  0  0  0  0  0  0  0
    0.1439   -1.0925    0.7668 O   0  0  0  0  0  0  0  0  0  0  0  0
    1.6723    1.8336   -0.6209 C   0  0  0  0  0  0  0  0  0  0  0  0
    1.3686    3.1068   -1.3721 C   0  0  0  0  0  0  0  0  0  0  0  0
    1.3825    3.1283   -2.7444 N   0  0  0  0  0  0  0  0  0  0  0  0
    1.0572    4.3440   -0.8593 C   0  0  0  0  0  0  0  0  0  0  0  0
    1.0817    4.3677   -3.0628 C   0  0  0  0  0  0  0  0  0  0  0  0
    0.8766    5.1412   -1.9543 N   0  0  0  0  0  0  0  0  0  0  0  0
   -1.4467    1.6280   -0.5753 H   0  0  0  0  0  0  0  0  0  0  0  0
    0.2189    0.6053   -1.6933 H   0  0  0  0  0  0  0  0  0  0  0  0
    2.5861    1.3760   -1.0236 H   0  0  0  0  0  0  0  0  0  0  0  0
    1.9155    2.0966    0.4171 H   0  0  0  0  0  0  0  0  0  0  0  0
    0.9510    4.7201    0.1481 H   0  0  0  0  0  0  0  0  0  0  0  0
    0.9970    4.7652   -4.0644 H   0  0  0  0  0  0  0  0  0  0  0  0
    0.6347    6.1231   -1.9464 H   0  0  0  0  0  0  0  0  0  0  0  0
    2.1995   -0.8590   -0.2887 N   0  0  0  0  0  0  0  0  0  0  0  0
    2.8139   -2.0642    0.2198 C   0  0  2  0  0  0  0  0  0  0  0  0
    2.6327   -2.0826    1.7318 C   0  0  0  0  0  0  0  0  0  0  0  0
    2.4313   -1.0678    2.3957 O   0  0  0  0  0  0  0  0  0  0  0  0
    4.2869   -2.1337   -0.1521 C   0  0  0  0  0  0  0  0  0  0  0  0
    2.7389   -0.2707   -0.9169 H   0  0  0  0  0  0  0  0  0  0  0  0
    2.2722   -2.9067   -0.2238 H   0  0  0  0  0  0  0  0  0  0  0  0
    4.8460   -1.2975    0.2834 H   0  0  0  0  0  0  0  0  0  0  0  0
    4.7440   -3.0608    0.2093 H   0  0  0  0  0  0  0  0  0  0  0  0
    4.4169   -2.0904   -1.2388 H   0  0  0  0  0  0  0  0  0  0  0  0
    2.7654   -3.3601    2.2578 N   0  0  0  0  0  0  0  0  0  0  0  0
    2.6486   -3.6376    3.6704 C   0  0  0  0  0  0  0  0  0  0  0  0
    2.9129   -4.1457    1.6311 H   0  0  0  0  0  0  0  0  0  0  0  0
    3.6447   -3.6001    4.1356 H   0  0  0  0  0  0  0  0  0  0  0  0
    1.9967   -2.8856    4.1390 H   0  0  0  0  0  0  0  0  0  0  0  0
    2.2150   -4.6385    3.8127 H   0  0  0  0  0  0  0  0  0  0  0  0
 22 24  2  0  0  0  0
 24 26  1  0  0  0  0
 23 25  2  0  0  0  0
 25 26  1  0  0  0  0
 21 22  1  0  0  0  0
 22 23  1  0  0  0  0
  1  3  1  0  0  0  0
  1  7  1  0  0  0  0
  1  2  2  0  0  0  0
 35 36  1  0  0  0  0
 36 44  1  0  0  0  0
 36 37  2  0  0  0  0
  8  9  1  0  0  0  0
  9 17  1  0  0  0  0
  9 10  2  0  0  0  0
 18 19  1  0  0  0  0
 19 34  1  0  0  0  0
 19 20  2  0  0  0  0
 35 38  1  0  0  0  0
  8 11  1  0  0  0  0
 44 45  1  0  0  0  0
 18 21  1  0  0  0  0
 34 35  1  0  0  0  0
  7  8  1  0  0  0  0
 17 18  1  0  0  0  0
 24 31  1  0  0  0  0
 25 32  1  0  0  0  0
  3  4  1  0  0  0  0
  3  5  1  0  0  0  0
  3  6  1  0  0  0  0
 38 41  1  0  0  0  0
 38 42  1  0  0  0  0
 38 43  1  0  0  0  0
 11 14  1  0  0  0  0
 11 15  1  0  0  0  0
 11 16  1  0  0  0  0
 45 47  1  0  0  0  0
 45 48  1  0  0  0  0
 45 49  1  0  0  0  0
 21 29  1  0  0  0  0
 21 30  1  0  0  0  0
 35 40  1  0  0  0  0
  8 13  1  0  0  0  0
 18 28  1  0  0  0  0
 26 33  1  0  0  0  0
 44 46  1  0  0  0  0
  7 12  1  0  0  0  0
 34 39  1  0  0  0  0
 17 27  1  0  0  0  0
M  END
$$$$

  -OEChem-05262214473D

 49 49  0     1  0  0  0  0  0999 V2000
   -1.6183    0.5613    3.8201 C   0  0  0  0  0  0  0  0  0  0  0  0
   -0.6710   -0.0534    3.3444 O   0  0  0  0  0  0  0  0  0  0  0  0
   -2.0502    0.2789    5.2208 C   0  0  0  0  0  0  0  0  0  0  0  0
   -2.8099   -0.5175    5.2742 H   0  0  0  0  0  0  0  0  0  0  0  0
   -1.2190   -0.0687    5.8551 H   0  0  0  0  0  0  0  0  0  0  0  0
   -2.4882    1.1338    5.7604 H   0  0  0  0  0  0  0  0  0  0  0  0
   -2.3680    1.5337    3.1790 N   0  0  0  0  0  0  0  0  0  0  0  0
   -2.1212    1.9597    1.8266 C   0  0  2  0  0  0  0  0  0  0  0  0
   -0.7862    1.3744    1.3854 C   0  0  0  0  0  0  0  0  0  0  0  0
    0.0859    1.0216    2.1767 O   0  0  0  0  0  0  0  0  0  0  0  0
   -2.1124    3.4765    1.7171 C   0  0  0  0  0  0  0  0  0  0  0  0
   -3.1331    1.9695    3.6908 H   0  0  0  0  0  0  0  0  0  0  0  0
   -2.9253    1.5413    1.2115 H   0  0  0  0  0  0  0  0  0  0  0  0
   -1.3133    3.9138    2.3268 H   0  0  0  0  0  0  0  0  0  0  0  0
   -1.9529    3.7988    0.6829 H   0  0  0  0  0  0  0  0  0  0  0  0
   -3.0626    3.8977    2.0629 H   0  0  0  0  0  0  0  0  0  0  0  0
   -0.6635    1.3313    0.0020 N   0  0  0  0  0  0  0  0  0  0  0  0
    0.5138    0.8305   -0.6617 C   0  0  2  0  0  0  0  0  0  0  0  0
    0.9094   -0.4648    0.0382 C   0  0  0  0  0  0  0  0  0  0  0  0
    0.0902   -1.2304    0.5420 O   0  0  0  0  0  0  0  0  0  0  0  0
    1.6723    1.8336   -0.6209 C   0  0  0  0  0  0  0  0  0  0  0  0
    1.3686    3.1068   -1.3721 C   0  0  0  0  0  0  0  0  0  0  0  0
    1.3825    3.1283   -2.7444 N   0  0  0  0  0  0  0  0  0  0  0  0
    1.0572    4.3440   -0.8593 C   0  0  0  0  0  0  0  0  0  0  0  0
    1.0817    4.3677   -3.0628 C   0  0  0  0  0  0  0  0  0  0  0  0
    0.8766    5.1412   -1.9543 N   0  0  0  0  0  0  0  0  0  0  0  0
   -1.4467    1.6280   -0.5753 H   0  0  0  0  0  0  0  0  0  0  0  0
    0.2189    0.6053   -1.6933 H   0  0  0  0  0  0  0  0  0  0  0  0
    2.5861    1.3760   -1.0236 H   0  0  0  0  0  0  0  0  0  0  0  0
    1.9155    2.0966    0.4171 H   0  0  0  0  0  0  0  0  0  0  0  0
    0.9510    4.7201    0.1481 H   0  0  0  0  0  0  0  0  0  0  0  0
    0.9970    4.7652   -4.0644 H   0  0  0  0  0  0  0  0  0  0  0  0
    0.6347    6.1231   -1.9464 H   0  0  0  0  0  0  0  0  0  0  0  0
    2.2788   -0.6853   -0.0122 N   0  0  0  0  0  0  0  0  0  0  0  0
    2.9162   -1.8517    0.5553 C   0  0  2  0  0  0  0  0  0  0  0  0
    2.4168   -2.0118    1.9851 C   0  0  0  0  0  0  0  0  0  0  0  0
    1.9503   -1.0824    2.6407 O   0  0  0  0  0  0  0  0  0  0  0  0
    4.4314   -1.7267    0.5195 C   0  0  0  0  0  0  0  0  0  0  0  0
    2.8624    0.0080   -0.4710 H   0  0  0  0  0  0  0  0  0  0  0  0
    2.5939   -2.7108   -0.0431 H   0  0  0  0  0  0  0  0  0  0  0  0
    4.7731   -0.8712    1.1136 H   0  0  0  0  0  0  0  0  0  0  0  0
    4.9132   -2.6232    0.9236 H   0  0  0  0  0  0  0  0  0  0  0  0
    4.7865   -1.5818   -0.5065 H   0  0  0  0  0  0  0  0  0  0  0  0
    2.5931   -3.3047    2.4578 N   0  0  0  0  0  0  0  0  0  0  0  0
    2.2101   -3.7062    3.7913 C   0  0  0  0  0  0  0  0  0  0  0  0
    2.9704   -4.0160    1.8387 H   0  0  0  0  0  0  0  0  0  0  0  0
    3.0694   -3.5956    4.4690 H   0  0  0  0  0  0  0  0  0  0  0  0
    1.3828   -3.0716    4.1418 H   0  0  0  0  0  0  0  0  0  0  0  0
    1.8861   -4.7573    3.7787 H   0  0  0  0  0  0  0  0  0  0  0  0
 22 24  2  0  0  0  0
 24 26  1  0  0  0  0
 23 25  2  0  0  0  0
 25 26  1  0  0  0  0
 21 22  1  0  0  0  0
 22 23  1  0  0  0  0
  1  3  1  0  0  0  0
  1  7  1  0  0  0  0
  1  2  2  0  0  0  0
 35 36  1  0  0  0  0
 36 44  1  0  0  0  0
 36 37  2  0  0  0  0
  8  9  1  0  0  0  0
  9 17  1  0  0  0  0
  9 10  2  0  0  0  0
 18 19  1  0  0  0  0
 19 34  1  0  0  0  0
 19 20  2  0  0  0  0
 35 38  1  0  0  0  0
  8 11  1  0  0  0  0
 44 45  1  0  0  0  0
 18 21  1  0  0  0  0
 34 35  1  0  0  0  0
  7  8  1  0  0  0  0
 17 18  1  0  0  0  0
 24 31  1  0  0  0  0
 25 32  1  0  0  0  0
  3  4  1  0  0  0  0
  3  5  1  0  0  0  0
  3  6  1  0  0  0  0
 38 41  1  0  0  0  0
 38 42  1  0  0  0  0
 38 43  1  0  0  0  0
 11 14  1  0  0  0  0
 11 15  1  0  0  0  0
 11 16  1  0  0  0  0
 45 47  1  0  0  0  0
 45 48  1  0  0  0  0
 45 49  1  0  0  0  0
 21 29  1  0  0  0  0
 21 30  1  0  0  0  0
 35 40  1  0  0  0  0
  8 13  1  0  0  0  0
 18 28  1  0  0  0  0
 26 33  1  0  0  0  0
 44 46  1  0  0  0  0
  7 12  1  0  0  0  0
 34 39  1  0  0  0  0
 17 27  1  0  0  0  0
M  END
$$$$

  -OEChem-05262214473D

 49 49  0     1  0  0  0  0  0999 V2000
   -1.6183    0.5613    3.8201 C   0  0  0  0  0  0  0  0  0  0  0  0
   -0.6710   -0.0534    3.3444 O   0  0  0  0  0  0  0  0  0  0  0  0
   -2.0502    0.2789    5.2208 C   0  0  0  0  0  0  0  0  0  0  0  0
   -2.8099   -0.5175    5.2742 H   0  0  0  0  0  0  0  0  0  0  0  0
   -1.2190   -0.0687    5.8551 H   0  0  0  0  0  0  0  0  0  0  0  0
   -2.4882    1.1338    5.7604 H   0  0  0  0  0  0  0  0  0  0  0  0
   -2.3680    1.5337    3.1790 N   0  0  0  0  0  0  0  0  0  0  0  0
   -2.1212    1.9597    1.8266 C   0  0  2  0  0  0  0  0  0  0  0  0
   -0.7862    1.3744    1.3854 C   0  0  0  0  0  0  0  0  0  0  0  0
    0.0859    1.0216    2.1767 O   0  0  0  0  0  0  0  0  0  0  0  0
   -2.1124    3.4765    1.7171 C   0  0  0  0  0  0  0  0  0  0  0  0
   -3.1331    1.9695    3.6908 H   0  0  0  0  0  0  0  0  0  0  0  0
   -2.9253    1.5413    1.2115 H   0  0  0  0  0  0  0  0  0  0  0  0
   -1.3133    3.9138    2.3268 H   0  0  0  0  0  0  0  0  0  0  0  0
   -1.9529    3.7988    0.6829 H   0  0  0  0  0  0  0  0  0  0  0  0
   -3.0626    3.8977    2.0629 H   0  0  0  0  0  0  0  0  0  0  0  0
   -0.6635    1.3313    0.0020 N   0  0  0  0  0  0  0  0  0  0  0  0
    0.5138    0.8305   -0.6617 C   0  0  2  0  0  0  0  0  0  0  0  0
    0.9094   -0.4648    0.0382 C   0  0  0  0  0  0  0  0  0  0  0  0
    0.1043   -1.3549    0.3037 O   0  0  0  0  0  0  0  0  0  0  0  0
    1.6723    1.8336   -0.6209 C   0  0  0  0  0  0  0  0  0  0  0  0
    1.3686    3.1068   -1.3721 C   0  0  0  0  0  0  0  0  0  0  0  0
    1.3825    3.1283   -2.7444 N   0  0  0  0  0  0  0  0  0  0  0  0
    1.0572    4.3440   -0.8593 C   0  0  0  0  0  0  0  0  0  0  0  0
    1.0817    4.3677   -3.0628 C   0  0  0  0  0  0  0  0  0  0  0  0
    0.8766    5.1412   -1.9543 N   0  0  0  0  0  0  0  0  0  0  0  0
   -1.4467    1.6280   -0.5753 H   0  0  0  0  0  0  0  0  0  0  0  0
    0.2189    0.6053   -1.6933 H   0  0  0  0  0  0  0  0  0  0  0  0
    2.5861    1.3760   -1.0236 H   0  0  0  0  0  0  0  0  0  0  0  0
    1.9155    2.0966    0.4171 H   0  0  0  0  0  0  0  0  0  0  0  0
    0.9510    4.7201    0.1481 H   0  0  0  0  0  0  0  0  0  0  0  0
    0.9970    4.7652   -4.0644 H   0  0  0  0  0  0  0  0  0  0  0  0
    0.6347    6.1231   -1.9464 H   0  0  0  0  0  0  0  0  0  0  0  0
    2.2741   -0.5268    0.2840 N   0  0  0  0  0  0  0  0  0  0  0  0
    2.9161   -1.6568    0.9161 C   0  0  2  0  0  0  0  0  0  0  0  0
    2.1441   -1.9860    2.1870 C   0  0  0  0  0  0  0  0  0  0  0  0
    1.4335   -1.1701    2.7705 O   0  0  0  0  0  0  0  0  0  0  0  0
    4.3750   -1.3614    1.2274 C   0  0  0  0  0  0  0  0  0  0  0  0
    2.8505    0.2619    0.0055 H   0  0  0  0  0  0  0  0  0  0  0  0
    2.8417   -2.4955    0.2153 H   0  0  0  0  0  0  0  0  0  0  0  0
    4.4696   -0.5238    1.9281 H   0  0  0  0  0  0  0  0  0  0  0  0
    4.8675   -2.2283    1.6802 H   0  0  0  0  0  0  0  0  0  0  0  0
    4.9219   -1.0959    0.3163 H   0  0  0  0  0  0  0  0  0  0  0  0
    2.3761   -3.2850    2.6168 N   0  0  0  0  0  0  0  0  0  0  0  0
    1.7682   -3.8327    3.8070 C   0  0  0  0  0  0  0  0  0  0  0  0
    2.9649   -3.8978    2.0605 H   0  0  0  0  0  0  0  0  0  0  0  0
    2.4400   -3.6821    4.6650 H   0  0  0  0  0  0  0  0  0  0  0  0
    0.8114   -3.3244    3.9970 H   0  0  0  0  0  0  0  0  0  0  0  0
    1.5899   -4.9089    3.6656 H   0  0  0  0  0  0  0  0  0  0  0  0
 22 24  2  0  0  0  0
 24 26  1  0  0  0  0
 23 25  2  0  0  0  0
 25 26  1  0  0  0  0
 21 22  1  0  0  0  0
 22 23  1  0  0  0  0
  1  3  1  0  0  0  0
  1  7  1  0  0  0  0
  1  2  2  0  0  0  0
 35 36  1  0  0  0  0
 36 44  1  0  0  0  0
 36 37  2  0  0  0  0
  8  9  1  0  0  0  0
  9 17  1  0  0  0  0
  9 10  2  0  0  0  0
 18 19  1  0  0  0  0
 19 34  1  0  0  0  0
 19 20  2  0  0  0  0
 35 38  1  0  0  0  0
  8 11  1  0  0  0  0
 44 45  1  0  0  0  0
 18 21  1  0  0  0  0
 34 35  1  0  0  0  0
  7  8  1  0  0  0  0
 17 18  1  0  0  0  0
 24 31  1  0  0  0  0
 25 32  1  0  0  0  0
  3  4  1  0  0  0  0
  3  5  1  0  0  0  0
  3  6  1  0  0  0  0
 38 41  1  0  0  0  0
 38 42  1  0  0  0  0
 38 43  1  0  0  0  0
 11 14  1  0  0  0  0
 11 15  1  0  0  0  0
 11 16  1  0  0  0  0
 45 47  1  0  0  0  0
 45 48  1  0  0  0  0
 45 49  1  0  0  0  0
 21 29  1  0  0  0  0
 21 30  1  0  0  0  0
 35 40  1  0  0  0  0
  8 13  1  0  0  0  0
 18 28  1  0  0  0  0
 26 33  1  0  0  0  0
 44 46  1  0  0  0  0
  7 12  1  0  0  0  0
 34 39  1  0  0  0  0
 17 27  1  0  0  0  0
M  END
$$$$

  -OEChem-05262214473D

 49 49  0     1  0  0  0  0  0999 V2000
   -1.6183    0.5613    3.8201 C   0  0  0  0  0  0  0  0  0  0  0  0
   -0.6710   -0.0534    3.3444 O   0  0  0  0  0  0  0  0  0  0  0  0
   -2.0502    0.2789    5.2208 C   0  0  0  0  0  0  0  0  0  0  0  0
   -2.8099   -0.5175    5.2742 H   0  0  0  0  0  0  0  0  0  0  0  0
   -1.2190   -0.0687    5.8551 H   0  0  0  0  0  0  0  0  0  0  0  0
   -2.4882    1.1338    5.7604 H   0  0  0  0  0  0  0  0  0  0  0  0
   -2.3680    1.5337    3.1790 N   0  0  0  0  0  0  0  0  0  0  0  0
   -2.1212    1.9597    1.8266 C   0  0  2  0  0  0  0  0  0  0  0  0
   -0.7862    1.3744    1.3854 C   0  0  0  0  0  0  0  0  0  0  0  0
    0.0859    1.0216    2.1767 O   0  0  0  0  0  0  0  0  0  0  0  0
   -2.1124    3.4765    1.7171 C   0  0  0  0  0  0  0  0  0  0  0  0
   -3.1331    1.9695    3.6908 H   0  0  0  0  0  0  0  0  0  0  0  0
   -2.9253    1.5413    1.2115 H   0  0  0  0  0  0  0  0  0  0  0  0
   -1.3133    3.9138    2.3268 H   0  0  0  0  0  0  0  0  0  0  0  0
   -1.9529    3.7988    0.6829 H   0  0  0  0  0  0  0  0  0  0  0  0
   -3.0626    3.8977    2.0629 H   0  0  0  0  0  0  0  0  0  0  0  0
   -0.6635    1.3313    0.0020 N   0  0  0  0  0  0  0  0  0  0  0  0
    0.5138    0.8305   -0.6617 C   0  0  2  0  0  0  0  0  0  0  0  0
    0.9094   -0.4648    0.0382 C   0  0  0  0  0  0  0  0  0  0  0  0
    0.1850   -1.4574    0.0683 O   0  0  0  0  0  0  0  0  0  0  0  0
    1.6723    1.8336   -0.6209 C   0  0  0  0  0  0  0  0  0  0  0  0
    1.3686    3.1068   -1.3721 C   0  0  0  0  0  0  0  0  0  0  0  0
    1.3825    3.1283   -2.7444 N   0  0  0  0  0  0  0  0  0  0  0  0
    1.0572    4.3440   -0.8593 C   0  0  0  0  0  0  0  0  0  0  0  0
    1.0817    4.3677   -3.0628 C   0  0  0  0  0  0  0  0  0  0  0  0
    0.8766    5.1412   -1.9543 N   0  0  0  0  0  0  0  0  0  0  0  0
   -1.4467    1.6280   -0.5753 H   0  0  0  0  0  0  0  0  0  0  0  0
    0.2189    0.6053   -1.6933 H   0  0  0  0  0  0  0  0  0  0  0  0
    2.5861    1.3760   -1.0236 H   0  0  0  0  0  0  0  0  0  0  0  0
    1.9155    2.0966    0.4171 H   0  0  0  0  0  0  0  0  0  0  0  0
    0.9510    4.7201    0.1481 H   0  0  0  0  0  0  0  0  0  0  0  0
    0.9970    4.7652   -4.0644 H   0  0  0  0  0  0  0  0  0  0  0  0
    0.6347    6.1231   -1.9464 H   0  0  0  0  0  0  0  0  0  0  0  0
    2.1855   -0.3941    0.5796 N   0  0  0  0  0  0  0  0  0  0  0  0
    2.8134   -1.4928    1.2777 C   0  0  2  0  0  0  0  0  0  0  0  0
    1.8332   -2.0070    2.3238 C   0  0  0  0  0  0  0  0  0  0  0  0
    0.9162   -1.3249    2.7764 O   0  0  0  0  0  0  0  0  0  0  0  0
    4.1215   -1.0629    1.9233 C   0  0  0  0  0  0  0  0  0  0  0  0
    2.7041    0.4737    0.4803 H   0  0  0  0  0  0  0  0  0  0  0  0
    2.9986   -2.2755    0.5339 H   0  0  0  0  0  0  0  0  0  0  0  0
    3.9560   -0.2791    2.6715 H   0  0  0  0  0  0  0  0  0  0  0  0
    4.6101   -1.9032    2.4275 H   0  0  0  0  0  0  0  0  0  0  0  0
    4.8141   -0.6656    1.1735 H   0  0  0  0  0  0  0  0  0  0  0  0
    2.1291   -3.3025    2.7240 N   0  0  0  0  0  0  0  0  0  0  0  0
    1.3529   -4.0084    3.7166 C   0  0  0  0  0  0  0  0  0  0  0  0
    2.8968   -3.7992    2.2815 H   0  0  0  0  0  0  0  0  0  0  0  0
    1.7991   -3.8535    4.7100 H   0  0  0  0  0  0  0  0  0  0  0  0
    0.3212   -3.6267    3.7145 H   0  0  0  0  0  0  0  0  0  0  0  0
    1.3468   -5.0829    3.4810 H   0  0  0  0  0  0  0  0  0  0  0  0
 22 24  2  0  0  0  0
 24 26  1  0  0  0  0
 23 25  2  0  0  0  0
 25 26  1  0  0  0  0
 21 22  1  0  0  0  0
 22 23  1  0  0  0  0
  1  3  1  0  0  0  0
  1  7  1  0  0  0  0
  1  2  2  0  0  0  0
 35 36  1  0  0  0  0
 36 44  1  0  0  0  0
 36 37  2  0  0  0  0
  8  9  1  0  0  0  0
  9 17  1  0  0  0  0
  9 10  2  0  0  0  0
 18 19  1  0  0  0  0
 19 34  1  0  0  0  0
 19 20  2  0  0  0  0
 35 38  1  0  0  0  0
  8 11  1  0  0  0  0
 44 45  1  0  0  0  0
 18 21  1  0  0  0  0
 34 35  1  0  0  0  0
  7  8  1  0  0  0  0
 17 18  1  0  0  0  0
 24 31  1  0  0  0  0
 25 32  1  0  0  0  0
  3  4  1  0  0  0  0
  3  5  1  0  0  0  0
  3  6  1  0  0  0  0
 38 41  1  0  0  0  0
 38 42  1  0  0  0  0
 38 43  1  0  0  0  0
 11 14  1  0  0  0  0
 11 15  1  0  0  0  0
 11 16  1  0  0  0  0
 45 47  1  0  0  0  0
 45 48  1  0  0  0  0
 45 49  1  0  0  0  0
 21 29  1  0  0  0  0
 21 30  1  0  0  0  0
 35 40  1  0  0  0  0
  8 13  1  0  0  0  0
 18 28  1  0  0  0  0
 26 33  1  0  0  0  0
 44 46  1  0  0  0  0
  7 12  1  0  0  0  0
 34 39  1  0  0  0  0
 17 27  1  0  0  0  0
M  END
$$$$

  -OEChem-05262214473D

 49 49  0     1  0  0  0  0  0999 V2000
   -1.6183    0.5613    3.8201 C   0  0  0  0  0  0  0  0  0  0  0  0
   -0.6710   -0.0534    3.3444 O   0  0  0  0  0  0  0  0  0  0  0  0
   -2.0502    0.2789    5.2208 C   0  0  0  0  0  0  0  0  0  0  0  0
   -2.8099   -0.5175    5.2742 H   0  0  0  0  0  0  0  0  0  0  0  0
   -1.2190   -0.0687    5.8551 H   0  0  0  0  0  0  0  0  0  0  0  0
   -2.4882    1.1338    5.7604 H   0  0  0  0  0  0  0  0  0  0  0  0
   -2.3680    1.5337    3.1790 N   0  0  0  0  0  0  0  0  0  0  0  0
   -2.1212    1.9597    1.8266 C   0  0  2  0  0  0  0  0  0  0  0  0
   -0.7862    1.3744    1.3854 C   0  0  0  0  0  0  0  0  0  0  0  0
    0.0859    1.0216    2.1767 O   0  0  0  0  0  0  0  0  0  0  0  0
   -2.1124    3.4765    1.7171 C   0  0  0  0  0  0  0  0  0  0  0  0
   -3.1331    1.9695    3.6908 H   0  0  0  0  0  0  0  0  0  0  0  0
   -2.9253    1.5413    1.2115 H   0  0  0  0  0  0  0  0  0  0  0  0
   -1.3133    3.9138    2.3268 H   0  0  0  0  0  0  0  0  0  0  0  0
   -1.9529    3.7988    0.6829 H   0  0  0  0  0  0  0  0  0  0  0  0
   -3.0626    3.8977    2.0629 H   0  0  0  0  0  0  0  0  0  0  0  0
   -0.6635    1.3313    0.0020 N   0  0  0  0  0  0  0  0  0  0  0  0
    0.5138    0.8305   -0.6617 C   0  0  2  0  0  0  0  0  0  0  0  0
    0.9094   -0.4648    0.0382 C   0  0  0  0  0  0  0  0  0  0  0  0
    0.3269   -1.5310   -0.1482 O   0  0  0  0  0  0  0  0  0  0  0  0
    1.6723    1.8336   -0.6209 C   0  0  0  0  0  0  0  0  0  0  0  0
    1.3686    3.1068   -1.3721 C   0  0  0  0  0  0  0  0  0  0  0  0
    1.3825    3.1283   -2.7444 N   0  0  0  0  0  0  0  0  0  0  0  0
    1.0572    4.3440   -0.8593 C   0  0  0  0  0  0  0  0  0  0  0  0
    1.0817    4.3677   -3.0628 C   0  0  0  0  0  0  0  0  0  0  0  0
    0.8766    5.1412   -1.9543 N   0  0  0  0  0  0  0  0  0  0  0  0
   -1.4467    1.6280   -0.5753 H   0  0  0  0  0  0  0  0  0  0  0  0
    0.2189    0.6053   -1.6933 H   0  0  0  0  0  0  0  0  0  0  0  0
    2.5861    1.3760   -1.0236 H   0  0  0  0  0  0  0  0  0  0  0  0
    1.9155    2.0966    0.4171 H   0  0  0  0  0  0  0  0  0  0  0  0
    0.9510    4.7201    0.1481 H   0  0  0  0  0  0  0  0  0  0  0  0
    0.9970    4.7652   -4.0644 H   0  0  0  0  0  0  0  0  0  0  0  0
    0.6347    6.1231   -1.9464 H   0  0  0  0  0  0  0  0  0  0  0  0
    2.0191   -0.2963    0.8547 N   0  0  0  0  0  0  0  0  0  0  0  0
    2.6152   -1.3708    1.6154 C   0  0  2  0  0  0  0  0  0  0  0  0
    1.5054   -2.0735    2.3861 C   0  0  0  0  0  0  0  0  0  0  0  0
    0.4336   -1.5363    2.6580 O   0  0  0  0  0  0  0  0  0  0  0  0
    3.6881   -0.8514    2.5598 C   0  0  0  0  0  0  0  0  0  0  0  0
    2.4331    0.6289    0.9209 H   0  0  0  0  0  0  0  0  0  0  0  0
    3.0540   -2.0656    0.8909 H   0  0  0  0  0  0  0  0  0  0  0  0
    3.2673   -0.1536    3.2930 H   0  0  0  0  0  0  0  0  0  0  0  0
    4.1585   -1.6699    3.1146 H   0  0  0  0  0  0  0  0  0  0  0  0
    4.4704   -0.3205    2.0066 H   0  0  0  0  0  0  0  0  0  0  0  0
    1.8692   -3.3560    2.7721 N   0  0  0  0  0  0  0  0  0  0  0  0
    0.9925   -4.2214    3.5260 C   0  0  0  0  0  0  0  0  0  0  0  0
    2.7707   -3.7269    2.4866 H   0  0  0  0  0  0  0  0  0  0  0  0
    1.1905   -4.0982    4.6010 H   0  0  0  0  0  0  0  0  0  0  0  0
   -0.0541   -3.9580    3.3136 H   0  0  0  0  0  0  0  0  0  0  0  0
    1.1732   -5.2675    3.2376 H   0  0  0  0  0  0  0  0  0  0  0  0
 22 24  2  0  0  0  0
 24 26  1  0  0  0  0
 23 25  2  0  0  0  0
 25 26  1  0  0  0  0
 21 22  1  0  0  0  0
 22 23  1  0  0  0  0
  1  3  1  0  0  0  0
  1  7  1  0  0  0  0
  1  2  2  0  0  0  0
 35 36  1  0  0  0  0
 36 44  1  0  0  0  0
 36 37  2  0  0  0  0
  8  9  1  0  0  0  0
  9 17  1  0  0  0  0
  9 10  2  0  0  0  0
 18 19  1  0  0  0  0
 19 34  1  0  0  0  0
 19 20  2  0  0  0  0
 35 38  1  0  0  0  0
  8 11  1  0  0  0  0
 44 45  1  0  0  0  0
 18 21  1  0  0  0  0
 34 35  1  0  0  0  0
  7  8  1  0  0  0  0
 17 18  1  0  0  0  0
 24 31  1  0  0  0  0
 25 32  1  0  0  0  0
  3  4  1  0  0  0  0
  3  5  1  0  0  0  0
  3  6  1  0  0  0  0
 38 41  1  0  0  0  0
 38 42  1  0  0  0  0
 38 43  1  0  0  0  0
 11 14  1  0  0  0  0
 11 15  1  0  0  0  0
 11 16  1  0  0  0  0
 45 47  1  0  0  0  0
 45 48  1  0  0  0  0
 45 49  1  0  0  0  0
 21 29  1  0  0  0  0
 21 30  1  0  0  0  0
 35 40  1  0  0  0  0
  8 13  1  0  0  0  0
 18 28  1  0  0  0  0
 26 33  1  0  0  0  0
 44 46  1  0  0  0  0
  7 12  1  0  0  0  0
 34 39  1  0  0  0  0
 17 27  1  0  0  0  0
M  END
$$$$

  -OEChem-05262214473D

 49 49  0     1  0  0  0  0  0999 V2000
   -1.6183    0.5613    3.8201 C   0  0  0  0  0  0  0  0  0  0  0  0
   -0.6710   -0.0534    3.3444 O   0  0  0  0  0  0  0  0  0  0  0  0
   -2.0502    0.2789    5.2208 C   0  0  0  0  0  0  0  0  0  0  0  0
   -2.8099   -0.5175    5.2742 H   0  0  0  0  0  0  0  0  0  0  0  0
   -1.2190   -0.0687    5.8551 H   0  0  0  0  0  0  0  0  0  0  0  0
   -2.4882    1.1338    5.7604 H   0  0  0  0  0  0  0  0  0  0  0  0
   -2.3680    1.5337    3.1790 N   0  0  0  0  0  0  0  0  0  0  0  0
   -2.1212    1.9597    1.8266 C   0  0  2  0  0  0  0  0  0  0  0  0
   -0.7862    1.3744    1.3854 C   0  0  0  0  0  0  0  0  0  0  0  0
    0.0859    1.0216    2.1767 O   0  0  0  0  0  0  0  0  0  0  0  0
   -2.1124    3.4765    1.7171 C   0  0  0  0  0  0  0  0  0  0  0  0
   -3.1331    1.9695    3.6908 H   0  0  0  0  0  0  0  0  0  0  0  0
   -2.9253    1.5413    1.2115 H   0  0  0  0  0  0  0  0  0  0  0  0
   -1.3133    3.9138    2.3268 H   0  0  0  0  0  0  0  0  0  0  0  0
   -1.9529    3.7988    0.6829 H   0  0  0  0  0  0  0  0  0  0  0  0
   -3.0626    3.8977    2.0629 H   0  0  0  0  0  0  0  0  0  0  0  0
   -0.6635    1.3313    0.0020 N   0  0  0  0  0  0  0  0  0  0  0  0
    0.5138    0.8305   -0.6617 C   0  0  2  0  0  0  0  0  0  0  0  0
    0.9094   -0.4648    0.0382 C   0  0  0  0  0  0  0  0  0  0  0  0
    0.5204   -1.5708   -0.3311 O   0  0  0  0  0  0  0  0  0  0  0  0
    1.6723    1.8336   -0.6209 C   0  0  0  0  0  0  0  0  0  0  0  0
    1.3686    3.1068   -1.3721 C   0  0  0  0  0  0  0  0  0  0  0  0
    1.3825    3.1283   -2.7444 N   0  0  0  0  0  0  0  0  0  0  0  0
    1.0572    4.3440   -0.8593 C   0  0  0  0  0  0  0  0  0  0  0  0
    1.0817    4.3677   -3.0628 C   0  0  0  0  0  0  0  0  0  0  0  0
    0.8766    5.1412   -1.9543 N   0  0  0  0  0  0  0  0  0  0  0  0
   -1.4467    1.6280   -0.5753 H   0  0  0  0  0  0  0  0  0  0  0  0
    0.2189    0.6053   -1.6933 H   0  0  0  0  0  0  0  0  0  0  0  0
    2.5861    1.3760   -1.0236 H   0  0  0  0  0  0  0  0  0  0  0  0
    1.9155    2.0966    0.4171 H   0  0  0  0  0  0  0  0  0  0  0  0
    0.9510    4.7201    0.1481 H   0  0  0  0  0  0  0  0  0  0  0  0
    0.9970    4.7652   -4.0644 H   0  0  0  0  0  0  0  0  0  0  0  0
    0.6347    6.1231   -1.9464 H   0  0  0  0  0  0  0  0  0  0  0  0
    1.7863   -0.2400    1.0903 N   0  0  0  0  0  0  0  0  0  0  0  0
    2.3351   -1.2993    1.9062 C   0  0  2  0  0  0  0  0  0  0  0  0
    1.1829   -2.1808    2.3698 C   0  0  0  0  0  0  0  0  0  0  0  0
    0.0187   -1.7899    2.4232 O   0  0  0  0  0  0  0  0  0  0  0  0
    3.1043   -0.7413    3.0934 C   0  0  0  0  0  0  0  0  0  0  0  0
    2.0559    0.7172    1.2974 H   0  0  0  0  0  0  0  0  0  0  0  0
    3.0040   -1.8804    1.2621 H   0  0  0  0  0  0  0  0  0  0  0  0
    2.4505   -0.1560    3.7503 H   0  0  0  0  0  0  0  0  0  0  0  0
    3.5434   -1.5444    3.6946 H   0  0  0  0  0  0  0  0  0  0  0  0
    3.9141   -0.0839    2.7590 H   0  0  0  0  0  0  0  0  0  0  0  0
    1.6138   -3.4417    2.7577 N   0  0  0  0  0  0  0  0  0  0  0  0
    0.7116   -4.4572    3.2484 C   0  0  0  0  0  0  0  0  0  0  0  0
    2.5951   -3.6858    2.6619 H   0  0  0  0  0  0  0  0  0  0  0  0
    0.6558   -4.3996    4.3455 H   0  0  0  0  0  0  0  0  0  0  0  0
   -0.2892   -4.2957    2.8215 H   0  0  0  0  0  0  0  0  0  0  0  0
    1.0810   -5.4500    2.9518 H   0  0  0  0  0  0  0  0  0  0  0  0
 22 24  2  0  0  0  0
 24 26  1  0  0  0  0
 23 25  2  0  0  0  0
 25 26  1  0  0  0  0
 21 22  1  0  0  0  0
 22 23  1  0  0  0  0
  1  3  1  0  0  0  0
  1  7  1  0  0  0  0
  1  2  2  0  0  0  0
 35 36  1  0  0  0  0
 36 44  1  0  0  0  0
 36 37  2  0  0  0  0
  8  9  1  0  0  0  0
  9 17  1  0  0  0  0
  9 10  2  0  0  0  0
 18 19  1  0  0  0  0
 19 34  1  0  0  0  0
 19 20  2  0  0  0  0
 35 38  1  0  0  0  0
  8 11  1  0  0  0  0
 44 45  1  0  0  0  0
 18 21  1  0  0  0  0
 34 35  1  0  0  0  0
  7  8  1  0  0  0  0
 17 18  1  0  0  0  0
 24 31  1  0  0  0  0
 25 32  1  0  0  0  0
  3  4  1  0  0  0  0
  3  5  1  0  0  0  0
  3  6  1  0  0  0  0
 38 41  1  0  0  0  0
 38 42  1  0  0  0  0
 38 43  1  0  0  0  0
 11 14  1  0  0  0  0
 11 15  1  0  0  0  0
 11 16  1  0  0  0  0
 45 47  1  0  0  0  0
 45 48  1  0  0  0  0
 45 49  1  0  0  0  0
 21 29  1  0  0  0  0
 21 30  1  0  0  0  0
 35 40  1  0  0  0  0
  8 13  1  0  0  0  0
 18 28  1  0  0  0  0
 26 33  1  0  0  0  0
 44 46  1  0  0  0  0
  7 12  1  0  0  0  0
 34 39  1  0  0  0  0
 17 27  1  0  0  0  0
M  END
$$$$

  -OEChem-05262214473D

 49 49  0     1  0  0  0  0  0999 V2000
   -1.6183    0.5613    3.8201 C   0  0  0  0  0  0  0  0  0  0  0  0
   -0.6710   -0.0534    3.3444 O   0  0  0  0  0  0  0  0  0  0  0  0
   -2.0502    0.2789    5.2208 C   0  0  0  0  0  0  0  0  0  0  0  0
   -2.8099   -0.5175    5.2742 H   0  0  0  0  0  0  0  0  0  0  0  0
   -1.2190   -0.0687    5.8551 H   0  0  0  0  0  0  0  0  0  0  0  0
   -2.4882    1.1338    5.7604 H   0  0  0  0  0  0  0  0  0  0  0  0
   -2.3680    1.5337    3.1790 N   0  0  0  0  0  0  0  0  0  0  0  0
   -2.1212    1.9597    1.8266 C   0  0  2  0  0  0  0  0  0  0  0  0
   -0.7862    1.3744    1.3854 C   0  0  0  0  0  0  0  0  0  0  0  0
    0.0859    1.0216    2.1767 O   0  0  0  0  0  0  0  0  0  0  0  0
   -2.1124    3.4765    1.7171 C   0  0  0  0  0  0  0  0  0  0  0  0
   -3.1331    1.9695    3.6908 H   0  0  0  0  0  0  0  0  0  0  0  0
   -2.9253    1.5413    1.2115 H   0  0  0  0  0  0  0  0  0  0  0  0
   -1.3133    3.9138    2.3268 H   0  0  0  0  0  0  0  0  0  0  0  0
   -1.9529    3.7988    0.6829 H   0  0  0  0  0  0  0  0  0  0  0  0
   -3.0626    3.8977    2.0629 H   0  0  0  0  0  0  0  0  0  0  0  0
   -0.6635    1.3313    0.0020 N   0  0  0  0  0  0  0  0  0  0  0  0
    0.5138    0.8305   -0.6617 C   0  0  2  0  0  0  0  0  0  0  0  0
    0.9094   -0.4648    0.0382 C   0  0  0  0  0  0  0  0  0  0  0  0
    0.7522   -1.5739   -0.4679 O   0  0  0  0  0  0  0  0  0  0  0  0
    1.6723    1.8336   -0.6209 C   0  0  0  0  0  0  0  0  0  0  0  0
    1.3686    3.1068   -1.3721 C   0  0  0  0  0  0  0  0  0  0  0  0
    1.3825    3.1283   -2.7444 N   0  0  0  0  0  0  0  0  0  0  0  0
    1.0572    4.3440   -0.8593 C   0  0  0  0  0  0  0  0  0  0  0  0
    1.0817    4.3677   -3.0628 C   0  0  0  0  0  0  0  0  0  0  0  0
    0.8766    5.1412   -1.9543 N   0  0  0  0  0  0  0  0  0  0  0  0
   -1.4467    1.6280   -0.5753 H   0  0  0  0  0  0  0  0  0  0  0  0
    0.2189    0.6053   -1.6933 H   0  0  0  0  0  0  0  0  0  0  0  0
    2.5861    1.3760   -1.0236 H   0  0  0  0  0  0  0  0  0  0  0  0
    1.9155    2.0966    0.4171 H   0  0  0  0  0  0  0  0  0  0  0  0
    0.9510    4.7201    0.1481 H   0  0  0  0  0  0  0  0  0  0  0  0
    0.9970    4.7652   -4.0644 H   0  0  0  0  0  0  0  0  0  0  0  0
    0.6347    6.1231   -1.9464 H   0  0  0  0  0  0  0  0  0  0  0  0
    1.5029   -0.2292    1.2706 N   0  0  0  0  0  0  0  0  0  0  0  0
    1.9920   -1.2830    2.1303 C   0  0  2  0  0  0  0  0  0  0  0  0
    0.8877   -2.3217    2.2759 C   0  0  0  0  0  0  0  0  0  0  0  0
   -0.3004   -2.0684    2.0882 O   0  0  0  0  0  0  0  0  0  0  0  0
    2.4101   -0.7402    3.4880 C   0  0  0  0  0  0  0  0  0  0  0  0
    1.5984    0.7323    1.5840 H   0  0  0  0  0  0  0  0  0  0  0  0
    2.8521   -1.7323    1.6220 H   0  0  0  0  0  0  0  0  0  0  0  0
    1.5613   -0.2861    4.0123 H   0  0  0  0  0  0  0  0  0  0  0  0
    2.8069   -1.5351    4.1280 H   0  0  0  0  0  0  0  0  0  0  0  0
    3.1832    0.0280    3.3793 H   0  0  0  0  0  0  0  0  0  0  0  0
    1.3805   -3.5539    2.6819 N   0  0  0  0  0  0  0  0  0  0  0  0
    0.5294   -4.6997    2.9027 C   0  0  0  0  0  0  0  0  0  0  0  0
    2.3822   -3.6788    2.7953 H   0  0  0  0  0  0  0  0  0  0  0  0
    0.2312   -4.7372    3.9609 H   0  0  0  0  0  0  0  0  0  0  0  0
   -0.3679   -4.6168    2.2718 H   0  0  0  0  0  0  0  0  0  0  0  0
    1.0764   -5.6181    2.6433 H   0  0  0  0  0  0  0  0  0  0  0  0
 22 24  2  0  0  0  0
 24 26  1  0  0  0  0
 23 25  2  0  0  0  0
 25 26  1  0  0  0  0
 21 22  1  0  0  0  0
 22 23  1  0  0  0  0
  1  3  1  0  0  0  0
  1  7  1  0  0  0  0
  1  2  2  0  0  0  0
 35 36  1  0  0  0  0
 36 44  1  0  0  0  0
 36 37  2  0  0  0  0
  8  9  1  0  0  0  0
  9 17  1  0  0  0  0
  9 10  2  0  0  0  0
 18 19  1  0  0  0  0
 19 34  1  0  0  0  0
 19 20  2  0  0  0  0
 35 38  1  0  0  0  0
  8 11  1  0  0  0  0
 44 45  1  0  0  0  0
 18 21  1  0  0  0  0
 34 35  1  0  0  0  0
  7  8  1  0  0  0  0
 17 18  1  0  0  0  0
 24 31  1  0  0  0  0
 25 32  1  0  0  0  0
  3  4  1  0  0  0  0
  3  5  1  0  0  0  0
  3  6  1  0  0  0  0
 38 41  1  0  0  0  0
 38 42  1  0  0  0  0
 38 43  1  0  0  0  0
 11 14  1  0  0  0  0
 11 15  1  0  0  0  0
 11 16  1  0  0  0  0
 45 47  1  0  0  0  0
 45 48  1  0  0  0  0
 45 49  1  0  0  0  0
 21 29  1  0  0  0  0
 21 30  1  0  0  0  0
 35 40  1  0  0  0  0
  8 13  1  0  0  0  0
 18 28  1  0  0  0  0
 26 33  1  0  0  0  0
 44 46  1  0  0  0  0
  7 12  1  0  0  0  0
 34 39  1  0  0  0  0
 17 27  1  0  0  0  0
M  END
$$$$

  -OEChem-05262214473D

 49 49  0     1  0  0  0  0  0999 V2000
   -1.6183    0.5613    3.8201 C   0  0  0  0  0  0  0  0  0  0  0  0
   -0.6710   -0.0534    3.3444 O   0  0  0  0  0  0  0  0  0  0  0  0
   -2.0502    0.2789    5.2208 C   0  0  0  0  0  0  0  0  0  0  0  0
   -2.8099   -0.5175    5.2742 H   0  0  0  0  0  0  0  0  0  0  0  0
   -1.2190   -0.0687    5.8551 H   0  0  0  0  0  0  0  0  0  0  0  0
   -2.4882    1.1338    5.7604 H   0  0  0  0  0  0  0  0  0  0  0  0
   -2.3680    1.5337    3.1790 N   0  0  0  0  0  0  0  0  0  0  0  0
   -2.1212    1.9597    1.8266 C   0  0  2  0  0  0  0  0  0  0  0  0
   -0.7862    1.3744    1.3854 C   0  0  0  0  0  0  0  0  0  0  0  0
    0.0859    1.0216    2.1767 O   0  0  0  0  0  0  0  0  0  0  0  0
   -2.1124    3.4765    1.7171 C   0  0  0  0  0  0  0  0  0  0  0  0
   -3.1331    1.9695    3.6908 H   0  0  0  0  0  0  0  0  0  0  0  0
   -2.9253    1.5413    1.2115 H   0  0  0  0  0  0  0  0  0  0  0  0
   -1.3133    3.9138    2.3268 H   0  0  0  0  0  0  0  0  0  0  0  0
   -1.9529    3.7988    0.6829 H   0  0  0  0  0  0  0  0  0  0  0  0
   -3.0626    3.8977    2.0629 H   0  0  0  0  0  0  0  0  0  0  0  0
   -0.6635    1.3313    0.0020 N   0  0  0  0  0  0  0  0  0  0  0  0
    0.5138    0.8305   -0.6617 C   0  0  2  0  0  0  0  0  0  0  0  0
    0.9094   -0.4648    0.0382 C   0  0  0  0  0  0  0  0  0  0  0  0
    1.0065   -1.5401   -0.5493 O   0  0  0  0  0  0  0  0  0  0  0  0
    1.6723    1.8336   -0.6209 C   0  0  0  0  0  0  0  0  0  0  0  0
    1.3686    3.1068   -1.3721 C   0  0  0  0  0  0  0  0  0  0  0  0
    1.3825    3.1283   -2.7444 N   0  0  0  0  0  0  0  0  0  0  0  0
    1.0572    4.3440   -0.8593 C   0  0  0  0  0  0  0  0  0  0  0  0
    1.0817    4.3677   -3.0628 C   0  0  0  0  0  0  0  0  0  0  0  0
    0.8766    5.1412   -1.9543 N   0  0  0  0  0  0  0  0  0  0  0  0
   -1.4467    1.6280   -0.5753 H   0  0  0  0  0  0  0  0  0  0  0  0
    0.2189    0.6053   -1.6933 H   0  0  0  0  0  0  0  0  0  0  0  0
    2.5861    1.3760   -1.0236 H   0  0  0  0  0  0  0  0  0  0  0  0
    1.9155    2.0966    0.4171 H   0  0  0  0  0  0  0  0  0  0  0  0
    0.9510    4.7201    0.1481 H   0  0  0  0  0  0  0  0  0  0  0  0
    0.9970    4.7652   -4.0644 H   0  0  0  0  0  0  0  0  0  0  0  0
    0.6347    6.1231   -1.9464 H   0  0  0  0  0  0  0  0  0  0  0  0
    1.1883   -0.2645    1.3830 N   0  0  0  0  0  0  0  0  0  0  0  0
    1.6094   -1.3231    2.2724 C   0  0  2  0  0  0  0  0  0  0  0  0
    0.6400   -2.4866    2.1108 C   0  0  0  0  0  0  0  0  0  0  0  0
   -0.5019   -2.3528    1.6757 O   0  0  0  0  0  0  0  0  0  0  0  0
    1.6525   -0.8482    3.7164 C   0  0  0  0  0  0  0  0  0  0  0  0
    1.0916    0.6732    1.7612 H   0  0  0  0  0  0  0  0  0  0  0  0
    2.6086   -1.6315    1.9462 H   0  0  0  0  0  0  0  0  0  0  0  0
    0.6602   -0.5350    4.0610 H   0  0  0  0  0  0  0  0  0  0  0  0
    1.9991   -1.6429    4.3853 H   0  0  0  0  0  0  0  0  0  0  0  0
    2.3275    0.0076    3.8253 H   0  0  0  0  0  0  0  0  0  0  0  0
    1.1852   -3.6849    2.5499 N   0  0  0  0  0  0  0  0  0  0  0  0
    0.4582   -4.9323    2.5124 C   0  0  0  0  0  0  0  0  0  0  0  0
    2.1463   -3.7062    2.8778 H   0  0  0  0  0  0  0  0  0  0  0  0
   -0.0542   -5.0878    3.4733 H   0  0  0  0  0  0  0  0  0  0  0  0
   -0.2849   -4.8993    1.7019 H   0  0  0  0  0  0  0  0  0  0  0  0
    1.1598   -5.7603    2.3330 H   0  0  0  0  0  0  0  0  0  0  0  0
 22 24  2  0  0  0  0
 24 26  1  0  0  0  0
 23 25  2  0  0  0  0
 25 26  1  0  0  0  0
 21 22  1  0  0  0  0
 22 23  1  0  0  0  0
  1  3  1  0  0  0  0
  1  7  1  0  0  0  0
  1  2  2  0  0  0  0
 35 36  1  0  0  0  0
 36 44  1  0  0  0  0
 36 37  2  0  0  0  0
  8  9  1  0  0  0  0
  9 17  1  0  0  0  0
  9 10  2  0  0  0  0
 18 19  1  0  0  0  0
 19 34  1  0  0  0  0
 19 20  2  0  0  0  0
 35 38  1  0  0  0  0
  8 11  1  0  0  0  0
 44 45  1  0  0  0  0
 18 21  1  0  0  0  0
 34 35  1  0  0  0  0
  7  8  1  0  0  0  0
 17 18  1  0  0  0  0
 24 31  1  0  0  0  0
 25 32  1  0  0  0  0
  3  4  1  0  0  0  0
  3  5  1  0  0  0  0
  3  6  1  0  0  0  0
 38 41  1  0  0  0  0
 38 42  1  0  0  0  0
 38 43  1  0  0  0  0
 11 14  1  0  0  0  0
 11 15  1  0  0  0  0
 11 16  1  0  0  0  0
 45 47  1  0  0  0  0
 45 48  1  0  0  0  0
 45 49  1  0  0  0  0
 21 29  1  0  0  0  0
 21 30  1  0  0  0  0
 35 40  1  0  0  0  0
  8 13  1  0  0  0  0
 18 28  1  0  0  0  0
 26 33  1  0  0  0  0
 44 46  1  0  0  0  0
  7 12  1  0  0  0  0
 34 39  1  0  0  0  0
 17 27  1  0  0  0  0
M  END
$$$$

  -OEChem-05262214473D

 49 49  0     1  0  0  0  0  0999 V2000
   -1.6183    0.5613    3.8201 C   0  0  0  0  0  0  0  0  0  0  0  0
   -0.6710   -0.0534    3.3444 O   0  0  0  0  0  0  0  0  0  0  0  0
   -2.0502    0.2789    5.2208 C   0  0  0  0  0  0  0  0  0  0  0  0
   -2.8099   -0.5175    5.2742 H   0  0  0  0  0  0  0  0  0  0  0  0
   -1.2190   -0.0687    5.8551 H   0  0  0  0  0  0  0  0  0  0  0  0
   -2.4882    1.1338    5.7604 H   0  0  0  0  0  0  0  0  0  0  0  0
   -2.3680    1.5337    3.1790 N   0  0  0  0  0  0  0  0  0  0  0  0
   -2.1212    1.9597    1.8266 C   0  0  2  0  0  0  0  0  0  0  0  0
   -0.7862    1.3744    1.3854 C   0  0  0  0  0  0  0  0  0  0  0  0
    0.0859    1.0216    2.1767 O   0  0  0  0  0  0  0  0  0  0  0  0
   -2.1124    3.4765    1.7171 C   0  0  0  0  0  0  0  0  0  0  0  0
   -3.1331    1.9695    3.6908 H   0  0  0  0  0  0  0  0  0  0  0  0
   -2.9253    1.5413    1.2115 H   0  0  0  0  0  0  0  0  0  0  0  0
   -1.3133    3.9138    2.3268 H   0  0  0  0  0  0  0  0  0  0  0  0
   -1.9529    3.7988    0.6829 H   0  0  0  0  0  0  0  0  0  0  0  0
   -3.0626    3.8977    2.0629 H   0  0  0  0  0  0  0  0  0  0  0  0
   -0.6635    1.3313    0.0020 N   0  0  0  0  0  0  0  0  0  0  0  0
    0.5138    0.8305   -0.6617 C   0  0  2  0  0  0  0  0  0  0  0  0
    0.9094   -0.4648    0.0382 C   0  0  0  0  0  0  0  0  0  0  0  0
    1.2661   -1.4719   -0.5697 O   0  0  0  0  0  0  0  0  0  0  0  0
    1.6723    1.8336   -0.6209 C   0  0  0  0  0  0  0  0  0  0  0  0
    1.3686    3.1068   -1.3721 C   0  0  0  0  0  0  0  0  0  0  0  0
    1.3825    3.1283   -2.7444 N   0  0  0  0  0  0  0  0  0  0  0  0
    1.0572    4.3440   -0.8593 C   0  0  0  0  0  0  0  0  0  0  0  0
    1.0817    4.3677   -3.0628 C   0  0  0  0  0  0  0  0  0  0  0  0
    0.8766    5.1412   -1.9543 N   0  0  0  0  0  0  0  0  0  0  0  0
   -1.4467    1.6280   -0.5753 H   0  0  0  0  0  0  0  0  0  0  0  0
    0.2189    0.6053   -1.6933 H   0  0  0  0  0  0  0  0  0  0  0  0
    2.5861    1.3760   -1.0236 H   0  0  0  0  0  0  0  0  0  0  0  0
    1.9155    2.0966    0.4171 H   0  0  0  0  0  0  0  0  0  0  0  0
    0.9510    4.7201    0.1481 H   0  0  0  0  0  0  0  0  0  0  0  0
    0.9970    4.7652   -4.0644 H   0  0  0  0  0  0  0  0  0  0  0  0
    0.6347    6.1231   -1.9464 H   0  0  0  0  0  0  0  0  0  0  0  0
    0.8639   -0.3436    1.4201 N   0  0  0  0  0  0  0  0  0  0  0  0
    1.2133   -1.4168    2.3228 C   0  0  2  0  0  0  0  0  0  0  0  0
    0.4566   -2.6642    1.8858 C   0  0  0  0  0  0  0  0  0  0  0  0
   -0.5720   -2.6237    1.2139 O   0  0  0  0  0  0  0  0  0  0  0  0
    0.8834   -1.0578    3.7633 C   0  0  0  0  0  0  0  0  0  0  0  0
    0.5702    0.5441    1.8170 H   0  0  0  0  0  0  0  0  0  0  0  0
    2.2902   -1.5848    2.2126 H   0  0  0  0  0  0  0  0  0  0  0  0
   -0.1913   -0.8857    3.8933 H   0  0  0  0  0  0  0  0  0  0  0  0
    1.1750   -1.8602    4.4490 H   0  0  0  0  0  0  0  0  0  0  0  0
    1.4054   -0.1437    4.0665 H   0  0  0  0  0  0  0  0  0  0  0  0
    1.0411   -3.8258    2.3706 N   0  0  0  0  0  0  0  0  0  0  0  0
    0.5029   -5.1393    2.1041 C   0  0  0  0  0  0  0  0  0  0  0  0
    1.9036   -3.7663    2.9039 H   0  0  0  0  0  0  0  0  0  0  0  0
   -0.1810   -5.4276    2.9160 H   0  0  0  0  0  0  0  0  0  0  0  0
   -0.0458   -5.1241    1.1508 H   0  0  0  0  0  0  0  0  0  0  0  0
    1.3255   -5.8669    2.0421 H   0  0  0  0  0  0  0  0  0  0  0  0
 22 24  2  0  0  0  0
 24 26  1  0  0  0  0
 23 25  2  0  0  0  0
 25 26  1  0  0  0  0
 21 22  1  0  0  0  0
 22 23  1  0  0  0  0
  1  3  1  0  0  0  0
  1  7  1  0  0  0  0
  1  2  2  0  0  0  0
 35 36  1  0  0  0  0
 36 44  1  0  0  0  0
 36 37  2  0  0  0  0
  8  9  1  0  0  0  0
  9 17  1  0  0  0  0
  9 10  2  0  0  0  0
 18 19  1  0  0  0  0
 19 34  1  0  0  0  0
 19 20  2  0  0  0  0
 35 38  1  0  0  0  0
  8 11  1  0  0  0  0
 44 45  1  0  0  0  0
 18 21  1  0  0  0  0
 34 35  1  0  0  0  0
  7  8  1  0  0  0  0
 17 18  1  0  0  0  0
 24 31  1  0  0  0  0
 25 32  1  0  0  0  0
  3  4  1  0  0  0  0
  3  5  1  0  0  0  0
  3  6  1  0  0  0  0
 38 41  1  0  0  0  0
 38 42  1  0  0  0  0
 38 43  1  0  0  0  0
 11 14  1  0  0  0  0
 11 15  1  0  0  0  0
 11 16  1  0  0  0  0
 45 47  1  0  0  0  0
 45 48  1  0  0  0  0
 45 49  1  0  0  0  0
 21 29  1  0  0  0  0
 21 30  1  0  0  0  0
 35 40  1  0  0  0  0
  8 13  1  0  0  0  0
 18 28  1  0  0  0  0
 26 33  1  0  0  0  0
 44 46  1  0  0  0  0
  7 12  1  0  0  0  0
 34 39  1  0  0  0  0
 17 27  1  0  0  0  0
M  END
$$$$

  -OEChem-05262214473D

 49 49  0     1  0  0  0  0  0999 V2000
   -1.6183    0.5613    3.8201 C   0  0  0  0  0  0  0  0  0  0  0  0
   -0.6710   -0.0534    3.3444 O   0  0  0  0  0  0  0  0  0  0  0  0
   -2.0502    0.2789    5.2208 C   0  0  0  0  0  0  0  0  0  0  0  0
   -2.8099   -0.5175    5.2742 H   0  0  0  0  0  0  0  0  0  0  0  0
   -1.2190   -0.0687    5.8551 H   0  0  0  0  0  0  0  0  0  0  0  0
   -2.4882    1.1338    5.7604 H   0  0  0  0  0  0  0  0  0  0  0  0
   -2.3680    1.5337    3.1790 N   0  0  0  0  0  0  0  0  0  0  0  0
   -2.1212    1.9597    1.8266 C   0  0  2  0  0  0  0  0  0  0  0  0
   -0.7862    1.3744    1.3854 C   0  0  0  0  0  0  0  0  0  0  0  0
    0.0859    1.0216    2.1767 O   0  0  0  0  0  0  0  0  0  0  0  0
   -2.1124    3.4765    1.7171 C   0  0  0  0  0  0  0  0  0  0  0  0
   -3.1331    1.9695    3.6908 H   0  0  0  0  0  0  0  0  0  0  0  0
   -2.9253    1.5413    1.2115 H   0  0  0  0  0  0  0  0  0  0  0  0
   -1.3133    3.9138    2.3268 H   0  0  0  0  0  0  0  0  0  0  0  0
   -1.9529    3.7988    0.6829 H   0  0  0  0  0  0  0  0  0  0  0  0
   -3.0626    3.8977    2.0629 H   0  0  0  0  0  0  0  0  0  0  0  0
   -0.6635    1.3313    0.0020 N   0  0  0  0  0  0  0  0  0  0  0  0
    0.5138    0.8305   -0.6617 C   0  0  2  0  0  0  0  0  0  0  0  0
    0.9094   -0.4648    0.0382 C   0  0  0  0  0  0  0  0  0  0  0  0
    1.5132   -1.3737   -0.5277 O   0  0  0  0  0  0  0  0  0  0  0  0
    1.6723    1.8336   -0.6209 C   0  0  0  0  0  0  0  0  0  0  0  0
    1.3686    3.1068   -1.3721 C   0  0  0  0  0  0  0  0  0  0  0  0
    1.3825    3.1283   -2.7444 N   0  0  0  0  0  0  0  0  0  0  0  0
    1.0572    4.3440   -0.8593 C   0  0  0  0  0  0  0  0  0  0  0  0
    1.0817    4.3677   -3.0628 C   0  0  0  0  0  0  0  0  0  0  0  0
    0.8766    5.1412   -1.9543 N   0  0  0  0  0  0  0  0  0  0  0  0
   -1.4467    1.6280   -0.5753 H   0  0  0  0  0  0  0  0  0  0  0  0
    0.2189    0.6053   -1.6933 H   0  0  0  0  0  0  0  0  0  0  0  0
    2.5861    1.3760   -1.0236 H   0  0  0  0  0  0  0  0  0  0  0  0
    1.9155    2.0966    0.4171 H   0  0  0  0  0  0  0  0  0  0  0  0
    0.9510    4.7201    0.1481 H   0  0  0  0  0  0  0  0  0  0  0  0
    0.9970    4.7652   -4.0644 H   0  0  0  0  0  0  0  0  0  0  0  0
    0.6347    6.1231   -1.9464 H   0  0  0  0  0  0  0  0  0  0  0  0
    0.5517   -0.4610    1.3793 N   0  0  0  0  0  0  0  0  0  0  0  0
    0.8308   -1.5578    2.2782 C   0  0  2  0  0  0  0  0  0  0  0  0
    0.3501   -2.8424    1.6162 C   0  0  0  0  0  0  0  0  0  0  0  0
   -0.5059   -2.8628    0.7342 O   0  0  0  0  0  0  0  0  0  0  0  0
    0.1551   -1.3548    3.6254 C   0  0  0  0  0  0  0  0  0  0  0  0
    0.0696    0.3537    1.7475 H   0  0  0  0  0  0  0  0  0  0  0  0
    1.9185   -1.5955    2.4030 H   0  0  0  0  0  0  0  0  0  0  0  0
   -0.9352   -1.3144    3.5204 H   0  0  0  0  0  0  0  0  0  0  0  0
    0.3908   -2.1723    4.3147 H   0  0  0  0  0  0  0  0  0  0  0  0
    0.4796   -0.4157    4.0865 H   0  0  0  0  0  0  0  0  0  0  0  0
    0.9581   -3.9670    2.1563 N   0  0  0  0  0  0  0  0  0  0  0  0
    0.6604   -5.3065    1.7056 C   0  0  0  0  0  0  0  0  0  0  0  0
    1.6705   -3.8549    2.8716 H   0  0  0  0  0  0  0  0  0  0  0  0
   -0.1405   -5.7335    2.3270 H   0  0  0  0  0  0  0  0  0  0  0  0
    0.3330   -5.2758    0.6559 H   0  0  0  0  0  0  0  0  0  0  0  0
    1.5622   -5.9306    1.7903 H   0  0  0  0  0  0  0  0  0  0  0  0
 22 24  2  0  0  0  0
 24 26  1  0  0  0  0
 23 25  2  0  0  0  0
 25 26  1  0  0  0  0
 21 22  1  0  0  0  0
 22 23  1  0  0  0  0
  1  3  1  0  0  0  0
  1  7  1  0  0  0  0
  1  2  2  0  0  0  0
 35 36  1  0  0  0  0
 36 44  1  0  0  0  0
 36 37  2  0  0  0  0
  8  9  1  0  0  0  0
  9 17  1  0  0  0  0
  9 10  2  0  0  0  0
 18 19  1  0  0  0  0
 19 34  1  0  0  0  0
 19 20  2  0  0  0  0
 35 38  1  0  0  0  0
  8 11  1  0  0  0  0
 44 45  1  0  0  0  0
 18 21  1  0  0  0  0
 34 35  1  0  0  0  0
  7  8  1  0  0  0  0
 17 18  1  0  0  0  0
 24 31  1  0  0  0  0
 25 32  1  0  0  0  0
  3  4  1  0  0  0  0
  3  5  1  0  0  0  0
  3  6  1  0  0  0  0
 38 41  1  0  0  0  0
 38 42  1  0  0  0  0
 38 43  1  0  0  0  0
 11 14  1  0  0  0  0
 11 15  1  0  0  0  0
 11 16  1  0  0  0  0
 45 47  1  0  0  0  0
 45 48  1  0  0  0  0
 45 49  1  0  0  0  0
 21 29  1  0  0  0  0
 21 30  1  0  0  0  0
 35 40  1  0  0  0  0
  8 13  1  0  0  0  0
 18 28  1  0  0  0  0
 26 33  1  0  0  0  0
 44 46  1  0  0  0  0
  7 12  1  0  0  0  0
 34 39  1  0  0  0  0
 17 27  1  0  0  0  0
M  END
$$$$

  -OEChem-05262214473D

 49 49  0     1  0  0  0  0  0999 V2000
   -1.6183    0.5613    3.8201 C   0  0  0  0  0  0  0  0  0  0  0  0
   -0.6710   -0.0534    3.3444 O   0  0  0  0  0  0  0  0  0  0  0  0
   -2.0502    0.2789    5.2208 C   0  0  0  0  0  0  0  0  0  0  0  0
   -2.8099   -0.5175    5.2742 H   0  0  0  0  0  0  0  0  0  0  0  0
   -1.2190   -0.0687    5.8551 H   0  0  0  0  0  0  0  0  0  0  0  0
   -2.4882    1.1338    5.7604 H   0  0  0  0  0  0  0  0  0  0  0  0
   -2.3680    1.5337    3.1790 N   0  0  0  0  0  0  0  0  0  0  0  0
   -2.1212    1.9597    1.8266 C   0  0  2  0  0  0  0  0  0  0  0  0
   -0.7862    1.3744    1.3854 C   0  0  0  0  0  0  0  0  0  0  0  0
    0.0859    1.0216    2.1767 O   0  0  0  0  0  0  0  0  0  0  0  0
   -2.1124    3.4765    1.7171 C   0  0  0  0  0  0  0  0  0  0  0  0
   -3.1331    1.9695    3.6908 H   0  0  0  0  0  0  0  0  0  0  0  0
   -2.9253    1.5413    1.2115 H   0  0  0  0  0  0  0  0  0  0  0  0
   -1.3133    3.9138    2.3268 H   0  0  0  0  0  0  0  0  0  0  0  0
   -1.9529    3.7988    0.6829 H   0  0  0  0  0  0  0  0  0  0  0  0
   -3.0626    3.8977    2.0629 H   0  0  0  0  0  0  0  0  0  0  0  0
   -0.6635    1.3313    0.0020 N   0  0  0  0  0  0  0  0  0  0  0  0
    0.5138    0.8305   -0.6617 C   0  0  2  0  0  0  0  0  0  0  0  0
    0.9094   -0.4648    0.0382 C   0  0  0  0  0  0  0  0  0  0  0  0
    1.7310   -1.2524   -0.4262 O   0  0  0  0  0  0  0  0  0  0  0  0
    1.6723    1.8336   -0.6209 C   0  0  0  0  0  0  0  0  0  0  0  0
    1.3686    3.1068   -1.3721 C   0  0  0  0  0  0  0  0  0  0  0  0
    1.3825    3.1283   -2.7444 N   0  0  0  0  0  0  0  0  0  0  0  0
    1.0572    4.3440   -0.8593 C   0  0  0  0  0  0  0  0  0  0  0  0
    1.0817    4.3677   -3.0628 C   0  0  0  0  0  0  0  0  0  0  0  0
    0.8766    5.1412   -1.9543 N   0  0  0  0  0  0  0  0  0  0  0  0
   -1.4467    1.6280   -0.5753 H   0  0  0  0  0  0  0  0  0  0  0  0
    0.2189    0.6053   -1.6933 H   0  0  0  0  0  0  0  0  0  0  0  0
    2.5861    1.3760   -1.0236 H   0  0  0  0  0  0  0  0  0  0  0  0
    1.9155    2.0966    0.4171 H   0  0  0  0  0  0  0  0  0  0  0  0
    0.9510    4.7201    0.1481 H   0  0  0  0  0  0  0  0  0  0  0  0
    0.9970    4.7652   -4.0644 H   0  0  0  0  0  0  0  0  0  0  0  0
    0.6347    6.1231   -1.9464 H   0  0  0  0  0  0  0  0  0  0  0  0
    0.2732   -0.6088    1.2633 N   0  0  0  0  0  0  0  0  0  0  0  0
    0.4879   -1.7364    2.1414 C   0  0  2  0  0  0  0  0  0  0  0  0
    0.3276   -3.0091    1.3204 C   0  0  0  0  0  0  0  0  0  0  0  0
   -0.3082   -3.0536    0.2693 O   0  0  0  0  0  0  0  0  0  0  0  0
   -0.4828   -1.7189    3.3120 C   0  0  0  0  0  0  0  0  0  0  0  0
   -0.3761    0.1149    1.5576 H   0  0  0  0  0  0  0  0  0  0  0  0
    1.5188   -1.6627    2.5045 H   0  0  0  0  0  0  0  0  0  0  0  0
   -1.5209   -1.7919    2.9678 H   0  0  0  0  0  0  0  0  0  0  0  0
   -0.3001   -2.5579    3.9915 H   0  0  0  0  0  0  0  0  0  0  0  0
   -0.3868   -0.7897    3.8840 H   0  0  0  0  0  0  0  0  0  0  0  0
    0.9418   -4.0988    1.9215 N   0  0  0  0  0  0  0  0  0  0  0  0
    0.9201   -5.4225    1.3441 C   0  0  0  0  0  0  0  0  0  0  0  0
    1.4630   -3.9661    2.7832 H   0  0  0  0  0  0  0  0  0  0  0  0
    0.0644   -5.9846    1.7464 H   0  0  0  0  0  0  0  0  0  0  0  0
    0.8258   -5.3440    0.2510 H   0  0  0  0  0  0  0  0  0  0  0  0
    1.8538   -5.9471    1.5949 H   0  0  0  0  0  0  0  0  0  0  0  0
 22 24  2  0  0  0  0
 24 26  1  0  0  0  0
 23 25  2  0  0  0  0
 25 26  1  0  0  0  0
 21 22  1  0  0  0  0
 22 23  1  0  0  0  0
  1  3  1  0  0  0  0
  1  7  1  0  0  0  0
  1  2  2  0  0  0  0
 35 36  1  0  0  0  0
 36 44  1  0  0  0  0
 36 37  2  0  0  0  0
  8  9  1  0  0  0  0
  9 17  1  0  0  0  0
  9 10  2  0  0  0  0
 18 19  1  0  0  0  0
 19 34  1  0  0  0  0
 19 20  2  0  0  0  0
 35 38  1  0  0  0  0
  8 11  1  0  0  0  0
 44 45  1  0  0  0  0
 18 21  1  0  0  0  0
 34 35  1  0  0  0  0
  7  8  1  0  0  0  0
 17 18  1  0  0  0  0
 24 31  1  0  0  0  0
 25 32  1  0  0  0  0
  3  4  1  0  0  0  0
  3  5  1  0  0  0  0
  3  6  1  0  0  0  0
 38 41  1  0  0  0  0
 38 42  1  0  0  0  0
 38 43  1  0  0  0  0
 11 14  1  0  0  0  0
 11 15  1  0  0  0  0
 11 16  1  0  0  0  0
 45 47  1  0  0  0  0
 45 48  1  0  0  0  0
 45 49  1  0  0  0  0
 21 29  1  0  0  0  0
 21 30  1  0  0  0  0
 35 40  1  0  0  0  0
  8 13  1  0  0  0  0
 18 28  1  0  0  0  0
 26 33  1  0  0  0  0
 44 46  1  0  0  0  0
  7 12  1  0  0  0  0
 34 39  1  0  0  0  0
 17 27  1  0  0  0  0
M  END
$$$$

  -OEChem-05262214473D

 49 49  0     1  0  0  0  0  0999 V2000
   -1.6183    0.5613    3.8201 C   0  0  0  0  0  0  0  0  0  0  0  0
   -0.6710   -0.0534    3.3444 O   0  0  0  0  0  0  0  0  0  0  0  0
   -2.0502    0.2789    5.2208 C   0  0  0  0  0  0  0  0  0  0  0  0
   -2.8099   -0.5175    5.2742 H   0  0  0  0  0  0  0  0  0  0  0  0
   -1.2190   -0.0687    5.8551 H   0  0  0  0  0  0  0  0  0  0  0  0
   -2.4882    1.1338    5.7604 H   0  0  0  0  0  0  0  0  0  0  0  0
   -2.3680    1.5337    3.1790 N   0  0  0  0  0  0  0  0  0  0  0  0
   -2.1212    1.9597    1.8266 C   0  0  2  0  0  0  0  0  0  0  0  0
   -0.7862    1.3744    1.3854 C   0  0  0  0  0  0  0  0  0  0  0  0
    0.0859    1.0216    2.1767 O   0  0  0  0  0  0  0  0  0  0  0  0
   -2.1124    3.4765    1.7171 C   0  0  0  0  0  0  0  0  0  0  0  0
   -3.1331    1.9695    3.6908 H   0  0  0  0  0  0  0  0  0  0  0  0
   -2.9253    1.5413    1.2115 H   0  0  0  0  0  0  0  0  0  0  0  0
   -1.3133    3.9138    2.3268 H   0  0  0  0  0  0  0  0  0  0  0  0
   -1.9529    3.7988    0.6829 H   0  0  0  0  0  0  0  0  0  0  0  0
   -3.0626    3.8977    2.0629 H   0  0  0  0  0  0  0  0  0  0  0  0
   -0.6635    1.3313    0.0020 N   0  0  0  0  0  0  0  0  0  0  0  0
    0.5138    0.8305   -0.6617 C   0  0  2  0  0  0  0  0  0  0  0  0
    0.9094   -0.4648    0.0382 C   0  0  0  0  0  0  0  0  0  0  0  0
    1.9046   -1.1161   -0.2722 O   0  0  0  0  0  0  0  0  0  0  0  0
    1.6723    1.8336   -0.6209 C   0  0  0  0  0  0  0  0  0  0  0  0
    1.3686    3.1068   -1.3721 C   0  0  0  0  0  0  0  0  0  0  0  0
    1.3825    3.1283   -2.7444 N   0  0  0  0  0  0  0  0  0  0  0  0
    1.0572    4.3440   -0.8593 C   0  0  0  0  0  0  0  0  0  0  0  0
    1.0817    4.3677   -3.0628 C   0  0  0  0  0  0  0  0  0  0  0  0
    0.8766    5.1412   -1.9543 N   0  0  0  0  0  0  0  0  0  0  0  0
   -1.4467    1.6280   -0.5753 H   0  0  0  0  0  0  0  0  0  0  0  0
    0.2189    0.6053   -1.6933 H   0  0  0  0  0  0  0  0  0  0  0  0
    2.5861    1.3760   -1.0236 H   0  0  0  0  0  0  0  0  0  0  0  0
    1.9155    2.0966    0.4171 H   0  0  0  0  0  0  0  0  0  0  0  0
    0.9510    4.7201    0.1481 H   0  0  0  0  0  0  0  0  0  0  0  0
    0.9970    4.7652   -4.0644 H   0  0  0  0  0  0  0  0  0  0  0  0
    0.6347    6.1231   -1.9464 H   0  0  0  0  0  0  0  0  0  0  0  0
    0.0471   -0.7768    1.0801 N   0  0  0  0  0  0  0  0  0  0  0  0
    0.2080   -1.9405    1.9220 C   0  0  2  0  0  0  0  0  0  0  0  0
    0.3908   -3.1529    1.0185 C   0  0  0  0  0  0  0  0  0  0  0  0
    0.0077   -3.1832   -0.1491 O   0  0  0  0  0  0  0  0  0  0  0  0
   -0.9867   -2.1254    2.8446 C   0  0  0  0  0  0  0  0  0  0  0  0
   -0.7364   -0.1559    1.2601 H   0  0  0  0  0  0  0  0  0  0  0  0
    1.1185   -1.7820    2.5101 H   0  0  0  0  0  0  0  0  0  0  0  0
   -1.9083   -2.2855    2.2733 H   0  0  0  0  0  0  0  0  0  0  0  0
   -0.8505   -2.9908    3.5015 H   0  0  0  0  0  0  0  0  0  0  0  0
   -1.1347   -1.2403    3.4728 H   0  0  0  0  0  0  0  0  0  0  0  0
    0.9933   -4.2123    1.6823 N   0  0  0  0  0  0  0  0  0  0  0  0
    1.2642   -5.4794    1.0443 C   0  0  0  0  0  0  0  0  0  0  0  0
    1.2953   -4.0921    2.6447 H   0  0  0  0  0  0  0  0  0  0  0  0
    0.4199   -6.1638    1.2138 H   0  0  0  0  0  0  0  0  0  0  0  0
    1.3989   -5.3242   -0.0363 H   0  0  0  0  0  0  0  0  0  0  0  0
    2.1804   -5.9153    1.4692 H   0  0  0  0  0  0  0  0  0  0  0  0
 22 24  2  0  0  0  0
 24 26  1  0  0  0  0
 23 25  2  0  0  0  0
 25 26  1  0  0  0  0
 21 22  1  0  0  0  0
 22 23  1  0  0  0  0
  1  3  1  0  0  0  0
  1  7  1  0  0  0  0
  1  2  2  0  0  0  0
 35 36  1  0  0  0  0
 36 44  1  0  0  0  0
 36 37  2  0  0  0  0
  8  9  1  0  0  0  0
  9 17  1  0  0  0  0
  9 10  2  0  0  0  0
 18 19  1  0  0  0  0
 19 34  1  0  0  0  0
 19 20  2  0  0  0  0
 35 38  1  0  0  0  0
  8 11  1  0  0  0  0
 44 45  1  0  0  0  0
 18 21  1  0  0  0  0
 34 35  1  0  0  0  0
  7  8  1  0  0  0  0
 17 18  1  0  0  0  0
 24 31  1  0  0  0  0
 25 32  1  0  0  0  0
  3  4  1  0  0  0  0
  3  5  1  0  0  0  0
  3  6  1  0  0  0  0
 38 41  1  0  0  0  0
 38 42  1  0  0  0  0
 38 43  1  0  0  0  0
 11 14  1  0  0  0  0
 11 15  1  0  0  0  0
 11 16  1  0  0  0  0
 45 47  1  0  0  0  0
 45 48  1  0  0  0  0
 45 49  1  0  0  0  0
 21 29  1  0  0  0  0
 21 30  1  0  0  0  0
 35 40  1  0  0  0  0
  8 13  1  0  0  0  0
 18 28  1  0  0  0  0
 26 33  1  0  0  0  0
 44 46  1  0  0  0  0
  7 12  1  0  0  0  0
 34 39  1  0  0  0  0
 17 27  1  0  0  0  0
M  END
$$$$

  -OEChem-05262214473D

 49 49  0     1  0  0  0  0  0999 V2000
   -1.6183    0.5613    3.8201 C   0  0  0  0  0  0  0  0  0  0  0  0
   -0.6710   -0.0534    3.3444 O   0  0  0  0  0  0  0  0  0  0  0  0
   -2.0502    0.2789    5.2208 C   0  0  0  0  0  0  0  0  0  0  0  0
   -2.8099   -0.5175    5.2742 H   0  0  0  0  0  0  0  0  0  0  0  0
   -1.2190   -0.0687    5.8551 H   0  0  0  0  0  0  0  0  0  0  0  0
   -2.4882    1.1338    5.7604 H   0  0  0  0  0  0  0  0  0  0  0  0
   -2.3680    1.5337    3.1790 N   0  0  0  0  0  0  0  0  0  0  0  0
   -2.1212    1.9597    1.8266 C   0  0  2  0  0  0  0  0  0  0  0  0
   -0.7862    1.3744    1.3854 C   0  0  0  0  0  0  0  0  0  0  0  0
    0.0859    1.0216    2.1767 O   0  0  0  0  0  0  0  0  0  0  0  0
   -2.1124    3.4765    1.7171 C   0  0  0  0  0  0  0  0  0  0  0  0
   -3.1331    1.9695    3.6908 H   0  0  0  0  0  0  0  0  0  0  0  0
   -2.9253    1.5413    1.2115 H   0  0  0  0  0  0  0  0  0  0  0  0
   -1.3133    3.9138    2.3268 H   0  0  0  0  0  0  0  0  0  0  0  0
   -1.9529    3.7988    0.6829 H   0  0  0  0  0  0  0  0  0  0  0  0
   -3.0626    3.8977    2.0629 H   0  0  0  0  0  0  0  0  0  0  0  0
   -0.6635    1.3313    0.0020 N   0  0  0  0  0  0  0  0  0  0  0  0
    0.5138    0.8305   -0.6617 C   0  0  2  0  0  0  0  0  0  0  0  0
    0.9094   -0.4648    0.0382 C   0  0  0  0  0  0  0  0  0  0  0  0
    2.0222   -0.9742   -0.0760 O   0  0  0  0  0  0  0  0  0  0  0  0
    1.6723    1.8336   -0.6209 C   0  0  0  0  0  0  0  0  0  0  0  0
    1.3686    3.1068   -1.3721 C   0  0  0  0  0  0  0  0  0  0  0  0
    1.3825    3.1283   -2.7444 N   0  0  0  0  0  0  0  0  0  0  0  0
    1.0572    4.3440   -0.8593 C   0  0  0  0  0  0  0  0  0  0  0  0
    1.0817    4.3677   -3.0628 C   0  0  0  0  0  0  0  0  0  0  0  0
    0.8766    5.1412   -1.9543 N   0  0  0  0  0  0  0  0  0  0  0  0
   -1.4467    1.6280   -0.5753 H   0  0  0  0  0  0  0  0  0  0  0  0
    0.2189    0.6053   -1.6933 H   0  0  0  0  0  0  0  0  0  0  0  0
    2.5861    1.3760   -1.0236 H   0  0  0  0  0  0  0  0  0  0  0  0
    1.9155    2.0966    0.4171 H   0  0  0  0  0  0  0  0  0  0  0  0
    0.9510    4.7201    0.1481 H   0  0  0  0  0  0  0  0  0  0  0  0
    0.9970    4.7652   -4.0644 H   0  0  0  0  0  0  0  0  0  0  0  0
    0.6347    6.1231   -1.9464 H   0  0  0  0  0  0  0  0  0  0  0  0
   -0.1110   -0.9536    0.8422 N   0  0  0  0  0  0  0  0  0  0  0  0
    0.0101   -2.1562    1.6347 C   0  0  2  0  0  0  0  0  0  0  0  0
    0.5352   -3.2640    0.7312 C   0  0  0  0  0  0  0  0  0  0  0  0
    0.4202   -3.2427   -0.4925 O   0  0  0  0  0  0  0  0  0  0  0  0
   -1.3224   -2.5465    2.2550 C   0  0  0  0  0  0  0  0  0  0  0  0
   -0.9869   -0.4404    0.8752 H   0  0  0  0  0  0  0  0  0  0  0  0
    0.7447   -1.9451    2.4195 H   0  0  0  0  0  0  0  0  0  0  0  0
   -2.0712   -2.7617    1.4840 H   0  0  0  0  0  0  0  0  0  0  0  0
   -1.2230   -3.4414    2.8781 H   0  0  0  0  0  0  0  0  0  0  0  0
   -1.7131   -1.7369    2.8808 H   0  0  0  0  0  0  0  0  0  0  0  0
    1.1092   -4.2997    1.4550 N   0  0  0  0  0  0  0  0  0  0  0  0
    1.6692   -5.4733    0.8265 C   0  0  0  0  0  0  0  0  0  0  0  0
    1.1787   -4.2245    2.4656 H   0  0  0  0  0  0  0  0  0  0  0  0
    0.9016   -6.2589    0.7655 H   0  0  0  0  0  0  0  0  0  0  0  0
    2.0133   -5.2177   -0.1865 H   0  0  0  0  0  0  0  0  0  0  0  0
    2.5197   -5.8373    1.4217 H   0  0  0  0  0  0  0  0  0  0  0  0
 22 24  2  0  0  0  0
 24 26  1  0  0  0  0
 23 25  2  0  0  0  0
 25 26  1  0  0  0  0
 21 22  1  0  0  0  0
 22 23  1  0  0  0  0
  1  3  1  0  0  0  0
  1  7  1  0  0  0  0
  1  2  2  0  0  0  0
 35 36  1  0  0  0  0
 36 44  1  0  0  0  0
 36 37  2  0  0  0  0
  8  9  1  0  0  0  0
  9 17  1  0  0  0  0
  9 10  2  0  0  0  0
 18 19  1  0  0  0  0
 19 34  1  0  0  0  0
 19 20  2  0  0  0  0
 35 38  1  0  0  0  0
  8 11  1  0  0  0  0
 44 45  1  0  0  0  0
 18 21  1  0  0  0  0
 34 35  1  0  0  0  0
  7  8  1  0  0  0  0
 17 18  1  0  0  0  0
 24 31  1  0  0  0  0
 25 32  1  0  0  0  0
  3  4  1  0  0  0  0
  3  5  1  0  0  0  0
  3  6  1  0  0  0  0
 38 41  1  0  0  0  0
 38 42  1  0  0  0  0
 38 43  1  0  0  0  0
 11 14  1  0  0  0  0
 11 15  1  0  0  0  0
 11 16  1  0  0  0  0
 45 47  1  0  0  0  0
 45 48  1  0  0  0  0
 45 49  1  0  0  0  0
 21 29  1  0  0  0  0
 21 30  1  0  0  0  0
 35 40  1  0  0  0  0
  8 13  1  0  0  0  0
 18 28  1  0  0  0  0
 26 33  1  0  0  0  0
 44 46  1  0  0  0  0
  7 12  1  0  0  0  0
 34 39  1  0  0  0  0
 17 27  1  0  0  0  0
M  END
$$$$

  -OEChem-05262214473D

 49 49  0     1  0  0  0  0  0999 V2000
   -1.6183    0.5613    3.8201 C   0  0  0  0  0  0  0  0  0  0  0  0
   -0.6710   -0.0534    3.3444 O   0  0  0  0  0  0  0  0  0  0  0  0
   -2.0502    0.2789    5.2208 C   0  0  0  0  0  0  0  0  0  0  0  0
   -2.8099   -0.5175    5.2742 H   0  0  0  0  0  0  0  0  0  0  0  0
   -1.2190   -0.0687    5.8551 H   0  0  0  0  0  0  0  0  0  0  0  0
   -2.4882    1.1338    5.7604 H   0  0  0  0  0  0  0  0  0  0  0  0
   -2.3680    1.5337    3.1790 N   0  0  0  0  0  0  0  0  0  0  0  0
   -2.1212    1.9597    1.8266 C   0  0  2  0  0  0  0  0  0  0  0  0
   -0.7862    1.3744    1.3854 C   0  0  0  0  0  0  0  0  0  0  0  0
    0.0859    1.0216    2.1767 O   0  0  0  0  0  0  0  0  0  0  0  0
   -2.1124    3.4765    1.7171 C   0  0  0  0  0  0  0  0  0  0  0  0
   -3.1331    1.9695    3.6908 H   0  0  0  0  0  0  0  0  0  0  0  0
   -2.9253    1.5413    1.2115 H   0  0  0  0  0  0  0  0  0  0  0  0
   -1.3133    3.9138    2.3268 H   0  0  0  0  0  0  0  0  0  0  0  0
   -1.9529    3.7988    0.6829 H   0  0  0  0  0  0  0  0  0  0  0  0
   -3.0626    3.8977    2.0629 H   0  0  0  0  0  0  0  0  0  0  0  0
   -0.6635    1.3313    0.0020 N   0  0  0  0  0  0  0  0  0  0  0  0
    0.5138    0.8305   -0.6617 C   0  0  2  0  0  0  0  0  0  0  0  0
    0.9094   -0.4648    0.0382 C   0  0  0  0  0  0  0  0  0  0  0  0
    2.0759   -0.8363    0.1488 O   0  0  0  0  0  0  0  0  0  0  0  0
    1.6723    1.8336   -0.6209 C   0  0  0  0  0  0  0  0  0  0  0  0
    1.3686    3.1068   -1.3721 C   0  0  0  0  0  0  0  0  0  0  0  0
    1.3825    3.1283   -2.7444 N   0  0  0  0  0  0  0  0  0  0  0  0
    1.0572    4.3440   -0.8593 C   0  0  0  0  0  0  0  0  0  0  0  0
    1.0817    4.3677   -3.0628 C   0  0  0  0  0  0  0  0  0  0  0  0
    0.8766    5.1412   -1.9543 N   0  0  0  0  0  0  0  0  0  0  0  0
   -1.4467    1.6280   -0.5753 H   0  0  0  0  0  0  0  0  0  0  0  0
    0.2189    0.6053   -1.6933 H   0  0  0  0  0  0  0  0  0  0  0  0
    2.5861    1.3760   -1.0236 H   0  0  0  0  0  0  0  0  0  0  0  0
    1.9155    2.0966    0.4171 H   0  0  0  0  0  0  0  0  0  0  0  0
    0.9510    4.7201    0.1481 H   0  0  0  0  0  0  0  0  0  0  0  0
    0.9970    4.7652   -4.0644 H   0  0  0  0  0  0  0  0  0  0  0  0
    0.6347    6.1231   -1.9464 H   0  0  0  0  0  0  0  0  0  0  0  0
   -0.1903   -1.1273    0.5657 N   0  0  0  0  0  0  0  0  0  0  0  0
   -0.0923   -2.3687    1.2992 C   0  0  2  0  0  0  0  0  0  0  0  0
    0.7512   -3.3349    0.4779 C   0  0  0  0  0  0  0  0  0  0  0  0
    0.9012   -3.2281   -0.7375 O   0  0  0  0  0  0  0  0  0  0  0  0
   -1.4670   -2.9536    1.5834 C   0  0  0  0  0  0  0  0  0  0  0  0
   -1.1104   -0.7190    0.4293 H   0  0  0  0  0  0  0  0  0  0  0  0
    0.4229   -2.1410    2.2388 H   0  0  0  0  0  0  0  0  0  0  0  0
   -1.9984   -3.1880    0.6538 H   0  0  0  0  0  0  0  0  0  0  0  0
   -1.3922   -3.8791    2.1638 H   0  0  0  0  0  0  0  0  0  0  0  0
   -2.0826   -2.2454    2.1485 H   0  0  0  0  0  0  0  0  0  0  0  0
    1.2815   -4.3552    1.2550 N   0  0  0  0  0  0  0  0  0  0  0  0
    2.1077   -5.4047    0.7056 C   0  0  0  0  0  0  0  0  0  0  0  0
    1.1211   -4.3542    2.2580 H   0  0  0  0  0  0  0  0  0  0  0  0
    1.4769   -6.2634    0.4320 H   0  0  0  0  0  0  0  0  0  0  0  0
    2.6272   -5.0317   -0.1893 H   0  0  0  0  0  0  0  0  0  0  0  0
    2.8486   -5.7185    1.4556 H   0  0  0  0  0  0  0  0  0  0  0  0
 22 24  2  0  0  0  0
 24 26  1  0  0  0  0
 23 25  2  0  0  0  0
 25 26  1  0  0  0  0
 21 22  1  0  0  0  0
 22 23  1  0  0  0  0
  1  3  1  0  0  0  0
  1  7  1  0  0  0  0
  1  2  2  0  0  0  0
 35 36  1  0  0  0  0
 36 44  1  0  0  0  0
 36 37  2  0  0  0  0
  8  9  1  0  0  0  0
  9 17  1  0  0  0  0
  9 10  2  0  0  0  0
 18 19  1  0  0  0  0
 19 34  1  0  0  0  0
 19 20  2  0  0  0  0
 35 38  1  0  0  0  0
  8 11  1  0  0  0  0
 44 45  1  0  0  0  0
 18 21  1  0  0  0  0
 34 35  1  0  0  0  0
  7  8  1  0  0  0  0
 17 18  1  0  0  0  0
 24 31  1  0  0  0  0
 25 32  1  0  0  0  0
  3  4  1  0  0  0  0
  3  5  1  0  0  0  0
  3  6  1  0  0  0  0
 38 41  1  0  0  0  0
 38 42  1  0  0  0  0
 38 43  1  0  0  0  0
 11 14  1  0  0  0  0
 11 15  1  0  0  0  0
 11 16  1  0  0  0  0
 45 47  1  0  0  0  0
 45 48  1  0  0  0  0
 45 49  1  0  0  0  0
 21 29  1  0  0  0  0
 21 30  1  0  0  0  0
 35 40  1  0  0  0  0
  8 13  1  0  0  0  0
 18 28  1  0  0  0  0
 26 33  1  0  0  0  0
 44 46  1  0  0  0  0
  7 12  1  0  0  0  0
 34 39  1  0  0  0  0
 17 27  1  0  0  0  0
M  END
$$$$

  -OEChem-05262214473D

 49 49  0     1  0  0  0  0  0999 V2000
   -1.6183    0.5613    3.8201 C   0  0  0  0  0  0  0  0  0  0  0  0
   -0.6710   -0.0534    3.3444 O   0  0  0  0  0  0  0  0  0  0  0  0
   -2.0502    0.2789    5.2208 C   0  0  0  0  0  0  0  0  0  0  0  0
   -2.8099   -0.5175    5.2742 H   0  0  0  0  0  0  0  0  0  0  0  0
   -1.2190   -0.0687    5.8551 H   0  0  0  0  0  0  0  0  0  0  0  0
   -2.4882    1.1338    5.7604 H   0  0  0  0  0  0  0  0  0  0  0  0
   -2.3680    1.5337    3.1790 N   0  0  0  0  0  0  0  0  0  0  0  0
   -2.1212    1.9597    1.8266 C   0  0  2  0  0  0  0  0  0  0  0  0
   -0.7862    1.3744    1.3854 C   0  0  0  0  0  0  0  0  0  0  0  0
    0.0859    1.0216    2.1767 O   0  0  0  0  0  0  0  0  0  0  0  0
   -2.1124    3.4765    1.7171 C   0  0  0  0  0  0  0  0  0  0  0  0
   -3.1331    1.9695    3.6908 H   0  0  0  0  0  0  0  0  0  0  0  0
   -2.9253    1.5413    1.2115 H   0  0  0  0  0  0  0  0  0  0  0  0
   -1.3133    3.9138    2.3268 H   0  0  0  0  0  0  0  0  0  0  0  0
   -1.9529    3.7988    0.6829 H   0  0  0  0  0  0  0  0  0  0  0  0
   -3.0626    3.8977    2.0629 H   0  0  0  0  0  0  0  0  0  0  0  0
   -0.6635    1.3313    0.0020 N   0  0  0  0  0  0  0  0  0  0  0  0
    0.5138    0.8305   -0.6617 C   0  0  2  0  0  0  0  0  0  0  0  0
    0.9094   -0.4648    0.0382 C   0  0  0  0  0  0  0  0  0  0  0  0
    2.0619   -0.7118    0.3871 O   0  0  0  0  0  0  0  0  0  0  0  0
    1.6723    1.8336   -0.6209 C   0  0  0  0  0  0  0  0  0  0  0  0
    1.3686    3.1068   -1.3721 C   0  0  0  0  0  0  0  0  0  0  0  0
    1.3825    3.1283   -2.7444 N   0  0  0  0  0  0  0  0  0  0  0  0
    1.0572    4.3440   -0.8593 C   0  0  0  0  0  0  0  0  0  0  0  0
    1.0817    4.3677   -3.0628 C   0  0  0  0  0  0  0  0  0  0  0  0
    0.8766    5.1412   -1.9543 N   0  0  0  0  0  0  0  0  0  0  0  0
   -1.4467    1.6280   -0.5753 H   0  0  0  0  0  0  0  0  0  0  0  0
    0.2189    0.6053   -1.6933 H   0  0  0  0  0  0  0  0  0  0  0  0
    2.5861    1.3760   -1.0236 H   0  0  0  0  0  0  0  0  0  0  0  0
    1.9155    2.0966    0.4171 H   0  0  0  0  0  0  0  0  0  0  0  0
    0.9510    4.7201    0.1481 H   0  0  0  0  0  0  0  0  0  0  0  0
    0.9970    4.7652   -4.0644 H   0  0  0  0  0  0  0  0  0  0  0  0
    0.6347    6.1231   -1.9464 H   0  0  0  0  0  0  0  0  0  0  0  0
   -0.1855   -1.2858    0.2695 N   0  0  0  0  0  0  0  0  0  0  0  0
   -0.0921   -2.5636    0.9384 C   0  0  2  0  0  0  0  0  0  0  0  0
    1.0239   -3.3607    0.2760 C   0  0  0  0  0  0  0  0  0  0  0  0
    1.4180   -3.1404   -0.8674 O   0  0  0  0  0  0  0  0  0  0  0  0
   -1.4106   -3.3188    0.8755 C   0  0  0  0  0  0  0  0  0  0  0  0
   -1.0985   -0.9729   -0.0472 H   0  0  0  0  0  0  0  0  0  0  0  0
    0.1752   -2.3564    1.9803 H   0  0  0  0  0  0  0  0  0  0  0  0
   -1.6948   -3.5354   -0.1607 H   0  0  0  0  0  0  0  0  0  0  0  0
   -1.3465   -4.2739    1.4072 H   0  0  0  0  0  0  0  0  0  0  0  0
   -2.2181   -2.7314    1.3257 H   0  0  0  0  0  0  0  0  0  0  0  0
    1.4985   -4.3748    1.0960 N   0  0  0  0  0  0  0  0  0  0  0  0
    2.5496   -5.2782    0.6899 C   0  0  0  0  0  0  0  0  0  0  0  0
    1.1266   -4.4724    2.0362 H   0  0  0  0  0  0  0  0  0  0  0  0
    2.1064   -6.1769    0.2361 H   0  0  0  0  0  0  0  0  0  0  0  0
    3.1987   -4.7789   -0.0446 H   0  0  0  0  0  0  0  0  0  0  0  0
    3.1448   -5.5669    1.5688 H   0  0  0  0  0  0  0  0  0  0  0  0
 22 24  2  0  0  0  0
 24 26  1  0  0  0  0
 23 25  2  0  0  0  0
 25 26  1  0  0  0  0
 21 22  1  0  0  0  0
 22 23  1  0  0  0  0
  1  3  1  0  0  0  0
  1  7  1  0  0  0  0
  1  2  2  0  0  0  0
 35 36  1  0  0  0  0
 36 44  1  0  0  0  0
 36 37  2  0  0  0  0
  8  9  1  0  0  0  0
  9 17  1  0  0  0  0
  9 10  2  0  0  0  0
 18 19  1  0  0  0  0
 19 34  1  0  0  0  0
 19 20  2  0  0  0  0
 35 38  1  0  0  0  0
  8 11  1  0  0  0  0
 44 45  1  0  0  0  0
 18 21  1  0  0  0  0
 34 35  1  0  0  0  0
  7  8  1  0  0  0  0
 17 18  1  0  0  0  0
 24 31  1  0  0  0  0
 25 32  1  0  0  0  0
  3  4  1  0  0  0  0
  3  5  1  0  0  0  0
  3  6  1  0  0  0  0
 38 41  1  0  0  0  0
 38 42  1  0  0  0  0
 38 43  1  0  0  0  0
 11 14  1  0  0  0  0
 11 15  1  0  0  0  0
 11 16  1  0  0  0  0
 45 47  1  0  0  0  0
 45 48  1  0  0  0  0
 45 49  1  0  0  0  0
 21 29  1  0  0  0  0
 21 30  1  0  0  0  0
 35 40  1  0  0  0  0
  8 13  1  0  0  0  0
 18 28  1  0  0  0  0
 26 33  1  0  0  0  0
 44 46  1  0  0  0  0
  7 12  1  0  0  0  0
 34 39  1  0  0  0  0
 17 27  1  0  0  0  0
M  END
$$$$

  -OEChem-05262214473D

 49 49  0     1  0  0  0  0  0999 V2000
   -1.6183    0.5613    3.8201 C   0  0  0  0  0  0  0  0  0  0  0  0
   -0.6710   -0.0534    3.3444 O   0  0  0  0  0  0  0  0  0  0  0  0
   -2.0502    0.2789    5.2208 C   0  0  0  0  0  0  0  0  0  0  0  0
   -2.8099   -0.5175    5.2742 H   0  0  0  0  0  0  0  0  0  0  0  0
   -1.2190   -0.0687    5.8551 H   0  0  0  0  0  0  0  0  0  0  0  0
   -2.4882    1.1338    5.7604 H   0  0  0  0  0  0  0  0  0  0  0  0
   -2.3680    1.5337    3.1790 N   0  0  0  0  0  0  0  0  0  0  0  0
   -2.1212    1.9597    1.8266 C   0  0  2  0  0  0  0  0  0  0  0  0
   -0.7862    1.3744    1.3854 C   0  0  0  0  0  0  0  0  0  0  0  0
    0.0859    1.0216    2.1767 O   0  0  0  0  0  0  0  0  0  0  0  0
   -2.1124    3.4765    1.7171 C   0  0  0  0  0  0  0  0  0  0  0  0
   -3.1331    1.9695    3.6908 H   0  0  0  0  0  0  0  0  0  0  0  0
   -2.9253    1.5413    1.2115 H   0  0  0  0  0  0  0  0  0  0  0  0
   -1.3133    3.9138    2.3268 H   0  0  0  0  0  0  0  0  0  0  0  0
   -1.9529    3.7988    0.6829 H   0  0  0  0  0  0  0  0  0  0  0  0
   -3.0626    3.8977    2.0629 H   0  0  0  0  0  0  0  0  0  0  0  0
   -0.6635    1.3313    0.0020 N   0  0  0  0  0  0  0  0  0  0  0  0
    0.5138    0.8305   -0.6617 C   0  0  2  0  0  0  0  0  0  0  0  0
    0.9094   -0.4648    0.0382 C   0  0  0  0  0  0  0  0  0  0  0  0
    1.9812   -0.6093    0.6225 O   0  0  0  0  0  0  0  0  0  0  0  0
    1.6723    1.8336   -0.6209 C   0  0  0  0  0  0  0  0  0  0  0  0
    1.3686    3.1068   -1.3721 C   0  0  0  0  0  0  0  0  0  0  0  0
    1.3825    3.1283   -2.7444 N   0  0  0  0  0  0  0  0  0  0  0  0
    1.0572    4.3440   -0.8593 C   0  0  0  0  0  0  0  0  0  0  0  0
    1.0817    4.3677   -3.0628 C   0  0  0  0  0  0  0  0  0  0  0  0
    0.8766    5.1412   -1.9543 N   0  0  0  0  0  0  0  0  0  0  0  0
   -1.4467    1.6280   -0.5753 H   0  0  0  0  0  0  0  0  0  0  0  0
    0.2189    0.6053   -1.6933 H   0  0  0  0  0  0  0  0  0  0  0  0
    2.5861    1.3760   -1.0236 H   0  0  0  0  0  0  0  0  0  0  0  0
    1.9155    2.0966    0.4171 H   0  0  0  0  0  0  0  0  0  0  0  0
    0.9510    4.7201    0.1481 H   0  0  0  0  0  0  0  0  0  0  0  0
    0.9970    4.7652   -4.0644 H   0  0  0  0  0  0  0  0  0  0  0  0
    0.6347    6.1231   -1.9464 H   0  0  0  0  0  0  0  0  0  0  0  0
   -0.0969   -1.4185   -0.0262 N   0  0  0  0  0  0  0  0  0  0  0  0
    0.0106   -2.7276    0.5768 C   0  0  2  0  0  0  0  0  0  0  0  0
    1.3348   -3.3396    0.1392 C   0  0  0  0  0  0  0  0  0  0  0  0
    1.9353   -2.9856   -0.8733 O   0  0  0  0  0  0  0  0  0  0  0  0
   -1.1570   -3.6173    0.1796 C   0  0  0  0  0  0  0  0  0  0  0  0
   -0.9521   -1.1847   -0.5220 H   0  0  0  0  0  0  0  0  0  0  0  0
    0.0183   -2.5764    1.6617 H   0  0  0  0  0  0  0  0  0  0  0  0
   -1.1812   -3.7802   -0.9041 H   0  0  0  0  0  0  0  0  0  0  0  0
   -1.0891   -4.5991    0.6599 H   0  0  0  0  0  0  0  0  0  0  0  0
   -2.1102   -3.1616    0.4686 H   0  0  0  0  0  0  0  0  0  0  0  0
    1.7454   -4.3573    0.9889 N   0  0  0  0  0  0  0  0  0  0  0  0
    2.9649   -5.1025    0.7803 C   0  0  0  0  0  0  0  0  0  0  0  0
    1.1948   -4.5710    1.8152 H   0  0  0  0  0  0  0  0  0  0  0  0
    2.7472   -6.0055    0.1911 H   0  0  0  0  0  0  0  0  0  0  0  0
    3.6888   -4.4766    0.2379 H   0  0  0  0  0  0  0  0  0  0  0  0
    3.3879   -5.3929    1.7533 H   0  0  0  0  0  0  0  0  0  0  0  0
 22 24  2  0  0  0  0
 24 26  1  0  0  0  0
 23 25  2  0  0  0  0
 25 26  1  0  0  0  0
 21 22  1  0  0  0  0
 22 23  1  0  0  0  0
  1  3  1  0  0  0  0
  1  7  1  0  0  0  0
  1  2  2  0  0  0  0
 35 36  1  0  0  0  0
 36 44  1  0  0  0  0
 36 37  2  0  0  0  0
  8  9  1  0  0  0  0
  9 17  1  0  0  0  0
  9 10  2  0  0  0  0
 18 19  1  0  0  0  0
 19 34  1  0  0  0  0
 19 20  2  0  0  0  0
 35 38  1  0  0  0  0
  8 11  1  0  0  0  0
 44 45  1  0  0  0  0
 18 21  1  0  0  0  0
 34 35  1  0  0  0  0
  7  8  1  0  0  0  0
 17 18  1  0  0  0  0
 24 31  1  0  0  0  0
 25 32  1  0  0  0  0
  3  4  1  0  0  0  0
  3  5  1  0  0  0  0
  3  6  1  0  0  0  0
 38 41  1  0  0  0  0
 38 42  1  0  0  0  0
 38 43  1  0  0  0  0
 11 14  1  0  0  0  0
 11 15  1  0  0  0  0
 11 16  1  0  0  0  0
 45 47  1  0  0  0  0
 45 48  1  0  0  0  0
 45 49  1  0  0  0  0
 21 29  1  0  0  0  0
 21 30  1  0  0  0  0
 35 40  1  0  0  0  0
  8 13  1  0  0  0  0
 18 28  1  0  0  0  0
 26 33  1  0  0  0  0
 44 46  1  0  0  0  0
  7 12  1  0  0  0  0
 34 39  1  0  0  0  0
 17 27  1  0  0  0  0
M  END
$$$$

  -OEChem-05262214473D

 49 49  0     1  0  0  0  0  0999 V2000
   -1.6183    0.5613    3.8201 C   0  0  0  0  0  0  0  0  0  0  0  0
   -0.6710   -0.0534    3.3444 O   0  0  0  0  0  0  0  0  0  0  0  0
   -2.0502    0.2789    5.2208 C   0  0  0  0  0  0  0  0  0  0  0  0
   -2.8099   -0.5175    5.2742 H   0  0  0  0  0  0  0  0  0  0  0  0
   -1.2190   -0.0687    5.8551 H   0  0  0  0  0  0  0  0  0  0  0  0
   -2.4882    1.1338    5.7604 H   0  0  0  0  0  0  0  0  0  0  0  0
   -2.3680    1.5337    3.1790 N   0  0  0  0  0  0  0  0  0  0  0  0
   -2.1212    1.9597    1.8266 C   0  0  2  0  0  0  0  0  0  0  0  0
   -0.7862    1.3744    1.3854 C   0  0  0  0  0  0  0  0  0  0  0  0
    0.0859    1.0216    2.1767 O   0  0  0  0  0  0  0  0  0  0  0  0
   -2.1124    3.4765    1.7171 C   0  0  0  0  0  0  0  0  0  0  0  0
   -3.1331    1.9695    3.6908 H   0  0  0  0  0  0  0  0  0  0  0  0
   -2.9253    1.5413    1.2115 H   0  0  0  0  0  0  0  0  0  0  0  0
   -1.3133    3.9138    2.3268 H   0  0  0  0  0  0  0  0  0  0  0  0
   -1.9529    3.7988    0.6829 H   0  0  0  0  0  0  0  0  0  0  0  0
   -3.0626    3.8977    2.0629 H   0  0  0  0  0  0  0  0  0  0  0  0
   -0.6635    1.3313    0.0020 N   0  0  0  0  0  0  0  0  0  0  0  0
    0.5138    0.8305   -0.6617 C   0  0  2  0  0  0  0  0  0  0  0  0
    0.9094   -0.4648    0.0382 C   0  0  0  0  0  0  0  0  0  0  0  0
    1.8392   -0.5357    0.8390 O   0  0  0  0  0  0  0  0  0  0  0  0
    1.6723    1.8336   -0.6209 C   0  0  0  0  0  0  0  0  0  0  0  0
    1.3686    3.1068   -1.3721 C   0  0  0  0  0  0  0  0  0  0  0  0
    1.3825    3.1283   -2.7444 N   0  0  0  0  0  0  0  0  0  0  0  0
    1.0572    4.3440   -0.8593 C   0  0  0  0  0  0  0  0  0  0  0  0
    1.0817    4.3677   -3.0628 C   0  0  0  0  0  0  0  0  0  0  0  0
    0.8766    5.1412   -1.9543 N   0  0  0  0  0  0  0  0  0  0  0  0
   -1.4467    1.6280   -0.5753 H   0  0  0  0  0  0  0  0  0  0  0  0
    0.2189    0.6053   -1.6933 H   0  0  0  0  0  0  0  0  0  0  0  0
    2.5861    1.3760   -1.0236 H   0  0  0  0  0  0  0  0  0  0  0  0
    1.9155    2.0966    0.4171 H   0  0  0  0  0  0  0  0  0  0  0  0
    0.9510    4.7201    0.1481 H   0  0  0  0  0  0  0  0  0  0  0  0
    0.9970    4.7652   -4.0644 H   0  0  0  0  0  0  0  0  0  0  0  0
    0.6347    6.1231   -1.9464 H   0  0  0  0  0  0  0  0  0  0  0  0
    0.0694   -1.5163   -0.3012 N   0  0  0  0  0  0  0  0  0  0  0  0
    0.2087   -2.8495    0.2391 C   0  0  2  0  0  0  0  0  0  0  0  0
    1.6626   -3.2732    0.0769 C   0  0  0  0  0  0  0  0  0  0  0  0
    2.4179   -2.7742   -0.7548 O   0  0  0  0  0  0  0  0  0  0  0  0
   -0.7236   -3.8289   -0.4568 C   0  0  0  0  0  0  0  0  0  0  0  0
   -0.6810   -1.3400   -0.9626 H   0  0  0  0  0  0  0  0  0  0  0  0
   -0.0371   -2.7862    1.3047 H   0  0  0  0  0  0  0  0  0  0  0  0
   -0.4926   -3.9056   -1.5256 H   0  0  0  0  0  0  0  0  0  0  0  0
   -0.6375   -4.8323   -0.0272 H   0  0  0  0  0  0  0  0  0  0  0  0
   -1.7665   -3.5067   -0.3646 H   0  0  0  0  0  0  0  0  0  0  0  0
    2.0054   -4.3038    0.9408 N   0  0  0  0  0  0  0  0  0  0  0  0
    3.3253   -4.8895    0.9709 C   0  0  0  0  0  0  0  0  0  0  0  0
    1.3209   -4.6433    1.6101 H   0  0  0  0  0  0  0  0  0  0  0  0
    3.3558   -5.7607    0.3001 H   0  0  0  0  0  0  0  0  0  0  0  0
    4.0642   -4.1453    0.6389 H   0  0  0  0  0  0  0  0  0  0  0  0
    3.5615   -5.2083    1.9968 H   0  0  0  0  0  0  0  0  0  0  0  0
 22 24  2  0  0  0  0
 24 26  1  0  0  0  0
 23 25  2  0  0  0  0
 25 26  1  0  0  0  0
 21 22  1  0  0  0  0
 22 23  1  0  0  0  0
  1  3  1  0  0  0  0
  1  7  1  0  0  0  0
  1  2  2  0  0  0  0
 35 36  1  0  0  0  0
 36 44  1  0  0  0  0
 36 37  2  0  0  0  0
  8  9  1  0  0  0  0
  9 17  1  0  0  0  0
  9 10  2  0  0  0  0
 18 19  1  0  0  0  0
 19 34  1  0  0  0  0
 19 20  2  0  0  0  0
 35 38  1  0  0  0  0
  8 11  1  0  0  0  0
 44 45  1  0  0  0  0
 18 21  1  0  0  0  0
 34 35  1  0  0  0  0
  7  8  1  0  0  0  0
 17 18  1  0  0  0  0
 24 31  1  0  0  0  0
 25 32  1  0  0  0  0
  3  4  1  0  0  0  0
  3  5  1  0  0  0  0
  3  6  1  0  0  0  0
 38 41  1  0  0  0  0
 38 42  1  0  0  0  0
 38 43  1  0  0  0  0
 11 14  1  0  0  0  0
 11 15  1  0  0  0  0
 11 16  1  0  0  0  0
 45 47  1  0  0  0  0
 45 48  1  0  0  0  0
 45 49  1  0  0  0  0
 21 29  1  0  0  0  0
 21 30  1  0  0  0  0
 35 40  1  0  0  0  0
  8 13  1  0  0  0  0
 18 28  1  0  0  0  0
 26 33  1  0  0  0  0
 44 46  1  0  0  0  0
  7 12  1  0  0  0  0
 34 39  1  0  0  0  0
 17 27  1  0  0  0  0
M  END
$$$$

  -OEChem-05262214473D

 49 49  0     1  0  0  0  0  0999 V2000
   -1.6183    0.5613    3.8201 C   0  0  0  0  0  0  0  0  0  0  0  0
   -0.6710   -0.0534    3.3444 O   0  0  0  0  0  0  0  0  0  0  0  0
   -2.0502    0.2789    5.2208 C   0  0  0  0  0  0  0  0  0  0  0  0
   -2.8099   -0.5175    5.2742 H   0  0  0  0  0  0  0  0  0  0  0  0
   -1.2190   -0.0687    5.8551 H   0  0  0  0  0  0  0  0  0  0  0  0
   -2.4882    1.1338    5.7604 H   0  0  0  0  0  0  0  0  0  0  0  0
   -2.3680    1.5337    3.1790 N   0  0  0  0  0  0  0  0  0  0  0  0
   -2.1212    1.9597    1.8266 C   0  0  2  0  0  0  0  0  0  0  0  0
   -0.7862    1.3744    1.3854 C   0  0  0  0  0  0  0  0  0  0  0  0
    0.0859    1.0216    2.1767 O   0  0  0  0  0  0  0  0  0  0  0  0
   -2.1124    3.4765    1.7171 C   0  0  0  0  0  0  0  0  0  0  0  0
   -3.1331    1.9695    3.6908 H   0  0  0  0  0  0  0  0  0  0  0  0
   -2.9253    1.5413    1.2115 H   0  0  0  0  0  0  0  0  0  0  0  0
   -1.3133    3.9138    2.3268 H   0  0  0  0  0  0  0  0  0  0  0  0
   -1.9529    3.7988    0.6829 H   0  0  0  0  0  0  0  0  0  0  0  0
   -3.0626    3.8977    2.0629 H   0  0  0  0  0  0  0  0  0  0  0  0
   -0.6635    1.3313    0.0020 N   0  0  0  0  0  0  0  0  0  0  0  0
    0.5138    0.8305   -0.6617 C   0  0  2  0  0  0  0  0  0  0  0  0
    0.9094   -0.4648    0.0382 C   0  0  0  0  0  0  0  0  0  0  0  0
    1.6458   -0.4959    1.0219 O   0  0  0  0  0  0  0  0  0  0  0  0
    1.6723    1.8336   -0.6209 C   0  0  0  0  0  0  0  0  0  0  0  0
    1.3686    3.1068   -1.3721 C   0  0  0  0  0  0  0  0  0  0  0  0
    1.3825    3.1283   -2.7444 N   0  0  0  0  0  0  0  0  0  0  0  0
    1.0572    4.3440   -0.8593 C   0  0  0  0  0  0  0  0  0  0  0  0
    1.0817    4.3677   -3.0628 C   0  0  0  0  0  0  0  0  0  0  0  0
    0.8766    5.1412   -1.9543 N   0  0  0  0  0  0  0  0  0  0  0  0
   -1.4467    1.6280   -0.5753 H   0  0  0  0  0  0  0  0  0  0  0  0
    0.2189    0.6053   -1.6933 H   0  0  0  0  0  0  0  0  0  0  0  0
    2.5861    1.3760   -1.0236 H   0  0  0  0  0  0  0  0  0  0  0  0
    1.9155    2.0966    0.4171 H   0  0  0  0  0  0  0  0  0  0  0  0
    0.9510    4.7201    0.1481 H   0  0  0  0  0  0  0  0  0  0  0  0
    0.9970    4.7652   -4.0644 H   0  0  0  0  0  0  0  0  0  0  0  0
    0.6347    6.1231   -1.9464 H   0  0  0  0  0  0  0  0  0  0  0  0
    0.3022   -1.5726   -0.5369 N   0  0  0  0  0  0  0  0  0  0  0  0
    0.4889   -2.9211   -0.0517 C   0  0  2  0  0  0  0  0  0  0  0  0
    1.9851   -3.1658    0.0932 C   0  0  0  0  0  0  0  0  0  0  0  0
    2.8329   -2.5206   -0.5201 O   0  0  0  0  0  0  0  0  0  0  0  0
   -0.1399   -3.9389   -0.9905 C   0  0  0  0  0  0  0  0  0  0  0  0
   -0.3039   -1.4282   -1.3391 H   0  0  0  0  0  0  0  0  0  0  0  0
    0.0129   -2.9715    0.9336 H   0  0  0  0  0  0  0  0  0  0  0  0
    0.3242   -3.9033   -1.9829 H   0  0  0  0  0  0  0  0  0  0  0  0
   -0.0225   -4.9579   -0.6072 H   0  0  0  0  0  0  0  0  0  0  0  0
   -1.2102   -3.7433   -1.1170 H   0  0  0  0  0  0  0  0  0  0  0  0
    2.2607   -4.2181    0.9551 N   0  0  0  0  0  0  0  0  0  0  0  0
    3.6062   -4.6537    1.2485 C   0  0  0  0  0  0  0  0  0  0  0  0
    1.4964   -4.6844    1.4348 H   0  0  0  0  0  0  0  0  0  0  0  0
    3.8905   -5.4593    0.5556 H   0  0  0  0  0  0  0  0  0  0  0  0
    4.2992   -3.8076    1.1310 H   0  0  0  0  0  0  0  0  0  0  0  0
    3.6537   -5.0258    2.2825 H   0  0  0  0  0  0  0  0  0  0  0  0
 22 24  2  0  0  0  0
 24 26  1  0  0  0  0
 23 25  2  0  0  0  0
 25 26  1  0  0  0  0
 21 22  1  0  0  0  0
 22 23  1  0  0  0  0
  1  3  1  0  0  0  0
  1  7  1  0  0  0  0
  1  2  2  0  0  0  0
 35 36  1  0  0  0  0
 36 44  1  0  0  0  0
 36 37  2  0  0  0  0
  8  9  1  0  0  0  0
  9 17  1  0  0  0  0
  9 10  2  0  0  0  0
 18 19  1  0  0  0  0
 19 34  1  0  0  0  0
 19 20  2  0  0  0  0
 35 38  1  0  0  0  0
  8 11  1  0  0  0  0
 44 45  1  0  0  0  0
 18 21  1  0  0  0  0
 34 35  1  0  0  0  0
  7  8  1  0  0  0  0
 17 18  1  0  0  0  0
 24 31  1  0  0  0  0
 25 32  1  0  0  0  0
  3  4  1  0  0  0  0
  3  5  1  0  0  0  0
  3  6  1  0  0  0  0
 38 41  1  0  0  0  0
 38 42  1  0  0  0  0
 38 43  1  0  0  0  0
 11 14  1  0  0  0  0
 11 15  1  0  0  0  0
 11 16  1  0  0  0  0
 45 47  1  0  0  0  0
 45 48  1  0  0  0  0
 45 49  1  0  0  0  0
 21 29  1  0  0  0  0
 21 30  1  0  0  0  0
 35 40  1  0  0  0  0
  8 13  1  0  0  0  0
 18 28  1  0  0  0  0
 26 33  1  0  0  0  0
 44 46  1  0  0  0  0
  7 12  1  0  0  0  0
 34 39  1  0  0  0  0
 17 27  1  0  0  0  0
M  END
$$$$

  -OEChem-05262214473D

 49 49  0     1  0  0  0  0  0999 V2000
   -1.6183    0.5613    3.8201 C   0  0  0  0  0  0  0  0  0  0  0  0
   -0.6710   -0.0534    3.3444 O   0  0  0  0  0  0  0  0  0  0  0  0
   -2.0502    0.2789    5.2208 C   0  0  0  0  0  0  0  0  0  0  0  0
   -2.8099   -0.5175    5.2742 H   0  0  0  0  0  0  0  0  0  0  0  0
   -1.2190   -0.0687    5.8551 H   0  0  0  0  0  0  0  0  0  0  0  0
   -2.4882    1.1338    5.7604 H   0  0  0  0  0  0  0  0  0  0  0  0
   -2.3680    1.5337    3.1790 N   0  0  0  0  0  0  0  0  0  0  0  0
   -2.1212    1.9597    1.8266 C   0  0  2  0  0  0  0  0  0  0  0  0
   -0.7862    1.3744    1.3854 C   0  0  0  0  0  0  0  0  0  0  0  0
    0.0859    1.0216    2.1767 O   0  0  0  0  0  0  0  0  0  0  0  0
   -2.1124    3.4765    1.7171 C   0  0  0  0  0  0  0  0  0  0  0  0
   -3.1331    1.9695    3.6908 H   0  0  0  0  0  0  0  0  0  0  0  0
   -2.9253    1.5413    1.2115 H   0  0  0  0  0  0  0  0  0  0  0  0
   -1.3133    3.9138    2.3268 H   0  0  0  0  0  0  0  0  0  0  0  0
   -1.9529    3.7988    0.6829 H   0  0  0  0  0  0  0  0  0  0  0  0
   -3.0626    3.8977    2.0629 H   0  0  0  0  0  0  0  0  0  0  0  0
   -0.6635    1.3313    0.0020 N   0  0  0  0  0  0  0  0  0  0  0  0
    0.5138    0.8305   -0.6617 C   0  0  2  0  0  0  0  0  0  0  0  0
    0.9094   -0.4648    0.0382 C   0  0  0  0  0  0  0  0  0  0  0  0
    1.4140   -0.4928    1.1587 O   0  0  0  0  0  0  0  0  0  0  0  0
    1.6723    1.8336   -0.6209 C   0  0  0  0  0  0  0  0  0  0  0  0
    1.3686    3.1068   -1.3721 C   0  0  0  0  0  0  0  0  0  0  0  0
    1.3825    3.1283   -2.7444 N   0  0  0  0  0  0  0  0  0  0  0  0
    1.0572    4.3440   -0.8593 C   0  0  0  0  0  0  0  0  0  0  0  0
    1.0817    4.3677   -3.0628 C   0  0  0  0  0  0  0  0  0  0  0  0
    0.8766    5.1412   -1.9543 N   0  0  0  0  0  0  0  0  0  0  0  0
   -1.4467    1.6280   -0.5753 H   0  0  0  0  0  0  0  0  0  0  0  0
    0.2189    0.6053   -1.6933 H   0  0  0  0  0  0  0  0  0  0  0  0
    2.5861    1.3760   -1.0236 H   0  0  0  0  0  0  0  0  0  0  0  0
    1.9155    2.0966    0.4171 H   0  0  0  0  0  0  0  0  0  0  0  0
    0.9510    4.7201    0.1481 H   0  0  0  0  0  0  0  0  0  0  0  0
    0.9970    4.7652   -4.0644 H   0  0  0  0  0  0  0  0  0  0  0  0
    0.6347    6.1231   -1.9464 H   0  0  0  0  0  0  0  0  0  0  0  0
    0.5856   -1.5834   -0.7171 N   0  0  0  0  0  0  0  0  0  0  0  0
    0.8320   -2.9374   -0.2758 C   0  0  2  0  0  0  0  0  0  0  0  0
    2.2803   -3.0249    0.1871 C   0  0  0  0  0  0  0  0  0  0  0  0
    3.1519   -2.2421   -0.1850 O   0  0  0  0  0  0  0  0  0  0  0  0
    0.5544   -3.9400   -1.3850 C   0  0  0  0  0  0  0  0  0  0  0  0
    0.1536   -1.4433   -1.6257 H   0  0  0  0  0  0  0  0  0  0  0  0
    0.1648   -3.1196    0.5737 H   0  0  0  0  0  0  0  0  0  0  0  0
    1.2134   -3.7732   -2.2449 H   0  0  0  0  0  0  0  0  0  0  0  0
    0.7141   -4.9671   -1.0406 H   0  0  0  0  0  0  0  0  0  0  0  0
   -0.4793   -3.8553   -1.7373 H   0  0  0  0  0  0  0  0  0  0  0  0
    2.4940   -4.1059    1.0309 N   0  0  0  0  0  0  0  0  0  0  0  0
    3.7884   -4.4112    1.5942 C   0  0  0  0  0  0  0  0  0  0  0  0
    1.7094   -4.6915    1.3014 H   0  0  0  0  0  0  0  0  0  0  0  0
    4.3151   -5.1218    0.9402 H   0  0  0  0  0  0  0  0  0  0  0  0
    4.3779   -3.4865    1.6807 H   0  0  0  0  0  0  0  0  0  0  0  0
    3.6583   -4.8577    2.5911 H   0  0  0  0  0  0  0  0  0  0  0  0
 22 24  2  0  0  0  0
 24 26  1  0  0  0  0
 23 25  2  0  0  0  0
 25 26  1  0  0  0  0
 21 22  1  0  0  0  0
 22 23  1  0  0  0  0
  1  3  1  0  0  0  0
  1  7  1  0  0  0  0
  1  2  2  0  0  0  0
 35 36  1  0  0  0  0
 36 44  1  0  0  0  0
 36 37  2  0  0  0  0
  8  9  1  0  0  0  0
  9 17  1  0  0  0  0
  9 10  2  0  0  0  0
 18 19  1  0  0  0  0
 19 34  1  0  0  0  0
 19 20  2  0  0  0  0
 35 38  1  0  0  0  0
  8 11  1  0  0  0  0
 44 45  1  0  0  0  0
 18 21  1  0  0  0  0
 34 35  1  0  0  0  0
  7  8  1  0  0  0  0
 17 18  1  0  0  0  0
 24 31  1  0  0  0  0
 25 32  1  0  0  0  0
  3  4  1  0  0  0  0
  3  5  1  0  0  0  0
  3  6  1  0  0  0  0
 38 41  1  0  0  0  0
 38 42  1  0  0  0  0
 38 43  1  0  0  0  0
 11 14  1  0  0  0  0
 11 15  1  0  0  0  0
 11 16  1  0  0  0  0
 45 47  1  0  0  0  0
 45 48  1  0  0  0  0
 45 49  1  0  0  0  0
 21 29  1  0  0  0  0
 21 30  1  0  0  0  0
 35 40  1  0  0  0  0
  8 13  1  0  0  0  0
 18 28  1  0  0  0  0
 26 33  1  0  0  0  0
 44 46  1  0  0  0  0
  7 12  1  0  0  0  0
 34 39  1  0  0  0  0
 17 27  1  0  0  0  0
M  END
$$$$

  -OEChem-05262214473D

 49 49  0     1  0  0  0  0  0999 V2000
   -1.6183    0.5613    3.8201 C   0  0  0  0  0  0  0  0  0  0  0  0
   -0.6710   -0.0534    3.3444 O   0  0  0  0  0  0  0  0  0  0  0  0
   -2.0502    0.2789    5.2208 C   0  0  0  0  0  0  0  0  0  0  0  0
   -2.8099   -0.5175    5.2742 H   0  0  0  0  0  0  0  0  0  0  0  0
   -1.2190   -0.0687    5.8551 H   0  0  0  0  0  0  0  0  0  0  0  0
   -2.4882    1.1338    5.7604 H   0  0  0  0  0  0  0  0  0  0  0  0
   -2.3680    1.5337    3.1790 N   0  0  0  0  0  0  0  0  0  0  0  0
   -2.1212    1.9597    1.8266 C   0  0  2  0  0  0  0  0  0  0  0  0
   -0.7862    1.3744    1.3854 C   0  0  0  0  0  0  0  0  0  0  0  0
    0.0859    1.0216    2.1767 O   0  0  0  0  0  0  0  0  0  0  0  0
   -2.1124    3.4765    1.7171 C   0  0  0  0  0  0  0  0  0  0  0  0
   -3.1331    1.9695    3.6908 H   0  0  0  0  0  0  0  0  0  0  0  0
   -2.9253    1.5413    1.2115 H   0  0  0  0  0  0  0  0  0  0  0  0
   -1.3133    3.9138    2.3268 H   0  0  0  0  0  0  0  0  0  0  0  0
   -1.9529    3.7988    0.6829 H   0  0  0  0  0  0  0  0  0  0  0  0
   -3.0626    3.8977    2.0629 H   0  0  0  0  0  0  0  0  0  0  0  0
   -0.6635    1.3313    0.0020 N   0  0  0  0  0  0  0  0  0  0  0  0
    0.5138    0.8305   -0.6617 C   0  0  2  0  0  0  0  0  0  0  0  0
    0.9094   -0.4648    0.0382 C   0  0  0  0  0  0  0  0  0  0  0  0
    1.1596   -0.5265    1.2401 O   0  0  0  0  0  0  0  0  0  0  0  0
    1.6723    1.8336   -0.6209 C   0  0  0  0  0  0  0  0  0  0  0  0
    1.3686    3.1068   -1.3721 C   0  0  0  0  0  0  0  0  0  0  0  0
    1.3825    3.1283   -2.7444 N   0  0  0  0  0  0  0  0  0  0  0  0
    1.0572    4.3440   -0.8593 C   0  0  0  0  0  0  0  0  0  0  0  0
    1.0817    4.3677   -3.0628 C   0  0  0  0  0  0  0  0  0  0  0  0
    0.8766    5.1412   -1.9543 N   0  0  0  0  0  0  0  0  0  0  0  0
   -1.4467    1.6280   -0.5753 H   0  0  0  0  0  0  0  0  0  0  0  0
    0.2189    0.6053   -1.6933 H   0  0  0  0  0  0  0  0  0  0  0  0
    2.5861    1.3760   -1.0236 H   0  0  0  0  0  0  0  0  0  0  0  0
    1.9155    2.0966    0.4171 H   0  0  0  0  0  0  0  0  0  0  0  0
    0.9510    4.7201    0.1481 H   0  0  0  0  0  0  0  0  0  0  0  0
    0.9970    4.7652   -4.0644 H   0  0  0  0  0  0  0  0  0  0  0  0
    0.6347    6.1231   -1.9464 H   0  0  0  0  0  0  0  0  0  0  0  0
    0.9002   -1.5481   -0.8295 N   0  0  0  0  0  0  0  0  0  0  0  0
    1.2146   -2.8973   -0.4179 C   0  0  2  0  0  0  0  0  0  0  0  0
    2.5280   -2.8601    0.3522 C   0  0  0  0  0  0  0  0  0  0  0  0
    3.3534   -1.9577    0.2275 O   0  0  0  0  0  0  0  0  0  0  0  0
    1.3119   -3.8321   -1.6135 C   0  0  0  0  0  0  0  0  0  0  0  0
    0.6604   -1.3842   -1.8029 H   0  0  0  0  0  0  0  0  0  0  0  0
    0.4082   -3.2204    0.2495 H   0  0  0  0  0  0  0  0  0  0  0  0
    2.1145   -3.5243   -2.2936 H   0  0  0  0  0  0  0  0  0  0  0  0
    1.5219   -4.8594   -1.2979 H   0  0  0  0  0  0  0  0  0  0  0  0
    0.3764   -3.8348   -2.1832 H   0  0  0  0  0  0  0  0  0  0  0  0
    2.6894   -3.9749    1.1629 N   0  0  0  0  0  0  0  0  0  0  0  0
    3.8596   -4.1786    1.9845 C   0  0  0  0  0  0  0  0  0  0  0  0
    1.9453   -4.6640    1.2188 H   0  0  0  0  0  0  0  0  0  0  0  0
    4.6005   -4.7712    1.4278 H   0  0  0  0  0  0  0  0  0  0  0  0
    4.2949   -3.2040    2.2505 H   0  0  0  0  0  0  0  0  0  0  0  0
    3.5749   -4.7155    2.9014 H   0  0  0  0  0  0  0  0  0  0  0  0
 22 24  2  0  0  0  0
 24 26  1  0  0  0  0
 23 25  2  0  0  0  0
 25 26  1  0  0  0  0
 21 22  1  0  0  0  0
 22 23  1  0  0  0  0
  1  3  1  0  0  0  0
  1  7  1  0  0  0  0
  1  2  2  0  0  0  0
 35 36  1  0  0  0  0
 36 44  1  0  0  0  0
 36 37  2  0  0  0  0
  8  9  1  0  0  0  0
  9 17  1  0  0  0  0
  9 10  2  0  0  0  0
 18 19  1  0  0  0  0
 19 34  1  0  0  0  0
 19 20  2  0  0  0  0
 35 38  1  0  0  0  0
  8 11  1  0  0  0  0
 44 45  1  0  0  0  0
 18 21  1  0  0  0  0
 34 35  1  0  0  0  0
  7  8  1  0  0  0  0
 17 18  1  0  0  0  0
 24 31  1  0  0  0  0
 25 32  1  0  0  0  0
  3  4  1  0  0  0  0
  3  5  1  0  0  0  0
  3  6  1  0  0  0  0
 38 41  1  0  0  0  0
 38 42  1  0  0  0  0
 38 43  1  0  0  0  0
 11 14  1  0  0  0  0
 11 15  1  0  0  0  0
 11 16  1  0  0  0  0
 45 47  1  0  0  0  0
 45 48  1  0  0  0  0
 45 49  1  0  0  0  0
 21 29  1  0  0  0  0
 21 30  1  0  0  0  0
 35 40  1  0  0  0  0
  8 13  1  0  0  0  0
 18 28  1  0  0  0  0
 26 33  1  0  0  0  0
 44 46  1  0  0  0  0
  7 12  1  0  0  0  0
 34 39  1  0  0  0  0
 17 27  1  0  0  0  0
M  END
$$$$

  -OEChem-05262214473D

 49 49  0     1  0  0  0  0  0999 V2000
   -1.6183    0.5613    3.8201 C   0  0  0  0  0  0  0  0  0  0  0  0
   -0.6710   -0.0534    3.3444 O   0  0  0  0  0  0  0  0  0  0  0  0
   -2.0502    0.2789    5.2208 C   0  0  0  0  0  0  0  0  0  0  0  0
   -2.8099   -0.5175    5.2742 H   0  0  0  0  0  0  0  0  0  0  0  0
   -1.2190   -0.0687    5.8551 H   0  0  0  0  0  0  0  0  0  0  0  0
   -2.4882    1.1338    5.7604 H   0  0  0  0  0  0  0  0  0  0  0  0
   -2.3680    1.5337    3.1790 N   0  0  0  0  0  0  0  0  0  0  0  0
   -2.1212    1.9597    1.8266 C   0  0  2  0  0  0  0  0  0  0  0  0
   -0.7862    1.3744    1.3854 C   0  0  0  0  0  0  0  0  0  0  0  0
    0.0859    1.0216    2.1767 O   0  0  0  0  0  0  0  0  0  0  0  0
   -2.1124    3.4765    1.7171 C   0  0  0  0  0  0  0  0  0  0  0  0
   -3.1331    1.9695    3.6908 H   0  0  0  0  0  0  0  0  0  0  0  0
   -2.9253    1.5413    1.2115 H   0  0  0  0  0  0  0  0  0  0  0  0
   -1.3133    3.9138    2.3268 H   0  0  0  0  0  0  0  0  0  0  0  0
   -1.9529    3.7988    0.6829 H   0  0  0  0  0  0  0  0  0  0  0  0
   -3.0626    3.8977    2.0629 H   0  0  0  0  0  0  0  0  0  0  0  0
   -0.6635    1.3313    0.0020 N   0  0  0  0  0  0  0  0  0  0  0  0
    0.5138    0.8305   -0.6617 C   0  0  2  0  0  0  0  0  0  0  0  0
    0.9094   -0.4648    0.0382 C   0  0  0  0  0  0  0  0  0  0  0  0
    0.9001   -0.5948    1.2605 O   0  0  0  0  0  0  0  0  0  0  0  0
    1.6723    1.8336   -0.6209 C   0  0  0  0  0  0  0  0  0  0  0  0
    1.3686    3.1068   -1.3721 C   0  0  0  0  0  0  0  0  0  0  0  0
    1.3825    3.1283   -2.7444 N   0  0  0  0  0  0  0  0  0  0  0  0
    1.0572    4.3440   -0.8593 C   0  0  0  0  0  0  0  0  0  0  0  0
    1.0817    4.3677   -3.0628 C   0  0  0  0  0  0  0  0  0  0  0  0
    0.8766    5.1412   -1.9543 N   0  0  0  0  0  0  0  0  0  0  0  0
   -1.4467    1.6280   -0.5753 H   0  0  0  0  0  0  0  0  0  0  0  0
    0.2189    0.6053   -1.6933 H   0  0  0  0  0  0  0  0  0  0  0  0
    2.5861    1.3760   -1.0236 H   0  0  0  0  0  0  0  0  0  0  0  0
    1.9155    2.0966    0.4171 H   0  0  0  0  0  0  0  0  0  0  0  0
    0.9510    4.7201    0.1481 H   0  0  0  0  0  0  0  0  0  0  0  0
    0.9970    4.7652   -4.0644 H   0  0  0  0  0  0  0  0  0  0  0  0
    0.6347    6.1231   -1.9464 H   0  0  0  0  0  0  0  0  0  0  0  0
    1.2246   -1.4690   -0.8666 N   0  0  0  0  0  0  0  0  0  0  0  0
    1.6107   -2.8036   -0.4684 C   0  0  2  0  0  0  0  0  0  0  0  0
    2.7114   -2.6825    0.5772 C   0  0  0  0  0  0  0  0  0  0  0  0
    3.4235   -1.6868    0.6893 O   0  0  0  0  0  0  0  0  0  0  0  0
    2.0810   -3.6225   -1.6604 C   0  0  0  0  0  0  0  0  0  0  0  0
    1.1819   -1.2551   -1.8587 H   0  0  0  0  0  0  0  0  0  0  0  0
    0.7267   -3.2670   -0.0169 H   0  0  0  0  0  0  0  0  0  0  0  0
    2.9660   -3.1735   -2.1259 H   0  0  0  0  0  0  0  0  0  0  0  0
    2.3460   -4.6420   -1.3616 H   0  0  0  0  0  0  0  0  0  0  0  0
    1.2985   -3.6835   -2.4244 H   0  0  0  0  0  0  0  0  0  0  0  0
    2.8335   -3.8340    1.3422 N   0  0  0  0  0  0  0  0  0  0  0  0
    3.8150   -3.9716    2.3928 C   0  0  0  0  0  0  0  0  0  0  0  0
    2.1880   -4.6039    1.1928 H   0  0  0  0  0  0  0  0  0  0  0  0
    4.7273   -4.4314    1.9851 H   0  0  0  0  0  0  0  0  0  0  0  0
    4.0558   -2.9792    2.8017 H   0  0  0  0  0  0  0  0  0  0  0  0
    3.4092   -4.6089    3.1923 H   0  0  0  0  0  0  0  0  0  0  0  0
 22 24  2  0  0  0  0
 24 26  1  0  0  0  0
 23 25  2  0  0  0  0
 25 26  1  0  0  0  0
 21 22  1  0  0  0  0
 22 23  1  0  0  0  0
  1  3  1  0  0  0  0
  1  7  1  0  0  0  0
  1  2  2  0  0  0  0
 35 36  1  0  0  0  0
 36 44  1  0  0  0  0
 36 37  2  0  0  0  0
  8  9  1  0  0  0  0
  9 17  1  0  0  0  0
  9 10  2  0  0  0  0
 18 19  1  0  0  0  0
 19 34  1  0  0  0  0
 19 20  2  0  0  0  0
 35 38  1  0  0  0  0
  8 11  1  0  0  0  0
 44 45  1  0  0  0  0
 18 21  1  0  0  0  0
 34 35  1  0  0  0  0
  7  8  1  0  0  0  0
 17 18  1  0  0  0  0
 24 31  1  0  0  0  0
 25 32  1  0  0  0  0
  3  4  1  0  0  0  0
  3  5  1  0  0  0  0
  3  6  1  0  0  0  0
 38 41  1  0  0  0  0
 38 42  1  0  0  0  0
 38 43  1  0  0  0  0
 11 14  1  0  0  0  0
 11 15  1  0  0  0  0
 11 16  1  0  0  0  0
 45 47  1  0  0  0  0
 45 48  1  0  0  0  0
 45 49  1  0  0  0  0
 21 29  1  0  0  0  0
 21 30  1  0  0  0  0
 35 40  1  0  0  0  0
  8 13  1  0  0  0  0
 18 28  1  0  0  0  0
 26 33  1  0  0  0  0
 44 46  1  0  0  0  0
  7 12  1  0  0  0  0
 34 39  1  0  0  0  0
 17 27  1  0  0  0  0
M  END
$$$$

  -OEChem-05262214473D

 49 49  0     1  0  0  0  0  0999 V2000
   -1.6183    0.5613    3.8201 C   0  0  0  0  0  0  0  0  0  0  0  0
   -0.6710   -0.0534    3.3444 O   0  0  0  0  0  0  0  0  0  0  0  0
   -2.0502    0.2789    5.2208 C   0  0  0  0  0  0  0  0  0  0  0  0
   -2.8099   -0.5175    5.2742 H   0  0  0  0  0  0  0  0  0  0  0  0
   -1.2190   -0.0687    5.8551 H   0  0  0  0  0  0  0  0  0  0  0  0
   -2.4882    1.1338    5.7604 H   0  0  0  0  0  0  0  0  0  0  0  0
   -2.3680    1.5337    3.1790 N   0  0  0  0  0  0  0  0  0  0  0  0
   -2.1212    1.9597    1.8266 C   0  0  2  0  0  0  0  0  0  0  0  0
   -0.7862    1.3744    1.3854 C   0  0  0  0  0  0  0  0  0  0  0  0
    0.0859    1.0216    2.1767 O   0  0  0  0  0  0  0  0  0  0  0  0
   -2.1124    3.4765    1.7171 C   0  0  0  0  0  0  0  0  0  0  0  0
   -3.1331    1.9695    3.6908 H   0  0  0  0  0  0  0  0  0  0  0  0
   -2.9253    1.5413    1.2115 H   0  0  0  0  0  0  0  0  0  0  0  0
   -1.3133    3.9138    2.3268 H   0  0  0  0  0  0  0  0  0  0  0  0
   -1.9529    3.7988    0.6829 H   0  0  0  0  0  0  0  0  0  0  0  0
   -3.0626    3.8977    2.0629 H   0  0  0  0  0  0  0  0  0  0  0  0
   -0.6635    1.3313    0.0020 N   0  0  0  0  0  0  0  0  0  0  0  0
    0.5138    0.8305   -0.6617 C   0  0  2  0  0  0  0  0  0  0  0  0
    0.9094   -0.4648    0.0382 C   0  0  0  0  0  0  0  0  0  0  0  0
    0.6530   -0.6930    1.2185 O   0  0  0  0  0  0  0  0  0  0  0  0
    1.6723    1.8336   -0.6209 C   0  0  0  0  0  0  0  0  0  0  0  0
    1.3686    3.1068   -1.3721 C   0  0  0  0  0  0  0  0  0  0  0  0
    1.3825    3.1283   -2.7444 N   0  0  0  0  0  0  0  0  0  0  0  0
    1.0572    4.3440   -0.8593 C   0  0  0  0  0  0  0  0  0  0  0  0
    1.0817    4.3677   -3.0628 C   0  0  0  0  0  0  0  0  0  0  0  0
    0.8766    5.1412   -1.9543 N   0  0  0  0  0  0  0  0  0  0  0  0
   -1.4467    1.6280   -0.5753 H   0  0  0  0  0  0  0  0  0  0  0  0
    0.2189    0.6053   -1.6933 H   0  0  0  0  0  0  0  0  0  0  0  0
    2.5861    1.3760   -1.0236 H   0  0  0  0  0  0  0  0  0  0  0  0
    1.9155    2.0966    0.4171 H   0  0  0  0  0  0  0  0  0  0  0  0
    0.9510    4.7201    0.1481 H   0  0  0  0  0  0  0  0  0  0  0  0
    0.9970    4.7652   -4.0644 H   0  0  0  0  0  0  0  0  0  0  0  0
    0.6347    6.1231   -1.9464 H   0  0  0  0  0  0  0  0  0  0  0  0
    1.5368   -1.3516   -0.8258 N   0  0  0  0  0  0  0  0  0  0  0  0
    1.9932   -2.6626   -0.4237 C   0  0  2  0  0  0  0  0  0  0  0  0
    2.8179   -2.5043    0.8468 C   0  0  0  0  0  0  0  0  0  0  0  0
    3.3574   -1.4477    1.1690 O   0  0  0  0  0  0  0  0  0  0  0  0
    2.8093   -3.3255   -1.5224 C   0  0  0  0  0  0  0  0  0  0  0  0
    1.6825   -1.0647   -1.7893 H   0  0  0  0  0  0  0  0  0  0  0  0
    1.0984   -3.2564   -0.2073 H   0  0  0  0  0  0  0  0  0  0  0  0
    3.7100   -2.7448   -1.7530 H   0  0  0  0  0  0  0  0  0  0  0  0
    3.1302   -4.3299   -1.2273 H   0  0  0  0  0  0  0  0  0  0  0  0
    2.2243   -3.4115   -2.4445 H   0  0  0  0  0  0  0  0  0  0  0  0
    2.9165   -3.6928    1.5565 N   0  0  0  0  0  0  0  0  0  0  0  0
    3.6574   -3.8044    2.7913 C   0  0  0  0  0  0  0  0  0  0  0  0
    2.4210   -4.5153    1.2251 H   0  0  0  0  0  0  0  0  0  0  0  0
    4.6868   -4.1255    2.5741 H   0  0  0  0  0  0  0  0  0  0  0  0
    3.6770   -2.8275    3.2966 H   0  0  0  0  0  0  0  0  0  0  0  0
    3.1725   -4.5452    3.4441 H   0  0  0  0  0  0  0  0  0  0  0  0
 22 24  2  0  0  0  0
 24 26  1  0  0  0  0
 23 25  2  0  0  0  0
 25 26  1  0  0  0  0
 21 22  1  0  0  0  0
 22 23  1  0  0  0  0
  1  3  1  0  0  0  0
  1  7  1  0  0  0  0
  1  2  2  0  0  0  0
 35 36  1  0  0  0  0
 36 44  1  0  0  0  0
 36 37  2  0  0  0  0
  8  9  1  0  0  0  0
  9 17  1  0  0  0  0
  9 10  2  0  0  0  0
 18 19  1  0  0  0  0
 19 34  1  0  0  0  0
 19 20  2  0  0  0  0
 35 38  1  0  0  0  0
  8 11  1  0  0  0  0
 44 45  1  0  0  0  0
 18 21  1  0  0  0  0
 34 35  1  0  0  0  0
  7  8  1  0  0  0  0
 17 18  1  0  0  0  0
 24 31  1  0  0  0  0
 25 32  1  0  0  0  0
  3  4  1  0  0  0  0
  3  5  1  0  0  0  0
  3  6  1  0  0  0  0
 38 41  1  0  0  0  0
 38 42  1  0  0  0  0
 38 43  1  0  0  0  0
 11 14  1  0  0  0  0
 11 15  1  0  0  0  0
 11 16  1  0  0  0  0
 45 47  1  0  0  0  0
 45 48  1  0  0  0  0
 45 49  1  0  0  0  0
 21 29  1  0  0  0  0
 21 30  1  0  0  0  0
 35 40  1  0  0  0  0
  8 13  1  0  0  0  0
 18 28  1  0  0  0  0
 26 33  1  0  0  0  0
 44 46  1  0  0  0  0
  7 12  1  0  0  0  0
 34 39  1  0  0  0  0
 17 27  1  0  0  0  0
M  END
$$$$

  -OEChem-05262214473D

 49 49  0     1  0  0  0  0  0999 V2000
   -1.6183    0.5613    3.8201 C   0  0  0  0  0  0  0  0  0  0  0  0
   -0.6710   -0.0534    3.3444 O   0  0  0  0  0  0  0  0  0  0  0  0
   -2.0502    0.2789    5.2208 C   0  0  0  0  0  0  0  0  0  0  0  0
   -2.8099   -0.5175    5.2742 H   0  0  0  0  0  0  0  0  0  0  0  0
   -1.2190   -0.0687    5.8551 H   0  0  0  0  0  0  0  0  0  0  0  0
   -2.4882    1.1338    5.7604 H   0  0  0  0  0  0  0  0  0  0  0  0
   -2.3680    1.5337    3.1790 N   0  0  0  0  0  0  0  0  0  0  0  0
   -2.1212    1.9597    1.8266 C   0  0  2  0  0  0  0  0  0  0  0  0
   -0.7862    1.3744    1.3854 C   0  0  0  0  0  0  0  0  0  0  0  0
    0.0859    1.0216    2.1767 O   0  0  0  0  0  0  0  0  0  0  0  0
   -2.1124    3.4765    1.7171 C   0  0  0  0  0  0  0  0  0  0  0  0
   -3.1331    1.9695    3.6908 H   0  0  0  0  0  0  0  0  0  0  0  0
   -2.9253    1.5413    1.2115 H   0  0  0  0  0  0  0  0  0  0  0  0
   -1.3133    3.9138    2.3268 H   0  0  0  0  0  0  0  0  0  0  0  0
   -1.9529    3.7988    0.6829 H   0  0  0  0  0  0  0  0  0  0  0  0
   -3.0626    3.8977    2.0629 H   0  0  0  0  0  0  0  0  0  0  0  0
   -0.6635    1.3313    0.0020 N   0  0  0  0  0  0  0  0  0  0  0  0
    0.5138    0.8305   -0.6617 C   0  0  2  0  0  0  0  0  0  0  0  0
    0.9094   -0.4648    0.0382 C   0  0  0  0  0  0  0  0  0  0  0  0
    0.4352   -0.8143    1.1170 O   0  0  0  0  0  0  0  0  0  0  0  0
    1.6723    1.8336   -0.6209 C   0  0  0  0  0  0  0  0  0  0  0  0
    1.3686    3.1068   -1.3721 C   0  0  0  0  0  0  0  0  0  0  0  0
    1.3825    3.1283   -2.7444 N   0  0  0  0  0  0  0  0  0  0  0  0
    1.0572    4.3440   -0.8593 C   0  0  0  0  0  0  0  0  0  0  0  0
    1.0817    4.3677   -3.0628 C   0  0  0  0  0  0  0  0  0  0  0  0
    0.8766    5.1412   -1.9543 N   0  0  0  0  0  0  0  0  0  0  0  0
   -1.4467    1.6280   -0.5753 H   0  0  0  0  0  0  0  0  0  0  0  0
    0.2189    0.6053   -1.6933 H   0  0  0  0  0  0  0  0  0  0  0  0
    2.5861    1.3760   -1.0236 H   0  0  0  0  0  0  0  0  0  0  0  0
    1.9155    2.0966    0.4171 H   0  0  0  0  0  0  0  0  0  0  0  0
    0.9510    4.7201    0.1481 H   0  0  0  0  0  0  0  0  0  0  0  0
    0.9970    4.7652   -4.0644 H   0  0  0  0  0  0  0  0  0  0  0  0
    0.6347    6.1231   -1.9464 H   0  0  0  0  0  0  0  0  0  0  0  0
    1.8154   -1.2038   -0.7098 N   0  0  0  0  0  0  0  0  0  0  0  0
    2.3361   -2.4840   -0.2870 C   0  0  2  0  0  0  0  0  0  0  0  0
    2.8404   -2.3376    1.1426 C   0  0  0  0  0  0  0  0  0  0  0  0
    3.1597   -1.2569    1.6339 O   0  0  0  0  0  0  0  0  0  0  0  0
    3.4472   -2.9613   -1.2091 C   0  0  0  0  0  0  0  0  0  0  0  0
    2.1281   -0.8259   -1.5993 H   0  0  0  0  0  0  0  0  0  0  0  0
    1.4980   -3.1891   -0.3088 H   0  0  0  0  0  0  0  0  0  0  0  0
    4.2956   -2.2674   -1.2004 H   0  0  0  0  0  0  0  0  0  0  0  0
    3.8211   -3.9443   -0.9041 H   0  0  0  0  0  0  0  0  0  0  0  0
    3.0907   -3.0375   -2.2420 H   0  0  0  0  0  0  0  0  0  0  0  0
    2.9328   -3.5610    1.7913 N   0  0  0  0  0  0  0  0  0  0  0  0
    3.3977   -3.6884    3.1528 C   0  0  0  0  0  0  0  0  0  0  0  0
    2.6285   -4.4042    1.3135 H   0  0  0  0  0  0  0  0  0  0  0  0
    4.4819   -3.8744    3.1547 H   0  0  0  0  0  0  0  0  0  0  0  0
    3.1843   -2.7593    3.7015 H   0  0  0  0  0  0  0  0  0  0  0  0
    2.8809   -4.5287    3.6395 H   0  0  0  0  0  0  0  0  0  0  0  0
 22 24  2  0  0  0  0
 24 26  1  0  0  0  0
 23 25  2  0  0  0  0
 25 26  1  0  0  0  0
 21 22  1  0  0  0  0
 22 23  1  0  0  0  0
  1  3  1  0  0  0  0
  1  7  1  0  0  0  0
  1  2  2  0  0  0  0
 35 36  1  0  0  0  0
 36 44  1  0  0  0  0
 36 37  2  0  0  0  0
  8  9  1  0  0  0  0
  9 17  1  0  0  0  0
  9 10  2  0  0  0  0
 18 19  1  0  0  0  0
 19 34  1  0  0  0  0
 19 20  2  0  0  0  0
 35 38  1  0  0  0  0
  8 11  1  0  0  0  0
 44 45  1  0  0  0  0
 18 21  1  0  0  0  0
 34 35  1  0  0  0  0
  7  8  1  0  0  0  0
 17 18  1  0  0  0  0
 24 31  1  0  0  0  0
 25 32  1  0  0  0  0
  3  4  1  0  0  0  0
  3  5  1  0  0  0  0
  3  6  1  0  0  0  0
 38 41  1  0  0  0  0
 38 42  1  0  0  0  0
 38 43  1  0  0  0  0
 11 14  1  0  0  0  0
 11 15  1  0  0  0  0
 11 16  1  0  0  0  0
 45 47  1  0  0  0  0
 45 48  1  0  0  0  0
 45 49  1  0  0  0  0
 21 29  1  0  0  0  0
 21 30  1  0  0  0  0
 35 40  1  0  0  0  0
  8 13  1  0  0  0  0
 18 28  1  0  0  0  0
 26 33  1  0  0  0  0
 44 46  1  0  0  0  0
  7 12  1  0  0  0  0
 34 39  1  0  0  0  0
 17 27  1  0  0  0  0
M  END
$$$$

  -OEChem-05262214473D

 49 49  0     1  0  0  0  0  0999 V2000
   -1.6183    0.5613    3.8201 C   0  0  0  0  0  0  0  0  0  0  0  0
   -0.6710   -0.0534    3.3444 O   0  0  0  0  0  0  0  0  0  0  0  0
   -2.0502    0.2789    5.2208 C   0  0  0  0  0  0  0  0  0  0  0  0
   -2.8099   -0.5175    5.2742 H   0  0  0  0  0  0  0  0  0  0  0  0
   -1.2190   -0.0687    5.8551 H   0  0  0  0  0  0  0  0  0  0  0  0
   -2.4882    1.1338    5.7604 H   0  0  0  0  0  0  0  0  0  0  0  0
   -2.3680    1.5337    3.1790 N   0  0  0  0  0  0  0  0  0  0  0  0
   -2.1212    1.9597    1.8266 C   0  0  2  0  0  0  0  0  0  0  0  0
   -0.7862    1.3744    1.3854 C   0  0  0  0  0  0  0  0  0  0  0  0
    0.0859    1.0216    2.1767 O   0  0  0  0  0  0  0  0  0  0  0  0
   -2.1124    3.4765    1.7171 C   0  0  0  0  0  0  0  0  0  0  0  0
   -3.1331    1.9695    3.6908 H   0  0  0  0  0  0  0  0  0  0  0  0
   -2.9253    1.5413    1.2115 H   0  0  0  0  0  0  0  0  0  0  0  0
   -1.3133    3.9138    2.3268 H   0  0  0  0  0  0  0  0  0  0  0  0
   -1.9529    3.7988    0.6829 H   0  0  0  0  0  0  0  0  0  0  0  0
   -3.0626    3.8977    2.0629 H   0  0  0  0  0  0  0  0  0  0  0  0
   -0.6635    1.3313    0.0020 N   0  0  0  0  0  0  0  0  0  0  0  0
    0.5138    0.8305   -0.6617 C   0  0  2  0  0  0  0  0  0  0  0  0
    0.6912   -0.6212   -0.2310 C   0  0  0  0  0  0  0  0  0  0  0  0
   -0.0976   -1.1994    0.5137 O   0  0  0  0  0  0  0  0  0  0  0  0
    1.7648    1.6459   -0.3151 C   0  0  0  0  0  0  0  0  0  0  0  0
    1.6812    3.0748   -0.7935 C   0  0  0  0  0  0  0  0  0  0  0  0
    1.8383    3.3765   -2.1231 N   0  0  0  0  0  0  0  0  0  0  0  0
    1.4561    4.2094   -0.0501 C   0  0  0  0  0  0  0  0  0  0  0  0
    1.7093    4.6831   -2.1874 C   0  0  0  0  0  0  0  0  0  0  0  0
    1.4774    5.2316   -0.9567 N   0  0  0  0  0  0  0  0  0  0  0  0
   -1.4467    1.6280   -0.5753 H   0  0  0  0  0  0  0  0  0  0  0  0
    0.3036    0.8626   -1.7372 H   0  0  0  0  0  0  0  0  0  0  0  0
    2.6595    1.1672   -0.7358 H   0  0  0  0  0  0  0  0  0  0  0  0
    1.9274    1.6559    0.7708 H   0  0  0  0  0  0  0  0  0  0  0  0
    1.2888    4.3805    1.0036 H   0  0  0  0  0  0  0  0  0  0  0  0
    1.7721    5.2859   -3.0824 H   0  0  0  0  0  0  0  0  0  0  0  0
    1.3449    6.2135   -0.7548 H   0  0  0  0  0  0  0  0  0  0  0  0
    1.8058   -1.2045   -0.8172 N   0  0  0  0  0  0  0  0  0  0  0  0
    2.1905   -2.5800   -0.5959 C   0  0  2  0  0  0  0  0  0  0  0  0
    2.2040   -2.8286    0.9066 C   0  0  0  0  0  0  0  0  0  0  0  0
    2.3242   -1.9279    1.7345 O   0  0  0  0  0  0  0  0  0  0  0  0
    3.5497   -2.8798   -1.2086 C   0  0  0  0  0  0  0  0  0  0  0  0
    2.3801   -0.6362   -1.4328 H   0  0  0  0  0  0  0  0  0  0  0  0
    1.4199   -3.2030   -1.0628 H   0  0  0  0  0  0  0  0  0  0  0  0
    4.3346   -2.2650   -0.7533 H   0  0  0  0  0  0  0  0  0  0  0  0
    3.8269   -3.9294   -1.0649 H   0  0  0  0  0  0  0  0  0  0  0  0
    3.5467   -2.6721   -2.2841 H   0  0  0  0  0  0  0  0  0  0  0  0
    2.1093   -4.1789    1.2130 N   0  0  0  0  0  0  0  0  0  0  0  0
    2.1135   -4.6725    2.5704 C   0  0  0  0  0  0  0  0  0  0  0  0
    1.9938   -4.8545    0.4634 H   0  0  0  0  0  0  0  0  0  0  0  0
    3.1430   -4.9208    2.8676 H   0  0  0  0  0  0  0  0  0  0  0  0
    1.7143   -3.8990    3.2429 H   0  0  0  0  0  0  0  0  0  0  0  0
    1.4860   -5.5737    2.6346 H   0  0  0  0  0  0  0  0  0  0  0  0
 22 24  2  0  0  0  0
 24 26  1  0  0  0  0
 23 25  2  0  0  0  0
 25 26  1  0  0  0  0
 21 22  1  0  0  0  0
 22 23  1  0  0  0  0
  1  3  1  0  0  0  0
  1  7  1  0  0  0  0
  1  2  2  0  0  0  0
 35 36  1  0  0  0  0
 36 44  1  0  0  0  0
 36 37  2  0  0  0  0
  8  9  1  0  0  0  0
  9 17  1  0  0  0  0
  9 10  2  0  0  0  0
 18 19  1  0  0  0  0
 19 34  1  0  0  0  0
 19 20  2  0  0  0  0
 35 38  1  0  0  0  0
  8 11  1  0  0  0  0
 44 45  1  0  0  0  0
 18 21  1  0  0  0  0
 34 35  1  0  0  0  0
  7  8  1  0  0  0  0
 17 18  1  0  0  0  0
 24 31  1  0  0  0  0
 25 32  1  0  0  0  0
  3  4  1  0  0  0  0
  3  5  1  0  0  0  0
  3  6  1  0  0  0  0
 38 41  1  0  0  0  0
 38 42  1  0  0  0  0
 38 43  1  0  0  0  0
 11 14  1  0  0  0  0
 11 15  1  0  0  0  0
 11 16  1  0  0  0  0
 45 47  1  0  0  0  0
 45 48  1  0  0  0  0
 45 49  1  0  0  0  0
 21 29  1  0  0  0  0
 21 30  1  0  0  0  0
 35 40  1  0  0  0  0
  8 13  1  0  0  0  0
 18 28  1  0  0  0  0
 26 33  1  0  0  0  0
 44 46  1  0  0  0  0
  7 12  1  0  0  0  0
 34 39  1  0  0  0  0
 17 27  1  0  0  0  0
M  END
$$$$

  -OEChem-05262214473D

 49 49  0     1  0  0  0  0  0999 V2000
   -1.6183    0.5613    3.8201 C   0  0  0  0  0  0  0  0  0  0  0  0
   -0.6710   -0.0534    3.3444 O   0  0  0  0  0  0  0  0  0  0  0  0
   -2.0502    0.2789    5.2208 C   0  0  0  0  0  0  0  0  0  0  0  0
   -2.8099   -0.5175    5.2742 H   0  0  0  0  0  0  0  0  0  0  0  0
   -1.2190   -0.0687    5.8551 H   0  0  0  0  0  0  0  0  0  0  0  0
   -2.4882    1.1338    5.7604 H   0  0  0  0  0  0  0  0  0  0  0  0
   -2.3680    1.5337    3.1790 N   0  0  0  0  0  0  0  0  0  0  0  0
   -2.1212    1.9597    1.8266 C   0  0  2  0  0  0  0  0  0  0  0  0
   -0.7862    1.3744    1.3854 C   0  0  0  0  0  0  0  0  0  0  0  0
    0.0859    1.0216    2.1767 O   0  0  0  0  0  0  0  0  0  0  0  0
   -2.1124    3.4765    1.7171 C   0  0  0  0  0  0  0  0  0  0  0  0
   -3.1331    1.9695    3.6908 H   0  0  0  0  0  0  0  0  0  0  0  0
   -2.9253    1.5413    1.2115 H   0  0  0  0  0  0  0  0  0  0  0  0
   -1.3133    3.9138    2.3268 H   0  0  0  0  0  0  0  0  0  0  0  0
   -1.9529    3.7988    0.6829 H   0  0  0  0  0  0  0  0  0  0  0  0
   -3.0626    3.8977    2.0629 H   0  0  0  0  0  0  0  0  0  0  0  0
   -0.6635    1.3313    0.0020 N   0  0  0  0  0  0  0  0  0  0  0  0
    0.5138    0.8305   -0.6617 C   0  0  2  0  0  0  0  0  0  0  0  0
    0.6912   -0.6212   -0.2310 C   0  0  0  0  0  0  0  0  0  0  0  0
   -0.2093   -1.2815    0.2829 O   0  0  0  0  0  0  0  0  0  0  0  0
    1.7648    1.6459   -0.3151 C   0  0  0  0  0  0  0  0  0  0  0  0
    1.6812    3.0748   -0.7935 C   0  0  0  0  0  0  0  0  0  0  0  0
    1.8383    3.3765   -2.1231 N   0  0  0  0  0  0  0  0  0  0  0  0
    1.4561    4.2094   -0.0501 C   0  0  0  0  0  0  0  0  0  0  0  0
    1.7093    4.6831   -2.1874 C   0  0  0  0  0  0  0  0  0  0  0  0
    1.4774    5.2316   -0.9567 N   0  0  0  0  0  0  0  0  0  0  0  0
   -1.4467    1.6280   -0.5753 H   0  0  0  0  0  0  0  0  0  0  0  0
    0.3036    0.8626   -1.7372 H   0  0  0  0  0  0  0  0  0  0  0  0
    2.6595    1.1672   -0.7358 H   0  0  0  0  0  0  0  0  0  0  0  0
    1.9274    1.6559    0.7708 H   0  0  0  0  0  0  0  0  0  0  0  0
    1.2888    4.3805    1.0036 H   0  0  0  0  0  0  0  0  0  0  0  0
    1.7721    5.2859   -3.0824 H   0  0  0  0  0  0  0  0  0  0  0  0
    1.3449    6.2135   -0.7548 H   0  0  0  0  0  0  0  0  0  0  0  0
    1.9570   -1.1024   -0.5351 N   0  0  0  0  0  0  0  0  0  0  0  0
    2.3803   -2.4554   -0.2543 C   0  0  2  0  0  0  0  0  0  0  0  0
    2.0438   -2.7614    1.1992 C   0  0  0  0  0  0  0  0  0  0  0  0
    1.8876   -1.8877    2.0498 O   0  0  0  0  0  0  0  0  0  0  0  0
    3.8671   -2.6360   -0.5176 C   0  0  0  0  0  0  0  0  0  0  0  0
    2.6193   -0.4718   -0.9773 H   0  0  0  0  0  0  0  0  0  0  0  0
    1.7980   -3.1115   -0.9104 H   0  0  0  0  0  0  0  0  0  0  0  0
    4.4667   -1.9866    0.1306 H   0  0  0  0  0  0  0  0  0  0  0  0
    4.1804   -3.6687   -0.3318 H   0  0  0  0  0  0  0  0  0  0  0  0
    4.1121   -2.3869   -1.5558 H   0  0  0  0  0  0  0  0  0  0  0  0
    1.9810   -4.1260    1.4443 N   0  0  0  0  0  0  0  0  0  0  0  0
    1.6900   -4.6710    2.7497 C   0  0  0  0  0  0  0  0  0  0  0  0
    2.1052   -4.7780    0.6754 H   0  0  0  0  0  0  0  0  0  0  0  0
    2.6311   -4.8588    3.2874 H   0  0  0  0  0  0  0  0  0  0  0  0
    1.0797   -3.9541    3.3186 H   0  0  0  0  0  0  0  0  0  0  0  0
    1.1371   -5.6154    2.6377 H   0  0  0  0  0  0  0  0  0  0  0  0
 22 24  2  0  0  0  0
 24 26  1  0  0  0  0
 23 25  2  0  0  0  0
 25 26  1  0  0  0  0
 21 22  1  0  0  0  0
 22 23  1  0  0  0  0
  1  3  1  0  0  0  0
  1  7  1  0  0  0  0
  1  2  2  0  0  0  0
 35 36  1  0  0  0  0
 36 44  1  0  0  0  0
 36 37  2  0  0  0  0
  8  9  1  0  0  0  0
  9 17  1  0  0  0  0
  9 10  2  0  0  0  0
 18 19  1  0  0  0  0
 19 34  1  0  0  0  0
 19 20  2  0  0  0  0
 35 38  1  0  0  0  0
  8 11  1  0  0  0  0
 44 45  1  0  0  0  0
 18 21  1  0  0  0  0
 34 35  1  0  0  0  0
  7  8  1  0  0  0  0
 17 18  1  0  0  0  0
 24 31  1  0  0  0  0
 25 32  1  0  0  0  0
  3  4  1  0  0  0  0
  3  5  1  0  0  0  0
  3  6  1  0  0  0  0
 38 41  1  0  0  0  0
 38 42  1  0  0  0  0
 38 43  1  0  0  0  0
 11 14  1  0  0  0  0
 11 15  1  0  0  0  0
 11 16  1  0  0  0  0
 45 47  1  0  0  0  0
 45 48  1  0  0  0  0
 45 49  1  0  0  0  0
 21 29  1  0  0  0  0
 21 30  1  0  0  0  0
 35 40  1  0  0  0  0
  8 13  1  0  0  0  0
 18 28  1  0  0  0  0
 26 33  1  0  0  0  0
 44 46  1  0  0  0  0
  7 12  1  0  0  0  0
 34 39  1  0  0  0  0
 17 27  1  0  0  0  0
M  END
$$$$

  -OEChem-05262214473D

 49 49  0     1  0  0  0  0  0999 V2000
   -1.6183    0.5613    3.8201 C   0  0  0  0  0  0  0  0  0  0  0  0
   -0.6710   -0.0534    3.3444 O   0  0  0  0  0  0  0  0  0  0  0  0
   -2.0502    0.2789    5.2208 C   0  0  0  0  0  0  0  0  0  0  0  0
   -2.8099   -0.5175    5.2742 H   0  0  0  0  0  0  0  0  0  0  0  0
   -1.2190   -0.0687    5.8551 H   0  0  0  0  0  0  0  0  0  0  0  0
   -2.4882    1.1338    5.7604 H   0  0  0  0  0  0  0  0  0  0  0  0
   -2.3680    1.5337    3.1790 N   0  0  0  0  0  0  0  0  0  0  0  0
   -2.1212    1.9597    1.8266 C   0  0  2  0  0  0  0  0  0  0  0  0
   -0.7862    1.3744    1.3854 C   0  0  0  0  0  0  0  0  0  0  0  0
    0.0859    1.0216    2.1767 O   0  0  0  0  0  0  0  0  0  0  0  0
   -2.1124    3.4765    1.7171 C   0  0  0  0  0  0  0  0  0  0  0  0
   -3.1331    1.9695    3.6908 H   0  0  0  0  0  0  0  0  0  0  0  0
   -2.9253    1.5413    1.2115 H   0  0  0  0  0  0  0  0  0  0  0  0
   -1.3133    3.9138    2.3268 H   0  0  0  0  0  0  0  0  0  0  0  0
   -1.9529    3.7988    0.6829 H   0  0  0  0  0  0  0  0  0  0  0  0
   -3.0626    3.8977    2.0629 H   0  0  0  0  0  0  0  0  0  0  0  0
   -0.6635    1.3313    0.0020 N   0  0  0  0  0  0  0  0  0  0  0  0
    0.5138    0.8305   -0.6617 C   0  0  2  0  0  0  0  0  0  0  0  0
    0.6912   -0.6212   -0.2310 C   0  0  0  0  0  0  0  0  0  0  0  0
   -0.2543   -1.3620    0.0301 O   0  0  0  0  0  0  0  0  0  0  0  0
    1.7648    1.6459   -0.3151 C   0  0  0  0  0  0  0  0  0  0  0  0
    1.6812    3.0748   -0.7935 C   0  0  0  0  0  0  0  0  0  0  0  0
    1.8383    3.3765   -2.1231 N   0  0  0  0  0  0  0  0  0  0  0  0
    1.4561    4.2094   -0.0501 C   0  0  0  0  0  0  0  0  0  0  0  0
    1.7093    4.6831   -2.1874 C   0  0  0  0  0  0  0  0  0  0  0  0
    1.4774    5.2316   -0.9567 N   0  0  0  0  0  0  0  0  0  0  0  0
   -1.4467    1.6280   -0.5753 H   0  0  0  0  0  0  0  0  0  0  0  0
    0.3036    0.8626   -1.7372 H   0  0  0  0  0  0  0  0  0  0  0  0
    2.6595    1.1672   -0.7358 H   0  0  0  0  0  0  0  0  0  0  0  0
    1.9274    1.6559    0.7708 H   0  0  0  0  0  0  0  0  0  0  0  0
    1.2888    4.3805    1.0036 H   0  0  0  0  0  0  0  0  0  0  0  0
    1.7721    5.2859   -3.0824 H   0  0  0  0  0  0  0  0  0  0  0  0
    1.3449    6.2135   -0.7548 H   0  0  0  0  0  0  0  0  0  0  0  0
    2.0261   -1.0011   -0.2223 N   0  0  0  0  0  0  0  0  0  0  0  0
    2.4703   -2.3315    0.1262 C   0  0  2  0  0  0  0  0  0  0  0  0
    1.8120   -2.7169    1.4444 C   0  0  0  0  0  0  0  0  0  0  0  0
    1.3852   -1.8903    2.2479 O   0  0  0  0  0  0  0  0  0  0  0  0
    3.9856   -2.3981    0.2354 C   0  0  0  0  0  0  0  0  0  0  0  0
    2.7261   -0.3093   -0.4734 H   0  0  0  0  0  0  0  0  0  0  0  0
    2.1190   -3.0002   -0.6673 H   0  0  0  0  0  0  0  0  0  0  0  0
    4.3561   -1.7347    1.0254 H   0  0  0  0  0  0  0  0  0  0  0  0
    4.3222   -3.4131    0.4713 H   0  0  0  0  0  0  0  0  0  0  0  0
    4.4579   -2.0920   -0.7043 H   0  0  0  0  0  0  0  0  0  0  0  0
    1.7961   -4.0912    1.6376 N   0  0  0  0  0  0  0  0  0  0  0  0
    1.2366   -4.7060    2.8187 C   0  0  0  0  0  0  0  0  0  0  0  0
    2.1549   -4.7023    0.9099 H   0  0  0  0  0  0  0  0  0  0  0  0
    2.0286   -4.8491    3.5685 H   0  0  0  0  0  0  0  0  0  0  0  0
    0.4521   -4.0560    3.2336 H   0  0  0  0  0  0  0  0  0  0  0  0
    0.8024   -5.6813    2.5535 H   0  0  0  0  0  0  0  0  0  0  0  0
 22 24  2  0  0  0  0
 24 26  1  0  0  0  0
 23 25  2  0  0  0  0
 25 26  1  0  0  0  0
 21 22  1  0  0  0  0
 22 23  1  0  0  0  0
  1  3  1  0  0  0  0
  1  7  1  0  0  0  0
  1  2  2  0  0  0  0
 35 36  1  0  0  0  0
 36 44  1  0  0  0  0
 36 37  2  0  0  0  0
  8  9  1  0  0  0  0
  9 17  1  0  0  0  0
  9 10  2  0  0  0  0
 18 19  1  0  0  0  0
 19 34  1  0  0  0  0
 19 20  2  0  0  0  0
 35 38  1  0  0  0  0
  8 11  1  0  0  0  0
 44 45  1  0  0  0  0
 18 21  1  0  0  0  0
 34 35  1  0  0  0  0
  7  8  1  0  0  0  0
 17 18  1  0  0  0  0
 24 31  1  0  0  0  0
 25 32  1  0  0  0  0
  3  4  1  0  0  0  0
  3  5  1  0  0  0  0
  3  6  1  0  0  0  0
 38 41  1  0  0  0  0
 38 42  1  0  0  0  0
 38 43  1  0  0  0  0
 11 14  1  0  0  0  0
 11 15  1  0  0  0  0
 11 16  1  0  0  0  0
 45 47  1  0  0  0  0
 45 48  1  0  0  0  0
 45 49  1  0  0  0  0
 21 29  1  0  0  0  0
 21 30  1  0  0  0  0
 35 40  1  0  0  0  0
  8 13  1  0  0  0  0
 18 28  1  0  0  0  0
 26 33  1  0  0  0  0
 44 46  1  0  0  0  0
  7 12  1  0  0  0  0
 34 39  1  0  0  0  0
 17 27  1  0  0  0  0
M  END
$$$$

  -OEChem-05262214473D

 49 49  0     1  0  0  0  0  0999 V2000
   -1.6183    0.5613    3.8201 C   0  0  0  0  0  0  0  0  0  0  0  0
   -0.6710   -0.0534    3.3444 O   0  0  0  0  0  0  0  0  0  0  0  0
   -2.0502    0.2789    5.2208 C   0  0  0  0  0  0  0  0  0  0  0  0
   -2.8099   -0.5175    5.2742 H   0  0  0  0  0  0  0  0  0  0  0  0
   -1.2190   -0.0687    5.8551 H   0  0  0  0  0  0  0  0  0  0  0  0
   -2.4882    1.1338    5.7604 H   0  0  0  0  0  0  0  0  0  0  0  0
   -2.3680    1.5337    3.1790 N   0  0  0  0  0  0  0  0  0  0  0  0
   -2.1212    1.9597    1.8266 C   0  0  2  0  0  0  0  0  0  0  0  0
   -0.7862    1.3744    1.3854 C   0  0  0  0  0  0  0  0  0  0  0  0
    0.0859    1.0216    2.1767 O   0  0  0  0  0  0  0  0  0  0  0  0
   -2.1124    3.4765    1.7171 C   0  0  0  0  0  0  0  0  0  0  0  0
   -3.1331    1.9695    3.6908 H   0  0  0  0  0  0  0  0  0  0  0  0
   -2.9253    1.5413    1.2115 H   0  0  0  0  0  0  0  0  0  0  0  0
   -1.3133    3.9138    2.3268 H   0  0  0  0  0  0  0  0  0  0  0  0
   -1.9529    3.7988    0.6829 H   0  0  0  0  0  0  0  0  0  0  0  0
   -3.0626    3.8977    2.0629 H   0  0  0  0  0  0  0  0  0  0  0  0
   -0.6635    1.3313    0.0020 N   0  0  0  0  0  0  0  0  0  0  0  0
    0.5138    0.8305   -0.6617 C   0  0  2  0  0  0  0  0  0  0  0  0
    0.6912   -0.6212   -0.2310 C   0  0  0  0  0  0  0  0  0  0  0  0
   -0.2296   -1.4354   -0.2277 O   0  0  0  0  0  0  0  0  0  0  0  0
    1.7648    1.6459   -0.3151 C   0  0  0  0  0  0  0  0  0  0  0  0
    1.6812    3.0748   -0.7935 C   0  0  0  0  0  0  0  0  0  0  0  0
    1.8383    3.3765   -2.1231 N   0  0  0  0  0  0  0  0  0  0  0  0
    1.4561    4.2094   -0.0501 C   0  0  0  0  0  0  0  0  0  0  0  0
    1.7093    4.6831   -2.1874 C   0  0  0  0  0  0  0  0  0  0  0  0
    1.4774    5.2316   -0.9567 N   0  0  0  0  0  0  0  0  0  0  0  0
   -1.4467    1.6280   -0.5753 H   0  0  0  0  0  0  0  0  0  0  0  0
    0.3036    0.8626   -1.7372 H   0  0  0  0  0  0  0  0  0  0  0  0
    2.6595    1.1672   -0.7358 H   0  0  0  0  0  0  0  0  0  0  0  0
    1.9274    1.6559    0.7708 H   0  0  0  0  0  0  0  0  0  0  0  0
    1.2888    4.3805    1.0036 H   0  0  0  0  0  0  0  0  0  0  0  0
    1.7721    5.2859   -3.0824 H   0  0  0  0  0  0  0  0  0  0  0  0
    1.3449    6.2135   -0.7548 H   0  0  0  0  0  0  0  0  0  0  0  0
    2.0083   -0.9077    0.1000 N   0  0  0  0  0  0  0  0  0  0  0  0
    2.4544   -2.2168    0.5196 C   0  0  2  0  0  0  0  0  0  0  0  0
    1.5245   -2.6984    1.6254 C   0  0  0  0  0  0  0  0  0  0  0  0
    0.8514   -1.9356    2.3154 O   0  0  0  0  0  0  0  0  0  0  0  0
    3.8971   -2.1824    0.9991 C   0  0  0  0  0  0  0  0  0  0  0  0
    2.6932   -0.1596    0.0445 H   0  0  0  0  0  0  0  0  0  0  0  0
    2.3610   -2.8765   -0.3500 H   0  0  0  0  0  0  0  0  0  0  0  0
    4.0103   -1.5264    1.8699 H   0  0  0  0  0  0  0  0  0  0  0  0
    4.2425   -3.1800    1.2897 H   0  0  0  0  0  0  0  0  0  0  0  0
    4.5605   -1.8076    0.2122 H   0  0  0  0  0  0  0  0  0  0  0  0
    1.5674   -4.0769    1.7799 N   0  0  0  0  0  0  0  0  0  0  0  0
    0.7842   -4.7750    2.7725 C   0  0  0  0  0  0  0  0  0  0  0  0
    2.1397   -4.6326    1.1510 H   0  0  0  0  0  0  0  0  0  0  0  0
    1.3767   -4.8921    3.6919 H   0  0  0  0  0  0  0  0  0  0  0  0
   -0.1257   -4.1978    2.9938 H   0  0  0  0  0  0  0  0  0  0  0  0
    0.5046   -5.7669    2.3877 H   0  0  0  0  0  0  0  0  0  0  0  0
 22 24  2  0  0  0  0
 24 26  1  0  0  0  0
 23 25  2  0  0  0  0
 25 26  1  0  0  0  0
 21 22  1  0  0  0  0
 22 23  1  0  0  0  0
  1  3  1  0  0  0  0
  1  7  1  0  0  0  0
  1  2  2  0  0  0  0
 35 36  1  0  0  0  0
 36 44  1  0  0  0  0
 36 37  2  0  0  0  0
  8  9  1  0  0  0  0
  9 17  1  0  0  0  0
  9 10  2  0  0  0  0
 18 19  1  0  0  0  0
 19 34  1  0  0  0  0
 19 20  2  0  0  0  0
 35 38  1  0  0  0  0
  8 11  1  0  0  0  0
 44 45  1  0  0  0  0
 18 21  1  0  0  0  0
 34 35  1  0  0  0  0
  7  8  1  0  0  0  0
 17 18  1  0  0  0  0
 24 31  1  0  0  0  0
 25 32  1  0  0  0  0
  3  4  1  0  0  0  0
  3  5  1  0  0  0  0
  3  6  1  0  0  0  0
 38 41  1  0  0  0  0
 38 42  1  0  0  0  0
 38 43  1  0  0  0  0
 11 14  1  0  0  0  0
 11 15  1  0  0  0  0
 11 16  1  0  0  0  0
 45 47  1  0  0  0  0
 45 48  1  0  0  0  0
 45 49  1  0  0  0  0
 21 29  1  0  0  0  0
 21 30  1  0  0  0  0
 35 40  1  0  0  0  0
  8 13  1  0  0  0  0
 18 28  1  0  0  0  0
 26 33  1  0  0  0  0
 44 46  1  0  0  0  0
  7 12  1  0  0  0  0
 34 39  1  0  0  0  0
 17 27  1  0  0  0  0
M  END
$$$$

  -OEChem-05262214473D

 49 49  0     1  0  0  0  0  0999 V2000
   -1.6183    0.5613    3.8201 C   0  0  0  0  0  0  0  0  0  0  0  0
   -0.6710   -0.0534    3.3444 O   0  0  0  0  0  0  0  0  0  0  0  0
   -2.0502    0.2789    5.2208 C   0  0  0  0  0  0  0  0  0  0  0  0
   -2.8099   -0.5175    5.2742 H   0  0  0  0  0  0  0  0  0  0  0  0
   -1.2190   -0.0687    5.8551 H   0  0  0  0  0  0  0  0  0  0  0  0
   -2.4882    1.1338    5.7604 H   0  0  0  0  0  0  0  0  0  0  0  0
   -2.3680    1.5337    3.1790 N   0  0  0  0  0  0  0  0  0  0  0  0
   -2.1212    1.9597    1.8266 C   0  0  2  0  0  0  0  0  0  0  0  0
   -0.7862    1.3744    1.3854 C   0  0  0  0  0  0  0  0  0  0  0  0
    0.0859    1.0216    2.1767 O   0  0  0  0  0  0  0  0  0  0  0  0
   -2.1124    3.4765    1.7171 C   0  0  0  0  0  0  0  0  0  0  0  0
   -3.1331    1.9695    3.6908 H   0  0  0  0  0  0  0  0  0  0  0  0
   -2.9253    1.5413    1.2115 H   0  0  0  0  0  0  0  0  0  0  0  0
   -1.3133    3.9138    2.3268 H   0  0  0  0  0  0  0  0  0  0  0  0
   -1.9529    3.7988    0.6829 H   0  0  0  0  0  0  0  0  0  0  0  0
   -3.0626    3.8977    2.0629 H   0  0  0  0  0  0  0  0  0  0  0  0
   -0.6635    1.3313    0.0020 N   0  0  0  0  0  0  0  0  0  0  0  0
    0.5138    0.8305   -0.6617 C   0  0  2  0  0  0  0  0  0  0  0  0
    0.6912   -0.6212   -0.2310 C   0  0  0  0  0  0  0  0  0  0  0  0
   -0.1368   -1.4968   -0.4728 O   0  0  0  0  0  0  0  0  0  0  0  0
    1.7648    1.6459   -0.3151 C   0  0  0  0  0  0  0  0  0  0  0  0
    1.6812    3.0748   -0.7935 C   0  0  0  0  0  0  0  0  0  0  0  0
    1.8383    3.3765   -2.1231 N   0  0  0  0  0  0  0  0  0  0  0  0
    1.4561    4.2094   -0.0501 C   0  0  0  0  0  0  0  0  0  0  0  0
    1.7093    4.6831   -2.1874 C   0  0  0  0  0  0  0  0  0  0  0  0
    1.4774    5.2316   -0.9567 N   0  0  0  0  0  0  0  0  0  0  0  0
   -1.4467    1.6280   -0.5753 H   0  0  0  0  0  0  0  0  0  0  0  0
    0.3036    0.8626   -1.7372 H   0  0  0  0  0  0  0  0  0  0  0  0
    2.6595    1.1672   -0.7358 H   0  0  0  0  0  0  0  0  0  0  0  0
    1.9274    1.6559    0.7708 H   0  0  0  0  0  0  0  0  0  0  0  0
    1.2888    4.3805    1.0036 H   0  0  0  0  0  0  0  0  0  0  0  0
    1.7721    5.2859   -3.0824 H   0  0  0  0  0  0  0  0  0  0  0  0
    1.3449    6.2135   -0.7548 H   0  0  0  0  0  0  0  0  0  0  0  0
    1.9049   -0.8284    0.4097 N   0  0  0  0  0  0  0  0  0  0  0  0
    2.3337   -2.1189    0.8991 C   0  0  2  0  0  0  0  0  0  0  0  0
    1.2008   -2.7069    1.7300 C   0  0  0  0  0  0  0  0  0  0  0  0
    0.3224   -2.0203    2.2477 O   0  0  0  0  0  0  0  0  0  0  0  0
    3.6076   -2.0034    1.7215 C   0  0  0  0  0  0  0  0  0  0  0  0
    2.5228   -0.0331    0.5412 H   0  0  0  0  0  0  0  0  0  0  0  0
    2.5075   -2.7488    0.0199 H   0  0  0  0  0  0  0  0  0  0  0  0
    3.4530   -1.3759    2.6068 H   0  0  0  0  0  0  0  0  0  0  0  0
    3.9469   -2.9853    2.0676 H   0  0  0  0  0  0  0  0  0  0  0  0
    4.4130   -1.5529    1.1314 H   0  0  0  0  0  0  0  0  0  0  0  0
    1.3104   -4.0842    1.8613 N   0  0  0  0  0  0  0  0  0  0  0  0
    0.3636   -4.8733    2.6143 C   0  0  0  0  0  0  0  0  0  0  0  0
    2.0604   -4.5737    1.3822 H   0  0  0  0  0  0  0  0  0  0  0  0
    0.7197   -4.9851    3.6491 H   0  0  0  0  0  0  0  0  0  0  0  0
   -0.6143   -4.3697    2.6156 H   0  0  0  0  0  0  0  0  0  0  0  0
    0.2641   -5.8663    2.1516 H   0  0  0  0  0  0  0  0  0  0  0  0
 22 24  2  0  0  0  0
 24 26  1  0  0  0  0
 23 25  2  0  0  0  0
 25 26  1  0  0  0  0
 21 22  1  0  0  0  0
 22 23  1  0  0  0  0
  1  3  1  0  0  0  0
  1  7  1  0  0  0  0
  1  2  2  0  0  0  0
 35 36  1  0  0  0  0
 36 44  1  0  0  0  0
 36 37  2  0  0  0  0
  8  9  1  0  0  0  0
  9 17  1  0  0  0  0
  9 10  2  0  0  0  0
 18 19  1  0  0  0  0
 19 34  1  0  0  0  0
 19 20  2  0  0  0  0
 35 38  1  0  0  0  0
  8 11  1  0  0  0  0
 44 45  1  0  0  0  0
 18 21  1  0  0  0  0
 34 35  1  0  0  0  0
  7  8  1  0  0  0  0
 17 18  1  0  0  0  0
 24 31  1  0  0  0  0
 25 32  1  0  0  0  0
  3  4  1  0  0  0  0
  3  5  1  0  0  0  0
  3  6  1  0  0  0  0
 38 41  1  0  0  0  0
 38 42  1  0  0  0  0
 38 43  1  0  0  0  0
 11 14  1  0  0  0  0
 11 15  1  0  0  0  0
 11 16  1  0  0  0  0
 45 47  1  0  0  0  0
 45 48  1  0  0  0  0
 45 49  1  0  0  0  0
 21 29  1  0  0  0  0
 21 30  1  0  0  0  0
 35 40  1  0  0  0  0
  8 13  1  0  0  0  0
 18 28  1  0  0  0  0
 26 33  1  0  0  0  0
 44 46  1  0  0  0  0
  7 12  1  0  0  0  0
 34 39  1  0  0  0  0
 17 27  1  0  0  0  0
M  END
$$$$

  -OEChem-05262214473D

 49 49  0     1  0  0  0  0  0999 V2000
   -1.6183    0.5613    3.8201 C   0  0  0  0  0  0  0  0  0  0  0  0
   -0.6710   -0.0534    3.3444 O   0  0  0  0  0  0  0  0  0  0  0  0
   -2.0502    0.2789    5.2208 C   0  0  0  0  0  0  0  0  0  0  0  0
   -2.8099   -0.5175    5.2742 H   0  0  0  0  0  0  0  0  0  0  0  0
   -1.2190   -0.0687    5.8551 H   0  0  0  0  0  0  0  0  0  0  0  0
   -2.4882    1.1338    5.7604 H   0  0  0  0  0  0  0  0  0  0  0  0
   -2.3680    1.5337    3.1790 N   0  0  0  0  0  0  0  0  0  0  0  0
   -2.1212    1.9597    1.8266 C   0  0  2  0  0  0  0  0  0  0  0  0
   -0.7862    1.3744    1.3854 C   0  0  0  0  0  0  0  0  0  0  0  0
    0.0859    1.0216    2.1767 O   0  0  0  0  0  0  0  0  0  0  0  0
   -2.1124    3.4765    1.7171 C   0  0  0  0  0  0  0  0  0  0  0  0
   -3.1331    1.9695    3.6908 H   0  0  0  0  0  0  0  0  0  0  0  0
   -2.9253    1.5413    1.2115 H   0  0  0  0  0  0  0  0  0  0  0  0
   -1.3133    3.9138    2.3268 H   0  0  0  0  0  0  0  0  0  0  0  0
   -1.9529    3.7988    0.6829 H   0  0  0  0  0  0  0  0  0  0  0  0
   -3.0626    3.8977    2.0629 H   0  0  0  0  0  0  0  0  0  0  0  0
   -0.6635    1.3313    0.0020 N   0  0  0  0  0  0  0  0  0  0  0  0
    0.5138    0.8305   -0.6617 C   0  0  2  0  0  0  0  0  0  0  0  0
    0.6912   -0.6212   -0.2310 C   0  0  0  0  0  0  0  0  0  0  0  0
    0.0177   -1.5420   -0.6886 O   0  0  0  0  0  0  0  0  0  0  0  0
    1.7648    1.6459   -0.3151 C   0  0  0  0  0  0  0  0  0  0  0  0
    1.6812    3.0748   -0.7935 C   0  0  0  0  0  0  0  0  0  0  0  0
    1.8383    3.3765   -2.1231 N   0  0  0  0  0  0  0  0  0  0  0  0
    1.4561    4.2094   -0.0501 C   0  0  0  0  0  0  0  0  0  0  0  0
    1.7093    4.6831   -2.1874 C   0  0  0  0  0  0  0  0  0  0  0  0
    1.4774    5.2316   -0.9567 N   0  0  0  0  0  0  0  0  0  0  0  0
   -1.4467    1.6280   -0.5753 H   0  0  0  0  0  0  0  0  0  0  0  0
    0.3036    0.8626   -1.7372 H   0  0  0  0  0  0  0  0  0  0  0  0
    2.6595    1.1672   -0.7358 H   0  0  0  0  0  0  0  0  0  0  0  0
    1.9274    1.6559    0.7708 H   0  0  0  0  0  0  0  0  0  0  0  0
    1.2888    4.3805    1.0036 H   0  0  0  0  0  0  0  0  0  0  0  0
    1.7721    5.2859   -3.0824 H   0  0  0  0  0  0  0  0  0  0  0  0
    1.3449    6.2135   -0.7548 H   0  0  0  0  0  0  0  0  0  0  0  0
    1.7229   -0.7688    0.6857 N   0  0  0  0  0  0  0  0  0  0  0  0
    2.1164   -2.0447    1.2389 C   0  0  2  0  0  0  0  0  0  0  0  0
    0.8630   -2.7420    1.7510 C   0  0  0  0  0  0  0  0  0  0  0  0
   -0.1657   -2.1388    2.0494 O   0  0  0  0  0  0  0  0  0  0  0  0
    3.1369   -1.8735    2.3533 C   0  0  0  0  0  0  0  0  0  0  0  0
    2.2266    0.0617    0.9827 H   0  0  0  0  0  0  0  0  0  0  0  0
    2.5485   -2.6260    0.4171 H   0  0  0  0  0  0  0  0  0  0  0  0
    2.7220   -1.2935    3.1857 H   0  0  0  0  0  0  0  0  0  0  0  0
    3.4553   -2.8423    2.7520 H   0  0  0  0  0  0  0  0  0  0  0  0
    4.0253   -1.3454    1.9905 H   0  0  0  0  0  0  0  0  0  0  0  0
    1.0425   -4.1124    1.8765 N   0  0  0  0  0  0  0  0  0  0  0  0
    0.0036   -4.9943    2.3549 C   0  0  0  0  0  0  0  0  0  0  0  0
    1.9225   -4.5296    1.5878 H   0  0  0  0  0  0  0  0  0  0  0  0
    0.1024   -5.1217    3.4430 H   0  0  0  0  0  0  0  0  0  0  0  0
   -0.9805   -4.5601    2.1246 H   0  0  0  0  0  0  0  0  0  0  0  0
    0.0973   -5.9728    1.8613 H   0  0  0  0  0  0  0  0  0  0  0  0
 22 24  2  0  0  0  0
 24 26  1  0  0  0  0
 23 25  2  0  0  0  0
 25 26  1  0  0  0  0
 21 22  1  0  0  0  0
 22 23  1  0  0  0  0
  1  3  1  0  0  0  0
  1  7  1  0  0  0  0
  1  2  2  0  0  0  0
 35 36  1  0  0  0  0
 36 44  1  0  0  0  0
 36 37  2  0  0  0  0
  8  9  1  0  0  0  0
  9 17  1  0  0  0  0
  9 10  2  0  0  0  0
 18 19  1  0  0  0  0
 19 34  1  0  0  0  0
 19 20  2  0  0  0  0
 35 38  1  0  0  0  0
  8 11  1  0  0  0  0
 44 45  1  0  0  0  0
 18 21  1  0  0  0  0
 34 35  1  0  0  0  0
  7  8  1  0  0  0  0
 17 18  1  0  0  0  0
 24 31  1  0  0  0  0
 25 32  1  0  0  0  0
  3  4  1  0  0  0  0
  3  5  1  0  0  0  0
  3  6  1  0  0  0  0
 38 41  1  0  0  0  0
 38 42  1  0  0  0  0
 38 43  1  0  0  0  0
 11 14  1  0  0  0  0
 11 15  1  0  0  0  0
 11 16  1  0  0  0  0
 45 47  1  0  0  0  0
 45 48  1  0  0  0  0
 45 49  1  0  0  0  0
 21 29  1  0  0  0  0
 21 30  1  0  0  0  0
 35 40  1  0  0  0  0
  8 13  1  0  0  0  0
 18 28  1  0  0  0  0
 26 33  1  0  0  0  0
 44 46  1  0  0  0  0
  7 12  1  0  0  0  0
 34 39  1  0  0  0  0
 17 27  1  0  0  0  0
M  END
$$$$

  -OEChem-05262214473D

 49 49  0     1  0  0  0  0  0999 V2000
   -1.6183    0.5613    3.8201 C   0  0  0  0  0  0  0  0  0  0  0  0
   -0.6710   -0.0534    3.3444 O   0  0  0  0  0  0  0  0  0  0  0  0
   -2.0502    0.2789    5.2208 C   0  0  0  0  0  0  0  0  0  0  0  0
   -2.8099   -0.5175    5.2742 H   0  0  0  0  0  0  0  0  0  0  0  0
   -1.2190   -0.0687    5.8551 H   0  0  0  0  0  0  0  0  0  0  0  0
   -2.4882    1.1338    5.7604 H   0  0  0  0  0  0  0  0  0  0  0  0
   -2.3680    1.5337    3.1790 N   0  0  0  0  0  0  0  0  0  0  0  0
   -2.1212    1.9597    1.8266 C   0  0  2  0  0  0  0  0  0  0  0  0
   -0.7862    1.3744    1.3854 C   0  0  0  0  0  0  0  0  0  0  0  0
    0.0859    1.0216    2.1767 O   0  0  0  0  0  0  0  0  0  0  0  0
   -2.1124    3.4765    1.7171 C   0  0  0  0  0  0  0  0  0  0  0  0
   -3.1331    1.9695    3.6908 H   0  0  0  0  0  0  0  0  0  0  0  0
   -2.9253    1.5413    1.2115 H   0  0  0  0  0  0  0  0  0  0  0  0
   -1.3133    3.9138    2.3268 H   0  0  0  0  0  0  0  0  0  0  0  0
   -1.9529    3.7988    0.6829 H   0  0  0  0  0  0  0  0  0  0  0  0
   -3.0626    3.8977    2.0629 H   0  0  0  0  0  0  0  0  0  0  0  0
   -0.6635    1.3313    0.0020 N   0  0  0  0  0  0  0  0  0  0  0  0
    0.5138    0.8305   -0.6617 C   0  0  2  0  0  0  0  0  0  0  0  0
    0.6912   -0.6212   -0.2310 C   0  0  0  0  0  0  0  0  0  0  0  0
    0.2234   -1.5678   -0.8603 O   0  0  0  0  0  0  0  0  0  0  0  0
    1.7648    1.6459   -0.3151 C   0  0  0  0  0  0  0  0  0  0  0  0
    1.6812    3.0748   -0.7935 C   0  0  0  0  0  0  0  0  0  0  0  0
    1.8383    3.3765   -2.1231 N   0  0  0  0  0  0  0  0  0  0  0  0
    1.4561    4.2094   -0.0501 C   0  0  0  0  0  0  0  0  0  0  0  0
    1.7093    4.6831   -2.1874 C   0  0  0  0  0  0  0  0  0  0  0  0
    1.4774    5.2316   -0.9567 N   0  0  0  0  0  0  0  0  0  0  0  0
   -1.4467    1.6280   -0.5753 H   0  0  0  0  0  0  0  0  0  0  0  0
    0.3036    0.8626   -1.7372 H   0  0  0  0  0  0  0  0  0  0  0  0
    2.6595    1.1672   -0.7358 H   0  0  0  0  0  0  0  0  0  0  0  0
    1.9274    1.6559    0.7708 H   0  0  0  0  0  0  0  0  0  0  0  0
    1.2888    4.3805    1.0036 H   0  0  0  0  0  0  0  0  0  0  0  0
    1.7721    5.2859   -3.0824 H   0  0  0  0  0  0  0  0  0  0  0  0
    1.3449    6.2135   -0.7548 H   0  0  0  0  0  0  0  0  0  0  0  0
    1.4746   -0.7328    0.9093 N   0  0  0  0  0  0  0  0  0  0  0  0
    1.8173   -1.9990    1.5158 C   0  0  2  0  0  0  0  0  0  0  0  0
    0.5341   -2.8012    1.6869 C   0  0  0  0  0  0  0  0  0  0  0  0
   -0.5796   -2.2830    1.7339 O   0  0  0  0  0  0  0  0  0  0  0  0
    2.5170   -1.8014    2.8515 C   0  0  0  0  0  0  0  0  0  0  0  0
    1.8248    0.1184    1.3391 H   0  0  0  0  0  0  0  0  0  0  0  0
    2.4812   -2.5162    0.8145 H   0  0  0  0  0  0  0  0  0  0  0  0
    1.8672   -1.2847    3.5673 H   0  0  0  0  0  0  0  0  0  0  0  0
    2.8014   -2.7608    3.2962 H   0  0  0  0  0  0  0  0  0  0  0  0
    3.4239   -1.1991    2.7311 H   0  0  0  0  0  0  0  0  0  0  0  0
    0.7822   -4.1597    1.8242 N   0  0  0  0  0  0  0  0  0  0  0  0
   -0.2714   -5.1296    2.0120 C   0  0  0  0  0  0  0  0  0  0  0  0
    1.7355   -4.5032    1.7537 H   0  0  0  0  0  0  0  0  0  0  0  0
   -0.4331   -5.2925    3.0878 H   0  0  0  0  0  0  0  0  0  0  0  0
   -1.1993   -4.7561    1.5543 H   0  0  0  0  0  0  0  0  0  0  0  0
    0.0155   -6.0792    1.5365 H   0  0  0  0  0  0  0  0  0  0  0  0
 22 24  2  0  0  0  0
 24 26  1  0  0  0  0
 23 25  2  0  0  0  0
 25 26  1  0  0  0  0
 21 22  1  0  0  0  0
 22 23  1  0  0  0  0
  1  3  1  0  0  0  0
  1  7  1  0  0  0  0
  1  2  2  0  0  0  0
 35 36  1  0  0  0  0
 36 44  1  0  0  0  0
 36 37  2  0  0  0  0
  8  9  1  0  0  0  0
  9 17  1  0  0  0  0
  9 10  2  0  0  0  0
 18 19  1  0  0  0  0
 19 34  1  0  0  0  0
 19 20  2  0  0  0  0
 35 38  1  0  0  0  0
  8 11  1  0  0  0  0
 44 45  1  0  0  0  0
 18 21  1  0  0  0  0
 34 35  1  0  0  0  0
  7  8  1  0  0  0  0
 17 18  1  0  0  0  0
 24 31  1  0  0  0  0
 25 32  1  0  0  0  0
  3  4  1  0  0  0  0
  3  5  1  0  0  0  0
  3  6  1  0  0  0  0
 38 41  1  0  0  0  0
 38 42  1  0  0  0  0
 38 43  1  0  0  0  0
 11 14  1  0  0  0  0
 11 15  1  0  0  0  0
 11 16  1  0  0  0  0
 45 47  1  0  0  0  0
 45 48  1  0  0  0  0
 45 49  1  0  0  0  0
 21 29  1  0  0  0  0
 21 30  1  0  0  0  0
 35 40  1  0  0  0  0
  8 13  1  0  0  0  0
 18 28  1  0  0  0  0
 26 33  1  0  0  0  0
 44 46  1  0  0  0  0
  7 12  1  0  0  0  0
 34 39  1  0  0  0  0
 17 27  1  0  0  0  0
M  END
$$$$

  -OEChem-05262214473D

 49 49  0     1  0  0  0  0  0999 V2000
   -1.6183    0.5613    3.8201 C   0  0  0  0  0  0  0  0  0  0  0  0
   -0.6710   -0.0534    3.3444 O   0  0  0  0  0  0  0  0  0  0  0  0
   -2.0502    0.2789    5.2208 C   0  0  0  0  0  0  0  0  0  0  0  0
   -2.8099   -0.5175    5.2742 H   0  0  0  0  0  0  0  0  0  0  0  0
   -1.2190   -0.0687    5.8551 H   0  0  0  0  0  0  0  0  0  0  0  0
   -2.4882    1.1338    5.7604 H   0  0  0  0  0  0  0  0  0  0  0  0
   -2.3680    1.5337    3.1790 N   0  0  0  0  0  0  0  0  0  0  0  0
   -2.1212    1.9597    1.8266 C   0  0  2  0  0  0  0  0  0  0  0  0
   -0.7862    1.3744    1.3854 C   0  0  0  0  0  0  0  0  0  0  0  0
    0.0859    1.0216    2.1767 O   0  0  0  0  0  0  0  0  0  0  0  0
   -2.1124    3.4765    1.7171 C   0  0  0  0  0  0  0  0  0  0  0  0
   -3.1331    1.9695    3.6908 H   0  0  0  0  0  0  0  0  0  0  0  0
   -2.9253    1.5413    1.2115 H   0  0  0  0  0  0  0  0  0  0  0  0
   -1.3133    3.9138    2.3268 H   0  0  0  0  0  0  0  0  0  0  0  0
   -1.9529    3.7988    0.6829 H   0  0  0  0  0  0  0  0  0  0  0  0
   -3.0626    3.8977    2.0629 H   0  0  0  0  0  0  0  0  0  0  0  0
   -0.6635    1.3313    0.0020 N   0  0  0  0  0  0  0  0  0  0  0  0
    0.5138    0.8305   -0.6617 C   0  0  2  0  0  0  0  0  0  0  0  0
    0.6912   -0.6212   -0.2310 C   0  0  0  0  0  0  0  0  0  0  0  0
    0.4663   -1.5725   -0.9762 O   0  0  0  0  0  0  0  0  0  0  0  0
    1.7648    1.6459   -0.3151 C   0  0  0  0  0  0  0  0  0  0  0  0
    1.6812    3.0748   -0.7935 C   0  0  0  0  0  0  0  0  0  0  0  0
    1.8383    3.3765   -2.1231 N   0  0  0  0  0  0  0  0  0  0  0  0
    1.4561    4.2094   -0.0501 C   0  0  0  0  0  0  0  0  0  0  0  0
    1.7093    4.6831   -2.1874 C   0  0  0  0  0  0  0  0  0  0  0  0
    1.4774    5.2316   -0.9567 N   0  0  0  0  0  0  0  0  0  0  0  0
   -1.4467    1.6280   -0.5753 H   0  0  0  0  0  0  0  0  0  0  0  0
    0.3036    0.8626   -1.7372 H   0  0  0  0  0  0  0  0  0  0  0  0
    2.6595    1.1672   -0.7358 H   0  0  0  0  0  0  0  0  0  0  0  0
    1.9274    1.6559    0.7708 H   0  0  0  0  0  0  0  0  0  0  0  0
    1.2888    4.3805    1.0036 H   0  0  0  0  0  0  0  0  0  0  0  0
    1.7721    5.2859   -3.0824 H   0  0  0  0  0  0  0  0  0  0  0  0
    1.3449    6.2135   -0.7548 H   0  0  0  0  0  0  0  0  0  0  0  0
    1.1772   -0.7229    1.0651 N   0  0  0  0  0  0  0  0  0  0  0  0
    1.4569   -1.9852    1.7110 C   0  0  2  0  0  0  0  0  0  0  0  0
    0.2365   -2.8805    1.5422 C   0  0  0  0  0  0  0  0  0  0  0  0
   -0.8912   -2.4430    1.3229 O   0  0  0  0  0  0  0  0  0  0  0  0
    1.7902   -1.7922    3.1822 C   0  0  0  0  0  0  0  0  0  0  0  0
    1.3446    0.1329    1.5860 H   0  0  0  0  0  0  0  0  0  0  0  0
    2.3103   -2.4272    1.1852 H   0  0  0  0  0  0  0  0  0  0  0  0
    0.9469   -1.3503    3.7254 H   0  0  0  0  0  0  0  0  0  0  0  0
    2.0297   -2.7462    3.6632 H   0  0  0  0  0  0  0  0  0  0  0  0
    2.6499   -1.1242    3.3026 H   0  0  0  0  0  0  0  0  0  0  0  0
    0.5470   -4.2229    1.7082 N   0  0  0  0  0  0  0  0  0  0  0  0
   -0.4426   -5.2702    1.6089 C   0  0  0  0  0  0  0  0  0  0  0  0
    1.5120   -4.4964    1.8687 H   0  0  0  0  0  0  0  0  0  0  0  0
   -0.8502   -5.4860    2.6075 H   0  0  0  0  0  0  0  0  0  0  0  0
   -1.2558   -4.9441    0.9437 H   0  0  0  0  0  0  0  0  0  0  0  0
    0.0243   -6.1781    1.1995 H   0  0  0  0  0  0  0  0  0  0  0  0
 22 24  2  0  0  0  0
 24 26  1  0  0  0  0
 23 25  2  0  0  0  0
 25 26  1  0  0  0  0
 21 22  1  0  0  0  0
 22 23  1  0  0  0  0
  1  3  1  0  0  0  0
  1  7  1  0  0  0  0
  1  2  2  0  0  0  0
 35 36  1  0  0  0  0
 36 44  1  0  0  0  0
 36 37  2  0  0  0  0
  8  9  1  0  0  0  0
  9 17  1  0  0  0  0
  9 10  2  0  0  0  0
 18 19  1  0  0  0  0
 19 34  1  0  0  0  0
 19 20  2  0  0  0  0
 35 38  1  0  0  0  0
  8 11  1  0  0  0  0
 44 45  1  0  0  0  0
 18 21  1  0  0  0  0
 34 35  1  0  0  0  0
  7  8  1  0  0  0  0
 17 18  1  0  0  0  0
 24 31  1  0  0  0  0
 25 32  1  0  0  0  0
  3  4  1  0  0  0  0
  3  5  1  0  0  0  0
  3  6  1  0  0  0  0
 38 41  1  0  0  0  0
 38 42  1  0  0  0  0
 38 43  1  0  0  0  0
 11 14  1  0  0  0  0
 11 15  1  0  0  0  0
 11 16  1  0  0  0  0
 45 47  1  0  0  0  0
 45 48  1  0  0  0  0
 45 49  1  0  0  0  0
 21 29  1  0  0  0  0
 21 30  1  0  0  0  0
 35 40  1  0  0  0  0
  8 13  1  0  0  0  0
 18 28  1  0  0  0  0
 26 33  1  0  0  0  0
 44 46  1  0  0  0  0
  7 12  1  0  0  0  0
 34 39  1  0  0  0  0
 17 27  1  0  0  0  0
M  END
$$$$

  -OEChem-05262214473D

 49 49  0     1  0  0  0  0  0999 V2000
   -1.6183    0.5613    3.8201 C   0  0  0  0  0  0  0  0  0  0  0  0
   -0.6710   -0.0534    3.3444 O   0  0  0  0  0  0  0  0  0  0  0  0
   -2.0502    0.2789    5.2208 C   0  0  0  0  0  0  0  0  0  0  0  0
   -2.8099   -0.5175    5.2742 H   0  0  0  0  0  0  0  0  0  0  0  0
   -1.2190   -0.0687    5.8551 H   0  0  0  0  0  0  0  0  0  0  0  0
   -2.4882    1.1338    5.7604 H   0  0  0  0  0  0  0  0  0  0  0  0
   -2.3680    1.5337    3.1790 N   0  0  0  0  0  0  0  0  0  0  0  0
   -2.1212    1.9597    1.8266 C   0  0  2  0  0  0  0  0  0  0  0  0
   -0.7862    1.3744    1.3854 C   0  0  0  0  0  0  0  0  0  0  0  0
    0.0859    1.0216    2.1767 O   0  0  0  0  0  0  0  0  0  0  0  0
   -2.1124    3.4765    1.7171 C   0  0  0  0  0  0  0  0  0  0  0  0
   -3.1331    1.9695    3.6908 H   0  0  0  0  0  0  0  0  0  0  0  0
   -2.9253    1.5413    1.2115 H   0  0  0  0  0  0  0  0  0  0  0  0
   -1.3133    3.9138    2.3268 H   0  0  0  0  0  0  0  0  0  0  0  0
   -1.9529    3.7988    0.6829 H   0  0  0  0  0  0  0  0  0  0  0  0
   -3.0626    3.8977    2.0629 H   0  0  0  0  0  0  0  0  0  0  0  0
   -0.6635    1.3313    0.0020 N   0  0  0  0  0  0  0  0  0  0  0  0
    0.5138    0.8305   -0.6617 C   0  0  2  0  0  0  0  0  0  0  0  0
    0.6912   -0.6212   -0.2310 C   0  0  0  0  0  0  0  0  0  0  0  0
    0.7298   -1.5558   -1.0284 O   0  0  0  0  0  0  0  0  0  0  0  0
    1.7648    1.6459   -0.3151 C   0  0  0  0  0  0  0  0  0  0  0  0
    1.6812    3.0748   -0.7935 C   0  0  0  0  0  0  0  0  0  0  0  0
    1.8383    3.3765   -2.1231 N   0  0  0  0  0  0  0  0  0  0  0  0
    1.4561    4.2094   -0.0501 C   0  0  0  0  0  0  0  0  0  0  0  0
    1.7093    4.6831   -2.1874 C   0  0  0  0  0  0  0  0  0  0  0  0
    1.4774    5.2316   -0.9567 N   0  0  0  0  0  0  0  0  0  0  0  0
   -1.4467    1.6280   -0.5753 H   0  0  0  0  0  0  0  0  0  0  0  0
    0.3036    0.8626   -1.7372 H   0  0  0  0  0  0  0  0  0  0  0  0
    2.6595    1.1672   -0.7358 H   0  0  0  0  0  0  0  0  0  0  0  0
    1.9274    1.6559    0.7708 H   0  0  0  0  0  0  0  0  0  0  0  0
    1.2888    4.3805    1.0036 H   0  0  0  0  0  0  0  0  0  0  0  0
    1.7721    5.2859   -3.0824 H   0  0  0  0  0  0  0  0  0  0  0  0
    1.3449    6.2135   -0.7548 H   0  0  0  0  0  0  0  0  0  0  0  0
    0.8507   -0.7398    1.1427 N   0  0  0  0  0  0  0  0  0  0  0  0
    1.0597   -2.0040    1.8111 C   0  0  2  0  0  0  0  0  0  0  0  0
   -0.0095   -2.9745    1.3267 C   0  0  0  0  0  0  0  0  0  0  0  0
   -1.0791   -2.6080    0.8443 O   0  0  0  0  0  0  0  0  0  0  0  0
    1.0060   -1.8463    3.3227 C   0  0  0  0  0  0  0  0  0  0  0  0
    0.8189    0.1045    1.7066 H   0  0  0  0  0  0  0  0  0  0  0  0
    2.0473   -2.3648    1.5038 H   0  0  0  0  0  0  0  0  0  0  0  0
    0.0238   -1.4856    3.6494 H   0  0  0  0  0  0  0  0  0  0  0  0
    1.1928   -2.7996    3.8280 H   0  0  0  0  0  0  0  0  0  0  0  0
    1.7558   -1.1256    3.6662 H   0  0  0  0  0  0  0  0  0  0  0  0
    0.3531   -4.2976    1.5362 N   0  0  0  0  0  0  0  0  0  0  0  0
   -0.4984   -5.4063    1.1731 C   0  0  0  0  0  0  0  0  0  0  0  0
    1.2673   -4.5097    1.9248 H   0  0  0  0  0  0  0  0  0  0  0  0
   -1.1207   -5.6889    2.0350 H   0  0  0  0  0  0  0  0  0  0  0  0
   -1.1461   -5.1115    0.3343 H   0  0  0  0  0  0  0  0  0  0  0  0
    0.1231   -6.2629    0.8731 H   0  0  0  0  0  0  0  0  0  0  0  0
 22 24  2  0  0  0  0
 24 26  1  0  0  0  0
 23 25  2  0  0  0  0
 25 26  1  0  0  0  0
 21 22  1  0  0  0  0
 22 23  1  0  0  0  0
  1  3  1  0  0  0  0
  1  7  1  0  0  0  0
  1  2  2  0  0  0  0
 35 36  1  0  0  0  0
 36 44  1  0  0  0  0
 36 37  2  0  0  0  0
  8  9  1  0  0  0  0
  9 17  1  0  0  0  0
  9 10  2  0  0  0  0
 18 19  1  0  0  0  0
 19 34  1  0  0  0  0
 19 20  2  0  0  0  0
 35 38  1  0  0  0  0
  8 11  1  0  0  0  0
 44 45  1  0  0  0  0
 18 21  1  0  0  0  0
 34 35  1  0  0  0  0
  7  8  1  0  0  0  0
 17 18  1  0  0  0  0
 24 31  1  0  0  0  0
 25 32  1  0  0  0  0
  3  4  1  0  0  0  0
  3  5  1  0  0  0  0
  3  6  1  0  0  0  0
 38 41  1  0  0  0  0
 38 42  1  0  0  0  0
 38 43  1  0  0  0  0
 11 14  1  0  0  0  0
 11 15  1  0  0  0  0
 11 16  1  0  0  0  0
 45 47  1  0  0  0  0
 45 48  1  0  0  0  0
 45 49  1  0  0  0  0
 21 29  1  0  0  0  0
 21 30  1  0  0  0  0
 35 40  1  0  0  0  0
  8 13  1  0  0  0  0
 18 28  1  0  0  0  0
 26 33  1  0  0  0  0
 44 46  1  0  0  0  0
  7 12  1  0  0  0  0
 34 39  1  0  0  0  0
 17 27  1  0  0  0  0
M  END
$$$$

  -OEChem-05262214473D

 49 49  0     1  0  0  0  0  0999 V2000
   -1.6183    0.5613    3.8201 C   0  0  0  0  0  0  0  0  0  0  0  0
   -0.6710   -0.0534    3.3444 O   0  0  0  0  0  0  0  0  0  0  0  0
   -2.0502    0.2789    5.2208 C   0  0  0  0  0  0  0  0  0  0  0  0
   -2.8099   -0.5175    5.2742 H   0  0  0  0  0  0  0  0  0  0  0  0
   -1.2190   -0.0687    5.8551 H   0  0  0  0  0  0  0  0  0  0  0  0
   -2.4882    1.1338    5.7604 H   0  0  0  0  0  0  0  0  0  0  0  0
   -2.3680    1.5337    3.1790 N   0  0  0  0  0  0  0  0  0  0  0  0
   -2.1212    1.9597    1.8266 C   0  0  2  0  0  0  0  0  0  0  0  0
   -0.7862    1.3744    1.3854 C   0  0  0  0  0  0  0  0  0  0  0  0
    0.0859    1.0216    2.1767 O   0  0  0  0  0  0  0  0  0  0  0  0
   -2.1124    3.4765    1.7171 C   0  0  0  0  0  0  0  0  0  0  0  0
   -3.1331    1.9695    3.6908 H   0  0  0  0  0  0  0  0  0  0  0  0
   -2.9253    1.5413    1.2115 H   0  0  0  0  0  0  0  0  0  0  0  0
   -1.3133    3.9138    2.3268 H   0  0  0  0  0  0  0  0  0  0  0  0
   -1.9529    3.7988    0.6829 H   0  0  0  0  0  0  0  0  0  0  0  0
   -3.0626    3.8977    2.0629 H   0  0  0  0  0  0  0  0  0  0  0  0
   -0.6635    1.3313    0.0020 N   0  0  0  0  0  0  0  0  0  0  0  0
    0.5138    0.8305   -0.6617 C   0  0  2  0  0  0  0  0  0  0  0  0
    0.6912   -0.6212   -0.2310 C   0  0  0  0  0  0  0  0  0  0  0  0
    0.9960   -1.5188   -1.0134 O   0  0  0  0  0  0  0  0  0  0  0  0
    1.7648    1.6459   -0.3151 C   0  0  0  0  0  0  0  0  0  0  0  0
    1.6812    3.0748   -0.7935 C   0  0  0  0  0  0  0  0  0  0  0  0
    1.8383    3.3765   -2.1231 N   0  0  0  0  0  0  0  0  0  0  0  0
    1.4561    4.2094   -0.0501 C   0  0  0  0  0  0  0  0  0  0  0  0
    1.7093    4.6831   -2.1874 C   0  0  0  0  0  0  0  0  0  0  0  0
    1.4774    5.2316   -0.9567 N   0  0  0  0  0  0  0  0  0  0  0  0
   -1.4467    1.6280   -0.5753 H   0  0  0  0  0  0  0  0  0  0  0  0
    0.3036    0.8626   -1.7372 H   0  0  0  0  0  0  0  0  0  0  0  0
    2.6595    1.1672   -0.7358 H   0  0  0  0  0  0  0  0  0  0  0  0
    1.9274    1.6559    0.7708 H   0  0  0  0  0  0  0  0  0  0  0  0
    1.2888    4.3805    1.0036 H   0  0  0  0  0  0  0  0  0  0  0  0
    1.7721    5.2859   -3.0824 H   0  0  0  0  0  0  0  0  0  0  0  0
    1.3449    6.2135   -0.7548 H   0  0  0  0  0  0  0  0  0  0  0  0
    0.5174   -0.7823    1.1366 N   0  0  0  0  0  0  0  0  0  0  0  0
    0.6526   -2.0543    1.8093 C   0  0  2  0  0  0  0  0  0  0  0  0
   -0.1872   -3.0768    1.0551 C   0  0  0  0  0  0  0  0  0  0  0  0
   -1.1306   -2.7667    0.3307 O   0  0  0  0  0  0  0  0  0  0  0  0
    0.2178   -1.9602    3.2635 C   0  0  0  0  0  0  0  0  0  0  0  0
    0.2835    0.0349    1.6927 H   0  0  0  0  0  0  0  0  0  0  0  0
    1.7102   -2.3334    1.7486 H   0  0  0  0  0  0  0  0  0  0  0  0
   -0.8392   -1.6816    3.3444 H   0  0  0  0  0  0  0  0  0  0  0  0
    0.3477   -2.9174    3.7792 H   0  0  0  0  0  0  0  0  0  0  0  0
    0.8028   -1.2032    3.7970 H   0  0  0  0  0  0  0  0  0  0  0  0
    0.2136   -4.3788    1.3201 N   0  0  0  0  0  0  0  0  0  0  0  0
   -0.4349   -5.5287    0.7343 C   0  0  0  0  0  0  0  0  0  0  0  0
    1.0181   -4.5420    1.9184 H   0  0  0  0  0  0  0  0  0  0  0  0
   -1.2260   -5.8875    1.4092 H   0  0  0  0  0  0  0  0  0  0  0  0
   -0.8778   -5.2469   -0.2324 H   0  0  0  0  0  0  0  0  0  0  0  0
    0.3051   -6.3277    0.5796 H   0  0  0  0  0  0  0  0  0  0  0  0
 22 24  2  0  0  0  0
 24 26  1  0  0  0  0
 23 25  2  0  0  0  0
 25 26  1  0  0  0  0
 21 22  1  0  0  0  0
 22 23  1  0  0  0  0
  1  3  1  0  0  0  0
  1  7  1  0  0  0  0
  1  2  2  0  0  0  0
 35 36  1  0  0  0  0
 36 44  1  0  0  0  0
 36 37  2  0  0  0  0
  8  9  1  0  0  0  0
  9 17  1  0  0  0  0
  9 10  2  0  0  0  0
 18 19  1  0  0  0  0
 19 34  1  0  0  0  0
 19 20  2  0  0  0  0
 35 38  1  0  0  0  0
  8 11  1  0  0  0  0
 44 45  1  0  0  0  0
 18 21  1  0  0  0  0
 34 35  1  0  0  0  0
  7  8  1  0  0  0  0
 17 18  1  0  0  0  0
 24 31  1  0  0  0  0
 25 32  1  0  0  0  0
  3  4  1  0  0  0  0
  3  5  1  0  0  0  0
  3  6  1  0  0  0  0
 38 41  1  0  0  0  0
 38 42  1  0  0  0  0
 38 43  1  0  0  0  0
 11 14  1  0  0  0  0
 11 15  1  0  0  0  0
 11 16  1  0  0  0  0
 45 47  1  0  0  0  0
 45 48  1  0  0  0  0
 45 49  1  0  0  0  0
 21 29  1  0  0  0  0
 21 30  1  0  0  0  0
 35 40  1  0  0  0  0
  8 13  1  0  0  0  0
 18 28  1  0  0  0  0
 26 33  1  0  0  0  0
 44 46  1  0  0  0  0
  7 12  1  0  0  0  0
 34 39  1  0  0  0  0
 17 27  1  0  0  0  0
M  END
$$$$

  -OEChem-05262214473D

 49 49  0     1  0  0  0  0  0999 V2000
   -1.6183    0.5613    3.8201 C   0  0  0  0  0  0  0  0  0  0  0  0
   -0.6710   -0.0534    3.3444 O   0  0  0  0  0  0  0  0  0  0  0  0
   -2.0502    0.2789    5.2208 C   0  0  0  0  0  0  0  0  0  0  0  0
   -2.8099   -0.5175    5.2742 H   0  0  0  0  0  0  0  0  0  0  0  0
   -1.2190   -0.0687    5.8551 H   0  0  0  0  0  0  0  0  0  0  0  0
   -2.4882    1.1338    5.7604 H   0  0  0  0  0  0  0  0  0  0  0  0
   -2.3680    1.5337    3.1790 N   0  0  0  0  0  0  0  0  0  0  0  0
   -2.1212    1.9597    1.8266 C   0  0  2  0  0  0  0  0  0  0  0  0
   -0.7862    1.3744    1.3854 C   0  0  0  0  0  0  0  0  0  0  0  0
    0.0859    1.0216    2.1767 O   0  0  0  0  0  0  0  0  0  0  0  0
   -2.1124    3.4765    1.7171 C   0  0  0  0  0  0  0  0  0  0  0  0
   -3.1331    1.9695    3.6908 H   0  0  0  0  0  0  0  0  0  0  0  0
   -2.9253    1.5413    1.2115 H   0  0  0  0  0  0  0  0  0  0  0  0
   -1.3133    3.9138    2.3268 H   0  0  0  0  0  0  0  0  0  0  0  0
   -1.9529    3.7988    0.6829 H   0  0  0  0  0  0  0  0  0  0  0  0
   -3.0626    3.8977    2.0629 H   0  0  0  0  0  0  0  0  0  0  0  0
   -0.6635    1.3313    0.0020 N   0  0  0  0  0  0  0  0  0  0  0  0
    0.5138    0.8305   -0.6617 C   0  0  2  0  0  0  0  0  0  0  0  0
    0.6912   -0.6212   -0.2310 C   0  0  0  0  0  0  0  0  0  0  0  0
    1.2467   -1.4640   -0.9323 O   0  0  0  0  0  0  0  0  0  0  0  0
    1.7648    1.6459   -0.3151 C   0  0  0  0  0  0  0  0  0  0  0  0
    1.6812    3.0748   -0.7935 C   0  0  0  0  0  0  0  0  0  0  0  0
    1.8383    3.3765   -2.1231 N   0  0  0  0  0  0  0  0  0  0  0  0
    1.4561    4.2094   -0.0501 C   0  0  0  0  0  0  0  0  0  0  0  0
    1.7093    4.6831   -2.1874 C   0  0  0  0  0  0  0  0  0  0  0  0
    1.4774    5.2316   -0.9567 N   0  0  0  0  0  0  0  0  0  0  0  0
   -1.4467    1.6280   -0.5753 H   0  0  0  0  0  0  0  0  0  0  0  0
    0.3036    0.8626   -1.7372 H   0  0  0  0  0  0  0  0  0  0  0  0
    2.6595    1.1672   -0.7358 H   0  0  0  0  0  0  0  0  0  0  0  0
    1.9274    1.6559    0.7708 H   0  0  0  0  0  0  0  0  0  0  0  0
    1.2888    4.3805    1.0036 H   0  0  0  0  0  0  0  0  0  0  0  0
    1.7721    5.2859   -3.0824 H   0  0  0  0  0  0  0  0  0  0  0  0
    1.3449    6.2135   -0.7548 H   0  0  0  0  0  0  0  0  0  0  0  0
    0.2002   -0.8476    1.0474 N   0  0  0  0  0  0  0  0  0  0  0  0
    0.2636   -2.1326    1.7058 C   0  0  2  0  0  0  0  0  0  0  0  0
   -0.2843   -3.1804    0.7459 C   0  0  0  0  0  0  0  0  0  0  0  0
   -1.0422   -2.9082   -0.1829 O   0  0  0  0  0  0  0  0  0  0  0  0
   -0.5206   -2.1260    3.0087 C   0  0  0  0  0  0  0  0  0  0  0  0
   -0.2251   -0.0710    1.5452 H   0  0  0  0  0  0  0  0  0  0  0  0
    1.3220   -2.3350    1.9029 H   0  0  0  0  0  0  0  0  0  0  0  0
   -1.5834   -1.9248    2.8312 H   0  0  0  0  0  0  0  0  0  0  0  0
   -0.4480   -3.0914    3.5204 H   0  0  0  0  0  0  0  0  0  0  0  0
   -0.1444   -1.3519    3.6861 H   0  0  0  0  0  0  0  0  0  0  0  0
    0.1381   -4.4609    1.0745 N   0  0  0  0  0  0  0  0  0  0  0  0
   -0.2565   -5.6291    0.3225 C   0  0  0  0  0  0  0  0  0  0  0  0
    0.7813   -4.5913    1.8498 H   0  0  0  0  0  0  0  0  0  0  0  0
   -1.1590   -6.0681    0.7728 H   0  0  0  0  0  0  0  0  0  0  0  0
   -0.4690   -5.3409   -0.7176 H   0  0  0  0  0  0  0  0  0  0  0  0
    0.5580   -6.3681    0.3391 H   0  0  0  0  0  0  0  0  0  0  0  0
 22 24  2  0  0  0  0
 24 26  1  0  0  0  0
 23 25  2  0  0  0  0
 25 26  1  0  0  0  0
 21 22  1  0  0  0  0
 22 23  1  0  0  0  0
  1  3  1  0  0  0  0
  1  7  1  0  0  0  0
  1  2  2  0  0  0  0
 35 36  1  0  0  0  0
 36 44  1  0  0  0  0
 36 37  2  0  0  0  0
  8  9  1  0  0  0  0
  9 17  1  0  0  0  0
  9 10  2  0  0  0  0
 18 19  1  0  0  0  0
 19 34  1  0  0  0  0
 19 20  2  0  0  0  0
 35 38  1  0  0  0  0
  8 11  1  0  0  0  0
 44 45  1  0  0  0  0
 18 21  1  0  0  0  0
 34 35  1  0  0  0  0
  7  8  1  0  0  0  0
 17 18  1  0  0  0  0
 24 31  1  0  0  0  0
 25 32  1  0  0  0  0
  3  4  1  0  0  0  0
  3  5  1  0  0  0  0
  3  6  1  0  0  0  0
 38 41  1  0  0  0  0
 38 42  1  0  0  0  0
 38 43  1  0  0  0  0
 11 14  1  0  0  0  0
 11 15  1  0  0  0  0
 11 16  1  0  0  0  0
 45 47  1  0  0  0  0
 45 48  1  0  0  0  0
 45 49  1  0  0  0  0
 21 29  1  0  0  0  0
 21 30  1  0  0  0  0
 35 40  1  0  0  0  0
  8 13  1  0  0  0  0
 18 28  1  0  0  0  0
 26 33  1  0  0  0  0
 44 46  1  0  0  0  0
  7 12  1  0  0  0  0
 34 39  1  0  0  0  0
 17 27  1  0  0  0  0
M  END
$$$$

  -OEChem-05262214473D

 49 49  0     1  0  0  0  0  0999 V2000
   -1.6183    0.5613    3.8201 C   0  0  0  0  0  0  0  0  0  0  0  0
   -0.6710   -0.0534    3.3444 O   0  0  0  0  0  0  0  0  0  0  0  0
   -2.0502    0.2789    5.2208 C   0  0  0  0  0  0  0  0  0  0  0  0
   -2.8099   -0.5175    5.2742 H   0  0  0  0  0  0  0  0  0  0  0  0
   -1.2190   -0.0687    5.8551 H   0  0  0  0  0  0  0  0  0  0  0  0
   -2.4882    1.1338    5.7604 H   0  0  0  0  0  0  0  0  0  0  0  0
   -2.3680    1.5337    3.1790 N   0  0  0  0  0  0  0  0  0  0  0  0
   -2.1212    1.9597    1.8266 C   0  0  2  0  0  0  0  0  0  0  0  0
   -0.7862    1.3744    1.3854 C   0  0  0  0  0  0  0  0  0  0  0  0
    0.0859    1.0216    2.1767 O   0  0  0  0  0  0  0  0  0  0  0  0
   -2.1124    3.4765    1.7171 C   0  0  0  0  0  0  0  0  0  0  0  0
   -3.1331    1.9695    3.6908 H   0  0  0  0  0  0  0  0  0  0  0  0
   -2.9253    1.5413    1.2115 H   0  0  0  0  0  0  0  0  0  0  0  0
   -1.3133    3.9138    2.3268 H   0  0  0  0  0  0  0  0  0  0  0  0
   -1.9529    3.7988    0.6829 H   0  0  0  0  0  0  0  0  0  0  0  0
   -3.0626    3.8977    2.0629 H   0  0  0  0  0  0  0  0  0  0  0  0
   -0.6635    1.3313    0.0020 N   0  0  0  0  0  0  0  0  0  0  0  0
    0.5138    0.8305   -0.6617 C   0  0  2  0  0  0  0  0  0  0  0  0
    0.6912   -0.6212   -0.2310 C   0  0  0  0  0  0  0  0  0  0  0  0
    1.4649   -1.3953   -0.7904 O   0  0  0  0  0  0  0  0  0  0  0  0
    1.7648    1.6459   -0.3151 C   0  0  0  0  0  0  0  0  0  0  0  0
    1.6812    3.0748   -0.7935 C   0  0  0  0  0  0  0  0  0  0  0  0
    1.8383    3.3765   -2.1231 N   0  0  0  0  0  0  0  0  0  0  0  0
    1.4561    4.2094   -0.0501 C   0  0  0  0  0  0  0  0  0  0  0  0
    1.7093    4.6831   -2.1874 C   0  0  0  0  0  0  0  0  0  0  0  0
    1.4774    5.2316   -0.9567 N   0  0  0  0  0  0  0  0  0  0  0  0
   -1.4467    1.6280   -0.5753 H   0  0  0  0  0  0  0  0  0  0  0  0
    0.3036    0.8626   -1.7372 H   0  0  0  0  0  0  0  0  0  0  0  0
    2.6595    1.1672   -0.7358 H   0  0  0  0  0  0  0  0  0  0  0  0
    1.9274    1.6559    0.7708 H   0  0  0  0  0  0  0  0  0  0  0  0
    1.2888    4.3805    1.0036 H   0  0  0  0  0  0  0  0  0  0  0  0
    1.7721    5.2859   -3.0824 H   0  0  0  0  0  0  0  0  0  0  0  0
    1.3449    6.2135   -0.7548 H   0  0  0  0  0  0  0  0  0  0  0  0
   -0.0795   -0.9311    0.8810 N   0  0  0  0  0  0  0  0  0  0  0  0
   -0.0809   -2.2335    1.5075 C   0  0  2  0  0  0  0  0  0  0  0  0
   -0.2944   -3.2783    0.4201 C   0  0  0  0  0  0  0  0  0  0  0  0
   -0.8199   -3.0230   -0.6614 O   0  0  0  0  0  0  0  0  0  0  0  0
   -1.1589   -2.3326    2.5756 C   0  0  0  0  0  0  0  0  0  0  0  0
   -0.6724   -0.2061    1.2742 H   0  0  0  0  0  0  0  0  0  0  0  0
    0.9091   -2.3696    1.9563 H   0  0  0  0  0  0  0  0  0  0  0  0
   -2.1579   -2.1987    2.1448 H   0  0  0  0  0  0  0  0  0  0  0  0
   -1.1400   -3.3099    3.0690 H   0  0  0  0  0  0  0  0  0  0  0  0
   -1.0211   -1.5614    3.3412 H   0  0  0  0  0  0  0  0  0  0  0  0
    0.1317   -4.5383    0.8162 N   0  0  0  0  0  0  0  0  0  0  0  0
    0.0246   -5.7006   -0.0344 C   0  0  0  0  0  0  0  0  0  0  0  0
    0.5731   -4.6542    1.7237 H   0  0  0  0  0  0  0  0  0  0  0  0
   -0.9242   -6.2185    0.1692 H   0  0  0  0  0  0  0  0  0  0  0  0
    0.0523   -5.3872   -1.0885 H   0  0  0  0  0  0  0  0  0  0  0  0
    0.8646   -6.3815    0.1678 H   0  0  0  0  0  0  0  0  0  0  0  0
 22 24  2  0  0  0  0
 24 26  1  0  0  0  0
 23 25  2  0  0  0  0
 25 26  1  0  0  0  0
 21 22  1  0  0  0  0
 22 23  1  0  0  0  0
  1  3  1  0  0  0  0
  1  7  1  0  0  0  0
  1  2  2  0  0  0  0
 35 36  1  0  0  0  0
 36 44  1  0  0  0  0
 36 37  2  0  0  0  0
  8  9  1  0  0  0  0
  9 17  1  0  0  0  0
  9 10  2  0  0  0  0
 18 19  1  0  0  0  0
 19 34  1  0  0  0  0
 19 20  2  0  0  0  0
 35 38  1  0  0  0  0
  8 11  1  0  0  0  0
 44 45  1  0  0  0  0
 18 21  1  0  0  0  0
 34 35  1  0  0  0  0
  7  8  1  0  0  0  0
 17 18  1  0  0  0  0
 24 31  1  0  0  0  0
 25 32  1  0  0  0  0
  3  4  1  0  0  0  0
  3  5  1  0  0  0  0
  3  6  1  0  0  0  0
 38 41  1  0  0  0  0
 38 42  1  0  0  0  0
 38 43  1  0  0  0  0
 11 14  1  0  0  0  0
 11 15  1  0  0  0  0
 11 16  1  0  0  0  0
 45 47  1  0  0  0  0
 45 48  1  0  0  0  0
 45 49  1  0  0  0  0
 21 29  1  0  0  0  0
 21 30  1  0  0  0  0
 35 40  1  0  0  0  0
  8 13  1  0  0  0  0
 18 28  1  0  0  0  0
 26 33  1  0  0  0  0
 44 46  1  0  0  0  0
  7 12  1  0  0  0  0
 34 39  1  0  0  0  0
 17 27  1  0  0  0  0
M  END
$$$$

  -OEChem-05262214473D

 49 49  0     1  0  0  0  0  0999 V2000
   -1.6183    0.5613    3.8201 C   0  0  0  0  0  0  0  0  0  0  0  0
   -0.6710   -0.0534    3.3444 O   0  0  0  0  0  0  0  0  0  0  0  0
   -2.0502    0.2789    5.2208 C   0  0  0  0  0  0  0  0  0  0  0  0
   -2.8099   -0.5175    5.2742 H   0  0  0  0  0  0  0  0  0  0  0  0
   -1.2190   -0.0687    5.8551 H   0  0  0  0  0  0  0  0  0  0  0  0
   -2.4882    1.1338    5.7604 H   0  0  0  0  0  0  0  0  0  0  0  0
   -2.3680    1.5337    3.1790 N   0  0  0  0  0  0  0  0  0  0  0  0
   -2.1212    1.9597    1.8266 C   0  0  2  0  0  0  0  0  0  0  0  0
   -0.7862    1.3744    1.3854 C   0  0  0  0  0  0  0  0  0  0  0  0
    0.0859    1.0216    2.1767 O   0  0  0  0  0  0  0  0  0  0  0  0
   -2.1124    3.4765    1.7171 C   0  0  0  0  0  0  0  0  0  0  0  0
   -3.1331    1.9695    3.6908 H   0  0  0  0  0  0  0  0  0  0  0  0
   -2.9253    1.5413    1.2115 H   0  0  0  0  0  0  0  0  0  0  0  0
   -1.3133    3.9138    2.3268 H   0  0  0  0  0  0  0  0  0  0  0  0
   -1.9529    3.7988    0.6829 H   0  0  0  0  0  0  0  0  0  0  0  0
   -3.0626    3.8977    2.0629 H   0  0  0  0  0  0  0  0  0  0  0  0
   -0.6635    1.3313    0.0020 N   0  0  0  0  0  0  0  0  0  0  0  0
    0.5138    0.8305   -0.6617 C   0  0  2  0  0  0  0  0  0  0  0  0
    0.6912   -0.6212   -0.2310 C   0  0  0  0  0  0  0  0  0  0  0  0
    1.6356   -1.3172   -0.5975 O   0  0  0  0  0  0  0  0  0  0  0  0
    1.7648    1.6459   -0.3151 C   0  0  0  0  0  0  0  0  0  0  0  0
    1.6812    3.0748   -0.7935 C   0  0  0  0  0  0  0  0  0  0  0  0
    1.8383    3.3765   -2.1231 N   0  0  0  0  0  0  0  0  0  0  0  0
    1.4561    4.2094   -0.0501 C   0  0  0  0  0  0  0  0  0  0  0  0
    1.7093    4.6831   -2.1874 C   0  0  0  0  0  0  0  0  0  0  0  0
    1.4774    5.2316   -0.9567 N   0  0  0  0  0  0  0  0  0  0  0  0
   -1.4467    1.6280   -0.5753 H   0  0  0  0  0  0  0  0  0  0  0  0
    0.3036    0.8626   -1.7372 H   0  0  0  0  0  0  0  0  0  0  0  0
    2.6595    1.1672   -0.7358 H   0  0  0  0  0  0  0  0  0  0  0  0
    1.9274    1.6559    0.7708 H   0  0  0  0  0  0  0  0  0  0  0  0
    1.2888    4.3805    1.0036 H   0  0  0  0  0  0  0  0  0  0  0  0
    1.7721    5.2859   -3.0824 H   0  0  0  0  0  0  0  0  0  0  0  0
    1.3449    6.2135   -0.7548 H   0  0  0  0  0  0  0  0  0  0  0  0
   -0.3026   -1.0273    0.6488 N   0  0  0  0  0  0  0  0  0  0  0  0
   -0.3575   -2.3502    1.2281 C   0  0  2  0  0  0  0  0  0  0  0  0
   -0.2167   -3.3637    0.1001 C   0  0  0  0  0  0  0  0  0  0  0  0
   -0.4788   -3.1033   -1.0723 O   0  0  0  0  0  0  0  0  0  0  0  0
   -1.6536   -2.5657    1.9937 C   0  0  0  0  0  0  0  0  0  0  0  0
   -1.0277   -0.3611    0.8981 H   0  0  0  0  0  0  0  0  0  0  0  0
    0.4996   -2.4349    1.9050 H   0  0  0  0  0  0  0  0  0  0  0  0
   -2.5237   -2.4846    1.3319 H   0  0  0  0  0  0  0  0  0  0  0  0
   -1.6813   -3.5580    2.4558 H   0  0  0  0  0  0  0  0  0  0  0  0
   -1.7675   -1.8174    2.7856 H   0  0  0  0  0  0  0  0  0  0  0  0
    0.1948   -4.6058    0.5628 N   0  0  0  0  0  0  0  0  0  0  0  0
    0.3894   -5.7384   -0.3121 C   0  0  0  0  0  0  0  0  0  0  0  0
    0.4076   -4.7263    1.5486 H   0  0  0  0  0  0  0  0  0  0  0  0
   -0.5377   -6.3284   -0.3606 H   0  0  0  0  0  0  0  0  0  0  0  0
    0.6506   -5.3827   -1.3196 H   0  0  0  0  0  0  0  0  0  0  0  0
    1.2038   -6.3668    0.0775 H   0  0  0  0  0  0  0  0  0  0  0  0
 22 24  2  0  0  0  0
 24 26  1  0  0  0  0
 23 25  2  0  0  0  0
 25 26  1  0  0  0  0
 21 22  1  0  0  0  0
 22 23  1  0  0  0  0
  1  3  1  0  0  0  0
  1  7  1  0  0  0  0
  1  2  2  0  0  0  0
 35 36  1  0  0  0  0
 36 44  1  0  0  0  0
 36 37  2  0  0  0  0
  8  9  1  0  0  0  0
  9 17  1  0  0  0  0
  9 10  2  0  0  0  0
 18 19  1  0  0  0  0
 19 34  1  0  0  0  0
 19 20  2  0  0  0  0
 35 38  1  0  0  0  0
  8 11  1  0  0  0  0
 44 45  1  0  0  0  0
 18 21  1  0  0  0  0
 34 35  1  0  0  0  0
  7  8  1  0  0  0  0
 17 18  1  0  0  0  0
 24 31  1  0  0  0  0
 25 32  1  0  0  0  0
  3  4  1  0  0  0  0
  3  5  1  0  0  0  0
  3  6  1  0  0  0  0
 38 41  1  0  0  0  0
 38 42  1  0  0  0  0
 38 43  1  0  0  0  0
 11 14  1  0  0  0  0
 11 15  1  0  0  0  0
 11 16  1  0  0  0  0
 45 47  1  0  0  0  0
 45 48  1  0  0  0  0
 45 49  1  0  0  0  0
 21 29  1  0  0  0  0
 21 30  1  0  0  0  0
 35 40  1  0  0  0  0
  8 13  1  0  0  0  0
 18 28  1  0  0  0  0
 26 33  1  0  0  0  0
 44 46  1  0  0  0  0
  7 12  1  0  0  0  0
 34 39  1  0  0  0  0
 17 27  1  0  0  0  0
M  END
$$$$

  -OEChem-05262214473D

 49 49  0     1  0  0  0  0  0999 V2000
   -1.6183    0.5613    3.8201 C   0  0  0  0  0  0  0  0  0  0  0  0
   -0.6710   -0.0534    3.3444 O   0  0  0  0  0  0  0  0  0  0  0  0
   -2.0502    0.2789    5.2208 C   0  0  0  0  0  0  0  0  0  0  0  0
   -2.8099   -0.5175    5.2742 H   0  0  0  0  0  0  0  0  0  0  0  0
   -1.2190   -0.0687    5.8551 H   0  0  0  0  0  0  0  0  0  0  0  0
   -2.4882    1.1338    5.7604 H   0  0  0  0  0  0  0  0  0  0  0  0
   -2.3680    1.5337    3.1790 N   0  0  0  0  0  0  0  0  0  0  0  0
   -2.1212    1.9597    1.8266 C   0  0  2  0  0  0  0  0  0  0  0  0
   -0.7862    1.3744    1.3854 C   0  0  0  0  0  0  0  0  0  0  0  0
    0.0859    1.0216    2.1767 O   0  0  0  0  0  0  0  0  0  0  0  0
   -2.1124    3.4765    1.7171 C   0  0  0  0  0  0  0  0  0  0  0  0
   -3.1331    1.9695    3.6908 H   0  0  0  0  0  0  0  0  0  0  0  0
   -2.9253    1.5413    1.2115 H   0  0  0  0  0  0  0  0  0  0  0  0
   -1.3133    3.9138    2.3268 H   0  0  0  0  0  0  0  0  0  0  0  0
   -1.9529    3.7988    0.6829 H   0  0  0  0  0  0  0  0  0  0  0  0
   -3.0626    3.8977    2.0629 H   0  0  0  0  0  0  0  0  0  0  0  0
   -0.6635    1.3313    0.0020 N   0  0  0  0  0  0  0  0  0  0  0  0
    0.5138    0.8305   -0.6617 C   0  0  2  0  0  0  0  0  0  0  0  0
    0.6912   -0.6212   -0.2310 C   0  0  0  0  0  0  0  0  0  0  0  0
    1.7474   -1.2351   -0.3668 O   0  0  0  0  0  0  0  0  0  0  0  0
    1.7648    1.6459   -0.3151 C   0  0  0  0  0  0  0  0  0  0  0  0
    1.6812    3.0748   -0.7935 C   0  0  0  0  0  0  0  0  0  0  0  0
    1.8383    3.3765   -2.1231 N   0  0  0  0  0  0  0  0  0  0  0  0
    1.4561    4.2094   -0.0501 C   0  0  0  0  0  0  0  0  0  0  0  0
    1.7093    4.6831   -2.1874 C   0  0  0  0  0  0  0  0  0  0  0  0
    1.4774    5.2316   -0.9567 N   0  0  0  0  0  0  0  0  0  0  0  0
   -1.4467    1.6280   -0.5753 H   0  0  0  0  0  0  0  0  0  0  0  0
    0.3036    0.8626   -1.7372 H   0  0  0  0  0  0  0  0  0  0  0  0
    2.6595    1.1672   -0.7358 H   0  0  0  0  0  0  0  0  0  0  0  0
    1.9274    1.6559    0.7708 H   0  0  0  0  0  0  0  0  0  0  0  0
    1.2888    4.3805    1.0036 H   0  0  0  0  0  0  0  0  0  0  0  0
    1.7721    5.2859   -3.0824 H   0  0  0  0  0  0  0  0  0  0  0  0
    1.3449    6.2135   -0.7548 H   0  0  0  0  0  0  0  0  0  0  0  0
   -0.4538   -1.1294    0.3667 N   0  0  0  0  0  0  0  0  0  0  0  0
   -0.5472   -2.4747    0.8865 C   0  0  2  0  0  0  0  0  0  0  0  0
   -0.0565   -3.4310   -0.1925 C   0  0  0  0  0  0  0  0  0  0  0  0
   -0.0422   -3.1434   -1.3876 O   0  0  0  0  0  0  0  0  0  0  0  0
   -1.9711   -2.8095    1.3027 C   0  0  0  0  0  0  0  0  0  0  0  0
   -1.2669   -0.5255    0.4426 H   0  0  0  0  0  0  0  0  0  0  0  0
    0.1215   -2.5263    1.7526 H   0  0  0  0  0  0  0  0  0  0  0  0
   -2.6557   -2.7630    0.4480 H   0  0  0  0  0  0  0  0  0  0  0  0
   -2.0348   -3.8187    1.7227 H   0  0  0  0  0  0  0  0  0  0  0  0
   -2.3329   -2.1026    2.0572 H   0  0  0  0  0  0  0  0  0  0  0  0
    0.3232   -4.6587    0.3315 N   0  0  0  0  0  0  0  0  0  0  0  0
    0.8129   -5.7399   -0.4914 C   0  0  0  0  0  0  0  0  0  0  0  0
    0.2963   -4.8029    1.3366 H   0  0  0  0  0  0  0  0  0  0  0  0
   -0.0257   -6.3904   -0.7803 H   0  0  0  0  0  0  0  0  0  0  0  0
    1.2852   -5.3276   -1.3953 H   0  0  0  0  0  0  0  0  0  0  0  0
    1.5527   -6.3251    0.0744 H   0  0  0  0  0  0  0  0  0  0  0  0
 22 24  2  0  0  0  0
 24 26  1  0  0  0  0
 23 25  2  0  0  0  0
 25 26  1  0  0  0  0
 21 22  1  0  0  0  0
 22 23  1  0  0  0  0
  1  3  1  0  0  0  0
  1  7  1  0  0  0  0
  1  2  2  0  0  0  0
 35 36  1  0  0  0  0
 36 44  1  0  0  0  0
 36 37  2  0  0  0  0
  8  9  1  0  0  0  0
  9 17  1  0  0  0  0
  9 10  2  0  0  0  0
 18 19  1  0  0  0  0
 19 34  1  0  0  0  0
 19 20  2  0  0  0  0
 35 38  1  0  0  0  0
  8 11  1  0  0  0  0
 44 45  1  0  0  0  0
 18 21  1  0  0  0  0
 34 35  1  0  0  0  0
  7  8  1  0  0  0  0
 17 18  1  0  0  0  0
 24 31  1  0  0  0  0
 25 32  1  0  0  0  0
  3  4  1  0  0  0  0
  3  5  1  0  0  0  0
  3  6  1  0  0  0  0
 38 41  1  0  0  0  0
 38 42  1  0  0  0  0
 38 43  1  0  0  0  0
 11 14  1  0  0  0  0
 11 15  1  0  0  0  0
 11 16  1  0  0  0  0
 45 47  1  0  0  0  0
 45 48  1  0  0  0  0
 45 49  1  0  0  0  0
 21 29  1  0  0  0  0
 21 30  1  0  0  0  0
 35 40  1  0  0  0  0
  8 13  1  0  0  0  0
 18 28  1  0  0  0  0
 26 33  1  0  0  0  0
 44 46  1  0  0  0  0
  7 12  1  0  0  0  0
 34 39  1  0  0  0  0
 17 27  1  0  0  0  0
M  END
$$$$

  -OEChem-05262214473D

 49 49  0     1  0  0  0  0  0999 V2000
   -1.6183    0.5613    3.8201 C   0  0  0  0  0  0  0  0  0  0  0  0
   -0.6710   -0.0534    3.3444 O   0  0  0  0  0  0  0  0  0  0  0  0
   -2.0502    0.2789    5.2208 C   0  0  0  0  0  0  0  0  0  0  0  0
   -2.8099   -0.5175    5.2742 H   0  0  0  0  0  0  0  0  0  0  0  0
   -1.2190   -0.0687    5.8551 H   0  0  0  0  0  0  0  0  0  0  0  0
   -2.4882    1.1338    5.7604 H   0  0  0  0  0  0  0  0  0  0  0  0
   -2.3680    1.5337    3.1790 N   0  0  0  0  0  0  0  0  0  0  0  0
   -2.1212    1.9597    1.8266 C   0  0  2  0  0  0  0  0  0  0  0  0
   -0.7862    1.3744    1.3854 C   0  0  0  0  0  0  0  0  0  0  0  0
    0.0859    1.0216    2.1767 O   0  0  0  0  0  0  0  0  0  0  0  0
   -2.1124    3.4765    1.7171 C   0  0  0  0  0  0  0  0  0  0  0  0
   -3.1331    1.9695    3.6908 H   0  0  0  0  0  0  0  0  0  0  0  0
   -2.9253    1.5413    1.2115 H   0  0  0  0  0  0  0  0  0  0  0  0
   -1.3133    3.9138    2.3268 H   0  0  0  0  0  0  0  0  0  0  0  0
   -1.9529    3.7988    0.6829 H   0  0  0  0  0  0  0  0  0  0  0  0
   -3.0626    3.8977    2.0629 H   0  0  0  0  0  0  0  0  0  0  0  0
   -0.6635    1.3313    0.0020 N   0  0  0  0  0  0  0  0  0  0  0  0
    0.5138    0.8305   -0.6617 C   0  0  2  0  0  0  0  0  0  0  0  0
    0.6912   -0.6212   -0.2310 C   0  0  0  0  0  0  0  0  0  0  0  0
    1.7924   -1.1546   -0.1139 O   0  0  0  0  0  0  0  0  0  0  0  0
    1.7648    1.6459   -0.3151 C   0  0  0  0  0  0  0  0  0  0  0  0
    1.6812    3.0748   -0.7935 C   0  0  0  0  0  0  0  0  0  0  0  0
    1.8383    3.3765   -2.1231 N   0  0  0  0  0  0  0  0  0  0  0  0
    1.4561    4.2094   -0.0501 C   0  0  0  0  0  0  0  0  0  0  0  0
    1.7093    4.6831   -2.1874 C   0  0  0  0  0  0  0  0  0  0  0  0
    1.4774    5.2316   -0.9567 N   0  0  0  0  0  0  0  0  0  0  0  0
   -1.4467    1.6280   -0.5753 H   0  0  0  0  0  0  0  0  0  0  0  0
    0.3036    0.8626   -1.7372 H   0  0  0  0  0  0  0  0  0  0  0  0
    2.6595    1.1672   -0.7358 H   0  0  0  0  0  0  0  0  0  0  0  0
    1.9274    1.6559    0.7708 H   0  0  0  0  0  0  0  0  0  0  0  0
    1.2888    4.3805    1.0036 H   0  0  0  0  0  0  0  0  0  0  0  0
    1.7721    5.2859   -3.0824 H   0  0  0  0  0  0  0  0  0  0  0  0
    1.3449    6.2135   -0.7548 H   0  0  0  0  0  0  0  0  0  0  0  0
   -0.5228   -1.2307    0.0539 N   0  0  0  0  0  0  0  0  0  0  0  0
   -0.6372   -2.5986    0.5060 C   0  0  2  0  0  0  0  0  0  0  0  0
    0.1753   -3.4754   -0.4377 C   0  0  0  0  0  0  0  0  0  0  0  0
    0.4601   -3.1408   -1.5857 O   0  0  0  0  0  0  0  0  0  0  0  0
   -2.0896   -3.0474    0.5497 C   0  0  0  0  0  0  0  0  0  0  0  0
   -1.3737   -0.6880   -0.0612 H   0  0  0  0  0  0  0  0  0  0  0  0
   -0.1995   -2.6377    1.5095 H   0  0  0  0  0  0  0  0  0  0  0  0
   -2.5451   -3.0149   -0.4467 H   0  0  0  0  0  0  0  0  0  0  0  0
   -2.1766   -4.0743    0.9196 H   0  0  0  0  0  0  0  0  0  0  0  0
   -2.6787   -2.3975    1.2058 H   0  0  0  0  0  0  0  0  0  0  0  0
    0.5080   -4.6935    0.1382 N   0  0  0  0  0  0  0  0  0  0  0  0
    1.2663   -5.7049   -0.5604 C   0  0  0  0  0  0  0  0  0  0  0  0
    0.2465   -4.8785    1.1021 H   0  0  0  0  0  0  0  0  0  0  0  0
    0.5767   -6.4002   -1.0615 H   0  0  0  0  0  0  0  0  0  0  0  0
    1.9127   -5.2257   -1.3104 H   0  0  0  0  0  0  0  0  0  0  0  0
    1.8874   -6.2592    0.1586 H   0  0  0  0  0  0  0  0  0  0  0  0
 22 24  2  0  0  0  0
 24 26  1  0  0  0  0
 23 25  2  0  0  0  0
 25 26  1  0  0  0  0
 21 22  1  0  0  0  0
 22 23  1  0  0  0  0
  1  3  1  0  0  0  0
  1  7  1  0  0  0  0
  1  2  2  0  0  0  0
 35 36  1  0  0  0  0
 36 44  1  0  0  0  0
 36 37  2  0  0  0  0
  8  9  1  0  0  0  0
  9 17  1  0  0  0  0
  9 10  2  0  0  0  0
 18 19  1  0  0  0  0
 19 34  1  0  0  0  0
 19 20  2  0  0  0  0
 35 38  1  0  0  0  0
  8 11  1  0  0  0  0
 44 45  1  0  0  0  0
 18 21  1  0  0  0  0
 34 35  1  0  0  0  0
  7  8  1  0  0  0  0
 17 18  1  0  0  0  0
 24 31  1  0  0  0  0
 25 32  1  0  0  0  0
  3  4  1  0  0  0  0
  3  5  1  0  0  0  0
  3  6  1  0  0  0  0
 38 41  1  0  0  0  0
 38 42  1  0  0  0  0
 38 43  1  0  0  0  0
 11 14  1  0  0  0  0
 11 15  1  0  0  0  0
 11 16  1  0  0  0  0
 45 47  1  0  0  0  0
 45 48  1  0  0  0  0
 45 49  1  0  0  0  0
 21 29  1  0  0  0  0
 21 30  1  0  0  0  0
 35 40  1  0  0  0  0
  8 13  1  0  0  0  0
 18 28  1  0  0  0  0
 26 33  1  0  0  0  0
 44 46  1  0  0  0  0
  7 12  1  0  0  0  0
 34 39  1  0  0  0  0
 17 27  1  0  0  0  0
M  END
$$$$

  -OEChem-05262214473D

 49 49  0     1  0  0  0  0  0999 V2000
   -1.6183    0.5613    3.8201 C   0  0  0  0  0  0  0  0  0  0  0  0
   -0.6710   -0.0534    3.3444 O   0  0  0  0  0  0  0  0  0  0  0  0
   -2.0502    0.2789    5.2208 C   0  0  0  0  0  0  0  0  0  0  0  0
   -2.8099   -0.5175    5.2742 H   0  0  0  0  0  0  0  0  0  0  0  0
   -1.2190   -0.0687    5.8551 H   0  0  0  0  0  0  0  0  0  0  0  0
   -2.4882    1.1338    5.7604 H   0  0  0  0  0  0  0  0  0  0  0  0
   -2.3680    1.5337    3.1790 N   0  0  0  0  0  0  0  0  0  0  0  0
   -2.1212    1.9597    1.8266 C   0  0  2  0  0  0  0  0  0  0  0  0
   -0.7862    1.3744    1.3854 C   0  0  0  0  0  0  0  0  0  0  0  0
    0.0859    1.0216    2.1767 O   0  0  0  0  0  0  0  0  0  0  0  0
   -2.1124    3.4765    1.7171 C   0  0  0  0  0  0  0  0  0  0  0  0
   -3.1331    1.9695    3.6908 H   0  0  0  0  0  0  0  0  0  0  0  0
   -2.9253    1.5413    1.2115 H   0  0  0  0  0  0  0  0  0  0  0  0
   -1.3133    3.9138    2.3268 H   0  0  0  0  0  0  0  0  0  0  0  0
   -1.9529    3.7988    0.6829 H   0  0  0  0  0  0  0  0  0  0  0  0
   -3.0626    3.8977    2.0629 H   0  0  0  0  0  0  0  0  0  0  0  0
   -0.6635    1.3313    0.0020 N   0  0  0  0  0  0  0  0  0  0  0  0
    0.5138    0.8305   -0.6617 C   0  0  2  0  0  0  0  0  0  0  0  0
    0.6912   -0.6212   -0.2310 C   0  0  0  0  0  0  0  0  0  0  0  0
    1.7677   -1.0811    0.1438 O   0  0  0  0  0  0  0  0  0  0  0  0
    1.7648    1.6459   -0.3151 C   0  0  0  0  0  0  0  0  0  0  0  0
    1.6812    3.0748   -0.7935 C   0  0  0  0  0  0  0  0  0  0  0  0
    1.8383    3.3765   -2.1231 N   0  0  0  0  0  0  0  0  0  0  0  0
    1.4561    4.2094   -0.0501 C   0  0  0  0  0  0  0  0  0  0  0  0
    1.7093    4.6831   -2.1874 C   0  0  0  0  0  0  0  0  0  0  0  0
    1.4774    5.2316   -0.9567 N   0  0  0  0  0  0  0  0  0  0  0  0
   -1.4467    1.6280   -0.5753 H   0  0  0  0  0  0  0  0  0  0  0  0
    0.3036    0.8626   -1.7372 H   0  0  0  0  0  0  0  0  0  0  0  0
    2.6595    1.1672   -0.7358 H   0  0  0  0  0  0  0  0  0  0  0  0
    1.9274    1.6559    0.7708 H   0  0  0  0  0  0  0  0  0  0  0  0
    1.2888    4.3805    1.0036 H   0  0  0  0  0  0  0  0  0  0  0  0
    1.7721    5.2859   -3.0824 H   0  0  0  0  0  0  0  0  0  0  0  0
    1.3449    6.2135   -0.7548 H   0  0  0  0  0  0  0  0  0  0  0  0
   -0.5050   -1.3241   -0.2684 N   0  0  0  0  0  0  0  0  0  0  0  0
   -0.6213   -2.7134    0.1126 C   0  0  2  0  0  0  0  0  0  0  0  0
    0.4628   -3.4940   -0.6187 C   0  0  0  0  0  0  0  0  0  0  0  0
    0.9940   -3.0956   -1.6533 O   0  0  0  0  0  0  0  0  0  0  0  0
   -2.0011   -3.2631   -0.2140 C   0  0  0  0  0  0  0  0  0  0  0  0
   -1.3408   -0.8377   -0.5791 H   0  0  0  0  0  0  0  0  0  0  0  0
   -0.4414   -2.7614    1.1922 H   0  0  0  0  0  0  0  0  0  0  0  0
   -2.1993   -3.2232   -1.2913 H   0  0  0  0  0  0  0  0  0  0  0  0
   -2.0970   -4.3074    0.1012 H   0  0  0  0  0  0  0  0  0  0  0  0
   -2.7813   -2.6820    0.2893 H   0  0  0  0  0  0  0  0  0  0  0  0
    0.7367   -4.7077   -0.0041 N   0  0  0  0  0  0  0  0  0  0  0  0
    1.7187   -5.6359   -0.5142 C   0  0  0  0  0  0  0  0  0  0  0  0
    0.2618   -4.9482    0.8610 H   0  0  0  0  0  0  0  0  0  0  0  0
    1.2287   -6.3571   -1.1848 H   0  0  0  0  0  0  0  0  0  0  0  0
    2.4905   -5.0839   -1.0706 H   0  0  0  0  0  0  0  0  0  0  0  0
    2.1852   -6.1736    0.3244 H   0  0  0  0  0  0  0  0  0  0  0  0
 22 24  2  0  0  0  0
 24 26  1  0  0  0  0
 23 25  2  0  0  0  0
 25 26  1  0  0  0  0
 21 22  1  0  0  0  0
 22 23  1  0  0  0  0
  1  3  1  0  0  0  0
  1  7  1  0  0  0  0
  1  2  2  0  0  0  0
 35 36  1  0  0  0  0
 36 44  1  0  0  0  0
 36 37  2  0  0  0  0
  8  9  1  0  0  0  0
  9 17  1  0  0  0  0
  9 10  2  0  0  0  0
 18 19  1  0  0  0  0
 19 34  1  0  0  0  0
 19 20  2  0  0  0  0
 35 38  1  0  0  0  0
  8 11  1  0  0  0  0
 44 45  1  0  0  0  0
 18 21  1  0  0  0  0
 34 35  1  0  0  0  0
  7  8  1  0  0  0  0
 17 18  1  0  0  0  0
 24 31  1  0  0  0  0
 25 32  1  0  0  0  0
  3  4  1  0  0  0  0
  3  5  1  0  0  0  0
  3  6  1  0  0  0  0
 38 41  1  0  0  0  0
 38 42  1  0  0  0  0
 38 43  1  0  0  0  0
 11 14  1  0  0  0  0
 11 15  1  0  0  0  0
 11 16  1  0  0  0  0
 45 47  1  0  0  0  0
 45 48  1  0  0  0  0
 45 49  1  0  0  0  0
 21 29  1  0  0  0  0
 21 30  1  0  0  0  0
 35 40  1  0  0  0  0
  8 13  1  0  0  0  0
 18 28  1  0  0  0  0
 26 33  1  0  0  0  0
 44 46  1  0  0  0  0
  7 12  1  0  0  0  0
 34 39  1  0  0  0  0
 17 27  1  0  0  0  0
M  END
$$$$

  -OEChem-05262214473D

 49 49  0     1  0  0  0  0  0999 V2000
   -1.6183    0.5613    3.8201 C   0  0  0  0  0  0  0  0  0  0  0  0
   -0.6710   -0.0534    3.3444 O   0  0  0  0  0  0  0  0  0  0  0  0
   -2.0502    0.2789    5.2208 C   0  0  0  0  0  0  0  0  0  0  0  0
   -2.8099   -0.5175    5.2742 H   0  0  0  0  0  0  0  0  0  0  0  0
   -1.2190   -0.0687    5.8551 H   0  0  0  0  0  0  0  0  0  0  0  0
   -2.4882    1.1338    5.7604 H   0  0  0  0  0  0  0  0  0  0  0  0
   -2.3680    1.5337    3.1790 N   0  0  0  0  0  0  0  0  0  0  0  0
   -2.1212    1.9597    1.8266 C   0  0  2  0  0  0  0  0  0  0  0  0
   -0.7862    1.3744    1.3854 C   0  0  0  0  0  0  0  0  0  0  0  0
    0.0859    1.0216    2.1767 O   0  0  0  0  0  0  0  0  0  0  0  0
   -2.1124    3.4765    1.7171 C   0  0  0  0  0  0  0  0  0  0  0  0
   -3.1331    1.9695    3.6908 H   0  0  0  0  0  0  0  0  0  0  0  0
   -2.9253    1.5413    1.2115 H   0  0  0  0  0  0  0  0  0  0  0  0
   -1.3133    3.9138    2.3268 H   0  0  0  0  0  0  0  0  0  0  0  0
   -1.9529    3.7988    0.6829 H   0  0  0  0  0  0  0  0  0  0  0  0
   -3.0626    3.8977    2.0629 H   0  0  0  0  0  0  0  0  0  0  0  0
   -0.6635    1.3313    0.0020 N   0  0  0  0  0  0  0  0  0  0  0  0
    0.5138    0.8305   -0.6617 C   0  0  2  0  0  0  0  0  0  0  0  0
    0.6912   -0.6212   -0.2310 C   0  0  0  0  0  0  0  0  0  0  0  0
    1.6749   -1.0197    0.3889 O   0  0  0  0  0  0  0  0  0  0  0  0
    1.7648    1.6459   -0.3151 C   0  0  0  0  0  0  0  0  0  0  0  0
    1.6812    3.0748   -0.7935 C   0  0  0  0  0  0  0  0  0  0  0  0
    1.8383    3.3765   -2.1231 N   0  0  0  0  0  0  0  0  0  0  0  0
    1.4561    4.2094   -0.0501 C   0  0  0  0  0  0  0  0  0  0  0  0
    1.7093    4.6831   -2.1874 C   0  0  0  0  0  0  0  0  0  0  0  0
    1.4774    5.2316   -0.9567 N   0  0  0  0  0  0  0  0  0  0  0  0
   -1.4467    1.6280   -0.5753 H   0  0  0  0  0  0  0  0  0  0  0  0
    0.3036    0.8626   -1.7372 H   0  0  0  0  0  0  0  0  0  0  0  0
    2.6595    1.1672   -0.7358 H   0  0  0  0  0  0  0  0  0  0  0  0
    1.9274    1.6559    0.7708 H   0  0  0  0  0  0  0  0  0  0  0  0
    1.2888    4.3805    1.0036 H   0  0  0  0  0  0  0  0  0  0  0  0
    1.7721    5.2859   -3.0824 H   0  0  0  0  0  0  0  0  0  0  0  0
    1.3449    6.2135   -0.7548 H   0  0  0  0  0  0  0  0  0  0  0  0
   -0.4016   -1.4034   -0.5780 N   0  0  0  0  0  0  0  0  0  0  0  0
   -0.5006   -2.8112   -0.2669 C   0  0  2  0  0  0  0  0  0  0  0  0
    0.7865   -3.4854   -0.7233 C   0  0  0  0  0  0  0  0  0  0  0  0
    1.5230   -3.0109   -1.5855 O   0  0  0  0  0  0  0  0  0  0  0  0
   -1.7116   -3.4421   -0.9364 C   0  0  0  0  0  0  0  0  0  0  0  0
   -1.1705   -0.9642   -1.0758 H   0  0  0  0  0  0  0  0  0  0  0  0
   -0.5879   -2.8890    0.8223 H   0  0  0  0  0  0  0  0  0  0  0  0
   -1.6420   -3.3737   -2.0282 H   0  0  0  0  0  0  0  0  0  0  0  0
   -1.8013   -4.5020   -0.6767 H   0  0  0  0  0  0  0  0  0  0  0  0
   -2.6338   -2.9367   -0.6299 H   0  0  0  0  0  0  0  0  0  0  0  0
    0.9938   -4.7005   -0.0855 N   0  0  0  0  0  0  0  0  0  0  0  0
    2.1392   -5.5376   -0.3560 C   0  0  0  0  0  0  0  0  0  0  0  0
    0.3410   -5.0071    0.6298 H   0  0  0  0  0  0  0  0  0  0  0  0
    1.8857   -6.2641   -1.1421 H   0  0  0  0  0  0  0  0  0  0  0  0
    2.9792   -4.9120   -0.6923 H   0  0  0  0  0  0  0  0  0  0  0  0
    2.4257   -6.0742    0.5605 H   0  0  0  0  0  0  0  0  0  0  0  0
 22 24  2  0  0  0  0
 24 26  1  0  0  0  0
 23 25  2  0  0  0  0
 25 26  1  0  0  0  0
 21 22  1  0  0  0  0
 22 23  1  0  0  0  0
  1  3  1  0  0  0  0
  1  7  1  0  0  0  0
  1  2  2  0  0  0  0
 35 36  1  0  0  0  0
 36 44  1  0  0  0  0
 36 37  2  0  0  0  0
  8  9  1  0  0  0  0
  9 17  1  0  0  0  0
  9 10  2  0  0  0  0
 18 19  1  0  0  0  0
 19 34  1  0  0  0  0
 19 20  2  0  0  0  0
 35 38  1  0  0  0  0
  8 11  1  0  0  0  0
 44 45  1  0  0  0  0
 18 21  1  0  0  0  0
 34 35  1  0  0  0  0
  7  8  1  0  0  0  0
 17 18  1  0  0  0  0
 24 31  1  0  0  0  0
 25 32  1  0  0  0  0
  3  4  1  0  0  0  0
  3  5  1  0  0  0  0
  3  6  1  0  0  0  0
 38 41  1  0  0  0  0
 38 42  1  0  0  0  0
 38 43  1  0  0  0  0
 11 14  1  0  0  0  0
 11 15  1  0  0  0  0
 11 16  1  0  0  0  0
 45 47  1  0  0  0  0
 45 48  1  0  0  0  0
 45 49  1  0  0  0  0
 21 29  1  0  0  0  0
 21 30  1  0  0  0  0
 35 40  1  0  0  0  0
  8 13  1  0  0  0  0
 18 28  1  0  0  0  0
 26 33  1  0  0  0  0
 44 46  1  0  0  0  0
  7 12  1  0  0  0  0
 34 39  1  0  0  0  0
 17 27  1  0  0  0  0
M  END
$$$$

  -OEChem-05262214473D

 49 49  0     1  0  0  0  0  0999 V2000
   -1.6183    0.5613    3.8201 C   0  0  0  0  0  0  0  0  0  0  0  0
   -0.6710   -0.0534    3.3444 O   0  0  0  0  0  0  0  0  0  0  0  0
   -2.0502    0.2789    5.2208 C   0  0  0  0  0  0  0  0  0  0  0  0
   -2.8099   -0.5175    5.2742 H   0  0  0  0  0  0  0  0  0  0  0  0
   -1.2190   -0.0687    5.8551 H   0  0  0  0  0  0  0  0  0  0  0  0
   -2.4882    1.1338    5.7604 H   0  0  0  0  0  0  0  0  0  0  0  0
   -2.3680    1.5337    3.1790 N   0  0  0  0  0  0  0  0  0  0  0  0
   -2.1212    1.9597    1.8266 C   0  0  2  0  0  0  0  0  0  0  0  0
   -0.7862    1.3744    1.3854 C   0  0  0  0  0  0  0  0  0  0  0  0
    0.0859    1.0216    2.1767 O   0  0  0  0  0  0  0  0  0  0  0  0
   -2.1124    3.4765    1.7171 C   0  0  0  0  0  0  0  0  0  0  0  0
   -3.1331    1.9695    3.6908 H   0  0  0  0  0  0  0  0  0  0  0  0
   -2.9253    1.5413    1.2115 H   0  0  0  0  0  0  0  0  0  0  0  0
   -1.3133    3.9138    2.3268 H   0  0  0  0  0  0  0  0  0  0  0  0
   -1.9529    3.7988    0.6829 H   0  0  0  0  0  0  0  0  0  0  0  0
   -3.0626    3.8977    2.0629 H   0  0  0  0  0  0  0  0  0  0  0  0
   -0.6635    1.3313    0.0020 N   0  0  0  0  0  0  0  0  0  0  0  0
    0.5138    0.8305   -0.6617 C   0  0  2  0  0  0  0  0  0  0  0  0
    0.6912   -0.6212   -0.2310 C   0  0  0  0  0  0  0  0  0  0  0  0
    1.5204   -0.9746    0.6047 O   0  0  0  0  0  0  0  0  0  0  0  0
    1.7648    1.6459   -0.3151 C   0  0  0  0  0  0  0  0  0  0  0  0
    1.6812    3.0748   -0.7935 C   0  0  0  0  0  0  0  0  0  0  0  0
    1.8383    3.3765   -2.1231 N   0  0  0  0  0  0  0  0  0  0  0  0
    1.4561    4.2094   -0.0501 C   0  0  0  0  0  0  0  0  0  0  0  0
    1.7093    4.6831   -2.1874 C   0  0  0  0  0  0  0  0  0  0  0  0
    1.4774    5.2316   -0.9567 N   0  0  0  0  0  0  0  0  0  0  0  0
   -1.4467    1.6280   -0.5753 H   0  0  0  0  0  0  0  0  0  0  0  0
    0.3036    0.8626   -1.7372 H   0  0  0  0  0  0  0  0  0  0  0  0
    2.6595    1.1672   -0.7358 H   0  0  0  0  0  0  0  0  0  0  0  0
    1.9274    1.6559    0.7708 H   0  0  0  0  0  0  0  0  0  0  0  0
    1.2888    4.3805    1.0036 H   0  0  0  0  0  0  0  0  0  0  0  0
    1.7721    5.2859   -3.0824 H   0  0  0  0  0  0  0  0  0  0  0  0
    1.3449    6.2135   -0.7548 H   0  0  0  0  0  0  0  0  0  0  0  0
   -0.2196   -1.4630   -0.8541 N   0  0  0  0  0  0  0  0  0  0  0  0
   -0.2833   -2.8855   -0.6067 C   0  0  2  0  0  0  0  0  0  0  0  0
    1.1243   -3.4504   -0.7443 C   0  0  0  0  0  0  0  0  0  0  0  0
    2.0111   -2.8924   -1.3872 O   0  0  0  0  0  0  0  0  0  0  0  0
   -1.2409   -3.5720   -1.5682 C   0  0  0  0  0  0  0  0  0  0  0  0
   -0.8742   -1.0590   -1.5174 H   0  0  0  0  0  0  0  0  0  0  0  0
   -0.6289   -3.0119    0.4251 H   0  0  0  0  0  0  0  0  0  0  0  0
   -0.9110   -3.4561   -2.6071 H   0  0  0  0  0  0  0  0  0  0  0  0
   -1.3098   -4.6450   -1.3611 H   0  0  0  0  0  0  0  0  0  0  0  0
   -2.2461   -3.1442   -1.4890 H   0  0  0  0  0  0  0  0  0  0  0  0
    1.2616   -4.6723   -0.1007 N   0  0  0  0  0  0  0  0  0  0  0  0
    2.4993   -5.4166   -0.0966 C   0  0  0  0  0  0  0  0  0  0  0  0
    0.4789   -5.0512    0.4242 H   0  0  0  0  0  0  0  0  0  0  0  0
    2.5029   -6.1275   -0.9360 H   0  0  0  0  0  0  0  0  0  0  0  0
    3.3454   -4.7215   -0.2013 H   0  0  0  0  0  0  0  0  0  0  0  0
    2.5925   -5.9677    0.8508 H   0  0  0  0  0  0  0  0  0  0  0  0
 22 24  2  0  0  0  0
 24 26  1  0  0  0  0
 23 25  2  0  0  0  0
 25 26  1  0  0  0  0
 21 22  1  0  0  0  0
 22 23  1  0  0  0  0
  1  3  1  0  0  0  0
  1  7  1  0  0  0  0
  1  2  2  0  0  0  0
 35 36  1  0  0  0  0
 36 44  1  0  0  0  0
 36 37  2  0  0  0  0
  8  9  1  0  0  0  0
  9 17  1  0  0  0  0
  9 10  2  0  0  0  0
 18 19  1  0  0  0  0
 19 34  1  0  0  0  0
 19 20  2  0  0  0  0
 35 38  1  0  0  0  0
  8 11  1  0  0  0  0
 44 45  1  0  0  0  0
 18 21  1  0  0  0  0
 34 35  1  0  0  0  0
  7  8  1  0  0  0  0
 17 18  1  0  0  0  0
 24 31  1  0  0  0  0
 25 32  1  0  0  0  0
  3  4  1  0  0  0  0
  3  5  1  0  0  0  0
  3  6  1  0  0  0  0
 38 41  1  0  0  0  0
 38 42  1  0  0  0  0
 38 43  1  0  0  0  0
 11 14  1  0  0  0  0
 11 15  1  0  0  0  0
 11 16  1  0  0  0  0
 45 47  1  0  0  0  0
 45 48  1  0  0  0  0
 45 49  1  0  0  0  0
 21 29  1  0  0  0  0
 21 30  1  0  0  0  0
 35 40  1  0  0  0  0
  8 13  1  0  0  0  0
 18 28  1  0  0  0  0
 26 33  1  0  0  0  0
 44 46  1  0  0  0  0
  7 12  1  0  0  0  0
 34 39  1  0  0  0  0
 17 27  1  0  0  0  0
M  END
$$$$

  -OEChem-05262214473D

 49 49  0     1  0  0  0  0  0999 V2000
   -1.6183    0.5613    3.8201 C   0  0  0  0  0  0  0  0  0  0  0  0
   -0.6710   -0.0534    3.3444 O   0  0  0  0  0  0  0  0  0  0  0  0
   -2.0502    0.2789    5.2208 C   0  0  0  0  0  0  0  0  0  0  0  0
   -2.8099   -0.5175    5.2742 H   0  0  0  0  0  0  0  0  0  0  0  0
   -1.2190   -0.0687    5.8551 H   0  0  0  0  0  0  0  0  0  0  0  0
   -2.4882    1.1338    5.7604 H   0  0  0  0  0  0  0  0  0  0  0  0
   -2.3680    1.5337    3.1790 N   0  0  0  0  0  0  0  0  0  0  0  0
   -2.1212    1.9597    1.8266 C   0  0  2  0  0  0  0  0  0  0  0  0
   -0.7862    1.3744    1.3854 C   0  0  0  0  0  0  0  0  0  0  0  0
    0.0859    1.0216    2.1767 O   0  0  0  0  0  0  0  0  0  0  0  0
   -2.1124    3.4765    1.7171 C   0  0  0  0  0  0  0  0  0  0  0  0
   -3.1331    1.9695    3.6908 H   0  0  0  0  0  0  0  0  0  0  0  0
   -2.9253    1.5413    1.2115 H   0  0  0  0  0  0  0  0  0  0  0  0
   -1.3133    3.9138    2.3268 H   0  0  0  0  0  0  0  0  0  0  0  0
   -1.9529    3.7988    0.6829 H   0  0  0  0  0  0  0  0  0  0  0  0
   -3.0626    3.8977    2.0629 H   0  0  0  0  0  0  0  0  0  0  0  0
   -0.6635    1.3313    0.0020 N   0  0  0  0  0  0  0  0  0  0  0  0
    0.5138    0.8305   -0.6617 C   0  0  2  0  0  0  0  0  0  0  0  0
    0.6912   -0.6212   -0.2310 C   0  0  0  0  0  0  0  0  0  0  0  0
    1.3147   -0.9488    0.7764 O   0  0  0  0  0  0  0  0  0  0  0  0
    1.7648    1.6459   -0.3151 C   0  0  0  0  0  0  0  0  0  0  0  0
    1.6812    3.0748   -0.7935 C   0  0  0  0  0  0  0  0  0  0  0  0
    1.8383    3.3765   -2.1231 N   0  0  0  0  0  0  0  0  0  0  0  0
    1.4561    4.2094   -0.0501 C   0  0  0  0  0  0  0  0  0  0  0  0
    1.7093    4.6831   -2.1874 C   0  0  0  0  0  0  0  0  0  0  0  0
    1.4774    5.2316   -0.9567 N   0  0  0  0  0  0  0  0  0  0  0  0
   -1.4467    1.6280   -0.5753 H   0  0  0  0  0  0  0  0  0  0  0  0
    0.3036    0.8626   -1.7372 H   0  0  0  0  0  0  0  0  0  0  0  0
    2.6595    1.1672   -0.7358 H   0  0  0  0  0  0  0  0  0  0  0  0
    1.9274    1.6559    0.7708 H   0  0  0  0  0  0  0  0  0  0  0  0
    1.2888    4.3805    1.0036 H   0  0  0  0  0  0  0  0  0  0  0  0
    1.7721    5.2859   -3.0824 H   0  0  0  0  0  0  0  0  0  0  0  0
    1.3449    6.2135   -0.7548 H   0  0  0  0  0  0  0  0  0  0  0  0
    0.0286   -1.4990   -1.0777 N   0  0  0  0  0  0  0  0  0  0  0  0
    0.0157   -2.9311   -0.8836 C   0  0  2  0  0  0  0  0  0  0  0  0
    1.4532   -3.3912   -0.6802 C   0  0  0  0  0  0  0  0  0  0  0  0
    2.4250   -2.7482   -1.0718 O   0  0  0  0  0  0  0  0  0  0  0  0
   -0.6210   -3.6441   -2.0664 C   0  0  0  0  0  0  0  0  0  0  0  0
   -0.4724   -1.1156   -1.8738 H   0  0  0  0  0  0  0  0  0  0  0  0
   -0.5617   -3.1216    0.0276 H   0  0  0  0  0  0  0  0  0  0  0  0
   -0.0563   -3.4649   -2.9886 H   0  0  0  0  0  0  0  0  0  0  0  0
   -0.6559   -4.7266   -1.9053 H   0  0  0  0  0  0  0  0  0  0  0  0
   -1.6447   -3.2904   -2.2296 H   0  0  0  0  0  0  0  0  0  0  0  0
    1.5219   -4.6249   -0.0484 N   0  0  0  0  0  0  0  0  0  0  0  0
    2.7743   -5.2813    0.2463 C   0  0  0  0  0  0  0  0  0  0  0  0
    0.6659   -5.0776    0.2583 H   0  0  0  0  0  0  0  0  0  0  0  0
    3.0384   -5.9567   -0.5808 H   0  0  0  0  0  0  0  0  0  0  0  0
    3.5642   -4.5256    0.3689 H   0  0  0  0  0  0  0  0  0  0  0  0
    2.6743   -5.8613    1.1756 H   0  0  0  0  0  0  0  0  0  0  0  0
 22 24  2  0  0  0  0
 24 26  1  0  0  0  0
 23 25  2  0  0  0  0
 25 26  1  0  0  0  0
 21 22  1  0  0  0  0
 22 23  1  0  0  0  0
  1  3  1  0  0  0  0
  1  7  1  0  0  0  0
  1  2  2  0  0  0  0
 35 36  1  0  0  0  0
 36 44  1  0  0  0  0
 36 37  2  0  0  0  0
  8  9  1  0  0  0  0
  9 17  1  0  0  0  0
  9 10  2  0  0  0  0
 18 19  1  0  0  0  0
 19 34  1  0  0  0  0
 19 20  2  0  0  0  0
 35 38  1  0  0  0  0
  8 11  1  0  0  0  0
 44 45  1  0  0  0  0
 18 21  1  0  0  0  0
 34 35  1  0  0  0  0
  7  8  1  0  0  0  0
 17 18  1  0  0  0  0
 24 31  1  0  0  0  0
 25 32  1  0  0  0  0
  3  4  1  0  0  0  0
  3  5  1  0  0  0  0
  3  6  1  0  0  0  0
 38 41  1  0  0  0  0
 38 42  1  0  0  0  0
 38 43  1  0  0  0  0
 11 14  1  0  0  0  0
 11 15  1  0  0  0  0
 11 16  1  0  0  0  0
 45 47  1  0  0  0  0
 45 48  1  0  0  0  0
 45 49  1  0  0  0  0
 21 29  1  0  0  0  0
 21 30  1  0  0  0  0
 35 40  1  0  0  0  0
  8 13  1  0  0  0  0
 18 28  1  0  0  0  0
 26 33  1  0  0  0  0
 44 46  1  0  0  0  0
  7 12  1  0  0  0  0
 34 39  1  0  0  0  0
 17 27  1  0  0  0  0
M  END
$$$$

  -OEChem-05262214473D

 49 49  0     1  0  0  0  0  0999 V2000
   -1.6183    0.5613    3.8201 C   0  0  0  0  0  0  0  0  0  0  0  0
   -0.6710   -0.0534    3.3444 O   0  0  0  0  0  0  0  0  0  0  0  0
   -2.0502    0.2789    5.2208 C   0  0  0  0  0  0  0  0  0  0  0  0
   -2.8099   -0.5175    5.2742 H   0  0  0  0  0  0  0  0  0  0  0  0
   -1.2190   -0.0687    5.8551 H   0  0  0  0  0  0  0  0  0  0  0  0
   -2.4882    1.1338    5.7604 H   0  0  0  0  0  0  0  0  0  0  0  0
   -2.3680    1.5337    3.1790 N   0  0  0  0  0  0  0  0  0  0  0  0
   -2.1212    1.9597    1.8266 C   0  0  2  0  0  0  0  0  0  0  0  0
   -0.7862    1.3744    1.3854 C   0  0  0  0  0  0  0  0  0  0  0  0
    0.0859    1.0216    2.1767 O   0  0  0  0  0  0  0  0  0  0  0  0
   -2.1124    3.4765    1.7171 C   0  0  0  0  0  0  0  0  0  0  0  0
   -3.1331    1.9695    3.6908 H   0  0  0  0  0  0  0  0  0  0  0  0
   -2.9253    1.5413    1.2115 H   0  0  0  0  0  0  0  0  0  0  0  0
   -1.3133    3.9138    2.3268 H   0  0  0  0  0  0  0  0  0  0  0  0
   -1.9529    3.7988    0.6829 H   0  0  0  0  0  0  0  0  0  0  0  0
   -3.0626    3.8977    2.0629 H   0  0  0  0  0  0  0  0  0  0  0  0
   -0.6635    1.3313    0.0020 N   0  0  0  0  0  0  0  0  0  0  0  0
    0.5138    0.8305   -0.6617 C   0  0  2  0  0  0  0  0  0  0  0  0
    0.6912   -0.6212   -0.2310 C   0  0  0  0  0  0  0  0  0  0  0  0
    1.0718   -0.9441    0.8923 O   0  0  0  0  0  0  0  0  0  0  0  0
    1.7648    1.6459   -0.3151 C   0  0  0  0  0  0  0  0  0  0  0  0
    1.6812    3.0748   -0.7935 C   0  0  0  0  0  0  0  0  0  0  0  0
    1.8383    3.3765   -2.1231 N   0  0  0  0  0  0  0  0  0  0  0  0
    1.4561    4.2094   -0.0501 C   0  0  0  0  0  0  0  0  0  0  0  0
    1.7093    4.6831   -2.1874 C   0  0  0  0  0  0  0  0  0  0  0  0
    1.4774    5.2316   -0.9567 N   0  0  0  0  0  0  0  0  0  0  0  0
   -1.4467    1.6280   -0.5753 H   0  0  0  0  0  0  0  0  0  0  0  0
    0.3036    0.8626   -1.7372 H   0  0  0  0  0  0  0  0  0  0  0  0
    2.6595    1.1672   -0.7358 H   0  0  0  0  0  0  0  0  0  0  0  0
    1.9274    1.6559    0.7708 H   0  0  0  0  0  0  0  0  0  0  0  0
    1.2888    4.3805    1.0036 H   0  0  0  0  0  0  0  0  0  0  0  0
    1.7721    5.2859   -3.0824 H   0  0  0  0  0  0  0  0  0  0  0  0
    1.3449    6.2135   -0.7548 H   0  0  0  0  0  0  0  0  0  0  0  0
    0.3261   -1.5089   -1.2335 N   0  0  0  0  0  0  0  0  0  0  0  0
    0.3761   -2.9450   -1.0788 C   0  0  2  0  0  0  0  0  0  0  0  0
    1.7508   -3.3118   -0.5355 C   0  0  0  0  0  0  0  0  0  0  0  0
    2.7366   -2.5882   -0.6607 O   0  0  0  0  0  0  0  0  0  0  0  0
    0.1058   -3.6533   -2.3971 C   0  0  0  0  0  0  0  0  0  0  0  0
    0.0078   -1.1302   -2.1207 H   0  0  0  0  0  0  0  0  0  0  0  0
   -0.3907   -3.2107   -0.3430 H   0  0  0  0  0  0  0  0  0  0  0  0
    0.8640   -3.3993   -3.1468 H   0  0  0  0  0  0  0  0  0  0  0  0
    0.1159   -4.7411   -2.2723 H   0  0  0  0  0  0  0  0  0  0  0  0
   -0.8707   -3.3654   -2.8012 H   0  0  0  0  0  0  0  0  0  0  0  0
    1.7571   -4.5618    0.0676 N   0  0  0  0  0  0  0  0  0  0  0  0
    2.9455   -5.1407    0.6494 C   0  0  0  0  0  0  0  0  0  0  0  0
    0.8894   -5.0844    0.1433 H   0  0  0  0  0  0  0  0  0  0  0  0
    3.4556   -5.7632   -0.1005 H   0  0  0  0  0  0  0  0  0  0  0  0
    3.6207   -4.3375    0.9796 H   0  0  0  0  0  0  0  0  0  0  0  0
    2.6655   -5.7624    1.5126 H   0  0  0  0  0  0  0  0  0  0  0  0
 22 24  2  0  0  0  0
 24 26  1  0  0  0  0
 23 25  2  0  0  0  0
 25 26  1  0  0  0  0
 21 22  1  0  0  0  0
 22 23  1  0  0  0  0
  1  3  1  0  0  0  0
  1  7  1  0  0  0  0
  1  2  2  0  0  0  0
 35 36  1  0  0  0  0
 36 44  1  0  0  0  0
 36 37  2  0  0  0  0
  8  9  1  0  0  0  0
  9 17  1  0  0  0  0
  9 10  2  0  0  0  0
 18 19  1  0  0  0  0
 19 34  1  0  0  0  0
 19 20  2  0  0  0  0
 35 38  1  0  0  0  0
  8 11  1  0  0  0  0
 44 45  1  0  0  0  0
 18 21  1  0  0  0  0
 34 35  1  0  0  0  0
  7  8  1  0  0  0  0
 17 18  1  0  0  0  0
 24 31  1  0  0  0  0
 25 32  1  0  0  0  0
  3  4  1  0  0  0  0
  3  5  1  0  0  0  0
  3  6  1  0  0  0  0
 38 41  1  0  0  0  0
 38 42  1  0  0  0  0
 38 43  1  0  0  0  0
 11 14  1  0  0  0  0
 11 15  1  0  0  0  0
 11 16  1  0  0  0  0
 45 47  1  0  0  0  0
 45 48  1  0  0  0  0
 45 49  1  0  0  0  0
 21 29  1  0  0  0  0
 21 30  1  0  0  0  0
 35 40  1  0  0  0  0
  8 13  1  0  0  0  0
 18 28  1  0  0  0  0
 26 33  1  0  0  0  0
 44 46  1  0  0  0  0
  7 12  1  0  0  0  0
 34 39  1  0  0  0  0
 17 27  1  0  0  0  0
M  END
$$$$

  -OEChem-05262214473D

 49 49  0     1  0  0  0  0  0999 V2000
   -1.6183    0.5613    3.8201 C   0  0  0  0  0  0  0  0  0  0  0  0
   -0.6710   -0.0534    3.3444 O   0  0  0  0  0  0  0  0  0  0  0  0
   -2.0502    0.2789    5.2208 C   0  0  0  0  0  0  0  0  0  0  0  0
   -2.8099   -0.5175    5.2742 H   0  0  0  0  0  0  0  0  0  0  0  0
   -1.2190   -0.0687    5.8551 H   0  0  0  0  0  0  0  0  0  0  0  0
   -2.4882    1.1338    5.7604 H   0  0  0  0  0  0  0  0  0  0  0  0
   -2.3680    1.5337    3.1790 N   0  0  0  0  0  0  0  0  0  0  0  0
   -2.1212    1.9597    1.8266 C   0  0  2  0  0  0  0  0  0  0  0  0
   -0.7862    1.3744    1.3854 C   0  0  0  0  0  0  0  0  0  0  0  0
    0.0859    1.0216    2.1767 O   0  0  0  0  0  0  0  0  0  0  0  0
   -2.1124    3.4765    1.7171 C   0  0  0  0  0  0  0  0  0  0  0  0
   -3.1331    1.9695    3.6908 H   0  0  0  0  0  0  0  0  0  0  0  0
   -2.9253    1.5413    1.2115 H   0  0  0  0  0  0  0  0  0  0  0  0
   -1.3133    3.9138    2.3268 H   0  0  0  0  0  0  0  0  0  0  0  0
   -1.9529    3.7988    0.6829 H   0  0  0  0  0  0  0  0  0  0  0  0
   -3.0626    3.8977    2.0629 H   0  0  0  0  0  0  0  0  0  0  0  0
   -0.6635    1.3313    0.0020 N   0  0  0  0  0  0  0  0  0  0  0  0
    0.5138    0.8305   -0.6617 C   0  0  2  0  0  0  0  0  0  0  0  0
    0.6912   -0.6212   -0.2310 C   0  0  0  0  0  0  0  0  0  0  0  0
    0.8083   -0.9608    0.9445 O   0  0  0  0  0  0  0  0  0  0  0  0
    1.7648    1.6459   -0.3151 C   0  0  0  0  0  0  0  0  0  0  0  0
    1.6812    3.0748   -0.7935 C   0  0  0  0  0  0  0  0  0  0  0  0
    1.8383    3.3765   -2.1231 N   0  0  0  0  0  0  0  0  0  0  0  0
    1.4561    4.2094   -0.0501 C   0  0  0  0  0  0  0  0  0  0  0  0
    1.7093    4.6831   -2.1874 C   0  0  0  0  0  0  0  0  0  0  0  0
    1.4774    5.2316   -0.9567 N   0  0  0  0  0  0  0  0  0  0  0  0
   -1.4467    1.6280   -0.5753 H   0  0  0  0  0  0  0  0  0  0  0  0
    0.3036    0.8626   -1.7372 H   0  0  0  0  0  0  0  0  0  0  0  0
    2.6595    1.1672   -0.7358 H   0  0  0  0  0  0  0  0  0  0  0  0
    1.9274    1.6559    0.7708 H   0  0  0  0  0  0  0  0  0  0  0  0
    1.2888    4.3805    1.0036 H   0  0  0  0  0  0  0  0  0  0  0  0
    1.7721    5.2859   -3.0824 H   0  0  0  0  0  0  0  0  0  0  0  0
    1.3449    6.2135   -0.7548 H   0  0  0  0  0  0  0  0  0  0  0  0
    0.6526   -1.4920   -1.3111 N   0  0  0  0  0  0  0  0  0  0  0  0
    0.7734   -2.9261   -1.1789 C   0  0  2  0  0  0  0  0  0  0  0  0
    1.9968   -3.2178   -0.3200 C   0  0  0  0  0  0  0  0  0  0  0  0
    2.9245   -2.4232   -0.1821 O   0  0  0  0  0  0  0  0  0  0  0  0
    0.8901   -3.5992   -2.5376 C   0  0  0  0  0  0  0  0  0  0  0  0
    0.5335   -1.1017   -2.2413 H   0  0  0  0  0  0  0  0  0  0  0  0
   -0.1278   -3.2731   -0.6616 H   0  0  0  0  0  0  0  0  0  0  0  0
    1.7872   -3.2640   -3.0708 H   0  0  0  0  0  0  0  0  0  0  0  0
    0.9528   -4.6877   -2.4370 H   0  0  0  0  0  0  0  0  0  0  0  0
    0.0234   -3.3640   -3.1647 H   0  0  0  0  0  0  0  0  0  0  0  0
    1.9510   -4.4870    0.2396 N   0  0  0  0  0  0  0  0  0  0  0  0
    3.0013   -5.0046    1.0852 C   0  0  0  0  0  0  0  0  0  0  0  0
    1.1341   -5.0712    0.0872 H   0  0  0  0  0  0  0  0  0  0  0  0
    3.7261   -5.5603    0.4720 H   0  0  0  0  0  0  0  0  0  0  0  0
    3.5110   -4.1701    1.5890 H   0  0  0  0  0  0  0  0  0  0  0  0
    2.5668   -5.6776    1.8390 H   0  0  0  0  0  0  0  0  0  0  0  0
 22 24  2  0  0  0  0
 24 26  1  0  0  0  0
 23 25  2  0  0  0  0
 25 26  1  0  0  0  0
 21 22  1  0  0  0  0
 22 23  1  0  0  0  0
  1  3  1  0  0  0  0
  1  7  1  0  0  0  0
  1  2  2  0  0  0  0
 35 36  1  0  0  0  0
 36 44  1  0  0  0  0
 36 37  2  0  0  0  0
  8  9  1  0  0  0  0
  9 17  1  0  0  0  0
  9 10  2  0  0  0  0
 18 19  1  0  0  0  0
 19 34  1  0  0  0  0
 19 20  2  0  0  0  0
 35 38  1  0  0  0  0
  8 11  1  0  0  0  0
 44 45  1  0  0  0  0
 18 21  1  0  0  0  0
 34 35  1  0  0  0  0
  7  8  1  0  0  0  0
 17 18  1  0  0  0  0
 24 31  1  0  0  0  0
 25 32  1  0  0  0  0
  3  4  1  0  0  0  0
  3  5  1  0  0  0  0
  3  6  1  0  0  0  0
 38 41  1  0  0  0  0
 38 42  1  0  0  0  0
 38 43  1  0  0  0  0
 11 14  1  0  0  0  0
 11 15  1  0  0  0  0
 11 16  1  0  0  0  0
 45 47  1  0  0  0  0
 45 48  1  0  0  0  0
 45 49  1  0  0  0  0
 21 29  1  0  0  0  0
 21 30  1  0  0  0  0
 35 40  1  0  0  0  0
  8 13  1  0  0  0  0
 18 28  1  0  0  0  0
 26 33  1  0  0  0  0
 44 46  1  0  0  0  0
  7 12  1  0  0  0  0
 34 39  1  0  0  0  0
 17 27  1  0  0  0  0
M  END
$$$$

  -OEChem-05262214473D

 49 49  0     1  0  0  0  0  0999 V2000
   -1.6183    0.5613    3.8201 C   0  0  0  0  0  0  0  0  0  0  0  0
   -0.6710   -0.0534    3.3444 O   0  0  0  0  0  0  0  0  0  0  0  0
   -2.0502    0.2789    5.2208 C   0  0  0  0  0  0  0  0  0  0  0  0
   -2.8099   -0.5175    5.2742 H   0  0  0  0  0  0  0  0  0  0  0  0
   -1.2190   -0.0687    5.8551 H   0  0  0  0  0  0  0  0  0  0  0  0
   -2.4882    1.1338    5.7604 H   0  0  0  0  0  0  0  0  0  0  0  0
   -2.3680    1.5337    3.1790 N   0  0  0  0  0  0  0  0  0  0  0  0
   -2.1212    1.9597    1.8266 C   0  0  2  0  0  0  0  0  0  0  0  0
   -0.7862    1.3744    1.3854 C   0  0  0  0  0  0  0  0  0  0  0  0
    0.0859    1.0216    2.1767 O   0  0  0  0  0  0  0  0  0  0  0  0
   -2.1124    3.4765    1.7171 C   0  0  0  0  0  0  0  0  0  0  0  0
   -3.1331    1.9695    3.6908 H   0  0  0  0  0  0  0  0  0  0  0  0
   -2.9253    1.5413    1.2115 H   0  0  0  0  0  0  0  0  0  0  0  0
   -1.3133    3.9138    2.3268 H   0  0  0  0  0  0  0  0  0  0  0  0
   -1.9529    3.7988    0.6829 H   0  0  0  0  0  0  0  0  0  0  0  0
   -3.0626    3.8977    2.0629 H   0  0  0  0  0  0  0  0  0  0  0  0
   -0.6635    1.3313    0.0020 N   0  0  0  0  0  0  0  0  0  0  0  0
    0.5138    0.8305   -0.6617 C   0  0  2  0  0  0  0  0  0  0  0  0
    0.6912   -0.6212   -0.2310 C   0  0  0  0  0  0  0  0  0  0  0  0
    0.5421   -0.9978    0.9296 O   0  0  0  0  0  0  0  0  0  0  0  0
    1.7648    1.6459   -0.3151 C   0  0  0  0  0  0  0  0  0  0  0  0
    1.6812    3.0748   -0.7935 C   0  0  0  0  0  0  0  0  0  0  0  0
    1.8383    3.3765   -2.1231 N   0  0  0  0  0  0  0  0  0  0  0  0
    1.4561    4.2094   -0.0501 C   0  0  0  0  0  0  0  0  0  0  0  0
    1.7093    4.6831   -2.1874 C   0  0  0  0  0  0  0  0  0  0  0  0
    1.4774    5.2316   -0.9567 N   0  0  0  0  0  0  0  0  0  0  0  0
   -1.4467    1.6280   -0.5753 H   0  0  0  0  0  0  0  0  0  0  0  0
    0.3036    0.8626   -1.7372 H   0  0  0  0  0  0  0  0  0  0  0  0
    2.6595    1.1672   -0.7358 H   0  0  0  0  0  0  0  0  0  0  0  0
    1.9274    1.6559    0.7708 H   0  0  0  0  0  0  0  0  0  0  0  0
    1.2888    4.3805    1.0036 H   0  0  0  0  0  0  0  0  0  0  0  0
    1.7721    5.2859   -3.0824 H   0  0  0  0  0  0  0  0  0  0  0  0
    1.3449    6.2135   -0.7548 H   0  0  0  0  0  0  0  0  0  0  0  0
    0.9858   -1.4495   -1.3050 N   0  0  0  0  0  0  0  0  0  0  0  0
    1.1804   -2.8759   -1.1771 C   0  0  2  0  0  0  0  0  0  0  0  0
    2.1745   -3.1155   -0.0484 C   0  0  0  0  0  0  0  0  0  0  0  0
    2.9760   -2.2645    0.3315 O   0  0  0  0  0  0  0  0  0  0  0  0
    1.6782   -3.4853   -2.4784 C   0  0  0  0  0  0  0  0  0  0  0  0
    1.0689   -1.0322   -2.2273 H   0  0  0  0  0  0  0  0  0  0  0  0
    0.2093   -3.3045   -0.9064 H   0  0  0  0  0  0  0  0  0  0  0  0
    2.6502   -3.0680   -2.7658 H   0  0  0  0  0  0  0  0  0  0  0  0
    1.7979   -4.5700   -2.3883 H   0  0  0  0  0  0  0  0  0  0  0  0
    0.9764   -3.2863   -3.2955 H   0  0  0  0  0  0  0  0  0  0  0  0
    2.0905   -4.4059    0.4557 N   0  0  0  0  0  0  0  0  0  0  0  0
    2.9378   -4.8822    1.5240 C   0  0  0  0  0  0  0  0  0  0  0  0
    1.3834   -5.0388    0.0936 H   0  0  0  0  0  0  0  0  0  0  0  0
    3.8314   -5.3618    1.0978 H   0  0  0  0  0  0  0  0  0  0  0  0
    3.2426   -4.0348    2.1556 H   0  0  0  0  0  0  0  0  0  0  0  0
    2.3847   -5.6128    2.1325 H   0  0  0  0  0  0  0  0  0  0  0  0
 22 24  2  0  0  0  0
 24 26  1  0  0  0  0
 23 25  2  0  0  0  0
 25 26  1  0  0  0  0
 21 22  1  0  0  0  0
 22 23  1  0  0  0  0
  1  3  1  0  0  0  0
  1  7  1  0  0  0  0
  1  2  2  0  0  0  0
 35 36  1  0  0  0  0
 36 44  1  0  0  0  0
 36 37  2  0  0  0  0
  8  9  1  0  0  0  0
  9 17  1  0  0  0  0
  9 10  2  0  0  0  0
 18 19  1  0  0  0  0
 19 34  1  0  0  0  0
 19 20  2  0  0  0  0
 35 38  1  0  0  0  0
  8 11  1  0  0  0  0
 44 45  1  0  0  0  0
 18 21  1  0  0  0  0
 34 35  1  0  0  0  0
  7  8  1  0  0  0  0
 17 18  1  0  0  0  0
 24 31  1  0  0  0  0
 25 32  1  0  0  0  0
  3  4  1  0  0  0  0
  3  5  1  0  0  0  0
  3  6  1  0  0  0  0
 38 41  1  0  0  0  0
 38 42  1  0  0  0  0
 38 43  1  0  0  0  0
 11 14  1  0  0  0  0
 11 15  1  0  0  0  0
 11 16  1  0  0  0  0
 45 47  1  0  0  0  0
 45 48  1  0  0  0  0
 45 49  1  0  0  0  0
 21 29  1  0  0  0  0
 21 30  1  0  0  0  0
 35 40  1  0  0  0  0
  8 13  1  0  0  0  0
 18 28  1  0  0  0  0
 26 33  1  0  0  0  0
 44 46  1  0  0  0  0
  7 12  1  0  0  0  0
 34 39  1  0  0  0  0
 17 27  1  0  0  0  0
M  END
$$$$

  -OEChem-05262214473D

 49 49  0     1  0  0  0  0  0999 V2000
   -1.6183    0.5613    3.8201 C   0  0  0  0  0  0  0  0  0  0  0  0
   -0.6710   -0.0534    3.3444 O   0  0  0  0  0  0  0  0  0  0  0  0
   -2.0502    0.2789    5.2208 C   0  0  0  0  0  0  0  0  0  0  0  0
   -2.8099   -0.5175    5.2742 H   0  0  0  0  0  0  0  0  0  0  0  0
   -1.2190   -0.0687    5.8551 H   0  0  0  0  0  0  0  0  0  0  0  0
   -2.4882    1.1338    5.7604 H   0  0  0  0  0  0  0  0  0  0  0  0
   -2.3680    1.5337    3.1790 N   0  0  0  0  0  0  0  0  0  0  0  0
   -2.1212    1.9597    1.8266 C   0  0  2  0  0  0  0  0  0  0  0  0
   -0.7862    1.3744    1.3854 C   0  0  0  0  0  0  0  0  0  0  0  0
    0.0859    1.0216    2.1767 O   0  0  0  0  0  0  0  0  0  0  0  0
   -2.1124    3.4765    1.7171 C   0  0  0  0  0  0  0  0  0  0  0  0
   -3.1331    1.9695    3.6908 H   0  0  0  0  0  0  0  0  0  0  0  0
   -2.9253    1.5413    1.2115 H   0  0  0  0  0  0  0  0  0  0  0  0
   -1.3133    3.9138    2.3268 H   0  0  0  0  0  0  0  0  0  0  0  0
   -1.9529    3.7988    0.6829 H   0  0  0  0  0  0  0  0  0  0  0  0
   -3.0626    3.8977    2.0629 H   0  0  0  0  0  0  0  0  0  0  0  0
   -0.6635    1.3313    0.0020 N   0  0  0  0  0  0  0  0  0  0  0  0
    0.5138    0.8305   -0.6617 C   0  0  2  0  0  0  0  0  0  0  0  0
    0.6912   -0.6212   -0.2310 C   0  0  0  0  0  0  0  0  0  0  0  0
    0.2914   -1.0525    0.8484 O   0  0  0  0  0  0  0  0  0  0  0  0
    1.7648    1.6459   -0.3151 C   0  0  0  0  0  0  0  0  0  0  0  0
    1.6812    3.0748   -0.7935 C   0  0  0  0  0  0  0  0  0  0  0  0
    1.8383    3.3765   -2.1231 N   0  0  0  0  0  0  0  0  0  0  0  0
    1.4561    4.2094   -0.0501 C   0  0  0  0  0  0  0  0  0  0  0  0
    1.7093    4.6831   -2.1874 C   0  0  0  0  0  0  0  0  0  0  0  0
    1.4774    5.2316   -0.9567 N   0  0  0  0  0  0  0  0  0  0  0  0
   -1.4467    1.6280   -0.5753 H   0  0  0  0  0  0  0  0  0  0  0  0
    0.3036    0.8626   -1.7372 H   0  0  0  0  0  0  0  0  0  0  0  0
    2.6595    1.1672   -0.7358 H   0  0  0  0  0  0  0  0  0  0  0  0
    1.9274    1.6559    0.7708 H   0  0  0  0  0  0  0  0  0  0  0  0
    1.2888    4.3805    1.0036 H   0  0  0  0  0  0  0  0  0  0  0  0
    1.7721    5.2859   -3.0824 H   0  0  0  0  0  0  0  0  0  0  0  0
    1.3449    6.2135   -0.7548 H   0  0  0  0  0  0  0  0  0  0  0  0
    1.3031   -1.3842   -1.2157 N   0  0  0  0  0  0  0  0  0  0  0  0
    1.5694   -2.7976   -1.0735 C   0  0  2  0  0  0  0  0  0  0  0  0
    2.2716   -3.0119    0.2608 C   0  0  0  0  0  0  0  0  0  0  0  0
    2.8876   -2.1229    0.8451 O   0  0  0  0  0  0  0  0  0  0  0  0
    2.4166   -3.3194   -2.2236 C   0  0  0  0  0  0  0  0  0  0  0  0
    1.5775   -0.9262   -2.0798 H   0  0  0  0  0  0  0  0  0  0  0  0
    0.5975   -3.3028   -1.0608 H   0  0  0  0  0  0  0  0  0  0  0  0
    3.3944   -2.8248   -2.2526 H   0  0  0  0  0  0  0  0  0  0  0  0
    2.5936   -4.3960   -2.1294 H   0  0  0  0  0  0  0  0  0  0  0  0
    1.9236   -3.1377   -3.1847 H   0  0  0  0  0  0  0  0  0  0  0  0
    2.1660   -4.3238    0.7013 N   0  0  0  0  0  0  0  0  0  0  0  0
    2.7594   -4.7818    1.9358 C   0  0  0  0  0  0  0  0  0  0  0  0
    1.6202   -4.9895    0.1622 H   0  0  0  0  0  0  0  0  0  0  0  0
    3.7644   -5.1811    1.7342 H   0  0  0  0  0  0  0  0  0  0  0  0
    2.8339   -3.9408    2.6409 H   0  0  0  0  0  0  0  0  0  0  0  0
    2.1318   -5.5723    2.3730 H   0  0  0  0  0  0  0  0  0  0  0  0
 22 24  2  0  0  0  0
 24 26  1  0  0  0  0
 23 25  2  0  0  0  0
 25 26  1  0  0  0  0
 21 22  1  0  0  0  0
 22 23  1  0  0  0  0
  1  3  1  0  0  0  0
  1  7  1  0  0  0  0
  1  2  2  0  0  0  0
 35 36  1  0  0  0  0
 36 44  1  0  0  0  0
 36 37  2  0  0  0  0
  8  9  1  0  0  0  0
  9 17  1  0  0  0  0
  9 10  2  0  0  0  0
 18 19  1  0  0  0  0
 19 34  1  0  0  0  0
 19 20  2  0  0  0  0
 35 38  1  0  0  0  0
  8 11  1  0  0  0  0
 44 45  1  0  0  0  0
 18 21  1  0  0  0  0
 34 35  1  0  0  0  0
  7  8  1  0  0  0  0
 17 18  1  0  0  0  0
 24 31  1  0  0  0  0
 25 32  1  0  0  0  0
  3  4  1  0  0  0  0
  3  5  1  0  0  0  0
  3  6  1  0  0  0  0
 38 41  1  0  0  0  0
 38 42  1  0  0  0  0
 38 43  1  0  0  0  0
 11 14  1  0  0  0  0
 11 15  1  0  0  0  0
 11 16  1  0  0  0  0
 45 47  1  0  0  0  0
 45 48  1  0  0  0  0
 45 49  1  0  0  0  0
 21 29  1  0  0  0  0
 21 30  1  0  0  0  0
 35 40  1  0  0  0  0
  8 13  1  0  0  0  0
 18 28  1  0  0  0  0
 26 33  1  0  0  0  0
 44 46  1  0  0  0  0
  7 12  1  0  0  0  0
 34 39  1  0  0  0  0
 17 27  1  0  0  0  0
M  END
$$$$

  -OEChem-05262214473D

 49 49  0     1  0  0  0  0  0999 V2000
   -1.6183    0.5613    3.8201 C   0  0  0  0  0  0  0  0  0  0  0  0
   -0.6710   -0.0534    3.3444 O   0  0  0  0  0  0  0  0  0  0  0  0
   -2.0502    0.2789    5.2208 C   0  0  0  0  0  0  0  0  0  0  0  0
   -2.8099   -0.5175    5.2742 H   0  0  0  0  0  0  0  0  0  0  0  0
   -1.2190   -0.0687    5.8551 H   0  0  0  0  0  0  0  0  0  0  0  0
   -2.4882    1.1338    5.7604 H   0  0  0  0  0  0  0  0  0  0  0  0
   -2.3680    1.5337    3.1790 N   0  0  0  0  0  0  0  0  0  0  0  0
   -2.1212    1.9597    1.8266 C   0  0  2  0  0  0  0  0  0  0  0  0
   -0.7862    1.3744    1.3854 C   0  0  0  0  0  0  0  0  0  0  0  0
    0.0859    1.0216    2.1767 O   0  0  0  0  0  0  0  0  0  0  0  0
   -2.1124    3.4765    1.7171 C   0  0  0  0  0  0  0  0  0  0  0  0
   -3.1331    1.9695    3.6908 H   0  0  0  0  0  0  0  0  0  0  0  0
   -2.9253    1.5413    1.2115 H   0  0  0  0  0  0  0  0  0  0  0  0
   -1.3133    3.9138    2.3268 H   0  0  0  0  0  0  0  0  0  0  0  0
   -1.9529    3.7988    0.6829 H   0  0  0  0  0  0  0  0  0  0  0  0
   -3.0626    3.8977    2.0629 H   0  0  0  0  0  0  0  0  0  0  0  0
   -0.6635    1.3313    0.0020 N   0  0  0  0  0  0  0  0  0  0  0  0
    0.5138    0.8305   -0.6617 C   0  0  2  0  0  0  0  0  0  0  0  0
    0.6912   -0.6212   -0.2310 C   0  0  0  0  0  0  0  0  0  0  0  0
    0.0732   -1.1213    0.7065 O   0  0  0  0  0  0  0  0  0  0  0  0
    1.7648    1.6459   -0.3151 C   0  0  0  0  0  0  0  0  0  0  0  0
    1.6812    3.0748   -0.7935 C   0  0  0  0  0  0  0  0  0  0  0  0
    1.8383    3.3765   -2.1231 N   0  0  0  0  0  0  0  0  0  0  0  0
    1.4561    4.2094   -0.0501 C   0  0  0  0  0  0  0  0  0  0  0  0
    1.7093    4.6831   -2.1874 C   0  0  0  0  0  0  0  0  0  0  0  0
    1.4774    5.2316   -0.9567 N   0  0  0  0  0  0  0  0  0  0  0  0
   -1.4467    1.6280   -0.5753 H   0  0  0  0  0  0  0  0  0  0  0  0
    0.3036    0.8626   -1.7372 H   0  0  0  0  0  0  0  0  0  0  0  0
    2.6595    1.1672   -0.7358 H   0  0  0  0  0  0  0  0  0  0  0  0
    1.9274    1.6559    0.7708 H   0  0  0  0  0  0  0  0  0  0  0  0
    1.2888    4.3805    1.0036 H   0  0  0  0  0  0  0  0  0  0  0  0
    1.7721    5.2859   -3.0824 H   0  0  0  0  0  0  0  0  0  0  0  0
    1.3449    6.2135   -0.7548 H   0  0  0  0  0  0  0  0  0  0  0  0
    1.5828   -1.3007   -1.0494 N   0  0  0  0  0  0  0  0  0  0  0  0
    1.9140   -2.6967   -0.8753 C   0  0  2  0  0  0  0  0  0  0  0  0
    2.2817   -2.9141    0.5865 C   0  0  0  0  0  0  0  0  0  0  0  0
    2.6653   -2.0081    1.3236 O   0  0  0  0  0  0  0  0  0  0  0  0
    3.0549   -3.1129   -1.7905 C   0  0  0  0  0  0  0  0  0  0  0  0
    2.0248   -0.7912   -1.8088 H   0  0  0  0  0  0  0  0  0  0  0  0
    1.0105   -3.2682   -1.1141 H   0  0  0  0  0  0  0  0  0  0  0  0
    3.9689   -2.5509   -1.5662 H   0  0  0  0  0  0  0  0  0  0  0  0
    3.2856   -4.1774   -1.6780 H   0  0  0  0  0  0  0  0  0  0  0  0
    2.8003   -2.9282   -2.8397 H   0  0  0  0  0  0  0  0  0  0  0  0
    2.1724   -4.2464    0.9596 N   0  0  0  0  0  0  0  0  0  0  0  0
    2.4783   -4.7103    2.2927 C   0  0  0  0  0  0  0  0  0  0  0  0
    1.8284   -4.9266    0.2884 H   0  0  0  0  0  0  0  0  0  0  0  0
    3.5296   -5.0307    2.3379 H   0  0  0  0  0  0  0  0  0  0  0  0
    2.3126   -3.8945    3.0118 H   0  0  0  0  0  0  0  0  0  0  0  0
    1.8253   -5.5590    2.5443 H   0  0  0  0  0  0  0  0  0  0  0  0
 22 24  2  0  0  0  0
 24 26  1  0  0  0  0
 23 25  2  0  0  0  0
 25 26  1  0  0  0  0
 21 22  1  0  0  0  0
 22 23  1  0  0  0  0
  1  3  1  0  0  0  0
  1  7  1  0  0  0  0
  1  2  2  0  0  0  0
 35 36  1  0  0  0  0
 36 44  1  0  0  0  0
 36 37  2  0  0  0  0
  8  9  1  0  0  0  0
  9 17  1  0  0  0  0
  9 10  2  0  0  0  0
 18 19  1  0  0  0  0
 19 34  1  0  0  0  0
 19 20  2  0  0  0  0
 35 38  1  0  0  0  0
  8 11  1  0  0  0  0
 44 45  1  0  0  0  0
 18 21  1  0  0  0  0
 34 35  1  0  0  0  0
  7  8  1  0  0  0  0
 17 18  1  0  0  0  0
 24 31  1  0  0  0  0
 25 32  1  0  0  0  0
  3  4  1  0  0  0  0
  3  5  1  0  0  0  0
  3  6  1  0  0  0  0
 38 41  1  0  0  0  0
 38 42  1  0  0  0  0
 38 43  1  0  0  0  0
 11 14  1  0  0  0  0
 11 15  1  0  0  0  0
 11 16  1  0  0  0  0
 45 47  1  0  0  0  0
 45 48  1  0  0  0  0
 45 49  1  0  0  0  0
 21 29  1  0  0  0  0
 21 30  1  0  0  0  0
 35 40  1  0  0  0  0
  8 13  1  0  0  0  0
 18 28  1  0  0  0  0
 26 33  1  0  0  0  0
 44 46  1  0  0  0  0
  7 12  1  0  0  0  0
 34 39  1  0  0  0  0
 17 27  1  0  0  0  0
M  END
$$$$

  -OEChem-05262214473D

 49 49  0     1  0  0  0  0  0999 V2000
   -1.6183    0.5613    3.8201 C   0  0  0  0  0  0  0  0  0  0  0  0
   -0.6710   -0.0534    3.3444 O   0  0  0  0  0  0  0  0  0  0  0  0
   -2.0502    0.2789    5.2208 C   0  0  0  0  0  0  0  0  0  0  0  0
   -2.8099   -0.5175    5.2742 H   0  0  0  0  0  0  0  0  0  0  0  0
   -1.2190   -0.0687    5.8551 H   0  0  0  0  0  0  0  0  0  0  0  0
   -2.4882    1.1338    5.7604 H   0  0  0  0  0  0  0  0  0  0  0  0
   -2.3680    1.5337    3.1790 N   0  0  0  0  0  0  0  0  0  0  0  0
   -2.1212    1.9597    1.8266 C   0  0  2  0  0  0  0  0  0  0  0  0
   -0.7862    1.3744    1.3854 C   0  0  0  0  0  0  0  0  0  0  0  0
    0.0859    1.0216    2.1767 O   0  0  0  0  0  0  0  0  0  0  0  0
   -2.1124    3.4765    1.7171 C   0  0  0  0  0  0  0  0  0  0  0  0
   -3.1331    1.9695    3.6908 H   0  0  0  0  0  0  0  0  0  0  0  0
   -2.9253    1.5413    1.2115 H   0  0  0  0  0  0  0  0  0  0  0  0
   -1.3133    3.9138    2.3268 H   0  0  0  0  0  0  0  0  0  0  0  0
   -1.9529    3.7988    0.6829 H   0  0  0  0  0  0  0  0  0  0  0  0
   -3.0626    3.8977    2.0629 H   0  0  0  0  0  0  0  0  0  0  0  0
   -0.6635    1.3313    0.0020 N   0  0  0  0  0  0  0  0  0  0  0  0
    0.5138    0.8305   -0.6617 C   0  0  2  0  0  0  0  0  0  0  0  0
    0.4859   -0.6892   -0.5437 C   0  0  0  0  0  0  0  0  0  0  0  0
   -0.4337   -1.3018   -0.0052 O   0  0  0  0  0  0  0  0  0  0  0  0
    1.8043    1.3889   -0.0511 C   0  0  0  0  0  0  0  0  0  0  0  0
    1.9273    2.8843   -0.2132 C   0  0  0  0  0  0  0  0  0  0  0  0
    2.2523    3.4305   -1.4296 N   0  0  0  0  0  0  0  0  0  0  0  0
    1.7526    3.8608    0.7389 C   0  0  0  0  0  0  0  0  0  0  0  0
    2.2744    4.7279   -1.2188 C   0  0  0  0  0  0  0  0  0  0  0  0
    1.9787    5.0363    0.0799 N   0  0  0  0  0  0  0  0  0  0  0  0
   -1.4467    1.6280   -0.5753 H   0  0  0  0  0  0  0  0  0  0  0  0
    0.4200    1.1102   -1.7176 H   0  0  0  0  0  0  0  0  0  0  0  0
    2.6797    0.8959   -0.4953 H   0  0  0  0  0  0  0  0  0  0  0  0
    1.8546    1.1540    1.0204 H   0  0  0  0  0  0  0  0  0  0  0  0
    1.4977    3.8313    1.7885 H   0  0  0  0  0  0  0  0  0  0  0  0
    2.4944    5.4889   -1.9541 H   0  0  0  0  0  0  0  0  0  0  0  0
    1.9345    5.9644    0.4792 H   0  0  0  0  0  0  0  0  0  0  0  0
    1.5843   -1.2780   -1.1547 N   0  0  0  0  0  0  0  0  0  0  0  0
    1.7913   -2.7074   -1.2079 C   0  0  2  0  0  0  0  0  0  0  0  0
    1.6230   -3.2598    0.2013 C   0  0  0  0  0  0  0  0  0  0  0  0
    1.7554   -2.5721    1.2116 O   0  0  0  0  0  0  0  0  0  0  0  0
    3.1652   -3.0472   -1.7645 C   0  0  0  0  0  0  0  0  0  0  0  0
    2.2776   -0.6739   -1.5862 H   0  0  0  0  0  0  0  0  0  0  0  0
    1.0092   -3.1162   -1.8569 H   0  0  0  0  0  0  0  0  0  0  0  0
    3.9618   -2.6457   -1.1275 H   0  0  0  0  0  0  0  0  0  0  0  0
    3.3095   -4.1306   -1.8308 H   0  0  0  0  0  0  0  0  0  0  0  0
    3.2955   -2.6238   -2.7662 H   0  0  0  0  0  0  0  0  0  0  0  0
    1.3501   -4.6205    0.1994 N   0  0  0  0  0  0  0  0  0  0  0  0
    1.1607   -5.3794    1.4135 C   0  0  0  0  0  0  0  0  0  0  0  0
    1.2389   -5.1066   -0.6856 H   0  0  0  0  0  0  0  0  0  0  0  0
    2.1208   -5.8142    1.7283 H   0  0  0  0  0  0  0  0  0  0  0  0
    0.7815   -4.7162    2.2050 H   0  0  0  0  0  0  0  0  0  0  0  0
    0.4350   -6.1860    1.2322 H   0  0  0  0  0  0  0  0  0  0  0  0
 22 24  2  0  0  0  0
 24 26  1  0  0  0  0
 23 25  2  0  0  0  0
 25 26  1  0  0  0  0
 21 22  1  0  0  0  0
 22 23  1  0  0  0  0
  1  3  1  0  0  0  0
  1  7  1  0  0  0  0
  1  2  2  0  0  0  0
 35 36  1  0  0  0  0
 36 44  1  0  0  0  0
 36 37  2  0  0  0  0
  8  9  1  0  0  0  0
  9 17  1  0  0  0  0
  9 10  2  0  0  0  0
 18 19  1  0  0  0  0
 19 34  1  0  0  0  0
 19 20  2  0  0  0  0
 35 38  1  0  0  0  0
  8 11  1  0  0  0  0
 44 45  1  0  0  0  0
 18 21  1  0  0  0  0
 34 35  1  0  0  0  0
  7  8  1  0  0  0  0
 17 18  1  0  0  0  0
 24 31  1  0  0  0  0
 25 32  1  0  0  0  0
  3  4  1  0  0  0  0
  3  5  1  0  0  0  0
  3  6  1  0  0  0  0
 38 41  1  0  0  0  0
 38 42  1  0  0  0  0
 38 43  1  0  0  0  0
 11 14  1  0  0  0  0
 11 15  1  0  0  0  0
 11 16  1  0  0  0  0
 45 47  1  0  0  0  0
 45 48  1  0  0  0  0
 45 49  1  0  0  0  0
 21 29  1  0  0  0  0
 21 30  1  0  0  0  0
 35 40  1  0  0  0  0
  8 13  1  0  0  0  0
 18 28  1  0  0  0  0
 26 33  1  0  0  0  0
 44 46  1  0  0  0  0
  7 12  1  0  0  0  0
 34 39  1  0  0  0  0
 17 27  1  0  0  0  0
M  END
$$$$

  -OEChem-05262214473D

 49 49  0     1  0  0  0  0  0999 V2000
   -1.6183    0.5613    3.8201 C   0  0  0  0  0  0  0  0  0  0  0  0
   -0.6710   -0.0534    3.3444 O   0  0  0  0  0  0  0  0  0  0  0  0
   -2.0502    0.2789    5.2208 C   0  0  0  0  0  0  0  0  0  0  0  0
   -2.8099   -0.5175    5.2742 H   0  0  0  0  0  0  0  0  0  0  0  0
   -1.2190   -0.0687    5.8551 H   0  0  0  0  0  0  0  0  0  0  0  0
   -2.4882    1.1338    5.7604 H   0  0  0  0  0  0  0  0  0  0  0  0
   -2.3680    1.5337    3.1790 N   0  0  0  0  0  0  0  0  0  0  0  0
   -2.1212    1.9597    1.8266 C   0  0  2  0  0  0  0  0  0  0  0  0
   -0.7862    1.3744    1.3854 C   0  0  0  0  0  0  0  0  0  0  0  0
    0.0859    1.0216    2.1767 O   0  0  0  0  0  0  0  0  0  0  0  0
   -2.1124    3.4765    1.7171 C   0  0  0  0  0  0  0  0  0  0  0  0
   -3.1331    1.9695    3.6908 H   0  0  0  0  0  0  0  0  0  0  0  0
   -2.9253    1.5413    1.2115 H   0  0  0  0  0  0  0  0  0  0  0  0
   -1.3133    3.9138    2.3268 H   0  0  0  0  0  0  0  0  0  0  0  0
   -1.9529    3.7988    0.6829 H   0  0  0  0  0  0  0  0  0  0  0  0
   -3.0626    3.8977    2.0629 H   0  0  0  0  0  0  0  0  0  0  0  0
   -0.6635    1.3313    0.0020 N   0  0  0  0  0  0  0  0  0  0  0  0
    0.5138    0.8305   -0.6617 C   0  0  2  0  0  0  0  0  0  0  0  0
    0.4859   -0.6892   -0.5437 C   0  0  0  0  0  0  0  0  0  0  0  0
   -0.5294   -1.3196   -0.2562 O   0  0  0  0  0  0  0  0  0  0  0  0
    1.8043    1.3889   -0.0511 C   0  0  0  0  0  0  0  0  0  0  0  0
    1.9273    2.8843   -0.2132 C   0  0  0  0  0  0  0  0  0  0  0  0
    2.2523    3.4305   -1.4296 N   0  0  0  0  0  0  0  0  0  0  0  0
    1.7526    3.8608    0.7389 C   0  0  0  0  0  0  0  0  0  0  0  0
    2.2744    4.7279   -1.2188 C   0  0  0  0  0  0  0  0  0  0  0  0
    1.9787    5.0363    0.0799 N   0  0  0  0  0  0  0  0  0  0  0  0
   -1.4467    1.6280   -0.5753 H   0  0  0  0  0  0  0  0  0  0  0  0
    0.4200    1.1102   -1.7176 H   0  0  0  0  0  0  0  0  0  0  0  0
    2.6797    0.8959   -0.4953 H   0  0  0  0  0  0  0  0  0  0  0  0
    1.8546    1.1540    1.0204 H   0  0  0  0  0  0  0  0  0  0  0  0
    1.4977    3.8313    1.7885 H   0  0  0  0  0  0  0  0  0  0  0  0
    2.4944    5.4889   -1.9541 H   0  0  0  0  0  0  0  0  0  0  0  0
    1.9345    5.9644    0.4792 H   0  0  0  0  0  0  0  0  0  0  0  0
    1.7160   -1.2565   -0.8464 N   0  0  0  0  0  0  0  0  0  0  0  0
    1.9574   -2.6814   -0.8339 C   0  0  2  0  0  0  0  0  0  0  0  0
    1.4419   -3.2342    0.4883 C   0  0  0  0  0  0  0  0  0  0  0  0
    1.2958   -2.5418    1.4934 O   0  0  0  0  0  0  0  0  0  0  0  0
    3.4347   -2.9939   -1.0147 C   0  0  0  0  0  0  0  0  0  0  0  0
    2.4853   -0.6391   -1.0889 H   0  0  0  0  0  0  0  0  0  0  0  0
    1.3773   -3.1077   -1.6596 H   0  0  0  0  0  0  0  0  0  0  0  0
    4.0320   -2.5748   -0.1968 H   0  0  0  0  0  0  0  0  0  0  0  0
    3.6123   -4.0743   -1.0336 H   0  0  0  0  0  0  0  0  0  0  0  0
    3.8109   -2.5700   -1.9520 H   0  0  0  0  0  0  0  0  0  0  0  0
    1.2052   -4.6003    0.4260 N   0  0  0  0  0  0  0  0  0  0  0  0
    0.7237   -5.3604    1.5558 C   0  0  0  0  0  0  0  0  0  0  0  0
    1.3356   -5.0904   -0.4541 H   0  0  0  0  0  0  0  0  0  0  0  0
    1.5783   -5.7746    2.1108 H   0  0  0  0  0  0  0  0  0  0  0  0
    0.1404   -4.7035    2.2177 H   0  0  0  0  0  0  0  0  0  0  0  0
    0.0852   -6.1821    1.1993 H   0  0  0  0  0  0  0  0  0  0  0  0
 22 24  2  0  0  0  0
 24 26  1  0  0  0  0
 23 25  2  0  0  0  0
 25 26  1  0  0  0  0
 21 22  1  0  0  0  0
 22 23  1  0  0  0  0
  1  3  1  0  0  0  0
  1  7  1  0  0  0  0
  1  2  2  0  0  0  0
 35 36  1  0  0  0  0
 36 44  1  0  0  0  0
 36 37  2  0  0  0  0
  8  9  1  0  0  0  0
  9 17  1  0  0  0  0
  9 10  2  0  0  0  0
 18 19  1  0  0  0  0
 19 34  1  0  0  0  0
 19 20  2  0  0  0  0
 35 38  1  0  0  0  0
  8 11  1  0  0  0  0
 44 45  1  0  0  0  0
 18 21  1  0  0  0  0
 34 35  1  0  0  0  0
  7  8  1  0  0  0  0
 17 18  1  0  0  0  0
 24 31  1  0  0  0  0
 25 32  1  0  0  0  0
  3  4  1  0  0  0  0
  3  5  1  0  0  0  0
  3  6  1  0  0  0  0
 38 41  1  0  0  0  0
 38 42  1  0  0  0  0
 38 43  1  0  0  0  0
 11 14  1  0  0  0  0
 11 15  1  0  0  0  0
 11 16  1  0  0  0  0
 45 47  1  0  0  0  0
 45 48  1  0  0  0  0
 45 49  1  0  0  0  0
 21 29  1  0  0  0  0
 21 30  1  0  0  0  0
 35 40  1  0  0  0  0
  8 13  1  0  0  0  0
 18 28  1  0  0  0  0
 26 33  1  0  0  0  0
 44 46  1  0  0  0  0
  7 12  1  0  0  0  0
 34 39  1  0  0  0  0
 17 27  1  0  0  0  0
M  END
$$$$

  -OEChem-05262214473D

 49 49  0     1  0  0  0  0  0999 V2000
   -1.6183    0.5613    3.8201 C   0  0  0  0  0  0  0  0  0  0  0  0
   -0.6710   -0.0534    3.3444 O   0  0  0  0  0  0  0  0  0  0  0  0
   -2.0502    0.2789    5.2208 C   0  0  0  0  0  0  0  0  0  0  0  0
   -2.8099   -0.5175    5.2742 H   0  0  0  0  0  0  0  0  0  0  0  0
   -1.2190   -0.0687    5.8551 H   0  0  0  0  0  0  0  0  0  0  0  0
   -2.4882    1.1338    5.7604 H   0  0  0  0  0  0  0  0  0  0  0  0
   -2.3680    1.5337    3.1790 N   0  0  0  0  0  0  0  0  0  0  0  0
   -2.1212    1.9597    1.8266 C   0  0  2  0  0  0  0  0  0  0  0  0
   -0.7862    1.3744    1.3854 C   0  0  0  0  0  0  0  0  0  0  0  0
    0.0859    1.0216    2.1767 O   0  0  0  0  0  0  0  0  0  0  0  0
   -2.1124    3.4765    1.7171 C   0  0  0  0  0  0  0  0  0  0  0  0
   -3.1331    1.9695    3.6908 H   0  0  0  0  0  0  0  0  0  0  0  0
   -2.9253    1.5413    1.2115 H   0  0  0  0  0  0  0  0  0  0  0  0
   -1.3133    3.9138    2.3268 H   0  0  0  0  0  0  0  0  0  0  0  0
   -1.9529    3.7988    0.6829 H   0  0  0  0  0  0  0  0  0  0  0  0
   -3.0626    3.8977    2.0629 H   0  0  0  0  0  0  0  0  0  0  0  0
   -0.6635    1.3313    0.0020 N   0  0  0  0  0  0  0  0  0  0  0  0
    0.5138    0.8305   -0.6617 C   0  0  2  0  0  0  0  0  0  0  0  0
    0.4859   -0.6892   -0.5437 C   0  0  0  0  0  0  0  0  0  0  0  0
   -0.5568   -1.3398   -0.5232 O   0  0  0  0  0  0  0  0  0  0  0  0
    1.8043    1.3889   -0.0511 C   0  0  0  0  0  0  0  0  0  0  0  0
    1.9273    2.8843   -0.2132 C   0  0  0  0  0  0  0  0  0  0  0  0
    2.2523    3.4305   -1.4296 N   0  0  0  0  0  0  0  0  0  0  0  0
    1.7526    3.8608    0.7389 C   0  0  0  0  0  0  0  0  0  0  0  0
    2.2744    4.7279   -1.2188 C   0  0  0  0  0  0  0  0  0  0  0  0
    1.9787    5.0363    0.0799 N   0  0  0  0  0  0  0  0  0  0  0  0
   -1.4467    1.6280   -0.5753 H   0  0  0  0  0  0  0  0  0  0  0  0
    0.4200    1.1102   -1.7176 H   0  0  0  0  0  0  0  0  0  0  0  0
    2.6797    0.8959   -0.4953 H   0  0  0  0  0  0  0  0  0  0  0  0
    1.8546    1.1540    1.0204 H   0  0  0  0  0  0  0  0  0  0  0  0
    1.4977    3.8313    1.7885 H   0  0  0  0  0  0  0  0  0  0  0  0
    2.4944    5.4889   -1.9541 H   0  0  0  0  0  0  0  0  0  0  0  0
    1.9345    5.9644    0.4792 H   0  0  0  0  0  0  0  0  0  0  0  0
    1.7632   -1.2316   -0.5146 N   0  0  0  0  0  0  0  0  0  0  0  0
    2.0209   -2.6512   -0.4299 C   0  0  2  0  0  0  0  0  0  0  0  0
    1.1925   -3.2117    0.7186 C   0  0  0  0  0  0  0  0  0  0  0  0
    0.7785   -2.5204    1.6470 O   0  0  0  0  0  0  0  0  0  0  0  0
    3.5005   -2.9335   -0.2212 C   0  0  0  0  0  0  0  0  0  0  0  0
    2.5569   -0.5989   -0.5550 H   0  0  0  0  0  0  0  0  0  0  0  0
    1.6819   -3.0911   -1.3741 H   0  0  0  0  0  0  0  0  0  0  0  0
    3.8583   -2.5004    0.7201 H   0  0  0  0  0  0  0  0  0  0  0  0
    3.6979   -4.0100   -0.1857 H   0  0  0  0  0  0  0  0  0  0  0  0
    4.0975   -2.5039   -1.0328 H   0  0  0  0  0  0  0  0  0  0  0  0
    1.0064   -4.5825    0.6074 N   0  0  0  0  0  0  0  0  0  0  0  0
    0.2645   -5.3501    1.5803 C   0  0  0  0  0  0  0  0  0  0  0  0
    1.3690   -5.0717   -0.2056 H   0  0  0  0  0  0  0  0  0  0  0  0
    0.9548   -5.7453    2.3400 H   0  0  0  0  0  0  0  0  0  0  0  0
   -0.4825   -4.7040    2.0646 H   0  0  0  0  0  0  0  0  0  0  0  0
   -0.2443   -6.1856    1.0773 H   0  0  0  0  0  0  0  0  0  0  0  0
 22 24  2  0  0  0  0
 24 26  1  0  0  0  0
 23 25  2  0  0  0  0
 25 26  1  0  0  0  0
 21 22  1  0  0  0  0
 22 23  1  0  0  0  0
  1  3  1  0  0  0  0
  1  7  1  0  0  0  0
  1  2  2  0  0  0  0
 35 36  1  0  0  0  0
 36 44  1  0  0  0  0
 36 37  2  0  0  0  0
  8  9  1  0  0  0  0
  9 17  1  0  0  0  0
  9 10  2  0  0  0  0
 18 19  1  0  0  0  0
 19 34  1  0  0  0  0
 19 20  2  0  0  0  0
 35 38  1  0  0  0  0
  8 11  1  0  0  0  0
 44 45  1  0  0  0  0
 18 21  1  0  0  0  0
 34 35  1  0  0  0  0
  7  8  1  0  0  0  0
 17 18  1  0  0  0  0
 24 31  1  0  0  0  0
 25 32  1  0  0  0  0
  3  4  1  0  0  0  0
  3  5  1  0  0  0  0
  3  6  1  0  0  0  0
 38 41  1  0  0  0  0
 38 42  1  0  0  0  0
 38 43  1  0  0  0  0
 11 14  1  0  0  0  0
 11 15  1  0  0  0  0
 11 16  1  0  0  0  0
 45 47  1  0  0  0  0
 45 48  1  0  0  0  0
 45 49  1  0  0  0  0
 21 29  1  0  0  0  0
 21 30  1  0  0  0  0
 35 40  1  0  0  0  0
  8 13  1  0  0  0  0
 18 28  1  0  0  0  0
 26 33  1  0  0  0  0
 44 46  1  0  0  0  0
  7 12  1  0  0  0  0
 34 39  1  0  0  0  0
 17 27  1  0  0  0  0
M  END
$$$$

  -OEChem-05262214473D

 49 49  0     1  0  0  0  0  0999 V2000
   -1.6183    0.5613    3.8201 C   0  0  0  0  0  0  0  0  0  0  0  0
   -0.6710   -0.0534    3.3444 O   0  0  0  0  0  0  0  0  0  0  0  0
   -2.0502    0.2789    5.2208 C   0  0  0  0  0  0  0  0  0  0  0  0
   -2.8099   -0.5175    5.2742 H   0  0  0  0  0  0  0  0  0  0  0  0
   -1.2190   -0.0687    5.8551 H   0  0  0  0  0  0  0  0  0  0  0  0
   -2.4882    1.1338    5.7604 H   0  0  0  0  0  0  0  0  0  0  0  0
   -2.3680    1.5337    3.1790 N   0  0  0  0  0  0  0  0  0  0  0  0
   -2.1212    1.9597    1.8266 C   0  0  2  0  0  0  0  0  0  0  0  0
   -0.7862    1.3744    1.3854 C   0  0  0  0  0  0  0  0  0  0  0  0
    0.0859    1.0216    2.1767 O   0  0  0  0  0  0  0  0  0  0  0  0
   -2.1124    3.4765    1.7171 C   0  0  0  0  0  0  0  0  0  0  0  0
   -3.1331    1.9695    3.6908 H   0  0  0  0  0  0  0  0  0  0  0  0
   -2.9253    1.5413    1.2115 H   0  0  0  0  0  0  0  0  0  0  0  0
   -1.3133    3.9138    2.3268 H   0  0  0  0  0  0  0  0  0  0  0  0
   -1.9529    3.7988    0.6829 H   0  0  0  0  0  0  0  0  0  0  0  0
   -3.0626    3.8977    2.0629 H   0  0  0  0  0  0  0  0  0  0  0  0
   -0.6635    1.3313    0.0020 N   0  0  0  0  0  0  0  0  0  0  0  0
    0.5138    0.8305   -0.6617 C   0  0  2  0  0  0  0  0  0  0  0  0
    0.4859   -0.6892   -0.5437 C   0  0  0  0  0  0  0  0  0  0  0  0
   -0.5139   -1.3612   -0.7881 O   0  0  0  0  0  0  0  0  0  0  0  0
    1.8043    1.3889   -0.0511 C   0  0  0  0  0  0  0  0  0  0  0  0
    1.9273    2.8843   -0.2132 C   0  0  0  0  0  0  0  0  0  0  0  0
    2.2523    3.4305   -1.4296 N   0  0  0  0  0  0  0  0  0  0  0  0
    1.7526    3.8608    0.7389 C   0  0  0  0  0  0  0  0  0  0  0  0
    2.2744    4.7279   -1.2188 C   0  0  0  0  0  0  0  0  0  0  0  0
    1.9787    5.0363    0.0799 N   0  0  0  0  0  0  0  0  0  0  0  0
   -1.4467    1.6280   -0.5753 H   0  0  0  0  0  0  0  0  0  0  0  0
    0.4200    1.1102   -1.7176 H   0  0  0  0  0  0  0  0  0  0  0  0
    2.6797    0.8959   -0.4953 H   0  0  0  0  0  0  0  0  0  0  0  0
    1.8546    1.1540    1.0204 H   0  0  0  0  0  0  0  0  0  0  0  0
    1.4977    3.8313    1.7885 H   0  0  0  0  0  0  0  0  0  0  0  0
    2.4944    5.4889   -1.9541 H   0  0  0  0  0  0  0  0  0  0  0  0
    1.9345    5.9644    0.4792 H   0  0  0  0  0  0  0  0  0  0  0  0
    1.7228   -1.2050   -0.1822 N   0  0  0  0  0  0  0  0  0  0  0  0
    1.9773   -2.6188   -0.0233 C   0  0  2  0  0  0  0  0  0  0  0  0
    0.8916   -3.1939    0.8767 C   0  0  0  0  0  0  0  0  0  0  0  0
    0.2388   -2.5094    1.6617 O   0  0  0  0  0  0  0  0  0  0  0  0
    3.3582   -2.8701    0.5620 C   0  0  0  0  0  0  0  0  0  0  0  0
    2.4875   -0.5562   -0.0211 H   0  0  0  0  0  0  0  0  0  0  0  0
    1.9021   -3.0676   -1.0198 H   0  0  0  0  0  0  0  0  0  0  0  0
    3.4525   -2.4277    1.5605 H   0  0  0  0  0  0  0  0  0  0  0  0
    3.5606   -3.9422    0.6551 H   0  0  0  0  0  0  0  0  0  0  0  0
    4.1360   -2.4299   -0.0713 H   0  0  0  0  0  0  0  0  0  0  0  0
    0.7672   -4.5685    0.7313 N   0  0  0  0  0  0  0  0  0  0  0  0
   -0.1856   -5.3492    1.4855 C   0  0  0  0  0  0  0  0  0  0  0  0
    1.3367   -5.0518    0.0430 H   0  0  0  0  0  0  0  0  0  0  0  0
    0.2929   -5.7285    2.4005 H   0  0  0  0  0  0  0  0  0  0  0  0
   -1.0446   -4.7176    1.7559 H   0  0  0  0  0  0  0  0  0  0  0  0
   -0.5310   -6.1961    0.8744 H   0  0  0  0  0  0  0  0  0  0  0  0
 22 24  2  0  0  0  0
 24 26  1  0  0  0  0
 23 25  2  0  0  0  0
 25 26  1  0  0  0  0
 21 22  1  0  0  0  0
 22 23  1  0  0  0  0
  1  3  1  0  0  0  0
  1  7  1  0  0  0  0
  1  2  2  0  0  0  0
 35 36  1  0  0  0  0
 36 44  1  0  0  0  0
 36 37  2  0  0  0  0
  8  9  1  0  0  0  0
  9 17  1  0  0  0  0
  9 10  2  0  0  0  0
 18 19  1  0  0  0  0
 19 34  1  0  0  0  0
 19 20  2  0  0  0  0
 35 38  1  0  0  0  0
  8 11  1  0  0  0  0
 44 45  1  0  0  0  0
 18 21  1  0  0  0  0
 34 35  1  0  0  0  0
  7  8  1  0  0  0  0
 17 18  1  0  0  0  0
 24 31  1  0  0  0  0
 25 32  1  0  0  0  0
  3  4  1  0  0  0  0
  3  5  1  0  0  0  0
  3  6  1  0  0  0  0
 38 41  1  0  0  0  0
 38 42  1  0  0  0  0
 38 43  1  0  0  0  0
 11 14  1  0  0  0  0
 11 15  1  0  0  0  0
 11 16  1  0  0  0  0
 45 47  1  0  0  0  0
 45 48  1  0  0  0  0
 45 49  1  0  0  0  0
 21 29  1  0  0  0  0
 21 30  1  0  0  0  0
 35 40  1  0  0  0  0
  8 13  1  0  0  0  0
 18 28  1  0  0  0  0
 26 33  1  0  0  0  0
 44 46  1  0  0  0  0
  7 12  1  0  0  0  0
 34 39  1  0  0  0  0
 17 27  1  0  0  0  0
M  END
$$$$

  -OEChem-05262214473D

 49 49  0     1  0  0  0  0  0999 V2000
   -1.6183    0.5613    3.8201 C   0  0  0  0  0  0  0  0  0  0  0  0
   -0.6710   -0.0534    3.3444 O   0  0  0  0  0  0  0  0  0  0  0  0
   -2.0502    0.2789    5.2208 C   0  0  0  0  0  0  0  0  0  0  0  0
   -2.8099   -0.5175    5.2742 H   0  0  0  0  0  0  0  0  0  0  0  0
   -1.2190   -0.0687    5.8551 H   0  0  0  0  0  0  0  0  0  0  0  0
   -2.4882    1.1338    5.7604 H   0  0  0  0  0  0  0  0  0  0  0  0
   -2.3680    1.5337    3.1790 N   0  0  0  0  0  0  0  0  0  0  0  0
   -2.1212    1.9597    1.8266 C   0  0  2  0  0  0  0  0  0  0  0  0
   -0.7862    1.3744    1.3854 C   0  0  0  0  0  0  0  0  0  0  0  0
    0.0859    1.0216    2.1767 O   0  0  0  0  0  0  0  0  0  0  0  0
   -2.1124    3.4765    1.7171 C   0  0  0  0  0  0  0  0  0  0  0  0
   -3.1331    1.9695    3.6908 H   0  0  0  0  0  0  0  0  0  0  0  0
   -2.9253    1.5413    1.2115 H   0  0  0  0  0  0  0  0  0  0  0  0
   -1.3133    3.9138    2.3268 H   0  0  0  0  0  0  0  0  0  0  0  0
   -1.9529    3.7988    0.6829 H   0  0  0  0  0  0  0  0  0  0  0  0
   -3.0626    3.8977    2.0629 H   0  0  0  0  0  0  0  0  0  0  0  0
   -0.6635    1.3313    0.0020 N   0  0  0  0  0  0  0  0  0  0  0  0
    0.5138    0.8305   -0.6617 C   0  0  2  0  0  0  0  0  0  0  0  0
    0.4859   -0.6892   -0.5437 C   0  0  0  0  0  0  0  0  0  0  0  0
   -0.4037   -1.3822   -1.0328 O   0  0  0  0  0  0  0  0  0  0  0  0
    1.8043    1.3889   -0.0511 C   0  0  0  0  0  0  0  0  0  0  0  0
    1.9273    2.8843   -0.2132 C   0  0  0  0  0  0  0  0  0  0  0  0
    2.2523    3.4305   -1.4296 N   0  0  0  0  0  0  0  0  0  0  0  0
    1.7526    3.8608    0.7389 C   0  0  0  0  0  0  0  0  0  0  0  0
    2.2744    4.7279   -1.2188 C   0  0  0  0  0  0  0  0  0  0  0  0
    1.9787    5.0363    0.0799 N   0  0  0  0  0  0  0  0  0  0  0  0
   -1.4467    1.6280   -0.5753 H   0  0  0  0  0  0  0  0  0  0  0  0
    0.4200    1.1102   -1.7176 H   0  0  0  0  0  0  0  0  0  0  0  0
    2.6797    0.8959   -0.4953 H   0  0  0  0  0  0  0  0  0  0  0  0
    1.8546    1.1540    1.0204 H   0  0  0  0  0  0  0  0  0  0  0  0
    1.4977    3.8313    1.7885 H   0  0  0  0  0  0  0  0  0  0  0  0
    2.4944    5.4889   -1.9541 H   0  0  0  0  0  0  0  0  0  0  0  0
    1.9345    5.9644    0.4792 H   0  0  0  0  0  0  0  0  0  0  0  0
    1.5974   -1.1786    0.1284 N   0  0  0  0  0  0  0  0  0  0  0  0
    1.8297   -2.5865    0.3579 C   0  0  2  0  0  0  0  0  0  0  0  0
    0.5599   -3.1820    0.9516 C   0  0  0  0  0  0  0  0  0  0  0  0
   -0.2866   -2.5095    1.5366 O   0  0  0  0  0  0  0  0  0  0  0  0
    3.0174   -2.8080    1.2815 C   0  0  0  0  0  0  0  0  0  0  0  0
    2.2819   -0.5138    0.4765 H   0  0  0  0  0  0  0  0  0  0  0  0
    2.0229   -3.0388   -0.6209 H   0  0  0  0  0  0  0  0  0  0  0  0
    2.8422   -2.3617    2.2672 H   0  0  0  0  0  0  0  0  0  0  0  0
    3.2097   -3.8755    1.4315 H   0  0  0  0  0  0  0  0  0  0  0  0
    3.9235   -2.3532    0.8670 H   0  0  0  0  0  0  0  0  0  0  0  0
    0.5039   -4.5592    0.7892 N   0  0  0  0  0  0  0  0  0  0  0  0
   -0.5959   -5.3578    1.2778 C   0  0  0  0  0  0  0  0  0  0  0  0
    1.2410   -5.0321    0.2746 H   0  0  0  0  0  0  0  0  0  0  0  0
   -0.3624   -5.7253    2.2880 H   0  0  0  0  0  0  0  0  0  0  0  0
   -1.5077   -4.7436    1.3128 H   0  0  0  0  0  0  0  0  0  0  0  0
   -0.7554   -6.2129    0.6045 H   0  0  0  0  0  0  0  0  0  0  0  0
 22 24  2  0  0  0  0
 24 26  1  0  0  0  0
 23 25  2  0  0  0  0
 25 26  1  0  0  0  0
 21 22  1  0  0  0  0
 22 23  1  0  0  0  0
  1  3  1  0  0  0  0
  1  7  1  0  0  0  0
  1  2  2  0  0  0  0
 35 36  1  0  0  0  0
 36 44  1  0  0  0  0
 36 37  2  0  0  0  0
  8  9  1  0  0  0  0
  9 17  1  0  0  0  0
  9 10  2  0  0  0  0
 18 19  1  0  0  0  0
 19 34  1  0  0  0  0
 19 20  2  0  0  0  0
 35 38  1  0  0  0  0
  8 11  1  0  0  0  0
 44 45  1  0  0  0  0
 18 21  1  0  0  0  0
 34 35  1  0  0  0  0
  7  8  1  0  0  0  0
 17 18  1  0  0  0  0
 24 31  1  0  0  0  0
 25 32  1  0  0  0  0
  3  4  1  0  0  0  0
  3  5  1  0  0  0  0
  3  6  1  0  0  0  0
 38 41  1  0  0  0  0
 38 42  1  0  0  0  0
 38 43  1  0  0  0  0
 11 14  1  0  0  0  0
 11 15  1  0  0  0  0
 11 16  1  0  0  0  0
 45 47  1  0  0  0  0
 45 48  1  0  0  0  0
 45 49  1  0  0  0  0
 21 29  1  0  0  0  0
 21 30  1  0  0  0  0
 35 40  1  0  0  0  0
  8 13  1  0  0  0  0
 18 28  1  0  0  0  0
 26 33  1  0  0  0  0
 44 46  1  0  0  0  0
  7 12  1  0  0  0  0
 34 39  1  0  0  0  0
 17 27  1  0  0  0  0
M  END
$$$$

  -OEChem-05262214473D

 49 49  0     1  0  0  0  0  0999 V2000
   -1.6183    0.5613    3.8201 C   0  0  0  0  0  0  0  0  0  0  0  0
   -0.6710   -0.0534    3.3444 O   0  0  0  0  0  0  0  0  0  0  0  0
   -2.0502    0.2789    5.2208 C   0  0  0  0  0  0  0  0  0  0  0  0
   -2.8099   -0.5175    5.2742 H   0  0  0  0  0  0  0  0  0  0  0  0
   -1.2190   -0.0687    5.8551 H   0  0  0  0  0  0  0  0  0  0  0  0
   -2.4882    1.1338    5.7604 H   0  0  0  0  0  0  0  0  0  0  0  0
   -2.3680    1.5337    3.1790 N   0  0  0  0  0  0  0  0  0  0  0  0
   -2.1212    1.9597    1.8266 C   0  0  2  0  0  0  0  0  0  0  0  0
   -0.7862    1.3744    1.3854 C   0  0  0  0  0  0  0  0  0  0  0  0
    0.0859    1.0216    2.1767 O   0  0  0  0  0  0  0  0  0  0  0  0
   -2.1124    3.4765    1.7171 C   0  0  0  0  0  0  0  0  0  0  0  0
   -3.1331    1.9695    3.6908 H   0  0  0  0  0  0  0  0  0  0  0  0
   -2.9253    1.5413    1.2115 H   0  0  0  0  0  0  0  0  0  0  0  0
   -1.3133    3.9138    2.3268 H   0  0  0  0  0  0  0  0  0  0  0  0
   -1.9529    3.7988    0.6829 H   0  0  0  0  0  0  0  0  0  0  0  0
   -3.0626    3.8977    2.0629 H   0  0  0  0  0  0  0  0  0  0  0  0
   -0.6635    1.3313    0.0020 N   0  0  0  0  0  0  0  0  0  0  0  0
    0.5138    0.8305   -0.6617 C   0  0  2  0  0  0  0  0  0  0  0  0
    0.4859   -0.6892   -0.5437 C   0  0  0  0  0  0  0  0  0  0  0  0
   -0.2337   -1.4014   -1.2406 O   0  0  0  0  0  0  0  0  0  0  0  0
    1.8043    1.3889   -0.0511 C   0  0  0  0  0  0  0  0  0  0  0  0
    1.9273    2.8843   -0.2132 C   0  0  0  0  0  0  0  0  0  0  0  0
    2.2523    3.4305   -1.4296 N   0  0  0  0  0  0  0  0  0  0  0  0
    1.7526    3.8608    0.7389 C   0  0  0  0  0  0  0  0  0  0  0  0
    2.2744    4.7279   -1.2188 C   0  0  0  0  0  0  0  0  0  0  0  0
    1.9787    5.0363    0.0799 N   0  0  0  0  0  0  0  0  0  0  0  0
   -1.4467    1.6280   -0.5753 H   0  0  0  0  0  0  0  0  0  0  0  0
    0.4200    1.1102   -1.7176 H   0  0  0  0  0  0  0  0  0  0  0  0
    2.6797    0.8959   -0.4953 H   0  0  0  0  0  0  0  0  0  0  0  0
    1.8546    1.1540    1.0204 H   0  0  0  0  0  0  0  0  0  0  0  0
    1.4977    3.8313    1.7885 H   0  0  0  0  0  0  0  0  0  0  0  0
    2.4944    5.4889   -1.9541 H   0  0  0  0  0  0  0  0  0  0  0  0
    1.9345    5.9644    0.4792 H   0  0  0  0  0  0  0  0  0  0  0  0
    1.3956   -1.1542    0.3960 N   0  0  0  0  0  0  0  0  0  0  0  0
    1.5881   -2.5565    0.6879 C   0  0  2  0  0  0  0  0  0  0  0  0
    0.2199   -3.1768    0.9384 C   0  0  0  0  0  0  0  0  0  0  0  0
   -0.7617   -2.5207    1.2803 O   0  0  0  0  0  0  0  0  0  0  0  0
    2.5013   -2.7514    1.8883 C   0  0  0  0  0  0  0  0  0  0  0  0
    1.9541   -0.4746    0.9039 H   0  0  0  0  0  0  0  0  0  0  0  0
    2.0361   -3.0068   -0.2046 H   0  0  0  0  0  0  0  0  0  0  0  0
    2.0691   -2.3068    2.7921 H   0  0  0  0  0  0  0  0  0  0  0  0
    2.6690   -3.8144    2.0906 H   0  0  0  0  0  0  0  0  0  0  0  0
    3.4747   -2.2789    1.7182 H   0  0  0  0  0  0  0  0  0  0  0  0
    0.2345   -4.5552    0.7772 N   0  0  0  0  0  0  0  0  0  0  0  0
   -0.9384   -5.3753    0.9714 C   0  0  0  0  0  0  0  0  0  0  0  0
    1.0885   -5.0138    0.4736 H   0  0  0  0  0  0  0  0  0  0  0  0
   -0.9665   -5.7358    2.0103 H   0  0  0  0  0  0  0  0  0  0  0  0
   -1.8402   -4.7800    0.7655 H   0  0  0  0  0  0  0  0  0  0  0  0
   -0.9022   -6.2350    0.2860 H   0  0  0  0  0  0  0  0  0  0  0  0
 22 24  2  0  0  0  0
 24 26  1  0  0  0  0
 23 25  2  0  0  0  0
 25 26  1  0  0  0  0
 21 22  1  0  0  0  0
 22 23  1  0  0  0  0
  1  3  1  0  0  0  0
  1  7  1  0  0  0  0
  1  2  2  0  0  0  0
 35 36  1  0  0  0  0
 36 44  1  0  0  0  0
 36 37  2  0  0  0  0
  8  9  1  0  0  0  0
  9 17  1  0  0  0  0
  9 10  2  0  0  0  0
 18 19  1  0  0  0  0
 19 34  1  0  0  0  0
 19 20  2  0  0  0  0
 35 38  1  0  0  0  0
  8 11  1  0  0  0  0
 44 45  1  0  0  0  0
 18 21  1  0  0  0  0
 34 35  1  0  0  0  0
  7  8  1  0  0  0  0
 17 18  1  0  0  0  0
 24 31  1  0  0  0  0
 25 32  1  0  0  0  0
  3  4  1  0  0  0  0
  3  5  1  0  0  0  0
  3  6  1  0  0  0  0
 38 41  1  0  0  0  0
 38 42  1  0  0  0  0
 38 43  1  0  0  0  0
 11 14  1  0  0  0  0
 11 15  1  0  0  0  0
 11 16  1  0  0  0  0
 45 47  1  0  0  0  0
 45 48  1  0  0  0  0
 45 49  1  0  0  0  0
 21 29  1  0  0  0  0
 21 30  1  0  0  0  0
 35 40  1  0  0  0  0
  8 13  1  0  0  0  0
 18 28  1  0  0  0  0
 26 33  1  0  0  0  0
 44 46  1  0  0  0  0
  7 12  1  0  0  0  0
 34 39  1  0  0  0  0
 17 27  1  0  0  0  0
M  END
$$$$

  -OEChem-05262214473D

 49 49  0     1  0  0  0  0  0999 V2000
   -1.6183    0.5613    3.8201 C   0  0  0  0  0  0  0  0  0  0  0  0
   -0.6710   -0.0534    3.3444 O   0  0  0  0  0  0  0  0  0  0  0  0
   -2.0502    0.2789    5.2208 C   0  0  0  0  0  0  0  0  0  0  0  0
   -2.8099   -0.5175    5.2742 H   0  0  0  0  0  0  0  0  0  0  0  0
   -1.2190   -0.0687    5.8551 H   0  0  0  0  0  0  0  0  0  0  0  0
   -2.4882    1.1338    5.7604 H   0  0  0  0  0  0  0  0  0  0  0  0
   -2.3680    1.5337    3.1790 N   0  0  0  0  0  0  0  0  0  0  0  0
   -2.1212    1.9597    1.8266 C   0  0  2  0  0  0  0  0  0  0  0  0
   -0.7862    1.3744    1.3854 C   0  0  0  0  0  0  0  0  0  0  0  0
    0.0859    1.0216    2.1767 O   0  0  0  0  0  0  0  0  0  0  0  0
   -2.1124    3.4765    1.7171 C   0  0  0  0  0  0  0  0  0  0  0  0
   -3.1331    1.9695    3.6908 H   0  0  0  0  0  0  0  0  0  0  0  0
   -2.9253    1.5413    1.2115 H   0  0  0  0  0  0  0  0  0  0  0  0
   -1.3133    3.9138    2.3268 H   0  0  0  0  0  0  0  0  0  0  0  0
   -1.9529    3.7988    0.6829 H   0  0  0  0  0  0  0  0  0  0  0  0
   -3.0626    3.8977    2.0629 H   0  0  0  0  0  0  0  0  0  0  0  0
   -0.6635    1.3313    0.0020 N   0  0  0  0  0  0  0  0  0  0  0  0
    0.5138    0.8305   -0.6617 C   0  0  2  0  0  0  0  0  0  0  0  0
    0.4859   -0.6892   -0.5437 C   0  0  0  0  0  0  0  0  0  0  0  0
   -0.0156   -1.4176   -1.3974 O   0  0  0  0  0  0  0  0  0  0  0  0
    1.8043    1.3889   -0.0511 C   0  0  0  0  0  0  0  0  0  0  0  0
    1.9273    2.8843   -0.2132 C   0  0  0  0  0  0  0  0  0  0  0  0
    2.2523    3.4305   -1.4296 N   0  0  0  0  0  0  0  0  0  0  0  0
    1.7526    3.8608    0.7389 C   0  0  0  0  0  0  0  0  0  0  0  0
    2.2744    4.7279   -1.2188 C   0  0  0  0  0  0  0  0  0  0  0  0
    1.9787    5.0363    0.0799 N   0  0  0  0  0  0  0  0  0  0  0  0
   -1.4467    1.6280   -0.5753 H   0  0  0  0  0  0  0  0  0  0  0  0
    0.4200    1.1102   -1.7176 H   0  0  0  0  0  0  0  0  0  0  0  0
    2.6797    0.8959   -0.4953 H   0  0  0  0  0  0  0  0  0  0  0  0
    1.8546    1.1540    1.0204 H   0  0  0  0  0  0  0  0  0  0  0  0
    1.4977    3.8313    1.7885 H   0  0  0  0  0  0  0  0  0  0  0  0
    2.4944    5.4889   -1.9541 H   0  0  0  0  0  0  0  0  0  0  0  0
    1.9345    5.9644    0.4792 H   0  0  0  0  0  0  0  0  0  0  0  0
    1.1311   -1.1333    0.6022 N   0  0  0  0  0  0  0  0  0  0  0  0
    1.2690   -2.5307    0.9442 C   0  0  2  0  0  0  0  0  0  0  0  0
   -0.1052   -3.1787    0.8379 C   0  0  0  0  0  0  0  0  0  0  0  0
   -1.1543   -2.5422    0.9101 O   0  0  0  0  0  0  0  0  0  0  0  0
    1.8451   -2.7043    2.3409 C   0  0  0  0  0  0  0  0  0  0  0  0
    1.5264   -0.4413    1.2320 H   0  0  0  0  0  0  0  0  0  0  0  0
    1.9408   -2.9735    0.2008 H   0  0  0  0  0  0  0  0  0  0  0  0
    1.1858   -2.2667    3.0994 H   0  0  0  0  0  0  0  0  0  0  0  0
    1.9756   -3.7631    2.5875 H   0  0  0  0  0  0  0  0  0  0  0  0
    2.8201   -2.2121    2.4243 H   0  0  0  0  0  0  0  0  0  0  0  0
   -0.0227   -4.5568    0.6960 N   0  0  0  0  0  0  0  0  0  0  0  0
   -1.1899   -5.4006    0.5871 C   0  0  0  0  0  0  0  0  0  0  0  0
    0.8894   -4.9983    0.6264 H   0  0  0  0  0  0  0  0  0  0  0  0
   -1.4781   -5.7593    1.5862 H   0  0  0  0  0  0  0  0  0  0  0  0
   -2.0193   -4.8244    0.1512 H   0  0  0  0  0  0  0  0  0  0  0  0
   -0.9614   -6.2607   -0.0594 H   0  0  0  0  0  0  0  0  0  0  0  0
 22 24  2  0  0  0  0
 24 26  1  0  0  0  0
 23 25  2  0  0  0  0
 25 26  1  0  0  0  0
 21 22  1  0  0  0  0
 22 23  1  0  0  0  0
  1  3  1  0  0  0  0
  1  7  1  0  0  0  0
  1  2  2  0  0  0  0
 35 36  1  0  0  0  0
 36 44  1  0  0  0  0
 36 37  2  0  0  0  0
  8  9  1  0  0  0  0
  9 17  1  0  0  0  0
  9 10  2  0  0  0  0
 18 19  1  0  0  0  0
 19 34  1  0  0  0  0
 19 20  2  0  0  0  0
 35 38  1  0  0  0  0
  8 11  1  0  0  0  0
 44 45  1  0  0  0  0
 18 21  1  0  0  0  0
 34 35  1  0  0  0  0
  7  8  1  0  0  0  0
 17 18  1  0  0  0  0
 24 31  1  0  0  0  0
 25 32  1  0  0  0  0
  3  4  1  0  0  0  0
  3  5  1  0  0  0  0
  3  6  1  0  0  0  0
 38 41  1  0  0  0  0
 38 42  1  0  0  0  0
 38 43  1  0  0  0  0
 11 14  1  0  0  0  0
 11 15  1  0  0  0  0
 11 16  1  0  0  0  0
 45 47  1  0  0  0  0
 45 48  1  0  0  0  0
 45 49  1  0  0  0  0
 21 29  1  0  0  0  0
 21 30  1  0  0  0  0
 35 40  1  0  0  0  0
  8 13  1  0  0  0  0
 18 28  1  0  0  0  0
 26 33  1  0  0  0  0
 44 46  1  0  0  0  0
  7 12  1  0  0  0  0
 34 39  1  0  0  0  0
 17 27  1  0  0  0  0
M  END
$$$$

  -OEChem-05262214473D

 49 49  0     1  0  0  0  0  0999 V2000
   -1.6183    0.5613    3.8201 C   0  0  0  0  0  0  0  0  0  0  0  0
   -0.6710   -0.0534    3.3444 O   0  0  0  0  0  0  0  0  0  0  0  0
   -2.0502    0.2789    5.2208 C   0  0  0  0  0  0  0  0  0  0  0  0
   -2.8099   -0.5175    5.2742 H   0  0  0  0  0  0  0  0  0  0  0  0
   -1.2190   -0.0687    5.8551 H   0  0  0  0  0  0  0  0  0  0  0  0
   -2.4882    1.1338    5.7604 H   0  0  0  0  0  0  0  0  0  0  0  0
   -2.3680    1.5337    3.1790 N   0  0  0  0  0  0  0  0  0  0  0  0
   -2.1212    1.9597    1.8266 C   0  0  2  0  0  0  0  0  0  0  0  0
   -0.7862    1.3744    1.3854 C   0  0  0  0  0  0  0  0  0  0  0  0
    0.0859    1.0216    2.1767 O   0  0  0  0  0  0  0  0  0  0  0  0
   -2.1124    3.4765    1.7171 C   0  0  0  0  0  0  0  0  0  0  0  0
   -3.1331    1.9695    3.6908 H   0  0  0  0  0  0  0  0  0  0  0  0
   -2.9253    1.5413    1.2115 H   0  0  0  0  0  0  0  0  0  0  0  0
   -1.3133    3.9138    2.3268 H   0  0  0  0  0  0  0  0  0  0  0  0
   -1.9529    3.7988    0.6829 H   0  0  0  0  0  0  0  0  0  0  0  0
   -3.0626    3.8977    2.0629 H   0  0  0  0  0  0  0  0  0  0  0  0
   -0.6635    1.3313    0.0020 N   0  0  0  0  0  0  0  0  0  0  0  0
    0.5138    0.8305   -0.6617 C   0  0  2  0  0  0  0  0  0  0  0  0
    0.4859   -0.6892   -0.5437 C   0  0  0  0  0  0  0  0  0  0  0  0
    0.2360   -1.4296   -1.4925 O   0  0  0  0  0  0  0  0  0  0  0  0
    1.8043    1.3889   -0.0511 C   0  0  0  0  0  0  0  0  0  0  0  0
    1.9273    2.8843   -0.2132 C   0  0  0  0  0  0  0  0  0  0  0  0
    2.2523    3.4305   -1.4296 N   0  0  0  0  0  0  0  0  0  0  0  0
    1.7526    3.8608    0.7389 C   0  0  0  0  0  0  0  0  0  0  0  0
    2.2744    4.7279   -1.2188 C   0  0  0  0  0  0  0  0  0  0  0  0
    1.9787    5.0363    0.0799 N   0  0  0  0  0  0  0  0  0  0  0  0
   -1.4467    1.6280   -0.5753 H   0  0  0  0  0  0  0  0  0  0  0  0
    0.4200    1.1102   -1.7176 H   0  0  0  0  0  0  0  0  0  0  0  0
    2.6797    0.8959   -0.4953 H   0  0  0  0  0  0  0  0  0  0  0  0
    1.8546    1.1540    1.0204 H   0  0  0  0  0  0  0  0  0  0  0  0
    1.4977    3.8313    1.7885 H   0  0  0  0  0  0  0  0  0  0  0  0
    2.4944    5.4889   -1.9541 H   0  0  0  0  0  0  0  0  0  0  0  0
    1.9345    5.9644    0.4792 H   0  0  0  0  0  0  0  0  0  0  0  0
    0.8221   -1.1175    0.7331 N   0  0  0  0  0  0  0  0  0  0  0  0
    0.8941   -2.5110    1.1094 C   0  0  2  0  0  0  0  0  0  0  0  0
   -0.3932   -3.1875    0.6569 C   0  0  0  0  0  0  0  0  0  0  0  0
   -1.4376   -2.5726    0.4514 O   0  0  0  0  0  0  0  0  0  0  0  0
    1.0936   -2.6697    2.6086 C   0  0  0  0  0  0  0  0  0  0  0  0
    1.0279   -0.4162    1.4385 H   0  0  0  0  0  0  0  0  0  0  0  0
    1.7434   -2.9414    0.5677 H   0  0  0  0  0  0  0  0  0  0  0  0
    0.2525   -2.2443    3.1681 H   0  0  0  0  0  0  0  0  0  0  0  0
    1.1765   -3.7252    2.8883 H   0  0  0  0  0  0  0  0  0  0  0  0
    2.0043   -2.1573    2.9370 H   0  0  0  0  0  0  0  0  0  0  0  0
   -0.2502   -4.5639    0.5512 N   0  0  0  0  0  0  0  0  0  0  0  0
   -1.3331   -5.4318    0.1512 C   0  0  0  0  0  0  0  0  0  0  0  0
    0.6574   -4.9866    0.7225 H   0  0  0  0  0  0  0  0  0  0  0  0
   -1.8624   -5.7944    1.0447 H   0  0  0  0  0  0  0  0  0  0  0  0
   -2.0330   -4.8738   -0.4882 H   0  0  0  0  0  0  0  0  0  0  0  0
   -0.9289   -6.2884   -0.4082 H   0  0  0  0  0  0  0  0  0  0  0  0
 22 24  2  0  0  0  0
 24 26  1  0  0  0  0
 23 25  2  0  0  0  0
 25 26  1  0  0  0  0
 21 22  1  0  0  0  0
 22 23  1  0  0  0  0
  1  3  1  0  0  0  0
  1  7  1  0  0  0  0
  1  2  2  0  0  0  0
 35 36  1  0  0  0  0
 36 44  1  0  0  0  0
 36 37  2  0  0  0  0
  8  9  1  0  0  0  0
  9 17  1  0  0  0  0
  9 10  2  0  0  0  0
 18 19  1  0  0  0  0
 19 34  1  0  0  0  0
 19 20  2  0  0  0  0
 35 38  1  0  0  0  0
  8 11  1  0  0  0  0
 44 45  1  0  0  0  0
 18 21  1  0  0  0  0
 34 35  1  0  0  0  0
  7  8  1  0  0  0  0
 17 18  1  0  0  0  0
 24 31  1  0  0  0  0
 25 32  1  0  0  0  0
  3  4  1  0  0  0  0
  3  5  1  0  0  0  0
  3  6  1  0  0  0  0
 38 41  1  0  0  0  0
 38 42  1  0  0  0  0
 38 43  1  0  0  0  0
 11 14  1  0  0  0  0
 11 15  1  0  0  0  0
 11 16  1  0  0  0  0
 45 47  1  0  0  0  0
 45 48  1  0  0  0  0
 45 49  1  0  0  0  0
 21 29  1  0  0  0  0
 21 30  1  0  0  0  0
 35 40  1  0  0  0  0
  8 13  1  0  0  0  0
 18 28  1  0  0  0  0
 26 33  1  0  0  0  0
 44 46  1  0  0  0  0
  7 12  1  0  0  0  0
 34 39  1  0  0  0  0
 17 27  1  0  0  0  0
M  END
$$$$

  -OEChem-05262214473D

 49 49  0     1  0  0  0  0  0999 V2000
   -1.6183    0.5613    3.8201 C   0  0  0  0  0  0  0  0  0  0  0  0
   -0.6710   -0.0534    3.3444 O   0  0  0  0  0  0  0  0  0  0  0  0
   -2.0502    0.2789    5.2208 C   0  0  0  0  0  0  0  0  0  0  0  0
   -2.8099   -0.5175    5.2742 H   0  0  0  0  0  0  0  0  0  0  0  0
   -1.2190   -0.0687    5.8551 H   0  0  0  0  0  0  0  0  0  0  0  0
   -2.4882    1.1338    5.7604 H   0  0  0  0  0  0  0  0  0  0  0  0
   -2.3680    1.5337    3.1790 N   0  0  0  0  0  0  0  0  0  0  0  0
   -2.1212    1.9597    1.8266 C   0  0  2  0  0  0  0  0  0  0  0  0
   -0.7862    1.3744    1.3854 C   0  0  0  0  0  0  0  0  0  0  0  0
    0.0859    1.0216    2.1767 O   0  0  0  0  0  0  0  0  0  0  0  0
   -2.1124    3.4765    1.7171 C   0  0  0  0  0  0  0  0  0  0  0  0
   -3.1331    1.9695    3.6908 H   0  0  0  0  0  0  0  0  0  0  0  0
   -2.9253    1.5413    1.2115 H   0  0  0  0  0  0  0  0  0  0  0  0
   -1.3133    3.9138    2.3268 H   0  0  0  0  0  0  0  0  0  0  0  0
   -1.9529    3.7988    0.6829 H   0  0  0  0  0  0  0  0  0  0  0  0
   -3.0626    3.8977    2.0629 H   0  0  0  0  0  0  0  0  0  0  0  0
   -0.6635    1.3313    0.0020 N   0  0  0  0  0  0  0  0  0  0  0  0
    0.5138    0.8305   -0.6617 C   0  0  2  0  0  0  0  0  0  0  0  0
    0.4859   -0.6892   -0.5437 C   0  0  0  0  0  0  0  0  0  0  0  0
    0.5037   -1.4366   -1.5194 O   0  0  0  0  0  0  0  0  0  0  0  0
    1.8043    1.3889   -0.0511 C   0  0  0  0  0  0  0  0  0  0  0  0
    1.9273    2.8843   -0.2132 C   0  0  0  0  0  0  0  0  0  0  0  0
    2.2523    3.4305   -1.4296 N   0  0  0  0  0  0  0  0  0  0  0  0
    1.7526    3.8608    0.7389 C   0  0  0  0  0  0  0  0  0  0  0  0
    2.2744    4.7279   -1.2188 C   0  0  0  0  0  0  0  0  0  0  0  0
    1.9787    5.0363    0.0799 N   0  0  0  0  0  0  0  0  0  0  0  0
   -1.4467    1.6280   -0.5753 H   0  0  0  0  0  0  0  0  0  0  0  0
    0.4200    1.1102   -1.7176 H   0  0  0  0  0  0  0  0  0  0  0  0
    2.6797    0.8959   -0.4953 H   0  0  0  0  0  0  0  0  0  0  0  0
    1.8546    1.1540    1.0204 H   0  0  0  0  0  0  0  0  0  0  0  0
    1.4977    3.8313    1.7885 H   0  0  0  0  0  0  0  0  0  0  0  0
    2.4944    5.4889   -1.9541 H   0  0  0  0  0  0  0  0  0  0  0  0
    1.9345    5.9644    0.4792 H   0  0  0  0  0  0  0  0  0  0  0  0
    0.4895   -1.1078    0.7797 N   0  0  0  0  0  0  0  0  0  0  0  0
    0.4890   -2.4988    1.1721 C   0  0  2  0  0  0  0  0  0  0  0  0
   -0.6246   -3.2026    0.4078 C   0  0  0  0  0  0  0  0  0  0  0  0
   -1.5923   -2.6099   -0.0647 O   0  0  0  0  0  0  0  0  0  0  0  0
    0.2979   -2.6502    2.6731 C   0  0  0  0  0  0  0  0  0  0  0  0
    0.4926   -0.4009    1.5091 H   0  0  0  0  0  0  0  0  0  0  0  0
    1.4575   -2.9127    0.8710 H   0  0  0  0  0  0  0  0  0  0  0  0
   -0.6672   -2.2410    2.9936 H   0  0  0  0  0  0  0  0  0  0  0  0
    0.3263   -3.7031    2.9725 H   0  0  0  0  0  0  0  0  0  0  0  0
    1.0829   -2.1184    3.2216 H   0  0  0  0  0  0  0  0  0  0  0  0
   -0.4325   -4.5760    0.3527 N   0  0  0  0  0  0  0  0  0  0  0  0
   -1.3584   -5.4669   -0.3067 C   0  0  0  0  0  0  0  0  0  0  0  0
    0.4082   -4.9795    0.7554 H   0  0  0  0  0  0  0  0  0  0  0  0
   -2.0932   -5.8384    0.4227 H   0  0  0  0  0  0  0  0  0  0  0  0
   -1.8803   -4.9248   -1.1091 H   0  0  0  0  0  0  0  0  0  0  0  0
   -0.8070   -6.3161   -0.7365 H   0  0  0  0  0  0  0  0  0  0  0  0
 22 24  2  0  0  0  0
 24 26  1  0  0  0  0
 23 25  2  0  0  0  0
 25 26  1  0  0  0  0
 21 22  1  0  0  0  0
 22 23  1  0  0  0  0
  1  3  1  0  0  0  0
  1  7  1  0  0  0  0
  1  2  2  0  0  0  0
 35 36  1  0  0  0  0
 36 44  1  0  0  0  0
 36 37  2  0  0  0  0
  8  9  1  0  0  0  0
  9 17  1  0  0  0  0
  9 10  2  0  0  0  0
 18 19  1  0  0  0  0
 19 34  1  0  0  0  0
 19 20  2  0  0  0  0
 35 38  1  0  0  0  0
  8 11  1  0  0  0  0
 44 45  1  0  0  0  0
 18 21  1  0  0  0  0
 34 35  1  0  0  0  0
  7  8  1  0  0  0  0
 17 18  1  0  0  0  0
 24 31  1  0  0  0  0
 25 32  1  0  0  0  0
  3  4  1  0  0  0  0
  3  5  1  0  0  0  0
  3  6  1  0  0  0  0
 38 41  1  0  0  0  0
 38 42  1  0  0  0  0
 38 43  1  0  0  0  0
 11 14  1  0  0  0  0
 11 15  1  0  0  0  0
 11 16  1  0  0  0  0
 45 47  1  0  0  0  0
 45 48  1  0  0  0  0
 45 49  1  0  0  0  0
 21 29  1  0  0  0  0
 21 30  1  0  0  0  0
 35 40  1  0  0  0  0
  8 13  1  0  0  0  0
 18 28  1  0  0  0  0
 26 33  1  0  0  0  0
 44 46  1  0  0  0  0
  7 12  1  0  0  0  0
 34 39  1  0  0  0  0
 17 27  1  0  0  0  0
M  END
$$$$

  -OEChem-05262214473D

 49 49  0     1  0  0  0  0  0999 V2000
   -1.6183    0.5613    3.8201 C   0  0  0  0  0  0  0  0  0  0  0  0
   -0.6710   -0.0534    3.3444 O   0  0  0  0  0  0  0  0  0  0  0  0
   -2.0502    0.2789    5.2208 C   0  0  0  0  0  0  0  0  0  0  0  0
   -2.8099   -0.5175    5.2742 H   0  0  0  0  0  0  0  0  0  0  0  0
   -1.2190   -0.0687    5.8551 H   0  0  0  0  0  0  0  0  0  0  0  0
   -2.4882    1.1338    5.7604 H   0  0  0  0  0  0  0  0  0  0  0  0
   -2.3680    1.5337    3.1790 N   0  0  0  0  0  0  0  0  0  0  0  0
   -2.1212    1.9597    1.8266 C   0  0  2  0  0  0  0  0  0  0  0  0
   -0.7862    1.3744    1.3854 C   0  0  0  0  0  0  0  0  0  0  0  0
    0.0859    1.0216    2.1767 O   0  0  0  0  0  0  0  0  0  0  0  0
   -2.1124    3.4765    1.7171 C   0  0  0  0  0  0  0  0  0  0  0  0
   -3.1331    1.9695    3.6908 H   0  0  0  0  0  0  0  0  0  0  0  0
   -2.9253    1.5413    1.2115 H   0  0  0  0  0  0  0  0  0  0  0  0
   -1.3133    3.9138    2.3268 H   0  0  0  0  0  0  0  0  0  0  0  0
   -1.9529    3.7988    0.6829 H   0  0  0  0  0  0  0  0  0  0  0  0
   -3.0626    3.8977    2.0629 H   0  0  0  0  0  0  0  0  0  0  0  0
   -0.6635    1.3313    0.0020 N   0  0  0  0  0  0  0  0  0  0  0  0
    0.5138    0.8305   -0.6617 C   0  0  2  0  0  0  0  0  0  0  0  0
    0.4859   -0.6892   -0.5437 C   0  0  0  0  0  0  0  0  0  0  0  0
    0.7694   -1.4381   -1.4763 O   0  0  0  0  0  0  0  0  0  0  0  0
    1.8043    1.3889   -0.0511 C   0  0  0  0  0  0  0  0  0  0  0  0
    1.9273    2.8843   -0.2132 C   0  0  0  0  0  0  0  0  0  0  0  0
    2.2523    3.4305   -1.4296 N   0  0  0  0  0  0  0  0  0  0  0  0
    1.7526    3.8608    0.7389 C   0  0  0  0  0  0  0  0  0  0  0  0
    2.2744    4.7279   -1.2188 C   0  0  0  0  0  0  0  0  0  0  0  0
    1.9787    5.0363    0.0799 N   0  0  0  0  0  0  0  0  0  0  0  0
   -1.4467    1.6280   -0.5753 H   0  0  0  0  0  0  0  0  0  0  0  0
    0.4200    1.1102   -1.7176 H   0  0  0  0  0  0  0  0  0  0  0  0
    2.6797    0.8959   -0.4953 H   0  0  0  0  0  0  0  0  0  0  0  0
    1.8546    1.1540    1.0204 H   0  0  0  0  0  0  0  0  0  0  0  0
    1.4977    3.8313    1.7885 H   0  0  0  0  0  0  0  0  0  0  0  0
    2.4944    5.4889   -1.9541 H   0  0  0  0  0  0  0  0  0  0  0  0
    1.9345    5.9644    0.4792 H   0  0  0  0  0  0  0  0  0  0  0  0
    0.1560   -1.1048    0.7389 N   0  0  0  0  0  0  0  0  0  0  0  0
    0.0813   -2.4947    1.1280 C   0  0  2  0  0  0  0  0  0  0  0  0
   -0.7835   -3.2230    0.1076 C   0  0  0  0  0  0  0  0  0  0  0  0
   -1.6078   -2.6514   -0.6029 O   0  0  0  0  0  0  0  0  0  0  0  0
   -0.4877   -2.6469    2.5301 C   0  0  0  0  0  0  0  0  0  0  0  0
   -0.0429   -0.3965    1.4392 H   0  0  0  0  0  0  0  0  0  0  0  0
    1.1026   -2.8891    1.0900 H   0  0  0  0  0  0  0  0  0  0  0  0
   -1.5106   -2.2571    2.5877 H   0  0  0  0  0  0  0  0  0  0  0  0
   -0.5171   -3.6984    2.8344 H   0  0  0  0  0  0  0  0  0  0  0  0
    0.1187   -2.0979    3.2585 H   0  0  0  0  0  0  0  0  0  0  0  0
   -0.5570   -4.5922    0.1140 N   0  0  0  0  0  0  0  0  0  0  0  0
   -1.2640   -5.5035   -0.7554 C   0  0  0  0  0  0  0  0  0  0  0  0
    0.1589   -4.9774    0.7229 H   0  0  0  0  0  0  0  0  0  0  0  0
   -2.1547   -5.8886   -0.2375 H   0  0  0  0  0  0  0  0  0  0  0  0
   -1.5716   -4.9739   -1.6692 H   0  0  0  0  0  0  0  0  0  0  0  0
   -0.6039   -6.3420   -1.0222 H   0  0  0  0  0  0  0  0  0  0  0  0
 22 24  2  0  0  0  0
 24 26  1  0  0  0  0
 23 25  2  0  0  0  0
 25 26  1  0  0  0  0
 21 22  1  0  0  0  0
 22 23  1  0  0  0  0
  1  3  1  0  0  0  0
  1  7  1  0  0  0  0
  1  2  2  0  0  0  0
 35 36  1  0  0  0  0
 36 44  1  0  0  0  0
 36 37  2  0  0  0  0
  8  9  1  0  0  0  0
  9 17  1  0  0  0  0
  9 10  2  0  0  0  0
 18 19  1  0  0  0  0
 19 34  1  0  0  0  0
 19 20  2  0  0  0  0
 35 38  1  0  0  0  0
  8 11  1  0  0  0  0
 44 45  1  0  0  0  0
 18 21  1  0  0  0  0
 34 35  1  0  0  0  0
  7  8  1  0  0  0  0
 17 18  1  0  0  0  0
 24 31  1  0  0  0  0
 25 32  1  0  0  0  0
  3  4  1  0  0  0  0
  3  5  1  0  0  0  0
  3  6  1  0  0  0  0
 38 41  1  0  0  0  0
 38 42  1  0  0  0  0
 38 43  1  0  0  0  0
 11 14  1  0  0  0  0
 11 15  1  0  0  0  0
 11 16  1  0  0  0  0
 45 47  1  0  0  0  0
 45 48  1  0  0  0  0
 45 49  1  0  0  0  0
 21 29  1  0  0  0  0
 21 30  1  0  0  0  0
 35 40  1  0  0  0  0
  8 13  1  0  0  0  0
 18 28  1  0  0  0  0
 26 33  1  0  0  0  0
 44 46  1  0  0  0  0
  7 12  1  0  0  0  0
 34 39  1  0  0  0  0
 17 27  1  0  0  0  0
M  END
$$$$

  -OEChem-05262214473D

 49 49  0     1  0  0  0  0  0999 V2000
   -1.6183    0.5613    3.8201 C   0  0  0  0  0  0  0  0  0  0  0  0
   -0.6710   -0.0534    3.3444 O   0  0  0  0  0  0  0  0  0  0  0  0
   -2.0502    0.2789    5.2208 C   0  0  0  0  0  0  0  0  0  0  0  0
   -2.8099   -0.5175    5.2742 H   0  0  0  0  0  0  0  0  0  0  0  0
   -1.2190   -0.0687    5.8551 H   0  0  0  0  0  0  0  0  0  0  0  0
   -2.4882    1.1338    5.7604 H   0  0  0  0  0  0  0  0  0  0  0  0
   -2.3680    1.5337    3.1790 N   0  0  0  0  0  0  0  0  0  0  0  0
   -2.1212    1.9597    1.8266 C   0  0  2  0  0  0  0  0  0  0  0  0
   -0.7862    1.3744    1.3854 C   0  0  0  0  0  0  0  0  0  0  0  0
    0.0859    1.0216    2.1767 O   0  0  0  0  0  0  0  0  0  0  0  0
   -2.1124    3.4765    1.7171 C   0  0  0  0  0  0  0  0  0  0  0  0
   -3.1331    1.9695    3.6908 H   0  0  0  0  0  0  0  0  0  0  0  0
   -2.9253    1.5413    1.2115 H   0  0  0  0  0  0  0  0  0  0  0  0
   -1.3133    3.9138    2.3268 H   0  0  0  0  0  0  0  0  0  0  0  0
   -1.9529    3.7988    0.6829 H   0  0  0  0  0  0  0  0  0  0  0  0
   -3.0626    3.8977    2.0629 H   0  0  0  0  0  0  0  0  0  0  0  0
   -0.6635    1.3313    0.0020 N   0  0  0  0  0  0  0  0  0  0  0  0
    0.5138    0.8305   -0.6617 C   0  0  2  0  0  0  0  0  0  0  0  0
    0.4859   -0.6892   -0.5437 C   0  0  0  0  0  0  0  0  0  0  0  0
    1.0149   -1.4340   -1.3661 O   0  0  0  0  0  0  0  0  0  0  0  0
    1.8043    1.3889   -0.0511 C   0  0  0  0  0  0  0  0  0  0  0  0
    1.9273    2.8843   -0.2132 C   0  0  0  0  0  0  0  0  0  0  0  0
    2.2523    3.4305   -1.4296 N   0  0  0  0  0  0  0  0  0  0  0  0
    1.7526    3.8608    0.7389 C   0  0  0  0  0  0  0  0  0  0  0  0
    2.2744    4.7279   -1.2188 C   0  0  0  0  0  0  0  0  0  0  0  0
    1.9787    5.0363    0.0799 N   0  0  0  0  0  0  0  0  0  0  0  0
   -1.4467    1.6280   -0.5753 H   0  0  0  0  0  0  0  0  0  0  0  0
    0.4200    1.1102   -1.7176 H   0  0  0  0  0  0  0  0  0  0  0  0
    2.6797    0.8959   -0.4953 H   0  0  0  0  0  0  0  0  0  0  0  0
    1.8546    1.1540    1.0204 H   0  0  0  0  0  0  0  0  0  0  0  0
    1.4977    3.8313    1.7885 H   0  0  0  0  0  0  0  0  0  0  0  0
    2.4944    5.4889   -1.9541 H   0  0  0  0  0  0  0  0  0  0  0  0
    1.9345    5.9644    0.4792 H   0  0  0  0  0  0  0  0  0  0  0  0
   -0.1556   -1.1089    0.6134 N   0  0  0  0  0  0  0  0  0  0  0  0
   -0.3013   -2.4992    0.9803 C   0  0  2  0  0  0  0  0  0  0  0  0
   -0.8591   -3.2473   -0.2233 C   0  0  0  0  0  0  0  0  0  0  0  0
   -1.4832   -2.6943   -1.1265 O   0  0  0  0  0  0  0  0  0  0  0  0
   -1.2097   -2.6601    2.1892 C   0  0  0  0  0  0  0  0  0  0  0  0
   -0.5422   -0.4033    1.2335 H   0  0  0  0  0  0  0  0  0  0  0  0
    0.7027   -2.8725    1.2099 H   0  0  0  0  0  0  0  0  0  0  0  0
   -2.2202   -2.2915    1.9782 H   0  0  0  0  0  0  0  0  0  0  0  0
   -1.2962   -3.7113    2.4834 H   0  0  0  0  0  0  0  0  0  0  0  0
   -0.8226   -2.0972    3.0454 H   0  0  0  0  0  0  0  0  0  0  0  0
   -0.6155   -4.6116   -0.1486 N   0  0  0  0  0  0  0  0  0  0  0  0
   -1.0563   -5.5390   -1.1642 C   0  0  0  0  0  0  0  0  0  0  0  0
   -0.0735   -4.9806    0.6272 H   0  0  0  0  0  0  0  0  0  0  0  0
   -2.0429   -5.9413   -0.8908 H   0  0  0  0  0  0  0  0  0  0  0  0
   -1.1279   -5.0178   -2.1303 H   0  0  0  0  0  0  0  0  0  0  0  0
   -0.3336   -6.3643   -1.2455 H   0  0  0  0  0  0  0  0  0  0  0  0
 22 24  2  0  0  0  0
 24 26  1  0  0  0  0
 23 25  2  0  0  0  0
 25 26  1  0  0  0  0
 21 22  1  0  0  0  0
 22 23  1  0  0  0  0
  1  3  1  0  0  0  0
  1  7  1  0  0  0  0
  1  2  2  0  0  0  0
 35 36  1  0  0  0  0
 36 44  1  0  0  0  0
 36 37  2  0  0  0  0
  8  9  1  0  0  0  0
  9 17  1  0  0  0  0
  9 10  2  0  0  0  0
 18 19  1  0  0  0  0
 19 34  1  0  0  0  0
 19 20  2  0  0  0  0
 35 38  1  0  0  0  0
  8 11  1  0  0  0  0
 44 45  1  0  0  0  0
 18 21  1  0  0  0  0
 34 35  1  0  0  0  0
  7  8  1  0  0  0  0
 17 18  1  0  0  0  0
 24 31  1  0  0  0  0
 25 32  1  0  0  0  0
  3  4  1  0  0  0  0
  3  5  1  0  0  0  0
  3  6  1  0  0  0  0
 38 41  1  0  0  0  0
 38 42  1  0  0  0  0
 38 43  1  0  0  0  0
 11 14  1  0  0  0  0
 11 15  1  0  0  0  0
 11 16  1  0  0  0  0
 45 47  1  0  0  0  0
 45 48  1  0  0  0  0
 45 49  1  0  0  0  0
 21 29  1  0  0  0  0
 21 30  1  0  0  0  0
 35 40  1  0  0  0  0
  8 13  1  0  0  0  0
 18 28  1  0  0  0  0
 26 33  1  0  0  0  0
 44 46  1  0  0  0  0
  7 12  1  0  0  0  0
 34 39  1  0  0  0  0
 17 27  1  0  0  0  0
M  END
$$$$

  -OEChem-05262214473D

 49 49  0     1  0  0  0  0  0999 V2000
   -1.6183    0.5613    3.8201 C   0  0  0  0  0  0  0  0  0  0  0  0
   -0.6710   -0.0534    3.3444 O   0  0  0  0  0  0  0  0  0  0  0  0
   -2.0502    0.2789    5.2208 C   0  0  0  0  0  0  0  0  0  0  0  0
   -2.8099   -0.5175    5.2742 H   0  0  0  0  0  0  0  0  0  0  0  0
   -1.2190   -0.0687    5.8551 H   0  0  0  0  0  0  0  0  0  0  0  0
   -2.4882    1.1338    5.7604 H   0  0  0  0  0  0  0  0  0  0  0  0
   -2.3680    1.5337    3.1790 N   0  0  0  0  0  0  0  0  0  0  0  0
   -2.1212    1.9597    1.8266 C   0  0  2  0  0  0  0  0  0  0  0  0
   -0.7862    1.3744    1.3854 C   0  0  0  0  0  0  0  0  0  0  0  0
    0.0859    1.0216    2.1767 O   0  0  0  0  0  0  0  0  0  0  0  0
   -2.1124    3.4765    1.7171 C   0  0  0  0  0  0  0  0  0  0  0  0
   -3.1331    1.9695    3.6908 H   0  0  0  0  0  0  0  0  0  0  0  0
   -2.9253    1.5413    1.2115 H   0  0  0  0  0  0  0  0  0  0  0  0
   -1.3133    3.9138    2.3268 H   0  0  0  0  0  0  0  0  0  0  0  0
   -1.9529    3.7988    0.6829 H   0  0  0  0  0  0  0  0  0  0  0  0
   -3.0626    3.8977    2.0629 H   0  0  0  0  0  0  0  0  0  0  0  0
   -0.6635    1.3313    0.0020 N   0  0  0  0  0  0  0  0  0  0  0  0
    0.5138    0.8305   -0.6617 C   0  0  2  0  0  0  0  0  0  0  0  0
    0.4859   -0.6892   -0.5437 C   0  0  0  0  0  0  0  0  0  0  0  0
    1.2236   -1.4246   -1.1963 O   0  0  0  0  0  0  0  0  0  0  0  0
    1.8043    1.3889   -0.0511 C   0  0  0  0  0  0  0  0  0  0  0  0
    1.9273    2.8843   -0.2132 C   0  0  0  0  0  0  0  0  0  0  0  0
    2.2523    3.4305   -1.4296 N   0  0  0  0  0  0  0  0  0  0  0  0
    1.7526    3.8608    0.7389 C   0  0  0  0  0  0  0  0  0  0  0  0
    2.2744    4.7279   -1.2188 C   0  0  0  0  0  0  0  0  0  0  0  0
    1.9787    5.0363    0.0799 N   0  0  0  0  0  0  0  0  0  0  0  0
   -1.4467    1.6280   -0.5753 H   0  0  0  0  0  0  0  0  0  0  0  0
    0.4200    1.1102   -1.7176 H   0  0  0  0  0  0  0  0  0  0  0  0
    2.6797    0.8959   -0.4953 H   0  0  0  0  0  0  0  0  0  0  0  0
    1.8546    1.1540    1.0204 H   0  0  0  0  0  0  0  0  0  0  0  0
    1.4977    3.8313    1.7885 H   0  0  0  0  0  0  0  0  0  0  0  0
    2.4944    5.4889   -1.9541 H   0  0  0  0  0  0  0  0  0  0  0  0
    1.9345    5.9644    0.4792 H   0  0  0  0  0  0  0  0  0  0  0  0
   -0.4242   -1.1196    0.4118 N   0  0  0  0  0  0  0  0  0  0  0  0
   -0.6326   -2.5119    0.7389 C   0  0  2  0  0  0  0  0  0  0  0  0
   -0.8463   -3.2738   -0.5623 C   0  0  0  0  0  0  0  0  0  0  0  0
   -1.2268   -2.7358   -1.6000 O   0  0  0  0  0  0  0  0  0  0  0  0
   -1.8189   -2.6890    1.6737 C   0  0  0  0  0  0  0  0  0  0  0  0
   -0.9714   -0.4209    0.9059 H   0  0  0  0  0  0  0  0  0  0  0  0
    0.2852   -2.8639    1.2225 H   0  0  0  0  0  0  0  0  0  0  0  0
   -2.7477   -2.3417    1.2065 H   0  0  0  0  0  0  0  0  0  0  0  0
   -1.9580   -3.7412    1.9434 H   0  0  0  0  0  0  0  0  0  0  0  0
   -1.6769   -2.1164    2.5966 H   0  0  0  0  0  0  0  0  0  0  0  0
   -0.6037   -4.6326   -0.4173 N   0  0  0  0  0  0  0  0  0  0  0  0
   -0.7495   -5.5711   -1.5054 C   0  0  0  0  0  0  0  0  0  0  0  0
   -0.2733   -4.9888    0.4748 H   0  0  0  0  0  0  0  0  0  0  0  0
   -1.7652   -5.9931   -1.4927 H   0  0  0  0  0  0  0  0  0  0  0  0
   -0.5795   -5.0536   -2.4610 H   0  0  0  0  0  0  0  0  0  0  0  0
   -0.0144   -6.3815   -1.3914 H   0  0  0  0  0  0  0  0  0  0  0  0
 22 24  2  0  0  0  0
 24 26  1  0  0  0  0
 23 25  2  0  0  0  0
 25 26  1  0  0  0  0
 21 22  1  0  0  0  0
 22 23  1  0  0  0  0
  1  3  1  0  0  0  0
  1  7  1  0  0  0  0
  1  2  2  0  0  0  0
 35 36  1  0  0  0  0
 36 44  1  0  0  0  0
 36 37  2  0  0  0  0
  8  9  1  0  0  0  0
  9 17  1  0  0  0  0
  9 10  2  0  0  0  0
 18 19  1  0  0  0  0
 19 34  1  0  0  0  0
 19 20  2  0  0  0  0
 35 38  1  0  0  0  0
  8 11  1  0  0  0  0
 44 45  1  0  0  0  0
 18 21  1  0  0  0  0
 34 35  1  0  0  0  0
  7  8  1  0  0  0  0
 17 18  1  0  0  0  0
 24 31  1  0  0  0  0
 25 32  1  0  0  0  0
  3  4  1  0  0  0  0
  3  5  1  0  0  0  0
  3  6  1  0  0  0  0
 38 41  1  0  0  0  0
 38 42  1  0  0  0  0
 38 43  1  0  0  0  0
 11 14  1  0  0  0  0
 11 15  1  0  0  0  0
 11 16  1  0  0  0  0
 45 47  1  0  0  0  0
 45 48  1  0  0  0  0
 45 49  1  0  0  0  0
 21 29  1  0  0  0  0
 21 30  1  0  0  0  0
 35 40  1  0  0  0  0
  8 13  1  0  0  0  0
 18 28  1  0  0  0  0
 26 33  1  0  0  0  0
 44 46  1  0  0  0  0
  7 12  1  0  0  0  0
 34 39  1  0  0  0  0
 17 27  1  0  0  0  0
M  END
$$$$

  -OEChem-05262214473D

 49 49  0     1  0  0  0  0  0999 V2000
   -1.6183    0.5613    3.8201 C   0  0  0  0  0  0  0  0  0  0  0  0
   -0.6710   -0.0534    3.3444 O   0  0  0  0  0  0  0  0  0  0  0  0
   -2.0502    0.2789    5.2208 C   0  0  0  0  0  0  0  0  0  0  0  0
   -2.8099   -0.5175    5.2742 H   0  0  0  0  0  0  0  0  0  0  0  0
   -1.2190   -0.0687    5.8551 H   0  0  0  0  0  0  0  0  0  0  0  0
   -2.4882    1.1338    5.7604 H   0  0  0  0  0  0  0  0  0  0  0  0
   -2.3680    1.5337    3.1790 N   0  0  0  0  0  0  0  0  0  0  0  0
   -2.1212    1.9597    1.8266 C   0  0  2  0  0  0  0  0  0  0  0  0
   -0.7862    1.3744    1.3854 C   0  0  0  0  0  0  0  0  0  0  0  0
    0.0859    1.0216    2.1767 O   0  0  0  0  0  0  0  0  0  0  0  0
   -2.1124    3.4765    1.7171 C   0  0  0  0  0  0  0  0  0  0  0  0
   -3.1331    1.9695    3.6908 H   0  0  0  0  0  0  0  0  0  0  0  0
   -2.9253    1.5413    1.2115 H   0  0  0  0  0  0  0  0  0  0  0  0
   -1.3133    3.9138    2.3268 H   0  0  0  0  0  0  0  0  0  0  0  0
   -1.9529    3.7988    0.6829 H   0  0  0  0  0  0  0  0  0  0  0  0
   -3.0626    3.8977    2.0629 H   0  0  0  0  0  0  0  0  0  0  0  0
   -0.6635    1.3313    0.0020 N   0  0  0  0  0  0  0  0  0  0  0  0
    0.5138    0.8305   -0.6617 C   0  0  2  0  0  0  0  0  0  0  0  0
    0.4859   -0.6892   -0.5437 C   0  0  0  0  0  0  0  0  0  0  0  0
    1.3812   -1.4106   -0.9785 O   0  0  0  0  0  0  0  0  0  0  0  0
    1.8043    1.3889   -0.0511 C   0  0  0  0  0  0  0  0  0  0  0  0
    1.9273    2.8843   -0.2132 C   0  0  0  0  0  0  0  0  0  0  0  0
    2.2523    3.4305   -1.4296 N   0  0  0  0  0  0  0  0  0  0  0  0
    1.7526    3.8608    0.7389 C   0  0  0  0  0  0  0  0  0  0  0  0
    2.2744    4.7279   -1.2188 C   0  0  0  0  0  0  0  0  0  0  0  0
    1.9787    5.0363    0.0799 N   0  0  0  0  0  0  0  0  0  0  0  0
   -1.4467    1.6280   -0.5753 H   0  0  0  0  0  0  0  0  0  0  0  0
    0.4200    1.1102   -1.7176 H   0  0  0  0  0  0  0  0  0  0  0  0
    2.6797    0.8959   -0.4953 H   0  0  0  0  0  0  0  0  0  0  0  0
    1.8546    1.1540    1.0204 H   0  0  0  0  0  0  0  0  0  0  0  0
    1.4977    3.8313    1.7885 H   0  0  0  0  0  0  0  0  0  0  0  0
    2.4944    5.4889   -1.9541 H   0  0  0  0  0  0  0  0  0  0  0  0
    1.9345    5.9644    0.4792 H   0  0  0  0  0  0  0  0  0  0  0  0
   -0.6314   -1.1363    0.1478 N   0  0  0  0  0  0  0  0  0  0  0  0
   -0.8901   -2.5319    0.4204 C   0  0  2  0  0  0  0  0  0  0  0  0
   -0.7460   -3.3008   -0.8863 C   0  0  0  0  0  0  0  0  0  0  0  0
   -0.8561   -2.7729   -1.9910 O   0  0  0  0  0  0  0  0  0  0  0  0
   -2.2738   -2.7315    1.0188 C   0  0  0  0  0  0  0  0  0  0  0  0
   -1.3010   -0.4480    0.4790 H   0  0  0  0  0  0  0  0  0  0  0  0
   -0.1215   -2.8639    1.1269 H   0  0  0  0  0  0  0  0  0  0  0  0
   -3.0571   -2.4045    0.3253 H   0  0  0  0  0  0  0  0  0  0  0  0
   -2.4573   -3.7858    1.2511 H   0  0  0  0  0  0  0  0  0  0  0  0
   -2.3858   -2.1542    1.9429 H   0  0  0  0  0  0  0  0  0  0  0  0
   -0.5227   -4.6540   -0.6736 N   0  0  0  0  0  0  0  0  0  0  0  0
   -0.3645   -5.5976   -1.7556 C   0  0  0  0  0  0  0  0  0  0  0  0
   -0.4268   -5.0014    0.2760 H   0  0  0  0  0  0  0  0  0  0  0  0
   -1.3407   -6.0405   -2.0023 H   0  0  0  0  0  0  0  0  0  0  0  0
    0.0363   -5.0786   -2.6388 H   0  0  0  0  0  0  0  0  0  0  0  0
    0.3319   -6.3923   -1.4499 H   0  0  0  0  0  0  0  0  0  0  0  0
 22 24  2  0  0  0  0
 24 26  1  0  0  0  0
 23 25  2  0  0  0  0
 25 26  1  0  0  0  0
 21 22  1  0  0  0  0
 22 23  1  0  0  0  0
  1  3  1  0  0  0  0
  1  7  1  0  0  0  0
  1  2  2  0  0  0  0
 35 36  1  0  0  0  0
 36 44  1  0  0  0  0
 36 37  2  0  0  0  0
  8  9  1  0  0  0  0
  9 17  1  0  0  0  0
  9 10  2  0  0  0  0
 18 19  1  0  0  0  0
 19 34  1  0  0  0  0
 19 20  2  0  0  0  0
 35 38  1  0  0  0  0
  8 11  1  0  0  0  0
 44 45  1  0  0  0  0
 18 21  1  0  0  0  0
 34 35  1  0  0  0  0
  7  8  1  0  0  0  0
 17 18  1  0  0  0  0
 24 31  1  0  0  0  0
 25 32  1  0  0  0  0
  3  4  1  0  0  0  0
  3  5  1  0  0  0  0
  3  6  1  0  0  0  0
 38 41  1  0  0  0  0
 38 42  1  0  0  0  0
 38 43  1  0  0  0  0
 11 14  1  0  0  0  0
 11 15  1  0  0  0  0
 11 16  1  0  0  0  0
 45 47  1  0  0  0  0
 45 48  1  0  0  0  0
 45 49  1  0  0  0  0
 21 29  1  0  0  0  0
 21 30  1  0  0  0  0
 35 40  1  0  0  0  0
  8 13  1  0  0  0  0
 18 28  1  0  0  0  0
 26 33  1  0  0  0  0
 44 46  1  0  0  0  0
  7 12  1  0  0  0  0
 34 39  1  0  0  0  0
 17 27  1  0  0  0  0
M  END
$$$$

  -OEChem-05262214473D

 49 49  0     1  0  0  0  0  0999 V2000
   -1.6183    0.5613    3.8201 C   0  0  0  0  0  0  0  0  0  0  0  0
   -0.6710   -0.0534    3.3444 O   0  0  0  0  0  0  0  0  0  0  0  0
   -2.0502    0.2789    5.2208 C   0  0  0  0  0  0  0  0  0  0  0  0
   -2.8099   -0.5175    5.2742 H   0  0  0  0  0  0  0  0  0  0  0  0
   -1.2190   -0.0687    5.8551 H   0  0  0  0  0  0  0  0  0  0  0  0
   -2.4882    1.1338    5.7604 H   0  0  0  0  0  0  0  0  0  0  0  0
   -2.3680    1.5337    3.1790 N   0  0  0  0  0  0  0  0  0  0  0  0
   -2.1212    1.9597    1.8266 C   0  0  2  0  0  0  0  0  0  0  0  0
   -0.7862    1.3744    1.3854 C   0  0  0  0  0  0  0  0  0  0  0  0
    0.0859    1.0216    2.1767 O   0  0  0  0  0  0  0  0  0  0  0  0
   -2.1124    3.4765    1.7171 C   0  0  0  0  0  0  0  0  0  0  0  0
   -3.1331    1.9695    3.6908 H   0  0  0  0  0  0  0  0  0  0  0  0
   -2.9253    1.5413    1.2115 H   0  0  0  0  0  0  0  0  0  0  0  0
   -1.3133    3.9138    2.3268 H   0  0  0  0  0  0  0  0  0  0  0  0
   -1.9529    3.7988    0.6829 H   0  0  0  0  0  0  0  0  0  0  0  0
   -3.0626    3.8977    2.0629 H   0  0  0  0  0  0  0  0  0  0  0  0
   -0.6635    1.3313    0.0020 N   0  0  0  0  0  0  0  0  0  0  0  0
    0.5138    0.8305   -0.6617 C   0  0  2  0  0  0  0  0  0  0  0  0
    0.4859   -0.6892   -0.5437 C   0  0  0  0  0  0  0  0  0  0  0  0
    1.4769   -1.3929   -0.7276 O   0  0  0  0  0  0  0  0  0  0  0  0
    1.8043    1.3889   -0.0511 C   0  0  0  0  0  0  0  0  0  0  0  0
    1.9273    2.8843   -0.2132 C   0  0  0  0  0  0  0  0  0  0  0  0
    2.2523    3.4305   -1.4296 N   0  0  0  0  0  0  0  0  0  0  0  0
    1.7526    3.8608    0.7389 C   0  0  0  0  0  0  0  0  0  0  0  0
    2.2744    4.7279   -1.2188 C   0  0  0  0  0  0  0  0  0  0  0  0
    1.9787    5.0363    0.0799 N   0  0  0  0  0  0  0  0  0  0  0  0
   -1.4467    1.6280   -0.5753 H   0  0  0  0  0  0  0  0  0  0  0  0
    0.4200    1.1102   -1.7176 H   0  0  0  0  0  0  0  0  0  0  0  0
    2.6797    0.8959   -0.4953 H   0  0  0  0  0  0  0  0  0  0  0  0
    1.8546    1.1540    1.0204 H   0  0  0  0  0  0  0  0  0  0  0  0
    1.4977    3.8313    1.7885 H   0  0  0  0  0  0  0  0  0  0  0  0
    2.4944    5.4889   -1.9541 H   0  0  0  0  0  0  0  0  0  0  0  0
    1.9345    5.9644    0.4792 H   0  0  0  0  0  0  0  0  0  0  0  0
   -0.7631   -1.1579   -0.1605 N   0  0  0  0  0  0  0  0  0  0  0  0
   -1.0562   -2.5579    0.0463 C   0  0  2  0  0  0  0  0  0  0  0  0
   -0.5649   -3.3264   -1.1733 C   0  0  0  0  0  0  0  0  0  0  0  0
   -0.3965   -2.8032   -2.2728 O   0  0  0  0  0  0  0  0  0  0  0  0
   -2.5433   -2.7848    0.2690 C   0  0  0  0  0  0  0  0  0  0  0  0
   -1.5087   -0.4829   -0.0184 H   0  0  0  0  0  0  0  0  0  0  0  0
   -0.4897   -2.8725    0.9296 H   0  0  0  0  0  0  0  0  0  0  0  0
   -3.1273   -2.4755   -0.6055 H   0  0  0  0  0  0  0  0  0  0  0  0
   -2.7600   -3.8421    0.4539 H   0  0  0  0  0  0  0  0  0  0  0  0
   -2.9012   -2.2080    1.1286 H   0  0  0  0  0  0  0  0  0  0  0  0
   -0.3778   -4.6743   -0.9003 N   0  0  0  0  0  0  0  0  0  0  0  0
    0.0725   -5.6166   -1.8978 C   0  0  0  0  0  0  0  0  0  0  0  0
   -0.5235   -5.0176    0.0445 H   0  0  0  0  0  0  0  0  0  0  0  0
   -0.7982   -6.0801   -2.3847 H   0  0  0  0  0  0  0  0  0  0  0  0
    0.6775   -5.0914   -2.6516 H   0  0  0  0  0  0  0  0  0  0  0  0
    0.6817   -6.3962   -1.4171 H   0  0  0  0  0  0  0  0  0  0  0  0
 22 24  2  0  0  0  0
 24 26  1  0  0  0  0
 23 25  2  0  0  0  0
 25 26  1  0  0  0  0
 21 22  1  0  0  0  0
 22 23  1  0  0  0  0
  1  3  1  0  0  0  0
  1  7  1  0  0  0  0
  1  2  2  0  0  0  0
 35 36  1  0  0  0  0
 36 44  1  0  0  0  0
 36 37  2  0  0  0  0
  8  9  1  0  0  0  0
  9 17  1  0  0  0  0
  9 10  2  0  0  0  0
 18 19  1  0  0  0  0
 19 34  1  0  0  0  0
 19 20  2  0  0  0  0
 35 38  1  0  0  0  0
  8 11  1  0  0  0  0
 44 45  1  0  0  0  0
 18 21  1  0  0  0  0
 34 35  1  0  0  0  0
  7  8  1  0  0  0  0
 17 18  1  0  0  0  0
 24 31  1  0  0  0  0
 25 32  1  0  0  0  0
  3  4  1  0  0  0  0
  3  5  1  0  0  0  0
  3  6  1  0  0  0  0
 38 41  1  0  0  0  0
 38 42  1  0  0  0  0
 38 43  1  0  0  0  0
 11 14  1  0  0  0  0
 11 15  1  0  0  0  0
 11 16  1  0  0  0  0
 45 47  1  0  0  0  0
 45 48  1  0  0  0  0
 45 49  1  0  0  0  0
 21 29  1  0  0  0  0
 21 30  1  0  0  0  0
 35 40  1  0  0  0  0
  8 13  1  0  0  0  0
 18 28  1  0  0  0  0
 26 33  1  0  0  0  0
 44 46  1  0  0  0  0
  7 12  1  0  0  0  0
 34 39  1  0  0  0  0
 17 27  1  0  0  0  0
M  END
$$$$

  -OEChem-05262214473D

 49 49  0     1  0  0  0  0  0999 V2000
   -1.6183    0.5613    3.8201 C   0  0  0  0  0  0  0  0  0  0  0  0
   -0.6710   -0.0534    3.3444 O   0  0  0  0  0  0  0  0  0  0  0  0
   -2.0502    0.2789    5.2208 C   0  0  0  0  0  0  0  0  0  0  0  0
   -2.8099   -0.5175    5.2742 H   0  0  0  0  0  0  0  0  0  0  0  0
   -1.2190   -0.0687    5.8551 H   0  0  0  0  0  0  0  0  0  0  0  0
   -2.4882    1.1338    5.7604 H   0  0  0  0  0  0  0  0  0  0  0  0
   -2.3680    1.5337    3.1790 N   0  0  0  0  0  0  0  0  0  0  0  0
   -2.1212    1.9597    1.8266 C   0  0  2  0  0  0  0  0  0  0  0  0
   -0.7862    1.3744    1.3854 C   0  0  0  0  0  0  0  0  0  0  0  0
    0.0859    1.0216    2.1767 O   0  0  0  0  0  0  0  0  0  0  0  0
   -2.1124    3.4765    1.7171 C   0  0  0  0  0  0  0  0  0  0  0  0
   -3.1331    1.9695    3.6908 H   0  0  0  0  0  0  0  0  0  0  0  0
   -2.9253    1.5413    1.2115 H   0  0  0  0  0  0  0  0  0  0  0  0
   -1.3133    3.9138    2.3268 H   0  0  0  0  0  0  0  0  0  0  0  0
   -1.9529    3.7988    0.6829 H   0  0  0  0  0  0  0  0  0  0  0  0
   -3.0626    3.8977    2.0629 H   0  0  0  0  0  0  0  0  0  0  0  0
   -0.6635    1.3313    0.0020 N   0  0  0  0  0  0  0  0  0  0  0  0
    0.5138    0.8305   -0.6617 C   0  0  2  0  0  0  0  0  0  0  0  0
    0.4859   -0.6892   -0.5437 C   0  0  0  0  0  0  0  0  0  0  0  0
    1.5042   -1.3727   -0.4605 O   0  0  0  0  0  0  0  0  0  0  0  0
    1.8043    1.3889   -0.0511 C   0  0  0  0  0  0  0  0  0  0  0  0
    1.9273    2.8843   -0.2132 C   0  0  0  0  0  0  0  0  0  0  0  0
    2.2523    3.4305   -1.4296 N   0  0  0  0  0  0  0  0  0  0  0  0
    1.7526    3.8608    0.7389 C   0  0  0  0  0  0  0  0  0  0  0  0
    2.2744    4.7279   -1.2188 C   0  0  0  0  0  0  0  0  0  0  0  0
    1.9787    5.0363    0.0799 N   0  0  0  0  0  0  0  0  0  0  0  0
   -1.4467    1.6280   -0.5753 H   0  0  0  0  0  0  0  0  0  0  0  0
    0.4200    1.1102   -1.7176 H   0  0  0  0  0  0  0  0  0  0  0  0
    2.6797    0.8959   -0.4953 H   0  0  0  0  0  0  0  0  0  0  0  0
    1.8546    1.1540    1.0204 H   0  0  0  0  0  0  0  0  0  0  0  0
    1.4977    3.8313    1.7885 H   0  0  0  0  0  0  0  0  0  0  0  0
    2.4944    5.4889   -1.9541 H   0  0  0  0  0  0  0  0  0  0  0  0
    1.9345    5.9644    0.4792 H   0  0  0  0  0  0  0  0  0  0  0  0
   -0.8103   -1.1827   -0.4923 N   0  0  0  0  0  0  0  0  0  0  0  0
   -1.1196   -2.5881   -0.3577 C   0  0  2  0  0  0  0  0  0  0  0  0
   -0.3154   -3.3489   -1.4036 C   0  0  0  0  0  0  0  0  0  0  0  0
    0.1208   -2.8246   -2.4263 O   0  0  0  0  0  0  0  0  0  0  0  0
   -2.6092   -2.8452   -0.5245 C   0  0  0  0  0  0  0  0  0  0  0  0
   -1.5803   -0.5230   -0.5522 H   0  0  0  0  0  0  0  0  0  0  0  0
   -0.7942   -2.8891    0.6441 H   0  0  0  0  0  0  0  0  0  0  0  0
   -2.9536   -2.5498   -1.5223 H   0  0  0  0  0  0  0  0  0  0  0  0
   -2.8457   -3.9064   -0.3940 H   0  0  0  0  0  0  0  0  0  0  0  0
   -3.1879   -2.2741    0.2094 H   0  0  0  0  0  0  0  0  0  0  0  0
   -0.1790   -4.6920   -1.0817 N   0  0  0  0  0  0  0  0  0  0  0  0
    0.5317   -5.6269   -1.9224 C   0  0  0  0  0  0  0  0  0  0  0  0
   -0.5569   -5.0363   -0.2040 H   0  0  0  0  0  0  0  0  0  0  0  0
   -0.1747   -6.1093   -2.6140 H   0  0  0  0  0  0  0  0  0  0  0  0
    1.3003   -5.0909   -2.4984 H   0  0  0  0  0  0  0  0  0  0  0  0
    1.0112   -6.3927   -1.2950 H   0  0  0  0  0  0  0  0  0  0  0  0
 22 24  2  0  0  0  0
 24 26  1  0  0  0  0
 23 25  2  0  0  0  0
 25 26  1  0  0  0  0
 21 22  1  0  0  0  0
 22 23  1  0  0  0  0
  1  3  1  0  0  0  0
  1  7  1  0  0  0  0
  1  2  2  0  0  0  0
 35 36  1  0  0  0  0
 36 44  1  0  0  0  0
 36 37  2  0  0  0  0
  8  9  1  0  0  0  0
  9 17  1  0  0  0  0
  9 10  2  0  0  0  0
 18 19  1  0  0  0  0
 19 34  1  0  0  0  0
 19 20  2  0  0  0  0
 35 38  1  0  0  0  0
  8 11  1  0  0  0  0
 44 45  1  0  0  0  0
 18 21  1  0  0  0  0
 34 35  1  0  0  0  0
  7  8  1  0  0  0  0
 17 18  1  0  0  0  0
 24 31  1  0  0  0  0
 25 32  1  0  0  0  0
  3  4  1  0  0  0  0
  3  5  1  0  0  0  0
  3  6  1  0  0  0  0
 38 41  1  0  0  0  0
 38 42  1  0  0  0  0
 38 43  1  0  0  0  0
 11 14  1  0  0  0  0
 11 15  1  0  0  0  0
 11 16  1  0  0  0  0
 45 47  1  0  0  0  0
 45 48  1  0  0  0  0
 45 49  1  0  0  0  0
 21 29  1  0  0  0  0
 21 30  1  0  0  0  0
 35 40  1  0  0  0  0
  8 13  1  0  0  0  0
 18 28  1  0  0  0  0
 26 33  1  0  0  0  0
 44 46  1  0  0  0  0
  7 12  1  0  0  0  0
 34 39  1  0  0  0  0
 17 27  1  0  0  0  0
M  END
$$$$

  -OEChem-05262214473D

 49 49  0     1  0  0  0  0  0999 V2000
   -1.6183    0.5613    3.8201 C   0  0  0  0  0  0  0  0  0  0  0  0
   -0.6710   -0.0534    3.3444 O   0  0  0  0  0  0  0  0  0  0  0  0
   -2.0502    0.2789    5.2208 C   0  0  0  0  0  0  0  0  0  0  0  0
   -2.8099   -0.5175    5.2742 H   0  0  0  0  0  0  0  0  0  0  0  0
   -1.2190   -0.0687    5.8551 H   0  0  0  0  0  0  0  0  0  0  0  0
   -2.4882    1.1338    5.7604 H   0  0  0  0  0  0  0  0  0  0  0  0
   -2.3680    1.5337    3.1790 N   0  0  0  0  0  0  0  0  0  0  0  0
   -2.1212    1.9597    1.8266 C   0  0  2  0  0  0  0  0  0  0  0  0
   -0.7862    1.3744    1.3854 C   0  0  0  0  0  0  0  0  0  0  0  0
    0.0859    1.0216    2.1767 O   0  0  0  0  0  0  0  0  0  0  0  0
   -2.1124    3.4765    1.7171 C   0  0  0  0  0  0  0  0  0  0  0  0
   -3.1331    1.9695    3.6908 H   0  0  0  0  0  0  0  0  0  0  0  0
   -2.9253    1.5413    1.2115 H   0  0  0  0  0  0  0  0  0  0  0  0
   -1.3133    3.9138    2.3268 H   0  0  0  0  0  0  0  0  0  0  0  0
   -1.9529    3.7988    0.6829 H   0  0  0  0  0  0  0  0  0  0  0  0
   -3.0626    3.8977    2.0629 H   0  0  0  0  0  0  0  0  0  0  0  0
   -0.6635    1.3313    0.0020 N   0  0  0  0  0  0  0  0  0  0  0  0
    0.5138    0.8305   -0.6617 C   0  0  2  0  0  0  0  0  0  0  0  0
    0.4859   -0.6892   -0.5437 C   0  0  0  0  0  0  0  0  0  0  0  0
    1.4614   -1.3513   -0.1957 O   0  0  0  0  0  0  0  0  0  0  0  0
    1.8043    1.3889   -0.0511 C   0  0  0  0  0  0  0  0  0  0  0  0
    1.9273    2.8843   -0.2132 C   0  0  0  0  0  0  0  0  0  0  0  0
    2.2523    3.4305   -1.4296 N   0  0  0  0  0  0  0  0  0  0  0  0
    1.7526    3.8608    0.7389 C   0  0  0  0  0  0  0  0  0  0  0  0
    2.2744    4.7279   -1.2188 C   0  0  0  0  0  0  0  0  0  0  0  0
    1.9787    5.0363    0.0799 N   0  0  0  0  0  0  0  0  0  0  0  0
   -1.4467    1.6280   -0.5753 H   0  0  0  0  0  0  0  0  0  0  0  0
    0.4200    1.1102   -1.7176 H   0  0  0  0  0  0  0  0  0  0  0  0
    2.6797    0.8959   -0.4953 H   0  0  0  0  0  0  0  0  0  0  0  0
    1.8546    1.1540    1.0204 H   0  0  0  0  0  0  0  0  0  0  0  0
    1.4977    3.8313    1.7885 H   0  0  0  0  0  0  0  0  0  0  0  0
    2.4944    5.4889   -1.9541 H   0  0  0  0  0  0  0  0  0  0  0  0
    1.9345    5.9644    0.4792 H   0  0  0  0  0  0  0  0  0  0  0  0
   -0.7698   -1.2093   -0.8247 N   0  0  0  0  0  0  0  0  0  0  0  0
   -1.0761   -2.6204   -0.7642 C   0  0  2  0  0  0  0  0  0  0  0  0
   -0.0146   -3.3667   -1.5617 C   0  0  0  0  0  0  0  0  0  0  0  0
    0.6605   -2.8356   -2.4410 O   0  0  0  0  0  0  0  0  0  0  0  0
   -2.4668   -2.9087   -1.3077 C   0  0  0  0  0  0  0  0  0  0  0  0
   -1.5109   -0.5657   -1.0861 H   0  0  0  0  0  0  0  0  0  0  0  0
   -1.0144   -2.9125    0.2898 H   0  0  0  0  0  0  0  0  0  0  0  0
   -2.5478   -2.6225   -2.3627 H   0  0  0  0  0  0  0  0  0  0  0  0
   -2.7084   -3.9742   -1.2348 H   0  0  0  0  0  0  0  0  0  0  0  0
   -3.2263   -2.3480   -0.7521 H   0  0  0  0  0  0  0  0  0  0  0  0
    0.0602   -4.7060   -1.2056 N   0  0  0  0  0  0  0  0  0  0  0  0
    0.9818   -5.6278   -1.8276 C   0  0  0  0  0  0  0  0  0  0  0  0
   -0.5246   -5.0562   -0.4525 H   0  0  0  0  0  0  0  0  0  0  0  0
    0.4872   -6.1261   -2.6744 H   0  0  0  0  0  0  0  0  0  0  0  0
    1.8625   -5.0772   -2.1898 H   0  0  0  0  0  0  0  0  0  0  0  0
    1.2979   -6.3822   -1.0921 H   0  0  0  0  0  0  0  0  0  0  0  0
 22 24  2  0  0  0  0
 24 26  1  0  0  0  0
 23 25  2  0  0  0  0
 25 26  1  0  0  0  0
 21 22  1  0  0  0  0
 22 23  1  0  0  0  0
  1  3  1  0  0  0  0
  1  7  1  0  0  0  0
  1  2  2  0  0  0  0
 35 36  1  0  0  0  0
 36 44  1  0  0  0  0
 36 37  2  0  0  0  0
  8  9  1  0  0  0  0
  9 17  1  0  0  0  0
  9 10  2  0  0  0  0
 18 19  1  0  0  0  0
 19 34  1  0  0  0  0
 19 20  2  0  0  0  0
 35 38  1  0  0  0  0
  8 11  1  0  0  0  0
 44 45  1  0  0  0  0
 18 21  1  0  0  0  0
 34 35  1  0  0  0  0
  7  8  1  0  0  0  0
 17 18  1  0  0  0  0
 24 31  1  0  0  0  0
 25 32  1  0  0  0  0
  3  4  1  0  0  0  0
  3  5  1  0  0  0  0
  3  6  1  0  0  0  0
 38 41  1  0  0  0  0
 38 42  1  0  0  0  0
 38 43  1  0  0  0  0
 11 14  1  0  0  0  0
 11 15  1  0  0  0  0
 11 16  1  0  0  0  0
 45 47  1  0  0  0  0
 45 48  1  0  0  0  0
 45 49  1  0  0  0  0
 21 29  1  0  0  0  0
 21 30  1  0  0  0  0
 35 40  1  0  0  0  0
  8 13  1  0  0  0  0
 18 28  1  0  0  0  0
 26 33  1  0  0  0  0
 44 46  1  0  0  0  0
  7 12  1  0  0  0  0
 34 39  1  0  0  0  0
 17 27  1  0  0  0  0
M  END
$$$$

  -OEChem-05262214473D

 49 49  0     1  0  0  0  0  0999 V2000
   -1.6183    0.5613    3.8201 C   0  0  0  0  0  0  0  0  0  0  0  0
   -0.6710   -0.0534    3.3444 O   0  0  0  0  0  0  0  0  0  0  0  0
   -2.0502    0.2789    5.2208 C   0  0  0  0  0  0  0  0  0  0  0  0
   -2.8099   -0.5175    5.2742 H   0  0  0  0  0  0  0  0  0  0  0  0
   -1.2190   -0.0687    5.8551 H   0  0  0  0  0  0  0  0  0  0  0  0
   -2.4882    1.1338    5.7604 H   0  0  0  0  0  0  0  0  0  0  0  0
   -2.3680    1.5337    3.1790 N   0  0  0  0  0  0  0  0  0  0  0  0
   -2.1212    1.9597    1.8266 C   0  0  2  0  0  0  0  0  0  0  0  0
   -0.7862    1.3744    1.3854 C   0  0  0  0  0  0  0  0  0  0  0  0
    0.0859    1.0216    2.1767 O   0  0  0  0  0  0  0  0  0  0  0  0
   -2.1124    3.4765    1.7171 C   0  0  0  0  0  0  0  0  0  0  0  0
   -3.1331    1.9695    3.6908 H   0  0  0  0  0  0  0  0  0  0  0  0
   -2.9253    1.5413    1.2115 H   0  0  0  0  0  0  0  0  0  0  0  0
   -1.3133    3.9138    2.3268 H   0  0  0  0  0  0  0  0  0  0  0  0
   -1.9529    3.7988    0.6829 H   0  0  0  0  0  0  0  0  0  0  0  0
   -3.0626    3.8977    2.0629 H   0  0  0  0  0  0  0  0  0  0  0  0
   -0.6635    1.3313    0.0020 N   0  0  0  0  0  0  0  0  0  0  0  0
    0.5138    0.8305   -0.6617 C   0  0  2  0  0  0  0  0  0  0  0  0
    0.4859   -0.6892   -0.5437 C   0  0  0  0  0  0  0  0  0  0  0  0
    1.3512   -1.3303    0.0490 O   0  0  0  0  0  0  0  0  0  0  0  0
    1.8043    1.3889   -0.0511 C   0  0  0  0  0  0  0  0  0  0  0  0
    1.9273    2.8843   -0.2132 C   0  0  0  0  0  0  0  0  0  0  0  0
    2.2523    3.4305   -1.4296 N   0  0  0  0  0  0  0  0  0  0  0  0
    1.7526    3.8608    0.7389 C   0  0  0  0  0  0  0  0  0  0  0  0
    2.2744    4.7279   -1.2188 C   0  0  0  0  0  0  0  0  0  0  0  0
    1.9787    5.0363    0.0799 N   0  0  0  0  0  0  0  0  0  0  0  0
   -1.4467    1.6280   -0.5753 H   0  0  0  0  0  0  0  0  0  0  0  0
    0.4200    1.1102   -1.7176 H   0  0  0  0  0  0  0  0  0  0  0  0
    2.6797    0.8959   -0.4953 H   0  0  0  0  0  0  0  0  0  0  0  0
    1.8546    1.1540    1.0204 H   0  0  0  0  0  0  0  0  0  0  0  0
    1.4977    3.8313    1.7885 H   0  0  0  0  0  0  0  0  0  0  0  0
    2.4944    5.4889   -1.9541 H   0  0  0  0  0  0  0  0  0  0  0  0
    1.9345    5.9644    0.4792 H   0  0  0  0  0  0  0  0  0  0  0  0
   -0.6444   -1.2357   -1.1353 N   0  0  0  0  0  0  0  0  0  0  0  0
   -0.9285   -2.6528   -1.1455 C   0  0  2  0  0  0  0  0  0  0  0  0
    0.3171   -3.3786   -1.6366 C   0  0  0  0  0  0  0  0  0  0  0  0
    1.1858   -2.8355   -2.3160 O   0  0  0  0  0  0  0  0  0  0  0  0
   -2.1260   -2.9708   -2.0272 C   0  0  0  0  0  0  0  0  0  0  0  0
   -1.3053   -0.6081   -1.5838 H   0  0  0  0  0  0  0  0  0  0  0  0
   -1.1352   -2.9413   -0.1091 H   0  0  0  0  0  0  0  0  0  0  0  0
   -1.9375   -2.6885   -3.0695 H   0  0  0  0  0  0  0  0  0  0  0  0
   -2.3574   -4.0409   -2.0112 H   0  0  0  0  0  0  0  0  0  0  0  0
   -3.0139   -2.4248   -1.6904 H   0  0  0  0  0  0  0  0  0  0  0  0
    0.3234   -4.7153   -1.2635 N   0  0  0  0  0  0  0  0  0  0  0  0
    1.3921   -5.6192   -1.6199 C   0  0  0  0  0  0  0  0  0  0  0  0
   -0.4289   -5.0759   -0.6842 H   0  0  0  0  0  0  0  0  0  0  0  0
    1.1426   -6.1294   -2.5619 H   0  0  0  0  0  0  0  0  0  0  0  0
    2.3255   -5.0513   -1.7467 H   0  0  0  0  0  0  0  0  0  0  0  0
    1.5223   -6.3654   -0.8223 H   0  0  0  0  0  0  0  0  0  0  0  0
 22 24  2  0  0  0  0
 24 26  1  0  0  0  0
 23 25  2  0  0  0  0
 25 26  1  0  0  0  0
 21 22  1  0  0  0  0
 22 23  1  0  0  0  0
  1  3  1  0  0  0  0
  1  7  1  0  0  0  0
  1  2  2  0  0  0  0
 35 36  1  0  0  0  0
 36 44  1  0  0  0  0
 36 37  2  0  0  0  0
  8  9  1  0  0  0  0
  9 17  1  0  0  0  0
  9 10  2  0  0  0  0
 18 19  1  0  0  0  0
 19 34  1  0  0  0  0
 19 20  2  0  0  0  0
 35 38  1  0  0  0  0
  8 11  1  0  0  0  0
 44 45  1  0  0  0  0
 18 21  1  0  0  0  0
 34 35  1  0  0  0  0
  7  8  1  0  0  0  0
 17 18  1  0  0  0  0
 24 31  1  0  0  0  0
 25 32  1  0  0  0  0
  3  4  1  0  0  0  0
  3  5  1  0  0  0  0
  3  6  1  0  0  0  0
 38 41  1  0  0  0  0
 38 42  1  0  0  0  0
 38 43  1  0  0  0  0
 11 14  1  0  0  0  0
 11 15  1  0  0  0  0
 11 16  1  0  0  0  0
 45 47  1  0  0  0  0
 45 48  1  0  0  0  0
 45 49  1  0  0  0  0
 21 29  1  0  0  0  0
 21 30  1  0  0  0  0
 35 40  1  0  0  0  0
  8 13  1  0  0  0  0
 18 28  1  0  0  0  0
 26 33  1  0  0  0  0
 44 46  1  0  0  0  0
  7 12  1  0  0  0  0
 34 39  1  0  0  0  0
 17 27  1  0  0  0  0
M  END
$$$$

  -OEChem-05262214473D

 49 49  0     1  0  0  0  0  0999 V2000
   -1.6183    0.5613    3.8201 C   0  0  0  0  0  0  0  0  0  0  0  0
   -0.6710   -0.0534    3.3444 O   0  0  0  0  0  0  0  0  0  0  0  0
   -2.0502    0.2789    5.2208 C   0  0  0  0  0  0  0  0  0  0  0  0
   -2.8099   -0.5175    5.2742 H   0  0  0  0  0  0  0  0  0  0  0  0
   -1.2190   -0.0687    5.8551 H   0  0  0  0  0  0  0  0  0  0  0  0
   -2.4882    1.1338    5.7604 H   0  0  0  0  0  0  0  0  0  0  0  0
   -2.3680    1.5337    3.1790 N   0  0  0  0  0  0  0  0  0  0  0  0
   -2.1212    1.9597    1.8266 C   0  0  2  0  0  0  0  0  0  0  0  0
   -0.7862    1.3744    1.3854 C   0  0  0  0  0  0  0  0  0  0  0  0
    0.0859    1.0216    2.1767 O   0  0  0  0  0  0  0  0  0  0  0  0
   -2.1124    3.4765    1.7171 C   0  0  0  0  0  0  0  0  0  0  0  0
   -3.1331    1.9695    3.6908 H   0  0  0  0  0  0  0  0  0  0  0  0
   -2.9253    1.5413    1.2115 H   0  0  0  0  0  0  0  0  0  0  0  0
   -1.3133    3.9138    2.3268 H   0  0  0  0  0  0  0  0  0  0  0  0
   -1.9529    3.7988    0.6829 H   0  0  0  0  0  0  0  0  0  0  0  0
   -3.0626    3.8977    2.0629 H   0  0  0  0  0  0  0  0  0  0  0  0
   -0.6635    1.3313    0.0020 N   0  0  0  0  0  0  0  0  0  0  0  0
    0.5138    0.8305   -0.6617 C   0  0  2  0  0  0  0  0  0  0  0  0
    0.4859   -0.6892   -0.5437 C   0  0  0  0  0  0  0  0  0  0  0  0
    1.1812   -1.3110    0.2569 O   0  0  0  0  0  0  0  0  0  0  0  0
    1.8043    1.3889   -0.0511 C   0  0  0  0  0  0  0  0  0  0  0  0
    1.9273    2.8843   -0.2132 C   0  0  0  0  0  0  0  0  0  0  0  0
    2.2523    3.4305   -1.4296 N   0  0  0  0  0  0  0  0  0  0  0  0
    1.7526    3.8608    0.7389 C   0  0  0  0  0  0  0  0  0  0  0  0
    2.2744    4.7279   -1.2188 C   0  0  0  0  0  0  0  0  0  0  0  0
    1.9787    5.0363    0.0799 N   0  0  0  0  0  0  0  0  0  0  0  0
   -1.4467    1.6280   -0.5753 H   0  0  0  0  0  0  0  0  0  0  0  0
    0.4200    1.1102   -1.7176 H   0  0  0  0  0  0  0  0  0  0  0  0
    2.6797    0.8959   -0.4953 H   0  0  0  0  0  0  0  0  0  0  0  0
    1.8546    1.1540    1.0204 H   0  0  0  0  0  0  0  0  0  0  0  0
    1.4977    3.8313    1.7885 H   0  0  0  0  0  0  0  0  0  0  0  0
    2.4944    5.4889   -1.9541 H   0  0  0  0  0  0  0  0  0  0  0  0
    1.9345    5.9644    0.4792 H   0  0  0  0  0  0  0  0  0  0  0  0
   -0.4426   -1.2602   -1.4029 N   0  0  0  0  0  0  0  0  0  0  0  0
   -0.6869   -2.6828   -1.4755 C   0  0  2  0  0  0  0  0  0  0  0  0
    0.6571   -3.3837   -1.6234 C   0  0  0  0  0  0  0  0  0  0  0  0
    1.6610   -2.8243   -2.0596 O   0  0  0  0  0  0  0  0  0  0  0  0
   -1.6099   -3.0273   -2.6339 C   0  0  0  0  0  0  0  0  0  0  0  0
   -0.9775   -0.6473   -2.0112 H   0  0  0  0  0  0  0  0  0  0  0  0
   -1.1484   -2.9734   -0.5255 H   0  0  0  0  0  0  0  0  0  0  0  0
   -1.1644   -2.7434   -3.5944 H   0  0  0  0  0  0  0  0  0  0  0  0
   -1.8168   -4.1020   -2.6704 H   0  0  0  0  0  0  0  0  0  0  0  0
   -2.5651   -2.4991   -2.5416 H   0  0  0  0  0  0  0  0  0  0  0  0
    0.5929   -4.7193   -1.2514 N   0  0  0  0  0  0  0  0  0  0  0  0
    1.7346   -5.6017   -1.3135 C   0  0  0  0  0  0  0  0  0  0  0  0
   -0.2764   -5.0942   -0.8832 H   0  0  0  0  0  0  0  0  0  0  0  0
    1.7466   -6.1189   -2.2842 H   0  0  0  0  0  0  0  0  0  0  0  0
    2.6580   -5.0149   -1.1994 H   0  0  0  0  0  0  0  0  0  0  0  0
    1.6691   -6.3434   -0.5038 H   0  0  0  0  0  0  0  0  0  0  0  0
 22 24  2  0  0  0  0
 24 26  1  0  0  0  0
 23 25  2  0  0  0  0
 25 26  1  0  0  0  0
 21 22  1  0  0  0  0
 22 23  1  0  0  0  0
  1  3  1  0  0  0  0
  1  7  1  0  0  0  0
  1  2  2  0  0  0  0
 35 36  1  0  0  0  0
 36 44  1  0  0  0  0
 36 37  2  0  0  0  0
  8  9  1  0  0  0  0
  9 17  1  0  0  0  0
  9 10  2  0  0  0  0
 18 19  1  0  0  0  0
 19 34  1  0  0  0  0
 19 20  2  0  0  0  0
 35 38  1  0  0  0  0
  8 11  1  0  0  0  0
 44 45  1  0  0  0  0
 18 21  1  0  0  0  0
 34 35  1  0  0  0  0
  7  8  1  0  0  0  0
 17 18  1  0  0  0  0
 24 31  1  0  0  0  0
 25 32  1  0  0  0  0
  3  4  1  0  0  0  0
  3  5  1  0  0  0  0
  3  6  1  0  0  0  0
 38 41  1  0  0  0  0
 38 42  1  0  0  0  0
 38 43  1  0  0  0  0
 11 14  1  0  0  0  0
 11 15  1  0  0  0  0
 11 16  1  0  0  0  0
 45 47  1  0  0  0  0
 45 48  1  0  0  0  0
 45 49  1  0  0  0  0
 21 29  1  0  0  0  0
 21 30  1  0  0  0  0
 35 40  1  0  0  0  0
  8 13  1  0  0  0  0
 18 28  1  0  0  0  0
 26 33  1  0  0  0  0
 44 46  1  0  0  0  0
  7 12  1  0  0  0  0
 34 39  1  0  0  0  0
 17 27  1  0  0  0  0
M  END
$$$$

  -OEChem-05262214473D

 49 49  0     1  0  0  0  0  0999 V2000
   -1.6183    0.5613    3.8201 C   0  0  0  0  0  0  0  0  0  0  0  0
   -0.6710   -0.0534    3.3444 O   0  0  0  0  0  0  0  0  0  0  0  0
   -2.0502    0.2789    5.2208 C   0  0  0  0  0  0  0  0  0  0  0  0
   -2.8099   -0.5175    5.2742 H   0  0  0  0  0  0  0  0  0  0  0  0
   -1.2190   -0.0687    5.8551 H   0  0  0  0  0  0  0  0  0  0  0  0
   -2.4882    1.1338    5.7604 H   0  0  0  0  0  0  0  0  0  0  0  0
   -2.3680    1.5337    3.1790 N   0  0  0  0  0  0  0  0  0  0  0  0
   -2.1212    1.9597    1.8266 C   0  0  2  0  0  0  0  0  0  0  0  0
   -0.7862    1.3744    1.3854 C   0  0  0  0  0  0  0  0  0  0  0  0
    0.0859    1.0216    2.1767 O   0  0  0  0  0  0  0  0  0  0  0  0
   -2.1124    3.4765    1.7171 C   0  0  0  0  0  0  0  0  0  0  0  0
   -3.1331    1.9695    3.6908 H   0  0  0  0  0  0  0  0  0  0  0  0
   -2.9253    1.5413    1.2115 H   0  0  0  0  0  0  0  0  0  0  0  0
   -1.3133    3.9138    2.3268 H   0  0  0  0  0  0  0  0  0  0  0  0
   -1.9529    3.7988    0.6829 H   0  0  0  0  0  0  0  0  0  0  0  0
   -3.0626    3.8977    2.0629 H   0  0  0  0  0  0  0  0  0  0  0  0
   -0.6635    1.3313    0.0020 N   0  0  0  0  0  0  0  0  0  0  0  0
    0.5138    0.8305   -0.6617 C   0  0  2  0  0  0  0  0  0  0  0  0
    0.4859   -0.6892   -0.5437 C   0  0  0  0  0  0  0  0  0  0  0  0
    0.9630   -1.2949    0.4137 O   0  0  0  0  0  0  0  0  0  0  0  0
    1.8043    1.3889   -0.0511 C   0  0  0  0  0  0  0  0  0  0  0  0
    1.9273    2.8843   -0.2132 C   0  0  0  0  0  0  0  0  0  0  0  0
    2.2523    3.4305   -1.4296 N   0  0  0  0  0  0  0  0  0  0  0  0
    1.7526    3.8608    0.7389 C   0  0  0  0  0  0  0  0  0  0  0  0
    2.2744    4.7279   -1.2188 C   0  0  0  0  0  0  0  0  0  0  0  0
    1.9787    5.0363    0.0799 N   0  0  0  0  0  0  0  0  0  0  0  0
   -1.4467    1.6280   -0.5753 H   0  0  0  0  0  0  0  0  0  0  0  0
    0.4200    1.1102   -1.7176 H   0  0  0  0  0  0  0  0  0  0  0  0
    2.6797    0.8959   -0.4953 H   0  0  0  0  0  0  0  0  0  0  0  0
    1.8546    1.1540    1.0204 H   0  0  0  0  0  0  0  0  0  0  0  0
    1.4977    3.8313    1.7885 H   0  0  0  0  0  0  0  0  0  0  0  0
    2.4944    5.4889   -1.9541 H   0  0  0  0  0  0  0  0  0  0  0  0
    1.9345    5.9644    0.4792 H   0  0  0  0  0  0  0  0  0  0  0  0
   -0.1782   -1.2810   -1.6091 N   0  0  0  0  0  0  0  0  0  0  0  0
   -0.3678   -2.7085   -1.7318 C   0  0  2  0  0  0  0  0  0  0  0  0
    0.9822   -3.3819   -1.5228 C   0  0  0  0  0  0  0  0  0  0  0  0
    2.0536   -2.8028   -1.6895 O   0  0  0  0  0  0  0  0  0  0  0  0
   -0.9538   -3.0745   -3.0866 C   0  0  0  0  0  0  0  0  0  0  0  0
   -0.5498   -0.6806   -2.3393 H   0  0  0  0  0  0  0  0  0  0  0  0
   -1.0531   -3.0066   -0.9309 H   0  0  0  0  0  0  0  0  0  0  0  0
   -0.2811   -2.7835   -3.9016 H   0  0  0  0  0  0  0  0  0  0  0  0
   -1.1234   -4.1532   -3.1672 H   0  0  0  0  0  0  0  0  0  0  0  0
   -1.9104   -2.5659   -3.2476 H   0  0  0  0  0  0  0  0  0  0  0  0
    0.8501   -4.7177   -1.1702 N   0  0  0  0  0  0  0  0  0  0  0  0
    1.9861   -5.5764   -0.9292 C   0  0  0  0  0  0  0  0  0  0  0  0
   -0.0773   -5.1097   -1.0359 H   0  0  0  0  0  0  0  0  0  0  0  0
    2.2582   -6.0953   -1.8602 H   0  0  0  0  0  0  0  0  0  0  0  0
    2.8372   -4.9704   -0.5851 H   0  0  0  0  0  0  0  0  0  0  0  0
    1.7283   -6.3176   -0.1584 H   0  0  0  0  0  0  0  0  0  0  0  0
 22 24  2  0  0  0  0
 24 26  1  0  0  0  0
 23 25  2  0  0  0  0
 25 26  1  0  0  0  0
 21 22  1  0  0  0  0
 22 23  1  0  0  0  0
  1  3  1  0  0  0  0
  1  7  1  0  0  0  0
  1  2  2  0  0  0  0
 35 36  1  0  0  0  0
 36 44  1  0  0  0  0
 36 37  2  0  0  0  0
  8  9  1  0  0  0  0
  9 17  1  0  0  0  0
  9 10  2  0  0  0  0
 18 19  1  0  0  0  0
 19 34  1  0  0  0  0
 19 20  2  0  0  0  0
 35 38  1  0  0  0  0
  8 11  1  0  0  0  0
 44 45  1  0  0  0  0
 18 21  1  0  0  0  0
 34 35  1  0  0  0  0
  7  8  1  0  0  0  0
 17 18  1  0  0  0  0
 24 31  1  0  0  0  0
 25 32  1  0  0  0  0
  3  4  1  0  0  0  0
  3  5  1  0  0  0  0
  3  6  1  0  0  0  0
 38 41  1  0  0  0  0
 38 42  1  0  0  0  0
 38 43  1  0  0  0  0
 11 14  1  0  0  0  0
 11 15  1  0  0  0  0
 11 16  1  0  0  0  0
 45 47  1  0  0  0  0
 45 48  1  0  0  0  0
 45 49  1  0  0  0  0
 21 29  1  0  0  0  0
 21 30  1  0  0  0  0
 35 40  1  0  0  0  0
  8 13  1  0  0  0  0
 18 28  1  0  0  0  0
 26 33  1  0  0  0  0
 44 46  1  0  0  0  0
  7 12  1  0  0  0  0
 34 39  1  0  0  0  0
 17 27  1  0  0  0  0
M  END
$$$$

  -OEChem-05262214473D

 49 49  0     1  0  0  0  0  0999 V2000
   -1.6183    0.5613    3.8201 C   0  0  0  0  0  0  0  0  0  0  0  0
   -0.6710   -0.0534    3.3444 O   0  0  0  0  0  0  0  0  0  0  0  0
   -2.0502    0.2789    5.2208 C   0  0  0  0  0  0  0  0  0  0  0  0
   -2.8099   -0.5175    5.2742 H   0  0  0  0  0  0  0  0  0  0  0  0
   -1.2190   -0.0687    5.8551 H   0  0  0  0  0  0  0  0  0  0  0  0
   -2.4882    1.1338    5.7604 H   0  0  0  0  0  0  0  0  0  0  0  0
   -2.3680    1.5337    3.1790 N   0  0  0  0  0  0  0  0  0  0  0  0
   -2.1212    1.9597    1.8266 C   0  0  2  0  0  0  0  0  0  0  0  0
   -0.7862    1.3744    1.3854 C   0  0  0  0  0  0  0  0  0  0  0  0
    0.0859    1.0216    2.1767 O   0  0  0  0  0  0  0  0  0  0  0  0
   -2.1124    3.4765    1.7171 C   0  0  0  0  0  0  0  0  0  0  0  0
   -3.1331    1.9695    3.6908 H   0  0  0  0  0  0  0  0  0  0  0  0
   -2.9253    1.5413    1.2115 H   0  0  0  0  0  0  0  0  0  0  0  0
   -1.3133    3.9138    2.3268 H   0  0  0  0  0  0  0  0  0  0  0  0
   -1.9529    3.7988    0.6829 H   0  0  0  0  0  0  0  0  0  0  0  0
   -3.0626    3.8977    2.0629 H   0  0  0  0  0  0  0  0  0  0  0  0
   -0.6635    1.3313    0.0020 N   0  0  0  0  0  0  0  0  0  0  0  0
    0.5138    0.8305   -0.6617 C   0  0  2  0  0  0  0  0  0  0  0  0
    0.4859   -0.6892   -0.5437 C   0  0  0  0  0  0  0  0  0  0  0  0
    0.7115   -1.2829    0.5088 O   0  0  0  0  0  0  0  0  0  0  0  0
    1.8043    1.3889   -0.0511 C   0  0  0  0  0  0  0  0  0  0  0  0
    1.9273    2.8843   -0.2132 C   0  0  0  0  0  0  0  0  0  0  0  0
    2.2523    3.4305   -1.4296 N   0  0  0  0  0  0  0  0  0  0  0  0
    1.7526    3.8608    0.7389 C   0  0  0  0  0  0  0  0  0  0  0  0
    2.2744    4.7279   -1.2188 C   0  0  0  0  0  0  0  0  0  0  0  0
    1.9787    5.0363    0.0799 N   0  0  0  0  0  0  0  0  0  0  0  0
   -1.4467    1.6280   -0.5753 H   0  0  0  0  0  0  0  0  0  0  0  0
    0.4200    1.1102   -1.7176 H   0  0  0  0  0  0  0  0  0  0  0  0
    2.6797    0.8959   -0.4953 H   0  0  0  0  0  0  0  0  0  0  0  0
    1.8546    1.1540    1.0204 H   0  0  0  0  0  0  0  0  0  0  0  0
    1.4977    3.8313    1.7885 H   0  0  0  0  0  0  0  0  0  0  0  0
    2.4944    5.4889   -1.9541 H   0  0  0  0  0  0  0  0  0  0  0  0
    1.9345    5.9644    0.4792 H   0  0  0  0  0  0  0  0  0  0  0  0
    0.1308   -1.2968   -1.7400 N   0  0  0  0  0  0  0  0  0  0  0  0
    0.0071   -2.7282   -1.8969 C   0  0  2  0  0  0  0  0  0  0  0  0
    1.2702   -3.3731   -1.3419 C   0  0  0  0  0  0  0  0  0  0  0  0
    2.3369   -2.7723   -1.2307 O   0  0  0  0  0  0  0  0  0  0  0  0
   -0.2022   -3.1090   -3.3543 C   0  0  0  0  0  0  0  0  0  0  0  0
   -0.0513   -0.7058   -2.5457 H   0  0  0  0  0  0  0  0  0  0  0  0
   -0.8558   -3.0387   -1.2977 H   0  0  0  0  0  0  0  0  0  0  0  0
    0.6522   -2.8059   -3.9704 H   0  0  0  0  0  0  0  0  0  0  0  0
   -0.3243   -4.1912   -3.4680 H   0  0  0  0  0  0  0  0  0  0  0  0
   -1.0946   -2.6206   -3.7604 H   0  0  0  0  0  0  0  0  0  0  0  0
    1.0776   -4.7106   -1.0255 N   0  0  0  0  0  0  0  0  0  0  0  0
    2.1293   -5.5452   -0.4932 C   0  0  0  0  0  0  0  0  0  0  0  0
    0.1547   -5.1214   -1.1320 H   0  0  0  0  0  0  0  0  0  0  0  0
    2.6425   -6.0603   -1.3187 H   0  0  0  0  0  0  0  0  0  0  0  0
    2.8509   -4.9210    0.0543 H   0  0  0  0  0  0  0  0  0  0  0  0
    1.6958   -6.2899    0.1904 H   0  0  0  0  0  0  0  0  0  0  0  0
 22 24  2  0  0  0  0
 24 26  1  0  0  0  0
 23 25  2  0  0  0  0
 25 26  1  0  0  0  0
 21 22  1  0  0  0  0
 22 23  1  0  0  0  0
  1  3  1  0  0  0  0
  1  7  1  0  0  0  0
  1  2  2  0  0  0  0
 35 36  1  0  0  0  0
 36 44  1  0  0  0  0
 36 37  2  0  0  0  0
  8  9  1  0  0  0  0
  9 17  1  0  0  0  0
  9 10  2  0  0  0  0
 18 19  1  0  0  0  0
 19 34  1  0  0  0  0
 19 20  2  0  0  0  0
 35 38  1  0  0  0  0
  8 11  1  0  0  0  0
 44 45  1  0  0  0  0
 18 21  1  0  0  0  0
 34 35  1  0  0  0  0
  7  8  1  0  0  0  0
 17 18  1  0  0  0  0
 24 31  1  0  0  0  0
 25 32  1  0  0  0  0
  3  4  1  0  0  0  0
  3  5  1  0  0  0  0
  3  6  1  0  0  0  0
 38 41  1  0  0  0  0
 38 42  1  0  0  0  0
 38 43  1  0  0  0  0
 11 14  1  0  0  0  0
 11 15  1  0  0  0  0
 11 16  1  0  0  0  0
 45 47  1  0  0  0  0
 45 48  1  0  0  0  0
 45 49  1  0  0  0  0
 21 29  1  0  0  0  0
 21 30  1  0  0  0  0
 35 40  1  0  0  0  0
  8 13  1  0  0  0  0
 18 28  1  0  0  0  0
 26 33  1  0  0  0  0
 44 46  1  0  0  0  0
  7 12  1  0  0  0  0
 34 39  1  0  0  0  0
 17 27  1  0  0  0  0
M  END
$$$$

  -OEChem-05262214473D

 49 49  0     1  0  0  0  0  0999 V2000
   -1.6183    0.5613    3.8201 C   0  0  0  0  0  0  0  0  0  0  0  0
   -0.6710   -0.0534    3.3444 O   0  0  0  0  0  0  0  0  0  0  0  0
   -2.0502    0.2789    5.2208 C   0  0  0  0  0  0  0  0  0  0  0  0
   -2.8099   -0.5175    5.2742 H   0  0  0  0  0  0  0  0  0  0  0  0
   -1.2190   -0.0687    5.8551 H   0  0  0  0  0  0  0  0  0  0  0  0
   -2.4882    1.1338    5.7604 H   0  0  0  0  0  0  0  0  0  0  0  0
   -2.3680    1.5337    3.1790 N   0  0  0  0  0  0  0  0  0  0  0  0
   -2.1212    1.9597    1.8266 C   0  0  2  0  0  0  0  0  0  0  0  0
   -0.7862    1.3744    1.3854 C   0  0  0  0  0  0  0  0  0  0  0  0
    0.0859    1.0216    2.1767 O   0  0  0  0  0  0  0  0  0  0  0  0
   -2.1124    3.4765    1.7171 C   0  0  0  0  0  0  0  0  0  0  0  0
   -3.1331    1.9695    3.6908 H   0  0  0  0  0  0  0  0  0  0  0  0
   -2.9253    1.5413    1.2115 H   0  0  0  0  0  0  0  0  0  0  0  0
   -1.3133    3.9138    2.3268 H   0  0  0  0  0  0  0  0  0  0  0  0
   -1.9529    3.7988    0.6829 H   0  0  0  0  0  0  0  0  0  0  0  0
   -3.0626    3.8977    2.0629 H   0  0  0  0  0  0  0  0  0  0  0  0
   -0.6635    1.3313    0.0020 N   0  0  0  0  0  0  0  0  0  0  0  0
    0.5138    0.8305   -0.6617 C   0  0  2  0  0  0  0  0  0  0  0  0
    0.4859   -0.6892   -0.5437 C   0  0  0  0  0  0  0  0  0  0  0  0
    0.4438   -1.2759    0.5357 O   0  0  0  0  0  0  0  0  0  0  0  0
    1.8043    1.3889   -0.0511 C   0  0  0  0  0  0  0  0  0  0  0  0
    1.9273    2.8843   -0.2132 C   0  0  0  0  0  0  0  0  0  0  0  0
    2.2523    3.4305   -1.4296 N   0  0  0  0  0  0  0  0  0  0  0  0
    1.7526    3.8608    0.7389 C   0  0  0  0  0  0  0  0  0  0  0  0
    2.2744    4.7279   -1.2188 C   0  0  0  0  0  0  0  0  0  0  0  0
    1.9787    5.0363    0.0799 N   0  0  0  0  0  0  0  0  0  0  0  0
   -1.4467    1.6280   -0.5753 H   0  0  0  0  0  0  0  0  0  0  0  0
    0.4200    1.1102   -1.7176 H   0  0  0  0  0  0  0  0  0  0  0  0
    2.6797    0.8959   -0.4953 H   0  0  0  0  0  0  0  0  0  0  0  0
    1.8546    1.1540    1.0204 H   0  0  0  0  0  0  0  0  0  0  0  0
    1.4977    3.8313    1.7885 H   0  0  0  0  0  0  0  0  0  0  0  0
    2.4944    5.4889   -1.9541 H   0  0  0  0  0  0  0  0  0  0  0  0
    1.9345    5.9644    0.4792 H   0  0  0  0  0  0  0  0  0  0  0  0
    0.4634   -1.3066   -1.7866 N   0  0  0  0  0  0  0  0  0  0  0  0
    0.4122   -2.7405   -1.9596 C   0  0  2  0  0  0  0  0  0  0  0  0
    1.5016   -3.3580   -1.0928 C   0  0  0  0  0  0  0  0  0  0  0  0
    2.4916   -2.7351   -0.7147 O   0  0  0  0  0  0  0  0  0  0  0  0
    0.5935   -3.1286   -3.4188 C   0  0  0  0  0  0  0  0  0  0  0  0
    0.4839   -0.7210   -2.6164 H   0  0  0  0  0  0  0  0  0  0  0  0
   -0.5699   -3.0675   -1.6010 H   0  0  0  0  0  0  0  0  0  0  0  0
    1.5719   -2.8092   -3.7958 H   0  0  0  0  0  0  0  0  0  0  0  0
    0.5259   -4.2133   -3.5522 H   0  0  0  0  0  0  0  0  0  0  0  0
   -0.1732   -2.6596   -4.0450 H   0  0  0  0  0  0  0  0  0  0  0  0
    1.2598   -4.6985   -0.8270 N   0  0  0  0  0  0  0  0  0  0  0  0
    2.1546   -5.5101   -0.0353 C   0  0  0  0  0  0  0  0  0  0  0  0
    0.4039   -5.1285   -1.1650 H   0  0  0  0  0  0  0  0  0  0  0  0
    2.8733   -6.0162   -0.6966 H   0  0  0  0  0  0  0  0  0  0  0  0
    2.6982   -4.8700    0.6752 H   0  0  0  0  0  0  0  0  0  0  0  0
    1.5739   -6.2622    0.5188 H   0  0  0  0  0  0  0  0  0  0  0  0
 22 24  2  0  0  0  0
 24 26  1  0  0  0  0
 23 25  2  0  0  0  0
 25 26  1  0  0  0  0
 21 22  1  0  0  0  0
 22 23  1  0  0  0  0
  1  3  1  0  0  0  0
  1  7  1  0  0  0  0
  1  2  2  0  0  0  0
 35 36  1  0  0  0  0
 36 44  1  0  0  0  0
 36 37  2  0  0  0  0
  8  9  1  0  0  0  0
  9 17  1  0  0  0  0
  9 10  2  0  0  0  0
 18 19  1  0  0  0  0
 19 34  1  0  0  0  0
 19 20  2  0  0  0  0
 35 38  1  0  0  0  0
  8 11  1  0  0  0  0
 44 45  1  0  0  0  0
 18 21  1  0  0  0  0
 34 35  1  0  0  0  0
  7  8  1  0  0  0  0
 17 18  1  0  0  0  0
 24 31  1  0  0  0  0
 25 32  1  0  0  0  0
  3  4  1  0  0  0  0
  3  5  1  0  0  0  0
  3  6  1  0  0  0  0
 38 41  1  0  0  0  0
 38 42  1  0  0  0  0
 38 43  1  0  0  0  0
 11 14  1  0  0  0  0
 11 15  1  0  0  0  0
 11 16  1  0  0  0  0
 45 47  1  0  0  0  0
 45 48  1  0  0  0  0
 45 49  1  0  0  0  0
 21 29  1  0  0  0  0
 21 30  1  0  0  0  0
 35 40  1  0  0  0  0
  8 13  1  0  0  0  0
 18 28  1  0  0  0  0
 26 33  1  0  0  0  0
 44 46  1  0  0  0  0
  7 12  1  0  0  0  0
 34 39  1  0  0  0  0
 17 27  1  0  0  0  0
M  END
$$$$

  -OEChem-05262214473D

 49 49  0     1  0  0  0  0  0999 V2000
   -1.6183    0.5613    3.8201 C   0  0  0  0  0  0  0  0  0  0  0  0
   -0.6710   -0.0534    3.3444 O   0  0  0  0  0  0  0  0  0  0  0  0
   -2.0502    0.2789    5.2208 C   0  0  0  0  0  0  0  0  0  0  0  0
   -2.8099   -0.5175    5.2742 H   0  0  0  0  0  0  0  0  0  0  0  0
   -1.2190   -0.0687    5.8551 H   0  0  0  0  0  0  0  0  0  0  0  0
   -2.4882    1.1338    5.7604 H   0  0  0  0  0  0  0  0  0  0  0  0
   -2.3680    1.5337    3.1790 N   0  0  0  0  0  0  0  0  0  0  0  0
   -2.1212    1.9597    1.8266 C   0  0  2  0  0  0  0  0  0  0  0  0
   -0.7862    1.3744    1.3854 C   0  0  0  0  0  0  0  0  0  0  0  0
    0.0859    1.0216    2.1767 O   0  0  0  0  0  0  0  0  0  0  0  0
   -2.1124    3.4765    1.7171 C   0  0  0  0  0  0  0  0  0  0  0  0
   -3.1331    1.9695    3.6908 H   0  0  0  0  0  0  0  0  0  0  0  0
   -2.9253    1.5413    1.2115 H   0  0  0  0  0  0  0  0  0  0  0  0
   -1.3133    3.9138    2.3268 H   0  0  0  0  0  0  0  0  0  0  0  0
   -1.9529    3.7988    0.6829 H   0  0  0  0  0  0  0  0  0  0  0  0
   -3.0626    3.8977    2.0629 H   0  0  0  0  0  0  0  0  0  0  0  0
   -0.6635    1.3313    0.0020 N   0  0  0  0  0  0  0  0  0  0  0  0
    0.5138    0.8305   -0.6617 C   0  0  2  0  0  0  0  0  0  0  0  0
    0.4859   -0.6892   -0.5437 C   0  0  0  0  0  0  0  0  0  0  0  0
    0.1781   -1.2744    0.4925 O   0  0  0  0  0  0  0  0  0  0  0  0
    1.8043    1.3889   -0.0511 C   0  0  0  0  0  0  0  0  0  0  0  0
    1.9273    2.8843   -0.2132 C   0  0  0  0  0  0  0  0  0  0  0  0
    2.2523    3.4305   -1.4296 N   0  0  0  0  0  0  0  0  0  0  0  0
    1.7526    3.8608    0.7389 C   0  0  0  0  0  0  0  0  0  0  0  0
    2.2744    4.7279   -1.2188 C   0  0  0  0  0  0  0  0  0  0  0  0
    1.9787    5.0363    0.0799 N   0  0  0  0  0  0  0  0  0  0  0  0
   -1.4467    1.6280   -0.5753 H   0  0  0  0  0  0  0  0  0  0  0  0
    0.4200    1.1102   -1.7176 H   0  0  0  0  0  0  0  0  0  0  0  0
    2.6797    0.8959   -0.4953 H   0  0  0  0  0  0  0  0  0  0  0  0
    1.8546    1.1540    1.0204 H   0  0  0  0  0  0  0  0  0  0  0  0
    1.4977    3.8313    1.7885 H   0  0  0  0  0  0  0  0  0  0  0  0
    2.4944    5.4889   -1.9541 H   0  0  0  0  0  0  0  0  0  0  0  0
    1.9345    5.9644    0.4792 H   0  0  0  0  0  0  0  0  0  0  0  0
    0.7969   -1.3095   -1.7458 N   0  0  0  0  0  0  0  0  0  0  0  0
    0.8199   -2.7445   -1.9156 C   0  0  2  0  0  0  0  0  0  0  0  0
    1.6605   -3.3376   -0.7926 C   0  0  0  0  0  0  0  0  0  0  0  0
    2.5071   -2.6936   -0.1765 O   0  0  0  0  0  0  0  0  0  0  0  0
    1.3791   -3.1319   -3.2758 C   0  0  0  0  0  0  0  0  0  0  0  0
    1.0195   -0.7254   -2.5464 H   0  0  0  0  0  0  0  0  0  0  0  0
   -0.2149   -3.0910   -1.8201 H   0  0  0  0  0  0  0  0  0  0  0  0
    2.4153   -2.7931   -3.3900 H   0  0  0  0  0  0  0  0  0  0  0  0
    1.3693   -4.2180   -3.4141 H   0  0  0  0  0  0  0  0  0  0  0  0
    0.7910   -2.6801   -4.0819 H   0  0  0  0  0  0  0  0  0  0  0  0
    1.3844   -4.6823   -0.5883 N   0  0  0  0  0  0  0  0  0  0  0  0
    2.0602   -5.4736    0.4133 C   0  0  0  0  0  0  0  0  0  0  0  0
    0.6532   -5.1305   -1.1325 H   0  0  0  0  0  0  0  0  0  0  0  0
    2.9349   -5.9661   -0.0365 H   0  0  0  0  0  0  0  0  0  0  0  0
    2.3894   -4.8209    1.2353 H   0  0  0  0  0  0  0  0  0  0  0  0
    1.3708   -6.2363    0.8044 H   0  0  0  0  0  0  0  0  0  0  0  0
 22 24  2  0  0  0  0
 24 26  1  0  0  0  0
 23 25  2  0  0  0  0
 25 26  1  0  0  0  0
 21 22  1  0  0  0  0
 22 23  1  0  0  0  0
  1  3  1  0  0  0  0
  1  7  1  0  0  0  0
  1  2  2  0  0  0  0
 35 36  1  0  0  0  0
 36 44  1  0  0  0  0
 36 37  2  0  0  0  0
  8  9  1  0  0  0  0
  9 17  1  0  0  0  0
  9 10  2  0  0  0  0
 18 19  1  0  0  0  0
 19 34  1  0  0  0  0
 19 20  2  0  0  0  0
 35 38  1  0  0  0  0
  8 11  1  0  0  0  0
 44 45  1  0  0  0  0
 18 21  1  0  0  0  0
 34 35  1  0  0  0  0
  7  8  1  0  0  0  0
 17 18  1  0  0  0  0
 24 31  1  0  0  0  0
 25 32  1  0  0  0  0
  3  4  1  0  0  0  0
  3  5  1  0  0  0  0
  3  6  1  0  0  0  0
 38 41  1  0  0  0  0
 38 42  1  0  0  0  0
 38 43  1  0  0  0  0
 11 14  1  0  0  0  0
 11 15  1  0  0  0  0
 11 16  1  0  0  0  0
 45 47  1  0  0  0  0
 45 48  1  0  0  0  0
 45 49  1  0  0  0  0
 21 29  1  0  0  0  0
 21 30  1  0  0  0  0
 35 40  1  0  0  0  0
  8 13  1  0  0  0  0
 18 28  1  0  0  0  0
 26 33  1  0  0  0  0
 44 46  1  0  0  0  0
  7 12  1  0  0  0  0
 34 39  1  0  0  0  0
 17 27  1  0  0  0  0
M  END
$$$$

  -OEChem-05262214473D

 49 49  0     1  0  0  0  0  0999 V2000
   -1.6183    0.5613    3.8201 C   0  0  0  0  0  0  0  0  0  0  0  0
   -0.6710   -0.0534    3.3444 O   0  0  0  0  0  0  0  0  0  0  0  0
   -2.0502    0.2789    5.2208 C   0  0  0  0  0  0  0  0  0  0  0  0
   -2.8099   -0.5175    5.2742 H   0  0  0  0  0  0  0  0  0  0  0  0
   -1.2190   -0.0687    5.8551 H   0  0  0  0  0  0  0  0  0  0  0  0
   -2.4882    1.1338    5.7604 H   0  0  0  0  0  0  0  0  0  0  0  0
   -2.3680    1.5337    3.1790 N   0  0  0  0  0  0  0  0  0  0  0  0
   -2.1212    1.9597    1.8266 C   0  0  2  0  0  0  0  0  0  0  0  0
   -0.7862    1.3744    1.3854 C   0  0  0  0  0  0  0  0  0  0  0  0
    0.0859    1.0216    2.1767 O   0  0  0  0  0  0  0  0  0  0  0  0
   -2.1124    3.4765    1.7171 C   0  0  0  0  0  0  0  0  0  0  0  0
   -3.1331    1.9695    3.6908 H   0  0  0  0  0  0  0  0  0  0  0  0
   -2.9253    1.5413    1.2115 H   0  0  0  0  0  0  0  0  0  0  0  0
   -1.3133    3.9138    2.3268 H   0  0  0  0  0  0  0  0  0  0  0  0
   -1.9529    3.7988    0.6829 H   0  0  0  0  0  0  0  0  0  0  0  0
   -3.0626    3.8977    2.0629 H   0  0  0  0  0  0  0  0  0  0  0  0
   -0.6635    1.3313    0.0020 N   0  0  0  0  0  0  0  0  0  0  0  0
    0.5138    0.8305   -0.6617 C   0  0  2  0  0  0  0  0  0  0  0  0
    0.4859   -0.6892   -0.5437 C   0  0  0  0  0  0  0  0  0  0  0  0
   -0.0675   -1.2784    0.3823 O   0  0  0  0  0  0  0  0  0  0  0  0
    1.8043    1.3889   -0.0511 C   0  0  0  0  0  0  0  0  0  0  0  0
    1.9273    2.8843   -0.2132 C   0  0  0  0  0  0  0  0  0  0  0  0
    2.2523    3.4305   -1.4296 N   0  0  0  0  0  0  0  0  0  0  0  0
    1.7526    3.8608    0.7389 C   0  0  0  0  0  0  0  0  0  0  0  0
    2.2744    4.7279   -1.2188 C   0  0  0  0  0  0  0  0  0  0  0  0
    1.9787    5.0363    0.0799 N   0  0  0  0  0  0  0  0  0  0  0  0
   -1.4467    1.6280   -0.5753 H   0  0  0  0  0  0  0  0  0  0  0  0
    0.4200    1.1102   -1.7176 H   0  0  0  0  0  0  0  0  0  0  0  0
    2.6797    0.8959   -0.4953 H   0  0  0  0  0  0  0  0  0  0  0  0
    1.8546    1.1540    1.0204 H   0  0  0  0  0  0  0  0  0  0  0  0
    1.4977    3.8313    1.7885 H   0  0  0  0  0  0  0  0  0  0  0  0
    2.4944    5.4889   -1.9541 H   0  0  0  0  0  0  0  0  0  0  0  0
    1.9345    5.9644    0.4792 H   0  0  0  0  0  0  0  0  0  0  0  0
    1.1085   -1.3055   -1.6203 N   0  0  0  0  0  0  0  0  0  0  0  0
    1.2025   -2.7401   -1.7679 C   0  0  2  0  0  0  0  0  0  0  0  0
    1.7361   -3.3133   -0.4617 C   0  0  0  0  0  0  0  0  0  0  0  0
    2.3824   -2.6507    0.3472 O   0  0  0  0  0  0  0  0  0  0  0  0
    2.1011   -3.1186   -2.9349 C   0  0  0  0  0  0  0  0  0  0  0  0
    1.5188   -0.7186   -2.3407 H   0  0  0  0  0  0  0  0  0  0  0  0
    0.1850   -3.1076   -1.9400 H   0  0  0  0  0  0  0  0  0  0  0  0
    3.1249   -2.7588   -2.7804 H   0  0  0  0  0  0  0  0  0  0  0  0
    2.1485   -4.2050   -3.0631 H   0  0  0  0  0  0  0  0  0  0  0  0
    1.7323   -2.6808   -3.8688 H   0  0  0  0  0  0  0  0  0  0  0  0
    1.4428   -4.6630   -0.3257 N   0  0  0  0  0  0  0  0  0  0  0  0
    1.8525   -5.4380    0.8222 C   0  0  0  0  0  0  0  0  0  0  0  0
    0.8856   -5.1274   -1.0367 H   0  0  0  0  0  0  0  0  0  0  0  0
    2.8230   -5.9133    0.6168 H   0  0  0  0  0  0  0  0  0  0  0  0
    1.9458   -4.7770    1.6964 H   0  0  0  0  0  0  0  0  0  0  0  0
    1.1005   -6.2140    1.0278 H   0  0  0  0  0  0  0  0  0  0  0  0
 22 24  2  0  0  0  0
 24 26  1  0  0  0  0
 23 25  2  0  0  0  0
 25 26  1  0  0  0  0
 21 22  1  0  0  0  0
 22 23  1  0  0  0  0
  1  3  1  0  0  0  0
  1  7  1  0  0  0  0
  1  2  2  0  0  0  0
 35 36  1  0  0  0  0
 36 44  1  0  0  0  0
 36 37  2  0  0  0  0
  8  9  1  0  0  0  0
  9 17  1  0  0  0  0
  9 10  2  0  0  0  0
 18 19  1  0  0  0  0
 19 34  1  0  0  0  0
 19 20  2  0  0  0  0
 35 38  1  0  0  0  0
  8 11  1  0  0  0  0
 44 45  1  0  0  0  0
 18 21  1  0  0  0  0
 34 35  1  0  0  0  0
  7  8  1  0  0  0  0
 17 18  1  0  0  0  0
 24 31  1  0  0  0  0
 25 32  1  0  0  0  0
  3  4  1  0  0  0  0
  3  5  1  0  0  0  0
  3  6  1  0  0  0  0
 38 41  1  0  0  0  0
 38 42  1  0  0  0  0
 38 43  1  0  0  0  0
 11 14  1  0  0  0  0
 11 15  1  0  0  0  0
 11 16  1  0  0  0  0
 45 47  1  0  0  0  0
 45 48  1  0  0  0  0
 45 49  1  0  0  0  0
 21 29  1  0  0  0  0
 21 30  1  0  0  0  0
 35 40  1  0  0  0  0
  8 13  1  0  0  0  0
 18 28  1  0  0  0  0
 26 33  1  0  0  0  0
 44 46  1  0  0  0  0
  7 12  1  0  0  0  0
 34 39  1  0  0  0  0
 17 27  1  0  0  0  0
M  END
$$$$

  -OEChem-05262214473D

 49 49  0     1  0  0  0  0  0999 V2000
   -1.6183    0.5613    3.8201 C   0  0  0  0  0  0  0  0  0  0  0  0
   -0.6710   -0.0534    3.3444 O   0  0  0  0  0  0  0  0  0  0  0  0
   -2.0502    0.2789    5.2208 C   0  0  0  0  0  0  0  0  0  0  0  0
   -2.8099   -0.5175    5.2742 H   0  0  0  0  0  0  0  0  0  0  0  0
   -1.2190   -0.0687    5.8551 H   0  0  0  0  0  0  0  0  0  0  0  0
   -2.4882    1.1338    5.7604 H   0  0  0  0  0  0  0  0  0  0  0  0
   -2.3680    1.5337    3.1790 N   0  0  0  0  0  0  0  0  0  0  0  0
   -2.1212    1.9597    1.8266 C   0  0  2  0  0  0  0  0  0  0  0  0
   -0.7862    1.3744    1.3854 C   0  0  0  0  0  0  0  0  0  0  0  0
    0.0859    1.0216    2.1767 O   0  0  0  0  0  0  0  0  0  0  0  0
   -2.1124    3.4765    1.7171 C   0  0  0  0  0  0  0  0  0  0  0  0
   -3.1331    1.9695    3.6908 H   0  0  0  0  0  0  0  0  0  0  0  0
   -2.9253    1.5413    1.2115 H   0  0  0  0  0  0  0  0  0  0  0  0
   -1.3133    3.9138    2.3268 H   0  0  0  0  0  0  0  0  0  0  0  0
   -1.9529    3.7988    0.6829 H   0  0  0  0  0  0  0  0  0  0  0  0
   -3.0626    3.8977    2.0629 H   0  0  0  0  0  0  0  0  0  0  0  0
   -0.6635    1.3313    0.0020 N   0  0  0  0  0  0  0  0  0  0  0  0
    0.5138    0.8305   -0.6617 C   0  0  2  0  0  0  0  0  0  0  0  0
    0.4859   -0.6892   -0.5437 C   0  0  0  0  0  0  0  0  0  0  0  0
   -0.2761   -1.2878    0.2125 O   0  0  0  0  0  0  0  0  0  0  0  0
    1.8043    1.3889   -0.0511 C   0  0  0  0  0  0  0  0  0  0  0  0
    1.9273    2.8843   -0.2132 C   0  0  0  0  0  0  0  0  0  0  0  0
    2.2523    3.4305   -1.4296 N   0  0  0  0  0  0  0  0  0  0  0  0
    1.7526    3.8608    0.7389 C   0  0  0  0  0  0  0  0  0  0  0  0
    2.2744    4.7279   -1.2188 C   0  0  0  0  0  0  0  0  0  0  0  0
    1.9787    5.0363    0.0799 N   0  0  0  0  0  0  0  0  0  0  0  0
   -1.4467    1.6280   -0.5753 H   0  0  0  0  0  0  0  0  0  0  0  0
    0.4200    1.1102   -1.7176 H   0  0  0  0  0  0  0  0  0  0  0  0
    2.6797    0.8959   -0.4953 H   0  0  0  0  0  0  0  0  0  0  0  0
    1.8546    1.1540    1.0204 H   0  0  0  0  0  0  0  0  0  0  0  0
    1.4977    3.8313    1.7885 H   0  0  0  0  0  0  0  0  0  0  0  0
    2.4944    5.4889   -1.9541 H   0  0  0  0  0  0  0  0  0  0  0  0
    1.9345    5.9644    0.4792 H   0  0  0  0  0  0  0  0  0  0  0  0
    1.3771   -1.2947   -1.4187 N   0  0  0  0  0  0  0  0  0  0  0  0
    1.5338   -2.7274   -1.5265 C   0  0  2  0  0  0  0  0  0  0  0  0
    1.7233   -3.2867   -0.1227 C   0  0  0  0  0  0  0  0  0  0  0  0
    2.1260   -2.6092    0.8206 O   0  0  0  0  0  0  0  0  0  0  0  0
    2.7103   -3.0897   -2.4194 C   0  0  0  0  0  0  0  0  0  0  0  0
    1.9479   -0.7010   -2.0132 H   0  0  0  0  0  0  0  0  0  0  0  0
    0.6025   -3.1162   -1.9525 H   0  0  0  0  0  0  0  0  0  0  0  0
    3.6524   -2.7085   -2.0088 H   0  0  0  0  0  0  0  0  0  0  0  0
    2.8102   -4.1752   -2.5231 H   0  0  0  0  0  0  0  0  0  0  0  0
    2.5865   -2.6616   -3.4200 H   0  0  0  0  0  0  0  0  0  0  0  0
    1.4311   -4.6419   -0.0570 N   0  0  0  0  0  0  0  0  0  0  0  0
    1.5457   -5.4059    1.1633 C   0  0  0  0  0  0  0  0  0  0  0  0
    1.0854   -5.1192   -0.8843 H   0  0  0  0  0  0  0  0  0  0  0  0
    2.5453   -5.8615    1.2188 H   0  0  0  0  0  0  0  0  0  0  0  0
    1.3973   -4.7413    2.0272 H   0  0  0  0  0  0  0  0  0  0  0  0
    0.7813   -6.1969    1.1737 H   0  0  0  0  0  0  0  0  0  0  0  0
 22 24  2  0  0  0  0
 24 26  1  0  0  0  0
 23 25  2  0  0  0  0
 25 26  1  0  0  0  0
 21 22  1  0  0  0  0
 22 23  1  0  0  0  0
  1  3  1  0  0  0  0
  1  7  1  0  0  0  0
  1  2  2  0  0  0  0
 35 36  1  0  0  0  0
 36 44  1  0  0  0  0
 36 37  2  0  0  0  0
  8  9  1  0  0  0  0
  9 17  1  0  0  0  0
  9 10  2  0  0  0  0
 18 19  1  0  0  0  0
 19 34  1  0  0  0  0
 19 20  2  0  0  0  0
 35 38  1  0  0  0  0
  8 11  1  0  0  0  0
 44 45  1  0  0  0  0
 18 21  1  0  0  0  0
 34 35  1  0  0  0  0
  7  8  1  0  0  0  0
 17 18  1  0  0  0  0
 24 31  1  0  0  0  0
 25 32  1  0  0  0  0
  3  4  1  0  0  0  0
  3  5  1  0  0  0  0
  3  6  1  0  0  0  0
 38 41  1  0  0  0  0
 38 42  1  0  0  0  0
 38 43  1  0  0  0  0
 11 14  1  0  0  0  0
 11 15  1  0  0  0  0
 11 16  1  0  0  0  0
 45 47  1  0  0  0  0
 45 48  1  0  0  0  0
 45 49  1  0  0  0  0
 21 29  1  0  0  0  0
 21 30  1  0  0  0  0
 35 40  1  0  0  0  0
  8 13  1  0  0  0  0
 18 28  1  0  0  0  0
 26 33  1  0  0  0  0
 44 46  1  0  0  0  0
  7 12  1  0  0  0  0
 34 39  1  0  0  0  0
 17 27  1  0  0  0  0
M  END
$$$$

  -OEChem-05262214473D

 49 49  0     1  0  0  0  0  0999 V2000
   -1.6183    0.5613    3.8201 C   0  0  0  0  0  0  0  0  0  0  0  0
   -0.6710   -0.0534    3.3444 O   0  0  0  0  0  0  0  0  0  0  0  0
   -2.0502    0.2789    5.2208 C   0  0  0  0  0  0  0  0  0  0  0  0
   -2.8099   -0.5175    5.2742 H   0  0  0  0  0  0  0  0  0  0  0  0
   -1.2190   -0.0687    5.8551 H   0  0  0  0  0  0  0  0  0  0  0  0
   -2.4882    1.1338    5.7604 H   0  0  0  0  0  0  0  0  0  0  0  0
   -2.3680    1.5337    3.1790 N   0  0  0  0  0  0  0  0  0  0  0  0
   -2.1212    1.9597    1.8266 C   0  0  2  0  0  0  0  0  0  0  0  0
   -0.7862    1.3744    1.3854 C   0  0  0  0  0  0  0  0  0  0  0  0
    0.0859    1.0216    2.1767 O   0  0  0  0  0  0  0  0  0  0  0  0
   -2.1124    3.4765    1.7171 C   0  0  0  0  0  0  0  0  0  0  0  0
   -3.1331    1.9695    3.6908 H   0  0  0  0  0  0  0  0  0  0  0  0
   -2.9253    1.5413    1.2115 H   0  0  0  0  0  0  0  0  0  0  0  0
   -1.3133    3.9138    2.3268 H   0  0  0  0  0  0  0  0  0  0  0  0
   -1.9529    3.7988    0.6829 H   0  0  0  0  0  0  0  0  0  0  0  0
   -3.0626    3.8977    2.0629 H   0  0  0  0  0  0  0  0  0  0  0  0
   -0.6635    1.3313    0.0020 N   0  0  0  0  0  0  0  0  0  0  0  0
    0.5138    0.8305   -0.6617 C   0  0  2  0  0  0  0  0  0  0  0  0
    0.3077   -0.6644   -0.8786 C   0  0  0  0  0  0  0  0  0  0  0  0
   -0.7239   -1.2511   -0.5584 O   0  0  0  0  0  0  0  0  0  0  0  0
    1.7881    1.0801    0.1532 C   0  0  0  0  0  0  0  0  0  0  0  0
    2.0901    2.5483    0.3292 C   0  0  0  0  0  0  0  0  0  0  0  0
    2.5962    3.2868   -0.7110 N   0  0  0  0  0  0  0  0  0  0  0  0
    1.9265    3.3219    1.4540 C   0  0  0  0  0  0  0  0  0  0  0  0
    2.7385    4.4990   -0.2228 C   0  0  0  0  0  0  0  0  0  0  0  0
    2.3465    4.5688    1.0851 N   0  0  0  0  0  0  0  0  0  0  0  0
   -1.4467    1.6280   -0.5753 H   0  0  0  0  0  0  0  0  0  0  0  0
    0.5602    1.3314   -1.6358 H   0  0  0  0  0  0  0  0  0  0  0  0
    2.6452    0.5806   -0.3186 H   0  0  0  0  0  0  0  0  0  0  0  0
    1.7020    0.6251    1.1488 H   0  0  0  0  0  0  0  0  0  0  0  0
    1.5634    3.1099    2.4494 H   0  0  0  0  0  0  0  0  0  0  0  0
    3.1149    5.3603   -0.7565 H   0  0  0  0  0  0  0  0  0  0  0  0
    2.3634    5.3925    1.6715 H   0  0  0  0  0  0  0  0  0  0  0  0
    1.3919   -1.2512   -1.5162 N   0  0  0  0  0  0  0  0  0  0  0  0
    1.4455   -2.6535   -1.8620 C   0  0  2  0  0  0  0  0  0  0  0  0
    1.0738   -3.4579   -0.6233 C   0  0  0  0  0  0  0  0  0  0  0  0
    1.1762   -3.0159    0.5191 O   0  0  0  0  0  0  0  0  0  0  0  0
    2.8238   -3.0455   -2.3713 C   0  0  0  0  0  0  0  0  0  0  0  0
    2.1878   -0.6657   -1.7516 H   0  0  0  0  0  0  0  0  0  0  0  0
    0.6942   -2.8157   -2.6425 H   0  0  0  0  0  0  0  0  0  0  0  0
    3.5899   -2.8899   -1.6030 H   0  0  0  0  0  0  0  0  0  0  0  0
    2.8546   -4.1014   -2.6598 H   0  0  0  0  0  0  0  0  0  0  0  0
    3.1019   -2.4453   -3.2443 H   0  0  0  0  0  0  0  0  0  0  0  0
    0.6552   -4.7423   -0.9414 N   0  0  0  0  0  0  0  0  0  0  0  0
    0.2601   -5.7041    0.0610 C   0  0  0  0  0  0  0  0  0  0  0  0
    0.5830   -5.0172   -1.9166 H   0  0  0  0  0  0  0  0  0  0  0  0
    1.1294   -6.3144    0.3471 H   0  0  0  0  0  0  0  0  0  0  0  0
   -0.1234   -5.1749    0.9458 H   0  0  0  0  0  0  0  0  0  0  0  0
   -0.5271   -6.3557   -0.3464 H   0  0  0  0  0  0  0  0  0  0  0  0
 22 24  2  0  0  0  0
 24 26  1  0  0  0  0
 23 25  2  0  0  0  0
 25 26  1  0  0  0  0
 21 22  1  0  0  0  0
 22 23  1  0  0  0  0
  1  3  1  0  0  0  0
  1  7  1  0  0  0  0
  1  2  2  0  0  0  0
 35 36  1  0  0  0  0
 36 44  1  0  0  0  0
 36 37  2  0  0  0  0
  8  9  1  0  0  0  0
  9 17  1  0  0  0  0
  9 10  2  0  0  0  0
 18 19  1  0  0  0  0
 19 34  1  0  0  0  0
 19 20  2  0  0  0  0
 35 38  1  0  0  0  0
  8 11  1  0  0  0  0
 44 45  1  0  0  0  0
 18 21  1  0  0  0  0
 34 35  1  0  0  0  0
  7  8  1  0  0  0  0
 17 18  1  0  0  0  0
 24 31  1  0  0  0  0
 25 32  1  0  0  0  0
  3  4  1  0  0  0  0
  3  5  1  0  0  0  0
  3  6  1  0  0  0  0
 38 41  1  0  0  0  0
 38 42  1  0  0  0  0
 38 43  1  0  0  0  0
 11 14  1  0  0  0  0
 11 15  1  0  0  0  0
 11 16  1  0  0  0  0
 45 47  1  0  0  0  0
 45 48  1  0  0  0  0
 45 49  1  0  0  0  0
 21 29  1  0  0  0  0
 21 30  1  0  0  0  0
 35 40  1  0  0  0  0
  8 13  1  0  0  0  0
 18 28  1  0  0  0  0
 26 33  1  0  0  0  0
 44 46  1  0  0  0  0
  7 12  1  0  0  0  0
 34 39  1  0  0  0  0
 17 27  1  0  0  0  0
M  END
$$$$

  -OEChem-05262214473D

 49 49  0     1  0  0  0  0  0999 V2000
   -1.6183    0.5613    3.8201 C   0  0  0  0  0  0  0  0  0  0  0  0
   -0.6710   -0.0534    3.3444 O   0  0  0  0  0  0  0  0  0  0  0  0
   -2.0502    0.2789    5.2208 C   0  0  0  0  0  0  0  0  0  0  0  0
   -2.8099   -0.5175    5.2742 H   0  0  0  0  0  0  0  0  0  0  0  0
   -1.2190   -0.0687    5.8551 H   0  0  0  0  0  0  0  0  0  0  0  0
   -2.4882    1.1338    5.7604 H   0  0  0  0  0  0  0  0  0  0  0  0
   -2.3680    1.5337    3.1790 N   0  0  0  0  0  0  0  0  0  0  0  0
   -2.1212    1.9597    1.8266 C   0  0  2  0  0  0  0  0  0  0  0  0
   -0.7862    1.3744    1.3854 C   0  0  0  0  0  0  0  0  0  0  0  0
    0.0859    1.0216    2.1767 O   0  0  0  0  0  0  0  0  0  0  0  0
   -2.1124    3.4765    1.7171 C   0  0  0  0  0  0  0  0  0  0  0  0
   -3.1331    1.9695    3.6908 H   0  0  0  0  0  0  0  0  0  0  0  0
   -2.9253    1.5413    1.2115 H   0  0  0  0  0  0  0  0  0  0  0  0
   -1.3133    3.9138    2.3268 H   0  0  0  0  0  0  0  0  0  0  0  0
   -1.9529    3.7988    0.6829 H   0  0  0  0  0  0  0  0  0  0  0  0
   -3.0626    3.8977    2.0629 H   0  0  0  0  0  0  0  0  0  0  0  0
   -0.6635    1.3313    0.0020 N   0  0  0  0  0  0  0  0  0  0  0  0
    0.5138    0.8305   -0.6617 C   0  0  2  0  0  0  0  0  0  0  0  0
    0.3077   -0.6644   -0.8786 C   0  0  0  0  0  0  0  0  0  0  0  0
   -0.7947   -1.2043   -0.8138 O   0  0  0  0  0  0  0  0  0  0  0  0
    1.7881    1.0801    0.1532 C   0  0  0  0  0  0  0  0  0  0  0  0
    2.0901    2.5483    0.3292 C   0  0  0  0  0  0  0  0  0  0  0  0
    2.5962    3.2868   -0.7110 N   0  0  0  0  0  0  0  0  0  0  0  0
    1.9265    3.3219    1.4540 C   0  0  0  0  0  0  0  0  0  0  0  0
    2.7385    4.4990   -0.2228 C   0  0  0  0  0  0  0  0  0  0  0  0
    2.3465    4.5688    1.0851 N   0  0  0  0  0  0  0  0  0  0  0  0
   -1.4467    1.6280   -0.5753 H   0  0  0  0  0  0  0  0  0  0  0  0
    0.5602    1.3314   -1.6358 H   0  0  0  0  0  0  0  0  0  0  0  0
    2.6452    0.5806   -0.3186 H   0  0  0  0  0  0  0  0  0  0  0  0
    1.7020    0.6251    1.1488 H   0  0  0  0  0  0  0  0  0  0  0  0
    1.5634    3.1099    2.4494 H   0  0  0  0  0  0  0  0  0  0  0  0
    3.1149    5.3603   -0.7565 H   0  0  0  0  0  0  0  0  0  0  0  0
    2.3634    5.3925    1.6715 H   0  0  0  0  0  0  0  0  0  0  0  0
    1.4928   -1.3108   -1.2013 N   0  0  0  0  0  0  0  0  0  0  0  0
    1.5742   -2.7267   -1.4795 C   0  0  2  0  0  0  0  0  0  0  0  0
    0.8681   -3.4688   -0.3525 C   0  0  0  0  0  0  0  0  0  0  0  0
    0.6962   -2.9854    0.7646 O   0  0  0  0  0  0  0  0  0  0  0  0
    3.0190   -3.1830   -1.6093 C   0  0  0  0  0  0  0  0  0  0  0  0
    2.3459   -0.7611   -1.2441 H   0  0  0  0  0  0  0  0  0  0  0  0
    1.0388   -2.8954   -2.4203 H   0  0  0  0  0  0  0  0  0  0  0  0
    3.5714   -3.0218   -0.6764 H   0  0  0  0  0  0  0  0  0  0  0  0
    3.0782   -4.2499   -1.8484 H   0  0  0  0  0  0  0  0  0  0  0  0
    3.5337   -2.6272   -2.4006 H   0  0  0  0  0  0  0  0  0  0  0  0
    0.4909   -4.7507   -0.7276 N   0  0  0  0  0  0  0  0  0  0  0  0
   -0.1845   -5.6587    0.1698 C   0  0  0  0  0  0  0  0  0  0  0  0
    0.6566   -5.0616   -1.6803 H   0  0  0  0  0  0  0  0  0  0  0  0
    0.5581   -6.2849    0.6860 H   0  0  0  0  0  0  0  0  0  0  0  0
   -0.7573   -5.0826    0.9115 H   0  0  0  0  0  0  0  0  0  0  0  0
   -0.8691   -6.3001   -0.4045 H   0  0  0  0  0  0  0  0  0  0  0  0
 22 24  2  0  0  0  0
 24 26  1  0  0  0  0
 23 25  2  0  0  0  0
 25 26  1  0  0  0  0
 21 22  1  0  0  0  0
 22 23  1  0  0  0  0
  1  3  1  0  0  0  0
  1  7  1  0  0  0  0
  1  2  2  0  0  0  0
 35 36  1  0  0  0  0
 36 44  1  0  0  0  0
 36 37  2  0  0  0  0
  8  9  1  0  0  0  0
  9 17  1  0  0  0  0
  9 10  2  0  0  0  0
 18 19  1  0  0  0  0
 19 34  1  0  0  0  0
 19 20  2  0  0  0  0
 35 38  1  0  0  0  0
  8 11  1  0  0  0  0
 44 45  1  0  0  0  0
 18 21  1  0  0  0  0
 34 35  1  0  0  0  0
  7  8  1  0  0  0  0
 17 18  1  0  0  0  0
 24 31  1  0  0  0  0
 25 32  1  0  0  0  0
  3  4  1  0  0  0  0
  3  5  1  0  0  0  0
  3  6  1  0  0  0  0
 38 41  1  0  0  0  0
 38 42  1  0  0  0  0
 38 43  1  0  0  0  0
 11 14  1  0  0  0  0
 11 15  1  0  0  0  0
 11 16  1  0  0  0  0
 45 47  1  0  0  0  0
 45 48  1  0  0  0  0
 45 49  1  0  0  0  0
 21 29  1  0  0  0  0
 21 30  1  0  0  0  0
 35 40  1  0  0  0  0
  8 13  1  0  0  0  0
 18 28  1  0  0  0  0
 26 33  1  0  0  0  0
 44 46  1  0  0  0  0
  7 12  1  0  0  0  0
 34 39  1  0  0  0  0
 17 27  1  0  0  0  0
M  END
$$$$

  -OEChem-05262214473D

 49 49  0     1  0  0  0  0  0999 V2000
   -1.6183    0.5613    3.8201 C   0  0  0  0  0  0  0  0  0  0  0  0
   -0.6710   -0.0534    3.3444 O   0  0  0  0  0  0  0  0  0  0  0  0
   -2.0502    0.2789    5.2208 C   0  0  0  0  0  0  0  0  0  0  0  0
   -2.8099   -0.5175    5.2742 H   0  0  0  0  0  0  0  0  0  0  0  0
   -1.2190   -0.0687    5.8551 H   0  0  0  0  0  0  0  0  0  0  0  0
   -2.4882    1.1338    5.7604 H   0  0  0  0  0  0  0  0  0  0  0  0
   -2.3680    1.5337    3.1790 N   0  0  0  0  0  0  0  0  0  0  0  0
   -2.1212    1.9597    1.8266 C   0  0  2  0  0  0  0  0  0  0  0  0
   -0.7862    1.3744    1.3854 C   0  0  0  0  0  0  0  0  0  0  0  0
    0.0859    1.0216    2.1767 O   0  0  0  0  0  0  0  0  0  0  0  0
   -2.1124    3.4765    1.7171 C   0  0  0  0  0  0  0  0  0  0  0  0
   -3.1331    1.9695    3.6908 H   0  0  0  0  0  0  0  0  0  0  0  0
   -2.9253    1.5413    1.2115 H   0  0  0  0  0  0  0  0  0  0  0  0
   -1.3133    3.9138    2.3268 H   0  0  0  0  0  0  0  0  0  0  0  0
   -1.9529    3.7988    0.6829 H   0  0  0  0  0  0  0  0  0  0  0  0
   -3.0626    3.8977    2.0629 H   0  0  0  0  0  0  0  0  0  0  0  0
   -0.6635    1.3313    0.0020 N   0  0  0  0  0  0  0  0  0  0  0  0
    0.5138    0.8305   -0.6617 C   0  0  2  0  0  0  0  0  0  0  0  0
    0.3077   -0.6644   -0.8786 C   0  0  0  0  0  0  0  0  0  0  0  0
   -0.7965   -1.1654   -1.0801 O   0  0  0  0  0  0  0  0  0  0  0  0
    1.7881    1.0801    0.1532 C   0  0  0  0  0  0  0  0  0  0  0  0
    2.0901    2.5483    0.3292 C   0  0  0  0  0  0  0  0  0  0  0  0
    2.5962    3.2868   -0.7110 N   0  0  0  0  0  0  0  0  0  0  0  0
    1.9265    3.3219    1.4540 C   0  0  0  0  0  0  0  0  0  0  0  0
    2.7385    4.4990   -0.2228 C   0  0  0  0  0  0  0  0  0  0  0  0
    2.3465    4.5688    1.0851 N   0  0  0  0  0  0  0  0  0  0  0  0
   -1.4467    1.6280   -0.5753 H   0  0  0  0  0  0  0  0  0  0  0  0
    0.5602    1.3314   -1.6358 H   0  0  0  0  0  0  0  0  0  0  0  0
    2.6452    0.5806   -0.3186 H   0  0  0  0  0  0  0  0  0  0  0  0
    1.7020    0.6251    1.1488 H   0  0  0  0  0  0  0  0  0  0  0  0
    1.5634    3.1099    2.4494 H   0  0  0  0  0  0  0  0  0  0  0  0
    3.1149    5.3603   -0.7565 H   0  0  0  0  0  0  0  0  0  0  0  0
    2.3634    5.3925    1.6715 H   0  0  0  0  0  0  0  0  0  0  0  0
    1.5081   -1.3611   -0.8694 N   0  0  0  0  0  0  0  0  0  0  0  0
    1.5987   -2.7888   -1.0749 C   0  0  2  0  0  0  0  0  0  0  0  0
    0.6003   -3.4623   -0.1427 C   0  0  0  0  0  0  0  0  0  0  0  0
    0.1713   -2.9296    0.8787 O   0  0  0  0  0  0  0  0  0  0  0  0
    3.0092   -3.2963   -0.8189 C   0  0  0  0  0  0  0  0  0  0  0  0
    2.3662   -0.8413   -0.7103 H   0  0  0  0  0  0  0  0  0  0  0  0
    1.3124   -2.9774   -2.1153 H   0  0  0  0  0  0  0  0  0  0  0  0
    3.3136   -3.1161    0.2185 H   0  0  0  0  0  0  0  0  0  0  0  0
    3.0828   -4.3733   -1.0027 H   0  0  0  0  0  0  0  0  0  0  0  0
    3.7299   -2.7893   -1.4696 H   0  0  0  0  0  0  0  0  0  0  0  0
    0.2776   -4.7452   -0.5625 N   0  0  0  0  0  0  0  0  0  0  0  0
   -0.6398   -5.5946    0.1605 C   0  0  0  0  0  0  0  0  0  0  0  0
    0.6661   -5.0990   -1.4319 H   0  0  0  0  0  0  0  0  0  0  0  0
   -0.0787   -6.2234    0.8674 H   0  0  0  0  0  0  0  0  0  0  0  0
   -1.3574   -4.9713    0.7143 H   0  0  0  0  0  0  0  0  0  0  0  0
   -1.1827   -6.2358   -0.5494 H   0  0  0  0  0  0  0  0  0  0  0  0
 22 24  2  0  0  0  0
 24 26  1  0  0  0  0
 23 25  2  0  0  0  0
 25 26  1  0  0  0  0
 21 22  1  0  0  0  0
 22 23  1  0  0  0  0
  1  3  1  0  0  0  0
  1  7  1  0  0  0  0
  1  2  2  0  0  0  0
 35 36  1  0  0  0  0
 36 44  1  0  0  0  0
 36 37  2  0  0  0  0
  8  9  1  0  0  0  0
  9 17  1  0  0  0  0
  9 10  2  0  0  0  0
 18 19  1  0  0  0  0
 19 34  1  0  0  0  0
 19 20  2  0  0  0  0
 35 38  1  0  0  0  0
  8 11  1  0  0  0  0
 44 45  1  0  0  0  0
 18 21  1  0  0  0  0
 34 35  1  0  0  0  0
  7  8  1  0  0  0  0
 17 18  1  0  0  0  0
 24 31  1  0  0  0  0
 25 32  1  0  0  0  0
  3  4  1  0  0  0  0
  3  5  1  0  0  0  0
  3  6  1  0  0  0  0
 38 41  1  0  0  0  0
 38 42  1  0  0  0  0
 38 43  1  0  0  0  0
 11 14  1  0  0  0  0
 11 15  1  0  0  0  0
 11 16  1  0  0  0  0
 45 47  1  0  0  0  0
 45 48  1  0  0  0  0
 45 49  1  0  0  0  0
 21 29  1  0  0  0  0
 21 30  1  0  0  0  0
 35 40  1  0  0  0  0
  8 13  1  0  0  0  0
 18 28  1  0  0  0  0
 26 33  1  0  0  0  0
 44 46  1  0  0  0  0
  7 12  1  0  0  0  0
 34 39  1  0  0  0  0
 17 27  1  0  0  0  0
M  END
$$$$

  -OEChem-05262214473D

 49 49  0     1  0  0  0  0  0999 V2000
   -1.6183    0.5613    3.8201 C   0  0  0  0  0  0  0  0  0  0  0  0
   -0.6710   -0.0534    3.3444 O   0  0  0  0  0  0  0  0  0  0  0  0
   -2.0502    0.2789    5.2208 C   0  0  0  0  0  0  0  0  0  0  0  0
   -2.8099   -0.5175    5.2742 H   0  0  0  0  0  0  0  0  0  0  0  0
   -1.2190   -0.0687    5.8551 H   0  0  0  0  0  0  0  0  0  0  0  0
   -2.4882    1.1338    5.7604 H   0  0  0  0  0  0  0  0  0  0  0  0
   -2.3680    1.5337    3.1790 N   0  0  0  0  0  0  0  0  0  0  0  0
   -2.1212    1.9597    1.8266 C   0  0  2  0  0  0  0  0  0  0  0  0
   -0.7862    1.3744    1.3854 C   0  0  0  0  0  0  0  0  0  0  0  0
    0.0859    1.0216    2.1767 O   0  0  0  0  0  0  0  0  0  0  0  0
   -2.1124    3.4765    1.7171 C   0  0  0  0  0  0  0  0  0  0  0  0
   -3.1331    1.9695    3.6908 H   0  0  0  0  0  0  0  0  0  0  0  0
   -2.9253    1.5413    1.2115 H   0  0  0  0  0  0  0  0  0  0  0  0
   -1.3133    3.9138    2.3268 H   0  0  0  0  0  0  0  0  0  0  0  0
   -1.9529    3.7988    0.6829 H   0  0  0  0  0  0  0  0  0  0  0  0
   -3.0626    3.8977    2.0629 H   0  0  0  0  0  0  0  0  0  0  0  0
   -0.6635    1.3313    0.0020 N   0  0  0  0  0  0  0  0  0  0  0  0
    0.5138    0.8305   -0.6617 C   0  0  2  0  0  0  0  0  0  0  0  0
    0.3077   -0.6644   -0.8786 C   0  0  0  0  0  0  0  0  0  0  0  0
   -0.7293   -1.1370   -1.3392 O   0  0  0  0  0  0  0  0  0  0  0  0
    1.7881    1.0801    0.1532 C   0  0  0  0  0  0  0  0  0  0  0  0
    2.0901    2.5483    0.3292 C   0  0  0  0  0  0  0  0  0  0  0  0
    2.5962    3.2868   -0.7110 N   0  0  0  0  0  0  0  0  0  0  0  0
    1.9265    3.3219    1.4540 C   0  0  0  0  0  0  0  0  0  0  0  0
    2.7385    4.4990   -0.2228 C   0  0  0  0  0  0  0  0  0  0  0  0
    2.3465    4.5688    1.0851 N   0  0  0  0  0  0  0  0  0  0  0  0
   -1.4467    1.6280   -0.5753 H   0  0  0  0  0  0  0  0  0  0  0  0
    0.5602    1.3314   -1.6358 H   0  0  0  0  0  0  0  0  0  0  0  0
    2.6452    0.5806   -0.3186 H   0  0  0  0  0  0  0  0  0  0  0  0
    1.7020    0.6251    1.1488 H   0  0  0  0  0  0  0  0  0  0  0  0
    1.5634    3.1099    2.4494 H   0  0  0  0  0  0  0  0  0  0  0  0
    3.1149    5.3603   -0.7565 H   0  0  0  0  0  0  0  0  0  0  0  0
    2.3634    5.3925    1.6715 H   0  0  0  0  0  0  0  0  0  0  0  0
    1.4369   -1.3986   -0.5432 N   0  0  0  0  0  0  0  0  0  0  0  0
    1.5174   -2.8355   -0.6757 C   0  0  2  0  0  0  0  0  0  0  0  0
    0.2886   -3.4389   -0.0082 C   0  0  0  0  0  0  0  0  0  0  0  0
   -0.3626   -2.8524    0.8538 O   0  0  0  0  0  0  0  0  0  0  0  0
    2.7950   -3.3778   -0.0540 C   0  0  0  0  0  0  0  0  0  0  0  0
    2.2475   -0.9009   -0.1868 H   0  0  0  0  0  0  0  0  0  0  0  0
    1.4963   -3.0559   -1.7485 H   0  0  0  0  0  0  0  0  0  0  0  0
    2.8340   -3.1664    1.0208 H   0  0  0  0  0  0  0  0  0  0  0  0
    2.8681   -4.4630   -0.1803 H   0  0  0  0  0  0  0  0  0  0  0  0
    3.6772   -2.9206   -0.5149 H   0  0  0  0  0  0  0  0  0  0  0  0
    0.0300   -4.7263   -0.4574 N   0  0  0  0  0  0  0  0  0  0  0  0
   -1.0750   -5.5162    0.0338 C   0  0  0  0  0  0  0  0  0  0  0  0
    0.6108   -5.1267   -1.1882 H   0  0  0  0  0  0  0  0  0  0  0  0
   -0.7375   -6.1343    0.8788 H   0  0  0  0  0  0  0  0  0  0  0  0
   -1.8829   -4.8485    0.3676 H   0  0  0  0  0  0  0  0  0  0  0  0
   -1.4465   -6.1673   -0.7712 H   0  0  0  0  0  0  0  0  0  0  0  0
 22 24  2  0  0  0  0
 24 26  1  0  0  0  0
 23 25  2  0  0  0  0
 25 26  1  0  0  0  0
 21 22  1  0  0  0  0
 22 23  1  0  0  0  0
  1  3  1  0  0  0  0
  1  7  1  0  0  0  0
  1  2  2  0  0  0  0
 35 36  1  0  0  0  0
 36 44  1  0  0  0  0
 36 37  2  0  0  0  0
  8  9  1  0  0  0  0
  9 17  1  0  0  0  0
  9 10  2  0  0  0  0
 18 19  1  0  0  0  0
 19 34  1  0  0  0  0
 19 20  2  0  0  0  0
 35 38  1  0  0  0  0
  8 11  1  0  0  0  0
 44 45  1  0  0  0  0
 18 21  1  0  0  0  0
 34 35  1  0  0  0  0
  7  8  1  0  0  0  0
 17 18  1  0  0  0  0
 24 31  1  0  0  0  0
 25 32  1  0  0  0  0
  3  4  1  0  0  0  0
  3  5  1  0  0  0  0
  3  6  1  0  0  0  0
 38 41  1  0  0  0  0
 38 42  1  0  0  0  0
 38 43  1  0  0  0  0
 11 14  1  0  0  0  0
 11 15  1  0  0  0  0
 11 16  1  0  0  0  0
 45 47  1  0  0  0  0
 45 48  1  0  0  0  0
 45 49  1  0  0  0  0
 21 29  1  0  0  0  0
 21 30  1  0  0  0  0
 35 40  1  0  0  0  0
  8 13  1  0  0  0  0
 18 28  1  0  0  0  0
 26 33  1  0  0  0  0
 44 46  1  0  0  0  0
  7 12  1  0  0  0  0
 34 39  1  0  0  0  0
 17 27  1  0  0  0  0
M  END
$$$$

  -OEChem-05262214473D

 49 49  0     1  0  0  0  0  0999 V2000
   -1.6183    0.5613    3.8201 C   0  0  0  0  0  0  0  0  0  0  0  0
   -0.6710   -0.0534    3.3444 O   0  0  0  0  0  0  0  0  0  0  0  0
   -2.0502    0.2789    5.2208 C   0  0  0  0  0  0  0  0  0  0  0  0
   -2.8099   -0.5175    5.2742 H   0  0  0  0  0  0  0  0  0  0  0  0
   -1.2190   -0.0687    5.8551 H   0  0  0  0  0  0  0  0  0  0  0  0
   -2.4882    1.1338    5.7604 H   0  0  0  0  0  0  0  0  0  0  0  0
   -2.3680    1.5337    3.1790 N   0  0  0  0  0  0  0  0  0  0  0  0
   -2.1212    1.9597    1.8266 C   0  0  2  0  0  0  0  0  0  0  0  0
   -0.7862    1.3744    1.3854 C   0  0  0  0  0  0  0  0  0  0  0  0
    0.0859    1.0216    2.1767 O   0  0  0  0  0  0  0  0  0  0  0  0
   -2.1124    3.4765    1.7171 C   0  0  0  0  0  0  0  0  0  0  0  0
   -3.1331    1.9695    3.6908 H   0  0  0  0  0  0  0  0  0  0  0  0
   -2.9253    1.5413    1.2115 H   0  0  0  0  0  0  0  0  0  0  0  0
   -1.3133    3.9138    2.3268 H   0  0  0  0  0  0  0  0  0  0  0  0
   -1.9529    3.7988    0.6829 H   0  0  0  0  0  0  0  0  0  0  0  0
   -3.0626    3.8977    2.0629 H   0  0  0  0  0  0  0  0  0  0  0  0
   -0.6635    1.3313    0.0020 N   0  0  0  0  0  0  0  0  0  0  0  0
    0.5138    0.8305   -0.6617 C   0  0  2  0  0  0  0  0  0  0  0  0
    0.3077   -0.6644   -0.8786 C   0  0  0  0  0  0  0  0  0  0  0  0
   -0.5975   -1.1212   -1.5734 O   0  0  0  0  0  0  0  0  0  0  0  0
    1.7881    1.0801    0.1532 C   0  0  0  0  0  0  0  0  0  0  0  0
    2.0901    2.5483    0.3292 C   0  0  0  0  0  0  0  0  0  0  0  0
    2.5962    3.2868   -0.7110 N   0  0  0  0  0  0  0  0  0  0  0  0
    1.9265    3.3219    1.4540 C   0  0  0  0  0  0  0  0  0  0  0  0
    2.7385    4.4990   -0.2228 C   0  0  0  0  0  0  0  0  0  0  0  0
    2.3465    4.5688    1.0851 N   0  0  0  0  0  0  0  0  0  0  0  0
   -1.4467    1.6280   -0.5753 H   0  0  0  0  0  0  0  0  0  0  0  0
    0.5602    1.3314   -1.6358 H   0  0  0  0  0  0  0  0  0  0  0  0
    2.6452    0.5806   -0.3186 H   0  0  0  0  0  0  0  0  0  0  0  0
    1.7020    0.6251    1.1488 H   0  0  0  0  0  0  0  0  0  0  0  0
    1.5634    3.1099    2.4494 H   0  0  0  0  0  0  0  0  0  0  0  0
    3.1149    5.3603   -0.7565 H   0  0  0  0  0  0  0  0  0  0  0  0
    2.3634    5.3925    1.6715 H   0  0  0  0  0  0  0  0  0  0  0  0
    1.2839   -1.4208   -0.2449 N   0  0  0  0  0  0  0  0  0  0  0  0
    1.3358   -2.8637   -0.3090 C   0  0  2  0  0  0  0  0  0  0  0  0
   -0.0458   -3.4000    0.0417 C   0  0  0  0  0  0  0  0  0  0  0  0
   -0.8691   -2.7590    0.6915 O   0  0  0  0  0  0  0  0  0  0  0  0
    2.3909   -3.4218    0.6333 C   0  0  0  0  0  0  0  0  0  0  0  0
    1.9977   -0.9358    0.2908 H   0  0  0  0  0  0  0  0  0  0  0  0
    1.5779   -3.1258   -1.3448 H   0  0  0  0  0  0  0  0  0  0  0  0
    2.1653   -3.1693    1.6759 H   0  0  0  0  0  0  0  0  0  0  0  0
    2.4487   -4.5130    0.5627 H   0  0  0  0  0  0  0  0  0  0  0  0
    3.3792   -3.0120    0.3985 H   0  0  0  0  0  0  0  0  0  0  0  0
   -0.2353   -4.6953   -0.4193 N   0  0  0  0  0  0  0  0  0  0  0  0
   -1.4602   -5.4289   -0.2018 C   0  0  0  0  0  0  0  0  0  0  0  0
    0.4946   -5.1430   -0.9658 H   0  0  0  0  0  0  0  0  0  0  0  0
   -1.3735   -6.0235    0.7195 H   0  0  0  0  0  0  0  0  0  0  0  0
   -2.2981   -4.7228   -0.1049 H   0  0  0  0  0  0  0  0  0  0  0  0
   -1.6424   -6.0992   -1.0548 H   0  0  0  0  0  0  0  0  0  0  0  0
 22 24  2  0  0  0  0
 24 26  1  0  0  0  0
 23 25  2  0  0  0  0
 25 26  1  0  0  0  0
 21 22  1  0  0  0  0
 22 23  1  0  0  0  0
  1  3  1  0  0  0  0
  1  7  1  0  0  0  0
  1  2  2  0  0  0  0
 35 36  1  0  0  0  0
 36 44  1  0  0  0  0
 36 37  2  0  0  0  0
  8  9  1  0  0  0  0
  9 17  1  0  0  0  0
  9 10  2  0  0  0  0
 18 19  1  0  0  0  0
 19 34  1  0  0  0  0
 19 20  2  0  0  0  0
 35 38  1  0  0  0  0
  8 11  1  0  0  0  0
 44 45  1  0  0  0  0
 18 21  1  0  0  0  0
 34 35  1  0  0  0  0
  7  8  1  0  0  0  0
 17 18  1  0  0  0  0
 24 31  1  0  0  0  0
 25 32  1  0  0  0  0
  3  4  1  0  0  0  0
  3  5  1  0  0  0  0
  3  6  1  0  0  0  0
 38 41  1  0  0  0  0
 38 42  1  0  0  0  0
 38 43  1  0  0  0  0
 11 14  1  0  0  0  0
 11 15  1  0  0  0  0
 11 16  1  0  0  0  0
 45 47  1  0  0  0  0
 45 48  1  0  0  0  0
 45 49  1  0  0  0  0
 21 29  1  0  0  0  0
 21 30  1  0  0  0  0
 35 40  1  0  0  0  0
  8 13  1  0  0  0  0
 18 28  1  0  0  0  0
 26 33  1  0  0  0  0
 44 46  1  0  0  0  0
  7 12  1  0  0  0  0
 34 39  1  0  0  0  0
 17 27  1  0  0  0  0
M  END
$$$$

  -OEChem-05262214473D

 49 49  0     1  0  0  0  0  0999 V2000
   -1.6183    0.5613    3.8201 C   0  0  0  0  0  0  0  0  0  0  0  0
   -0.6710   -0.0534    3.3444 O   0  0  0  0  0  0  0  0  0  0  0  0
   -2.0502    0.2789    5.2208 C   0  0  0  0  0  0  0  0  0  0  0  0
   -2.8099   -0.5175    5.2742 H   0  0  0  0  0  0  0  0  0  0  0  0
   -1.2190   -0.0687    5.8551 H   0  0  0  0  0  0  0  0  0  0  0  0
   -2.4882    1.1338    5.7604 H   0  0  0  0  0  0  0  0  0  0  0  0
   -2.3680    1.5337    3.1790 N   0  0  0  0  0  0  0  0  0  0  0  0
   -2.1212    1.9597    1.8266 C   0  0  2  0  0  0  0  0  0  0  0  0
   -0.7862    1.3744    1.3854 C   0  0  0  0  0  0  0  0  0  0  0  0
    0.0859    1.0216    2.1767 O   0  0  0  0  0  0  0  0  0  0  0  0
   -2.1124    3.4765    1.7171 C   0  0  0  0  0  0  0  0  0  0  0  0
   -3.1331    1.9695    3.6908 H   0  0  0  0  0  0  0  0  0  0  0  0
   -2.9253    1.5413    1.2115 H   0  0  0  0  0  0  0  0  0  0  0  0
   -1.3133    3.9138    2.3268 H   0  0  0  0  0  0  0  0  0  0  0  0
   -1.9529    3.7988    0.6829 H   0  0  0  0  0  0  0  0  0  0  0  0
   -3.0626    3.8977    2.0629 H   0  0  0  0  0  0  0  0  0  0  0  0
   -0.6635    1.3313    0.0020 N   0  0  0  0  0  0  0  0  0  0  0  0
    0.5138    0.8305   -0.6617 C   0  0  2  0  0  0  0  0  0  0  0  0
    0.3077   -0.6644   -0.8786 C   0  0  0  0  0  0  0  0  0  0  0  0
   -0.4102   -1.1190   -1.7667 O   0  0  0  0  0  0  0  0  0  0  0  0
    1.7881    1.0801    0.1532 C   0  0  0  0  0  0  0  0  0  0  0  0
    2.0901    2.5483    0.3292 C   0  0  0  0  0  0  0  0  0  0  0  0
    2.5962    3.2868   -0.7110 N   0  0  0  0  0  0  0  0  0  0  0  0
    1.9265    3.3219    1.4540 C   0  0  0  0  0  0  0  0  0  0  0  0
    2.7385    4.4990   -0.2228 C   0  0  0  0  0  0  0  0  0  0  0  0
    2.3465    4.5688    1.0851 N   0  0  0  0  0  0  0  0  0  0  0  0
   -1.4467    1.6280   -0.5753 H   0  0  0  0  0  0  0  0  0  0  0  0
    0.5602    1.3314   -1.6358 H   0  0  0  0  0  0  0  0  0  0  0  0
    2.6452    0.5806   -0.3186 H   0  0  0  0  0  0  0  0  0  0  0  0
    1.7020    0.6251    1.1488 H   0  0  0  0  0  0  0  0  0  0  0  0
    1.5634    3.1099    2.4494 H   0  0  0  0  0  0  0  0  0  0  0  0
    3.1149    5.3603   -0.7565 H   0  0  0  0  0  0  0  0  0  0  0  0
    2.3634    5.3925    1.6715 H   0  0  0  0  0  0  0  0  0  0  0  0
    1.0596   -1.4261    0.0052 N   0  0  0  0  0  0  0  0  0  0  0  0
    1.0663   -2.8714    0.0000 C   0  0  2  0  0  0  0  0  0  0  0  0
   -0.3800   -3.3485    0.0037 C   0  0  0  0  0  0  0  0  0  0  0  0
   -1.3138   -2.6559    0.4030 O   0  0  0  0  0  0  0  0  0  0  0  0
    1.8245   -3.4254    1.1963 C   0  0  0  0  0  0  0  0  0  0  0  0
    1.6340   -0.9436    0.6900 H   0  0  0  0  0  0  0  0  0  0  0  0
    1.5516   -3.1821   -0.9316 H   0  0  0  0  0  0  0  0  0  0  0  0
    1.3530   -3.1245    2.1389 H   0  0  0  0  0  0  0  0  0  0  0  0
    1.8532   -4.5198    1.1756 H   0  0  0  0  0  0  0  0  0  0  0  0
    2.8561   -3.0574    1.2083 H   0  0  0  0  0  0  0  0  0  0  0  0
   -0.5000   -4.6542   -0.4510 N   0  0  0  0  0  0  0  0  0  0  0  0
   -1.7693   -5.3386   -0.5303 C   0  0  0  0  0  0  0  0  0  0  0  0
    0.3253   -5.1466   -0.7800 H   0  0  0  0  0  0  0  0  0  0  0  0
   -1.9433   -5.8986    0.4004 H   0  0  0  0  0  0  0  0  0  0  0  0
   -2.5745   -4.6025   -0.6711 H   0  0  0  0  0  0  0  0  0  0  0  0
   -1.7572   -6.0360   -1.3809 H   0  0  0  0  0  0  0  0  0  0  0  0
 22 24  2  0  0  0  0
 24 26  1  0  0  0  0
 23 25  2  0  0  0  0
 25 26  1  0  0  0  0
 21 22  1  0  0  0  0
 22 23  1  0  0  0  0
  1  3  1  0  0  0  0
  1  7  1  0  0  0  0
  1  2  2  0  0  0  0
 35 36  1  0  0  0  0
 36 44  1  0  0  0  0
 36 37  2  0  0  0  0
  8  9  1  0  0  0  0
  9 17  1  0  0  0  0
  9 10  2  0  0  0  0
 18 19  1  0  0  0  0
 19 34  1  0  0  0  0
 19 20  2  0  0  0  0
 35 38  1  0  0  0  0
  8 11  1  0  0  0  0
 44 45  1  0  0  0  0
 18 21  1  0  0  0  0
 34 35  1  0  0  0  0
  7  8  1  0  0  0  0
 17 18  1  0  0  0  0
 24 31  1  0  0  0  0
 25 32  1  0  0  0  0
  3  4  1  0  0  0  0
  3  5  1  0  0  0  0
  3  6  1  0  0  0  0
 38 41  1  0  0  0  0
 38 42  1  0  0  0  0
 38 43  1  0  0  0  0
 11 14  1  0  0  0  0
 11 15  1  0  0  0  0
 11 16  1  0  0  0  0
 45 47  1  0  0  0  0
 45 48  1  0  0  0  0
 45 49  1  0  0  0  0
 21 29  1  0  0  0  0
 21 30  1  0  0  0  0
 35 40  1  0  0  0  0
  8 13  1  0  0  0  0
 18 28  1  0  0  0  0
 26 33  1  0  0  0  0
 44 46  1  0  0  0  0
  7 12  1  0  0  0  0
 34 39  1  0  0  0  0
 17 27  1  0  0  0  0
M  END
$$$$

  -OEChem-05262214473D

 49 49  0     1  0  0  0  0  0999 V2000
   -1.6183    0.5613    3.8201 C   0  0  0  0  0  0  0  0  0  0  0  0
   -0.6710   -0.0534    3.3444 O   0  0  0  0  0  0  0  0  0  0  0  0
   -2.0502    0.2789    5.2208 C   0  0  0  0  0  0  0  0  0  0  0  0
   -2.8099   -0.5175    5.2742 H   0  0  0  0  0  0  0  0  0  0  0  0
   -1.2190   -0.0687    5.8551 H   0  0  0  0  0  0  0  0  0  0  0  0
   -2.4882    1.1338    5.7604 H   0  0  0  0  0  0  0  0  0  0  0  0
   -2.3680    1.5337    3.1790 N   0  0  0  0  0  0  0  0  0  0  0  0
   -2.1212    1.9597    1.8266 C   0  0  2  0  0  0  0  0  0  0  0  0
   -0.7862    1.3744    1.3854 C   0  0  0  0  0  0  0  0  0  0  0  0
    0.0859    1.0216    2.1767 O   0  0  0  0  0  0  0  0  0  0  0  0
   -2.1124    3.4765    1.7171 C   0  0  0  0  0  0  0  0  0  0  0  0
   -3.1331    1.9695    3.6908 H   0  0  0  0  0  0  0  0  0  0  0  0
   -2.9253    1.5413    1.2115 H   0  0  0  0  0  0  0  0  0  0  0  0
   -1.3133    3.9138    2.3268 H   0  0  0  0  0  0  0  0  0  0  0  0
   -1.9529    3.7988    0.6829 H   0  0  0  0  0  0  0  0  0  0  0  0
   -3.0626    3.8977    2.0629 H   0  0  0  0  0  0  0  0  0  0  0  0
   -0.6635    1.3313    0.0020 N   0  0  0  0  0  0  0  0  0  0  0  0
    0.5138    0.8305   -0.6617 C   0  0  2  0  0  0  0  0  0  0  0  0
    0.3077   -0.6644   -0.8786 C   0  0  0  0  0  0  0  0  0  0  0  0
   -0.1801   -1.1305   -1.9060 O   0  0  0  0  0  0  0  0  0  0  0  0
    1.7881    1.0801    0.1532 C   0  0  0  0  0  0  0  0  0  0  0  0
    2.0901    2.5483    0.3292 C   0  0  0  0  0  0  0  0  0  0  0  0
    2.5962    3.2868   -0.7110 N   0  0  0  0  0  0  0  0  0  0  0  0
    1.9265    3.3219    1.4540 C   0  0  0  0  0  0  0  0  0  0  0  0
    2.7385    4.4990   -0.2228 C   0  0  0  0  0  0  0  0  0  0  0  0
    2.3465    4.5688    1.0851 N   0  0  0  0  0  0  0  0  0  0  0  0
   -1.4467    1.6280   -0.5753 H   0  0  0  0  0  0  0  0  0  0  0  0
    0.5602    1.3314   -1.6358 H   0  0  0  0  0  0  0  0  0  0  0  0
    2.6452    0.5806   -0.3186 H   0  0  0  0  0  0  0  0  0  0  0  0
    1.7020    0.6251    1.1488 H   0  0  0  0  0  0  0  0  0  0  0  0
    1.5634    3.1099    2.4494 H   0  0  0  0  0  0  0  0  0  0  0  0
    3.1149    5.3603   -0.7565 H   0  0  0  0  0  0  0  0  0  0  0  0
    2.3634    5.3925    1.6715 H   0  0  0  0  0  0  0  0  0  0  0  0
    0.7792   -1.4143    0.1900 N   0  0  0  0  0  0  0  0  0  0  0  0
    0.7273   -2.8581    0.2304 C   0  0  2  0  0  0  0  0  0  0  0  0
   -0.6913   -3.2877   -0.1196 C   0  0  0  0  0  0  0  0  0  0  0  0
   -1.6662   -2.5500    0.0078 O   0  0  0  0  0  0  0  0  0  0  0  0
    1.1344   -3.3883    1.5964 C   0  0  0  0  0  0  0  0  0  0  0  0
    1.1810   -0.9237    0.9835 H   0  0  0  0  0  0  0  0  0  0  0  0
    1.4194   -3.2211   -0.5372 H   0  0  0  0  0  0  0  0  0  0  0  0
    0.4525   -3.0352    2.3785 H   0  0  0  0  0  0  0  0  0  0  0  0
    1.1221   -4.4831    1.6168 H   0  0  0  0  0  0  0  0  0  0  0  0
    2.1437   -3.0537    1.8594 H   0  0  0  0  0  0  0  0  0  0  0  0
   -0.7461   -4.6059   -0.5502 N   0  0  0  0  0  0  0  0  0  0  0  0
   -1.9812   -5.2516   -0.9291 C   0  0  0  0  0  0  0  0  0  0  0  0
    0.1145   -5.1374   -0.6433 H   0  0  0  0  0  0  0  0  0  0  0  0
   -2.4081   -5.7682   -0.0568 H   0  0  0  0  0  0  0  0  0  0  0  0
   -2.6934   -4.4960   -1.2923 H   0  0  0  0  0  0  0  0  0  0  0  0
   -1.7831   -5.9822   -1.7271 H   0  0  0  0  0  0  0  0  0  0  0  0
 22 24  2  0  0  0  0
 24 26  1  0  0  0  0
 23 25  2  0  0  0  0
 25 26  1  0  0  0  0
 21 22  1  0  0  0  0
 22 23  1  0  0  0  0
  1  3  1  0  0  0  0
  1  7  1  0  0  0  0
  1  2  2  0  0  0  0
 35 36  1  0  0  0  0
 36 44  1  0  0  0  0
 36 37  2  0  0  0  0
  8  9  1  0  0  0  0
  9 17  1  0  0  0  0
  9 10  2  0  0  0  0
 18 19  1  0  0  0  0
 19 34  1  0  0  0  0
 19 20  2  0  0  0  0
 35 38  1  0  0  0  0
  8 11  1  0  0  0  0
 44 45  1  0  0  0  0
 18 21  1  0  0  0  0
 34 35  1  0  0  0  0
  7  8  1  0  0  0  0
 17 18  1  0  0  0  0
 24 31  1  0  0  0  0
 25 32  1  0  0  0  0
  3  4  1  0  0  0  0
  3  5  1  0  0  0  0
  3  6  1  0  0  0  0
 38 41  1  0  0  0  0
 38 42  1  0  0  0  0
 38 43  1  0  0  0  0
 11 14  1  0  0  0  0
 11 15  1  0  0  0  0
 11 16  1  0  0  0  0
 45 47  1  0  0  0  0
 45 48  1  0  0  0  0
 45 49  1  0  0  0  0
 21 29  1  0  0  0  0
 21 30  1  0  0  0  0
 35 40  1  0  0  0  0
  8 13  1  0  0  0  0
 18 28  1  0  0  0  0
 26 33  1  0  0  0  0
 44 46  1  0  0  0  0
  7 12  1  0  0  0  0
 34 39  1  0  0  0  0
 17 27  1  0  0  0  0
M  END
$$$$

  -OEChem-05262214473D

 49 49  0     1  0  0  0  0  0999 V2000
   -1.6183    0.5613    3.8201 C   0  0  0  0  0  0  0  0  0  0  0  0
   -0.6710   -0.0534    3.3444 O   0  0  0  0  0  0  0  0  0  0  0  0
   -2.0502    0.2789    5.2208 C   0  0  0  0  0  0  0  0  0  0  0  0
   -2.8099   -0.5175    5.2742 H   0  0  0  0  0  0  0  0  0  0  0  0
   -1.2190   -0.0687    5.8551 H   0  0  0  0  0  0  0  0  0  0  0  0
   -2.4882    1.1338    5.7604 H   0  0  0  0  0  0  0  0  0  0  0  0
   -2.3680    1.5337    3.1790 N   0  0  0  0  0  0  0  0  0  0  0  0
   -2.1212    1.9597    1.8266 C   0  0  2  0  0  0  0  0  0  0  0  0
   -0.7862    1.3744    1.3854 C   0  0  0  0  0  0  0  0  0  0  0  0
    0.0859    1.0216    2.1767 O   0  0  0  0  0  0  0  0  0  0  0  0
   -2.1124    3.4765    1.7171 C   0  0  0  0  0  0  0  0  0  0  0  0
   -3.1331    1.9695    3.6908 H   0  0  0  0  0  0  0  0  0  0  0  0
   -2.9253    1.5413    1.2115 H   0  0  0  0  0  0  0  0  0  0  0  0
   -1.3133    3.9138    2.3268 H   0  0  0  0  0  0  0  0  0  0  0  0
   -1.9529    3.7988    0.6829 H   0  0  0  0  0  0  0  0  0  0  0  0
   -3.0626    3.8977    2.0629 H   0  0  0  0  0  0  0  0  0  0  0  0
   -0.6635    1.3313    0.0020 N   0  0  0  0  0  0  0  0  0  0  0  0
    0.5138    0.8305   -0.6617 C   0  0  2  0  0  0  0  0  0  0  0  0
    0.3077   -0.6644   -0.8786 C   0  0  0  0  0  0  0  0  0  0  0  0
    0.0770   -1.1549   -1.9818 O   0  0  0  0  0  0  0  0  0  0  0  0
    1.7881    1.0801    0.1532 C   0  0  0  0  0  0  0  0  0  0  0  0
    2.0901    2.5483    0.3292 C   0  0  0  0  0  0  0  0  0  0  0  0
    2.5962    3.2868   -0.7110 N   0  0  0  0  0  0  0  0  0  0  0  0
    1.9265    3.3219    1.4540 C   0  0  0  0  0  0  0  0  0  0  0  0
    2.7385    4.4990   -0.2228 C   0  0  0  0  0  0  0  0  0  0  0  0
    2.3465    4.5688    1.0851 N   0  0  0  0  0  0  0  0  0  0  0  0
   -1.4467    1.6280   -0.5753 H   0  0  0  0  0  0  0  0  0  0  0  0
    0.5602    1.3314   -1.6358 H   0  0  0  0  0  0  0  0  0  0  0  0
    2.6452    0.5806   -0.3186 H   0  0  0  0  0  0  0  0  0  0  0  0
    1.7020    0.6251    1.1488 H   0  0  0  0  0  0  0  0  0  0  0  0
    1.5634    3.1099    2.4494 H   0  0  0  0  0  0  0  0  0  0  0  0
    3.1149    5.3603   -0.7565 H   0  0  0  0  0  0  0  0  0  0  0  0
    2.3634    5.3925    1.6715 H   0  0  0  0  0  0  0  0  0  0  0  0
    0.4620   -1.3861    0.2970 N   0  0  0  0  0  0  0  0  0  0  0  0
    0.3419   -2.8247    0.3665 C   0  0  2  0  0  0  0  0  0  0  0  0
   -0.9584   -3.2218   -0.3198 C   0  0  0  0  0  0  0  0  0  0  0  0
   -1.9025   -2.4485   -0.4670 O   0  0  0  0  0  0  0  0  0  0  0  0
    0.3677   -3.3131    1.8064 C   0  0  0  0  0  0  0  0  0  0  0  0
    0.6698   -0.8776    1.1514 H   0  0  0  0  0  0  0  0  0  0  0  0
    1.1901   -3.2401   -0.1885 H   0  0  0  0  0  0  0  0  0  0  0  0
   -0.4748   -2.9073    2.3783 H   0  0  0  0  0  0  0  0  0  0  0  0
    0.3054   -4.4052    1.8562 H   0  0  0  0  0  0  0  0  0  0  0  0
    1.2904   -3.0011    2.3074 H   0  0  0  0  0  0  0  0  0  0  0  0
   -0.9569   -4.5537   -0.7101 N   0  0  0  0  0  0  0  0  0  0  0  0
   -2.0815   -5.1736   -1.3712 C   0  0  0  0  0  0  0  0  0  0  0  0
   -0.1235   -5.1159   -0.5651 H   0  0  0  0  0  0  0  0  0  0  0  0
   -2.7362   -5.6412   -0.6210 H   0  0  0  0  0  0  0  0  0  0  0  0
   -2.6467   -4.4105   -1.9263 H   0  0  0  0  0  0  0  0  0  0  0  0
   -1.7181   -5.9414   -2.0701 H   0  0  0  0  0  0  0  0  0  0  0  0
 22 24  2  0  0  0  0
 24 26  1  0  0  0  0
 23 25  2  0  0  0  0
 25 26  1  0  0  0  0
 21 22  1  0  0  0  0
 22 23  1  0  0  0  0
  1  3  1  0  0  0  0
  1  7  1  0  0  0  0
  1  2  2  0  0  0  0
 35 36  1  0  0  0  0
 36 44  1  0  0  0  0
 36 37  2  0  0  0  0
  8  9  1  0  0  0  0
  9 17  1  0  0  0  0
  9 10  2  0  0  0  0
 18 19  1  0  0  0  0
 19 34  1  0  0  0  0
 19 20  2  0  0  0  0
 35 38  1  0  0  0  0
  8 11  1  0  0  0  0
 44 45  1  0  0  0  0
 18 21  1  0  0  0  0
 34 35  1  0  0  0  0
  7  8  1  0  0  0  0
 17 18  1  0  0  0  0
 24 31  1  0  0  0  0
 25 32  1  0  0  0  0
  3  4  1  0  0  0  0
  3  5  1  0  0  0  0
  3  6  1  0  0  0  0
 38 41  1  0  0  0  0
 38 42  1  0  0  0  0
 38 43  1  0  0  0  0
 11 14  1  0  0  0  0
 11 15  1  0  0  0  0
 11 16  1  0  0  0  0
 45 47  1  0  0  0  0
 45 48  1  0  0  0  0
 45 49  1  0  0  0  0
 21 29  1  0  0  0  0
 21 30  1  0  0  0  0
 35 40  1  0  0  0  0
  8 13  1  0  0  0  0
 18 28  1  0  0  0  0
 26 33  1  0  0  0  0
 44 46  1  0  0  0  0
  7 12  1  0  0  0  0
 34 39  1  0  0  0  0
 17 27  1  0  0  0  0
M  END
$$$$

  -OEChem-05262214473D

 49 49  0     1  0  0  0  0  0999 V2000
   -1.6183    0.5613    3.8201 C   0  0  0  0  0  0  0  0  0  0  0  0
   -0.6710   -0.0534    3.3444 O   0  0  0  0  0  0  0  0  0  0  0  0
   -2.0502    0.2789    5.2208 C   0  0  0  0  0  0  0  0  0  0  0  0
   -2.8099   -0.5175    5.2742 H   0  0  0  0  0  0  0  0  0  0  0  0
   -1.2190   -0.0687    5.8551 H   0  0  0  0  0  0  0  0  0  0  0  0
   -2.4882    1.1338    5.7604 H   0  0  0  0  0  0  0  0  0  0  0  0
   -2.3680    1.5337    3.1790 N   0  0  0  0  0  0  0  0  0  0  0  0
   -2.1212    1.9597    1.8266 C   0  0  2  0  0  0  0  0  0  0  0  0
   -0.7862    1.3744    1.3854 C   0  0  0  0  0  0  0  0  0  0  0  0
    0.0859    1.0216    2.1767 O   0  0  0  0  0  0  0  0  0  0  0  0
   -2.1124    3.4765    1.7171 C   0  0  0  0  0  0  0  0  0  0  0  0
   -3.1331    1.9695    3.6908 H   0  0  0  0  0  0  0  0  0  0  0  0
   -2.9253    1.5413    1.2115 H   0  0  0  0  0  0  0  0  0  0  0  0
   -1.3133    3.9138    2.3268 H   0  0  0  0  0  0  0  0  0  0  0  0
   -1.9529    3.7988    0.6829 H   0  0  0  0  0  0  0  0  0  0  0  0
   -3.0626    3.8977    2.0629 H   0  0  0  0  0  0  0  0  0  0  0  0
   -0.6635    1.3313    0.0020 N   0  0  0  0  0  0  0  0  0  0  0  0
    0.5138    0.8305   -0.6617 C   0  0  2  0  0  0  0  0  0  0  0  0
    0.3077   -0.6644   -0.8786 C   0  0  0  0  0  0  0  0  0  0  0  0
    0.3437   -1.1907   -1.9888 O   0  0  0  0  0  0  0  0  0  0  0  0
    1.7881    1.0801    0.1532 C   0  0  0  0  0  0  0  0  0  0  0  0
    2.0901    2.5483    0.3292 C   0  0  0  0  0  0  0  0  0  0  0  0
    2.5962    3.2868   -0.7110 N   0  0  0  0  0  0  0  0  0  0  0  0
    1.9265    3.3219    1.4540 C   0  0  0  0  0  0  0  0  0  0  0  0
    2.7385    4.4990   -0.2228 C   0  0  0  0  0  0  0  0  0  0  0  0
    2.3465    4.5688    1.0851 N   0  0  0  0  0  0  0  0  0  0  0  0
   -1.4467    1.6280   -0.5753 H   0  0  0  0  0  0  0  0  0  0  0  0
    0.5602    1.3314   -1.6358 H   0  0  0  0  0  0  0  0  0  0  0  0
    2.6452    0.5806   -0.3186 H   0  0  0  0  0  0  0  0  0  0  0  0
    1.7020    0.6251    1.1488 H   0  0  0  0  0  0  0  0  0  0  0  0
    1.5634    3.1099    2.4494 H   0  0  0  0  0  0  0  0  0  0  0  0
    3.1149    5.3603   -0.7565 H   0  0  0  0  0  0  0  0  0  0  0  0
    2.3634    5.3925    1.6715 H   0  0  0  0  0  0  0  0  0  0  0  0
    0.1294   -1.3435    0.3188 N   0  0  0  0  0  0  0  0  0  0  0  0
   -0.0637   -2.7735    0.3989 C   0  0  2  0  0  0  0  0  0  0  0  0
   -1.1632   -3.1554   -0.5833 C   0  0  0  0  0  0  0  0  0  0  0  0
   -2.0065   -2.3584   -0.9892 O   0  0  0  0  0  0  0  0  0  0  0  0
   -0.4235   -3.2049    1.8121 C   0  0  0  0  0  0  0  0  0  0  0  0
    0.1350   -0.8084    1.1822 H   0  0  0  0  0  0  0  0  0  0  0  0
    0.8795   -3.2378    0.0908 H   0  0  0  0  0  0  0  0  0  0  0  0
   -1.3657   -2.7497    2.1383 H   0  0  0  0  0  0  0  0  0  0  0  0
   -0.5414   -4.2916    1.8773 H   0  0  0  0  0  0  0  0  0  0  0  0
    0.3545   -2.9032    2.5217 H   0  0  0  0  0  0  0  0  0  0  0  0
   -1.1180   -4.5010   -0.9200 N   0  0  0  0  0  0  0  0  0  0  0  0
   -2.0633   -5.1101   -1.8263 C   0  0  0  0  0  0  0  0  0  0  0  0
   -0.3724   -5.0837   -0.5508 H   0  0  0  0  0  0  0  0  0  0  0  0
   -2.9053   -5.5261   -1.2537 H   0  0  0  0  0  0  0  0  0  0  0  0
   -2.4375   -4.3517   -2.5298 H   0  0  0  0  0  0  0  0  0  0  0  0
   -1.5669   -5.9164   -2.3862 H   0  0  0  0  0  0  0  0  0  0  0  0
 22 24  2  0  0  0  0
 24 26  1  0  0  0  0
 23 25  2  0  0  0  0
 25 26  1  0  0  0  0
 21 22  1  0  0  0  0
 22 23  1  0  0  0  0
  1  3  1  0  0  0  0
  1  7  1  0  0  0  0
  1  2  2  0  0  0  0
 35 36  1  0  0  0  0
 36 44  1  0  0  0  0
 36 37  2  0  0  0  0
  8  9  1  0  0  0  0
  9 17  1  0  0  0  0
  9 10  2  0  0  0  0
 18 19  1  0  0  0  0
 19 34  1  0  0  0  0
 19 20  2  0  0  0  0
 35 38  1  0  0  0  0
  8 11  1  0  0  0  0
 44 45  1  0  0  0  0
 18 21  1  0  0  0  0
 34 35  1  0  0  0  0
  7  8  1  0  0  0  0
 17 18  1  0  0  0  0
 24 31  1  0  0  0  0
 25 32  1  0  0  0  0
  3  4  1  0  0  0  0
  3  5  1  0  0  0  0
  3  6  1  0  0  0  0
 38 41  1  0  0  0  0
 38 42  1  0  0  0  0
 38 43  1  0  0  0  0
 11 14  1  0  0  0  0
 11 15  1  0  0  0  0
 11 16  1  0  0  0  0
 45 47  1  0  0  0  0
 45 48  1  0  0  0  0
 45 49  1  0  0  0  0
 21 29  1  0  0  0  0
 21 30  1  0  0  0  0
 35 40  1  0  0  0  0
  8 13  1  0  0  0  0
 18 28  1  0  0  0  0
 26 33  1  0  0  0  0
 44 46  1  0  0  0  0
  7 12  1  0  0  0  0
 34 39  1  0  0  0  0
 17 27  1  0  0  0  0
M  END
$$$$

  -OEChem-05262214473D

 49 49  0     1  0  0  0  0  0999 V2000
   -1.6183    0.5613    3.8201 C   0  0  0  0  0  0  0  0  0  0  0  0
   -0.6710   -0.0534    3.3444 O   0  0  0  0  0  0  0  0  0  0  0  0
   -2.0502    0.2789    5.2208 C   0  0  0  0  0  0  0  0  0  0  0  0
   -2.8099   -0.5175    5.2742 H   0  0  0  0  0  0  0  0  0  0  0  0
   -1.2190   -0.0687    5.8551 H   0  0  0  0  0  0  0  0  0  0  0  0
   -2.4882    1.1338    5.7604 H   0  0  0  0  0  0  0  0  0  0  0  0
   -2.3680    1.5337    3.1790 N   0  0  0  0  0  0  0  0  0  0  0  0
   -2.1212    1.9597    1.8266 C   0  0  2  0  0  0  0  0  0  0  0  0
   -0.7862    1.3744    1.3854 C   0  0  0  0  0  0  0  0  0  0  0  0
    0.0859    1.0216    2.1767 O   0  0  0  0  0  0  0  0  0  0  0  0
   -2.1124    3.4765    1.7171 C   0  0  0  0  0  0  0  0  0  0  0  0
   -3.1331    1.9695    3.6908 H   0  0  0  0  0  0  0  0  0  0  0  0
   -2.9253    1.5413    1.2115 H   0  0  0  0  0  0  0  0  0  0  0  0
   -1.3133    3.9138    2.3268 H   0  0  0  0  0  0  0  0  0  0  0  0
   -1.9529    3.7988    0.6829 H   0  0  0  0  0  0  0  0  0  0  0  0
   -3.0626    3.8977    2.0629 H   0  0  0  0  0  0  0  0  0  0  0  0
   -0.6635    1.3313    0.0020 N   0  0  0  0  0  0  0  0  0  0  0  0
    0.5138    0.8305   -0.6617 C   0  0  2  0  0  0  0  0  0  0  0  0
    0.3077   -0.6644   -0.8786 C   0  0  0  0  0  0  0  0  0  0  0  0
    0.6018   -1.2353   -1.9267 O   0  0  0  0  0  0  0  0  0  0  0  0
    1.7881    1.0801    0.1532 C   0  0  0  0  0  0  0  0  0  0  0  0
    2.0901    2.5483    0.3292 C   0  0  0  0  0  0  0  0  0  0  0  0
    2.5962    3.2868   -0.7110 N   0  0  0  0  0  0  0  0  0  0  0  0
    1.9265    3.3219    1.4540 C   0  0  0  0  0  0  0  0  0  0  0  0
    2.7385    4.4990   -0.2228 C   0  0  0  0  0  0  0  0  0  0  0  0
    2.3465    4.5688    1.0851 N   0  0  0  0  0  0  0  0  0  0  0  0
   -1.4467    1.6280   -0.5753 H   0  0  0  0  0  0  0  0  0  0  0  0
    0.5602    1.3314   -1.6358 H   0  0  0  0  0  0  0  0  0  0  0  0
    2.6452    0.5806   -0.3186 H   0  0  0  0  0  0  0  0  0  0  0  0
    1.7020    0.6251    1.1488 H   0  0  0  0  0  0  0  0  0  0  0  0
    1.5634    3.1099    2.4494 H   0  0  0  0  0  0  0  0  0  0  0  0
    3.1149    5.3603   -0.7565 H   0  0  0  0  0  0  0  0  0  0  0  0
    2.3634    5.3925    1.6715 H   0  0  0  0  0  0  0  0  0  0  0  0
   -0.1957   -1.2892    0.2540 N   0  0  0  0  0  0  0  0  0  0  0  0
   -0.4618   -2.7080    0.3255 C   0  0  2  0  0  0  0  0  0  0  0  0
   -1.2917   -3.0928   -0.8921 C   0  0  0  0  0  0  0  0  0  0  0  0
   -1.9711   -2.2858   -1.5231 O   0  0  0  0  0  0  0  0  0  0  0  0
   -1.1851   -3.0711    1.6130 C   0  0  0  0  0  0  0  0  0  0  0  0
   -0.3868   -0.7207    1.0738 H   0  0  0  0  0  0  0  0  0  0  0  0
    0.5086   -3.2144    0.2817 H   0  0  0  0  0  0  0  0  0  0  0  0
   -2.1596   -2.5730    1.6748 H   0  0  0  0  0  0  0  0  0  0  0  0
   -1.3606   -4.1499    1.6789 H   0  0  0  0  0  0  0  0  0  0  0  0
   -0.6003   -2.7666    2.4878 H   0  0  0  0  0  0  0  0  0  0  0  0
   -1.2184   -4.4516   -1.1654 N   0  0  0  0  0  0  0  0  0  0  0  0
   -1.9278   -5.0653   -2.2636 C   0  0  0  0  0  0  0  0  0  0  0  0
   -0.6153   -5.0429   -0.6012 H   0  0  0  0  0  0  0  0  0  0  0  0
   -2.9038   -5.4308   -1.9118 H   0  0  0  0  0  0  0  0  0  0  0  0
   -2.0801   -4.3238   -3.0617 H   0  0  0  0  0  0  0  0  0  0  0  0
   -1.3397   -5.9088   -2.6541 H   0  0  0  0  0  0  0  0  0  0  0  0
 22 24  2  0  0  0  0
 24 26  1  0  0  0  0
 23 25  2  0  0  0  0
 25 26  1  0  0  0  0
 21 22  1  0  0  0  0
 22 23  1  0  0  0  0
  1  3  1  0  0  0  0
  1  7  1  0  0  0  0
  1  2  2  0  0  0  0
 35 36  1  0  0  0  0
 36 44  1  0  0  0  0
 36 37  2  0  0  0  0
  8  9  1  0  0  0  0
  9 17  1  0  0  0  0
  9 10  2  0  0  0  0
 18 19  1  0  0  0  0
 19 34  1  0  0  0  0
 19 20  2  0  0  0  0
 35 38  1  0  0  0  0
  8 11  1  0  0  0  0
 44 45  1  0  0  0  0
 18 21  1  0  0  0  0
 34 35  1  0  0  0  0
  7  8  1  0  0  0  0
 17 18  1  0  0  0  0
 24 31  1  0  0  0  0
 25 32  1  0  0  0  0
  3  4  1  0  0  0  0
  3  5  1  0  0  0  0
  3  6  1  0  0  0  0
 38 41  1  0  0  0  0
 38 42  1  0  0  0  0
 38 43  1  0  0  0  0
 11 14  1  0  0  0  0
 11 15  1  0  0  0  0
 11 16  1  0  0  0  0
 45 47  1  0  0  0  0
 45 48  1  0  0  0  0
 45 49  1  0  0  0  0
 21 29  1  0  0  0  0
 21 30  1  0  0  0  0
 35 40  1  0  0  0  0
  8 13  1  0  0  0  0
 18 28  1  0  0  0  0
 26 33  1  0  0  0  0
 44 46  1  0  0  0  0
  7 12  1  0  0  0  0
 34 39  1  0  0  0  0
 17 27  1  0  0  0  0
M  END
$$$$

  -OEChem-05262214473D

 49 49  0     1  0  0  0  0  0999 V2000
   -1.6183    0.5613    3.8201 C   0  0  0  0  0  0  0  0  0  0  0  0
   -0.6710   -0.0534    3.3444 O   0  0  0  0  0  0  0  0  0  0  0  0
   -2.0502    0.2789    5.2208 C   0  0  0  0  0  0  0  0  0  0  0  0
   -2.8099   -0.5175    5.2742 H   0  0  0  0  0  0  0  0  0  0  0  0
   -1.2190   -0.0687    5.8551 H   0  0  0  0  0  0  0  0  0  0  0  0
   -2.4882    1.1338    5.7604 H   0  0  0  0  0  0  0  0  0  0  0  0
   -2.3680    1.5337    3.1790 N   0  0  0  0  0  0  0  0  0  0  0  0
   -2.1212    1.9597    1.8266 C   0  0  2  0  0  0  0  0  0  0  0  0
   -0.7862    1.3744    1.3854 C   0  0  0  0  0  0  0  0  0  0  0  0
    0.0859    1.0216    2.1767 O   0  0  0  0  0  0  0  0  0  0  0  0
   -2.1124    3.4765    1.7171 C   0  0  0  0  0  0  0  0  0  0  0  0
   -3.1331    1.9695    3.6908 H   0  0  0  0  0  0  0  0  0  0  0  0
   -2.9253    1.5413    1.2115 H   0  0  0  0  0  0  0  0  0  0  0  0
   -1.3133    3.9138    2.3268 H   0  0  0  0  0  0  0  0  0  0  0  0
   -1.9529    3.7988    0.6829 H   0  0  0  0  0  0  0  0  0  0  0  0
   -3.0626    3.8977    2.0629 H   0  0  0  0  0  0  0  0  0  0  0  0
   -0.6635    1.3313    0.0020 N   0  0  0  0  0  0  0  0  0  0  0  0
    0.5138    0.8305   -0.6617 C   0  0  2  0  0  0  0  0  0  0  0  0
    0.3077   -0.6644   -0.8786 C   0  0  0  0  0  0  0  0  0  0  0  0
    0.8336   -1.2857   -1.7996 O   0  0  0  0  0  0  0  0  0  0  0  0
    1.7881    1.0801    0.1532 C   0  0  0  0  0  0  0  0  0  0  0  0
    2.0901    2.5483    0.3292 C   0  0  0  0  0  0  0  0  0  0  0  0
    2.5962    3.2868   -0.7110 N   0  0  0  0  0  0  0  0  0  0  0  0
    1.9265    3.3219    1.4540 C   0  0  0  0  0  0  0  0  0  0  0  0
    2.7385    4.4990   -0.2228 C   0  0  0  0  0  0  0  0  0  0  0  0
    2.3465    4.5688    1.0851 N   0  0  0  0  0  0  0  0  0  0  0  0
   -1.4467    1.6280   -0.5753 H   0  0  0  0  0  0  0  0  0  0  0  0
    0.5602    1.3314   -1.6358 H   0  0  0  0  0  0  0  0  0  0  0  0
    2.6452    0.5806   -0.3186 H   0  0  0  0  0  0  0  0  0  0  0  0
    1.7020    0.6251    1.1488 H   0  0  0  0  0  0  0  0  0  0  0  0
    1.5634    3.1099    2.4494 H   0  0  0  0  0  0  0  0  0  0  0  0
    3.1149    5.3603   -0.7565 H   0  0  0  0  0  0  0  0  0  0  0  0
    2.3634    5.3925    1.6715 H   0  0  0  0  0  0  0  0  0  0  0  0
   -0.4914   -1.2271    0.1069 N   0  0  0  0  0  0  0  0  0  0  0  0
   -0.8254   -2.6326    0.1513 C   0  0  2  0  0  0  0  0  0  0  0  0
   -1.3351   -3.0385   -1.2252 C   0  0  0  0  0  0  0  0  0  0  0  0
   -1.7987   -2.2357   -2.0324 O   0  0  0  0  0  0  0  0  0  0  0  0
   -1.8654   -2.9207    1.2228 C   0  0  0  0  0  0  0  0  0  0  0  0
   -0.8601   -0.6206    0.8336 H   0  0  0  0  0  0  0  0  0  0  0  0
    0.1027   -3.1714    0.3712 H   0  0  0  0  0  0  0  0  0  0  0  0
   -2.8023   -2.3894    1.0195 H   0  0  0  0  0  0  0  0  0  0  0  0
   -2.0962   -3.9898    1.2744 H   0  0  0  0  0  0  0  0  0  0  0  0
   -1.5090   -2.6008    2.2079 H   0  0  0  0  0  0  0  0  0  0  0  0
   -1.2513   -4.4087   -1.4297 N   0  0  0  0  0  0  0  0  0  0  0  0
   -1.6844   -5.0424   -2.6531 C   0  0  0  0  0  0  0  0  0  0  0  0
   -0.8356   -4.9963   -0.7129 H   0  0  0  0  0  0  0  0  0  0  0  0
   -2.7319   -5.3618   -2.5504 H   0  0  0  0  0  0  0  0  0  0  0  0
   -1.5988   -4.3286   -3.4858 H   0  0  0  0  0  0  0  0  0  0  0  0
   -1.0519   -5.9193   -2.8555 H   0  0  0  0  0  0  0  0  0  0  0  0
 22 24  2  0  0  0  0
 24 26  1  0  0  0  0
 23 25  2  0  0  0  0
 25 26  1  0  0  0  0
 21 22  1  0  0  0  0
 22 23  1  0  0  0  0
  1  3  1  0  0  0  0
  1  7  1  0  0  0  0
  1  2  2  0  0  0  0
 35 36  1  0  0  0  0
 36 44  1  0  0  0  0
 36 37  2  0  0  0  0
  8  9  1  0  0  0  0
  9 17  1  0  0  0  0
  9 10  2  0  0  0  0
 18 19  1  0  0  0  0
 19 34  1  0  0  0  0
 19 20  2  0  0  0  0
 35 38  1  0  0  0  0
  8 11  1  0  0  0  0
 44 45  1  0  0  0  0
 18 21  1  0  0  0  0
 34 35  1  0  0  0  0
  7  8  1  0  0  0  0
 17 18  1  0  0  0  0
 24 31  1  0  0  0  0
 25 32  1  0  0  0  0
  3  4  1  0  0  0  0
  3  5  1  0  0  0  0
  3  6  1  0  0  0  0
 38 41  1  0  0  0  0
 38 42  1  0  0  0  0
 38 43  1  0  0  0  0
 11 14  1  0  0  0  0
 11 15  1  0  0  0  0
 11 16  1  0  0  0  0
 45 47  1  0  0  0  0
 45 48  1  0  0  0  0
 45 49  1  0  0  0  0
 21 29  1  0  0  0  0
 21 30  1  0  0  0  0
 35 40  1  0  0  0  0
  8 13  1  0  0  0  0
 18 28  1  0  0  0  0
 26 33  1  0  0  0  0
 44 46  1  0  0  0  0
  7 12  1  0  0  0  0
 34 39  1  0  0  0  0
 17 27  1  0  0  0  0
M  END
$$$$

  -OEChem-05262214473D

 49 49  0     1  0  0  0  0  0999 V2000
   -1.6183    0.5613    3.8201 C   0  0  0  0  0  0  0  0  0  0  0  0
   -0.6710   -0.0534    3.3444 O   0  0  0  0  0  0  0  0  0  0  0  0
   -2.0502    0.2789    5.2208 C   0  0  0  0  0  0  0  0  0  0  0  0
   -2.8099   -0.5175    5.2742 H   0  0  0  0  0  0  0  0  0  0  0  0
   -1.2190   -0.0687    5.8551 H   0  0  0  0  0  0  0  0  0  0  0  0
   -2.4882    1.1338    5.7604 H   0  0  0  0  0  0  0  0  0  0  0  0
   -2.3680    1.5337    3.1790 N   0  0  0  0  0  0  0  0  0  0  0  0
   -2.1212    1.9597    1.8266 C   0  0  2  0  0  0  0  0  0  0  0  0
   -0.7862    1.3744    1.3854 C   0  0  0  0  0  0  0  0  0  0  0  0
    0.0859    1.0216    2.1767 O   0  0  0  0  0  0  0  0  0  0  0  0
   -2.1124    3.4765    1.7171 C   0  0  0  0  0  0  0  0  0  0  0  0
   -3.1331    1.9695    3.6908 H   0  0  0  0  0  0  0  0  0  0  0  0
   -2.9253    1.5413    1.2115 H   0  0  0  0  0  0  0  0  0  0  0  0
   -1.3133    3.9138    2.3268 H   0  0  0  0  0  0  0  0  0  0  0  0
   -1.9529    3.7988    0.6829 H   0  0  0  0  0  0  0  0  0  0  0  0
   -3.0626    3.8977    2.0629 H   0  0  0  0  0  0  0  0  0  0  0  0
   -0.6635    1.3313    0.0020 N   0  0  0  0  0  0  0  0  0  0  0  0
    0.5138    0.8305   -0.6617 C   0  0  2  0  0  0  0  0  0  0  0  0
    0.3077   -0.6644   -0.8786 C   0  0  0  0  0  0  0  0  0  0  0  0
    1.0235   -1.3384   -1.6163 O   0  0  0  0  0  0  0  0  0  0  0  0
    1.7881    1.0801    0.1532 C   0  0  0  0  0  0  0  0  0  0  0  0
    2.0901    2.5483    0.3292 C   0  0  0  0  0  0  0  0  0  0  0  0
    2.5962    3.2868   -0.7110 N   0  0  0  0  0  0  0  0  0  0  0  0
    1.9265    3.3219    1.4540 C   0  0  0  0  0  0  0  0  0  0  0  0
    2.7385    4.4990   -0.2228 C   0  0  0  0  0  0  0  0  0  0  0  0
    2.3465    4.5688    1.0851 N   0  0  0  0  0  0  0  0  0  0  0  0
   -1.4467    1.6280   -0.5753 H   0  0  0  0  0  0  0  0  0  0  0  0
    0.5602    1.3314   -1.6358 H   0  0  0  0  0  0  0  0  0  0  0  0
    2.6452    0.5806   -0.3186 H   0  0  0  0  0  0  0  0  0  0  0  0
    1.7020    0.6251    1.1488 H   0  0  0  0  0  0  0  0  0  0  0  0
    1.5634    3.1099    2.4494 H   0  0  0  0  0  0  0  0  0  0  0  0
    3.1149    5.3603   -0.7565 H   0  0  0  0  0  0  0  0  0  0  0  0
    2.3634    5.3925    1.6715 H   0  0  0  0  0  0  0  0  0  0  0  0
   -0.7374   -1.1614   -0.1123 N   0  0  0  0  0  0  0  0  0  0  0  0
   -1.1295   -2.5525   -0.1119 C   0  0  2  0  0  0  0  0  0  0  0  0
   -1.2906   -2.9961   -1.5599 C   0  0  0  0  0  0  0  0  0  0  0  0
   -1.5011   -2.2114   -2.4824 O   0  0  0  0  0  0  0  0  0  0  0  0
   -2.4179   -2.7640    0.6679 C   0  0  0  0  0  0  0  0  0  0  0  0
   -1.2526   -0.5149    0.4780 H   0  0  0  0  0  0  0  0  0  0  0  0
   -0.3104   -3.1118    0.3531 H   0  0  0  0  0  0  0  0  0  0  0  0
   -3.2500   -2.2112    0.2169 H   0  0  0  0  0  0  0  0  0  0  0  0
   -2.6982   -3.8222    0.6914 H   0  0  0  0  0  0  0  0  0  0  0  0
   -2.3095   -2.4169    1.7011 H   0  0  0  0  0  0  0  0  0  0  0  0
   -1.2144   -4.3753   -1.6948 N   0  0  0  0  0  0  0  0  0  0  0  0
   -1.3495   -5.0428   -2.9684 C   0  0  0  0  0  0  0  0  0  0  0  0
   -1.0184   -4.9471   -0.8785 H   0  0  0  0  0  0  0  0  0  0  0  0
   -2.4012   -5.3239   -3.1260 H   0  0  0  0  0  0  0  0  0  0  0  0
   -1.0266   -4.3658   -3.7731 H   0  0  0  0  0  0  0  0  0  0  0  0
   -0.7232   -5.9470   -2.9766 H   0  0  0  0  0  0  0  0  0  0  0  0
 22 24  2  0  0  0  0
 24 26  1  0  0  0  0
 23 25  2  0  0  0  0
 25 26  1  0  0  0  0
 21 22  1  0  0  0  0
 22 23  1  0  0  0  0
  1  3  1  0  0  0  0
  1  7  1  0  0  0  0
  1  2  2  0  0  0  0
 35 36  1  0  0  0  0
 36 44  1  0  0  0  0
 36 37  2  0  0  0  0
  8  9  1  0  0  0  0
  9 17  1  0  0  0  0
  9 10  2  0  0  0  0
 18 19  1  0  0  0  0
 19 34  1  0  0  0  0
 19 20  2  0  0  0  0
 35 38  1  0  0  0  0
  8 11  1  0  0  0  0
 44 45  1  0  0  0  0
 18 21  1  0  0  0  0
 34 35  1  0  0  0  0
  7  8  1  0  0  0  0
 17 18  1  0  0  0  0
 24 31  1  0  0  0  0
 25 32  1  0  0  0  0
  3  4  1  0  0  0  0
  3  5  1  0  0  0  0
  3  6  1  0  0  0  0
 38 41  1  0  0  0  0
 38 42  1  0  0  0  0
 38 43  1  0  0  0  0
 11 14  1  0  0  0  0
 11 15  1  0  0  0  0
 11 16  1  0  0  0  0
 45 47  1  0  0  0  0
 45 48  1  0  0  0  0
 45 49  1  0  0  0  0
 21 29  1  0  0  0  0
 21 30  1  0  0  0  0
 35 40  1  0  0  0  0
  8 13  1  0  0  0  0
 18 28  1  0  0  0  0
 26 33  1  0  0  0  0
 44 46  1  0  0  0  0
  7 12  1  0  0  0  0
 34 39  1  0  0  0  0
 17 27  1  0  0  0  0
M  END
$$$$

  -OEChem-05262214473D

 49 49  0     1  0  0  0  0  0999 V2000
   -1.6183    0.5613    3.8201 C   0  0  0  0  0  0  0  0  0  0  0  0
   -0.6710   -0.0534    3.3444 O   0  0  0  0  0  0  0  0  0  0  0  0
   -2.0502    0.2789    5.2208 C   0  0  0  0  0  0  0  0  0  0  0  0
   -2.8099   -0.5175    5.2742 H   0  0  0  0  0  0  0  0  0  0  0  0
   -1.2190   -0.0687    5.8551 H   0  0  0  0  0  0  0  0  0  0  0  0
   -2.4882    1.1338    5.7604 H   0  0  0  0  0  0  0  0  0  0  0  0
   -2.3680    1.5337    3.1790 N   0  0  0  0  0  0  0  0  0  0  0  0
   -2.1212    1.9597    1.8266 C   0  0  2  0  0  0  0  0  0  0  0  0
   -0.7862    1.3744    1.3854 C   0  0  0  0  0  0  0  0  0  0  0  0
    0.0859    1.0216    2.1767 O   0  0  0  0  0  0  0  0  0  0  0  0
   -2.1124    3.4765    1.7171 C   0  0  0  0  0  0  0  0  0  0  0  0
   -3.1331    1.9695    3.6908 H   0  0  0  0  0  0  0  0  0  0  0  0
   -2.9253    1.5413    1.2115 H   0  0  0  0  0  0  0  0  0  0  0  0
   -1.3133    3.9138    2.3268 H   0  0  0  0  0  0  0  0  0  0  0  0
   -1.9529    3.7988    0.6829 H   0  0  0  0  0  0  0  0  0  0  0  0
   -3.0626    3.8977    2.0629 H   0  0  0  0  0  0  0  0  0  0  0  0
   -0.6635    1.3313    0.0020 N   0  0  0  0  0  0  0  0  0  0  0  0
    0.5138    0.8305   -0.6617 C   0  0  2  0  0  0  0  0  0  0  0  0
    0.3077   -0.6644   -0.8786 C   0  0  0  0  0  0  0  0  0  0  0  0
    1.1585   -1.3900   -1.3891 O   0  0  0  0  0  0  0  0  0  0  0  0
    1.7881    1.0801    0.1532 C   0  0  0  0  0  0  0  0  0  0  0  0
    2.0901    2.5483    0.3292 C   0  0  0  0  0  0  0  0  0  0  0  0
    2.5962    3.2868   -0.7110 N   0  0  0  0  0  0  0  0  0  0  0  0
    1.9265    3.3219    1.4540 C   0  0  0  0  0  0  0  0  0  0  0  0
    2.7385    4.4990   -0.2228 C   0  0  0  0  0  0  0  0  0  0  0  0
    2.3465    4.5688    1.0851 N   0  0  0  0  0  0  0  0  0  0  0  0
   -1.4467    1.6280   -0.5753 H   0  0  0  0  0  0  0  0  0  0  0  0
    0.5602    1.3314   -1.6358 H   0  0  0  0  0  0  0  0  0  0  0  0
    2.6452    0.5806   -0.3186 H   0  0  0  0  0  0  0  0  0  0  0  0
    1.7020    0.6251    1.1488 H   0  0  0  0  0  0  0  0  0  0  0  0
    1.5634    3.1099    2.4494 H   0  0  0  0  0  0  0  0  0  0  0  0
    3.1149    5.3603   -0.7565 H   0  0  0  0  0  0  0  0  0  0  0  0
    2.3634    5.3925    1.6715 H   0  0  0  0  0  0  0  0  0  0  0  0
   -0.9170   -1.0966   -0.3888 N   0  0  0  0  0  0  0  0  0  0  0  0
   -1.3535   -2.4731   -0.4461 C   0  0  2  0  0  0  0  0  0  0  0  0
   -1.1610   -2.9685   -1.8734 C   0  0  0  0  0  0  0  0  0  0  0  0
   -1.0986   -2.2147   -2.8424 O   0  0  0  0  0  0  0  0  0  0  0  0
   -2.8049   -2.6118   -0.0138 C   0  0  0  0  0  0  0  0  0  0  0  0
   -1.5376   -0.4108    0.0311 H   0  0  0  0  0  0  0  0  0  0  0  0
   -0.7026   -3.0397    0.2287 H   0  0  0  0  0  0  0  0  0  0  0  0
   -3.4722   -2.0507   -0.6782 H   0  0  0  0  0  0  0  0  0  0  0  0
   -3.1256   -3.6586   -0.0304 H   0  0  0  0  0  0  0  0  0  0  0  0
   -2.9474   -2.2276    1.0021 H   0  0  0  0  0  0  0  0  0  0  0  0
   -1.1103   -4.3537   -1.9426 N   0  0  0  0  0  0  0  0  0  0  0  0
   -0.9460   -5.0665   -3.1880 C   0  0  0  0  0  0  0  0  0  0  0  0
   -1.1511   -4.8986   -1.0864 H   0  0  0  0  0  0  0  0  0  0  0  0
   -1.9343   -5.3196   -3.5994 H   0  0  0  0  0  0  0  0  0  0  0  0
   -0.4022   -4.4328   -3.9041 H   0  0  0  0  0  0  0  0  0  0  0  0
   -0.3760   -5.9902   -3.0092 H   0  0  0  0  0  0  0  0  0  0  0  0
 22 24  2  0  0  0  0
 24 26  1  0  0  0  0
 23 25  2  0  0  0  0
 25 26  1  0  0  0  0
 21 22  1  0  0  0  0
 22 23  1  0  0  0  0
  1  3  1  0  0  0  0
  1  7  1  0  0  0  0
  1  2  2  0  0  0  0
 35 36  1  0  0  0  0
 36 44  1  0  0  0  0
 36 37  2  0  0  0  0
  8  9  1  0  0  0  0
  9 17  1  0  0  0  0
  9 10  2  0  0  0  0
 18 19  1  0  0  0  0
 19 34  1  0  0  0  0
 19 20  2  0  0  0  0
 35 38  1  0  0  0  0
  8 11  1  0  0  0  0
 44 45  1  0  0  0  0
 18 21  1  0  0  0  0
 34 35  1  0  0  0  0
  7  8  1  0  0  0  0
 17 18  1  0  0  0  0
 24 31  1  0  0  0  0
 25 32  1  0  0  0  0
  3  4  1  0  0  0  0
  3  5  1  0  0  0  0
  3  6  1  0  0  0  0
 38 41  1  0  0  0  0
 38 42  1  0  0  0  0
 38 43  1  0  0  0  0
 11 14  1  0  0  0  0
 11 15  1  0  0  0  0
 11 16  1  0  0  0  0
 45 47  1  0  0  0  0
 45 48  1  0  0  0  0
 45 49  1  0  0  0  0
 21 29  1  0  0  0  0
 21 30  1  0  0  0  0
 35 40  1  0  0  0  0
  8 13  1  0  0  0  0
 18 28  1  0  0  0  0
 26 33  1  0  0  0  0
 44 46  1  0  0  0  0
  7 12  1  0  0  0  0
 34 39  1  0  0  0  0
 17 27  1  0  0  0  0
M  END
$$$$

  -OEChem-05262214473D

 49 49  0     1  0  0  0  0  0999 V2000
   -1.6183    0.5613    3.8201 C   0  0  0  0  0  0  0  0  0  0  0  0
   -0.6710   -0.0534    3.3444 O   0  0  0  0  0  0  0  0  0  0  0  0
   -2.0502    0.2789    5.2208 C   0  0  0  0  0  0  0  0  0  0  0  0
   -2.8099   -0.5175    5.2742 H   0  0  0  0  0  0  0  0  0  0  0  0
   -1.2190   -0.0687    5.8551 H   0  0  0  0  0  0  0  0  0  0  0  0
   -2.4882    1.1338    5.7604 H   0  0  0  0  0  0  0  0  0  0  0  0
   -2.3680    1.5337    3.1790 N   0  0  0  0  0  0  0  0  0  0  0  0
   -2.1212    1.9597    1.8266 C   0  0  2  0  0  0  0  0  0  0  0  0
   -0.7862    1.3744    1.3854 C   0  0  0  0  0  0  0  0  0  0  0  0
    0.0859    1.0216    2.1767 O   0  0  0  0  0  0  0  0  0  0  0  0
   -2.1124    3.4765    1.7171 C   0  0  0  0  0  0  0  0  0  0  0  0
   -3.1331    1.9695    3.6908 H   0  0  0  0  0  0  0  0  0  0  0  0
   -2.9253    1.5413    1.2115 H   0  0  0  0  0  0  0  0  0  0  0  0
   -1.3133    3.9138    2.3268 H   0  0  0  0  0  0  0  0  0  0  0  0
   -1.9529    3.7988    0.6829 H   0  0  0  0  0  0  0  0  0  0  0  0
   -3.0626    3.8977    2.0629 H   0  0  0  0  0  0  0  0  0  0  0  0
   -0.6635    1.3313    0.0020 N   0  0  0  0  0  0  0  0  0  0  0  0
    0.5138    0.8305   -0.6617 C   0  0  2  0  0  0  0  0  0  0  0  0
    0.3077   -0.6644   -0.8786 C   0  0  0  0  0  0  0  0  0  0  0  0
    1.2292   -1.4368   -1.1337 O   0  0  0  0  0  0  0  0  0  0  0  0
    1.7881    1.0801    0.1532 C   0  0  0  0  0  0  0  0  0  0  0  0
    2.0901    2.5483    0.3292 C   0  0  0  0  0  0  0  0  0  0  0  0
    2.5962    3.2868   -0.7110 N   0  0  0  0  0  0  0  0  0  0  0  0
    1.9265    3.3219    1.4540 C   0  0  0  0  0  0  0  0  0  0  0  0
    2.7385    4.4990   -0.2228 C   0  0  0  0  0  0  0  0  0  0  0  0
    2.3465    4.5688    1.0851 N   0  0  0  0  0  0  0  0  0  0  0  0
   -1.4467    1.6280   -0.5753 H   0  0  0  0  0  0  0  0  0  0  0  0
    0.5602    1.3314   -1.6358 H   0  0  0  0  0  0  0  0  0  0  0  0
    2.6452    0.5806   -0.3186 H   0  0  0  0  0  0  0  0  0  0  0  0
    1.7020    0.6251    1.1488 H   0  0  0  0  0  0  0  0  0  0  0  0
    1.5634    3.1099    2.4494 H   0  0  0  0  0  0  0  0  0  0  0  0
    3.1149    5.3603   -0.7565 H   0  0  0  0  0  0  0  0  0  0  0  0
    2.3634    5.3925    1.6715 H   0  0  0  0  0  0  0  0  0  0  0  0
   -1.0178   -1.0370   -0.7037 N   0  0  0  0  0  0  0  0  0  0  0  0
   -1.4822   -2.3999   -0.8286 C   0  0  2  0  0  0  0  0  0  0  0  0
   -0.9553   -2.9575   -2.1442 C   0  0  0  0  0  0  0  0  0  0  0  0
   -0.6185   -2.2452   -3.0878 O   0  0  0  0  0  0  0  0  0  0  0  0
   -3.0002   -2.4743   -0.7758 C   0  0  0  0  0  0  0  0  0  0  0  0
   -1.6957   -0.3154   -0.4764 H   0  0  0  0  0  0  0  0  0  0  0  0
   -1.0473   -2.9600    0.0064 H   0  0  0  0  0  0  0  0  0  0  0  0
   -3.4538   -1.9188   -1.6047 H   0  0  0  0  0  0  0  0  0  0  0  0
   -3.3492   -3.5101   -0.8418 H   0  0  0  0  0  0  0  0  0  0  0  0
   -3.3792   -2.0456    0.1583 H   0  0  0  0  0  0  0  0  0  0  0  0
   -0.9460   -4.3453   -2.1564 N   0  0  0  0  0  0  0  0  0  0  0  0
   -0.5015   -5.1120   -3.2968 C   0  0  0  0  0  0  0  0  0  0  0  0
   -1.2247   -4.8542   -1.3227 H   0  0  0  0  0  0  0  0  0  0  0  0
   -1.3630   -5.3491   -3.9383 H   0  0  0  0  0  0  0  0  0  0  0  0
    0.2316   -4.5252   -3.8698 H   0  0  0  0  0  0  0  0  0  0  0  0
   -0.0339   -6.0457   -2.9510 H   0  0  0  0  0  0  0  0  0  0  0  0
 22 24  2  0  0  0  0
 24 26  1  0  0  0  0
 23 25  2  0  0  0  0
 25 26  1  0  0  0  0
 21 22  1  0  0  0  0
 22 23  1  0  0  0  0
  1  3  1  0  0  0  0
  1  7  1  0  0  0  0
  1  2  2  0  0  0  0
 35 36  1  0  0  0  0
 36 44  1  0  0  0  0
 36 37  2  0  0  0  0
  8  9  1  0  0  0  0
  9 17  1  0  0  0  0
  9 10  2  0  0  0  0
 18 19  1  0  0  0  0
 19 34  1  0  0  0  0
 19 20  2  0  0  0  0
 35 38  1  0  0  0  0
  8 11  1  0  0  0  0
 44 45  1  0  0  0  0
 18 21  1  0  0  0  0
 34 35  1  0  0  0  0
  7  8  1  0  0  0  0
 17 18  1  0  0  0  0
 24 31  1  0  0  0  0
 25 32  1  0  0  0  0
  3  4  1  0  0  0  0
  3  5  1  0  0  0  0
  3  6  1  0  0  0  0
 38 41  1  0  0  0  0
 38 42  1  0  0  0  0
 38 43  1  0  0  0  0
 11 14  1  0  0  0  0
 11 15  1  0  0  0  0
 11 16  1  0  0  0  0
 45 47  1  0  0  0  0
 45 48  1  0  0  0  0
 45 49  1  0  0  0  0
 21 29  1  0  0  0  0
 21 30  1  0  0  0  0
 35 40  1  0  0  0  0
  8 13  1  0  0  0  0
 18 28  1  0  0  0  0
 26 33  1  0  0  0  0
 44 46  1  0  0  0  0
  7 12  1  0  0  0  0
 34 39  1  0  0  0  0
 17 27  1  0  0  0  0
M  END
$$$$

  -OEChem-05262214473D

 49 49  0     1  0  0  0  0  0999 V2000
   -1.6183    0.5613    3.8201 C   0  0  0  0  0  0  0  0  0  0  0  0
   -0.6710   -0.0534    3.3444 O   0  0  0  0  0  0  0  0  0  0  0  0
   -2.0502    0.2789    5.2208 C   0  0  0  0  0  0  0  0  0  0  0  0
   -2.8099   -0.5175    5.2742 H   0  0  0  0  0  0  0  0  0  0  0  0
   -1.2190   -0.0687    5.8551 H   0  0  0  0  0  0  0  0  0  0  0  0
   -2.4882    1.1338    5.7604 H   0  0  0  0  0  0  0  0  0  0  0  0
   -2.3680    1.5337    3.1790 N   0  0  0  0  0  0  0  0  0  0  0  0
   -2.1212    1.9597    1.8266 C   0  0  2  0  0  0  0  0  0  0  0  0
   -0.7862    1.3744    1.3854 C   0  0  0  0  0  0  0  0  0  0  0  0
    0.0859    1.0216    2.1767 O   0  0  0  0  0  0  0  0  0  0  0  0
   -2.1124    3.4765    1.7171 C   0  0  0  0  0  0  0  0  0  0  0  0
   -3.1331    1.9695    3.6908 H   0  0  0  0  0  0  0  0  0  0  0  0
   -2.9253    1.5413    1.2115 H   0  0  0  0  0  0  0  0  0  0  0  0
   -1.3133    3.9138    2.3268 H   0  0  0  0  0  0  0  0  0  0  0  0
   -1.9529    3.7988    0.6829 H   0  0  0  0  0  0  0  0  0  0  0  0
   -3.0626    3.8977    2.0629 H   0  0  0  0  0  0  0  0  0  0  0  0
   -0.6635    1.3313    0.0020 N   0  0  0  0  0  0  0  0  0  0  0  0
    0.5138    0.8305   -0.6617 C   0  0  2  0  0  0  0  0  0  0  0  0
    0.3077   -0.6644   -0.8786 C   0  0  0  0  0  0  0  0  0  0  0  0
    1.2311   -1.4757   -0.8673 O   0  0  0  0  0  0  0  0  0  0  0  0
    1.7881    1.0801    0.1532 C   0  0  0  0  0  0  0  0  0  0  0  0
    2.0901    2.5483    0.3292 C   0  0  0  0  0  0  0  0  0  0  0  0
    2.5962    3.2868   -0.7110 N   0  0  0  0  0  0  0  0  0  0  0  0
    1.9265    3.3219    1.4540 C   0  0  0  0  0  0  0  0  0  0  0  0
    2.7385    4.4990   -0.2228 C   0  0  0  0  0  0  0  0  0  0  0  0
    2.3465    4.5688    1.0851 N   0  0  0  0  0  0  0  0  0  0  0  0
   -1.4467    1.6280   -0.5753 H   0  0  0  0  0  0  0  0  0  0  0  0
    0.5602    1.3314   -1.6358 H   0  0  0  0  0  0  0  0  0  0  0  0
    2.6452    0.5806   -0.3186 H   0  0  0  0  0  0  0  0  0  0  0  0
    1.7020    0.6251    1.1488 H   0  0  0  0  0  0  0  0  0  0  0  0
    1.5634    3.1099    2.4494 H   0  0  0  0  0  0  0  0  0  0  0  0
    3.1149    5.3603   -0.7565 H   0  0  0  0  0  0  0  0  0  0  0  0
    2.3634    5.3925    1.6715 H   0  0  0  0  0  0  0  0  0  0  0  0
   -1.0332   -0.9867   -1.0355 N   0  0  0  0  0  0  0  0  0  0  0  0
   -1.5067   -2.3378   -1.2332 C   0  0  2  0  0  0  0  0  0  0  0  0
   -0.6875   -2.9640   -2.3540 C   0  0  0  0  0  0  0  0  0  0  0  0
   -0.0937   -2.3010   -3.2019 O   0  0  0  0  0  0  0  0  0  0  0  0
   -2.9904   -2.3610   -1.5662 C   0  0  0  0  0  0  0  0  0  0  0  0
   -1.7160   -0.2352   -1.0102 H   0  0  0  0  0  0  0  0  0  0  0  0
   -1.3209   -2.8780   -0.2985 H   0  0  0  0  0  0  0  0  0  0  0  0
   -3.1960   -1.8245   -2.4997 H   0  0  0  0  0  0  0  0  0  0  0  0
   -3.3538   -3.3867   -1.6875 H   0  0  0  0  0  0  0  0  0  0  0  0
   -3.5754   -1.8835   -0.7727 H   0  0  0  0  0  0  0  0  0  0  0  0
   -0.7328   -4.3508   -2.3215 N   0  0  0  0  0  0  0  0  0  0  0  0
   -0.0461   -5.1761   -3.2875 C   0  0  0  0  0  0  0  0  0  0  0  0
   -1.2342   -4.8169   -1.5711 H   0  0  0  0  0  0  0  0  0  0  0  0
   -0.7263   -5.4106   -4.1196 H   0  0  0  0  0  0  0  0  0  0  0  0
    0.8317   -4.6365   -3.6726 H   0  0  0  0  0  0  0  0  0  0  0  0
    0.2797   -6.1100   -2.8061 H   0  0  0  0  0  0  0  0  0  0  0  0
 22 24  2  0  0  0  0
 24 26  1  0  0  0  0
 23 25  2  0  0  0  0
 25 26  1  0  0  0  0
 21 22  1  0  0  0  0
 22 23  1  0  0  0  0
  1  3  1  0  0  0  0
  1  7  1  0  0  0  0
  1  2  2  0  0  0  0
 35 36  1  0  0  0  0
 36 44  1  0  0  0  0
 36 37  2  0  0  0  0
  8  9  1  0  0  0  0
  9 17  1  0  0  0  0
  9 10  2  0  0  0  0
 18 19  1  0  0  0  0
 19 34  1  0  0  0  0
 19 20  2  0  0  0  0
 35 38  1  0  0  0  0
  8 11  1  0  0  0  0
 44 45  1  0  0  0  0
 18 21  1  0  0  0  0
 34 35  1  0  0  0  0
  7  8  1  0  0  0  0
 17 18  1  0  0  0  0
 24 31  1  0  0  0  0
 25 32  1  0  0  0  0
  3  4  1  0  0  0  0
  3  5  1  0  0  0  0
  3  6  1  0  0  0  0
 38 41  1  0  0  0  0
 38 42  1  0  0  0  0
 38 43  1  0  0  0  0
 11 14  1  0  0  0  0
 11 15  1  0  0  0  0
 11 16  1  0  0  0  0
 45 47  1  0  0  0  0
 45 48  1  0  0  0  0
 45 49  1  0  0  0  0
 21 29  1  0  0  0  0
 21 30  1  0  0  0  0
 35 40  1  0  0  0  0
  8 13  1  0  0  0  0
 18 28  1  0  0  0  0
 26 33  1  0  0  0  0
 44 46  1  0  0  0  0
  7 12  1  0  0  0  0
 34 39  1  0  0  0  0
 17 27  1  0  0  0  0
M  END
$$$$

  -OEChem-05262214473D

 49 49  0     1  0  0  0  0  0999 V2000
   -1.6183    0.5613    3.8201 C   0  0  0  0  0  0  0  0  0  0  0  0
   -0.6710   -0.0534    3.3444 O   0  0  0  0  0  0  0  0  0  0  0  0
   -2.0502    0.2789    5.2208 C   0  0  0  0  0  0  0  0  0  0  0  0
   -2.8099   -0.5175    5.2742 H   0  0  0  0  0  0  0  0  0  0  0  0
   -1.2190   -0.0687    5.8551 H   0  0  0  0  0  0  0  0  0  0  0  0
   -2.4882    1.1338    5.7604 H   0  0  0  0  0  0  0  0  0  0  0  0
   -2.3680    1.5337    3.1790 N   0  0  0  0  0  0  0  0  0  0  0  0
   -2.1212    1.9597    1.8266 C   0  0  2  0  0  0  0  0  0  0  0  0
   -0.7862    1.3744    1.3854 C   0  0  0  0  0  0  0  0  0  0  0  0
    0.0859    1.0216    2.1767 O   0  0  0  0  0  0  0  0  0  0  0  0
   -2.1124    3.4765    1.7171 C   0  0  0  0  0  0  0  0  0  0  0  0
   -3.1331    1.9695    3.6908 H   0  0  0  0  0  0  0  0  0  0  0  0
   -2.9253    1.5413    1.2115 H   0  0  0  0  0  0  0  0  0  0  0  0
   -1.3133    3.9138    2.3268 H   0  0  0  0  0  0  0  0  0  0  0  0
   -1.9529    3.7988    0.6829 H   0  0  0  0  0  0  0  0  0  0  0  0
   -3.0626    3.8977    2.0629 H   0  0  0  0  0  0  0  0  0  0  0  0
   -0.6635    1.3313    0.0020 N   0  0  0  0  0  0  0  0  0  0  0  0
    0.5138    0.8305   -0.6617 C   0  0  2  0  0  0  0  0  0  0  0  0
    0.3077   -0.6644   -0.8786 C   0  0  0  0  0  0  0  0  0  0  0  0
    1.1638   -1.5040   -0.6083 O   0  0  0  0  0  0  0  0  0  0  0  0
    1.7881    1.0801    0.1532 C   0  0  0  0  0  0  0  0  0  0  0  0
    2.0901    2.5483    0.3292 C   0  0  0  0  0  0  0  0  0  0  0  0
    2.5962    3.2868   -0.7110 N   0  0  0  0  0  0  0  0  0  0  0  0
    1.9265    3.3219    1.4540 C   0  0  0  0  0  0  0  0  0  0  0  0
    2.7385    4.4990   -0.2228 C   0  0  0  0  0  0  0  0  0  0  0  0
    2.3465    4.5688    1.0851 N   0  0  0  0  0  0  0  0  0  0  0  0
   -1.4467    1.6280   -0.5753 H   0  0  0  0  0  0  0  0  0  0  0  0
    0.5602    1.3314   -1.6358 H   0  0  0  0  0  0  0  0  0  0  0  0
    2.6452    0.5806   -0.3186 H   0  0  0  0  0  0  0  0  0  0  0  0
    1.7020    0.6251    1.1488 H   0  0  0  0  0  0  0  0  0  0  0  0
    1.5634    3.1099    2.4494 H   0  0  0  0  0  0  0  0  0  0  0  0
    3.1149    5.3603   -0.7565 H   0  0  0  0  0  0  0  0  0  0  0  0
    2.3634    5.3925    1.6715 H   0  0  0  0  0  0  0  0  0  0  0  0
   -0.9619   -0.9492   -1.3617 N   0  0  0  0  0  0  0  0  0  0  0  0
   -1.4254   -2.2911   -1.6325 C   0  0  2  0  0  0  0  0  0  0  0  0
   -0.3757   -2.9875   -2.4884 C   0  0  0  0  0  0  0  0  0  0  0  0
    0.4402   -2.3782   -3.1770 O   0  0  0  0  0  0  0  0  0  0  0  0
   -2.7761   -2.2795   -2.3311 C   0  0  0  0  0  0  0  0  0  0  0  0
   -1.5973   -0.1756   -1.5337 H   0  0  0  0  0  0  0  0  0  0  0  0
   -1.5047   -2.7994   -0.6653 H   0  0  0  0  0  0  0  0  0  0  0  0
   -2.7164   -1.7742   -3.3020 H   0  0  0  0  0  0  0  0  0  0  0  0
   -3.1391   -3.2970   -2.5099 H   0  0  0  0  0  0  0  0  0  0  0  0
   -3.5227   -1.7523   -1.7274 H   0  0  0  0  0  0  0  0  0  0  0  0
   -0.4851   -4.3696   -2.4266 N   0  0  0  0  0  0  0  0  0  0  0  0
    0.3890   -5.2545   -3.1608 C   0  0  0  0  0  0  0  0  0  0  0  0
   -1.1790   -4.7891   -1.8148 H   0  0  0  0  0  0  0  0  0  0  0  0
   -0.0675   -5.4997   -4.1311 H   0  0  0  0  0  0  0  0  0  0  0  0
    1.3573   -4.7592   -3.3259 H   0  0  0  0  0  0  0  0  0  0  0  0
    0.5434   -6.1785   -2.5843 H   0  0  0  0  0  0  0  0  0  0  0  0
 22 24  2  0  0  0  0
 24 26  1  0  0  0  0
 23 25  2  0  0  0  0
 25 26  1  0  0  0  0
 21 22  1  0  0  0  0
 22 23  1  0  0  0  0
  1  3  1  0  0  0  0
  1  7  1  0  0  0  0
  1  2  2  0  0  0  0
 35 36  1  0  0  0  0
 36 44  1  0  0  0  0
 36 37  2  0  0  0  0
  8  9  1  0  0  0  0
  9 17  1  0  0  0  0
  9 10  2  0  0  0  0
 18 19  1  0  0  0  0
 19 34  1  0  0  0  0
 19 20  2  0  0  0  0
 35 38  1  0  0  0  0
  8 11  1  0  0  0  0
 44 45  1  0  0  0  0
 18 21  1  0  0  0  0
 34 35  1  0  0  0  0
  7  8  1  0  0  0  0
 17 18  1  0  0  0  0
 24 31  1  0  0  0  0
 25 32  1  0  0  0  0
  3  4  1  0  0  0  0
  3  5  1  0  0  0  0
  3  6  1  0  0  0  0
 38 41  1  0  0  0  0
 38 42  1  0  0  0  0
 38 43  1  0  0  0  0
 11 14  1  0  0  0  0
 11 15  1  0  0  0  0
 11 16  1  0  0  0  0
 45 47  1  0  0  0  0
 45 48  1  0  0  0  0
 45 49  1  0  0  0  0
 21 29  1  0  0  0  0
 21 30  1  0  0  0  0
 35 40  1  0  0  0  0
  8 13  1  0  0  0  0
 18 28  1  0  0  0  0
 26 33  1  0  0  0  0
 44 46  1  0  0  0  0
  7 12  1  0  0  0  0
 34 39  1  0  0  0  0
 17 27  1  0  0  0  0
M  END
$$$$

  -OEChem-05262214473D

 49 49  0     1  0  0  0  0  0999 V2000
   -1.6183    0.5613    3.8201 C   0  0  0  0  0  0  0  0  0  0  0  0
   -0.6710   -0.0534    3.3444 O   0  0  0  0  0  0  0  0  0  0  0  0
   -2.0502    0.2789    5.2208 C   0  0  0  0  0  0  0  0  0  0  0  0
   -2.8099   -0.5175    5.2742 H   0  0  0  0  0  0  0  0  0  0  0  0
   -1.2190   -0.0687    5.8551 H   0  0  0  0  0  0  0  0  0  0  0  0
   -2.4882    1.1338    5.7604 H   0  0  0  0  0  0  0  0  0  0  0  0
   -2.3680    1.5337    3.1790 N   0  0  0  0  0  0  0  0  0  0  0  0
   -2.1212    1.9597    1.8266 C   0  0  2  0  0  0  0  0  0  0  0  0
   -0.7862    1.3744    1.3854 C   0  0  0  0  0  0  0  0  0  0  0  0
    0.0859    1.0216    2.1767 O   0  0  0  0  0  0  0  0  0  0  0  0
   -2.1124    3.4765    1.7171 C   0  0  0  0  0  0  0  0  0  0  0  0
   -3.1331    1.9695    3.6908 H   0  0  0  0  0  0  0  0  0  0  0  0
   -2.9253    1.5413    1.2115 H   0  0  0  0  0  0  0  0  0  0  0  0
   -1.3133    3.9138    2.3268 H   0  0  0  0  0  0  0  0  0  0  0  0
   -1.9529    3.7988    0.6829 H   0  0  0  0  0  0  0  0  0  0  0  0
   -3.0626    3.8977    2.0629 H   0  0  0  0  0  0  0  0  0  0  0  0
   -0.6635    1.3313    0.0020 N   0  0  0  0  0  0  0  0  0  0  0  0
    0.5138    0.8305   -0.6617 C   0  0  2  0  0  0  0  0  0  0  0  0
    0.3077   -0.6644   -0.8786 C   0  0  0  0  0  0  0  0  0  0  0  0
    1.0321   -1.5198   -0.3741 O   0  0  0  0  0  0  0  0  0  0  0  0
    1.7881    1.0801    0.1532 C   0  0  0  0  0  0  0  0  0  0  0  0
    2.0901    2.5483    0.3292 C   0  0  0  0  0  0  0  0  0  0  0  0
    2.5962    3.2868   -0.7110 N   0  0  0  0  0  0  0  0  0  0  0  0
    1.9265    3.3219    1.4540 C   0  0  0  0  0  0  0  0  0  0  0  0
    2.7385    4.4990   -0.2228 C   0  0  0  0  0  0  0  0  0  0  0  0
    2.3465    4.5688    1.0851 N   0  0  0  0  0  0  0  0  0  0  0  0
   -1.4467    1.6280   -0.5753 H   0  0  0  0  0  0  0  0  0  0  0  0
    0.5602    1.3314   -1.6358 H   0  0  0  0  0  0  0  0  0  0  0  0
    2.6452    0.5806   -0.3186 H   0  0  0  0  0  0  0  0  0  0  0  0
    1.7020    0.6251    1.1488 H   0  0  0  0  0  0  0  0  0  0  0  0
    1.5634    3.1099    2.4494 H   0  0  0  0  0  0  0  0  0  0  0  0
    3.1149    5.3603   -0.7565 H   0  0  0  0  0  0  0  0  0  0  0  0
    2.3634    5.3925    1.6715 H   0  0  0  0  0  0  0  0  0  0  0  0
   -0.8089   -0.9270   -1.6600 N   0  0  0  0  0  0  0  0  0  0  0  0
   -1.2438   -2.2629   -1.9991 C   0  0  2  0  0  0  0  0  0  0  0  0
   -0.0414   -3.0263   -2.5384 C   0  0  0  0  0  0  0  0  0  0  0  0
    0.9467   -2.4716   -3.0148 O   0  0  0  0  0  0  0  0  0  0  0  0
   -2.3720   -2.2355   -3.0185 C   0  0  0  0  0  0  0  0  0  0  0  0
   -1.3475   -0.1407   -2.0113 H   0  0  0  0  0  0  0  0  0  0  0  0
   -1.5863   -2.7296   -1.0691 H   0  0  0  0  0  0  0  0  0  0  0  0
   -2.0477   -1.7713   -3.9570 H   0  0  0  0  0  0  0  0  0  0  0  0
   -2.7197   -3.2470   -3.2529 H   0  0  0  0  0  0  0  0  0  0  0  0
   -3.2247   -1.6608   -2.6408 H   0  0  0  0  0  0  0  0  0  0  0  0
   -0.2199   -4.4007   -2.4647 N   0  0  0  0  0  0  0  0  0  0  0  0
    0.7743   -5.3418   -2.9252 C   0  0  0  0  0  0  0  0  0  0  0  0
   -1.0627   -4.7729   -2.0372 H   0  0  0  0  0  0  0  0  0  0  0  0
    0.5685   -5.6105   -3.9718 H   0  0  0  0  0  0  0  0  0  0  0  0
    1.7724   -4.8850   -2.8534 H   0  0  0  0  0  0  0  0  0  0  0  0
    0.7394   -6.2467   -2.3007 H   0  0  0  0  0  0  0  0  0  0  0  0
 22 24  2  0  0  0  0
 24 26  1  0  0  0  0
 23 25  2  0  0  0  0
 25 26  1  0  0  0  0
 21 22  1  0  0  0  0
 22 23  1  0  0  0  0
  1  3  1  0  0  0  0
  1  7  1  0  0  0  0
  1  2  2  0  0  0  0
 35 36  1  0  0  0  0
 36 44  1  0  0  0  0
 36 37  2  0  0  0  0
  8  9  1  0  0  0  0
  9 17  1  0  0  0  0
  9 10  2  0  0  0  0
 18 19  1  0  0  0  0
 19 34  1  0  0  0  0
 19 20  2  0  0  0  0
 35 38  1  0  0  0  0
  8 11  1  0  0  0  0
 44 45  1  0  0  0  0
 18 21  1  0  0  0  0
 34 35  1  0  0  0  0
  7  8  1  0  0  0  0
 17 18  1  0  0  0  0
 24 31  1  0  0  0  0
 25 32  1  0  0  0  0
  3  4  1  0  0  0  0
  3  5  1  0  0  0  0
  3  6  1  0  0  0  0
 38 41  1  0  0  0  0
 38 42  1  0  0  0  0
 38 43  1  0  0  0  0
 11 14  1  0  0  0  0
 11 15  1  0  0  0  0
 11 16  1  0  0  0  0
 45 47  1  0  0  0  0
 45 48  1  0  0  0  0
 45 49  1  0  0  0  0
 21 29  1  0  0  0  0
 21 30  1  0  0  0  0
 35 40  1  0  0  0  0
  8 13  1  0  0  0  0
 18 28  1  0  0  0  0
 26 33  1  0  0  0  0
 44 46  1  0  0  0  0
  7 12  1  0  0  0  0
 34 39  1  0  0  0  0
 17 27  1  0  0  0  0
M  END
$$$$

  -OEChem-05262214473D

 49 49  0     1  0  0  0  0  0999 V2000
   -1.6183    0.5613    3.8201 C   0  0  0  0  0  0  0  0  0  0  0  0
   -0.6710   -0.0534    3.3444 O   0  0  0  0  0  0  0  0  0  0  0  0
   -2.0502    0.2789    5.2208 C   0  0  0  0  0  0  0  0  0  0  0  0
   -2.8099   -0.5175    5.2742 H   0  0  0  0  0  0  0  0  0  0  0  0
   -1.2190   -0.0687    5.8551 H   0  0  0  0  0  0  0  0  0  0  0  0
   -2.4882    1.1338    5.7604 H   0  0  0  0  0  0  0  0  0  0  0  0
   -2.3680    1.5337    3.1790 N   0  0  0  0  0  0  0  0  0  0  0  0
   -2.1212    1.9597    1.8266 C   0  0  2  0  0  0  0  0  0  0  0  0
   -0.7862    1.3744    1.3854 C   0  0  0  0  0  0  0  0  0  0  0  0
    0.0859    1.0216    2.1767 O   0  0  0  0  0  0  0  0  0  0  0  0
   -2.1124    3.4765    1.7171 C   0  0  0  0  0  0  0  0  0  0  0  0
   -3.1331    1.9695    3.6908 H   0  0  0  0  0  0  0  0  0  0  0  0
   -2.9253    1.5413    1.2115 H   0  0  0  0  0  0  0  0  0  0  0  0
   -1.3133    3.9138    2.3268 H   0  0  0  0  0  0  0  0  0  0  0  0
   -1.9529    3.7988    0.6829 H   0  0  0  0  0  0  0  0  0  0  0  0
   -3.0626    3.8977    2.0629 H   0  0  0  0  0  0  0  0  0  0  0  0
   -0.6635    1.3313    0.0020 N   0  0  0  0  0  0  0  0  0  0  0  0
    0.5138    0.8305   -0.6617 C   0  0  2  0  0  0  0  0  0  0  0  0
    0.3077   -0.6644   -0.8786 C   0  0  0  0  0  0  0  0  0  0  0  0
    0.8448   -1.5221   -0.1808 O   0  0  0  0  0  0  0  0  0  0  0  0
    1.7881    1.0801    0.1532 C   0  0  0  0  0  0  0  0  0  0  0  0
    2.0901    2.5483    0.3292 C   0  0  0  0  0  0  0  0  0  0  0  0
    2.5962    3.2868   -0.7110 N   0  0  0  0  0  0  0  0  0  0  0  0
    1.9265    3.3219    1.4540 C   0  0  0  0  0  0  0  0  0  0  0  0
    2.7385    4.4990   -0.2228 C   0  0  0  0  0  0  0  0  0  0  0  0
    2.3465    4.5688    1.0851 N   0  0  0  0  0  0  0  0  0  0  0  0
   -1.4467    1.6280   -0.5753 H   0  0  0  0  0  0  0  0  0  0  0  0
    0.5602    1.3314   -1.6358 H   0  0  0  0  0  0  0  0  0  0  0  0
    2.6452    0.5806   -0.3186 H   0  0  0  0  0  0  0  0  0  0  0  0
    1.7020    0.6251    1.1488 H   0  0  0  0  0  0  0  0  0  0  0  0
    1.5634    3.1099    2.4494 H   0  0  0  0  0  0  0  0  0  0  0  0
    3.1149    5.3603   -0.7565 H   0  0  0  0  0  0  0  0  0  0  0  0
    2.3634    5.3925    1.6715 H   0  0  0  0  0  0  0  0  0  0  0  0
   -0.5846   -0.9216   -1.9101 N   0  0  0  0  0  0  0  0  0  0  0  0
   -0.9744   -2.2552   -2.3081 C   0  0  2  0  0  0  0  0  0  0  0  0
    0.2928   -3.0779   -2.5004 C   0  0  0  0  0  0  0  0  0  0  0  0
    1.3914   -2.5747   -2.7262 O   0  0  0  0  0  0  0  0  0  0  0  0
   -1.8057   -2.2319   -3.5814 C   0  0  0  0  0  0  0  0  0  0  0  0
   -0.9838   -0.1329   -2.4104 H   0  0  0  0  0  0  0  0  0  0  0  0
   -1.5601   -2.6733   -1.4822 H   0  0  0  0  0  0  0  0  0  0  0  0
   -1.2354   -1.8161   -4.4201 H   0  0  0  0  0  0  0  0  0  0  0  0
   -2.1242   -3.2402   -3.8658 H   0  0  0  0  0  0  0  0  0  0  0  0
   -2.7016   -1.6154   -3.4506 H   0  0  0  0  0  0  0  0  0  0  0  0
    0.0448   -4.4417   -2.4330 N   0  0  0  0  0  0  0  0  0  0  0  0
    1.0834   -5.4320   -2.5967 C   0  0  0  0  0  0  0  0  0  0  0  0
   -0.8934   -4.7692   -2.2230 H   0  0  0  0  0  0  0  0  0  0  0  0
    1.1383   -5.7353   -3.6527 H   0  0  0  0  0  0  0  0  0  0  0  0
    2.0488   -5.0053   -2.2872 H   0  0  0  0  0  0  0  0  0  0  0  0
    0.8542   -6.3098   -1.9747 H   0  0  0  0  0  0  0  0  0  0  0  0
 22 24  2  0  0  0  0
 24 26  1  0  0  0  0
 23 25  2  0  0  0  0
 25 26  1  0  0  0  0
 21 22  1  0  0  0  0
 22 23  1  0  0  0  0
  1  3  1  0  0  0  0
  1  7  1  0  0  0  0
  1  2  2  0  0  0  0
 35 36  1  0  0  0  0
 36 44  1  0  0  0  0
 36 37  2  0  0  0  0
  8  9  1  0  0  0  0
  9 17  1  0  0  0  0
  9 10  2  0  0  0  0
 18 19  1  0  0  0  0
 19 34  1  0  0  0  0
 19 20  2  0  0  0  0
 35 38  1  0  0  0  0
  8 11  1  0  0  0  0
 44 45  1  0  0  0  0
 18 21  1  0  0  0  0
 34 35  1  0  0  0  0
  7  8  1  0  0  0  0
 17 18  1  0  0  0  0
 24 31  1  0  0  0  0
 25 32  1  0  0  0  0
  3  4  1  0  0  0  0
  3  5  1  0  0  0  0
  3  6  1  0  0  0  0
 38 41  1  0  0  0  0
 38 42  1  0  0  0  0
 38 43  1  0  0  0  0
 11 14  1  0  0  0  0
 11 15  1  0  0  0  0
 11 16  1  0  0  0  0
 45 47  1  0  0  0  0
 45 48  1  0  0  0  0
 45 49  1  0  0  0  0
 21 29  1  0  0  0  0
 21 30  1  0  0  0  0
 35 40  1  0  0  0  0
  8 13  1  0  0  0  0
 18 28  1  0  0  0  0
 26 33  1  0  0  0  0
 44 46  1  0  0  0  0
  7 12  1  0  0  0  0
 34 39  1  0  0  0  0
 17 27  1  0  0  0  0
M  END
$$$$

  -OEChem-05262214473D

 49 49  0     1  0  0  0  0  0999 V2000
   -1.6183    0.5613    3.8201 C   0  0  0  0  0  0  0  0  0  0  0  0
   -0.6710   -0.0534    3.3444 O   0  0  0  0  0  0  0  0  0  0  0  0
   -2.0502    0.2789    5.2208 C   0  0  0  0  0  0  0  0  0  0  0  0
   -2.8099   -0.5175    5.2742 H   0  0  0  0  0  0  0  0  0  0  0  0
   -1.2190   -0.0687    5.8551 H   0  0  0  0  0  0  0  0  0  0  0  0
   -2.4882    1.1338    5.7604 H   0  0  0  0  0  0  0  0  0  0  0  0
   -2.3680    1.5337    3.1790 N   0  0  0  0  0  0  0  0  0  0  0  0
   -2.1212    1.9597    1.8266 C   0  0  2  0  0  0  0  0  0  0  0  0
   -0.7862    1.3744    1.3854 C   0  0  0  0  0  0  0  0  0  0  0  0
    0.0859    1.0216    2.1767 O   0  0  0  0  0  0  0  0  0  0  0  0
   -2.1124    3.4765    1.7171 C   0  0  0  0  0  0  0  0  0  0  0  0
   -3.1331    1.9695    3.6908 H   0  0  0  0  0  0  0  0  0  0  0  0
   -2.9253    1.5413    1.2115 H   0  0  0  0  0  0  0  0  0  0  0  0
   -1.3133    3.9138    2.3268 H   0  0  0  0  0  0  0  0  0  0  0  0
   -1.9529    3.7988    0.6829 H   0  0  0  0  0  0  0  0  0  0  0  0
   -3.0626    3.8977    2.0629 H   0  0  0  0  0  0  0  0  0  0  0  0
   -0.6635    1.3313    0.0020 N   0  0  0  0  0  0  0  0  0  0  0  0
    0.5138    0.8305   -0.6617 C   0  0  2  0  0  0  0  0  0  0  0  0
    0.3077   -0.6644   -0.8786 C   0  0  0  0  0  0  0  0  0  0  0  0
    0.6147   -1.5106   -0.0415 O   0  0  0  0  0  0  0  0  0  0  0  0
    1.7881    1.0801    0.1532 C   0  0  0  0  0  0  0  0  0  0  0  0
    2.0901    2.5483    0.3292 C   0  0  0  0  0  0  0  0  0  0  0  0
    2.5962    3.2868   -0.7110 N   0  0  0  0  0  0  0  0  0  0  0  0
    1.9265    3.3219    1.4540 C   0  0  0  0  0  0  0  0  0  0  0  0
    2.7385    4.4990   -0.2228 C   0  0  0  0  0  0  0  0  0  0  0  0
    2.3465    4.5688    1.0851 N   0  0  0  0  0  0  0  0  0  0  0  0
   -1.4467    1.6280   -0.5753 H   0  0  0  0  0  0  0  0  0  0  0  0
    0.5602    1.3314   -1.6358 H   0  0  0  0  0  0  0  0  0  0  0  0
    2.6452    0.5806   -0.3186 H   0  0  0  0  0  0  0  0  0  0  0  0
    1.7020    0.6251    1.1488 H   0  0  0  0  0  0  0  0  0  0  0  0
    1.5634    3.1099    2.4494 H   0  0  0  0  0  0  0  0  0  0  0  0
    3.1149    5.3603   -0.7565 H   0  0  0  0  0  0  0  0  0  0  0  0
    2.3634    5.3925    1.6715 H   0  0  0  0  0  0  0  0  0  0  0  0
   -0.3043   -0.9335   -2.0949 N   0  0  0  0  0  0  0  0  0  0  0  0
   -0.6354   -2.2685   -2.5386 C   0  0  2  0  0  0  0  0  0  0  0  0
    0.6041   -3.1387   -2.3771 C   0  0  0  0  0  0  0  0  0  0  0  0
    1.7439   -2.6806   -2.3311 O   0  0  0  0  0  0  0  0  0  0  0  0
   -1.1156   -2.2689   -3.9815 C   0  0  0  0  0  0  0  0  0  0  0  0
   -0.5308   -0.1528   -2.7040 H   0  0  0  0  0  0  0  0  0  0  0  0
   -1.4279   -2.6343   -1.8766 H   0  0  0  0  0  0  0  0  0  0  0  0
   -0.3349   -1.9055   -4.6597 H   0  0  0  0  0  0  0  0  0  0  0  0
   -1.3931   -3.2769   -4.3070 H   0  0  0  0  0  0  0  0  0  0  0  0
   -1.9892   -1.6192   -4.1017 H   0  0  0  0  0  0  0  0  0  0  0  0
    0.2910   -4.4901   -2.3339 N   0  0  0  0  0  0  0  0  0  0  0  0
    1.2953   -5.5191   -2.1979 C   0  0  0  0  0  0  0  0  0  0  0  0
   -0.6826   -4.7785   -2.3597 H   0  0  0  0  0  0  0  0  0  0  0  0
    1.6032   -5.8657   -3.1954 H   0  0  0  0  0  0  0  0  0  0  0  0
    2.1677   -5.1118   -1.6660 H   0  0  0  0  0  0  0  0  0  0  0  0
    0.8800   -6.3636   -1.6284 H   0  0  0  0  0  0  0  0  0  0  0  0
 22 24  2  0  0  0  0
 24 26  1  0  0  0  0
 23 25  2  0  0  0  0
 25 26  1  0  0  0  0
 21 22  1  0  0  0  0
 22 23  1  0  0  0  0
  1  3  1  0  0  0  0
  1  7  1  0  0  0  0
  1  2  2  0  0  0  0
 35 36  1  0  0  0  0
 36 44  1  0  0  0  0
 36 37  2  0  0  0  0
  8  9  1  0  0  0  0
  9 17  1  0  0  0  0
  9 10  2  0  0  0  0
 18 19  1  0  0  0  0
 19 34  1  0  0  0  0
 19 20  2  0  0  0  0
 35 38  1  0  0  0  0
  8 11  1  0  0  0  0
 44 45  1  0  0  0  0
 18 21  1  0  0  0  0
 34 35  1  0  0  0  0
  7  8  1  0  0  0  0
 17 18  1  0  0  0  0
 24 31  1  0  0  0  0
 25 32  1  0  0  0  0
  3  4  1  0  0  0  0
  3  5  1  0  0  0  0
  3  6  1  0  0  0  0
 38 41  1  0  0  0  0
 38 42  1  0  0  0  0
 38 43  1  0  0  0  0
 11 14  1  0  0  0  0
 11 15  1  0  0  0  0
 11 16  1  0  0  0  0
 45 47  1  0  0  0  0
 45 48  1  0  0  0  0
 45 49  1  0  0  0  0
 21 29  1  0  0  0  0
 21 30  1  0  0  0  0
 35 40  1  0  0  0  0
  8 13  1  0  0  0  0
 18 28  1  0  0  0  0
 26 33  1  0  0  0  0
 44 46  1  0  0  0  0
  7 12  1  0  0  0  0
 34 39  1  0  0  0  0
 17 27  1  0  0  0  0
M  END
$$$$

  -OEChem-05262214473D

 49 49  0     1  0  0  0  0  0999 V2000
   -1.6183    0.5613    3.8201 C   0  0  0  0  0  0  0  0  0  0  0  0
   -0.6710   -0.0534    3.3444 O   0  0  0  0  0  0  0  0  0  0  0  0
   -2.0502    0.2789    5.2208 C   0  0  0  0  0  0  0  0  0  0  0  0
   -2.8099   -0.5175    5.2742 H   0  0  0  0  0  0  0  0  0  0  0  0
   -1.2190   -0.0687    5.8551 H   0  0  0  0  0  0  0  0  0  0  0  0
   -2.4882    1.1338    5.7604 H   0  0  0  0  0  0  0  0  0  0  0  0
   -2.3680    1.5337    3.1790 N   0  0  0  0  0  0  0  0  0  0  0  0
   -2.1212    1.9597    1.8266 C   0  0  2  0  0  0  0  0  0  0  0  0
   -0.7862    1.3744    1.3854 C   0  0  0  0  0  0  0  0  0  0  0  0
    0.0859    1.0216    2.1767 O   0  0  0  0  0  0  0  0  0  0  0  0
   -2.1124    3.4765    1.7171 C   0  0  0  0  0  0  0  0  0  0  0  0
   -3.1331    1.9695    3.6908 H   0  0  0  0  0  0  0  0  0  0  0  0
   -2.9253    1.5413    1.2115 H   0  0  0  0  0  0  0  0  0  0  0  0
   -1.3133    3.9138    2.3268 H   0  0  0  0  0  0  0  0  0  0  0  0
   -1.9529    3.7988    0.6829 H   0  0  0  0  0  0  0  0  0  0  0  0
   -3.0626    3.8977    2.0629 H   0  0  0  0  0  0  0  0  0  0  0  0
   -0.6635    1.3313    0.0020 N   0  0  0  0  0  0  0  0  0  0  0  0
    0.5138    0.8305   -0.6617 C   0  0  2  0  0  0  0  0  0  0  0  0
    0.3077   -0.6644   -0.8786 C   0  0  0  0  0  0  0  0  0  0  0  0
    0.3576   -1.4861    0.0343 O   0  0  0  0  0  0  0  0  0  0  0  0
    1.7881    1.0801    0.1532 C   0  0  0  0  0  0  0  0  0  0  0  0
    2.0901    2.5483    0.3292 C   0  0  0  0  0  0  0  0  0  0  0  0
    2.5962    3.2868   -0.7110 N   0  0  0  0  0  0  0  0  0  0  0  0
    1.9265    3.3219    1.4540 C   0  0  0  0  0  0  0  0  0  0  0  0
    2.7385    4.4990   -0.2228 C   0  0  0  0  0  0  0  0  0  0  0  0
    2.3465    4.5688    1.0851 N   0  0  0  0  0  0  0  0  0  0  0  0
   -1.4467    1.6280   -0.5753 H   0  0  0  0  0  0  0  0  0  0  0  0
    0.5602    1.3314   -1.6358 H   0  0  0  0  0  0  0  0  0  0  0  0
    2.6452    0.5806   -0.3186 H   0  0  0  0  0  0  0  0  0  0  0  0
    1.7020    0.6251    1.1488 H   0  0  0  0  0  0  0  0  0  0  0  0
    1.5634    3.1099    2.4494 H   0  0  0  0  0  0  0  0  0  0  0  0
    3.1149    5.3603   -0.7565 H   0  0  0  0  0  0  0  0  0  0  0  0
    2.3634    5.3925    1.6715 H   0  0  0  0  0  0  0  0  0  0  0  0
    0.0130   -0.9617   -2.2019 N   0  0  0  0  0  0  0  0  0  0  0  0
   -0.2499   -2.3019   -2.6746 C   0  0  2  0  0  0  0  0  0  0  0  0
    0.8712   -3.2046   -2.1769 C   0  0  0  0  0  0  0  0  0  0  0  0
    1.9802   -2.7821   -1.8562 O   0  0  0  0  0  0  0  0  0  0  0  0
   -0.3489   -2.3441   -4.1916 C   0  0  0  0  0  0  0  0  0  0  0  0
   -0.0195   -0.1989   -2.8719 H   0  0  0  0  0  0  0  0  0  0  0  0
   -1.1986   -2.6153   -2.2253 H   0  0  0  0  0  0  0  0  0  0  0  0
    0.5924   -2.0333   -4.6594 H   0  0  0  0  0  0  0  0  0  0  0  0
   -0.5764   -3.3548   -4.5463 H   0  0  0  0  0  0  0  0  0  0  0  0
   -1.1359   -1.6718   -4.5497 H   0  0  0  0  0  0  0  0  0  0  0  0
    0.5018   -4.5423   -2.1739 N   0  0  0  0  0  0  0  0  0  0  0  0
    1.3955   -5.5970   -1.7559 C   0  0  0  0  0  0  0  0  0  0  0  0
   -0.4446   -4.7999   -2.4379 H   0  0  0  0  0  0  0  0  0  0  0  0
    1.9313   -5.9928   -2.6312 H   0  0  0  0  0  0  0  0  0  0  0  0
    2.1210   -5.1973   -1.0320 H   0  0  0  0  0  0  0  0  0  0  0  0
    0.8151   -6.4044   -1.2855 H   0  0  0  0  0  0  0  0  0  0  0  0
 22 24  2  0  0  0  0
 24 26  1  0  0  0  0
 23 25  2  0  0  0  0
 25 26  1  0  0  0  0
 21 22  1  0  0  0  0
 22 23  1  0  0  0  0
  1  3  1  0  0  0  0
  1  7  1  0  0  0  0
  1  2  2  0  0  0  0
 35 36  1  0  0  0  0
 36 44  1  0  0  0  0
 36 37  2  0  0  0  0
  8  9  1  0  0  0  0
  9 17  1  0  0  0  0
  9 10  2  0  0  0  0
 18 19  1  0  0  0  0
 19 34  1  0  0  0  0
 19 20  2  0  0  0  0
 35 38  1  0  0  0  0
  8 11  1  0  0  0  0
 44 45  1  0  0  0  0
 18 21  1  0  0  0  0
 34 35  1  0  0  0  0
  7  8  1  0  0  0  0
 17 18  1  0  0  0  0
 24 31  1  0  0  0  0
 25 32  1  0  0  0  0
  3  4  1  0  0  0  0
  3  5  1  0  0  0  0
  3  6  1  0  0  0  0
 38 41  1  0  0  0  0
 38 42  1  0  0  0  0
 38 43  1  0  0  0  0
 11 14  1  0  0  0  0
 11 15  1  0  0  0  0
 11 16  1  0  0  0  0
 45 47  1  0  0  0  0
 45 48  1  0  0  0  0
 45 49  1  0  0  0  0
 21 29  1  0  0  0  0
 21 30  1  0  0  0  0
 35 40  1  0  0  0  0
  8 13  1  0  0  0  0
 18 28  1  0  0  0  0
 26 33  1  0  0  0  0
 44 46  1  0  0  0  0
  7 12  1  0  0  0  0
 34 39  1  0  0  0  0
 17 27  1  0  0  0  0
M  END
$$$$

  -OEChem-05262214473D

 49 49  0     1  0  0  0  0  0999 V2000
   -1.6183    0.5613    3.8201 C   0  0  0  0  0  0  0  0  0  0  0  0
   -0.6710   -0.0534    3.3444 O   0  0  0  0  0  0  0  0  0  0  0  0
   -2.0502    0.2789    5.2208 C   0  0  0  0  0  0  0  0  0  0  0  0
   -2.8099   -0.5175    5.2742 H   0  0  0  0  0  0  0  0  0  0  0  0
   -1.2190   -0.0687    5.8551 H   0  0  0  0  0  0  0  0  0  0  0  0
   -2.4882    1.1338    5.7604 H   0  0  0  0  0  0  0  0  0  0  0  0
   -2.3680    1.5337    3.1790 N   0  0  0  0  0  0  0  0  0  0  0  0
   -2.1212    1.9597    1.8266 C   0  0  2  0  0  0  0  0  0  0  0  0
   -0.7862    1.3744    1.3854 C   0  0  0  0  0  0  0  0  0  0  0  0
    0.0859    1.0216    2.1767 O   0  0  0  0  0  0  0  0  0  0  0  0
   -2.1124    3.4765    1.7171 C   0  0  0  0  0  0  0  0  0  0  0  0
   -3.1331    1.9695    3.6908 H   0  0  0  0  0  0  0  0  0  0  0  0
   -2.9253    1.5413    1.2115 H   0  0  0  0  0  0  0  0  0  0  0  0
   -1.3133    3.9138    2.3268 H   0  0  0  0  0  0  0  0  0  0  0  0
   -1.9529    3.7988    0.6829 H   0  0  0  0  0  0  0  0  0  0  0  0
   -3.0626    3.8977    2.0629 H   0  0  0  0  0  0  0  0  0  0  0  0
   -0.6635    1.3313    0.0020 N   0  0  0  0  0  0  0  0  0  0  0  0
    0.5138    0.8305   -0.6617 C   0  0  2  0  0  0  0  0  0  0  0  0
    0.3077   -0.6644   -0.8786 C   0  0  0  0  0  0  0  0  0  0  0  0
    0.0909   -1.4504    0.0413 O   0  0  0  0  0  0  0  0  0  0  0  0
    1.7881    1.0801    0.1532 C   0  0  0  0  0  0  0  0  0  0  0  0
    2.0901    2.5483    0.3292 C   0  0  0  0  0  0  0  0  0  0  0  0
    2.5962    3.2868   -0.7110 N   0  0  0  0  0  0  0  0  0  0  0  0
    1.9265    3.3219    1.4540 C   0  0  0  0  0  0  0  0  0  0  0  0
    2.7385    4.4990   -0.2228 C   0  0  0  0  0  0  0  0  0  0  0  0
    2.3465    4.5688    1.0851 N   0  0  0  0  0  0  0  0  0  0  0  0
   -1.4467    1.6280   -0.5753 H   0  0  0  0  0  0  0  0  0  0  0  0
    0.5602    1.3314   -1.6358 H   0  0  0  0  0  0  0  0  0  0  0  0
    2.6452    0.5806   -0.3186 H   0  0  0  0  0  0  0  0  0  0  0  0
    1.7020    0.6251    1.1488 H   0  0  0  0  0  0  0  0  0  0  0  0
    1.5634    3.1099    2.4494 H   0  0  0  0  0  0  0  0  0  0  0  0
    3.1149    5.3603   -0.7565 H   0  0  0  0  0  0  0  0  0  0  0  0
    2.3634    5.3925    1.6715 H   0  0  0  0  0  0  0  0  0  0  0  0
    0.3455   -1.0043   -2.2237 N   0  0  0  0  0  0  0  0  0  0  0  0
    0.1557   -2.3531   -2.7070 C   0  0  2  0  0  0  0  0  0  0  0  0
    1.0760   -3.2710   -1.9134 C   0  0  0  0  0  0  0  0  0  0  0  0
    2.0842   -2.8722   -1.3340 O   0  0  0  0  0  0  0  0  0  0  0  0
    0.4423   -2.4524   -4.1972 C   0  0  0  0  0  0  0  0  0  0  0  0
    0.5152   -0.2681   -2.9026 H   0  0  0  0  0  0  0  0  0  0  0  0
   -0.8879   -2.6176   -2.5047 H   0  0  0  0  0  0  0  0  0  0  0  0
    1.4833   -2.1909   -4.4194 H   0  0  0  0  0  0  0  0  0  0  0  0
    0.2704   -3.4684   -4.5675 H   0  0  0  0  0  0  0  0  0  0  0  0
   -0.2000   -1.7697   -4.7640 H   0  0  0  0  0  0  0  0  0  0  0  0
    0.6629   -4.5950   -1.9641 N   0  0  0  0  0  0  0  0  0  0  0  0
    1.3773   -5.6606   -1.3007 C   0  0  0  0  0  0  0  0  0  0  0  0
   -0.1957   -4.8322   -2.4522 H   0  0  0  0  0  0  0  0  0  0  0  0
    2.1004   -6.1079   -1.9986 H   0  0  0  0  0  0  0  0  0  0  0  0
    1.9118   -5.2561   -0.4285 H   0  0  0  0  0  0  0  0  0  0  0  0
    0.6638   -6.4294   -0.9693 H   0  0  0  0  0  0  0  0  0  0  0  0
 22 24  2  0  0  0  0
 24 26  1  0  0  0  0
 23 25  2  0  0  0  0
 25 26  1  0  0  0  0
 21 22  1  0  0  0  0
 22 23  1  0  0  0  0
  1  3  1  0  0  0  0
  1  7  1  0  0  0  0
  1  2  2  0  0  0  0
 35 36  1  0  0  0  0
 36 44  1  0  0  0  0
 36 37  2  0  0  0  0
  8  9  1  0  0  0  0
  9 17  1  0  0  0  0
  9 10  2  0  0  0  0
 18 19  1  0  0  0  0
 19 34  1  0  0  0  0
 19 20  2  0  0  0  0
 35 38  1  0  0  0  0
  8 11  1  0  0  0  0
 44 45  1  0  0  0  0
 18 21  1  0  0  0  0
 34 35  1  0  0  0  0
  7  8  1  0  0  0  0
 17 18  1  0  0  0  0
 24 31  1  0  0  0  0
 25 32  1  0  0  0  0
  3  4  1  0  0  0  0
  3  5  1  0  0  0  0
  3  6  1  0  0  0  0
 38 41  1  0  0  0  0
 38 42  1  0  0  0  0
 38 43  1  0  0  0  0
 11 14  1  0  0  0  0
 11 15  1  0  0  0  0
 11 16  1  0  0  0  0
 45 47  1  0  0  0  0
 45 48  1  0  0  0  0
 45 49  1  0  0  0  0
 21 29  1  0  0  0  0
 21 30  1  0  0  0  0
 35 40  1  0  0  0  0
  8 13  1  0  0  0  0
 18 28  1  0  0  0  0
 26 33  1  0  0  0  0
 44 46  1  0  0  0  0
  7 12  1  0  0  0  0
 34 39  1  0  0  0  0
 17 27  1  0  0  0  0
M  END
$$$$

  -OEChem-05262214473D

 49 49  0     1  0  0  0  0  0999 V2000
   -1.6183    0.5613    3.8201 C   0  0  0  0  0  0  0  0  0  0  0  0
   -0.6710   -0.0534    3.3444 O   0  0  0  0  0  0  0  0  0  0  0  0
   -2.0502    0.2789    5.2208 C   0  0  0  0  0  0  0  0  0  0  0  0
   -2.8099   -0.5175    5.2742 H   0  0  0  0  0  0  0  0  0  0  0  0
   -1.2190   -0.0687    5.8551 H   0  0  0  0  0  0  0  0  0  0  0  0
   -2.4882    1.1338    5.7604 H   0  0  0  0  0  0  0  0  0  0  0  0
   -2.3680    1.5337    3.1790 N   0  0  0  0  0  0  0  0  0  0  0  0
   -2.1212    1.9597    1.8266 C   0  0  2  0  0  0  0  0  0  0  0  0
   -0.7862    1.3744    1.3854 C   0  0  0  0  0  0  0  0  0  0  0  0
    0.0859    1.0216    2.1767 O   0  0  0  0  0  0  0  0  0  0  0  0
   -2.1124    3.4765    1.7171 C   0  0  0  0  0  0  0  0  0  0  0  0
   -3.1331    1.9695    3.6908 H   0  0  0  0  0  0  0  0  0  0  0  0
   -2.9253    1.5413    1.2115 H   0  0  0  0  0  0  0  0  0  0  0  0
   -1.3133    3.9138    2.3268 H   0  0  0  0  0  0  0  0  0  0  0  0
   -1.9529    3.7988    0.6829 H   0  0  0  0  0  0  0  0  0  0  0  0
   -3.0626    3.8977    2.0629 H   0  0  0  0  0  0  0  0  0  0  0  0
   -0.6635    1.3313    0.0020 N   0  0  0  0  0  0  0  0  0  0  0  0
    0.5138    0.8305   -0.6617 C   0  0  2  0  0  0  0  0  0  0  0  0
    0.3077   -0.6644   -0.8786 C   0  0  0  0  0  0  0  0  0  0  0  0
   -0.1672   -1.4058   -0.0208 O   0  0  0  0  0  0  0  0  0  0  0  0
    1.7881    1.0801    0.1532 C   0  0  0  0  0  0  0  0  0  0  0  0
    2.0901    2.5483    0.3292 C   0  0  0  0  0  0  0  0  0  0  0  0
    2.5962    3.2868   -0.7110 N   0  0  0  0  0  0  0  0  0  0  0  0
    1.9265    3.3219    1.4540 C   0  0  0  0  0  0  0  0  0  0  0  0
    2.7385    4.4990   -0.2228 C   0  0  0  0  0  0  0  0  0  0  0  0
    2.3465    4.5688    1.0851 N   0  0  0  0  0  0  0  0  0  0  0  0
   -1.4467    1.6280   -0.5753 H   0  0  0  0  0  0  0  0  0  0  0  0
    0.5602    1.3314   -1.6358 H   0  0  0  0  0  0  0  0  0  0  0  0
    2.6452    0.5806   -0.3186 H   0  0  0  0  0  0  0  0  0  0  0  0
    1.7020    0.6251    1.1488 H   0  0  0  0  0  0  0  0  0  0  0  0
    1.5634    3.1099    2.4494 H   0  0  0  0  0  0  0  0  0  0  0  0
    3.1149    5.3603   -0.7565 H   0  0  0  0  0  0  0  0  0  0  0  0
    2.3634    5.3925    1.6715 H   0  0  0  0  0  0  0  0  0  0  0  0
    0.6707   -1.0586   -2.1589 N   0  0  0  0  0  0  0  0  0  0  0  0
    0.5538   -2.4186   -2.6336 C   0  0  2  0  0  0  0  0  0  0  0  0
    1.2045   -3.3335   -1.6046 C   0  0  0  0  0  0  0  0  0  0  0  0
    2.0488   -2.9448   -0.8001 O   0  0  0  0  0  0  0  0  0  0  0  0
    1.2040   -2.5862   -3.9982 C   0  0  0  0  0  0  0  0  0  0  0  0
    1.0370   -0.3558   -2.7943 H   0  0  0  0  0  0  0  0  0  0  0  0
   -0.5170   -2.6410   -2.6956 H   0  0  0  0  0  0  0  0  0  0  0  0
    2.2772   -2.3676   -3.9559 H   0  0  0  0  0  0  0  0  0  0  0  0
    1.0896   -3.6101   -4.3691 H   0  0  0  0  0  0  0  0  0  0  0  0
    0.7548   -1.9062   -4.7300 H   0  0  0  0  0  0  0  0  0  0  0  0
    0.7633   -4.6444   -1.7186 N   0  0  0  0  0  0  0  0  0  0  0  0
    1.2419   -5.7053   -0.8634 C   0  0  0  0  0  0  0  0  0  0  0  0
    0.0472   -4.8729   -2.4018 H   0  0  0  0  0  0  0  0  0  0  0  0
    2.0989   -6.2032   -1.3405 H   0  0  0  0  0  0  0  0  0  0  0  0
    1.5544   -5.2840    0.1034 H   0  0  0  0  0  0  0  0  0  0  0  0
    0.4366   -6.4370   -0.7014 H   0  0  0  0  0  0  0  0  0  0  0  0
 22 24  2  0  0  0  0
 24 26  1  0  0  0  0
 23 25  2  0  0  0  0
 25 26  1  0  0  0  0
 21 22  1  0  0  0  0
 22 23  1  0  0  0  0
  1  3  1  0  0  0  0
  1  7  1  0  0  0  0
  1  2  2  0  0  0  0
 35 36  1  0  0  0  0
 36 44  1  0  0  0  0
 36 37  2  0  0  0  0
  8  9  1  0  0  0  0
  9 17  1  0  0  0  0
  9 10  2  0  0  0  0
 18 19  1  0  0  0  0
 19 34  1  0  0  0  0
 19 20  2  0  0  0  0
 35 38  1  0  0  0  0
  8 11  1  0  0  0  0
 44 45  1  0  0  0  0
 18 21  1  0  0  0  0
 34 35  1  0  0  0  0
  7  8  1  0  0  0  0
 17 18  1  0  0  0  0
 24 31  1  0  0  0  0
 25 32  1  0  0  0  0
  3  4  1  0  0  0  0
  3  5  1  0  0  0  0
  3  6  1  0  0  0  0
 38 41  1  0  0  0  0
 38 42  1  0  0  0  0
 38 43  1  0  0  0  0
 11 14  1  0  0  0  0
 11 15  1  0  0  0  0
 11 16  1  0  0  0  0
 45 47  1  0  0  0  0
 45 48  1  0  0  0  0
 45 49  1  0  0  0  0
 21 29  1  0  0  0  0
 21 30  1  0  0  0  0
 35 40  1  0  0  0  0
  8 13  1  0  0  0  0
 18 28  1  0  0  0  0
 26 33  1  0  0  0  0
 44 46  1  0  0  0  0
  7 12  1  0  0  0  0
 34 39  1  0  0  0  0
 17 27  1  0  0  0  0
M  END
$$$$

  -OEChem-05262214473D

 49 49  0     1  0  0  0  0  0999 V2000
   -1.6183    0.5613    3.8201 C   0  0  0  0  0  0  0  0  0  0  0  0
   -0.6710   -0.0534    3.3444 O   0  0  0  0  0  0  0  0  0  0  0  0
   -2.0502    0.2789    5.2208 C   0  0  0  0  0  0  0  0  0  0  0  0
   -2.8099   -0.5175    5.2742 H   0  0  0  0  0  0  0  0  0  0  0  0
   -1.2190   -0.0687    5.8551 H   0  0  0  0  0  0  0  0  0  0  0  0
   -2.4882    1.1338    5.7604 H   0  0  0  0  0  0  0  0  0  0  0  0
   -2.3680    1.5337    3.1790 N   0  0  0  0  0  0  0  0  0  0  0  0
   -2.1212    1.9597    1.8266 C   0  0  2  0  0  0  0  0  0  0  0  0
   -0.7862    1.3744    1.3854 C   0  0  0  0  0  0  0  0  0  0  0  0
    0.0859    1.0216    2.1767 O   0  0  0  0  0  0  0  0  0  0  0  0
   -2.1124    3.4765    1.7171 C   0  0  0  0  0  0  0  0  0  0  0  0
   -3.1331    1.9695    3.6908 H   0  0  0  0  0  0  0  0  0  0  0  0
   -2.9253    1.5413    1.2115 H   0  0  0  0  0  0  0  0  0  0  0  0
   -1.3133    3.9138    2.3268 H   0  0  0  0  0  0  0  0  0  0  0  0
   -1.9529    3.7988    0.6829 H   0  0  0  0  0  0  0  0  0  0  0  0
   -3.0626    3.8977    2.0629 H   0  0  0  0  0  0  0  0  0  0  0  0
   -0.6635    1.3313    0.0020 N   0  0  0  0  0  0  0  0  0  0  0  0
    0.5138    0.8305   -0.6617 C   0  0  2  0  0  0  0  0  0  0  0  0
    0.3077   -0.6644   -0.8786 C   0  0  0  0  0  0  0  0  0  0  0  0
   -0.3991   -1.3554   -0.1479 O   0  0  0  0  0  0  0  0  0  0  0  0
    1.7881    1.0801    0.1532 C   0  0  0  0  0  0  0  0  0  0  0  0
    2.0901    2.5483    0.3292 C   0  0  0  0  0  0  0  0  0  0  0  0
    2.5962    3.2868   -0.7110 N   0  0  0  0  0  0  0  0  0  0  0  0
    1.9265    3.3219    1.4540 C   0  0  0  0  0  0  0  0  0  0  0  0
    2.7385    4.4990   -0.2228 C   0  0  0  0  0  0  0  0  0  0  0  0
    2.3465    4.5688    1.0851 N   0  0  0  0  0  0  0  0  0  0  0  0
   -1.4467    1.6280   -0.5753 H   0  0  0  0  0  0  0  0  0  0  0  0
    0.5602    1.3314   -1.6358 H   0  0  0  0  0  0  0  0  0  0  0  0
    2.6452    0.5806   -0.3186 H   0  0  0  0  0  0  0  0  0  0  0  0
    1.7020    0.6251    1.1488 H   0  0  0  0  0  0  0  0  0  0  0  0
    1.5634    3.1099    2.4494 H   0  0  0  0  0  0  0  0  0  0  0  0
    3.1149    5.3603   -0.7565 H   0  0  0  0  0  0  0  0  0  0  0  0
    2.3634    5.3925    1.6715 H   0  0  0  0  0  0  0  0  0  0  0  0
    0.9664   -1.1207   -2.0119 N   0  0  0  0  0  0  0  0  0  0  0  0
    0.9173   -2.4940   -2.4594 C   0  0  2  0  0  0  0  0  0  0  0  0
    1.2480   -3.3878   -1.2715 C   0  0  0  0  0  0  0  0  0  0  0  0
    1.8764   -2.9949   -0.2908 O   0  0  0  0  0  0  0  0  0  0  0  0
    1.8842   -2.7366   -3.6079 C   0  0  0  0  0  0  0  0  0  0  0  0
    1.5103   -0.4559   -2.5541 H   0  0  0  0  0  0  0  0  0  0  0  0
   -0.1112   -2.6840   -2.7850 H   0  0  0  0  0  0  0  0  0  0  0  0
    2.9199   -2.5513   -3.3006 H   0  0  0  0  0  0  0  0  0  0  0  0
    1.8252   -3.7702   -3.9646 H   0  0  0  0  0  0  0  0  0  0  0  0
    1.6635   -2.0720   -4.4502 H   0  0  0  0  0  0  0  0  0  0  0  0
    0.7962   -4.6873   -1.4544 N   0  0  0  0  0  0  0  0  0  0  0  0
    0.9984   -5.7283   -0.4739 C   0  0  0  0  0  0  0  0  0  0  0  0
    0.2675   -4.9195   -2.2900 H   0  0  0  0  0  0  0  0  0  0  0  0
    1.9270   -6.2722   -0.7019 H   0  0  0  0  0  0  0  0  0  0  0  0
    1.0732   -5.2792    0.5275 H   0  0  0  0  0  0  0  0  0  0  0  0
    0.1488   -6.4265   -0.5000 H   0  0  0  0  0  0  0  0  0  0  0  0
 22 24  2  0  0  0  0
 24 26  1  0  0  0  0
 23 25  2  0  0  0  0
 25 26  1  0  0  0  0
 21 22  1  0  0  0  0
 22 23  1  0  0  0  0
  1  3  1  0  0  0  0
  1  7  1  0  0  0  0
  1  2  2  0  0  0  0
 35 36  1  0  0  0  0
 36 44  1  0  0  0  0
 36 37  2  0  0  0  0
  8  9  1  0  0  0  0
  9 17  1  0  0  0  0
  9 10  2  0  0  0  0
 18 19  1  0  0  0  0
 19 34  1  0  0  0  0
 19 20  2  0  0  0  0
 35 38  1  0  0  0  0
  8 11  1  0  0  0  0
 44 45  1  0  0  0  0
 18 21  1  0  0  0  0
 34 35  1  0  0  0  0
  7  8  1  0  0  0  0
 17 18  1  0  0  0  0
 24 31  1  0  0  0  0
 25 32  1  0  0  0  0
  3  4  1  0  0  0  0
  3  5  1  0  0  0  0
  3  6  1  0  0  0  0
 38 41  1  0  0  0  0
 38 42  1  0  0  0  0
 38 43  1  0  0  0  0
 11 14  1  0  0  0  0
 11 15  1  0  0  0  0
 11 16  1  0  0  0  0
 45 47  1  0  0  0  0
 45 48  1  0  0  0  0
 45 49  1  0  0  0  0
 21 29  1  0  0  0  0
 21 30  1  0  0  0  0
 35 40  1  0  0  0  0
  8 13  1  0  0  0  0
 18 28  1  0  0  0  0
 26 33  1  0  0  0  0
 44 46  1  0  0  0  0
  7 12  1  0  0  0  0
 34 39  1  0  0  0  0
 17 27  1  0  0  0  0
M  END
$$$$

  -OEChem-05262214473D

 49 49  0     1  0  0  0  0  0999 V2000
   -1.6183    0.5613    3.8201 C   0  0  0  0  0  0  0  0  0  0  0  0
   -0.6710   -0.0534    3.3444 O   0  0  0  0  0  0  0  0  0  0  0  0
   -2.0502    0.2789    5.2208 C   0  0  0  0  0  0  0  0  0  0  0  0
   -2.8099   -0.5175    5.2742 H   0  0  0  0  0  0  0  0  0  0  0  0
   -1.2190   -0.0687    5.8551 H   0  0  0  0  0  0  0  0  0  0  0  0
   -2.4882    1.1338    5.7604 H   0  0  0  0  0  0  0  0  0  0  0  0
   -2.3680    1.5337    3.1790 N   0  0  0  0  0  0  0  0  0  0  0  0
   -2.1212    1.9597    1.8266 C   0  0  2  0  0  0  0  0  0  0  0  0
   -0.7862    1.3744    1.3854 C   0  0  0  0  0  0  0  0  0  0  0  0
    0.0859    1.0216    2.1767 O   0  0  0  0  0  0  0  0  0  0  0  0
   -2.1124    3.4765    1.7171 C   0  0  0  0  0  0  0  0  0  0  0  0
   -3.1331    1.9695    3.6908 H   0  0  0  0  0  0  0  0  0  0  0  0
   -2.9253    1.5413    1.2115 H   0  0  0  0  0  0  0  0  0  0  0  0
   -1.3133    3.9138    2.3268 H   0  0  0  0  0  0  0  0  0  0  0  0
   -1.9529    3.7988    0.6829 H   0  0  0  0  0  0  0  0  0  0  0  0
   -3.0626    3.8977    2.0629 H   0  0  0  0  0  0  0  0  0  0  0  0
   -0.6635    1.3313    0.0020 N   0  0  0  0  0  0  0  0  0  0  0  0
    0.5138    0.8305   -0.6617 C   0  0  2  0  0  0  0  0  0  0  0  0
    0.3077   -0.6644   -0.8786 C   0  0  0  0  0  0  0  0  0  0  0  0
   -0.5890   -1.3026   -0.3312 O   0  0  0  0  0  0  0  0  0  0  0  0
    1.7881    1.0801    0.1532 C   0  0  0  0  0  0  0  0  0  0  0  0
    2.0901    2.5483    0.3292 C   0  0  0  0  0  0  0  0  0  0  0  0
    2.5962    3.2868   -0.7110 N   0  0  0  0  0  0  0  0  0  0  0  0
    1.9265    3.3219    1.4540 C   0  0  0  0  0  0  0  0  0  0  0  0
    2.7385    4.4990   -0.2228 C   0  0  0  0  0  0  0  0  0  0  0  0
    2.3465    4.5688    1.0851 N   0  0  0  0  0  0  0  0  0  0  0  0
   -1.4467    1.6280   -0.5753 H   0  0  0  0  0  0  0  0  0  0  0  0
    0.5602    1.3314   -1.6358 H   0  0  0  0  0  0  0  0  0  0  0  0
    2.6452    0.5806   -0.3186 H   0  0  0  0  0  0  0  0  0  0  0  0
    1.7020    0.6251    1.1488 H   0  0  0  0  0  0  0  0  0  0  0  0
    1.5634    3.1099    2.4494 H   0  0  0  0  0  0  0  0  0  0  0  0
    3.1149    5.3603   -0.7565 H   0  0  0  0  0  0  0  0  0  0  0  0
    2.3634    5.3925    1.6715 H   0  0  0  0  0  0  0  0  0  0  0  0
    1.2124   -1.1864   -1.7927 N   0  0  0  0  0  0  0  0  0  0  0  0
    1.2215   -2.5741   -2.1962 C   0  0  2  0  0  0  0  0  0  0  0  0
    1.2034   -3.4303   -0.9368 C   0  0  0  0  0  0  0  0  0  0  0  0
    1.5788   -3.0192    0.1592 O   0  0  0  0  0  0  0  0  0  0  0  0
    2.4367   -2.8933   -3.0530 C   0  0  0  0  0  0  0  0  0  0  0  0
    1.9028   -0.5615   -2.1984 H   0  0  0  0  0  0  0  0  0  0  0  0
    0.3019   -2.7435   -2.7669 H   0  0  0  0  0  0  0  0  0  0  0  0
    3.3676   -2.7294   -2.4980 H   0  0  0  0  0  0  0  0  0  0  0  0
    2.4273   -3.9378   -3.3816 H   0  0  0  0  0  0  0  0  0  0  0  0
    2.4640   -2.2559   -3.9434 H   0  0  0  0  0  0  0  0  0  0  0  0
    0.7593   -4.7207   -1.1893 N   0  0  0  0  0  0  0  0  0  0  0  0
    0.6635   -5.7279   -0.1586 C   0  0  0  0  0  0  0  0  0  0  0  0
    0.4503   -4.9687   -2.1245 H   0  0  0  0  0  0  0  0  0  0  0  0
    1.5963   -6.3101   -0.1263 H   0  0  0  0  0  0  0  0  0  0  0  0
    0.5009   -5.2420    0.8148 H   0  0  0  0  0  0  0  0  0  0  0  0
   -0.1799   -6.3988   -0.3789 H   0  0  0  0  0  0  0  0  0  0  0  0
 22 24  2  0  0  0  0
 24 26  1  0  0  0  0
 23 25  2  0  0  0  0
 25 26  1  0  0  0  0
 21 22  1  0  0  0  0
 22 23  1  0  0  0  0
  1  3  1  0  0  0  0
  1  7  1  0  0  0  0
  1  2  2  0  0  0  0
 35 36  1  0  0  0  0
 36 44  1  0  0  0  0
 36 37  2  0  0  0  0
  8  9  1  0  0  0  0
  9 17  1  0  0  0  0
  9 10  2  0  0  0  0
 18 19  1  0  0  0  0
 19 34  1  0  0  0  0
 19 20  2  0  0  0  0
 35 38  1  0  0  0  0
  8 11  1  0  0  0  0
 44 45  1  0  0  0  0
 18 21  1  0  0  0  0
 34 35  1  0  0  0  0
  7  8  1  0  0  0  0
 17 18  1  0  0  0  0
 24 31  1  0  0  0  0
 25 32  1  0  0  0  0
  3  4  1  0  0  0  0
  3  5  1  0  0  0  0
  3  6  1  0  0  0  0
 38 41  1  0  0  0  0
 38 42  1  0  0  0  0
 38 43  1  0  0  0  0
 11 14  1  0  0  0  0
 11 15  1  0  0  0  0
 11 16  1  0  0  0  0
 45 47  1  0  0  0  0
 45 48  1  0  0  0  0
 45 49  1  0  0  0  0
 21 29  1  0  0  0  0
 21 30  1  0  0  0  0
 35 40  1  0  0  0  0
  8 13  1  0  0  0  0
 18 28  1  0  0  0  0
 26 33  1  0  0  0  0
 44 46  1  0  0  0  0
  7 12  1  0  0  0  0
 34 39  1  0  0  0  0
 17 27  1  0  0  0  0
M  END
$$$$

  -OEChem-05262214473D

 49 49  0     1  0  0  0  0  0999 V2000
   -1.6183    0.5613    3.8201 C   0  0  0  0  0  0  0  0  0  0  0  0
   -0.6710   -0.0534    3.3444 O   0  0  0  0  0  0  0  0  0  0  0  0
   -2.0502    0.2789    5.2208 C   0  0  0  0  0  0  0  0  0  0  0  0
   -2.8099   -0.5175    5.2742 H   0  0  0  0  0  0  0  0  0  0  0  0
   -1.2190   -0.0687    5.8551 H   0  0  0  0  0  0  0  0  0  0  0  0
   -2.4882    1.1338    5.7604 H   0  0  0  0  0  0  0  0  0  0  0  0
   -2.3680    1.5337    3.1790 N   0  0  0  0  0  0  0  0  0  0  0  0
   -2.1212    1.9597    1.8266 C   0  0  2  0  0  0  0  0  0  0  0  0
   -0.7862    1.3744    1.3854 C   0  0  0  0  0  0  0  0  0  0  0  0
    0.0859    1.0216    2.1767 O   0  0  0  0  0  0  0  0  0  0  0  0
   -2.1124    3.4765    1.7171 C   0  0  0  0  0  0  0  0  0  0  0  0
   -3.1331    1.9695    3.6908 H   0  0  0  0  0  0  0  0  0  0  0  0
   -2.9253    1.5413    1.2115 H   0  0  0  0  0  0  0  0  0  0  0  0
   -1.3133    3.9138    2.3268 H   0  0  0  0  0  0  0  0  0  0  0  0
   -1.9529    3.7988    0.6829 H   0  0  0  0  0  0  0  0  0  0  0  0
   -3.0626    3.8977    2.0629 H   0  0  0  0  0  0  0  0  0  0  0  0
   -0.6635    1.3313    0.0020 N   0  0  0  0  0  0  0  0  0  0  0  0
    0.5138    0.8305   -0.6617 C   0  0  2  0  0  0  0  0  0  0  0  0
    0.1686   -0.5484   -1.2128 C   0  0  0  0  0  0  0  0  0  0  0  0
   -0.9484   -1.0505   -1.1080 O   0  0  0  0  0  0  0  0  0  0  0  0
    1.7173    0.7406    0.2837 C   0  0  0  0  0  0  0  0  0  0  0  0
    2.1585    2.0896    0.7966 C   0  0  0  0  0  0  0  0  0  0  0  0
    2.8466    2.9551   -0.0164 N   0  0  0  0  0  0  0  0  0  0  0  0
    1.9659    2.6295    2.0464 C   0  0  0  0  0  0  0  0  0  0  0  0
    3.0699    4.0120    0.7325 C   0  0  0  0  0  0  0  0  0  0  0  0
    2.5556    3.8609    1.9903 N   0  0  0  0  0  0  0  0  0  0  0  0
   -1.4467    1.6280   -0.5753 H   0  0  0  0  0  0  0  0  0  0  0  0
    0.7146    1.5110   -1.4974 H   0  0  0  0  0  0  0  0  0  0  0  0
    2.5584    0.2428   -0.2176 H   0  0  0  0  0  0  0  0  0  0  0  0
    1.4800    0.1052    1.1472 H   0  0  0  0  0  0  0  0  0  0  0  0
    1.4815    2.2656    2.9411 H   0  0  0  0  0  0  0  0  0  0  0  0
    3.5912    4.9090    0.4290 H   0  0  0  0  0  0  0  0  0  0  0  0
    2.6023    4.5370    2.7408 H   0  0  0  0  0  0  0  0  0  0  0  0
    1.2418   -1.1260   -1.8770 N   0  0  0  0  0  0  0  0  0  0  0  0
    1.1768   -2.4219   -2.5135 C   0  0  2  0  0  0  0  0  0  0  0  0
    0.5939   -3.4095   -1.5112 C   0  0  0  0  0  0  0  0  0  0  0  0
    0.6262   -3.2293   -0.2956 O   0  0  0  0  0  0  0  0  0  0  0  0
    2.5488   -2.8749   -2.9879 C   0  0  0  0  0  0  0  0  0  0  0  0
    2.1170   -0.6120   -1.9177 H   0  0  0  0  0  0  0  0  0  0  0  0
    0.4964   -2.3217   -3.3661 H   0  0  0  0  0  0  0  0  0  0  0  0
    3.2443   -2.9809   -2.1473 H   0  0  0  0  0  0  0  0  0  0  0  0
    2.4933   -3.8437   -3.4952 H   0  0  0  0  0  0  0  0  0  0  0  0
    2.9792   -2.1487   -3.6858 H   0  0  0  0  0  0  0  0  0  0  0  0
    0.0721   -4.5359   -2.1315 N   0  0  0  0  0  0  0  0  0  0  0  0
   -0.5269   -5.6245   -1.3951 C   0  0  0  0  0  0  0  0  0  0  0  0
    0.0707   -4.5925   -3.1457 H   0  0  0  0  0  0  0  0  0  0  0  0
    0.2363   -6.3874   -1.1820 H   0  0  0  0  0  0  0  0  0  0  0  0
   -0.9390   -5.2440   -0.4489 H   0  0  0  0  0  0  0  0  0  0  0  0
   -1.3346   -6.0712   -1.9935 H   0  0  0  0  0  0  0  0  0  0  0  0
 22 24  2  0  0  0  0
 24 26  1  0  0  0  0
 23 25  2  0  0  0  0
 25 26  1  0  0  0  0
 21 22  1  0  0  0  0
 22 23  1  0  0  0  0
  1  3  1  0  0  0  0
  1  7  1  0  0  0  0
  1  2  2  0  0  0  0
 35 36  1  0  0  0  0
 36 44  1  0  0  0  0
 36 37  2  0  0  0  0
  8  9  1  0  0  0  0
  9 17  1  0  0  0  0
  9 10  2  0  0  0  0
 18 19  1  0  0  0  0
 19 34  1  0  0  0  0
 19 20  2  0  0  0  0
 35 38  1  0  0  0  0
  8 11  1  0  0  0  0
 44 45  1  0  0  0  0
 18 21  1  0  0  0  0
 34 35  1  0  0  0  0
  7  8  1  0  0  0  0
 17 18  1  0  0  0  0
 24 31  1  0  0  0  0
 25 32  1  0  0  0  0
  3  4  1  0  0  0  0
  3  5  1  0  0  0  0
  3  6  1  0  0  0  0
 38 41  1  0  0  0  0
 38 42  1  0  0  0  0
 38 43  1  0  0  0  0
 11 14  1  0  0  0  0
 11 15  1  0  0  0  0
 11 16  1  0  0  0  0
 45 47  1  0  0  0  0
 45 48  1  0  0  0  0
 45 49  1  0  0  0  0
 21 29  1  0  0  0  0
 21 30  1  0  0  0  0
 35 40  1  0  0  0  0
  8 13  1  0  0  0  0
 18 28  1  0  0  0  0
 26 33  1  0  0  0  0
 44 46  1  0  0  0  0
  7 12  1  0  0  0  0
 34 39  1  0  0  0  0
 17 27  1  0  0  0  0
M  END
$$$$

  -OEChem-05262214473D

 49 49  0     1  0  0  0  0  0999 V2000
   -1.6183    0.5613    3.8201 C   0  0  0  0  0  0  0  0  0  0  0  0
   -0.6710   -0.0534    3.3444 O   0  0  0  0  0  0  0  0  0  0  0  0
   -2.0502    0.2789    5.2208 C   0  0  0  0  0  0  0  0  0  0  0  0
   -2.8099   -0.5175    5.2742 H   0  0  0  0  0  0  0  0  0  0  0  0
   -1.2190   -0.0687    5.8551 H   0  0  0  0  0  0  0  0  0  0  0  0
   -2.4882    1.1338    5.7604 H   0  0  0  0  0  0  0  0  0  0  0  0
   -2.3680    1.5337    3.1790 N   0  0  0  0  0  0  0  0  0  0  0  0
   -2.1212    1.9597    1.8266 C   0  0  2  0  0  0  0  0  0  0  0  0
   -0.7862    1.3744    1.3854 C   0  0  0  0  0  0  0  0  0  0  0  0
    0.0859    1.0216    2.1767 O   0  0  0  0  0  0  0  0  0  0  0  0
   -2.1124    3.4765    1.7171 C   0  0  0  0  0  0  0  0  0  0  0  0
   -3.1331    1.9695    3.6908 H   0  0  0  0  0  0  0  0  0  0  0  0
   -2.9253    1.5413    1.2115 H   0  0  0  0  0  0  0  0  0  0  0  0
   -1.3133    3.9138    2.3268 H   0  0  0  0  0  0  0  0  0  0  0  0
   -1.9529    3.7988    0.6829 H   0  0  0  0  0  0  0  0  0  0  0  0
   -3.0626    3.8977    2.0629 H   0  0  0  0  0  0  0  0  0  0  0  0
   -0.6635    1.3313    0.0020 N   0  0  0  0  0  0  0  0  0  0  0  0
    0.5138    0.8305   -0.6617 C   0  0  2  0  0  0  0  0  0  0  0  0
    0.1686   -0.5484   -1.2128 C   0  0  0  0  0  0  0  0  0  0  0  0
   -0.9870   -0.9434   -1.3519 O   0  0  0  0  0  0  0  0  0  0  0  0
    1.7173    0.7406    0.2837 C   0  0  0  0  0  0  0  0  0  0  0  0
    2.1585    2.0896    0.7966 C   0  0  0  0  0  0  0  0  0  0  0  0
    2.8466    2.9551   -0.0164 N   0  0  0  0  0  0  0  0  0  0  0  0
    1.9659    2.6295    2.0464 C   0  0  0  0  0  0  0  0  0  0  0  0
    3.0699    4.0120    0.7325 C   0  0  0  0  0  0  0  0  0  0  0  0
    2.5556    3.8609    1.9903 N   0  0  0  0  0  0  0  0  0  0  0  0
   -1.4467    1.6280   -0.5753 H   0  0  0  0  0  0  0  0  0  0  0  0
    0.7146    1.5110   -1.4974 H   0  0  0  0  0  0  0  0  0  0  0  0
    2.5584    0.2428   -0.2176 H   0  0  0  0  0  0  0  0  0  0  0  0
    1.4800    0.1052    1.1472 H   0  0  0  0  0  0  0  0  0  0  0  0
    1.4815    2.2656    2.9411 H   0  0  0  0  0  0  0  0  0  0  0  0
    3.5912    4.9090    0.4290 H   0  0  0  0  0  0  0  0  0  0  0  0
    2.6023    4.5370    2.7408 H   0  0  0  0  0  0  0  0  0  0  0  0
    1.3027   -1.2617   -1.5757 N   0  0  0  0  0  0  0  0  0  0  0  0
    1.2566   -2.5883   -2.1472 C   0  0  2  0  0  0  0  0  0  0  0  0
    0.3615   -3.4494   -1.2658 C   0  0  0  0  0  0  0  0  0  0  0  0
    0.1297   -3.1883   -0.0872 O   0  0  0  0  0  0  0  0  0  0  0  0
    2.6485   -3.1904   -2.2611 C   0  0  0  0  0  0  0  0  0  0  0  0
    2.2107   -0.8295   -1.4323 H   0  0  0  0  0  0  0  0  0  0  0  0
    0.8056   -2.4892   -3.1406 H   0  0  0  0  0  0  0  0  0  0  0  0
    3.1164   -3.2973   -1.2757 H   0  0  0  0  0  0  0  0  0  0  0  0
    2.6147   -4.1837   -2.7205 H   0  0  0  0  0  0  0  0  0  0  0  0
    3.2995   -2.5546   -2.8709 H   0  0  0  0  0  0  0  0  0  0  0  0
   -0.1133   -4.5669   -1.9380 N   0  0  0  0  0  0  0  0  0  0  0  0
   -0.9726   -5.5455   -1.3136 C   0  0  0  0  0  0  0  0  0  0  0  0
    0.1144   -4.6937   -2.9197 H   0  0  0  0  0  0  0  0  0  0  0  0
   -0.3601   -6.3550   -0.8898 H   0  0  0  0  0  0  0  0  0  0  0  0
   -1.5520   -5.0657   -0.5111 H   0  0  0  0  0  0  0  0  0  0  0  0
   -1.6607   -5.9612   -2.0644 H   0  0  0  0  0  0  0  0  0  0  0  0
 22 24  2  0  0  0  0
 24 26  1  0  0  0  0
 23 25  2  0  0  0  0
 25 26  1  0  0  0  0
 21 22  1  0  0  0  0
 22 23  1  0  0  0  0
  1  3  1  0  0  0  0
  1  7  1  0  0  0  0
  1  2  2  0  0  0  0
 35 36  1  0  0  0  0
 36 44  1  0  0  0  0
 36 37  2  0  0  0  0
  8  9  1  0  0  0  0
  9 17  1  0  0  0  0
  9 10  2  0  0  0  0
 18 19  1  0  0  0  0
 19 34  1  0  0  0  0
 19 20  2  0  0  0  0
 35 38  1  0  0  0  0
  8 11  1  0  0  0  0
 44 45  1  0  0  0  0
 18 21  1  0  0  0  0
 34 35  1  0  0  0  0
  7  8  1  0  0  0  0
 17 18  1  0  0  0  0
 24 31  1  0  0  0  0
 25 32  1  0  0  0  0
  3  4  1  0  0  0  0
  3  5  1  0  0  0  0
  3  6  1  0  0  0  0
 38 41  1  0  0  0  0
 38 42  1  0  0  0  0
 38 43  1  0  0  0  0
 11 14  1  0  0  0  0
 11 15  1  0  0  0  0
 11 16  1  0  0  0  0
 45 47  1  0  0  0  0
 45 48  1  0  0  0  0
 45 49  1  0  0  0  0
 21 29  1  0  0  0  0
 21 30  1  0  0  0  0
 35 40  1  0  0  0  0
  8 13  1  0  0  0  0
 18 28  1  0  0  0  0
 26 33  1  0  0  0  0
 44 46  1  0  0  0  0
  7 12  1  0  0  0  0
 34 39  1  0  0  0  0
 17 27  1  0  0  0  0
M  END
$$$$

  -OEChem-05262214473D

 49 49  0     1  0  0  0  0  0999 V2000
   -1.6183    0.5613    3.8201 C   0  0  0  0  0  0  0  0  0  0  0  0
   -0.6710   -0.0534    3.3444 O   0  0  0  0  0  0  0  0  0  0  0  0
   -2.0502    0.2789    5.2208 C   0  0  0  0  0  0  0  0  0  0  0  0
   -2.8099   -0.5175    5.2742 H   0  0  0  0  0  0  0  0  0  0  0  0
   -1.2190   -0.0687    5.8551 H   0  0  0  0  0  0  0  0  0  0  0  0
   -2.4882    1.1338    5.7604 H   0  0  0  0  0  0  0  0  0  0  0  0
   -2.3680    1.5337    3.1790 N   0  0  0  0  0  0  0  0  0  0  0  0
   -2.1212    1.9597    1.8266 C   0  0  2  0  0  0  0  0  0  0  0  0
   -0.7862    1.3744    1.3854 C   0  0  0  0  0  0  0  0  0  0  0  0
    0.0859    1.0216    2.1767 O   0  0  0  0  0  0  0  0  0  0  0  0
   -2.1124    3.4765    1.7171 C   0  0  0  0  0  0  0  0  0  0  0  0
   -3.1331    1.9695    3.6908 H   0  0  0  0  0  0  0  0  0  0  0  0
   -2.9253    1.5413    1.2115 H   0  0  0  0  0  0  0  0  0  0  0  0
   -1.3133    3.9138    2.3268 H   0  0  0  0  0  0  0  0  0  0  0  0
   -1.9529    3.7988    0.6829 H   0  0  0  0  0  0  0  0  0  0  0  0
   -3.0626    3.8977    2.0629 H   0  0  0  0  0  0  0  0  0  0  0  0
   -0.6635    1.3313    0.0020 N   0  0  0  0  0  0  0  0  0  0  0  0
    0.5138    0.8305   -0.6617 C   0  0  2  0  0  0  0  0  0  0  0  0
    0.1686   -0.5484   -1.2128 C   0  0  0  0  0  0  0  0  0  0  0  0
   -0.9572   -0.8505   -1.6028 O   0  0  0  0  0  0  0  0  0  0  0  0
    1.7173    0.7406    0.2837 C   0  0  0  0  0  0  0  0  0  0  0  0
    2.1585    2.0896    0.7966 C   0  0  0  0  0  0  0  0  0  0  0  0
    2.8466    2.9551   -0.0164 N   0  0  0  0  0  0  0  0  0  0  0  0
    1.9659    2.6295    2.0464 C   0  0  0  0  0  0  0  0  0  0  0  0
    3.0699    4.0120    0.7325 C   0  0  0  0  0  0  0  0  0  0  0  0
    2.5556    3.8609    1.9903 N   0  0  0  0  0  0  0  0  0  0  0  0
   -1.4467    1.6280   -0.5753 H   0  0  0  0  0  0  0  0  0  0  0  0
    0.7146    1.5110   -1.4974 H   0  0  0  0  0  0  0  0  0  0  0  0
    2.5584    0.2428   -0.2176 H   0  0  0  0  0  0  0  0  0  0  0  0
    1.4800    0.1052    1.1472 H   0  0  0  0  0  0  0  0  0  0  0  0
    1.4815    2.2656    2.9411 H   0  0  0  0  0  0  0  0  0  0  0  0
    3.5912    4.9090    0.4290 H   0  0  0  0  0  0  0  0  0  0  0  0
    2.6023    4.5370    2.7408 H   0  0  0  0  0  0  0  0  0  0  0  0
    1.2782   -1.3808   -1.2625 N   0  0  0  0  0  0  0  0  0  0  0  0
    1.2325   -2.7350   -1.7650 C   0  0  2  0  0  0  0  0  0  0  0  0
    0.0759   -3.4518   -1.0809 C   0  0  0  0  0  0  0  0  0  0  0  0
   -0.3948   -3.0901   -0.0045 O   0  0  0  0  0  0  0  0  0  0  0  0
    2.5452   -3.4618   -1.5172 C   0  0  0  0  0  0  0  0  0  0  0  0
    2.1672   -1.0199   -0.9287 H   0  0  0  0  0  0  0  0  0  0  0  0
    1.0357   -2.6668   -2.8405 H   0  0  0  0  0  0  0  0  0  0  0  0
    2.7593   -3.5399   -0.4451 H   0  0  0  0  0  0  0  0  0  0  0  0
    2.5189   -4.4782   -1.9239 H   0  0  0  0  0  0  0  0  0  0  0  0
    3.3801   -2.9289   -1.9849 H   0  0  0  0  0  0  0  0  0  0  0  0
   -0.3404   -4.5682   -1.7926 N   0  0  0  0  0  0  0  0  0  0  0  0
   -1.4148   -5.4228   -1.3439 C   0  0  0  0  0  0  0  0  0  0  0  0
    0.0942   -4.7823   -2.6853 H   0  0  0  0  0  0  0  0  0  0  0  0
   -1.0015   -6.2507   -0.7491 H   0  0  0  0  0  0  0  0  0  0  0  0
   -2.1129   -4.8398   -0.7251 H   0  0  0  0  0  0  0  0  0  0  0  0
   -1.9488   -5.8287   -2.2157 H   0  0  0  0  0  0  0  0  0  0  0  0
 22 24  2  0  0  0  0
 24 26  1  0  0  0  0
 23 25  2  0  0  0  0
 25 26  1  0  0  0  0
 21 22  1  0  0  0  0
 22 23  1  0  0  0  0
  1  3  1  0  0  0  0
  1  7  1  0  0  0  0
  1  2  2  0  0  0  0
 35 36  1  0  0  0  0
 36 44  1  0  0  0  0
 36 37  2  0  0  0  0
  8  9  1  0  0  0  0
  9 17  1  0  0  0  0
  9 10  2  0  0  0  0
 18 19  1  0  0  0  0
 19 34  1  0  0  0  0
 19 20  2  0  0  0  0
 35 38  1  0  0  0  0
  8 11  1  0  0  0  0
 44 45  1  0  0  0  0
 18 21  1  0  0  0  0
 34 35  1  0  0  0  0
  7  8  1  0  0  0  0
 17 18  1  0  0  0  0
 24 31  1  0  0  0  0
 25 32  1  0  0  0  0
  3  4  1  0  0  0  0
  3  5  1  0  0  0  0
  3  6  1  0  0  0  0
 38 41  1  0  0  0  0
 38 42  1  0  0  0  0
 38 43  1  0  0  0  0
 11 14  1  0  0  0  0
 11 15  1  0  0  0  0
 11 16  1  0  0  0  0
 45 47  1  0  0  0  0
 45 48  1  0  0  0  0
 45 49  1  0  0  0  0
 21 29  1  0  0  0  0
 21 30  1  0  0  0  0
 35 40  1  0  0  0  0
  8 13  1  0  0  0  0
 18 28  1  0  0  0  0
 26 33  1  0  0  0  0
 44 46  1  0  0  0  0
  7 12  1  0  0  0  0
 34 39  1  0  0  0  0
 17 27  1  0  0  0  0
M  END
$$$$

  -OEChem-05262214473D

 49 49  0     1  0  0  0  0  0999 V2000
   -1.6183    0.5613    3.8201 C   0  0  0  0  0  0  0  0  0  0  0  0
   -0.6710   -0.0534    3.3444 O   0  0  0  0  0  0  0  0  0  0  0  0
   -2.0502    0.2789    5.2208 C   0  0  0  0  0  0  0  0  0  0  0  0
   -2.8099   -0.5175    5.2742 H   0  0  0  0  0  0  0  0  0  0  0  0
   -1.2190   -0.0687    5.8551 H   0  0  0  0  0  0  0  0  0  0  0  0
   -2.4882    1.1338    5.7604 H   0  0  0  0  0  0  0  0  0  0  0  0
   -2.3680    1.5337    3.1790 N   0  0  0  0  0  0  0  0  0  0  0  0
   -2.1212    1.9597    1.8266 C   0  0  2  0  0  0  0  0  0  0  0  0
   -0.7862    1.3744    1.3854 C   0  0  0  0  0  0  0  0  0  0  0  0
    0.0859    1.0216    2.1767 O   0  0  0  0  0  0  0  0  0  0  0  0
   -2.1124    3.4765    1.7171 C   0  0  0  0  0  0  0  0  0  0  0  0
   -3.1331    1.9695    3.6908 H   0  0  0  0  0  0  0  0  0  0  0  0
   -2.9253    1.5413    1.2115 H   0  0  0  0  0  0  0  0  0  0  0  0
   -1.3133    3.9138    2.3268 H   0  0  0  0  0  0  0  0  0  0  0  0
   -1.9529    3.7988    0.6829 H   0  0  0  0  0  0  0  0  0  0  0  0
   -3.0626    3.8977    2.0629 H   0  0  0  0  0  0  0  0  0  0  0  0
   -0.6635    1.3313    0.0020 N   0  0  0  0  0  0  0  0  0  0  0  0
    0.5138    0.8305   -0.6617 C   0  0  2  0  0  0  0  0  0  0  0  0
    0.1686   -0.5484   -1.2128 C   0  0  0  0  0  0  0  0  0  0  0  0
   -0.8610   -0.7784   -1.8436 O   0  0  0  0  0  0  0  0  0  0  0  0
    1.7173    0.7406    0.2837 C   0  0  0  0  0  0  0  0  0  0  0  0
    2.1585    2.0896    0.7966 C   0  0  0  0  0  0  0  0  0  0  0  0
    2.8466    2.9551   -0.0164 N   0  0  0  0  0  0  0  0  0  0  0  0
    1.9659    2.6295    2.0464 C   0  0  0  0  0  0  0  0  0  0  0  0
    3.0699    4.0120    0.7325 C   0  0  0  0  0  0  0  0  0  0  0  0
    2.5556    3.8609    1.9903 N   0  0  0  0  0  0  0  0  0  0  0  0
   -1.4467    1.6280   -0.5753 H   0  0  0  0  0  0  0  0  0  0  0  0
    0.7146    1.5110   -1.4974 H   0  0  0  0  0  0  0  0  0  0  0  0
    2.5584    0.2428   -0.2176 H   0  0  0  0  0  0  0  0  0  0  0  0
    1.4800    0.1052    1.1472 H   0  0  0  0  0  0  0  0  0  0  0  0
    1.4815    2.2656    2.9411 H   0  0  0  0  0  0  0  0  0  0  0  0
    3.5912    4.9090    0.4290 H   0  0  0  0  0  0  0  0  0  0  0  0
    2.6023    4.5370    2.7408 H   0  0  0  0  0  0  0  0  0  0  0  0
    1.1702   -1.4751   -0.9586 N   0  0  0  0  0  0  0  0  0  0  0  0
    1.1060   -2.8521   -1.3929 C   0  0  2  0  0  0  0  0  0  0  0  0
   -0.2435   -3.4165   -0.9690 C   0  0  0  0  0  0  0  0  0  0  0  0
   -0.9116   -2.9413   -0.0532 O   0  0  0  0  0  0  0  0  0  0  0  0
    2.2458   -3.6708   -0.8070 C   0  0  0  0  0  0  0  0  0  0  0  0
    1.9894   -1.1702   -0.4414 H   0  0  0  0  0  0  0  0  0  0  0  0
    1.1712   -2.8422   -2.4864 H   0  0  0  0  0  0  0  0  0  0  0  0
    2.1972   -3.6922    0.2878 H   0  0  0  0  0  0  0  0  0  0  0  0
    2.2123   -4.7069   -1.1597 H   0  0  0  0  0  0  0  0  0  0  0  0
    3.2155   -3.2460   -1.0884 H   0  0  0  0  0  0  0  0  0  0  0  0
   -0.5941   -4.5396   -1.7053 N   0  0  0  0  0  0  0  0  0  0  0  0
   -1.8234   -5.2646   -1.4838 C   0  0  0  0  0  0  0  0  0  0  0  0
    0.0115   -4.8523   -2.4585 H   0  0  0  0  0  0  0  0  0  0  0  0
   -1.6443   -6.0816   -0.7695 H   0  0  0  0  0  0  0  0  0  0  0  0
   -2.5834   -4.5816   -1.0764 H   0  0  0  0  0  0  0  0  0  0  0  0
   -2.1793   -5.6825   -2.4370 H   0  0  0  0  0  0  0  0  0  0  0  0
 22 24  2  0  0  0  0
 24 26  1  0  0  0  0
 23 25  2  0  0  0  0
 25 26  1  0  0  0  0
 21 22  1  0  0  0  0
 22 23  1  0  0  0  0
  1  3  1  0  0  0  0
  1  7  1  0  0  0  0
  1  2  2  0  0  0  0
 35 36  1  0  0  0  0
 36 44  1  0  0  0  0
 36 37  2  0  0  0  0
  8  9  1  0  0  0  0
  9 17  1  0  0  0  0
  9 10  2  0  0  0  0
 18 19  1  0  0  0  0
 19 34  1  0  0  0  0
 19 20  2  0  0  0  0
 35 38  1  0  0  0  0
  8 11  1  0  0  0  0
 44 45  1  0  0  0  0
 18 21  1  0  0  0  0
 34 35  1  0  0  0  0
  7  8  1  0  0  0  0
 17 18  1  0  0  0  0
 24 31  1  0  0  0  0
 25 32  1  0  0  0  0
  3  4  1  0  0  0  0
  3  5  1  0  0  0  0
  3  6  1  0  0  0  0
 38 41  1  0  0  0  0
 38 42  1  0  0  0  0
 38 43  1  0  0  0  0
 11 14  1  0  0  0  0
 11 15  1  0  0  0  0
 11 16  1  0  0  0  0
 45 47  1  0  0  0  0
 45 48  1  0  0  0  0
 45 49  1  0  0  0  0
 21 29  1  0  0  0  0
 21 30  1  0  0  0  0
 35 40  1  0  0  0  0
  8 13  1  0  0  0  0
 18 28  1  0  0  0  0
 26 33  1  0  0  0  0
 44 46  1  0  0  0  0
  7 12  1  0  0  0  0
 34 39  1  0  0  0  0
 17 27  1  0  0  0  0
M  END
$$$$

  -OEChem-05262214473D

 49 49  0     1  0  0  0  0  0999 V2000
   -1.6183    0.5613    3.8201 C   0  0  0  0  0  0  0  0  0  0  0  0
   -0.6710   -0.0534    3.3444 O   0  0  0  0  0  0  0  0  0  0  0  0
   -2.0502    0.2789    5.2208 C   0  0  0  0  0  0  0  0  0  0  0  0
   -2.8099   -0.5175    5.2742 H   0  0  0  0  0  0  0  0  0  0  0  0
   -1.2190   -0.0687    5.8551 H   0  0  0  0  0  0  0  0  0  0  0  0
   -2.4882    1.1338    5.7604 H   0  0  0  0  0  0  0  0  0  0  0  0
   -2.3680    1.5337    3.1790 N   0  0  0  0  0  0  0  0  0  0  0  0
   -2.1212    1.9597    1.8266 C   0  0  2  0  0  0  0  0  0  0  0  0
   -0.7862    1.3744    1.3854 C   0  0  0  0  0  0  0  0  0  0  0  0
    0.0859    1.0216    2.1767 O   0  0  0  0  0  0  0  0  0  0  0  0
   -2.1124    3.4765    1.7171 C   0  0  0  0  0  0  0  0  0  0  0  0
   -3.1331    1.9695    3.6908 H   0  0  0  0  0  0  0  0  0  0  0  0
   -2.9253    1.5413    1.2115 H   0  0  0  0  0  0  0  0  0  0  0  0
   -1.3133    3.9138    2.3268 H   0  0  0  0  0  0  0  0  0  0  0  0
   -1.9529    3.7988    0.6829 H   0  0  0  0  0  0  0  0  0  0  0  0
   -3.0626    3.8977    2.0629 H   0  0  0  0  0  0  0  0  0  0  0  0
   -0.6635    1.3313    0.0020 N   0  0  0  0  0  0  0  0  0  0  0  0
    0.5138    0.8305   -0.6617 C   0  0  2  0  0  0  0  0  0  0  0  0
    0.1686   -0.5484   -1.2128 C   0  0  0  0  0  0  0  0  0  0  0  0
   -0.7049   -0.7318   -2.0579 O   0  0  0  0  0  0  0  0  0  0  0  0
    1.7173    0.7406    0.2837 C   0  0  0  0  0  0  0  0  0  0  0  0
    2.1585    2.0896    0.7966 C   0  0  0  0  0  0  0  0  0  0  0  0
    2.8466    2.9551   -0.0164 N   0  0  0  0  0  0  0  0  0  0  0  0
    1.9659    2.6295    2.0464 C   0  0  0  0  0  0  0  0  0  0  0  0
    3.0699    4.0120    0.7325 C   0  0  0  0  0  0  0  0  0  0  0  0
    2.5556    3.8609    1.9903 N   0  0  0  0  0  0  0  0  0  0  0  0
   -1.4467    1.6280   -0.5753 H   0  0  0  0  0  0  0  0  0  0  0  0
    0.7146    1.5110   -1.4974 H   0  0  0  0  0  0  0  0  0  0  0  0
    2.5584    0.2428   -0.2176 H   0  0  0  0  0  0  0  0  0  0  0  0
    1.4800    0.1052    1.1472 H   0  0  0  0  0  0  0  0  0  0  0  0
    1.4815    2.2656    2.9411 H   0  0  0  0  0  0  0  0  0  0  0  0
    3.5912    4.9090    0.4290 H   0  0  0  0  0  0  0  0  0  0  0  0
    2.6023    4.5370    2.7408 H   0  0  0  0  0  0  0  0  0  0  0  0
    0.9858   -1.5384   -0.6850 N   0  0  0  0  0  0  0  0  0  0  0  0
    0.8857   -2.9316   -1.0562 C   0  0  2  0  0  0  0  0  0  0  0  0
   -0.5750   -3.3461   -0.9378 C   0  0  0  0  0  0  0  0  0  0  0  0
   -1.3855   -2.7520   -0.2299 O   0  0  0  0  0  0  0  0  0  0  0  0
    1.7709   -3.8030   -0.1788 C   0  0  0  0  0  0  0  0  0  0  0  0
    1.6896   -1.2702   -0.0034 H   0  0  0  0  0  0  0  0  0  0  0  0
    1.2027   -3.0036   -2.1023 H   0  0  0  0  0  0  0  0  0  0  0  0
    1.4684   -3.7437    0.8730 H   0  0  0  0  0  0  0  0  0  0  0  0
    1.7158   -4.8544   -0.4798 H   0  0  0  0  0  0  0  0  0  0  0  0
    2.8170   -3.4844   -0.2423 H   0  0  0  0  0  0  0  0  0  0  0  0
   -0.8568   -4.4831   -1.6820 N   0  0  0  0  0  0  0  0  0  0  0  0
   -2.1705   -5.0817   -1.7239 C   0  0  0  0  0  0  0  0  0  0  0  0
   -0.1281   -4.8989   -2.2546 H   0  0  0  0  0  0  0  0  0  0  0  0
   -2.2446   -5.8594   -0.9495 H   0  0  0  0  0  0  0  0  0  0  0  0
   -2.9315   -4.3088   -1.5410 H   0  0  0  0  0  0  0  0  0  0  0  0
   -2.3364   -5.5327   -2.7133 H   0  0  0  0  0  0  0  0  0  0  0  0
 22 24  2  0  0  0  0
 24 26  1  0  0  0  0
 23 25  2  0  0  0  0
 25 26  1  0  0  0  0
 21 22  1  0  0  0  0
 22 23  1  0  0  0  0
  1  3  1  0  0  0  0
  1  7  1  0  0  0  0
  1  2  2  0  0  0  0
 35 36  1  0  0  0  0
 36 44  1  0  0  0  0
 36 37  2  0  0  0  0
  8  9  1  0  0  0  0
  9 17  1  0  0  0  0
  9 10  2  0  0  0  0
 18 19  1  0  0  0  0
 19 34  1  0  0  0  0
 19 20  2  0  0  0  0
 35 38  1  0  0  0  0
  8 11  1  0  0  0  0
 44 45  1  0  0  0  0
 18 21  1  0  0  0  0
 34 35  1  0  0  0  0
  7  8  1  0  0  0  0
 17 18  1  0  0  0  0
 24 31  1  0  0  0  0
 25 32  1  0  0  0  0
  3  4  1  0  0  0  0
  3  5  1  0  0  0  0
  3  6  1  0  0  0  0
 38 41  1  0  0  0  0
 38 42  1  0  0  0  0
 38 43  1  0  0  0  0
 11 14  1  0  0  0  0
 11 15  1  0  0  0  0
 11 16  1  0  0  0  0
 45 47  1  0  0  0  0
 45 48  1  0  0  0  0
 45 49  1  0  0  0  0
 21 29  1  0  0  0  0
 21 30  1  0  0  0  0
 35 40  1  0  0  0  0
  8 13  1  0  0  0  0
 18 28  1  0  0  0  0
 26 33  1  0  0  0  0
 44 46  1  0  0  0  0
  7 12  1  0  0  0  0
 34 39  1  0  0  0  0
 17 27  1  0  0  0  0
M  END
$$$$

  -OEChem-05262214473D

 49 49  0     1  0  0  0  0  0999 V2000
   -1.6183    0.5613    3.8201 C   0  0  0  0  0  0  0  0  0  0  0  0
   -0.6710   -0.0534    3.3444 O   0  0  0  0  0  0  0  0  0  0  0  0
   -2.0502    0.2789    5.2208 C   0  0  0  0  0  0  0  0  0  0  0  0
   -2.8099   -0.5175    5.2742 H   0  0  0  0  0  0  0  0  0  0  0  0
   -1.2190   -0.0687    5.8551 H   0  0  0  0  0  0  0  0  0  0  0  0
   -2.4882    1.1338    5.7604 H   0  0  0  0  0  0  0  0  0  0  0  0
   -2.3680    1.5337    3.1790 N   0  0  0  0  0  0  0  0  0  0  0  0
   -2.1212    1.9597    1.8266 C   0  0  2  0  0  0  0  0  0  0  0  0
   -0.7862    1.3744    1.3854 C   0  0  0  0  0  0  0  0  0  0  0  0
    0.0859    1.0216    2.1767 O   0  0  0  0  0  0  0  0  0  0  0  0
   -2.1124    3.4765    1.7171 C   0  0  0  0  0  0  0  0  0  0  0  0
   -3.1331    1.9695    3.6908 H   0  0  0  0  0  0  0  0  0  0  0  0
   -2.9253    1.5413    1.2115 H   0  0  0  0  0  0  0  0  0  0  0  0
   -1.3133    3.9138    2.3268 H   0  0  0  0  0  0  0  0  0  0  0  0
   -1.9529    3.7988    0.6829 H   0  0  0  0  0  0  0  0  0  0  0  0
   -3.0626    3.8977    2.0629 H   0  0  0  0  0  0  0  0  0  0  0  0
   -0.6635    1.3313    0.0020 N   0  0  0  0  0  0  0  0  0  0  0  0
    0.5138    0.8305   -0.6617 C   0  0  2  0  0  0  0  0  0  0  0  0
    0.1686   -0.5484   -1.2128 C   0  0  0  0  0  0  0  0  0  0  0  0
   -0.4997   -0.7139   -2.2311 O   0  0  0  0  0  0  0  0  0  0  0  0
    1.7173    0.7406    0.2837 C   0  0  0  0  0  0  0  0  0  0  0  0
    2.1585    2.0896    0.7966 C   0  0  0  0  0  0  0  0  0  0  0  0
    2.8466    2.9551   -0.0164 N   0  0  0  0  0  0  0  0  0  0  0  0
    1.9659    2.6295    2.0464 C   0  0  0  0  0  0  0  0  0  0  0  0
    3.0699    4.0120    0.7325 C   0  0  0  0  0  0  0  0  0  0  0  0
    2.5556    3.8609    1.9903 N   0  0  0  0  0  0  0  0  0  0  0  0
   -1.4467    1.6280   -0.5753 H   0  0  0  0  0  0  0  0  0  0  0  0
    0.7146    1.5110   -1.4974 H   0  0  0  0  0  0  0  0  0  0  0  0
    2.5584    0.2428   -0.2176 H   0  0  0  0  0  0  0  0  0  0  0  0
    1.4800    0.1052    1.1472 H   0  0  0  0  0  0  0  0  0  0  0  0
    1.4815    2.2656    2.9411 H   0  0  0  0  0  0  0  0  0  0  0  0
    3.5912    4.9090    0.4290 H   0  0  0  0  0  0  0  0  0  0  0  0
    2.6023    4.5370    2.7408 H   0  0  0  0  0  0  0  0  0  0  0  0
    0.7378   -1.5662   -0.4600 N   0  0  0  0  0  0  0  0  0  0  0  0
    0.5867   -2.9680   -0.7779 C   0  0  2  0  0  0  0  0  0  0  0  0
   -0.8958   -3.2452   -0.9893 C   0  0  0  0  0  0  0  0  0  0  0  0
   -1.7842   -2.5352   -0.5226 O   0  0  0  0  0  0  0  0  0  0  0  0
    1.1527   -3.8495    0.3245 C   0  0  0  0  0  0  0  0  0  0  0  0
    1.2881   -1.3131    0.3553 H   0  0  0  0  0  0  0  0  0  0  0  0
    1.1282   -3.1400   -1.7145 H   0  0  0  0  0  0  0  0  0  0  0  0
    0.6226   -3.6910    1.2708 H   0  0  0  0  0  0  0  0  0  0  0  0
    1.0633   -4.9105    0.0693 H   0  0  0  0  0  0  0  0  0  0  0  0
    2.2117   -3.6279    0.4956 H   0  0  0  0  0  0  0  0  0  0  0  0
   -1.1107   -4.4027   -1.7243 N   0  0  0  0  0  0  0  0  0  0  0  0
   -2.4325   -4.8867   -2.0477 C   0  0  0  0  0  0  0  0  0  0  0  0
   -0.3149   -4.9189   -2.0876 H   0  0  0  0  0  0  0  0  0  0  0  0
   -2.7614   -5.5992   -1.2769 H   0  0  0  0  0  0  0  0  0  0  0  0
   -3.1335   -4.0399   -2.0872 H   0  0  0  0  0  0  0  0  0  0  0  0
   -2.4095   -5.3896   -3.0258 H   0  0  0  0  0  0  0  0  0  0  0  0
 22 24  2  0  0  0  0
 24 26  1  0  0  0  0
 23 25  2  0  0  0  0
 25 26  1  0  0  0  0
 21 22  1  0  0  0  0
 22 23  1  0  0  0  0
  1  3  1  0  0  0  0
  1  7  1  0  0  0  0
  1  2  2  0  0  0  0
 35 36  1  0  0  0  0
 36 44  1  0  0  0  0
 36 37  2  0  0  0  0
  8  9  1  0  0  0  0
  9 17  1  0  0  0  0
  9 10  2  0  0  0  0
 18 19  1  0  0  0  0
 19 34  1  0  0  0  0
 19 20  2  0  0  0  0
 35 38  1  0  0  0  0
  8 11  1  0  0  0  0
 44 45  1  0  0  0  0
 18 21  1  0  0  0  0
 34 35  1  0  0  0  0
  7  8  1  0  0  0  0
 17 18  1  0  0  0  0
 24 31  1  0  0  0  0
 25 32  1  0  0  0  0
  3  4  1  0  0  0  0
  3  5  1  0  0  0  0
  3  6  1  0  0  0  0
 38 41  1  0  0  0  0
 38 42  1  0  0  0  0
 38 43  1  0  0  0  0
 11 14  1  0  0  0  0
 11 15  1  0  0  0  0
 11 16  1  0  0  0  0
 45 47  1  0  0  0  0
 45 48  1  0  0  0  0
 45 49  1  0  0  0  0
 21 29  1  0  0  0  0
 21 30  1  0  0  0  0
 35 40  1  0  0  0  0
  8 13  1  0  0  0  0
 18 28  1  0  0  0  0
 26 33  1  0  0  0  0
 44 46  1  0  0  0  0
  7 12  1  0  0  0  0
 34 39  1  0  0  0  0
 17 27  1  0  0  0  0
M  END
$$$$

  -OEChem-05262214473D

 49 49  0     1  0  0  0  0  0999 V2000
   -1.6183    0.5613    3.8201 C   0  0  0  0  0  0  0  0  0  0  0  0
   -0.6710   -0.0534    3.3444 O   0  0  0  0  0  0  0  0  0  0  0  0
   -2.0502    0.2789    5.2208 C   0  0  0  0  0  0  0  0  0  0  0  0
   -2.8099   -0.5175    5.2742 H   0  0  0  0  0  0  0  0  0  0  0  0
   -1.2190   -0.0687    5.8551 H   0  0  0  0  0  0  0  0  0  0  0  0
   -2.4882    1.1338    5.7604 H   0  0  0  0  0  0  0  0  0  0  0  0
   -2.3680    1.5337    3.1790 N   0  0  0  0  0  0  0  0  0  0  0  0
   -2.1212    1.9597    1.8266 C   0  0  2  0  0  0  0  0  0  0  0  0
   -0.7862    1.3744    1.3854 C   0  0  0  0  0  0  0  0  0  0  0  0
    0.0859    1.0216    2.1767 O   0  0  0  0  0  0  0  0  0  0  0  0
   -2.1124    3.4765    1.7171 C   0  0  0  0  0  0  0  0  0  0  0  0
   -3.1331    1.9695    3.6908 H   0  0  0  0  0  0  0  0  0  0  0  0
   -2.9253    1.5413    1.2115 H   0  0  0  0  0  0  0  0  0  0  0  0
   -1.3133    3.9138    2.3268 H   0  0  0  0  0  0  0  0  0  0  0  0
   -1.9529    3.7988    0.6829 H   0  0  0  0  0  0  0  0  0  0  0  0
   -3.0626    3.8977    2.0629 H   0  0  0  0  0  0  0  0  0  0  0  0
   -0.6635    1.3313    0.0020 N   0  0  0  0  0  0  0  0  0  0  0  0
    0.5138    0.8305   -0.6617 C   0  0  2  0  0  0  0  0  0  0  0  0
    0.1686   -0.5484   -1.2128 C   0  0  0  0  0  0  0  0  0  0  0  0
   -0.2592   -0.7260   -2.3514 O   0  0  0  0  0  0  0  0  0  0  0  0
    1.7173    0.7406    0.2837 C   0  0  0  0  0  0  0  0  0  0  0  0
    2.1585    2.0896    0.7966 C   0  0  0  0  0  0  0  0  0  0  0  0
    2.8466    2.9551   -0.0164 N   0  0  0  0  0  0  0  0  0  0  0  0
    1.9659    2.6295    2.0464 C   0  0  0  0  0  0  0  0  0  0  0  0
    3.0699    4.0120    0.7325 C   0  0  0  0  0  0  0  0  0  0  0  0
    2.5556    3.8609    1.9903 N   0  0  0  0  0  0  0  0  0  0  0  0
   -1.4467    1.6280   -0.5753 H   0  0  0  0  0  0  0  0  0  0  0  0
    0.7146    1.5110   -1.4974 H   0  0  0  0  0  0  0  0  0  0  0  0
    2.5584    0.2428   -0.2176 H   0  0  0  0  0  0  0  0  0  0  0  0
    1.4800    0.1052    1.1472 H   0  0  0  0  0  0  0  0  0  0  0  0
    1.4815    2.2656    2.9411 H   0  0  0  0  0  0  0  0  0  0  0  0
    3.5912    4.9090    0.4290 H   0  0  0  0  0  0  0  0  0  0  0  0
    2.6023    4.5370    2.7408 H   0  0  0  0  0  0  0  0  0  0  0  0
    0.4429   -1.5567   -0.2992 N   0  0  0  0  0  0  0  0  0  0  0  0
    0.2293   -2.9588   -0.5770 C   0  0  2  0  0  0  0  0  0  0  0  0
   -1.1843   -3.1207   -1.1202 C   0  0  0  0  0  0  0  0  0  0  0  0
   -2.0805   -2.3057   -0.9113 O   0  0  0  0  0  0  0  0  0  0  0  0
    0.4334   -3.8070    0.6687 C   0  0  0  0  0  0  0  0  0  0  0  0
    0.8123   -1.2960    0.6103 H   0  0  0  0  0  0  0  0  0  0  0  0
    0.9527   -3.2420   -1.3494 H   0  0  0  0  0  0  0  0  0  0  0  0
   -0.2825   -3.5376    1.4539 H   0  0  0  0  0  0  0  0  0  0  0  0
    0.2992   -4.8716    0.4502 H   0  0  0  0  0  0  0  0  0  0  0  0
    1.4408   -3.6666    1.0751 H   0  0  0  0  0  0  0  0  0  0  0  0
   -1.3386   -4.3037   -1.8293 N   0  0  0  0  0  0  0  0  0  0  0  0
   -2.5915   -4.6928   -2.4333 C   0  0  0  0  0  0  0  0  0  0  0  0
   -0.5364   -4.9109   -1.9688 H   0  0  0  0  0  0  0  0  0  0  0  0
   -3.1597   -5.3186   -1.7294 H   0  0  0  0  0  0  0  0  0  0  0  0
   -3.1755   -3.7933   -2.6778 H   0  0  0  0  0  0  0  0  0  0  0  0
   -2.3936   -5.2627   -3.3531 H   0  0  0  0  0  0  0  0  0  0  0  0
 22 24  2  0  0  0  0
 24 26  1  0  0  0  0
 23 25  2  0  0  0  0
 25 26  1  0  0  0  0
 21 22  1  0  0  0  0
 22 23  1  0  0  0  0
  1  3  1  0  0  0  0
  1  7  1  0  0  0  0
  1  2  2  0  0  0  0
 35 36  1  0  0  0  0
 36 44  1  0  0  0  0
 36 37  2  0  0  0  0
  8  9  1  0  0  0  0
  9 17  1  0  0  0  0
  9 10  2  0  0  0  0
 18 19  1  0  0  0  0
 19 34  1  0  0  0  0
 19 20  2  0  0  0  0
 35 38  1  0  0  0  0
  8 11  1  0  0  0  0
 44 45  1  0  0  0  0
 18 21  1  0  0  0  0
 34 35  1  0  0  0  0
  7  8  1  0  0  0  0
 17 18  1  0  0  0  0
 24 31  1  0  0  0  0
 25 32  1  0  0  0  0
  3  4  1  0  0  0  0
  3  5  1  0  0  0  0
  3  6  1  0  0  0  0
 38 41  1  0  0  0  0
 38 42  1  0  0  0  0
 38 43  1  0  0  0  0
 11 14  1  0  0  0  0
 11 15  1  0  0  0  0
 11 16  1  0  0  0  0
 45 47  1  0  0  0  0
 45 48  1  0  0  0  0
 45 49  1  0  0  0  0
 21 29  1  0  0  0  0
 21 30  1  0  0  0  0
 35 40  1  0  0  0  0
  8 13  1  0  0  0  0
 18 28  1  0  0  0  0
 26 33  1  0  0  0  0
 44 46  1  0  0  0  0
  7 12  1  0  0  0  0
 34 39  1  0  0  0  0
 17 27  1  0  0  0  0
M  END
$$$$

  -OEChem-05262214473D

 49 49  0     1  0  0  0  0  0999 V2000
   -1.6183    0.5613    3.8201 C   0  0  0  0  0  0  0  0  0  0  0  0
   -0.6710   -0.0534    3.3444 O   0  0  0  0  0  0  0  0  0  0  0  0
   -2.0502    0.2789    5.2208 C   0  0  0  0  0  0  0  0  0  0  0  0
   -2.8099   -0.5175    5.2742 H   0  0  0  0  0  0  0  0  0  0  0  0
   -1.2190   -0.0687    5.8551 H   0  0  0  0  0  0  0  0  0  0  0  0
   -2.4882    1.1338    5.7604 H   0  0  0  0  0  0  0  0  0  0  0  0
   -2.3680    1.5337    3.1790 N   0  0  0  0  0  0  0  0  0  0  0  0
   -2.1212    1.9597    1.8266 C   0  0  2  0  0  0  0  0  0  0  0  0
   -0.7862    1.3744    1.3854 C   0  0  0  0  0  0  0  0  0  0  0  0
    0.0859    1.0216    2.1767 O   0  0  0  0  0  0  0  0  0  0  0  0
   -2.1124    3.4765    1.7171 C   0  0  0  0  0  0  0  0  0  0  0  0
   -3.1331    1.9695    3.6908 H   0  0  0  0  0  0  0  0  0  0  0  0
   -2.9253    1.5413    1.2115 H   0  0  0  0  0  0  0  0  0  0  0  0
   -1.3133    3.9138    2.3268 H   0  0  0  0  0  0  0  0  0  0  0  0
   -1.9529    3.7988    0.6829 H   0  0  0  0  0  0  0  0  0  0  0  0
   -3.0626    3.8977    2.0629 H   0  0  0  0  0  0  0  0  0  0  0  0
   -0.6635    1.3313    0.0020 N   0  0  0  0  0  0  0  0  0  0  0  0
    0.5138    0.8305   -0.6617 C   0  0  2  0  0  0  0  0  0  0  0  0
    0.1686   -0.5484   -1.2128 C   0  0  0  0  0  0  0  0  0  0  0  0
    0.0002   -0.7673   -2.4106 O   0  0  0  0  0  0  0  0  0  0  0  0
    1.7173    0.7406    0.2837 C   0  0  0  0  0  0  0  0  0  0  0  0
    2.1585    2.0896    0.7966 C   0  0  0  0  0  0  0  0  0  0  0  0
    2.8466    2.9551   -0.0164 N   0  0  0  0  0  0  0  0  0  0  0  0
    1.9659    2.6295    2.0464 C   0  0  0  0  0  0  0  0  0  0  0  0
    3.0699    4.0120    0.7325 C   0  0  0  0  0  0  0  0  0  0  0  0
    2.5556    3.8609    1.9903 N   0  0  0  0  0  0  0  0  0  0  0  0
   -1.4467    1.6280   -0.5753 H   0  0  0  0  0  0  0  0  0  0  0  0
    0.7146    1.5110   -1.4974 H   0  0  0  0  0  0  0  0  0  0  0  0
    2.5584    0.2428   -0.2176 H   0  0  0  0  0  0  0  0  0  0  0  0
    1.4800    0.1052    1.1472 H   0  0  0  0  0  0  0  0  0  0  0  0
    1.4815    2.2656    2.9411 H   0  0  0  0  0  0  0  0  0  0  0  0
    3.5912    4.9090    0.4290 H   0  0  0  0  0  0  0  0  0  0  0  0
    2.6023    4.5370    2.7408 H   0  0  0  0  0  0  0  0  0  0  0  0
    0.1214   -1.5105   -0.2135 N   0  0  0  0  0  0  0  0  0  0  0  0
   -0.1621   -2.9048   -0.4670 C   0  0  2  0  0  0  0  0  0  0  0  0
   -1.4206   -2.9811   -1.3213 C   0  0  0  0  0  0  0  0  0  0  0  0
   -2.2542   -2.0790   -1.3697 O   0  0  0  0  0  0  0  0  0  0  0  0
   -0.3380   -3.6785    0.8303 C   0  0  0  0  0  0  0  0  0  0  0  0
    0.2947   -1.2200    0.7443 H   0  0  0  0  0  0  0  0  0  0  0  0
    0.6881   -3.3027   -1.0318 H   0  0  0  0  0  0  0  0  0  0  0  0
   -1.1852   -3.2941    1.4099 H   0  0  0  0  0  0  0  0  0  0  0  0
   -0.5243   -4.7401    0.6370 H   0  0  0  0  0  0  0  0  0  0  0  0
    0.5570   -3.5979    1.4566 H   0  0  0  0  0  0  0  0  0  0  0  0
   -1.5248   -4.1929   -1.9899 N   0  0  0  0  0  0  0  0  0  0  0  0
   -2.6367   -4.5132   -2.8543 C   0  0  0  0  0  0  0  0  0  0  0  0
   -0.7774   -4.8755   -1.9064 H   0  0  0  0  0  0  0  0  0  0  0  0
   -3.4123   -5.0369   -2.2762 H   0  0  0  0  0  0  0  0  0  0  0  0
   -3.0548   -3.5857   -3.2726 H   0  0  0  0  0  0  0  0  0  0  0  0
   -2.2897   -5.1609   -3.6729 H   0  0  0  0  0  0  0  0  0  0  0  0
 22 24  2  0  0  0  0
 24 26  1  0  0  0  0
 23 25  2  0  0  0  0
 25 26  1  0  0  0  0
 21 22  1  0  0  0  0
 22 23  1  0  0  0  0
  1  3  1  0  0  0  0
  1  7  1  0  0  0  0
  1  2  2  0  0  0  0
 35 36  1  0  0  0  0
 36 44  1  0  0  0  0
 36 37  2  0  0  0  0
  8  9  1  0  0  0  0
  9 17  1  0  0  0  0
  9 10  2  0  0  0  0
 18 19  1  0  0  0  0
 19 34  1  0  0  0  0
 19 20  2  0  0  0  0
 35 38  1  0  0  0  0
  8 11  1  0  0  0  0
 44 45  1  0  0  0  0
 18 21  1  0  0  0  0
 34 35  1  0  0  0  0
  7  8  1  0  0  0  0
 17 18  1  0  0  0  0
 24 31  1  0  0  0  0
 25 32  1  0  0  0  0
  3  4  1  0  0  0  0
  3  5  1  0  0  0  0
  3  6  1  0  0  0  0
 38 41  1  0  0  0  0
 38 42  1  0  0  0  0
 38 43  1  0  0  0  0
 11 14  1  0  0  0  0
 11 15  1  0  0  0  0
 11 16  1  0  0  0  0
 45 47  1  0  0  0  0
 45 48  1  0  0  0  0
 45 49  1  0  0  0  0
 21 29  1  0  0  0  0
 21 30  1  0  0  0  0
 35 40  1  0  0  0  0
  8 13  1  0  0  0  0
 18 28  1  0  0  0  0
 26 33  1  0  0  0  0
 44 46  1  0  0  0  0
  7 12  1  0  0  0  0
 34 39  1  0  0  0  0
 17 27  1  0  0  0  0
M  END
$$$$

  -OEChem-05262214473D

 49 49  0     1  0  0  0  0  0999 V2000
   -1.6183    0.5613    3.8201 C   0  0  0  0  0  0  0  0  0  0  0  0
   -0.6710   -0.0534    3.3444 O   0  0  0  0  0  0  0  0  0  0  0  0
   -2.0502    0.2789    5.2208 C   0  0  0  0  0  0  0  0  0  0  0  0
   -2.8099   -0.5175    5.2742 H   0  0  0  0  0  0  0  0  0  0  0  0
   -1.2190   -0.0687    5.8551 H   0  0  0  0  0  0  0  0  0  0  0  0
   -2.4882    1.1338    5.7604 H   0  0  0  0  0  0  0  0  0  0  0  0
   -2.3680    1.5337    3.1790 N   0  0  0  0  0  0  0  0  0  0  0  0
   -2.1212    1.9597    1.8266 C   0  0  2  0  0  0  0  0  0  0  0  0
   -0.7862    1.3744    1.3854 C   0  0  0  0  0  0  0  0  0  0  0  0
    0.0859    1.0216    2.1767 O   0  0  0  0  0  0  0  0  0  0  0  0
   -2.1124    3.4765    1.7171 C   0  0  0  0  0  0  0  0  0  0  0  0
   -3.1331    1.9695    3.6908 H   0  0  0  0  0  0  0  0  0  0  0  0
   -2.9253    1.5413    1.2115 H   0  0  0  0  0  0  0  0  0  0  0  0
   -1.3133    3.9138    2.3268 H   0  0  0  0  0  0  0  0  0  0  0  0
   -1.9529    3.7988    0.6829 H   0  0  0  0  0  0  0  0  0  0  0  0
   -3.0626    3.8977    2.0629 H   0  0  0  0  0  0  0  0  0  0  0  0
   -0.6635    1.3313    0.0020 N   0  0  0  0  0  0  0  0  0  0  0  0
    0.5138    0.8305   -0.6617 C   0  0  2  0  0  0  0  0  0  0  0  0
    0.1686   -0.5484   -1.2128 C   0  0  0  0  0  0  0  0  0  0  0  0
    0.2606   -0.8349   -2.4046 O   0  0  0  0  0  0  0  0  0  0  0  0
    1.7173    0.7406    0.2837 C   0  0  0  0  0  0  0  0  0  0  0  0
    2.1585    2.0896    0.7966 C   0  0  0  0  0  0  0  0  0  0  0  0
    2.8466    2.9551   -0.0164 N   0  0  0  0  0  0  0  0  0  0  0  0
    1.9659    2.6295    2.0464 C   0  0  0  0  0  0  0  0  0  0  0  0
    3.0699    4.0120    0.7325 C   0  0  0  0  0  0  0  0  0  0  0  0
    2.5556    3.8609    1.9903 N   0  0  0  0  0  0  0  0  0  0  0  0
   -1.4467    1.6280   -0.5753 H   0  0  0  0  0  0  0  0  0  0  0  0
    0.7146    1.5110   -1.4974 H   0  0  0  0  0  0  0  0  0  0  0  0
    2.5584    0.2428   -0.2176 H   0  0  0  0  0  0  0  0  0  0  0  0
    1.4800    0.1052    1.1472 H   0  0  0  0  0  0  0  0  0  0  0  0
    1.4815    2.2656    2.9411 H   0  0  0  0  0  0  0  0  0  0  0  0
    3.5912    4.9090    0.4290 H   0  0  0  0  0  0  0  0  0  0  0  0
    2.6023    4.5370    2.7408 H   0  0  0  0  0  0  0  0  0  0  0  0
   -0.2050   -1.4307   -0.2086 N   0  0  0  0  0  0  0  0  0  0  0  0
   -0.5608   -2.8096   -0.4557 C   0  0  2  0  0  0  0  0  0  0  0  0
   -1.5887   -2.8360   -1.5791 C   0  0  0  0  0  0  0  0  0  0  0  0
   -2.2935   -1.8707   -1.8663 O   0  0  0  0  0  0  0  0  0  0  0  0
   -1.1089   -3.4728    0.7983 C   0  0  0  0  0  0  0  0  0  0  0  0
   -0.2296   -1.0902    0.7480 H   0  0  0  0  0  0  0  0  0  0  0  0
    0.3525   -3.3180   -0.7834 H   0  0  0  0  0  0  0  0  0  0  0  0
   -2.0242   -2.9769    1.1417 H   0  0  0  0  0  0  0  0  0  0  0  0
   -1.3513   -4.5251    0.6170 H   0  0  0  0  0  0  0  0  0  0  0  0
   -0.3796   -3.4264    1.6142 H   0  0  0  0  0  0  0  0  0  0  0  0
   -1.6568   -4.0778   -2.1951 N   0  0  0  0  0  0  0  0  0  0  0  0
   -2.5649   -4.3602   -3.2821 C   0  0  0  0  0  0  0  0  0  0  0  0
   -1.0214   -4.8152   -1.9047 H   0  0  0  0  0  0  0  0  0  0  0  0
   -3.5018   -4.7731   -2.8800 H   0  0  0  0  0  0  0  0  0  0  0  0
   -2.7795   -3.4314   -3.8311 H   0  0  0  0  0  0  0  0  0  0  0  0
   -2.1049   -5.0910   -3.9635 H   0  0  0  0  0  0  0  0  0  0  0  0
 22 24  2  0  0  0  0
 24 26  1  0  0  0  0
 23 25  2  0  0  0  0
 25 26  1  0  0  0  0
 21 22  1  0  0  0  0
 22 23  1  0  0  0  0
  1  3  1  0  0  0  0
  1  7  1  0  0  0  0
  1  2  2  0  0  0  0
 35 36  1  0  0  0  0
 36 44  1  0  0  0  0
 36 37  2  0  0  0  0
  8  9  1  0  0  0  0
  9 17  1  0  0  0  0
  9 10  2  0  0  0  0
 18 19  1  0  0  0  0
 19 34  1  0  0  0  0
 19 20  2  0  0  0  0
 35 38  1  0  0  0  0
  8 11  1  0  0  0  0
 44 45  1  0  0  0  0
 18 21  1  0  0  0  0
 34 35  1  0  0  0  0
  7  8  1  0  0  0  0
 17 18  1  0  0  0  0
 24 31  1  0  0  0  0
 25 32  1  0  0  0  0
  3  4  1  0  0  0  0
  3  5  1  0  0  0  0
  3  6  1  0  0  0  0
 38 41  1  0  0  0  0
 38 42  1  0  0  0  0
 38 43  1  0  0  0  0
 11 14  1  0  0  0  0
 11 15  1  0  0  0  0
 11 16  1  0  0  0  0
 45 47  1  0  0  0  0
 45 48  1  0  0  0  0
 45 49  1  0  0  0  0
 21 29  1  0  0  0  0
 21 30  1  0  0  0  0
 35 40  1  0  0  0  0
  8 13  1  0  0  0  0
 18 28  1  0  0  0  0
 26 33  1  0  0  0  0
 44 46  1  0  0  0  0
  7 12  1  0  0  0  0
 34 39  1  0  0  0  0
 17 27  1  0  0  0  0
M  END
$$$$

  -OEChem-05262214473D

 49 49  0     1  0  0  0  0  0999 V2000
   -1.6183    0.5613    3.8201 C   0  0  0  0  0  0  0  0  0  0  0  0
   -0.6710   -0.0534    3.3444 O   0  0  0  0  0  0  0  0  0  0  0  0
   -2.0502    0.2789    5.2208 C   0  0  0  0  0  0  0  0  0  0  0  0
   -2.8099   -0.5175    5.2742 H   0  0  0  0  0  0  0  0  0  0  0  0
   -1.2190   -0.0687    5.8551 H   0  0  0  0  0  0  0  0  0  0  0  0
   -2.4882    1.1338    5.7604 H   0  0  0  0  0  0  0  0  0  0  0  0
   -2.3680    1.5337    3.1790 N   0  0  0  0  0  0  0  0  0  0  0  0
   -2.1212    1.9597    1.8266 C   0  0  2  0  0  0  0  0  0  0  0  0
   -0.7862    1.3744    1.3854 C   0  0  0  0  0  0  0  0  0  0  0  0
    0.0859    1.0216    2.1767 O   0  0  0  0  0  0  0  0  0  0  0  0
   -2.1124    3.4765    1.7171 C   0  0  0  0  0  0  0  0  0  0  0  0
   -3.1331    1.9695    3.6908 H   0  0  0  0  0  0  0  0  0  0  0  0
   -2.9253    1.5413    1.2115 H   0  0  0  0  0  0  0  0  0  0  0  0
   -1.3133    3.9138    2.3268 H   0  0  0  0  0  0  0  0  0  0  0  0
   -1.9529    3.7988    0.6829 H   0  0  0  0  0  0  0  0  0  0  0  0
   -3.0626    3.8977    2.0629 H   0  0  0  0  0  0  0  0  0  0  0  0
   -0.6635    1.3313    0.0020 N   0  0  0  0  0  0  0  0  0  0  0  0
    0.5138    0.8305   -0.6617 C   0  0  2  0  0  0  0  0  0  0  0  0
    0.1686   -0.5484   -1.2128 C   0  0  0  0  0  0  0  0  0  0  0  0
    0.5045   -0.9242   -2.3339 O   0  0  0  0  0  0  0  0  0  0  0  0
    1.7173    0.7406    0.2837 C   0  0  0  0  0  0  0  0  0  0  0  0
    2.1585    2.0896    0.7966 C   0  0  0  0  0  0  0  0  0  0  0  0
    2.8466    2.9551   -0.0164 N   0  0  0  0  0  0  0  0  0  0  0  0
    1.9659    2.6295    2.0464 C   0  0  0  0  0  0  0  0  0  0  0  0
    3.0699    4.0120    0.7325 C   0  0  0  0  0  0  0  0  0  0  0  0
    2.5556    3.8609    1.9903 N   0  0  0  0  0  0  0  0  0  0  0  0
   -1.4467    1.6280   -0.5753 H   0  0  0  0  0  0  0  0  0  0  0  0
    0.7146    1.5110   -1.4974 H   0  0  0  0  0  0  0  0  0  0  0  0
    2.5584    0.2428   -0.2176 H   0  0  0  0  0  0  0  0  0  0  0  0
    1.4800    0.1052    1.1472 H   0  0  0  0  0  0  0  0  0  0  0  0
    1.4815    2.2656    2.9411 H   0  0  0  0  0  0  0  0  0  0  0  0
    3.5912    4.9090    0.4290 H   0  0  0  0  0  0  0  0  0  0  0  0
    2.6023    4.5370    2.7408 H   0  0  0  0  0  0  0  0  0  0  0  0
   -0.5139   -1.3229   -0.2850 N   0  0  0  0  0  0  0  0  0  0  0  0
   -0.9397   -2.6796   -0.5436 C   0  0  2  0  0  0  0  0  0  0  0  0
   -1.6772   -2.6952   -1.8760 C   0  0  0  0  0  0  0  0  0  0  0  0
   -2.1957   -1.6948   -2.3675 O   0  0  0  0  0  0  0  0  0  0  0  0
   -1.8268   -3.2038    0.5749 C   0  0  0  0  0  0  0  0  0  0  0  0
   -0.7248   -0.9156    0.6213 H   0  0  0  0  0  0  0  0  0  0  0  0
   -0.0312   -3.2868   -0.6212 H   0  0  0  0  0  0  0  0  0  0  0  0
   -2.7421   -2.6078    0.6678 H   0  0  0  0  0  0  0  0  0  0  0  0
   -2.1252   -4.2412    0.3914 H   0  0  0  0  0  0  0  0  0  0  0  0
   -1.3052   -3.1640    1.5372 H   0  0  0  0  0  0  0  0  0  0  0  0
   -1.7254   -3.9664   -2.4309 N   0  0  0  0  0  0  0  0  0  0  0  0
   -2.3812   -4.2441   -3.6875 C   0  0  0  0  0  0  0  0  0  0  0  0
   -1.2519   -4.7339   -1.9636 H   0  0  0  0  0  0  0  0  0  0  0  0
   -3.4223   -4.5454   -3.4996 H   0  0  0  0  0  0  0  0  0  0  0  0
   -2.3685   -3.3408   -4.3151 H   0  0  0  0  0  0  0  0  0  0  0  0
   -1.8519   -5.0577   -4.2051 H   0  0  0  0  0  0  0  0  0  0  0  0
 22 24  2  0  0  0  0
 24 26  1  0  0  0  0
 23 25  2  0  0  0  0
 25 26  1  0  0  0  0
 21 22  1  0  0  0  0
 22 23  1  0  0  0  0
  1  3  1  0  0  0  0
  1  7  1  0  0  0  0
  1  2  2  0  0  0  0
 35 36  1  0  0  0  0
 36 44  1  0  0  0  0
 36 37  2  0  0  0  0
  8  9  1  0  0  0  0
  9 17  1  0  0  0  0
  9 10  2  0  0  0  0
 18 19  1  0  0  0  0
 19 34  1  0  0  0  0
 19 20  2  0  0  0  0
 35 38  1  0  0  0  0
  8 11  1  0  0  0  0
 44 45  1  0  0  0  0
 18 21  1  0  0  0  0
 34 35  1  0  0  0  0
  7  8  1  0  0  0  0
 17 18  1  0  0  0  0
 24 31  1  0  0  0  0
 25 32  1  0  0  0  0
  3  4  1  0  0  0  0
  3  5  1  0  0  0  0
  3  6  1  0  0  0  0
 38 41  1  0  0  0  0
 38 42  1  0  0  0  0
 38 43  1  0  0  0  0
 11 14  1  0  0  0  0
 11 15  1  0  0  0  0
 11 16  1  0  0  0  0
 45 47  1  0  0  0  0
 45 48  1  0  0  0  0
 45 49  1  0  0  0  0
 21 29  1  0  0  0  0
 21 30  1  0  0  0  0
 35 40  1  0  0  0  0
  8 13  1  0  0  0  0
 18 28  1  0  0  0  0
 26 33  1  0  0  0  0
 44 46  1  0  0  0  0
  7 12  1  0  0  0  0
 34 39  1  0  0  0  0
 17 27  1  0  0  0  0
M  END
$$$$

  -OEChem-05262214473D

 49 49  0     1  0  0  0  0  0999 V2000
   -1.6183    0.5613    3.8201 C   0  0  0  0  0  0  0  0  0  0  0  0
   -0.6710   -0.0534    3.3444 O   0  0  0  0  0  0  0  0  0  0  0  0
   -2.0502    0.2789    5.2208 C   0  0  0  0  0  0  0  0  0  0  0  0
   -2.8099   -0.5175    5.2742 H   0  0  0  0  0  0  0  0  0  0  0  0
   -1.2190   -0.0687    5.8551 H   0  0  0  0  0  0  0  0  0  0  0  0
   -2.4882    1.1338    5.7604 H   0  0  0  0  0  0  0  0  0  0  0  0
   -2.3680    1.5337    3.1790 N   0  0  0  0  0  0  0  0  0  0  0  0
   -2.1212    1.9597    1.8266 C   0  0  2  0  0  0  0  0  0  0  0  0
   -0.7862    1.3744    1.3854 C   0  0  0  0  0  0  0  0  0  0  0  0
    0.0859    1.0216    2.1767 O   0  0  0  0  0  0  0  0  0  0  0  0
   -2.1124    3.4765    1.7171 C   0  0  0  0  0  0  0  0  0  0  0  0
   -3.1331    1.9695    3.6908 H   0  0  0  0  0  0  0  0  0  0  0  0
   -2.9253    1.5413    1.2115 H   0  0  0  0  0  0  0  0  0  0  0  0
   -1.3133    3.9138    2.3268 H   0  0  0  0  0  0  0  0  0  0  0  0
   -1.9529    3.7988    0.6829 H   0  0  0  0  0  0  0  0  0  0  0  0
   -3.0626    3.8977    2.0629 H   0  0  0  0  0  0  0  0  0  0  0  0
   -0.6635    1.3313    0.0020 N   0  0  0  0  0  0  0  0  0  0  0  0
    0.5138    0.8305   -0.6617 C   0  0  2  0  0  0  0  0  0  0  0  0
    0.1686   -0.5484   -1.2128 C   0  0  0  0  0  0  0  0  0  0  0  0
    0.7152   -1.0291   -2.2033 O   0  0  0  0  0  0  0  0  0  0  0  0
    1.7173    0.7406    0.2837 C   0  0  0  0  0  0  0  0  0  0  0  0
    2.1585    2.0896    0.7966 C   0  0  0  0  0  0  0  0  0  0  0  0
    2.8466    2.9551   -0.0164 N   0  0  0  0  0  0  0  0  0  0  0  0
    1.9659    2.6295    2.0464 C   0  0  0  0  0  0  0  0  0  0  0  0
    3.0699    4.0120    0.7325 C   0  0  0  0  0  0  0  0  0  0  0  0
    2.5556    3.8609    1.9903 N   0  0  0  0  0  0  0  0  0  0  0  0
   -1.4467    1.6280   -0.5753 H   0  0  0  0  0  0  0  0  0  0  0  0
    0.7146    1.5110   -1.4974 H   0  0  0  0  0  0  0  0  0  0  0  0
    2.5584    0.2428   -0.2176 H   0  0  0  0  0  0  0  0  0  0  0  0
    1.4800    0.1052    1.1472 H   0  0  0  0  0  0  0  0  0  0  0  0
    1.4815    2.2656    2.9411 H   0  0  0  0  0  0  0  0  0  0  0  0
    3.5912    4.9090    0.4290 H   0  0  0  0  0  0  0  0  0  0  0  0
    2.6023    4.5370    2.7408 H   0  0  0  0  0  0  0  0  0  0  0  0
   -0.7843   -1.1943   -0.4374 N   0  0  0  0  0  0  0  0  0  0  0  0
   -1.2729   -2.5237   -0.7248 C   0  0  2  0  0  0  0  0  0  0  0  0
   -1.6799   -2.5683   -2.1917 C   0  0  0  0  0  0  0  0  0  0  0  0
   -1.9674   -1.5635   -2.8389 O   0  0  0  0  0  0  0  0  0  0  0  0
   -2.4428   -2.8899    0.1752 C   0  0  0  0  0  0  0  0  0  0  0  0
   -1.1571   -0.7081    0.3728 H   0  0  0  0  0  0  0  0  0  0  0  0
   -0.4370   -3.2113   -0.5561 H   0  0  0  0  0  0  0  0  0  0  0  0
   -3.2900   -2.2119    0.0203 H   0  0  0  0  0  0  0  0  0  0  0  0
   -2.7934   -3.9079   -0.0242 H   0  0  0  0  0  0  0  0  0  0  0  0
   -2.1566   -2.8284    1.2307 H   0  0  0  0  0  0  0  0  0  0  0  0
   -1.7261   -3.8661   -2.6813 N   0  0  0  0  0  0  0  0  0  0  0  0
   -2.0979   -4.1730   -4.0428 C   0  0  0  0  0  0  0  0  0  0  0  0
   -1.4532   -4.6373   -2.0793 H   0  0  0  0  0  0  0  0  0  0  0  0
   -3.1792   -4.3691   -4.0928 H   0  0  0  0  0  0  0  0  0  0  0  0
   -1.8497   -3.3202   -4.6917 H   0  0  0  0  0  0  0  0  0  0  0  0
   -1.5479   -5.0635   -4.3811 H   0  0  0  0  0  0  0  0  0  0  0  0
 22 24  2  0  0  0  0
 24 26  1  0  0  0  0
 23 25  2  0  0  0  0
 25 26  1  0  0  0  0
 21 22  1  0  0  0  0
 22 23  1  0  0  0  0
  1  3  1  0  0  0  0
  1  7  1  0  0  0  0
  1  2  2  0  0  0  0
 35 36  1  0  0  0  0
 36 44  1  0  0  0  0
 36 37  2  0  0  0  0
  8  9  1  0  0  0  0
  9 17  1  0  0  0  0
  9 10  2  0  0  0  0
 18 19  1  0  0  0  0
 19 34  1  0  0  0  0
 19 20  2  0  0  0  0
 35 38  1  0  0  0  0
  8 11  1  0  0  0  0
 44 45  1  0  0  0  0
 18 21  1  0  0  0  0
 34 35  1  0  0  0  0
  7  8  1  0  0  0  0
 17 18  1  0  0  0  0
 24 31  1  0  0  0  0
 25 32  1  0  0  0  0
  3  4  1  0  0  0  0
  3  5  1  0  0  0  0
  3  6  1  0  0  0  0
 38 41  1  0  0  0  0
 38 42  1  0  0  0  0
 38 43  1  0  0  0  0
 11 14  1  0  0  0  0
 11 15  1  0  0  0  0
 11 16  1  0  0  0  0
 45 47  1  0  0  0  0
 45 48  1  0  0  0  0
 45 49  1  0  0  0  0
 21 29  1  0  0  0  0
 21 30  1  0  0  0  0
 35 40  1  0  0  0  0
  8 13  1  0  0  0  0
 18 28  1  0  0  0  0
 26 33  1  0  0  0  0
 44 46  1  0  0  0  0
  7 12  1  0  0  0  0
 34 39  1  0  0  0  0
 17 27  1  0  0  0  0
M  END
$$$$

  -OEChem-05262214473D

 49 49  0     1  0  0  0  0  0999 V2000
   -1.6183    0.5613    3.8201 C   0  0  0  0  0  0  0  0  0  0  0  0
   -0.6710   -0.0534    3.3444 O   0  0  0  0  0  0  0  0  0  0  0  0
   -2.0502    0.2789    5.2208 C   0  0  0  0  0  0  0  0  0  0  0  0
   -2.8099   -0.5175    5.2742 H   0  0  0  0  0  0  0  0  0  0  0  0
   -1.2190   -0.0687    5.8551 H   0  0  0  0  0  0  0  0  0  0  0  0
   -2.4882    1.1338    5.7604 H   0  0  0  0  0  0  0  0  0  0  0  0
   -2.3680    1.5337    3.1790 N   0  0  0  0  0  0  0  0  0  0  0  0
   -2.1212    1.9597    1.8266 C   0  0  2  0  0  0  0  0  0  0  0  0
   -0.7862    1.3744    1.3854 C   0  0  0  0  0  0  0  0  0  0  0  0
    0.0859    1.0216    2.1767 O   0  0  0  0  0  0  0  0  0  0  0  0
   -2.1124    3.4765    1.7171 C   0  0  0  0  0  0  0  0  0  0  0  0
   -3.1331    1.9695    3.6908 H   0  0  0  0  0  0  0  0  0  0  0  0
   -2.9253    1.5413    1.2115 H   0  0  0  0  0  0  0  0  0  0  0  0
   -1.3133    3.9138    2.3268 H   0  0  0  0  0  0  0  0  0  0  0  0
   -1.9529    3.7988    0.6829 H   0  0  0  0  0  0  0  0  0  0  0  0
   -3.0626    3.8977    2.0629 H   0  0  0  0  0  0  0  0  0  0  0  0
   -0.6635    1.3313    0.0020 N   0  0  0  0  0  0  0  0  0  0  0  0
    0.5138    0.8305   -0.6617 C   0  0  2  0  0  0  0  0  0  0  0  0
    0.1686   -0.5484   -1.2128 C   0  0  0  0  0  0  0  0  0  0  0  0
    0.8783   -1.1425   -2.0217 O   0  0  0  0  0  0  0  0  0  0  0  0
    1.7173    0.7406    0.2837 C   0  0  0  0  0  0  0  0  0  0  0  0
    2.1585    2.0896    0.7966 C   0  0  0  0  0  0  0  0  0  0  0  0
    2.8466    2.9551   -0.0164 N   0  0  0  0  0  0  0  0  0  0  0  0
    1.9659    2.6295    2.0464 C   0  0  0  0  0  0  0  0  0  0  0  0
    3.0699    4.0120    0.7325 C   0  0  0  0  0  0  0  0  0  0  0  0
    2.5556    3.8609    1.9903 N   0  0  0  0  0  0  0  0  0  0  0  0
   -1.4467    1.6280   -0.5753 H   0  0  0  0  0  0  0  0  0  0  0  0
    0.7146    1.5110   -1.4974 H   0  0  0  0  0  0  0  0  0  0  0  0
    2.5584    0.2428   -0.2176 H   0  0  0  0  0  0  0  0  0  0  0  0
    1.4800    0.1052    1.1472 H   0  0  0  0  0  0  0  0  0  0  0  0
    1.4815    2.2656    2.9411 H   0  0  0  0  0  0  0  0  0  0  0  0
    3.5912    4.9090    0.4290 H   0  0  0  0  0  0  0  0  0  0  0  0
    2.6023    4.5370    2.7408 H   0  0  0  0  0  0  0  0  0  0  0  0
   -0.9978   -1.0537   -0.6555 N   0  0  0  0  0  0  0  0  0  0  0  0
   -1.5378   -2.3526   -0.9870 C   0  0  2  0  0  0  0  0  0  0  0  0
   -1.5968   -2.4640   -2.5048 C   0  0  0  0  0  0  0  0  0  0  0  0
   -1.6243   -1.4856   -3.2486 O   0  0  0  0  0  0  0  0  0  0  0  0
   -2.9148   -2.5524   -0.3734 C   0  0  0  0  0  0  0  0  0  0  0  0
   -1.4970   -0.4818    0.0194 H   0  0  0  0  0  0  0  0  0  0  0  0
   -0.8370   -3.0965   -0.5927 H   0  0  0  0  0  0  0  0  0  0  0  0
   -3.6307   -1.8161   -0.7566 H   0  0  0  0  0  0  0  0  0  0  0  0
   -3.3104   -3.5477   -0.6017 H   0  0  0  0  0  0  0  0  0  0  0  0
   -2.8759   -2.4425    0.7157 H   0  0  0  0  0  0  0  0  0  0  0  0
   -1.6588   -3.7839   -2.9292 N   0  0  0  0  0  0  0  0  0  0  0  0
   -1.7345   -4.1516   -4.3239 C   0  0  0  0  0  0  0  0  0  0  0  0
   -1.6114   -4.5319   -2.2437 H   0  0  0  0  0  0  0  0  0  0  0  0
   -2.7889   -4.2564   -4.6193 H   0  0  0  0  0  0  0  0  0  0  0  0
   -1.2584   -3.3708   -4.9352 H   0  0  0  0  0  0  0  0  0  0  0  0
   -1.2135   -5.1078   -4.4796 H   0  0  0  0  0  0  0  0  0  0  0  0
 22 24  2  0  0  0  0
 24 26  1  0  0  0  0
 23 25  2  0  0  0  0
 25 26  1  0  0  0  0
 21 22  1  0  0  0  0
 22 23  1  0  0  0  0
  1  3  1  0  0  0  0
  1  7  1  0  0  0  0
  1  2  2  0  0  0  0
 35 36  1  0  0  0  0
 36 44  1  0  0  0  0
 36 37  2  0  0  0  0
  8  9  1  0  0  0  0
  9 17  1  0  0  0  0
  9 10  2  0  0  0  0
 18 19  1  0  0  0  0
 19 34  1  0  0  0  0
 19 20  2  0  0  0  0
 35 38  1  0  0  0  0
  8 11  1  0  0  0  0
 44 45  1  0  0  0  0
 18 21  1  0  0  0  0
 34 35  1  0  0  0  0
  7  8  1  0  0  0  0
 17 18  1  0  0  0  0
 24 31  1  0  0  0  0
 25 32  1  0  0  0  0
  3  4  1  0  0  0  0
  3  5  1  0  0  0  0
  3  6  1  0  0  0  0
 38 41  1  0  0  0  0
 38 42  1  0  0  0  0
 38 43  1  0  0  0  0
 11 14  1  0  0  0  0
 11 15  1  0  0  0  0
 11 16  1  0  0  0  0
 45 47  1  0  0  0  0
 45 48  1  0  0  0  0
 45 49  1  0  0  0  0
 21 29  1  0  0  0  0
 21 30  1  0  0  0  0
 35 40  1  0  0  0  0
  8 13  1  0  0  0  0
 18 28  1  0  0  0  0
 26 33  1  0  0  0  0
 44 46  1  0  0  0  0
  7 12  1  0  0  0  0
 34 39  1  0  0  0  0
 17 27  1  0  0  0  0
M  END
$$$$

  -OEChem-05262214473D

 49 49  0     1  0  0  0  0  0999 V2000
   -1.6183    0.5613    3.8201 C   0  0  0  0  0  0  0  0  0  0  0  0
   -0.6710   -0.0534    3.3444 O   0  0  0  0  0  0  0  0  0  0  0  0
   -2.0502    0.2789    5.2208 C   0  0  0  0  0  0  0  0  0  0  0  0
   -2.8099   -0.5175    5.2742 H   0  0  0  0  0  0  0  0  0  0  0  0
   -1.2190   -0.0687    5.8551 H   0  0  0  0  0  0  0  0  0  0  0  0
   -2.4882    1.1338    5.7604 H   0  0  0  0  0  0  0  0  0  0  0  0
   -2.3680    1.5337    3.1790 N   0  0  0  0  0  0  0  0  0  0  0  0
   -2.1212    1.9597    1.8266 C   0  0  2  0  0  0  0  0  0  0  0  0
   -0.7862    1.3744    1.3854 C   0  0  0  0  0  0  0  0  0  0  0  0
    0.0859    1.0216    2.1767 O   0  0  0  0  0  0  0  0  0  0  0  0
   -2.1124    3.4765    1.7171 C   0  0  0  0  0  0  0  0  0  0  0  0
   -3.1331    1.9695    3.6908 H   0  0  0  0  0  0  0  0  0  0  0  0
   -2.9253    1.5413    1.2115 H   0  0  0  0  0  0  0  0  0  0  0  0
   -1.3133    3.9138    2.3268 H   0  0  0  0  0  0  0  0  0  0  0  0
   -1.9529    3.7988    0.6829 H   0  0  0  0  0  0  0  0  0  0  0  0
   -3.0626    3.8977    2.0629 H   0  0  0  0  0  0  0  0  0  0  0  0
   -0.6635    1.3313    0.0020 N   0  0  0  0  0  0  0  0  0  0  0  0
    0.5138    0.8305   -0.6617 C   0  0  2  0  0  0  0  0  0  0  0  0
    0.1686   -0.5484   -1.2128 C   0  0  0  0  0  0  0  0  0  0  0  0
    0.9827   -1.2567   -1.8014 O   0  0  0  0  0  0  0  0  0  0  0  0
    1.7173    0.7406    0.2837 C   0  0  0  0  0  0  0  0  0  0  0  0
    2.1585    2.0896    0.7966 C   0  0  0  0  0  0  0  0  0  0  0  0
    2.8466    2.9551   -0.0164 N   0  0  0  0  0  0  0  0  0  0  0  0
    1.9659    2.6295    2.0464 C   0  0  0  0  0  0  0  0  0  0  0  0
    3.0699    4.0120    0.7325 C   0  0  0  0  0  0  0  0  0  0  0  0
    2.5556    3.8609    1.9903 N   0  0  0  0  0  0  0  0  0  0  0  0
   -1.4467    1.6280   -0.5753 H   0  0  0  0  0  0  0  0  0  0  0  0
    0.7146    1.5110   -1.4974 H   0  0  0  0  0  0  0  0  0  0  0  0
    2.5584    0.2428   -0.2176 H   0  0  0  0  0  0  0  0  0  0  0  0
    1.4800    0.1052    1.1472 H   0  0  0  0  0  0  0  0  0  0  0  0
    1.4815    2.2656    2.9411 H   0  0  0  0  0  0  0  0  0  0  0  0
    3.5912    4.9090    0.4290 H   0  0  0  0  0  0  0  0  0  0  0  0
    2.6023    4.5370    2.7408 H   0  0  0  0  0  0  0  0  0  0  0  0
   -1.1398   -0.9107   -0.9243 N   0  0  0  0  0  0  0  0  0  0  0  0
   -1.7163   -2.1779   -1.3123 C   0  0  2  0  0  0  0  0  0  0  0  0
   -1.4335   -2.3893   -2.7938 C   0  0  0  0  0  0  0  0  0  0  0  0
   -1.1897   -1.4665   -3.5685 O   0  0  0  0  0  0  0  0  0  0  0  0
   -3.2108   -2.2145   -1.0336 C   0  0  0  0  0  0  0  0  0  0  0  0
   -1.7215   -0.2520   -0.4149 H   0  0  0  0  0  0  0  0  0  0  0  0
   -1.2041   -2.9504   -0.7284 H   0  0  0  0  0  0  0  0  0  0  0  0
   -3.7409   -1.4474   -1.6099 H   0  0  0  0  0  0  0  0  0  0  0  0
   -3.6408   -3.1852   -1.3016 H   0  0  0  0  0  0  0  0  0  0  0  0
   -3.4140   -2.0327    0.0273 H   0  0  0  0  0  0  0  0  0  0  0  0
   -1.5280   -3.7253   -3.1578 N   0  0  0  0  0  0  0  0  0  0  0  0
   -1.3157   -4.1814   -4.5116 C   0  0  0  0  0  0  0  0  0  0  0  0
   -1.7159   -4.4250   -2.4459 H   0  0  0  0  0  0  0  0  0  0  0  0
   -2.2782   -4.2148   -5.0430 H   0  0  0  0  0  0  0  0  0  0  0  0
   -0.6351   -3.4893   -5.0291 H   0  0  0  0  0  0  0  0  0  0  0  0
   -0.8716   -5.1877   -4.4939 H   0  0  0  0  0  0  0  0  0  0  0  0
 22 24  2  0  0  0  0
 24 26  1  0  0  0  0
 23 25  2  0  0  0  0
 25 26  1  0  0  0  0
 21 22  1  0  0  0  0
 22 23  1  0  0  0  0
  1  3  1  0  0  0  0
  1  7  1  0  0  0  0
  1  2  2  0  0  0  0
 35 36  1  0  0  0  0
 36 44  1  0  0  0  0
 36 37  2  0  0  0  0
  8  9  1  0  0  0  0
  9 17  1  0  0  0  0
  9 10  2  0  0  0  0
 18 19  1  0  0  0  0
 19 34  1  0  0  0  0
 19 20  2  0  0  0  0
 35 38  1  0  0  0  0
  8 11  1  0  0  0  0
 44 45  1  0  0  0  0
 18 21  1  0  0  0  0
 34 35  1  0  0  0  0
  7  8  1  0  0  0  0
 17 18  1  0  0  0  0
 24 31  1  0  0  0  0
 25 32  1  0  0  0  0
  3  4  1  0  0  0  0
  3  5  1  0  0  0  0
  3  6  1  0  0  0  0
 38 41  1  0  0  0  0
 38 42  1  0  0  0  0
 38 43  1  0  0  0  0
 11 14  1  0  0  0  0
 11 15  1  0  0  0  0
 11 16  1  0  0  0  0
 45 47  1  0  0  0  0
 45 48  1  0  0  0  0
 45 49  1  0  0  0  0
 21 29  1  0  0  0  0
 21 30  1  0  0  0  0
 35 40  1  0  0  0  0
  8 13  1  0  0  0  0
 18 28  1  0  0  0  0
 26 33  1  0  0  0  0
 44 46  1  0  0  0  0
  7 12  1  0  0  0  0
 34 39  1  0  0  0  0
 17 27  1  0  0  0  0
M  END
$$$$

  -OEChem-05262214473D

 49 49  0     1  0  0  0  0  0999 V2000
   -1.6183    0.5613    3.8201 C   0  0  0  0  0  0  0  0  0  0  0  0
   -0.6710   -0.0534    3.3444 O   0  0  0  0  0  0  0  0  0  0  0  0
   -2.0502    0.2789    5.2208 C   0  0  0  0  0  0  0  0  0  0  0  0
   -2.8099   -0.5175    5.2742 H   0  0  0  0  0  0  0  0  0  0  0  0
   -1.2190   -0.0687    5.8551 H   0  0  0  0  0  0  0  0  0  0  0  0
   -2.4882    1.1338    5.7604 H   0  0  0  0  0  0  0  0  0  0  0  0
   -2.3680    1.5337    3.1790 N   0  0  0  0  0  0  0  0  0  0  0  0
   -2.1212    1.9597    1.8266 C   0  0  2  0  0  0  0  0  0  0  0  0
   -0.7862    1.3744    1.3854 C   0  0  0  0  0  0  0  0  0  0  0  0
    0.0859    1.0216    2.1767 O   0  0  0  0  0  0  0  0  0  0  0  0
   -2.1124    3.4765    1.7171 C   0  0  0  0  0  0  0  0  0  0  0  0
   -3.1331    1.9695    3.6908 H   0  0  0  0  0  0  0  0  0  0  0  0
   -2.9253    1.5413    1.2115 H   0  0  0  0  0  0  0  0  0  0  0  0
   -1.3133    3.9138    2.3268 H   0  0  0  0  0  0  0  0  0  0  0  0
   -1.9529    3.7988    0.6829 H   0  0  0  0  0  0  0  0  0  0  0  0
   -3.0626    3.8977    2.0629 H   0  0  0  0  0  0  0  0  0  0  0  0
   -0.6635    1.3313    0.0020 N   0  0  0  0  0  0  0  0  0  0  0  0
    0.5138    0.8305   -0.6617 C   0  0  2  0  0  0  0  0  0  0  0  0
    0.1686   -0.5484   -1.2128 C   0  0  0  0  0  0  0  0  0  0  0  0
    1.0213   -1.3638   -1.5575 O   0  0  0  0  0  0  0  0  0  0  0  0
    1.7173    0.7406    0.2837 C   0  0  0  0  0  0  0  0  0  0  0  0
    2.1585    2.0896    0.7966 C   0  0  0  0  0  0  0  0  0  0  0  0
    2.8466    2.9551   -0.0164 N   0  0  0  0  0  0  0  0  0  0  0  0
    1.9659    2.6295    2.0464 C   0  0  0  0  0  0  0  0  0  0  0  0
    3.0699    4.0120    0.7325 C   0  0  0  0  0  0  0  0  0  0  0  0
    2.5556    3.8609    1.9903 N   0  0  0  0  0  0  0  0  0  0  0  0
   -1.4467    1.6280   -0.5753 H   0  0  0  0  0  0  0  0  0  0  0  0
    0.7146    1.5110   -1.4974 H   0  0  0  0  0  0  0  0  0  0  0  0
    2.5584    0.2428   -0.2176 H   0  0  0  0  0  0  0  0  0  0  0  0
    1.4800    0.1052    1.1472 H   0  0  0  0  0  0  0  0  0  0  0  0
    1.4815    2.2656    2.9411 H   0  0  0  0  0  0  0  0  0  0  0  0
    3.5912    4.9090    0.4290 H   0  0  0  0  0  0  0  0  0  0  0  0
    2.6023    4.5370    2.7408 H   0  0  0  0  0  0  0  0  0  0  0  0
   -1.2007   -0.7750   -1.2256 N   0  0  0  0  0  0  0  0  0  0  0  0
   -1.7962   -2.0116   -1.6786 C   0  0  2  0  0  0  0  0  0  0  0  0
   -1.2011   -2.3494   -3.0392 C   0  0  0  0  0  0  0  0  0  0  0  0
   -0.6932   -1.5075   -3.7770 O   0  0  0  0  0  0  0  0  0  0  0  0
   -3.3105   -1.8990   -1.7604 C   0  0  0  0  0  0  0  0  0  0  0  0
   -1.8151   -0.0345   -0.9003 H   0  0  0  0  0  0  0  0  0  0  0  0
   -1.5133   -2.7829   -0.9539 H   0  0  0  0  0  0  0  0  0  0  0  0
   -3.6130   -1.1310   -2.4816 H   0  0  0  0  0  0  0  0  0  0  0  0
   -3.7622   -2.8452   -2.0762 H   0  0  0  0  0  0  0  0  0  0  0  0
   -3.7342   -1.6267   -0.7877 H   0  0  0  0  0  0  0  0  0  0  0  0
   -1.3427   -3.6943   -3.3513 N   0  0  0  0  0  0  0  0  0  0  0  0
   -0.8699   -4.2604   -4.5931 C   0  0  0  0  0  0  0  0  0  0  0  0
   -1.7596   -4.3238   -2.6718 H   0  0  0  0  0  0  0  0  0  0  0  0
   -1.6818   -4.2473   -5.3352 H   0  0  0  0  0  0  0  0  0  0  0  0
   -0.0221   -3.6676   -4.9669 H   0  0  0  0  0  0  0  0  0  0  0  0
   -0.5455   -5.2976   -4.4230 H   0  0  0  0  0  0  0  0  0  0  0  0
 22 24  2  0  0  0  0
 24 26  1  0  0  0  0
 23 25  2  0  0  0  0
 25 26  1  0  0  0  0
 21 22  1  0  0  0  0
 22 23  1  0  0  0  0
  1  3  1  0  0  0  0
  1  7  1  0  0  0  0
  1  2  2  0  0  0  0
 35 36  1  0  0  0  0
 36 44  1  0  0  0  0
 36 37  2  0  0  0  0
  8  9  1  0  0  0  0
  9 17  1  0  0  0  0
  9 10  2  0  0  0  0
 18 19  1  0  0  0  0
 19 34  1  0  0  0  0
 19 20  2  0  0  0  0
 35 38  1  0  0  0  0
  8 11  1  0  0  0  0
 44 45  1  0  0  0  0
 18 21  1  0  0  0  0
 34 35  1  0  0  0  0
  7  8  1  0  0  0  0
 17 18  1  0  0  0  0
 24 31  1  0  0  0  0
 25 32  1  0  0  0  0
  3  4  1  0  0  0  0
  3  5  1  0  0  0  0
  3  6  1  0  0  0  0
 38 41  1  0  0  0  0
 38 42  1  0  0  0  0
 38 43  1  0  0  0  0
 11 14  1  0  0  0  0
 11 15  1  0  0  0  0
 11 16  1  0  0  0  0
 45 47  1  0  0  0  0
 45 48  1  0  0  0  0
 45 49  1  0  0  0  0
 21 29  1  0  0  0  0
 21 30  1  0  0  0  0
 35 40  1  0  0  0  0
  8 13  1  0  0  0  0
 18 28  1  0  0  0  0
 26 33  1  0  0  0  0
 44 46  1  0  0  0  0
  7 12  1  0  0  0  0
 34 39  1  0  0  0  0
 17 27  1  0  0  0  0
M  END
$$$$

  -OEChem-05262214473D

 49 49  0     1  0  0  0  0  0999 V2000
   -1.6183    0.5613    3.8201 C   0  0  0  0  0  0  0  0  0  0  0  0
   -0.6710   -0.0534    3.3444 O   0  0  0  0  0  0  0  0  0  0  0  0
   -2.0502    0.2789    5.2208 C   0  0  0  0  0  0  0  0  0  0  0  0
   -2.8099   -0.5175    5.2742 H   0  0  0  0  0  0  0  0  0  0  0  0
   -1.2190   -0.0687    5.8551 H   0  0  0  0  0  0  0  0  0  0  0  0
   -2.4882    1.1338    5.7604 H   0  0  0  0  0  0  0  0  0  0  0  0
   -2.3680    1.5337    3.1790 N   0  0  0  0  0  0  0  0  0  0  0  0
   -2.1212    1.9597    1.8266 C   0  0  2  0  0  0  0  0  0  0  0  0
   -0.7862    1.3744    1.3854 C   0  0  0  0  0  0  0  0  0  0  0  0
    0.0859    1.0216    2.1767 O   0  0  0  0  0  0  0  0  0  0  0  0
   -2.1124    3.4765    1.7171 C   0  0  0  0  0  0  0  0  0  0  0  0
   -3.1331    1.9695    3.6908 H   0  0  0  0  0  0  0  0  0  0  0  0
   -2.9253    1.5413    1.2115 H   0  0  0  0  0  0  0  0  0  0  0  0
   -1.3133    3.9138    2.3268 H   0  0  0  0  0  0  0  0  0  0  0  0
   -1.9529    3.7988    0.6829 H   0  0  0  0  0  0  0  0  0  0  0  0
   -3.0626    3.8977    2.0629 H   0  0  0  0  0  0  0  0  0  0  0  0
   -0.6635    1.3313    0.0020 N   0  0  0  0  0  0  0  0  0  0  0  0
    0.5138    0.8305   -0.6617 C   0  0  2  0  0  0  0  0  0  0  0  0
    0.1686   -0.5484   -1.2128 C   0  0  0  0  0  0  0  0  0  0  0  0
    0.9915   -1.4567   -1.3066 O   0  0  0  0  0  0  0  0  0  0  0  0
    1.7173    0.7406    0.2837 C   0  0  0  0  0  0  0  0  0  0  0  0
    2.1585    2.0896    0.7966 C   0  0  0  0  0  0  0  0  0  0  0  0
    2.8466    2.9551   -0.0164 N   0  0  0  0  0  0  0  0  0  0  0  0
    1.9659    2.6295    2.0464 C   0  0  0  0  0  0  0  0  0  0  0  0
    3.0699    4.0120    0.7325 C   0  0  0  0  0  0  0  0  0  0  0  0
    2.5556    3.8609    1.9903 N   0  0  0  0  0  0  0  0  0  0  0  0
   -1.4467    1.6280   -0.5753 H   0  0  0  0  0  0  0  0  0  0  0  0
    0.7146    1.5110   -1.4974 H   0  0  0  0  0  0  0  0  0  0  0  0
    2.5584    0.2428   -0.2176 H   0  0  0  0  0  0  0  0  0  0  0  0
    1.4800    0.1052    1.1472 H   0  0  0  0  0  0  0  0  0  0  0  0
    1.4815    2.2656    2.9411 H   0  0  0  0  0  0  0  0  0  0  0  0
    3.5912    4.9090    0.4290 H   0  0  0  0  0  0  0  0  0  0  0  0
    2.6023    4.5370    2.7408 H   0  0  0  0  0  0  0  0  0  0  0  0
   -1.1762   -0.6560   -1.5388 N   0  0  0  0  0  0  0  0  0  0  0  0
   -1.7720   -1.8648   -2.0608 C   0  0  2  0  0  0  0  0  0  0  0  0
   -0.9155   -2.3470   -3.2241 C   0  0  0  0  0  0  0  0  0  0  0  0
   -0.1687   -1.6057   -3.8597 O   0  0  0  0  0  0  0  0  0  0  0  0
   -3.2072   -1.6275   -2.5042 C   0  0  0  0  0  0  0  0  0  0  0  0
   -1.7716    0.1558   -1.4038 H   0  0  0  0  0  0  0  0  0  0  0  0
   -1.7435   -2.6053   -1.2540 H   0  0  0  0  0  0  0  0  0  0  0  0
   -3.2559   -0.8884   -3.3122 H   0  0  0  0  0  0  0  0  0  0  0  0
   -3.6664   -2.5508   -2.8728 H   0  0  0  0  0  0  0  0  0  0  0  0
   -3.8148   -1.2525   -1.6736 H   0  0  0  0  0  0  0  0  0  0  0  0
   -1.1155   -3.6930   -3.4967 N   0  0  0  0  0  0  0  0  0  0  0  0
   -0.4277   -4.3832   -4.5628 C   0  0  0  0  0  0  0  0  0  0  0  0
   -1.7394   -4.2351   -2.9062 H   0  0  0  0  0  0  0  0  0  0  0  0
   -1.0404   -4.3516   -5.4759 H   0  0  0  0  0  0  0  0  0  0  0  0
    0.5388   -3.8935   -4.7528 H   0  0  0  0  0  0  0  0  0  0  0  0
   -0.2574   -5.4302   -4.2718 H   0  0  0  0  0  0  0  0  0  0  0  0
 22 24  2  0  0  0  0
 24 26  1  0  0  0  0
 23 25  2  0  0  0  0
 25 26  1  0  0  0  0
 21 22  1  0  0  0  0
 22 23  1  0  0  0  0
  1  3  1  0  0  0  0
  1  7  1  0  0  0  0
  1  2  2  0  0  0  0
 35 36  1  0  0  0  0
 36 44  1  0  0  0  0
 36 37  2  0  0  0  0
  8  9  1  0  0  0  0
  9 17  1  0  0  0  0
  9 10  2  0  0  0  0
 18 19  1  0  0  0  0
 19 34  1  0  0  0  0
 19 20  2  0  0  0  0
 35 38  1  0  0  0  0
  8 11  1  0  0  0  0
 44 45  1  0  0  0  0
 18 21  1  0  0  0  0
 34 35  1  0  0  0  0
  7  8  1  0  0  0  0
 17 18  1  0  0  0  0
 24 31  1  0  0  0  0
 25 32  1  0  0  0  0
  3  4  1  0  0  0  0
  3  5  1  0  0  0  0
  3  6  1  0  0  0  0
 38 41  1  0  0  0  0
 38 42  1  0  0  0  0
 38 43  1  0  0  0  0
 11 14  1  0  0  0  0
 11 15  1  0  0  0  0
 11 16  1  0  0  0  0
 45 47  1  0  0  0  0
 45 48  1  0  0  0  0
 45 49  1  0  0  0  0
 21 29  1  0  0  0  0
 21 30  1  0  0  0  0
 35 40  1  0  0  0  0
  8 13  1  0  0  0  0
 18 28  1  0  0  0  0
 26 33  1  0  0  0  0
 44 46  1  0  0  0  0
  7 12  1  0  0  0  0
 34 39  1  0  0  0  0
 17 27  1  0  0  0  0
M  END
$$$$

  -OEChem-05262214473D

 49 49  0     1  0  0  0  0  0999 V2000
   -1.6183    0.5613    3.8201 C   0  0  0  0  0  0  0  0  0  0  0  0
   -0.6710   -0.0534    3.3444 O   0  0  0  0  0  0  0  0  0  0  0  0
   -2.0502    0.2789    5.2208 C   0  0  0  0  0  0  0  0  0  0  0  0
   -2.8099   -0.5175    5.2742 H   0  0  0  0  0  0  0  0  0  0  0  0
   -1.2190   -0.0687    5.8551 H   0  0  0  0  0  0  0  0  0  0  0  0
   -2.4882    1.1338    5.7604 H   0  0  0  0  0  0  0  0  0  0  0  0
   -2.3680    1.5337    3.1790 N   0  0  0  0  0  0  0  0  0  0  0  0
   -2.1212    1.9597    1.8266 C   0  0  2  0  0  0  0  0  0  0  0  0
   -0.7862    1.3744    1.3854 C   0  0  0  0  0  0  0  0  0  0  0  0
    0.0859    1.0216    2.1767 O   0  0  0  0  0  0  0  0  0  0  0  0
   -2.1124    3.4765    1.7171 C   0  0  0  0  0  0  0  0  0  0  0  0
   -3.1331    1.9695    3.6908 H   0  0  0  0  0  0  0  0  0  0  0  0
   -2.9253    1.5413    1.2115 H   0  0  0  0  0  0  0  0  0  0  0  0
   -1.3133    3.9138    2.3268 H   0  0  0  0  0  0  0  0  0  0  0  0
   -1.9529    3.7988    0.6829 H   0  0  0  0  0  0  0  0  0  0  0  0
   -3.0626    3.8977    2.0629 H   0  0  0  0  0  0  0  0  0  0  0  0
   -0.6635    1.3313    0.0020 N   0  0  0  0  0  0  0  0  0  0  0  0
    0.5138    0.8305   -0.6617 C   0  0  2  0  0  0  0  0  0  0  0  0
    0.1686   -0.5484   -1.2128 C   0  0  0  0  0  0  0  0  0  0  0  0
    0.8953   -1.5288   -1.0658 O   0  0  0  0  0  0  0  0  0  0  0  0
    1.7173    0.7406    0.2837 C   0  0  0  0  0  0  0  0  0  0  0  0
    2.1585    2.0896    0.7966 C   0  0  0  0  0  0  0  0  0  0  0  0
    2.8466    2.9551   -0.0164 N   0  0  0  0  0  0  0  0  0  0  0  0
    1.9659    2.6295    2.0464 C   0  0  0  0  0  0  0  0  0  0  0  0
    3.0699    4.0120    0.7325 C   0  0  0  0  0  0  0  0  0  0  0  0
    2.5556    3.8609    1.9903 N   0  0  0  0  0  0  0  0  0  0  0  0
   -1.4467    1.6280   -0.5753 H   0  0  0  0  0  0  0  0  0  0  0  0
    0.7146    1.5110   -1.4974 H   0  0  0  0  0  0  0  0  0  0  0  0
    2.5584    0.2428   -0.2176 H   0  0  0  0  0  0  0  0  0  0  0  0
    1.4800    0.1052    1.1472 H   0  0  0  0  0  0  0  0  0  0  0  0
    1.4815    2.2656    2.9411 H   0  0  0  0  0  0  0  0  0  0  0  0
    3.5912    4.9090    0.4290 H   0  0  0  0  0  0  0  0  0  0  0  0
    2.6023    4.5370    2.7408 H   0  0  0  0  0  0  0  0  0  0  0  0
   -1.0681   -0.5616   -1.8427 N   0  0  0  0  0  0  0  0  0  0  0  0
   -1.6455   -1.7478   -2.4329 C   0  0  2  0  0  0  0  0  0  0  0  0
   -0.5961   -2.3822   -3.3360 C   0  0  0  0  0  0  0  0  0  0  0  0
    0.3481   -1.7545   -3.8110 O   0  0  0  0  0  0  0  0  0  0  0  0
   -2.9079   -1.4186   -3.2144 C   0  0  0  0  0  0  0  0  0  0  0  0
   -1.5939    0.3062   -1.8912 H   0  0  0  0  0  0  0  0  0  0  0  0
   -1.8790   -2.4299   -1.6081 H   0  0  0  0  0  0  0  0  0  0  0  0
   -2.6938   -0.7362   -4.0450 H   0  0  0  0  0  0  0  0  0  0  0  0
   -3.3598   -2.3220   -3.6371 H   0  0  0  0  0  0  0  0  0  0  0  0
   -3.6502   -0.9353   -2.5701 H   0  0  0  0  0  0  0  0  0  0  0  0
   -0.8619   -3.7216   -3.5840 N   0  0  0  0  0  0  0  0  0  0  0  0
   -0.0191   -4.5414   -4.4229 C   0  0  0  0  0  0  0  0  0  0  0  0
   -1.6567   -4.1651   -3.1331 H   0  0  0  0  0  0  0  0  0  0  0  0
   -0.3976   -4.5206   -5.4556 H   0  0  0  0  0  0  0  0  0  0  0  0
    1.0093   -4.1517   -4.4016 H   0  0  0  0  0  0  0  0  0  0  0  0
   -0.0269   -5.5764   -4.0504 H   0  0  0  0  0  0  0  0  0  0  0  0
 22 24  2  0  0  0  0
 24 26  1  0  0  0  0
 23 25  2  0  0  0  0
 25 26  1  0  0  0  0
 21 22  1  0  0  0  0
 22 23  1  0  0  0  0
  1  3  1  0  0  0  0
  1  7  1  0  0  0  0
  1  2  2  0  0  0  0
 35 36  1  0  0  0  0
 36 44  1  0  0  0  0
 36 37  2  0  0  0  0
  8  9  1  0  0  0  0
  9 17  1  0  0  0  0
  9 10  2  0  0  0  0
 18 19  1  0  0  0  0
 19 34  1  0  0  0  0
 19 20  2  0  0  0  0
 35 38  1  0  0  0  0
  8 11  1  0  0  0  0
 44 45  1  0  0  0  0
 18 21  1  0  0  0  0
 34 35  1  0  0  0  0
  7  8  1  0  0  0  0
 17 18  1  0  0  0  0
 24 31  1  0  0  0  0
 25 32  1  0  0  0  0
  3  4  1  0  0  0  0
  3  5  1  0  0  0  0
  3  6  1  0  0  0  0
 38 41  1  0  0  0  0
 38 42  1  0  0  0  0
 38 43  1  0  0  0  0
 11 14  1  0  0  0  0
 11 15  1  0  0  0  0
 11 16  1  0  0  0  0
 45 47  1  0  0  0  0
 45 48  1  0  0  0  0
 45 49  1  0  0  0  0
 21 29  1  0  0  0  0
 21 30  1  0  0  0  0
 35 40  1  0  0  0  0
  8 13  1  0  0  0  0
 18 28  1  0  0  0  0
 26 33  1  0  0  0  0
 44 46  1  0  0  0  0
  7 12  1  0  0  0  0
 34 39  1  0  0  0  0
 17 27  1  0  0  0  0
M  END
$$$$

  -OEChem-05262214473D

 49 49  0     1  0  0  0  0  0999 V2000
   -1.6183    0.5613    3.8201 C   0  0  0  0  0  0  0  0  0  0  0  0
   -0.6710   -0.0534    3.3444 O   0  0  0  0  0  0  0  0  0  0  0  0
   -2.0502    0.2789    5.2208 C   0  0  0  0  0  0  0  0  0  0  0  0
   -2.8099   -0.5175    5.2742 H   0  0  0  0  0  0  0  0  0  0  0  0
   -1.2190   -0.0687    5.8551 H   0  0  0  0  0  0  0  0  0  0  0  0
   -2.4882    1.1338    5.7604 H   0  0  0  0  0  0  0  0  0  0  0  0
   -2.3680    1.5337    3.1790 N   0  0  0  0  0  0  0  0  0  0  0  0
   -2.1212    1.9597    1.8266 C   0  0  2  0  0  0  0  0  0  0  0  0
   -0.7862    1.3744    1.3854 C   0  0  0  0  0  0  0  0  0  0  0  0
    0.0859    1.0216    2.1767 O   0  0  0  0  0  0  0  0  0  0  0  0
   -2.1124    3.4765    1.7171 C   0  0  0  0  0  0  0  0  0  0  0  0
   -3.1331    1.9695    3.6908 H   0  0  0  0  0  0  0  0  0  0  0  0
   -2.9253    1.5413    1.2115 H   0  0  0  0  0  0  0  0  0  0  0  0
   -1.3133    3.9138    2.3268 H   0  0  0  0  0  0  0  0  0  0  0  0
   -1.9529    3.7988    0.6829 H   0  0  0  0  0  0  0  0  0  0  0  0
   -3.0626    3.8977    2.0629 H   0  0  0  0  0  0  0  0  0  0  0  0
   -0.6635    1.3313    0.0020 N   0  0  0  0  0  0  0  0  0  0  0  0
    0.5138    0.8305   -0.6617 C   0  0  2  0  0  0  0  0  0  0  0  0
    0.1686   -0.5484   -1.2128 C   0  0  0  0  0  0  0  0  0  0  0  0
    0.7392   -1.5754   -0.8515 O   0  0  0  0  0  0  0  0  0  0  0  0
    1.7173    0.7406    0.2837 C   0  0  0  0  0  0  0  0  0  0  0  0
    2.1585    2.0896    0.7966 C   0  0  0  0  0  0  0  0  0  0  0  0
    2.8466    2.9551   -0.0164 N   0  0  0  0  0  0  0  0  0  0  0  0
    1.9659    2.6295    2.0464 C   0  0  0  0  0  0  0  0  0  0  0  0
    3.0699    4.0120    0.7325 C   0  0  0  0  0  0  0  0  0  0  0  0
    2.5556    3.8609    1.9903 N   0  0  0  0  0  0  0  0  0  0  0  0
   -1.4467    1.6280   -0.5753 H   0  0  0  0  0  0  0  0  0  0  0  0
    0.7146    1.5110   -1.4974 H   0  0  0  0  0  0  0  0  0  0  0  0
    2.5584    0.2428   -0.2176 H   0  0  0  0  0  0  0  0  0  0  0  0
    1.4800    0.1052    1.1472 H   0  0  0  0  0  0  0  0  0  0  0  0
    1.4815    2.2656    2.9411 H   0  0  0  0  0  0  0  0  0  0  0  0
    3.5912    4.9090    0.4290 H   0  0  0  0  0  0  0  0  0  0  0  0
    2.6023    4.5370    2.7408 H   0  0  0  0  0  0  0  0  0  0  0  0
   -0.8838   -0.4983   -2.1163 N   0  0  0  0  0  0  0  0  0  0  0  0
   -1.4252   -1.6683   -2.7696 C   0  0  2  0  0  0  0  0  0  0  0  0
   -0.2646   -2.4527   -3.3672 C   0  0  0  0  0  0  0  0  0  0  0  0
    0.8220   -1.9438   -3.6343 O   0  0  0  0  0  0  0  0  0  0  0  0
   -2.4329   -1.2864   -3.8426 C   0  0  0  0  0  0  0  0  0  0  0  0
   -1.2941    0.4062   -2.3292 H   0  0  0  0  0  0  0  0  0  0  0  0
   -1.9105   -2.2685   -1.9922 H   0  0  0  0  0  0  0  0  0  0  0  0
   -1.9650   -0.6846   -4.6303 H   0  0  0  0  0  0  0  0  0  0  0  0
   -2.8633   -2.1745   -4.3169 H   0  0  0  0  0  0  0  0  0  0  0  0
   -3.2517   -0.6969   -3.4162 H   0  0  0  0  0  0  0  0  0  0  0  0
   -0.5991   -3.7781   -3.6073 N   0  0  0  0  0  0  0  0  0  0  0  0
    0.3280   -4.7242   -4.1828 C   0  0  0  0  0  0  0  0  0  0  0  0
   -1.5171   -4.1186   -3.3370 H   0  0  0  0  0  0  0  0  0  0  0  0
    0.2027   -4.7428   -5.2755 H   0  0  0  0  0  0  0  0  0  0  0  0
    1.3574   -4.4245   -3.9370 H   0  0  0  0  0  0  0  0  0  0  0  0
    0.1302   -5.7261   -3.7741 H   0  0  0  0  0  0  0  0  0  0  0  0
 22 24  2  0  0  0  0
 24 26  1  0  0  0  0
 23 25  2  0  0  0  0
 25 26  1  0  0  0  0
 21 22  1  0  0  0  0
 22 23  1  0  0  0  0
  1  3  1  0  0  0  0
  1  7  1  0  0  0  0
  1  2  2  0  0  0  0
 35 36  1  0  0  0  0
 36 44  1  0  0  0  0
 36 37  2  0  0  0  0
  8  9  1  0  0  0  0
  9 17  1  0  0  0  0
  9 10  2  0  0  0  0
 18 19  1  0  0  0  0
 19 34  1  0  0  0  0
 19 20  2  0  0  0  0
 35 38  1  0  0  0  0
  8 11  1  0  0  0  0
 44 45  1  0  0  0  0
 18 21  1  0  0  0  0
 34 35  1  0  0  0  0
  7  8  1  0  0  0  0
 17 18  1  0  0  0  0
 24 31  1  0  0  0  0
 25 32  1  0  0  0  0
  3  4  1  0  0  0  0
  3  5  1  0  0  0  0
  3  6  1  0  0  0  0
 38 41  1  0  0  0  0
 38 42  1  0  0  0  0
 38 43  1  0  0  0  0
 11 14  1  0  0  0  0
 11 15  1  0  0  0  0
 11 16  1  0  0  0  0
 45 47  1  0  0  0  0
 45 48  1  0  0  0  0
 45 49  1  0  0  0  0
 21 29  1  0  0  0  0
 21 30  1  0  0  0  0
 35 40  1  0  0  0  0
  8 13  1  0  0  0  0
 18 28  1  0  0  0  0
 26 33  1  0  0  0  0
 44 46  1  0  0  0  0
  7 12  1  0  0  0  0
 34 39  1  0  0  0  0
 17 27  1  0  0  0  0
M  END
$$$$

  -OEChem-05262214473D

 49 49  0     1  0  0  0  0  0999 V2000
   -1.6183    0.5613    3.8201 C   0  0  0  0  0  0  0  0  0  0  0  0
   -0.6710   -0.0534    3.3444 O   0  0  0  0  0  0  0  0  0  0  0  0
   -2.0502    0.2789    5.2208 C   0  0  0  0  0  0  0  0  0  0  0  0
   -2.8099   -0.5175    5.2742 H   0  0  0  0  0  0  0  0  0  0  0  0
   -1.2190   -0.0687    5.8551 H   0  0  0  0  0  0  0  0  0  0  0  0
   -2.4882    1.1338    5.7604 H   0  0  0  0  0  0  0  0  0  0  0  0
   -2.3680    1.5337    3.1790 N   0  0  0  0  0  0  0  0  0  0  0  0
   -2.1212    1.9597    1.8266 C   0  0  2  0  0  0  0  0  0  0  0  0
   -0.7862    1.3744    1.3854 C   0  0  0  0  0  0  0  0  0  0  0  0
    0.0859    1.0216    2.1767 O   0  0  0  0  0  0  0  0  0  0  0  0
   -2.1124    3.4765    1.7171 C   0  0  0  0  0  0  0  0  0  0  0  0
   -3.1331    1.9695    3.6908 H   0  0  0  0  0  0  0  0  0  0  0  0
   -2.9253    1.5413    1.2115 H   0  0  0  0  0  0  0  0  0  0  0  0
   -1.3133    3.9138    2.3268 H   0  0  0  0  0  0  0  0  0  0  0  0
   -1.9529    3.7988    0.6829 H   0  0  0  0  0  0  0  0  0  0  0  0
   -3.0626    3.8977    2.0629 H   0  0  0  0  0  0  0  0  0  0  0  0
   -0.6635    1.3313    0.0020 N   0  0  0  0  0  0  0  0  0  0  0  0
    0.5138    0.8305   -0.6617 C   0  0  2  0  0  0  0  0  0  0  0  0
    0.1686   -0.5484   -1.2128 C   0  0  0  0  0  0  0  0  0  0  0  0
    0.5340   -1.5933   -0.6783 O   0  0  0  0  0  0  0  0  0  0  0  0
    1.7173    0.7406    0.2837 C   0  0  0  0  0  0  0  0  0  0  0  0
    2.1585    2.0896    0.7966 C   0  0  0  0  0  0  0  0  0  0  0  0
    2.8466    2.9551   -0.0164 N   0  0  0  0  0  0  0  0  0  0  0  0
    1.9659    2.6295    2.0464 C   0  0  0  0  0  0  0  0  0  0  0  0
    3.0699    4.0120    0.7325 C   0  0  0  0  0  0  0  0  0  0  0  0
    2.5556    3.8609    1.9903 N   0  0  0  0  0  0  0  0  0  0  0  0
   -1.4467    1.6280   -0.5753 H   0  0  0  0  0  0  0  0  0  0  0  0
    0.7146    1.5110   -1.4974 H   0  0  0  0  0  0  0  0  0  0  0  0
    2.5584    0.2428   -0.2176 H   0  0  0  0  0  0  0  0  0  0  0  0
    1.4800    0.1052    1.1472 H   0  0  0  0  0  0  0  0  0  0  0  0
    1.4815    2.2656    2.9411 H   0  0  0  0  0  0  0  0  0  0  0  0
    3.5912    4.9090    0.4290 H   0  0  0  0  0  0  0  0  0  0  0  0
    2.6023    4.5370    2.7408 H   0  0  0  0  0  0  0  0  0  0  0  0
   -0.6357   -0.4705   -2.3413 N   0  0  0  0  0  0  0  0  0  0  0  0
   -1.1262   -1.6319   -3.0479 C   0  0  2  0  0  0  0  0  0  0  0  0
    0.0562   -2.5536   -3.3157 C   0  0  0  0  0  0  0  0  0  0  0  0
    1.2207   -2.1606   -3.3416 O   0  0  0  0  0  0  0  0  0  0  0  0
   -1.8147   -1.2399   -4.3460 C   0  0  0  0  0  0  0  0  0  0  0  0
   -0.8926    0.4491   -2.6879 H   0  0  0  0  0  0  0  0  0  0  0  0
   -1.8360   -2.1321   -2.3800 H   0  0  0  0  0  0  0  0  0  0  0  0
   -1.1192   -0.7373   -5.0280 H   0  0  0  0  0  0  0  0  0  0  0  0
   -2.2108   -2.1184   -4.8660 H   0  0  0  0  0  0  0  0  0  0  0  0
   -2.6464   -0.5534   -4.1541 H   0  0  0  0  0  0  0  0  0  0  0  0
   -0.3452   -3.8585   -3.5650 N   0  0  0  0  0  0  0  0  0  0  0  0
    0.5899   -4.9192   -3.8590 C   0  0  0  0  0  0  0  0  0  0  0  0
   -1.3303   -4.0986   -3.5040 H   0  0  0  0  0  0  0  0  0  0  0  0
    0.7196   -5.0031   -4.9481 H   0  0  0  0  0  0  0  0  0  0  0  0
    1.5594   -4.6934   -3.3908 H   0  0  0  0  0  0  0  0  0  0  0  0
    0.2033   -5.8693   -3.4617 H   0  0  0  0  0  0  0  0  0  0  0  0
 22 24  2  0  0  0  0
 24 26  1  0  0  0  0
 23 25  2  0  0  0  0
 25 26  1  0  0  0  0
 21 22  1  0  0  0  0
 22 23  1  0  0  0  0
  1  3  1  0  0  0  0
  1  7  1  0  0  0  0
  1  2  2  0  0  0  0
 35 36  1  0  0  0  0
 36 44  1  0  0  0  0
 36 37  2  0  0  0  0
  8  9  1  0  0  0  0
  9 17  1  0  0  0  0
  9 10  2  0  0  0  0
 18 19  1  0  0  0  0
 19 34  1  0  0  0  0
 19 20  2  0  0  0  0
 35 38  1  0  0  0  0
  8 11  1  0  0  0  0
 44 45  1  0  0  0  0
 18 21  1  0  0  0  0
 34 35  1  0  0  0  0
  7  8  1  0  0  0  0
 17 18  1  0  0  0  0
 24 31  1  0  0  0  0
 25 32  1  0  0  0  0
  3  4  1  0  0  0  0
  3  5  1  0  0  0  0
  3  6  1  0  0  0  0
 38 41  1  0  0  0  0
 38 42  1  0  0  0  0
 38 43  1  0  0  0  0
 11 14  1  0  0  0  0
 11 15  1  0  0  0  0
 11 16  1  0  0  0  0
 45 47  1  0  0  0  0
 45 48  1  0  0  0  0
 45 49  1  0  0  0  0
 21 29  1  0  0  0  0
 21 30  1  0  0  0  0
 35 40  1  0  0  0  0
  8 13  1  0  0  0  0
 18 28  1  0  0  0  0
 26 33  1  0  0  0  0
 44 46  1  0  0  0  0
  7 12  1  0  0  0  0
 34 39  1  0  0  0  0
 17 27  1  0  0  0  0
M  END
$$$$

  -OEChem-05262214473D

 49 49  0     1  0  0  0  0  0999 V2000
   -1.6183    0.5613    3.8201 C   0  0  0  0  0  0  0  0  0  0  0  0
   -0.6710   -0.0534    3.3444 O   0  0  0  0  0  0  0  0  0  0  0  0
   -2.0502    0.2789    5.2208 C   0  0  0  0  0  0  0  0  0  0  0  0
   -2.8099   -0.5175    5.2742 H   0  0  0  0  0  0  0  0  0  0  0  0
   -1.2190   -0.0687    5.8551 H   0  0  0  0  0  0  0  0  0  0  0  0
   -2.4882    1.1338    5.7604 H   0  0  0  0  0  0  0  0  0  0  0  0
   -2.3680    1.5337    3.1790 N   0  0  0  0  0  0  0  0  0  0  0  0
   -2.1212    1.9597    1.8266 C   0  0  2  0  0  0  0  0  0  0  0  0
   -0.7862    1.3744    1.3854 C   0  0  0  0  0  0  0  0  0  0  0  0
    0.0859    1.0216    2.1767 O   0  0  0  0  0  0  0  0  0  0  0  0
   -2.1124    3.4765    1.7171 C   0  0  0  0  0  0  0  0  0  0  0  0
   -3.1331    1.9695    3.6908 H   0  0  0  0  0  0  0  0  0  0  0  0
   -2.9253    1.5413    1.2115 H   0  0  0  0  0  0  0  0  0  0  0  0
   -1.3133    3.9138    2.3268 H   0  0  0  0  0  0  0  0  0  0  0  0
   -1.9529    3.7988    0.6829 H   0  0  0  0  0  0  0  0  0  0  0  0
   -3.0626    3.8977    2.0629 H   0  0  0  0  0  0  0  0  0  0  0  0
   -0.6635    1.3313    0.0020 N   0  0  0  0  0  0  0  0  0  0  0  0
    0.5138    0.8305   -0.6617 C   0  0  2  0  0  0  0  0  0  0  0  0
    0.1686   -0.5484   -1.2128 C   0  0  0  0  0  0  0  0  0  0  0  0
    0.2935   -1.5812   -0.5580 O   0  0  0  0  0  0  0  0  0  0  0  0
    1.7173    0.7406    0.2837 C   0  0  0  0  0  0  0  0  0  0  0  0
    2.1585    2.0896    0.7966 C   0  0  0  0  0  0  0  0  0  0  0  0
    2.8466    2.9551   -0.0164 N   0  0  0  0  0  0  0  0  0  0  0  0
    1.9659    2.6295    2.0464 C   0  0  0  0  0  0  0  0  0  0  0  0
    3.0699    4.0120    0.7325 C   0  0  0  0  0  0  0  0  0  0  0  0
    2.5556    3.8609    1.9903 N   0  0  0  0  0  0  0  0  0  0  0  0
   -1.4467    1.6280   -0.5753 H   0  0  0  0  0  0  0  0  0  0  0  0
    0.7146    1.5110   -1.4974 H   0  0  0  0  0  0  0  0  0  0  0  0
    2.5584    0.2428   -0.2176 H   0  0  0  0  0  0  0  0  0  0  0  0
    1.4800    0.1052    1.1472 H   0  0  0  0  0  0  0  0  0  0  0  0
    1.4815    2.2656    2.9411 H   0  0  0  0  0  0  0  0  0  0  0  0
    3.5912    4.9090    0.4290 H   0  0  0  0  0  0  0  0  0  0  0  0
    2.6023    4.5370    2.7408 H   0  0  0  0  0  0  0  0  0  0  0  0
   -0.3409   -0.4800   -2.5021 N   0  0  0  0  0  0  0  0  0  0  0  0
   -0.7689   -1.6410   -3.2488 C   0  0  2  0  0  0  0  0  0  0  0  0
    0.3447   -2.6781   -3.1849 C   0  0  0  0  0  0  0  0  0  0  0  0
    1.5170   -2.3901   -2.9528 O   0  0  0  0  0  0  0  0  0  0  0  0
   -1.0954   -1.2824   -4.6902 C   0  0  0  0  0  0  0  0  0  0  0  0
   -0.4168    0.4319   -2.9429 H   0  0  0  0  0  0  0  0  0  0  0  0
   -1.6604   -2.0301   -2.7451 H   0  0  0  0  0  0  0  0  0  0  0  0
   -0.2141   -0.8907   -5.2111 H   0  0  0  0  0  0  0  0  0  0  0  0
   -1.4467   -2.1574   -5.2469 H   0  0  0  0  0  0  0  0  0  0  0  0
   -1.8756   -0.5147   -4.7336 H   0  0  0  0  0  0  0  0  0  0  0  0
   -0.1173   -3.9575   -3.4600 N   0  0  0  0  0  0  0  0  0  0  0  0
    0.7489   -5.1131   -3.4734 C   0  0  0  0  0  0  0  0  0  0  0  0
   -1.1088   -4.1065   -3.6227 H   0  0  0  0  0  0  0  0  0  0  0  0
    1.1179   -5.2836   -4.4956 H   0  0  0  0  0  0  0  0  0  0  0  0
    1.6014   -4.9400   -2.8002 H   0  0  0  0  0  0  0  0  0  0  0  0
    0.1874   -5.9961   -3.1344 H   0  0  0  0  0  0  0  0  0  0  0  0
 22 24  2  0  0  0  0
 24 26  1  0  0  0  0
 23 25  2  0  0  0  0
 25 26  1  0  0  0  0
 21 22  1  0  0  0  0
 22 23  1  0  0  0  0
  1  3  1  0  0  0  0
  1  7  1  0  0  0  0
  1  2  2  0  0  0  0
 35 36  1  0  0  0  0
 36 44  1  0  0  0  0
 36 37  2  0  0  0  0
  8  9  1  0  0  0  0
  9 17  1  0  0  0  0
  9 10  2  0  0  0  0
 18 19  1  0  0  0  0
 19 34  1  0  0  0  0
 19 20  2  0  0  0  0
 35 38  1  0  0  0  0
  8 11  1  0  0  0  0
 44 45  1  0  0  0  0
 18 21  1  0  0  0  0
 34 35  1  0  0  0  0
  7  8  1  0  0  0  0
 17 18  1  0  0  0  0
 24 31  1  0  0  0  0
 25 32  1  0  0  0  0
  3  4  1  0  0  0  0
  3  5  1  0  0  0  0
  3  6  1  0  0  0  0
 38 41  1  0  0  0  0
 38 42  1  0  0  0  0
 38 43  1  0  0  0  0
 11 14  1  0  0  0  0
 11 15  1  0  0  0  0
 11 16  1  0  0  0  0
 45 47  1  0  0  0  0
 45 48  1  0  0  0  0
 45 49  1  0  0  0  0
 21 29  1  0  0  0  0
 21 30  1  0  0  0  0
 35 40  1  0  0  0  0
  8 13  1  0  0  0  0
 18 28  1  0  0  0  0
 26 33  1  0  0  0  0
 44 46  1  0  0  0  0
  7 12  1  0  0  0  0
 34 39  1  0  0  0  0
 17 27  1  0  0  0  0
M  END
$$$$

  -OEChem-05262214473D

 49 49  0     1  0  0  0  0  0999 V2000
   -1.6183    0.5613    3.8201 C   0  0  0  0  0  0  0  0  0  0  0  0
   -0.6710   -0.0534    3.3444 O   0  0  0  0  0  0  0  0  0  0  0  0
   -2.0502    0.2789    5.2208 C   0  0  0  0  0  0  0  0  0  0  0  0
   -2.8099   -0.5175    5.2742 H   0  0  0  0  0  0  0  0  0  0  0  0
   -1.2190   -0.0687    5.8551 H   0  0  0  0  0  0  0  0  0  0  0  0
   -2.4882    1.1338    5.7604 H   0  0  0  0  0  0  0  0  0  0  0  0
   -2.3680    1.5337    3.1790 N   0  0  0  0  0  0  0  0  0  0  0  0
   -2.1212    1.9597    1.8266 C   0  0  2  0  0  0  0  0  0  0  0  0
   -0.7862    1.3744    1.3854 C   0  0  0  0  0  0  0  0  0  0  0  0
    0.0859    1.0216    2.1767 O   0  0  0  0  0  0  0  0  0  0  0  0
   -2.1124    3.4765    1.7171 C   0  0  0  0  0  0  0  0  0  0  0  0
   -3.1331    1.9695    3.6908 H   0  0  0  0  0  0  0  0  0  0  0  0
   -2.9253    1.5413    1.2115 H   0  0  0  0  0  0  0  0  0  0  0  0
   -1.3133    3.9138    2.3268 H   0  0  0  0  0  0  0  0  0  0  0  0
   -1.9529    3.7988    0.6829 H   0  0  0  0  0  0  0  0  0  0  0  0
   -3.0626    3.8977    2.0629 H   0  0  0  0  0  0  0  0  0  0  0  0
   -0.6635    1.3313    0.0020 N   0  0  0  0  0  0  0  0  0  0  0  0
    0.5138    0.8305   -0.6617 C   0  0  2  0  0  0  0  0  0  0  0  0
    0.1686   -0.5484   -1.2128 C   0  0  0  0  0  0  0  0  0  0  0  0
    0.0342   -1.5399   -0.4989 O   0  0  0  0  0  0  0  0  0  0  0  0
    1.7173    0.7406    0.2837 C   0  0  0  0  0  0  0  0  0  0  0  0
    2.1585    2.0896    0.7966 C   0  0  0  0  0  0  0  0  0  0  0  0
    2.8466    2.9551   -0.0164 N   0  0  0  0  0  0  0  0  0  0  0  0
    1.9659    2.6295    2.0464 C   0  0  0  0  0  0  0  0  0  0  0  0
    3.0699    4.0120    0.7325 C   0  0  0  0  0  0  0  0  0  0  0  0
    2.5556    3.8609    1.9903 N   0  0  0  0  0  0  0  0  0  0  0  0
   -1.4467    1.6280   -0.5753 H   0  0  0  0  0  0  0  0  0  0  0  0
    0.7146    1.5110   -1.4974 H   0  0  0  0  0  0  0  0  0  0  0  0
    2.5584    0.2428   -0.2176 H   0  0  0  0  0  0  0  0  0  0  0  0
    1.4800    0.1052    1.1472 H   0  0  0  0  0  0  0  0  0  0  0  0
    1.4815    2.2656    2.9411 H   0  0  0  0  0  0  0  0  0  0  0  0
    3.5912    4.9090    0.4290 H   0  0  0  0  0  0  0  0  0  0  0  0
    2.6023    4.5370    2.7408 H   0  0  0  0  0  0  0  0  0  0  0  0
   -0.0193   -0.5262   -2.5878 N   0  0  0  0  0  0  0  0  0  0  0  0
   -0.3775   -1.6951   -3.3588 C   0  0  2  0  0  0  0  0  0  0  0  0
    0.5810   -2.8176   -2.9837 C   0  0  0  0  0  0  0  0  0  0  0  0
    1.6907   -2.6168   -2.4945 O   0  0  0  0  0  0  0  0  0  0  0  0
   -0.3240   -1.4108   -4.8518 C   0  0  0  0  0  0  0  0  0  0  0  0
    0.1009    0.3559   -3.0769 H   0  0  0  0  0  0  0  0  0  0  0  0
   -1.3959   -1.9694   -3.0627 H   0  0  0  0  0  0  0  0  0  0  0  0
    0.6887   -1.1342   -5.1671 H   0  0  0  0  0  0  0  0  0  0  0  0
   -0.6232   -2.2888   -5.4337 H   0  0  0  0  0  0  0  0  0  0  0  0
   -0.9918   -0.5834   -5.1151 H   0  0  0  0  0  0  0  0  0  0  0  0
    0.0689   -4.0683   -3.2994 N   0  0  0  0  0  0  0  0  0  0  0  0
    0.7941   -5.2927   -3.0524 C   0  0  0  0  0  0  0  0  0  0  0  0
   -0.8679   -4.1419   -3.6851 H   0  0  0  0  0  0  0  0  0  0  0  0
    1.3704   -5.5654   -3.9488 H   0  0  0  0  0  0  0  0  0  0  0  0
    1.4807   -5.1475   -2.2054 H   0  0  0  0  0  0  0  0  0  0  0  0
    0.0835   -6.0980   -2.8145 H   0  0  0  0  0  0  0  0  0  0  0  0
 22 24  2  0  0  0  0
 24 26  1  0  0  0  0
 23 25  2  0  0  0  0
 25 26  1  0  0  0  0
 21 22  1  0  0  0  0
 22 23  1  0  0  0  0
  1  3  1  0  0  0  0
  1  7  1  0  0  0  0
  1  2  2  0  0  0  0
 35 36  1  0  0  0  0
 36 44  1  0  0  0  0
 36 37  2  0  0  0  0
  8  9  1  0  0  0  0
  9 17  1  0  0  0  0
  9 10  2  0  0  0  0
 18 19  1  0  0  0  0
 19 34  1  0  0  0  0
 19 20  2  0  0  0  0
 35 38  1  0  0  0  0
  8 11  1  0  0  0  0
 44 45  1  0  0  0  0
 18 21  1  0  0  0  0
 34 35  1  0  0  0  0
  7  8  1  0  0  0  0
 17 18  1  0  0  0  0
 24 31  1  0  0  0  0
 25 32  1  0  0  0  0
  3  4  1  0  0  0  0
  3  5  1  0  0  0  0
  3  6  1  0  0  0  0
 38 41  1  0  0  0  0
 38 42  1  0  0  0  0
 38 43  1  0  0  0  0
 11 14  1  0  0  0  0
 11 15  1  0  0  0  0
 11 16  1  0  0  0  0
 45 47  1  0  0  0  0
 45 48  1  0  0  0  0
 45 49  1  0  0  0  0
 21 29  1  0  0  0  0
 21 30  1  0  0  0  0
 35 40  1  0  0  0  0
  8 13  1  0  0  0  0
 18 28  1  0  0  0  0
 26 33  1  0  0  0  0
 44 46  1  0  0  0  0
  7 12  1  0  0  0  0
 34 39  1  0  0  0  0
 17 27  1  0  0  0  0
M  END
$$$$

  -OEChem-05262214473D

 49 49  0     1  0  0  0  0  0999 V2000
   -1.6183    0.5613    3.8201 C   0  0  0  0  0  0  0  0  0  0  0  0
   -0.6710   -0.0534    3.3444 O   0  0  0  0  0  0  0  0  0  0  0  0
   -2.0502    0.2789    5.2208 C   0  0  0  0  0  0  0  0  0  0  0  0
   -2.8099   -0.5175    5.2742 H   0  0  0  0  0  0  0  0  0  0  0  0
   -1.2190   -0.0687    5.8551 H   0  0  0  0  0  0  0  0  0  0  0  0
   -2.4882    1.1338    5.7604 H   0  0  0  0  0  0  0  0  0  0  0  0
   -2.3680    1.5337    3.1790 N   0  0  0  0  0  0  0  0  0  0  0  0
   -2.1212    1.9597    1.8266 C   0  0  2  0  0  0  0  0  0  0  0  0
   -0.7862    1.3744    1.3854 C   0  0  0  0  0  0  0  0  0  0  0  0
    0.0859    1.0216    2.1767 O   0  0  0  0  0  0  0  0  0  0  0  0
   -2.1124    3.4765    1.7171 C   0  0  0  0  0  0  0  0  0  0  0  0
   -3.1331    1.9695    3.6908 H   0  0  0  0  0  0  0  0  0  0  0  0
   -2.9253    1.5413    1.2115 H   0  0  0  0  0  0  0  0  0  0  0  0
   -1.3133    3.9138    2.3268 H   0  0  0  0  0  0  0  0  0  0  0  0
   -1.9529    3.7988    0.6829 H   0  0  0  0  0  0  0  0  0  0  0  0
   -3.0626    3.8977    2.0629 H   0  0  0  0  0  0  0  0  0  0  0  0
   -0.6635    1.3313    0.0020 N   0  0  0  0  0  0  0  0  0  0  0  0
    0.5138    0.8305   -0.6617 C   0  0  2  0  0  0  0  0  0  0  0  0
    0.1686   -0.5484   -1.2128 C   0  0  0  0  0  0  0  0  0  0  0  0
   -0.2263   -1.4723   -0.5048 O   0  0  0  0  0  0  0  0  0  0  0  0
    1.7173    0.7406    0.2837 C   0  0  0  0  0  0  0  0  0  0  0  0
    2.1585    2.0896    0.7966 C   0  0  0  0  0  0  0  0  0  0  0  0
    2.8466    2.9551   -0.0164 N   0  0  0  0  0  0  0  0  0  0  0  0
    1.9659    2.6295    2.0464 C   0  0  0  0  0  0  0  0  0  0  0  0
    3.0699    4.0120    0.7325 C   0  0  0  0  0  0  0  0  0  0  0  0
    2.5556    3.8609    1.9903 N   0  0  0  0  0  0  0  0  0  0  0  0
   -1.4467    1.6280   -0.5753 H   0  0  0  0  0  0  0  0  0  0  0  0
    0.7146    1.5110   -1.4974 H   0  0  0  0  0  0  0  0  0  0  0  0
    2.5584    0.2428   -0.2176 H   0  0  0  0  0  0  0  0  0  0  0  0
    1.4800    0.1052    1.1472 H   0  0  0  0  0  0  0  0  0  0  0  0
    1.4815    2.2656    2.9411 H   0  0  0  0  0  0  0  0  0  0  0  0
    3.5912    4.9090    0.4290 H   0  0  0  0  0  0  0  0  0  0  0  0
    2.6023    4.5370    2.7408 H   0  0  0  0  0  0  0  0  0  0  0  0
    0.3070   -0.6060   -2.5927 N   0  0  0  0  0  0  0  0  0  0  0  0
    0.0213   -1.7903   -3.3701 C   0  0  2  0  0  0  0  0  0  0  0  0
    0.7491   -2.9628   -2.7259 C   0  0  0  0  0  0  0  0  0  0  0  0
    1.7300   -2.8251   -1.9978 O   0  0  0  0  0  0  0  0  0  0  0  0
    0.4469   -1.6166   -4.8198 C   0  0  0  0  0  0  0  0  0  0  0  0
    0.6251    0.2262   -3.0806 H   0  0  0  0  0  0  0  0  0  0  0  0
   -1.0603   -1.9541   -3.3111 H   0  0  0  0  0  0  0  0  0  0  0  0
    1.5276   -1.4514   -4.8990 H   0  0  0  0  0  0  0  0  0  0  0  0
    0.2038   -2.5038   -5.4137 H   0  0  0  0  0  0  0  0  0  0  0  0
   -0.0551   -0.7549   -5.2728 H   0  0  0  0  0  0  0  0  0  0  0  0
    0.2009   -4.1834   -3.0942 N   0  0  0  0  0  0  0  0  0  0  0  0
    0.7224   -5.4458   -2.6246 C   0  0  0  0  0  0  0  0  0  0  0  0
   -0.6238   -4.2023   -3.6869 H   0  0  0  0  0  0  0  0  0  0  0  0
    1.4599   -5.8291   -3.3450 H   0  0  0  0  0  0  0  0  0  0  0  0
    1.2055   -5.3019   -1.6469 H   0  0  0  0  0  0  0  0  0  0  0  0
   -0.1013   -6.1679   -2.5239 H   0  0  0  0  0  0  0  0  0  0  0  0
 22 24  2  0  0  0  0
 24 26  1  0  0  0  0
 23 25  2  0  0  0  0
 25 26  1  0  0  0  0
 21 22  1  0  0  0  0
 22 23  1  0  0  0  0
  1  3  1  0  0  0  0
  1  7  1  0  0  0  0
  1  2  2  0  0  0  0
 35 36  1  0  0  0  0
 36 44  1  0  0  0  0
 36 37  2  0  0  0  0
  8  9  1  0  0  0  0
  9 17  1  0  0  0  0
  9 10  2  0  0  0  0
 18 19  1  0  0  0  0
 19 34  1  0  0  0  0
 19 20  2  0  0  0  0
 35 38  1  0  0  0  0
  8 11  1  0  0  0  0
 44 45  1  0  0  0  0
 18 21  1  0  0  0  0
 34 35  1  0  0  0  0
  7  8  1  0  0  0  0
 17 18  1  0  0  0  0
 24 31  1  0  0  0  0
 25 32  1  0  0  0  0
  3  4  1  0  0  0  0
  3  5  1  0  0  0  0
  3  6  1  0  0  0  0
 38 41  1  0  0  0  0
 38 42  1  0  0  0  0
 38 43  1  0  0  0  0
 11 14  1  0  0  0  0
 11 15  1  0  0  0  0
 11 16  1  0  0  0  0
 45 47  1  0  0  0  0
 45 48  1  0  0  0  0
 45 49  1  0  0  0  0
 21 29  1  0  0  0  0
 21 30  1  0  0  0  0
 35 40  1  0  0  0  0
  8 13  1  0  0  0  0
 18 28  1  0  0  0  0
 26 33  1  0  0  0  0
 44 46  1  0  0  0  0
  7 12  1  0  0  0  0
 34 39  1  0  0  0  0
 17 27  1  0  0  0  0
M  END
$$$$

  -OEChem-05262214473D

 49 49  0     1  0  0  0  0  0999 V2000
   -1.6183    0.5613    3.8201 C   0  0  0  0  0  0  0  0  0  0  0  0
   -0.6710   -0.0534    3.3444 O   0  0  0  0  0  0  0  0  0  0  0  0
   -2.0502    0.2789    5.2208 C   0  0  0  0  0  0  0  0  0  0  0  0
   -2.8099   -0.5175    5.2742 H   0  0  0  0  0  0  0  0  0  0  0  0
   -1.2190   -0.0687    5.8551 H   0  0  0  0  0  0  0  0  0  0  0  0
   -2.4882    1.1338    5.7604 H   0  0  0  0  0  0  0  0  0  0  0  0
   -2.3680    1.5337    3.1790 N   0  0  0  0  0  0  0  0  0  0  0  0
   -2.1212    1.9597    1.8266 C   0  0  2  0  0  0  0  0  0  0  0  0
   -0.7862    1.3744    1.3854 C   0  0  0  0  0  0  0  0  0  0  0  0
    0.0859    1.0216    2.1767 O   0  0  0  0  0  0  0  0  0  0  0  0
   -2.1124    3.4765    1.7171 C   0  0  0  0  0  0  0  0  0  0  0  0
   -3.1331    1.9695    3.6908 H   0  0  0  0  0  0  0  0  0  0  0  0
   -2.9253    1.5413    1.2115 H   0  0  0  0  0  0  0  0  0  0  0  0
   -1.3133    3.9138    2.3268 H   0  0  0  0  0  0  0  0  0  0  0  0
   -1.9529    3.7988    0.6829 H   0  0  0  0  0  0  0  0  0  0  0  0
   -3.0626    3.8977    2.0629 H   0  0  0  0  0  0  0  0  0  0  0  0
   -0.6635    1.3313    0.0020 N   0  0  0  0  0  0  0  0  0  0  0  0
    0.5138    0.8305   -0.6617 C   0  0  2  0  0  0  0  0  0  0  0  0
    0.1686   -0.5484   -1.2128 C   0  0  0  0  0  0  0  0  0  0  0  0
   -0.4702   -1.3830   -0.5755 O   0  0  0  0  0  0  0  0  0  0  0  0
    1.7173    0.7406    0.2837 C   0  0  0  0  0  0  0  0  0  0  0  0
    2.1585    2.0896    0.7966 C   0  0  0  0  0  0  0  0  0  0  0  0
    2.8466    2.9551   -0.0164 N   0  0  0  0  0  0  0  0  0  0  0  0
    1.9659    2.6295    2.0464 C   0  0  0  0  0  0  0  0  0  0  0  0
    3.0699    4.0120    0.7325 C   0  0  0  0  0  0  0  0  0  0  0  0
    2.5556    3.8609    1.9903 N   0  0  0  0  0  0  0  0  0  0  0  0
   -1.4467    1.6280   -0.5753 H   0  0  0  0  0  0  0  0  0  0  0  0
    0.7146    1.5110   -1.4974 H   0  0  0  0  0  0  0  0  0  0  0  0
    2.5584    0.2428   -0.2176 H   0  0  0  0  0  0  0  0  0  0  0  0
    1.4800    0.1052    1.1472 H   0  0  0  0  0  0  0  0  0  0  0  0
    1.4815    2.2656    2.9411 H   0  0  0  0  0  0  0  0  0  0  0  0
    3.5912    4.9090    0.4290 H   0  0  0  0  0  0  0  0  0  0  0  0
    2.6023    4.5370    2.7408 H   0  0  0  0  0  0  0  0  0  0  0  0
    0.6159   -0.7138   -2.5163 N   0  0  0  0  0  0  0  0  0  0  0  0
    0.4002   -1.9203   -3.2822 C   0  0  2  0  0  0  0  0  0  0  0  0
    0.8376   -3.1036   -2.4290 C   0  0  0  0  0  0  0  0  0  0  0  0
    1.6322   -3.0010   -1.4967 O   0  0  0  0  0  0  0  0  0  0  0  0
    1.1648   -1.8856   -4.5963 C   0  0  0  0  0  0  0  0  0  0  0  0
    1.1203    0.0516   -2.9539 H   0  0  0  0  0  0  0  0  0  0  0  0
   -0.6765   -1.9853   -3.4733 H   0  0  0  0  0  0  0  0  0  0  0  0
    2.2455   -1.8205   -4.4251 H   0  0  0  0  0  0  0  0  0  0  0  0
    0.9777   -2.7877   -5.1882 H   0  0  0  0  0  0  0  0  0  0  0  0
    0.8704   -1.0173   -5.1957 H   0  0  0  0  0  0  0  0  0  0  0  0
    0.2695   -4.2948   -2.8583 N   0  0  0  0  0  0  0  0  0  0  0  0
    0.5386   -5.5618   -2.2193 C   0  0  0  0  0  0  0  0  0  0  0  0
   -0.3933   -4.2835   -3.6279 H   0  0  0  0  0  0  0  0  0  0  0  0
    1.3804   -6.0569   -2.7254 H   0  0  0  0  0  0  0  0  0  0  0  0
    0.7944   -5.3924   -1.1629 H   0  0  0  0  0  0  0  0  0  0  0  0
   -0.3543   -6.2011   -2.2824 H   0  0  0  0  0  0  0  0  0  0  0  0
 22 24  2  0  0  0  0
 24 26  1  0  0  0  0
 23 25  2  0  0  0  0
 25 26  1  0  0  0  0
 21 22  1  0  0  0  0
 22 23  1  0  0  0  0
  1  3  1  0  0  0  0
  1  7  1  0  0  0  0
  1  2  2  0  0  0  0
 35 36  1  0  0  0  0
 36 44  1  0  0  0  0
 36 37  2  0  0  0  0
  8  9  1  0  0  0  0
  9 17  1  0  0  0  0
  9 10  2  0  0  0  0
 18 19  1  0  0  0  0
 19 34  1  0  0  0  0
 19 20  2  0  0  0  0
 35 38  1  0  0  0  0
  8 11  1  0  0  0  0
 44 45  1  0  0  0  0
 18 21  1  0  0  0  0
 34 35  1  0  0  0  0
  7  8  1  0  0  0  0
 17 18  1  0  0  0  0
 24 31  1  0  0  0  0
 25 32  1  0  0  0  0
  3  4  1  0  0  0  0
  3  5  1  0  0  0  0
  3  6  1  0  0  0  0
 38 41  1  0  0  0  0
 38 42  1  0  0  0  0
 38 43  1  0  0  0  0
 11 14  1  0  0  0  0
 11 15  1  0  0  0  0
 11 16  1  0  0  0  0
 45 47  1  0  0  0  0
 45 48  1  0  0  0  0
 45 49  1  0  0  0  0
 21 29  1  0  0  0  0
 21 30  1  0  0  0  0
 35 40  1  0  0  0  0
  8 13  1  0  0  0  0
 18 28  1  0  0  0  0
 26 33  1  0  0  0  0
 44 46  1  0  0  0  0
  7 12  1  0  0  0  0
 34 39  1  0  0  0  0
 17 27  1  0  0  0  0
M  END
$$$$

  -OEChem-05262214473D

 49 49  0     1  0  0  0  0  0999 V2000
   -1.6183    0.5613    3.8201 C   0  0  0  0  0  0  0  0  0  0  0  0
   -0.6710   -0.0534    3.3444 O   0  0  0  0  0  0  0  0  0  0  0  0
   -2.0502    0.2789    5.2208 C   0  0  0  0  0  0  0  0  0  0  0  0
   -2.8099   -0.5175    5.2742 H   0  0  0  0  0  0  0  0  0  0  0  0
   -1.2190   -0.0687    5.8551 H   0  0  0  0  0  0  0  0  0  0  0  0
   -2.4882    1.1338    5.7604 H   0  0  0  0  0  0  0  0  0  0  0  0
   -2.3680    1.5337    3.1790 N   0  0  0  0  0  0  0  0  0  0  0  0
   -2.1212    1.9597    1.8266 C   0  0  2  0  0  0  0  0  0  0  0  0
   -0.7862    1.3744    1.3854 C   0  0  0  0  0  0  0  0  0  0  0  0
    0.0859    1.0216    2.1767 O   0  0  0  0  0  0  0  0  0  0  0  0
   -2.1124    3.4765    1.7171 C   0  0  0  0  0  0  0  0  0  0  0  0
   -3.1331    1.9695    3.6908 H   0  0  0  0  0  0  0  0  0  0  0  0
   -2.9253    1.5413    1.2115 H   0  0  0  0  0  0  0  0  0  0  0  0
   -1.3133    3.9138    2.3268 H   0  0  0  0  0  0  0  0  0  0  0  0
   -1.9529    3.7988    0.6829 H   0  0  0  0  0  0  0  0  0  0  0  0
   -3.0626    3.8977    2.0629 H   0  0  0  0  0  0  0  0  0  0  0  0
   -0.6635    1.3313    0.0020 N   0  0  0  0  0  0  0  0  0  0  0  0
    0.5138    0.8305   -0.6617 C   0  0  2  0  0  0  0  0  0  0  0  0
    0.1686   -0.5484   -1.2128 C   0  0  0  0  0  0  0  0  0  0  0  0
   -0.6809   -1.2781   -0.7061 O   0  0  0  0  0  0  0  0  0  0  0  0
    1.7173    0.7406    0.2837 C   0  0  0  0  0  0  0  0  0  0  0  0
    2.1585    2.0896    0.7966 C   0  0  0  0  0  0  0  0  0  0  0  0
    2.8466    2.9551   -0.0164 N   0  0  0  0  0  0  0  0  0  0  0  0
    1.9659    2.6295    2.0464 C   0  0  0  0  0  0  0  0  0  0  0  0
    3.0699    4.0120    0.7325 C   0  0  0  0  0  0  0  0  0  0  0  0
    2.5556    3.8609    1.9903 N   0  0  0  0  0  0  0  0  0  0  0  0
   -1.4467    1.6280   -0.5753 H   0  0  0  0  0  0  0  0  0  0  0  0
    0.7146    1.5110   -1.4974 H   0  0  0  0  0  0  0  0  0  0  0  0
    2.5584    0.2428   -0.2176 H   0  0  0  0  0  0  0  0  0  0  0  0
    1.4800    0.1052    1.1472 H   0  0  0  0  0  0  0  0  0  0  0  0
    1.4815    2.2656    2.9411 H   0  0  0  0  0  0  0  0  0  0  0  0
    3.5912    4.9090    0.4290 H   0  0  0  0  0  0  0  0  0  0  0  0
    2.6023    4.5370    2.7408 H   0  0  0  0  0  0  0  0  0  0  0  0
    0.8863   -0.8424   -2.3639 N   0  0  0  0  0  0  0  0  0  0  0  0
    0.7334   -2.0761   -3.1010 C   0  0  2  0  0  0  0  0  0  0  0  0
    0.8403   -3.2305   -2.1133 C   0  0  0  0  0  0  0  0  0  0  0  0
    1.4039   -3.1323   -1.0252 O   0  0  0  0  0  0  0  0  0  0  0  0
    1.7808   -2.1995   -4.1967 C   0  0  0  0  0  0  0  0  0  0  0  0
    1.5526   -0.1560   -2.7054 H   0  0  0  0  0  0  0  0  0  0  0  0
   -0.2708   -2.0608   -3.5384 H   0  0  0  0  0  0  0  0  0  0  0  0
    2.7934   -2.2165   -3.7776 H   0  0  0  0  0  0  0  0  0  0  0  0
    1.6459   -3.1211   -4.7725 H   0  0  0  0  0  0  0  0  0  0  0  0
    1.7218   -1.3529   -4.8892 H   0  0  0  0  0  0  0  0  0  0  0  0
    0.2702   -4.3951   -2.6079 N   0  0  0  0  0  0  0  0  0  0  0  0
    0.2554   -5.6329   -1.8639 C   0  0  0  0  0  0  0  0  0  0  0  0
   -0.1921   -4.3801   -3.5123 H   0  0  0  0  0  0  0  0  0  0  0  0
    1.1373   -6.2332   -2.1322 H   0  0  0  0  0  0  0  0  0  0  0  0
    0.2756   -5.4131   -0.7863 H   0  0  0  0  0  0  0  0  0  0  0  0
   -0.6583   -6.1954   -2.1063 H   0  0  0  0  0  0  0  0  0  0  0  0
 22 24  2  0  0  0  0
 24 26  1  0  0  0  0
 23 25  2  0  0  0  0
 25 26  1  0  0  0  0
 21 22  1  0  0  0  0
 22 23  1  0  0  0  0
  1  3  1  0  0  0  0
  1  7  1  0  0  0  0
  1  2  2  0  0  0  0
 35 36  1  0  0  0  0
 36 44  1  0  0  0  0
 36 37  2  0  0  0  0
  8  9  1  0  0  0  0
  9 17  1  0  0  0  0
  9 10  2  0  0  0  0
 18 19  1  0  0  0  0
 19 34  1  0  0  0  0
 19 20  2  0  0  0  0
 35 38  1  0  0  0  0
  8 11  1  0  0  0  0
 44 45  1  0  0  0  0
 18 21  1  0  0  0  0
 34 35  1  0  0  0  0
  7  8  1  0  0  0  0
 17 18  1  0  0  0  0
 24 31  1  0  0  0  0
 25 32  1  0  0  0  0
  3  4  1  0  0  0  0
  3  5  1  0  0  0  0
  3  6  1  0  0  0  0
 38 41  1  0  0  0  0
 38 42  1  0  0  0  0
 38 43  1  0  0  0  0
 11 14  1  0  0  0  0
 11 15  1  0  0  0  0
 11 16  1  0  0  0  0
 45 47  1  0  0  0  0
 45 48  1  0  0  0  0
 45 49  1  0  0  0  0
 21 29  1  0  0  0  0
 21 30  1  0  0  0  0
 35 40  1  0  0  0  0
  8 13  1  0  0  0  0
 18 28  1  0  0  0  0
 26 33  1  0  0  0  0
 44 46  1  0  0  0  0
  7 12  1  0  0  0  0
 34 39  1  0  0  0  0
 17 27  1  0  0  0  0
M  END
$$$$

  -OEChem-05262214473D

 49 49  0     1  0  0  0  0  0999 V2000
   -1.6183    0.5613    3.8201 C   0  0  0  0  0  0  0  0  0  0  0  0
   -0.6710   -0.0534    3.3444 O   0  0  0  0  0  0  0  0  0  0  0  0
   -2.0502    0.2789    5.2208 C   0  0  0  0  0  0  0  0  0  0  0  0
   -2.8099   -0.5175    5.2742 H   0  0  0  0  0  0  0  0  0  0  0  0
   -1.2190   -0.0687    5.8551 H   0  0  0  0  0  0  0  0  0  0  0  0
   -2.4882    1.1338    5.7604 H   0  0  0  0  0  0  0  0  0  0  0  0
   -2.3680    1.5337    3.1790 N   0  0  0  0  0  0  0  0  0  0  0  0
   -2.1212    1.9597    1.8266 C   0  0  2  0  0  0  0  0  0  0  0  0
   -0.7862    1.3744    1.3854 C   0  0  0  0  0  0  0  0  0  0  0  0
    0.0859    1.0216    2.1767 O   0  0  0  0  0  0  0  0  0  0  0  0
   -2.1124    3.4765    1.7171 C   0  0  0  0  0  0  0  0  0  0  0  0
   -3.1331    1.9695    3.6908 H   0  0  0  0  0  0  0  0  0  0  0  0
   -2.9253    1.5413    1.2115 H   0  0  0  0  0  0  0  0  0  0  0  0
   -1.3133    3.9138    2.3268 H   0  0  0  0  0  0  0  0  0  0  0  0
   -1.9529    3.7988    0.6829 H   0  0  0  0  0  0  0  0  0  0  0  0
   -3.0626    3.8977    2.0629 H   0  0  0  0  0  0  0  0  0  0  0  0
   -0.6635    1.3313    0.0020 N   0  0  0  0  0  0  0  0  0  0  0  0
    0.5138    0.8305   -0.6617 C   0  0  2  0  0  0  0  0  0  0  0  0
    0.1686   -0.5484   -1.2128 C   0  0  0  0  0  0  0  0  0  0  0  0
   -0.8440   -1.1647   -0.8877 O   0  0  0  0  0  0  0  0  0  0  0  0
    1.7173    0.7406    0.2837 C   0  0  0  0  0  0  0  0  0  0  0  0
    2.1585    2.0896    0.7966 C   0  0  0  0  0  0  0  0  0  0  0  0
    2.8466    2.9551   -0.0164 N   0  0  0  0  0  0  0  0  0  0  0  0
    1.9659    2.6295    2.0464 C   0  0  0  0  0  0  0  0  0  0  0  0
    3.0699    4.0120    0.7325 C   0  0  0  0  0  0  0  0  0  0  0  0
    2.5556    3.8609    1.9903 N   0  0  0  0  0  0  0  0  0  0  0  0
   -1.4467    1.6280   -0.5753 H   0  0  0  0  0  0  0  0  0  0  0  0
    0.7146    1.5110   -1.4974 H   0  0  0  0  0  0  0  0  0  0  0  0
    2.5584    0.2428   -0.2176 H   0  0  0  0  0  0  0  0  0  0  0  0
    1.4800    0.1052    1.1472 H   0  0  0  0  0  0  0  0  0  0  0  0
    1.4815    2.2656    2.9411 H   0  0  0  0  0  0  0  0  0  0  0  0
    3.5912    4.9090    0.4290 H   0  0  0  0  0  0  0  0  0  0  0  0
    2.6023    4.5370    2.7408 H   0  0  0  0  0  0  0  0  0  0  0  0
    1.0998   -0.9830   -2.1458 N   0  0  0  0  0  0  0  0  0  0  0  0
    0.9983   -2.2472   -2.8388 C   0  0  2  0  0  0  0  0  0  0  0  0
    0.7572   -3.3348   -1.8002 C   0  0  0  0  0  0  0  0  0  0  0  0
    1.0608   -3.2102   -0.6156 O   0  0  0  0  0  0  0  0  0  0  0  0
    2.2528   -2.5369   -3.6481 C   0  0  0  0  0  0  0  0  0  0  0  0
    1.8925   -0.3823   -2.3519 H   0  0  0  0  0  0  0  0  0  0  0  0
    0.1292   -2.1756   -3.5018 H   0  0  0  0  0  0  0  0  0  0  0  0
    3.1341   -2.6123   -3.0007 H   0  0  0  0  0  0  0  0  0  0  0  0
    2.1629   -3.4813   -4.1951 H   0  0  0  0  0  0  0  0  0  0  0  0
    2.4411   -1.7388   -4.3742 H   0  0  0  0  0  0  0  0  0  0  0  0
    0.2028   -4.4773   -2.3600 N   0  0  0  0  0  0  0  0  0  0  0  0
   -0.1080   -5.6543   -1.5828 C   0  0  0  0  0  0  0  0  0  0  0  0
   -0.0338   -4.4855   -3.3478 H   0  0  0  0  0  0  0  0  0  0  0  0
    0.7470   -6.3459   -1.6058 H   0  0  0  0  0  0  0  0  0  0  0  0
   -0.3156   -5.3625   -0.5428 H   0  0  0  0  0  0  0  0  0  0  0  0
   -0.9927   -6.1511   -2.0078 H   0  0  0  0  0  0  0  0  0  0  0  0
 22 24  2  0  0  0  0
 24 26  1  0  0  0  0
 23 25  2  0  0  0  0
 25 26  1  0  0  0  0
 21 22  1  0  0  0  0
 22 23  1  0  0  0  0
  1  3  1  0  0  0  0
  1  7  1  0  0  0  0
  1  2  2  0  0  0  0
 35 36  1  0  0  0  0
 36 44  1  0  0  0  0
 36 37  2  0  0  0  0
  8  9  1  0  0  0  0
  9 17  1  0  0  0  0
  9 10  2  0  0  0  0
 18 19  1  0  0  0  0
 19 34  1  0  0  0  0
 19 20  2  0  0  0  0
 35 38  1  0  0  0  0
  8 11  1  0  0  0  0
 44 45  1  0  0  0  0
 18 21  1  0  0  0  0
 34 35  1  0  0  0  0
  7  8  1  0  0  0  0
 17 18  1  0  0  0  0
 24 31  1  0  0  0  0
 25 32  1  0  0  0  0
  3  4  1  0  0  0  0
  3  5  1  0  0  0  0
  3  6  1  0  0  0  0
 38 41  1  0  0  0  0
 38 42  1  0  0  0  0
 38 43  1  0  0  0  0
 11 14  1  0  0  0  0
 11 15  1  0  0  0  0
 11 16  1  0  0  0  0
 45 47  1  0  0  0  0
 45 48  1  0  0  0  0
 45 49  1  0  0  0  0
 21 29  1  0  0  0  0
 21 30  1  0  0  0  0
 35 40  1  0  0  0  0
  8 13  1  0  0  0  0
 18 28  1  0  0  0  0
 26 33  1  0  0  0  0
 44 46  1  0  0  0  0
  7 12  1  0  0  0  0
 34 39  1  0  0  0  0
 17 27  1  0  0  0  0
M  END
$$$$

  -OEChem-05262214473D

 49 49  0     1  0  0  0  0  0999 V2000
   -1.6183    0.5613    3.8201 C   0  0  0  0  0  0  0  0  0  0  0  0
   -0.6710   -0.0534    3.3444 O   0  0  0  0  0  0  0  0  0  0  0  0
   -2.0502    0.2789    5.2208 C   0  0  0  0  0  0  0  0  0  0  0  0
   -2.8099   -0.5175    5.2742 H   0  0  0  0  0  0  0  0  0  0  0  0
   -1.2190   -0.0687    5.8551 H   0  0  0  0  0  0  0  0  0  0  0  0
   -2.4882    1.1338    5.7604 H   0  0  0  0  0  0  0  0  0  0  0  0
   -2.3680    1.5337    3.1790 N   0  0  0  0  0  0  0  0  0  0  0  0
   -2.1212    1.9597    1.8266 C   0  0  2  0  0  0  0  0  0  0  0  0
   -0.7862    1.3744    1.3854 C   0  0  0  0  0  0  0  0  0  0  0  0
    0.0859    1.0216    2.1767 O   0  0  0  0  0  0  0  0  0  0  0  0
   -2.1124    3.4765    1.7171 C   0  0  0  0  0  0  0  0  0  0  0  0
   -3.1331    1.9695    3.6908 H   0  0  0  0  0  0  0  0  0  0  0  0
   -2.9253    1.5413    1.2115 H   0  0  0  0  0  0  0  0  0  0  0  0
   -1.3133    3.9138    2.3268 H   0  0  0  0  0  0  0  0  0  0  0  0
   -1.9529    3.7988    0.6829 H   0  0  0  0  0  0  0  0  0  0  0  0
   -3.0626    3.8977    2.0629 H   0  0  0  0  0  0  0  0  0  0  0  0
   -0.6635    1.3313    0.0020 N   0  0  0  0  0  0  0  0  0  0  0  0
    0.5138    0.8305   -0.6617 C   0  0  2  0  0  0  0  0  0  0  0  0
    0.0782   -0.3491   -1.5237 C   0  0  0  0  0  0  0  0  0  0  0  0
   -1.0920   -0.7138   -1.6167 O   0  0  0  0  0  0  0  0  0  0  0  0
    1.5966    0.3935    0.3316 C   0  0  0  0  0  0  0  0  0  0  0  0
    2.1279    1.5396    1.1574 C   0  0  0  0  0  0  0  0  0  0  0  0
    2.9865    2.4579    0.6069 N   0  0  0  0  0  0  0  0  0  0  0  0
    1.8682    1.8307    2.4758 C   0  0  0  0  0  0  0  0  0  0  0  0
    3.2461    3.3002    1.5822 C   0  0  0  0  0  0  0  0  0  0  0  0
    2.5918    2.9608    2.7337 N   0  0  0  0  0  0  0  0  0  0  0  0
   -1.4467    1.6280   -0.5753 H   0  0  0  0  0  0  0  0  0  0  0  0
    0.8727    1.6369   -1.3119 H   0  0  0  0  0  0  0  0  0  0  0  0
    2.4252   -0.0945   -0.1993 H   0  0  0  0  0  0  0  0  0  0  0  0
    1.2038   -0.3701    1.0159 H   0  0  0  0  0  0  0  0  0  0  0  0
    1.2575    1.3559    3.2302 H   0  0  0  0  0  0  0  0  0  0  0  0
    3.8909    4.1656    1.5216 H   0  0  0  0  0  0  0  0  0  0  0  0
    2.6349    3.4560    3.6144 H   0  0  0  0  0  0  0  0  0  0  0  0
    1.1442   -0.9109   -2.2125 N   0  0  0  0  0  0  0  0  0  0  0  0
    1.0033   -2.0285   -3.1180 C   0  0  2  0  0  0  0  0  0  0  0  0
    0.2160   -3.1178   -2.4017 C   0  0  0  0  0  0  0  0  0  0  0  0
    0.1427   -3.1975   -1.1772 O   0  0  0  0  0  0  0  0  0  0  0  0
    2.3590   -2.5470   -3.5721 C   0  0  0  0  0  0  0  0  0  0  0  0
    2.0699   -0.5167   -2.0732 H   0  0  0  0  0  0  0  0  0  0  0  0
    0.4293   -1.6680   -3.9785 H   0  0  0  0  0  0  0  0  0  0  0  0
    2.9486   -2.9126   -2.7234 H   0  0  0  0  0  0  0  0  0  0  0  0
    2.2501   -3.3751   -4.2801 H   0  0  0  0  0  0  0  0  0  0  0  0
    2.9357   -1.7542   -4.0606 H   0  0  0  0  0  0  0  0  0  0  0  0
   -0.3596   -4.0155   -3.2899 N   0  0  0  0  0  0  0  0  0  0  0  0
   -1.1466   -5.1460   -2.8556 C   0  0  0  0  0  0  0  0  0  0  0  0
   -0.2629   -3.8613   -4.2892 H   0  0  0  0  0  0  0  0  0  0  0  0
   -0.4975   -6.0283   -2.7548 H   0  0  0  0  0  0  0  0  0  0  0  0
   -1.6096   -4.9186   -1.8840 H   0  0  0  0  0  0  0  0  0  0  0  0
   -1.9326   -5.3520   -3.5970 H   0  0  0  0  0  0  0  0  0  0  0  0
 22 24  2  0  0  0  0
 24 26  1  0  0  0  0
 23 25  2  0  0  0  0
 25 26  1  0  0  0  0
 21 22  1  0  0  0  0
 22 23  1  0  0  0  0
  1  3  1  0  0  0  0
  1  7  1  0  0  0  0
  1  2  2  0  0  0  0
 35 36  1  0  0  0  0
 36 44  1  0  0  0  0
 36 37  2  0  0  0  0
  8  9  1  0  0  0  0
  9 17  1  0  0  0  0
  9 10  2  0  0  0  0
 18 19  1  0  0  0  0
 19 34  1  0  0  0  0
 19 20  2  0  0  0  0
 35 38  1  0  0  0  0
  8 11  1  0  0  0  0
 44 45  1  0  0  0  0
 18 21  1  0  0  0  0
 34 35  1  0  0  0  0
  7  8  1  0  0  0  0
 17 18  1  0  0  0  0
 24 31  1  0  0  0  0
 25 32  1  0  0  0  0
  3  4  1  0  0  0  0
  3  5  1  0  0  0  0
  3  6  1  0  0  0  0
 38 41  1  0  0  0  0
 38 42  1  0  0  0  0
 38 43  1  0  0  0  0
 11 14  1  0  0  0  0
 11 15  1  0  0  0  0
 11 16  1  0  0  0  0
 45 47  1  0  0  0  0
 45 48  1  0  0  0  0
 45 49  1  0  0  0  0
 21 29  1  0  0  0  0
 21 30  1  0  0  0  0
 35 40  1  0  0  0  0
  8 13  1  0  0  0  0
 18 28  1  0  0  0  0
 26 33  1  0  0  0  0
 44 46  1  0  0  0  0
  7 12  1  0  0  0  0
 34 39  1  0  0  0  0
 17 27  1  0  0  0  0
M  END
$$$$

  -OEChem-05262214473D

 49 49  0     1  0  0  0  0  0999 V2000
   -1.6183    0.5613    3.8201 C   0  0  0  0  0  0  0  0  0  0  0  0
   -0.6710   -0.0534    3.3444 O   0  0  0  0  0  0  0  0  0  0  0  0
   -2.0502    0.2789    5.2208 C   0  0  0  0  0  0  0  0  0  0  0  0
   -2.8099   -0.5175    5.2742 H   0  0  0  0  0  0  0  0  0  0  0  0
   -1.2190   -0.0687    5.8551 H   0  0  0  0  0  0  0  0  0  0  0  0
   -2.4882    1.1338    5.7604 H   0  0  0  0  0  0  0  0  0  0  0  0
   -2.3680    1.5337    3.1790 N   0  0  0  0  0  0  0  0  0  0  0  0
   -2.1212    1.9597    1.8266 C   0  0  2  0  0  0  0  0  0  0  0  0
   -0.7862    1.3744    1.3854 C   0  0  0  0  0  0  0  0  0  0  0  0
    0.0859    1.0216    2.1767 O   0  0  0  0  0  0  0  0  0  0  0  0
   -2.1124    3.4765    1.7171 C   0  0  0  0  0  0  0  0  0  0  0  0
   -3.1331    1.9695    3.6908 H   0  0  0  0  0  0  0  0  0  0  0  0
   -2.9253    1.5413    1.2115 H   0  0  0  0  0  0  0  0  0  0  0  0
   -1.3133    3.9138    2.3268 H   0  0  0  0  0  0  0  0  0  0  0  0
   -1.9529    3.7988    0.6829 H   0  0  0  0  0  0  0  0  0  0  0  0
   -3.0626    3.8977    2.0629 H   0  0  0  0  0  0  0  0  0  0  0  0
   -0.6635    1.3313    0.0020 N   0  0  0  0  0  0  0  0  0  0  0  0
    0.5138    0.8305   -0.6617 C   0  0  2  0  0  0  0  0  0  0  0  0
    0.0782   -0.3491   -1.5237 C   0  0  0  0  0  0  0  0  0  0  0  0
   -1.0933   -0.5547   -1.8338 O   0  0  0  0  0  0  0  0  0  0  0  0
    1.5966    0.3935    0.3316 C   0  0  0  0  0  0  0  0  0  0  0  0
    2.1279    1.5396    1.1574 C   0  0  0  0  0  0  0  0  0  0  0  0
    2.9865    2.4579    0.6069 N   0  0  0  0  0  0  0  0  0  0  0  0
    1.8682    1.8307    2.4758 C   0  0  0  0  0  0  0  0  0  0  0  0
    3.2461    3.3002    1.5822 C   0  0  0  0  0  0  0  0  0  0  0  0
    2.5918    2.9608    2.7337 N   0  0  0  0  0  0  0  0  0  0  0  0
   -1.4467    1.6280   -0.5753 H   0  0  0  0  0  0  0  0  0  0  0  0
    0.8727    1.6369   -1.3119 H   0  0  0  0  0  0  0  0  0  0  0  0
    2.4252   -0.0945   -0.1993 H   0  0  0  0  0  0  0  0  0  0  0  0
    1.2038   -0.3701    1.0159 H   0  0  0  0  0  0  0  0  0  0  0  0
    1.2575    1.3559    3.2302 H   0  0  0  0  0  0  0  0  0  0  0  0
    3.8909    4.1656    1.5216 H   0  0  0  0  0  0  0  0  0  0  0  0
    2.6349    3.4560    3.6144 H   0  0  0  0  0  0  0  0  0  0  0  0
    1.1585   -1.1124   -1.9440 N   0  0  0  0  0  0  0  0  0  0  0  0
    1.0265   -2.2756   -2.7915 C   0  0  2  0  0  0  0  0  0  0  0  0
   -0.0433   -3.1771   -2.1895 C   0  0  0  0  0  0  0  0  0  0  0  0
   -0.3650   -3.1367   -1.0038 O   0  0  0  0  0  0  0  0  0  0  0  0
    2.3483   -3.0155   -2.9255 C   0  0  0  0  0  0  0  0  0  0  0  0
    2.0888   -0.8397   -1.6407 H   0  0  0  0  0  0  0  0  0  0  0  0
    0.6934   -1.9168   -3.7715 H   0  0  0  0  0  0  0  0  0  0  0  0
    2.6980   -3.3826   -1.9537 H   0  0  0  0  0  0  0  0  0  0  0  0
    2.2534   -3.8802   -3.5906 H   0  0  0  0  0  0  0  0  0  0  0  0
    3.1242   -2.3571   -3.3308 H   0  0  0  0  0  0  0  0  0  0  0  0
   -0.5661   -4.0615   -3.1226 N   0  0  0  0  0  0  0  0  0  0  0  0
   -1.5870   -5.0287   -2.7935 C   0  0  0  0  0  0  0  0  0  0  0  0
   -0.2540   -4.0116   -4.0879 H   0  0  0  0  0  0  0  0  0  0  0  0
   -1.1136   -5.9801   -2.5094 H   0  0  0  0  0  0  0  0  0  0  0  0
   -2.1897   -4.6539   -1.9531 H   0  0  0  0  0  0  0  0  0  0  0  0
   -2.2357   -5.1887   -3.6673 H   0  0  0  0  0  0  0  0  0  0  0  0
 22 24  2  0  0  0  0
 24 26  1  0  0  0  0
 23 25  2  0  0  0  0
 25 26  1  0  0  0  0
 21 22  1  0  0  0  0
 22 23  1  0  0  0  0
  1  3  1  0  0  0  0
  1  7  1  0  0  0  0
  1  2  2  0  0  0  0
 35 36  1  0  0  0  0
 36 44  1  0  0  0  0
 36 37  2  0  0  0  0
  8  9  1  0  0  0  0
  9 17  1  0  0  0  0
  9 10  2  0  0  0  0
 18 19  1  0  0  0  0
 19 34  1  0  0  0  0
 19 20  2  0  0  0  0
 35 38  1  0  0  0  0
  8 11  1  0  0  0  0
 44 45  1  0  0  0  0
 18 21  1  0  0  0  0
 34 35  1  0  0  0  0
  7  8  1  0  0  0  0
 17 18  1  0  0  0  0
 24 31  1  0  0  0  0
 25 32  1  0  0  0  0
  3  4  1  0  0  0  0
  3  5  1  0  0  0  0
  3  6  1  0  0  0  0
 38 41  1  0  0  0  0
 38 42  1  0  0  0  0
 38 43  1  0  0  0  0
 11 14  1  0  0  0  0
 11 15  1  0  0  0  0
 11 16  1  0  0  0  0
 45 47  1  0  0  0  0
 45 48  1  0  0  0  0
 45 49  1  0  0  0  0
 21 29  1  0  0  0  0
 21 30  1  0  0  0  0
 35 40  1  0  0  0  0
  8 13  1  0  0  0  0
 18 28  1  0  0  0  0
 26 33  1  0  0  0  0
 44 46  1  0  0  0  0
  7 12  1  0  0  0  0
 34 39  1  0  0  0  0
 17 27  1  0  0  0  0
M  END
$$$$

  -OEChem-05262214473D

 49 49  0     1  0  0  0  0  0999 V2000
   -1.6183    0.5613    3.8201 C   0  0  0  0  0  0  0  0  0  0  0  0
   -0.6710   -0.0534    3.3444 O   0  0  0  0  0  0  0  0  0  0  0  0
   -2.0502    0.2789    5.2208 C   0  0  0  0  0  0  0  0  0  0  0  0
   -2.8099   -0.5175    5.2742 H   0  0  0  0  0  0  0  0  0  0  0  0
   -1.2190   -0.0687    5.8551 H   0  0  0  0  0  0  0  0  0  0  0  0
   -2.4882    1.1338    5.7604 H   0  0  0  0  0  0  0  0  0  0  0  0
   -2.3680    1.5337    3.1790 N   0  0  0  0  0  0  0  0  0  0  0  0
   -2.1212    1.9597    1.8266 C   0  0  2  0  0  0  0  0  0  0  0  0
   -0.7862    1.3744    1.3854 C   0  0  0  0  0  0  0  0  0  0  0  0
    0.0859    1.0216    2.1767 O   0  0  0  0  0  0  0  0  0  0  0  0
   -2.1124    3.4765    1.7171 C   0  0  0  0  0  0  0  0  0  0  0  0
   -3.1331    1.9695    3.6908 H   0  0  0  0  0  0  0  0  0  0  0  0
   -2.9253    1.5413    1.2115 H   0  0  0  0  0  0  0  0  0  0  0  0
   -1.3133    3.9138    2.3268 H   0  0  0  0  0  0  0  0  0  0  0  0
   -1.9529    3.7988    0.6829 H   0  0  0  0  0  0  0  0  0  0  0  0
   -3.0626    3.8977    2.0629 H   0  0  0  0  0  0  0  0  0  0  0  0
   -0.6635    1.3313    0.0020 N   0  0  0  0  0  0  0  0  0  0  0  0
    0.5138    0.8305   -0.6617 C   0  0  2  0  0  0  0  0  0  0  0  0
    0.0782   -0.3491   -1.5237 C   0  0  0  0  0  0  0  0  0  0  0  0
   -1.0279   -0.4168   -2.0555 O   0  0  0  0  0  0  0  0  0  0  0  0
    1.5966    0.3935    0.3316 C   0  0  0  0  0  0  0  0  0  0  0  0
    2.1279    1.5396    1.1574 C   0  0  0  0  0  0  0  0  0  0  0  0
    2.9865    2.4579    0.6069 N   0  0  0  0  0  0  0  0  0  0  0  0
    1.8682    1.8307    2.4758 C   0  0  0  0  0  0  0  0  0  0  0  0
    3.2461    3.3002    1.5822 C   0  0  0  0  0  0  0  0  0  0  0  0
    2.5918    2.9608    2.7337 N   0  0  0  0  0  0  0  0  0  0  0  0
   -1.4467    1.6280   -0.5753 H   0  0  0  0  0  0  0  0  0  0  0  0
    0.8727    1.6369   -1.3119 H   0  0  0  0  0  0  0  0  0  0  0  0
    2.4252   -0.0945   -0.1993 H   0  0  0  0  0  0  0  0  0  0  0  0
    1.2038   -0.3701    1.0159 H   0  0  0  0  0  0  0  0  0  0  0  0
    1.2575    1.3559    3.2302 H   0  0  0  0  0  0  0  0  0  0  0  0
    3.8909    4.1656    1.5216 H   0  0  0  0  0  0  0  0  0  0  0  0
    2.6349    3.4560    3.6144 H   0  0  0  0  0  0  0  0  0  0  0  0
    1.0891   -1.2893   -1.6669 N   0  0  0  0  0  0  0  0  0  0  0  0
    0.9473   -2.4936   -2.4532 C   0  0  2  0  0  0  0  0  0  0  0  0
   -0.3450   -3.1807   -2.0321 C   0  0  0  0  0  0  0  0  0  0  0  0
   -0.8814   -2.9909   -0.9424 O   0  0  0  0  0  0  0  0  0  0  0  0
    2.1400   -3.4187   -2.2685 C   0  0  0  0  0  0  0  0  0  0  0  0
    1.9732   -1.1225   -1.1954 H   0  0  0  0  0  0  0  0  0  0  0  0
    0.8707   -2.1805   -3.5002 H   0  0  0  0  0  0  0  0  0  0  0  0
    2.2330   -3.7429   -1.2255 H   0  0  0  0  0  0  0  0  0  0  0  0
    2.0445   -4.3175   -2.8867 H   0  0  0  0  0  0  0  0  0  0  0  0
    3.0718   -2.9130   -2.5436 H   0  0  0  0  0  0  0  0  0  0  0  0
   -0.8058   -4.0634   -2.9989 N   0  0  0  0  0  0  0  0  0  0  0  0
   -2.0076   -4.8464   -2.8304 C   0  0  0  0  0  0  0  0  0  0  0  0
   -0.3078   -4.1433   -3.8806 H   0  0  0  0  0  0  0  0  0  0  0  0
   -1.7508   -5.8253   -2.3993 H   0  0  0  0  0  0  0  0  0  0  0  0
   -2.6975   -4.3184   -2.1557 H   0  0  0  0  0  0  0  0  0  0  0  0
   -2.4905   -4.9918   -3.8080 H   0  0  0  0  0  0  0  0  0  0  0  0
 22 24  2  0  0  0  0
 24 26  1  0  0  0  0
 23 25  2  0  0  0  0
 25 26  1  0  0  0  0
 21 22  1  0  0  0  0
 22 23  1  0  0  0  0
  1  3  1  0  0  0  0
  1  7  1  0  0  0  0
  1  2  2  0  0  0  0
 35 36  1  0  0  0  0
 36 44  1  0  0  0  0
 36 37  2  0  0  0  0
  8  9  1  0  0  0  0
  9 17  1  0  0  0  0
  9 10  2  0  0  0  0
 18 19  1  0  0  0  0
 19 34  1  0  0  0  0
 19 20  2  0  0  0  0
 35 38  1  0  0  0  0
  8 11  1  0  0  0  0
 44 45  1  0  0  0  0
 18 21  1  0  0  0  0
 34 35  1  0  0  0  0
  7  8  1  0  0  0  0
 17 18  1  0  0  0  0
 24 31  1  0  0  0  0
 25 32  1  0  0  0  0
  3  4  1  0  0  0  0
  3  5  1  0  0  0  0
  3  6  1  0  0  0  0
 38 41  1  0  0  0  0
 38 42  1  0  0  0  0
 38 43  1  0  0  0  0
 11 14  1  0  0  0  0
 11 15  1  0  0  0  0
 11 16  1  0  0  0  0
 45 47  1  0  0  0  0
 45 48  1  0  0  0  0
 45 49  1  0  0  0  0
 21 29  1  0  0  0  0
 21 30  1  0  0  0  0
 35 40  1  0  0  0  0
  8 13  1  0  0  0  0
 18 28  1  0  0  0  0
 26 33  1  0  0  0  0
 44 46  1  0  0  0  0
  7 12  1  0  0  0  0
 34 39  1  0  0  0  0
 17 27  1  0  0  0  0
M  END
$$$$

  -OEChem-05262214473D

 49 49  0     1  0  0  0  0  0999 V2000
   -1.6183    0.5613    3.8201 C   0  0  0  0  0  0  0  0  0  0  0  0
   -0.6710   -0.0534    3.3444 O   0  0  0  0  0  0  0  0  0  0  0  0
   -2.0502    0.2789    5.2208 C   0  0  0  0  0  0  0  0  0  0  0  0
   -2.8099   -0.5175    5.2742 H   0  0  0  0  0  0  0  0  0  0  0  0
   -1.2190   -0.0687    5.8551 H   0  0  0  0  0  0  0  0  0  0  0  0
   -2.4882    1.1338    5.7604 H   0  0  0  0  0  0  0  0  0  0  0  0
   -2.3680    1.5337    3.1790 N   0  0  0  0  0  0  0  0  0  0  0  0
   -2.1212    1.9597    1.8266 C   0  0  2  0  0  0  0  0  0  0  0  0
   -0.7862    1.3744    1.3854 C   0  0  0  0  0  0  0  0  0  0  0  0
    0.0859    1.0216    2.1767 O   0  0  0  0  0  0  0  0  0  0  0  0
   -2.1124    3.4765    1.7171 C   0  0  0  0  0  0  0  0  0  0  0  0
   -3.1331    1.9695    3.6908 H   0  0  0  0  0  0  0  0  0  0  0  0
   -2.9253    1.5413    1.2115 H   0  0  0  0  0  0  0  0  0  0  0  0
   -1.3133    3.9138    2.3268 H   0  0  0  0  0  0  0  0  0  0  0  0
   -1.9529    3.7988    0.6829 H   0  0  0  0  0  0  0  0  0  0  0  0
   -3.0626    3.8977    2.0629 H   0  0  0  0  0  0  0  0  0  0  0  0
   -0.6635    1.3313    0.0020 N   0  0  0  0  0  0  0  0  0  0  0  0
    0.5138    0.8305   -0.6617 C   0  0  2  0  0  0  0  0  0  0  0  0
    0.0782   -0.3491   -1.5237 C   0  0  0  0  0  0  0  0  0  0  0  0
   -0.9002   -0.3096   -2.2668 O   0  0  0  0  0  0  0  0  0  0  0  0
    1.5966    0.3935    0.3316 C   0  0  0  0  0  0  0  0  0  0  0  0
    2.1279    1.5396    1.1574 C   0  0  0  0  0  0  0  0  0  0  0  0
    2.9865    2.4579    0.6069 N   0  0  0  0  0  0  0  0  0  0  0  0
    1.8682    1.8307    2.4758 C   0  0  0  0  0  0  0  0  0  0  0  0
    3.2461    3.3002    1.5822 C   0  0  0  0  0  0  0  0  0  0  0  0
    2.5918    2.9608    2.7337 N   0  0  0  0  0  0  0  0  0  0  0  0
   -1.4467    1.6280   -0.5753 H   0  0  0  0  0  0  0  0  0  0  0  0
    0.8727    1.6369   -1.3119 H   0  0  0  0  0  0  0  0  0  0  0  0
    2.4252   -0.0945   -0.1993 H   0  0  0  0  0  0  0  0  0  0  0  0
    1.2038   -0.3701    1.0159 H   0  0  0  0  0  0  0  0  0  0  0  0
    1.2575    1.3559    3.2302 H   0  0  0  0  0  0  0  0  0  0  0  0
    3.8909    4.1656    1.5216 H   0  0  0  0  0  0  0  0  0  0  0  0
    2.6349    3.4560    3.6144 H   0  0  0  0  0  0  0  0  0  0  0  0
    0.9407   -1.4295   -1.4001 N   0  0  0  0  0  0  0  0  0  0  0  0
    0.7711   -2.6675   -2.1263 C   0  0  2  0  0  0  0  0  0  0  0  0
   -0.6685   -3.1284   -1.9402 C   0  0  0  0  0  0  0  0  0  0  0  0
   -1.3710   -2.7699   -0.9974 O   0  0  0  0  0  0  0  0  0  0  0  0
    1.7482   -3.7291   -1.6457 C   0  0  0  0  0  0  0  0  0  0  0  0
    1.7310   -1.3458   -0.7674 H   0  0  0  0  0  0  0  0  0  0  0  0
    0.9490   -2.4411   -3.1832 H   0  0  0  0  0  0  0  0  0  0  0  0
    1.5853   -3.9691   -0.5887 H   0  0  0  0  0  0  0  0  0  0  0  0
    1.6378   -4.6573   -2.2162 H   0  0  0  0  0  0  0  0  0  0  0  0
    2.7823   -3.3841   -1.7526 H   0  0  0  0  0  0  0  0  0  0  0  0
   -1.0623   -4.0210   -2.9273 N   0  0  0  0  0  0  0  0  0  0  0  0
   -2.3799   -4.6115   -2.9638 C   0  0  0  0  0  0  0  0  0  0  0  0
   -0.4205   -4.2473   -3.6814 H   0  0  0  0  0  0  0  0  0  0  0  0
   -2.3657   -5.5743   -2.4320 H   0  0  0  0  0  0  0  0  0  0  0  0
   -3.0983   -3.9349   -2.4778 H   0  0  0  0  0  0  0  0  0  0  0  0
   -2.6796   -4.7747   -4.0095 H   0  0  0  0  0  0  0  0  0  0  0  0
 22 24  2  0  0  0  0
 24 26  1  0  0  0  0
 23 25  2  0  0  0  0
 25 26  1  0  0  0  0
 21 22  1  0  0  0  0
 22 23  1  0  0  0  0
  1  3  1  0  0  0  0
  1  7  1  0  0  0  0
  1  2  2  0  0  0  0
 35 36  1  0  0  0  0
 36 44  1  0  0  0  0
 36 37  2  0  0  0  0
  8  9  1  0  0  0  0
  9 17  1  0  0  0  0
  9 10  2  0  0  0  0
 18 19  1  0  0  0  0
 19 34  1  0  0  0  0
 19 20  2  0  0  0  0
 35 38  1  0  0  0  0
  8 11  1  0  0  0  0
 44 45  1  0  0  0  0
 18 21  1  0  0  0  0
 34 35  1  0  0  0  0
  7  8  1  0  0  0  0
 17 18  1  0  0  0  0
 24 31  1  0  0  0  0
 25 32  1  0  0  0  0
  3  4  1  0  0  0  0
  3  5  1  0  0  0  0
  3  6  1  0  0  0  0
 38 41  1  0  0  0  0
 38 42  1  0  0  0  0
 38 43  1  0  0  0  0
 11 14  1  0  0  0  0
 11 15  1  0  0  0  0
 11 16  1  0  0  0  0
 45 47  1  0  0  0  0
 45 48  1  0  0  0  0
 45 49  1  0  0  0  0
 21 29  1  0  0  0  0
 21 30  1  0  0  0  0
 35 40  1  0  0  0  0
  8 13  1  0  0  0  0
 18 28  1  0  0  0  0
 26 33  1  0  0  0  0
 44 46  1  0  0  0  0
  7 12  1  0  0  0  0
 34 39  1  0  0  0  0
 17 27  1  0  0  0  0
M  END
$$$$

  -OEChem-05262214473D

 49 49  0     1  0  0  0  0  0999 V2000
   -1.6183    0.5613    3.8201 C   0  0  0  0  0  0  0  0  0  0  0  0
   -0.6710   -0.0534    3.3444 O   0  0  0  0  0  0  0  0  0  0  0  0
   -2.0502    0.2789    5.2208 C   0  0  0  0  0  0  0  0  0  0  0  0
   -2.8099   -0.5175    5.2742 H   0  0  0  0  0  0  0  0  0  0  0  0
   -1.2190   -0.0687    5.8551 H   0  0  0  0  0  0  0  0  0  0  0  0
   -2.4882    1.1338    5.7604 H   0  0  0  0  0  0  0  0  0  0  0  0
   -2.3680    1.5337    3.1790 N   0  0  0  0  0  0  0  0  0  0  0  0
   -2.1212    1.9597    1.8266 C   0  0  2  0  0  0  0  0  0  0  0  0
   -0.7862    1.3744    1.3854 C   0  0  0  0  0  0  0  0  0  0  0  0
    0.0859    1.0216    2.1767 O   0  0  0  0  0  0  0  0  0  0  0  0
   -2.1124    3.4765    1.7171 C   0  0  0  0  0  0  0  0  0  0  0  0
   -3.1331    1.9695    3.6908 H   0  0  0  0  0  0  0  0  0  0  0  0
   -2.9253    1.5413    1.2115 H   0  0  0  0  0  0  0  0  0  0  0  0
   -1.3133    3.9138    2.3268 H   0  0  0  0  0  0  0  0  0  0  0  0
   -1.9529    3.7988    0.6829 H   0  0  0  0  0  0  0  0  0  0  0  0
   -3.0626    3.8977    2.0629 H   0  0  0  0  0  0  0  0  0  0  0  0
   -0.6635    1.3313    0.0020 N   0  0  0  0  0  0  0  0  0  0  0  0
    0.5138    0.8305   -0.6617 C   0  0  2  0  0  0  0  0  0  0  0  0
    0.0782   -0.3491   -1.5237 C   0  0  0  0  0  0  0  0  0  0  0  0
   -0.7187   -0.2404   -2.4532 O   0  0  0  0  0  0  0  0  0  0  0  0
    1.5966    0.3935    0.3316 C   0  0  0  0  0  0  0  0  0  0  0  0
    2.1279    1.5396    1.1574 C   0  0  0  0  0  0  0  0  0  0  0  0
    2.9865    2.4579    0.6069 N   0  0  0  0  0  0  0  0  0  0  0  0
    1.8682    1.8307    2.4758 C   0  0  0  0  0  0  0  0  0  0  0  0
    3.2461    3.3002    1.5822 C   0  0  0  0  0  0  0  0  0  0  0  0
    2.5918    2.9608    2.7337 N   0  0  0  0  0  0  0  0  0  0  0  0
   -1.4467    1.6280   -0.5753 H   0  0  0  0  0  0  0  0  0  0  0  0
    0.8727    1.6369   -1.3119 H   0  0  0  0  0  0  0  0  0  0  0  0
    2.4252   -0.0945   -0.1993 H   0  0  0  0  0  0  0  0  0  0  0  0
    1.2038   -0.3701    1.0159 H   0  0  0  0  0  0  0  0  0  0  0  0
    1.2575    1.3559    3.2302 H   0  0  0  0  0  0  0  0  0  0  0  0
    3.8909    4.1656    1.5216 H   0  0  0  0  0  0  0  0  0  0  0  0
    2.6349    3.4560    3.6144 H   0  0  0  0  0  0  0  0  0  0  0  0
    0.7234   -1.5234   -1.1617 N   0  0  0  0  0  0  0  0  0  0  0  0
    0.5101   -2.7855   -1.8328 C   0  0  2  0  0  0  0  0  0  0  0  0
   -0.9916   -3.0238   -1.9201 C   0  0  0  0  0  0  0  0  0  0  0  0
   -1.8007   -2.4889   -1.1648 O   0  0  0  0  0  0  0  0  0  0  0  0
    1.1996   -3.9256   -1.0997 C   0  0  0  0  0  0  0  0  0  0  0  0
    1.3786   -1.4944   -0.3860 H   0  0  0  0  0  0  0  0  0  0  0  0
    0.9231   -2.6808   -2.8420 H   0  0  0  0  0  0  0  0  0  0  0  0
    0.7990   -4.0458   -0.0865 H   0  0  0  0  0  0  0  0  0  0  0  0
    1.0610   -4.8764   -1.6249 H   0  0  0  0  0  0  0  0  0  0  0  0
    2.2753   -3.7383   -1.0117 H   0  0  0  0  0  0  0  0  0  0  0  0
   -1.3183   -3.9372   -2.9126 N   0  0  0  0  0  0  0  0  0  0  0  0
   -2.6784   -4.3399   -3.1845 C   0  0  0  0  0  0  0  0  0  0  0  0
   -0.5845   -4.3165   -3.5038 H   0  0  0  0  0  0  0  0  0  0  0  0
   -2.9163   -5.2443   -2.6053 H   0  0  0  0  0  0  0  0  0  0  0  0
   -3.3649   -3.5298   -2.8976 H   0  0  0  0  0  0  0  0  0  0  0  0
   -2.7901   -4.5523   -4.2580 H   0  0  0  0  0  0  0  0  0  0  0  0
 22 24  2  0  0  0  0
 24 26  1  0  0  0  0
 23 25  2  0  0  0  0
 25 26  1  0  0  0  0
 21 22  1  0  0  0  0
 22 23  1  0  0  0  0
  1  3  1  0  0  0  0
  1  7  1  0  0  0  0
  1  2  2  0  0  0  0
 35 36  1  0  0  0  0
 36 44  1  0  0  0  0
 36 37  2  0  0  0  0
  8  9  1  0  0  0  0
  9 17  1  0  0  0  0
  9 10  2  0  0  0  0
 18 19  1  0  0  0  0
 19 34  1  0  0  0  0
 19 20  2  0  0  0  0
 35 38  1  0  0  0  0
  8 11  1  0  0  0  0
 44 45  1  0  0  0  0
 18 21  1  0  0  0  0
 34 35  1  0  0  0  0
  7  8  1  0  0  0  0
 17 18  1  0  0  0  0
 24 31  1  0  0  0  0
 25 32  1  0  0  0  0
  3  4  1  0  0  0  0
  3  5  1  0  0  0  0
  3  6  1  0  0  0  0
 38 41  1  0  0  0  0
 38 42  1  0  0  0  0
 38 43  1  0  0  0  0
 11 14  1  0  0  0  0
 11 15  1  0  0  0  0
 11 16  1  0  0  0  0
 45 47  1  0  0  0  0
 45 48  1  0  0  0  0
 45 49  1  0  0  0  0
 21 29  1  0  0  0  0
 21 30  1  0  0  0  0
 35 40  1  0  0  0  0
  8 13  1  0  0  0  0
 18 28  1  0  0  0  0
 26 33  1  0  0  0  0
 44 46  1  0  0  0  0
  7 12  1  0  0  0  0
 34 39  1  0  0  0  0
 17 27  1  0  0  0  0
M  END
$$$$

  -OEChem-05262214473D

 49 49  0     1  0  0  0  0  0999 V2000
   -1.6183    0.5613    3.8201 C   0  0  0  0  0  0  0  0  0  0  0  0
   -0.6710   -0.0534    3.3444 O   0  0  0  0  0  0  0  0  0  0  0  0
   -2.0502    0.2789    5.2208 C   0  0  0  0  0  0  0  0  0  0  0  0
   -2.8099   -0.5175    5.2742 H   0  0  0  0  0  0  0  0  0  0  0  0
   -1.2190   -0.0687    5.8551 H   0  0  0  0  0  0  0  0  0  0  0  0
   -2.4882    1.1338    5.7604 H   0  0  0  0  0  0  0  0  0  0  0  0
   -2.3680    1.5337    3.1790 N   0  0  0  0  0  0  0  0  0  0  0  0
   -2.1212    1.9597    1.8266 C   0  0  2  0  0  0  0  0  0  0  0  0
   -0.7862    1.3744    1.3854 C   0  0  0  0  0  0  0  0  0  0  0  0
    0.0859    1.0216    2.1767 O   0  0  0  0  0  0  0  0  0  0  0  0
   -2.1124    3.4765    1.7171 C   0  0  0  0  0  0  0  0  0  0  0  0
   -3.1331    1.9695    3.6908 H   0  0  0  0  0  0  0  0  0  0  0  0
   -2.9253    1.5413    1.2115 H   0  0  0  0  0  0  0  0  0  0  0  0
   -1.3133    3.9138    2.3268 H   0  0  0  0  0  0  0  0  0  0  0  0
   -1.9529    3.7988    0.6829 H   0  0  0  0  0  0  0  0  0  0  0  0
   -3.0626    3.8977    2.0629 H   0  0  0  0  0  0  0  0  0  0  0  0
   -0.6635    1.3313    0.0020 N   0  0  0  0  0  0  0  0  0  0  0  0
    0.5138    0.8305   -0.6617 C   0  0  2  0  0  0  0  0  0  0  0  0
    0.0782   -0.3491   -1.5237 C   0  0  0  0  0  0  0  0  0  0  0  0
   -0.4960   -0.2138   -2.6020 O   0  0  0  0  0  0  0  0  0  0  0  0
    1.5966    0.3935    0.3316 C   0  0  0  0  0  0  0  0  0  0  0  0
    2.1279    1.5396    1.1574 C   0  0  0  0  0  0  0  0  0  0  0  0
    2.9865    2.4579    0.6069 N   0  0  0  0  0  0  0  0  0  0  0  0
    1.8682    1.8307    2.4758 C   0  0  0  0  0  0  0  0  0  0  0  0
    3.2461    3.3002    1.5822 C   0  0  0  0  0  0  0  0  0  0  0  0
    2.5918    2.9608    2.7337 N   0  0  0  0  0  0  0  0  0  0  0  0
   -1.4467    1.6280   -0.5753 H   0  0  0  0  0  0  0  0  0  0  0  0
    0.8727    1.6369   -1.3119 H   0  0  0  0  0  0  0  0  0  0  0  0
    2.4252   -0.0945   -0.1993 H   0  0  0  0  0  0  0  0  0  0  0  0
    1.2038   -0.3701    1.0159 H   0  0  0  0  0  0  0  0  0  0  0  0
    1.2575    1.3559    3.2302 H   0  0  0  0  0  0  0  0  0  0  0  0
    3.8909    4.1656    1.5216 H   0  0  0  0  0  0  0  0  0  0  0  0
    2.6349    3.4560    3.6144 H   0  0  0  0  0  0  0  0  0  0  0  0
    0.4520   -1.5648   -0.9679 N   0  0  0  0  0  0  0  0  0  0  0  0
    0.1819   -2.8396   -1.5929 C   0  0  2  0  0  0  0  0  0  0  0  0
   -1.2925   -2.8739   -1.9731 C   0  0  0  0  0  0  0  0  0  0  0  0
   -2.1410   -2.1669   -1.4334 O   0  0  0  0  0  0  0  0  0  0  0  0
    0.5316   -3.9947   -0.6676 C   0  0  0  0  0  0  0  0  0  0  0  0
    0.9401   -1.5581   -0.0772 H   0  0  0  0  0  0  0  0  0  0  0  0
    0.7946   -2.8834   -2.4999 H   0  0  0  0  0  0  0  0  0  0  0  0
   -0.0723   -3.9676    0.2467 H   0  0  0  0  0  0  0  0  0  0  0  0
    0.3533   -4.9599   -1.1530 H   0  0  0  0  0  0  0  0  0  0  0  0
    1.5853   -3.9514   -0.3714 H   0  0  0  0  0  0  0  0  0  0  0  0
   -1.5562   -3.8177   -2.9559 N   0  0  0  0  0  0  0  0  0  0  0  0
   -2.8828   -4.0503   -3.4776 C   0  0  0  0  0  0  0  0  0  0  0  0
   -0.7886   -4.3462   -3.3600 H   0  0  0  0  0  0  0  0  0  0  0  0
   -3.3652   -4.8578   -2.9073 H   0  0  0  0  0  0  0  0  0  0  0  0
   -3.4790   -3.1304   -3.3864 H   0  0  0  0  0  0  0  0  0  0  0  0
   -2.8146   -4.3396   -4.5367 H   0  0  0  0  0  0  0  0  0  0  0  0
 22 24  2  0  0  0  0
 24 26  1  0  0  0  0
 23 25  2  0  0  0  0
 25 26  1  0  0  0  0
 21 22  1  0  0  0  0
 22 23  1  0  0  0  0
  1  3  1  0  0  0  0
  1  7  1  0  0  0  0
  1  2  2  0  0  0  0
 35 36  1  0  0  0  0
 36 44  1  0  0  0  0
 36 37  2  0  0  0  0
  8  9  1  0  0  0  0
  9 17  1  0  0  0  0
  9 10  2  0  0  0  0
 18 19  1  0  0  0  0
 19 34  1  0  0  0  0
 19 20  2  0  0  0  0
 35 38  1  0  0  0  0
  8 11  1  0  0  0  0
 44 45  1  0  0  0  0
 18 21  1  0  0  0  0
 34 35  1  0  0  0  0
  7  8  1  0  0  0  0
 17 18  1  0  0  0  0
 24 31  1  0  0  0  0
 25 32  1  0  0  0  0
  3  4  1  0  0  0  0
  3  5  1  0  0  0  0
  3  6  1  0  0  0  0
 38 41  1  0  0  0  0
 38 42  1  0  0  0  0
 38 43  1  0  0  0  0
 11 14  1  0  0  0  0
 11 15  1  0  0  0  0
 11 16  1  0  0  0  0
 45 47  1  0  0  0  0
 45 48  1  0  0  0  0
 45 49  1  0  0  0  0
 21 29  1  0  0  0  0
 21 30  1  0  0  0  0
 35 40  1  0  0  0  0
  8 13  1  0  0  0  0
 18 28  1  0  0  0  0
 26 33  1  0  0  0  0
 44 46  1  0  0  0  0
  7 12  1  0  0  0  0
 34 39  1  0  0  0  0
 17 27  1  0  0  0  0
M  END
$$$$

  -OEChem-05262214473D

 49 49  0     1  0  0  0  0  0999 V2000
   -1.6183    0.5613    3.8201 C   0  0  0  0  0  0  0  0  0  0  0  0
   -0.6710   -0.0534    3.3444 O   0  0  0  0  0  0  0  0  0  0  0  0
   -2.0502    0.2789    5.2208 C   0  0  0  0  0  0  0  0  0  0  0  0
   -2.8099   -0.5175    5.2742 H   0  0  0  0  0  0  0  0  0  0  0  0
   -1.2190   -0.0687    5.8551 H   0  0  0  0  0  0  0  0  0  0  0  0
   -2.4882    1.1338    5.7604 H   0  0  0  0  0  0  0  0  0  0  0  0
   -2.3680    1.5337    3.1790 N   0  0  0  0  0  0  0  0  0  0  0  0
   -2.1212    1.9597    1.8266 C   0  0  2  0  0  0  0  0  0  0  0  0
   -0.7862    1.3744    1.3854 C   0  0  0  0  0  0  0  0  0  0  0  0
    0.0859    1.0216    2.1767 O   0  0  0  0  0  0  0  0  0  0  0  0
   -2.1124    3.4765    1.7171 C   0  0  0  0  0  0  0  0  0  0  0  0
   -3.1331    1.9695    3.6908 H   0  0  0  0  0  0  0  0  0  0  0  0
   -2.9253    1.5413    1.2115 H   0  0  0  0  0  0  0  0  0  0  0  0
   -1.3133    3.9138    2.3268 H   0  0  0  0  0  0  0  0  0  0  0  0
   -1.9529    3.7988    0.6829 H   0  0  0  0  0  0  0  0  0  0  0  0
   -3.0626    3.8977    2.0629 H   0  0  0  0  0  0  0  0  0  0  0  0
   -0.6635    1.3313    0.0020 N   0  0  0  0  0  0  0  0  0  0  0  0
    0.5138    0.8305   -0.6617 C   0  0  2  0  0  0  0  0  0  0  0  0
    0.0782   -0.3491   -1.5237 C   0  0  0  0  0  0  0  0  0  0  0  0
   -0.2472   -0.2318   -2.7032 O   0  0  0  0  0  0  0  0  0  0  0  0
    1.5966    0.3935    0.3316 C   0  0  0  0  0  0  0  0  0  0  0  0
    2.1279    1.5396    1.1574 C   0  0  0  0  0  0  0  0  0  0  0  0
    2.9865    2.4579    0.6069 N   0  0  0  0  0  0  0  0  0  0  0  0
    1.8682    1.8307    2.4758 C   0  0  0  0  0  0  0  0  0  0  0  0
    3.2461    3.3002    1.5822 C   0  0  0  0  0  0  0  0  0  0  0  0
    2.5918    2.9608    2.7337 N   0  0  0  0  0  0  0  0  0  0  0  0
   -1.4467    1.6280   -0.5753 H   0  0  0  0  0  0  0  0  0  0  0  0
    0.8727    1.6369   -1.3119 H   0  0  0  0  0  0  0  0  0  0  0  0
    2.4252   -0.0945   -0.1993 H   0  0  0  0  0  0  0  0  0  0  0  0
    1.2038   -0.3701    1.0159 H   0  0  0  0  0  0  0  0  0  0  0  0
    1.2575    1.3559    3.2302 H   0  0  0  0  0  0  0  0  0  0  0  0
    3.8909    4.1656    1.5216 H   0  0  0  0  0  0  0  0  0  0  0  0
    2.6349    3.4560    3.6144 H   0  0  0  0  0  0  0  0  0  0  0  0
    0.1451   -1.5507   -0.8321 N   0  0  0  0  0  0  0  0  0  0  0  0
   -0.1911   -2.8261   -1.4229 C   0  0  2  0  0  0  0  0  0  0  0  0
   -1.5506   -2.6891   -2.0957 C   0  0  0  0  0  0  0  0  0  0  0  0
   -2.3689   -1.8260   -1.7848 O   0  0  0  0  0  0  0  0  0  0  0  0
   -0.2102   -3.9317   -0.3789 C   0  0  0  0  0  0  0  0  0  0  0  0
    0.4454   -1.5327    0.1381 H   0  0  0  0  0  0  0  0  0  0  0  0
    0.5724   -3.0349   -2.1803 H   0  0  0  0  0  0  0  0  0  0  0  0
   -0.9691   -3.7399    0.3884 H   0  0  0  0  0  0  0  0  0  0  0  0
   -0.4370   -4.9021   -0.8328 H   0  0  0  0  0  0  0  0  0  0  0  0
    0.7594   -4.0090    0.1247 H   0  0  0  0  0  0  0  0  0  0  0  0
   -1.7599   -3.6707   -3.0542 N   0  0  0  0  0  0  0  0  0  0  0  0
   -2.9791   -3.7623   -3.8230 C   0  0  0  0  0  0  0  0  0  0  0  0
   -1.0189   -4.3343   -3.2598 H   0  0  0  0  0  0  0  0  0  0  0  0
   -3.6817   -4.4412   -3.3176 H   0  0  0  0  0  0  0  0  0  0  0  0
   -3.4329   -2.7641   -3.9109 H   0  0  0  0  0  0  0  0  0  0  0  0
   -2.7513   -4.1512   -4.8264 H   0  0  0  0  0  0  0  0  0  0  0  0
 22 24  2  0  0  0  0
 24 26  1  0  0  0  0
 23 25  2  0  0  0  0
 25 26  1  0  0  0  0
 21 22  1  0  0  0  0
 22 23  1  0  0  0  0
  1  3  1  0  0  0  0
  1  7  1  0  0  0  0
  1  2  2  0  0  0  0
 35 36  1  0  0  0  0
 36 44  1  0  0  0  0
 36 37  2  0  0  0  0
  8  9  1  0  0  0  0
  9 17  1  0  0  0  0
  9 10  2  0  0  0  0
 18 19  1  0  0  0  0
 19 34  1  0  0  0  0
 19 20  2  0  0  0  0
 35 38  1  0  0  0  0
  8 11  1  0  0  0  0
 44 45  1  0  0  0  0
 18 21  1  0  0  0  0
 34 35  1  0  0  0  0
  7  8  1  0  0  0  0
 17 18  1  0  0  0  0
 24 31  1  0  0  0  0
 25 32  1  0  0  0  0
  3  4  1  0  0  0  0
  3  5  1  0  0  0  0
  3  6  1  0  0  0  0
 38 41  1  0  0  0  0
 38 42  1  0  0  0  0
 38 43  1  0  0  0  0
 11 14  1  0  0  0  0
 11 15  1  0  0  0  0
 11 16  1  0  0  0  0
 45 47  1  0  0  0  0
 45 48  1  0  0  0  0
 45 49  1  0  0  0  0
 21 29  1  0  0  0  0
 21 30  1  0  0  0  0
 35 40  1  0  0  0  0
  8 13  1  0  0  0  0
 18 28  1  0  0  0  0
 26 33  1  0  0  0  0
 44 46  1  0  0  0  0
  7 12  1  0  0  0  0
 34 39  1  0  0  0  0
 17 27  1  0  0  0  0
M  END
$$$$

  -OEChem-05262214473D

 49 49  0     1  0  0  0  0  0999 V2000
   -1.6183    0.5613    3.8201 C   0  0  0  0  0  0  0  0  0  0  0  0
   -0.6710   -0.0534    3.3444 O   0  0  0  0  0  0  0  0  0  0  0  0
   -2.0502    0.2789    5.2208 C   0  0  0  0  0  0  0  0  0  0  0  0
   -2.8099   -0.5175    5.2742 H   0  0  0  0  0  0  0  0  0  0  0  0
   -1.2190   -0.0687    5.8551 H   0  0  0  0  0  0  0  0  0  0  0  0
   -2.4882    1.1338    5.7604 H   0  0  0  0  0  0  0  0  0  0  0  0
   -2.3680    1.5337    3.1790 N   0  0  0  0  0  0  0  0  0  0  0  0
   -2.1212    1.9597    1.8266 C   0  0  2  0  0  0  0  0  0  0  0  0
   -0.7862    1.3744    1.3854 C   0  0  0  0  0  0  0  0  0  0  0  0
    0.0859    1.0216    2.1767 O   0  0  0  0  0  0  0  0  0  0  0  0
   -2.1124    3.4765    1.7171 C   0  0  0  0  0  0  0  0  0  0  0  0
   -3.1331    1.9695    3.6908 H   0  0  0  0  0  0  0  0  0  0  0  0
   -2.9253    1.5413    1.2115 H   0  0  0  0  0  0  0  0  0  0  0  0
   -1.3133    3.9138    2.3268 H   0  0  0  0  0  0  0  0  0  0  0  0
   -1.9529    3.7988    0.6829 H   0  0  0  0  0  0  0  0  0  0  0  0
   -3.0626    3.8977    2.0629 H   0  0  0  0  0  0  0  0  0  0  0  0
   -0.6635    1.3313    0.0020 N   0  0  0  0  0  0  0  0  0  0  0  0
    0.5138    0.8305   -0.6617 C   0  0  2  0  0  0  0  0  0  0  0  0
    0.0782   -0.3491   -1.5237 C   0  0  0  0  0  0  0  0  0  0  0  0
    0.0107   -0.2930   -2.7497 O   0  0  0  0  0  0  0  0  0  0  0  0
    1.5966    0.3935    0.3316 C   0  0  0  0  0  0  0  0  0  0  0  0
    2.1279    1.5396    1.1574 C   0  0  0  0  0  0  0  0  0  0  0  0
    2.9865    2.4579    0.6069 N   0  0  0  0  0  0  0  0  0  0  0  0
    1.8682    1.8307    2.4758 C   0  0  0  0  0  0  0  0  0  0  0  0
    3.2461    3.3002    1.5822 C   0  0  0  0  0  0  0  0  0  0  0  0
    2.5918    2.9608    2.7337 N   0  0  0  0  0  0  0  0  0  0  0  0
   -1.4467    1.6280   -0.5753 H   0  0  0  0  0  0  0  0  0  0  0  0
    0.8727    1.6369   -1.3119 H   0  0  0  0  0  0  0  0  0  0  0  0
    2.4252   -0.0945   -0.1993 H   0  0  0  0  0  0  0  0  0  0  0  0
    1.2038   -0.3701    1.0159 H   0  0  0  0  0  0  0  0  0  0  0  0
    1.2575    1.3559    3.2302 H   0  0  0  0  0  0  0  0  0  0  0  0
    3.8909    4.1656    1.5216 H   0  0  0  0  0  0  0  0  0  0  0  0
    2.6349    3.4560    3.6144 H   0  0  0  0  0  0  0  0  0  0  0  0
   -0.1766   -1.4821   -0.7634 N   0  0  0  0  0  0  0  0  0  0  0  0
   -0.5834   -2.7459   -1.3344 C   0  0  2  0  0  0  0  0  0  0  0  0
   -1.7483   -2.4818   -2.2794 C   0  0  0  0  0  0  0  0  0  0  0  0
   -2.4687   -1.4894   -2.1951 O   0  0  0  0  0  0  0  0  0  0  0  0
   -0.9754   -3.7410   -0.2533 C   0  0  0  0  0  0  0  0  0  0  0  0
   -0.0719   -1.4199    0.2450 H   0  0  0  0  0  0  0  0  0  0  0  0
    0.2715   -3.1251   -1.9048 H   0  0  0  0  0  0  0  0  0  0  0  0
   -1.8305   -3.3783    0.3287 H   0  0  0  0  0  0  0  0  0  0  0  0
   -1.2560   -4.7069   -0.6860 H   0  0  0  0  0  0  0  0  0  0  0  0
   -0.1461   -3.9071    0.4427 H   0  0  0  0  0  0  0  0  0  0  0  0
   -1.9154   -3.5061   -3.2008 N   0  0  0  0  0  0  0  0  0  0  0  0
   -2.9608   -3.4956   -4.1973 C   0  0  0  0  0  0  0  0  0  0  0  0
   -1.2597   -4.2818   -3.2100 H   0  0  0  0  0  0  0  0  0  0  0  0
   -3.8444   -4.0227   -3.8080 H   0  0  0  0  0  0  0  0  0  0  0  0
   -3.2297   -2.4559   -4.4354 H   0  0  0  0  0  0  0  0  0  0  0  0
   -2.6046   -3.9999   -5.1076 H   0  0  0  0  0  0  0  0  0  0  0  0
 22 24  2  0  0  0  0
 24 26  1  0  0  0  0
 23 25  2  0  0  0  0
 25 26  1  0  0  0  0
 21 22  1  0  0  0  0
 22 23  1  0  0  0  0
  1  3  1  0  0  0  0
  1  7  1  0  0  0  0
  1  2  2  0  0  0  0
 35 36  1  0  0  0  0
 36 44  1  0  0  0  0
 36 37  2  0  0  0  0
  8  9  1  0  0  0  0
  9 17  1  0  0  0  0
  9 10  2  0  0  0  0
 18 19  1  0  0  0  0
 19 34  1  0  0  0  0
 19 20  2  0  0  0  0
 35 38  1  0  0  0  0
  8 11  1  0  0  0  0
 44 45  1  0  0  0  0
 18 21  1  0  0  0  0
 34 35  1  0  0  0  0
  7  8  1  0  0  0  0
 17 18  1  0  0  0  0
 24 31  1  0  0  0  0
 25 32  1  0  0  0  0
  3  4  1  0  0  0  0
  3  5  1  0  0  0  0
  3  6  1  0  0  0  0
 38 41  1  0  0  0  0
 38 42  1  0  0  0  0
 38 43  1  0  0  0  0
 11 14  1  0  0  0  0
 11 15  1  0  0  0  0
 11 16  1  0  0  0  0
 45 47  1  0  0  0  0
 45 48  1  0  0  0  0
 45 49  1  0  0  0  0
 21 29  1  0  0  0  0
 21 30  1  0  0  0  0
 35 40  1  0  0  0  0
  8 13  1  0  0  0  0
 18 28  1  0  0  0  0
 26 33  1  0  0  0  0
 44 46  1  0  0  0  0
  7 12  1  0  0  0  0
 34 39  1  0  0  0  0
 17 27  1  0  0  0  0
M  END
$$$$

  -OEChem-05262214473D

 49 49  0     1  0  0  0  0  0999 V2000
   -1.6183    0.5613    3.8201 C   0  0  0  0  0  0  0  0  0  0  0  0
   -0.6710   -0.0534    3.3444 O   0  0  0  0  0  0  0  0  0  0  0  0
   -2.0502    0.2789    5.2208 C   0  0  0  0  0  0  0  0  0  0  0  0
   -2.8099   -0.5175    5.2742 H   0  0  0  0  0  0  0  0  0  0  0  0
   -1.2190   -0.0687    5.8551 H   0  0  0  0  0  0  0  0  0  0  0  0
   -2.4882    1.1338    5.7604 H   0  0  0  0  0  0  0  0  0  0  0  0
   -2.3680    1.5337    3.1790 N   0  0  0  0  0  0  0  0  0  0  0  0
   -2.1212    1.9597    1.8266 C   0  0  2  0  0  0  0  0  0  0  0  0
   -0.7862    1.3744    1.3854 C   0  0  0  0  0  0  0  0  0  0  0  0
    0.0859    1.0216    2.1767 O   0  0  0  0  0  0  0  0  0  0  0  0
   -2.1124    3.4765    1.7171 C   0  0  0  0  0  0  0  0  0  0  0  0
   -3.1331    1.9695    3.6908 H   0  0  0  0  0  0  0  0  0  0  0  0
   -2.9253    1.5413    1.2115 H   0  0  0  0  0  0  0  0  0  0  0  0
   -1.3133    3.9138    2.3268 H   0  0  0  0  0  0  0  0  0  0  0  0
   -1.9529    3.7988    0.6829 H   0  0  0  0  0  0  0  0  0  0  0  0
   -3.0626    3.8977    2.0629 H   0  0  0  0  0  0  0  0  0  0  0  0
   -0.6635    1.3313    0.0020 N   0  0  0  0  0  0  0  0  0  0  0  0
    0.5138    0.8305   -0.6617 C   0  0  2  0  0  0  0  0  0  0  0  0
    0.0782   -0.3491   -1.5237 C   0  0  0  0  0  0  0  0  0  0  0  0
    0.2602   -0.3934   -2.7385 O   0  0  0  0  0  0  0  0  0  0  0  0
    1.5966    0.3935    0.3316 C   0  0  0  0  0  0  0  0  0  0  0  0
    2.1279    1.5396    1.1574 C   0  0  0  0  0  0  0  0  0  0  0  0
    2.9865    2.4579    0.6069 N   0  0  0  0  0  0  0  0  0  0  0  0
    1.8682    1.8307    2.4758 C   0  0  0  0  0  0  0  0  0  0  0  0
    3.2461    3.3002    1.5822 C   0  0  0  0  0  0  0  0  0  0  0  0
    2.5918    2.9608    2.7337 N   0  0  0  0  0  0  0  0  0  0  0  0
   -1.4467    1.6280   -0.5753 H   0  0  0  0  0  0  0  0  0  0  0  0
    0.8727    1.6369   -1.3119 H   0  0  0  0  0  0  0  0  0  0  0  0
    2.4252   -0.0945   -0.1993 H   0  0  0  0  0  0  0  0  0  0  0  0
    1.2038   -0.3701    1.0159 H   0  0  0  0  0  0  0  0  0  0  0  0
    1.2575    1.3559    3.2302 H   0  0  0  0  0  0  0  0  0  0  0  0
    3.8909    4.1656    1.5216 H   0  0  0  0  0  0  0  0  0  0  0  0
    2.6349    3.4560    3.6144 H   0  0  0  0  0  0  0  0  0  0  0  0
   -0.4910   -1.3637   -0.7666 N   0  0  0  0  0  0  0  0  0  0  0  0
   -0.9684   -2.6045   -1.3335 C   0  0  2  0  0  0  0  0  0  0  0  0
   -1.8721   -2.2663   -2.5118 C   0  0  0  0  0  0  0  0  0  0  0  0
   -2.4337   -1.1799   -2.6362 O   0  0  0  0  0  0  0  0  0  0  0  0
   -1.7118   -3.4355   -0.2993 C   0  0  0  0  0  0  0  0  0  0  0  0
   -0.5764   -1.2272    0.2363 H   0  0  0  0  0  0  0  0  0  0  0  0
   -0.0875   -3.1478   -1.6923 H   0  0  0  0  0  0  0  0  0  0  0  0
   -2.5976   -2.9073    0.0719 H   0  0  0  0  0  0  0  0  0  0  0  0
   -2.0480   -4.3877   -0.7226 H   0  0  0  0  0  0  0  0  0  0  0  0
   -1.0695   -3.6525    0.5611 H   0  0  0  0  0  0  0  0  0  0  0  0
   -2.0121   -3.3353   -3.3857 N   0  0  0  0  0  0  0  0  0  0  0  0
   -2.8292   -3.2683   -4.5748 C   0  0  0  0  0  0  0  0  0  0  0  0
   -1.4945   -4.1922   -3.2140 H   0  0  0  0  0  0  0  0  0  0  0  0
   -3.8420   -3.6309   -4.3453 H   0  0  0  0  0  0  0  0  0  0  0  0
   -2.8833   -2.2266   -4.9242 H   0  0  0  0  0  0  0  0  0  0  0  0
   -2.3844   -3.8961   -5.3610 H   0  0  0  0  0  0  0  0  0  0  0  0
 22 24  2  0  0  0  0
 24 26  1  0  0  0  0
 23 25  2  0  0  0  0
 25 26  1  0  0  0  0
 21 22  1  0  0  0  0
 22 23  1  0  0  0  0
  1  3  1  0  0  0  0
  1  7  1  0  0  0  0
  1  2  2  0  0  0  0
 35 36  1  0  0  0  0
 36 44  1  0  0  0  0
 36 37  2  0  0  0  0
  8  9  1  0  0  0  0
  9 17  1  0  0  0  0
  9 10  2  0  0  0  0
 18 19  1  0  0  0  0
 19 34  1  0  0  0  0
 19 20  2  0  0  0  0
 35 38  1  0  0  0  0
  8 11  1  0  0  0  0
 44 45  1  0  0  0  0
 18 21  1  0  0  0  0
 34 35  1  0  0  0  0
  7  8  1  0  0  0  0
 17 18  1  0  0  0  0
 24 31  1  0  0  0  0
 25 32  1  0  0  0  0
  3  4  1  0  0  0  0
  3  5  1  0  0  0  0
  3  6  1  0  0  0  0
 38 41  1  0  0  0  0
 38 42  1  0  0  0  0
 38 43  1  0  0  0  0
 11 14  1  0  0  0  0
 11 15  1  0  0  0  0
 11 16  1  0  0  0  0
 45 47  1  0  0  0  0
 45 48  1  0  0  0  0
 45 49  1  0  0  0  0
 21 29  1  0  0  0  0
 21 30  1  0  0  0  0
 35 40  1  0  0  0  0
  8 13  1  0  0  0  0
 18 28  1  0  0  0  0
 26 33  1  0  0  0  0
 44 46  1  0  0  0  0
  7 12  1  0  0  0  0
 34 39  1  0  0  0  0
 17 27  1  0  0  0  0
M  END
$$$$

  -OEChem-05262214473D

 49 49  0     1  0  0  0  0  0999 V2000
   -1.6183    0.5613    3.8201 C   0  0  0  0  0  0  0  0  0  0  0  0
   -0.6710   -0.0534    3.3444 O   0  0  0  0  0  0  0  0  0  0  0  0
   -2.0502    0.2789    5.2208 C   0  0  0  0  0  0  0  0  0  0  0  0
   -2.8099   -0.5175    5.2742 H   0  0  0  0  0  0  0  0  0  0  0  0
   -1.2190   -0.0687    5.8551 H   0  0  0  0  0  0  0  0  0  0  0  0
   -2.4882    1.1338    5.7604 H   0  0  0  0  0  0  0  0  0  0  0  0
   -2.3680    1.5337    3.1790 N   0  0  0  0  0  0  0  0  0  0  0  0
   -2.1212    1.9597    1.8266 C   0  0  2  0  0  0  0  0  0  0  0  0
   -0.7862    1.3744    1.3854 C   0  0  0  0  0  0  0  0  0  0  0  0
    0.0859    1.0216    2.1767 O   0  0  0  0  0  0  0  0  0  0  0  0
   -2.1124    3.4765    1.7171 C   0  0  0  0  0  0  0  0  0  0  0  0
   -3.1331    1.9695    3.6908 H   0  0  0  0  0  0  0  0  0  0  0  0
   -2.9253    1.5413    1.2115 H   0  0  0  0  0  0  0  0  0  0  0  0
   -1.3133    3.9138    2.3268 H   0  0  0  0  0  0  0  0  0  0  0  0
   -1.9529    3.7988    0.6829 H   0  0  0  0  0  0  0  0  0  0  0  0
   -3.0626    3.8977    2.0629 H   0  0  0  0  0  0  0  0  0  0  0  0
   -0.6635    1.3313    0.0020 N   0  0  0  0  0  0  0  0  0  0  0  0
    0.5138    0.8305   -0.6617 C   0  0  2  0  0  0  0  0  0  0  0  0
    0.0782   -0.3491   -1.5237 C   0  0  0  0  0  0  0  0  0  0  0  0
    0.4843   -0.5260   -2.6702 O   0  0  0  0  0  0  0  0  0  0  0  0
    1.5966    0.3935    0.3316 C   0  0  0  0  0  0  0  0  0  0  0  0
    2.1279    1.5396    1.1574 C   0  0  0  0  0  0  0  0  0  0  0  0
    2.9865    2.4579    0.6069 N   0  0  0  0  0  0  0  0  0  0  0  0
    1.8682    1.8307    2.4758 C   0  0  0  0  0  0  0  0  0  0  0  0
    3.2461    3.3002    1.5822 C   0  0  0  0  0  0  0  0  0  0  0  0
    2.5918    2.9608    2.7337 N   0  0  0  0  0  0  0  0  0  0  0  0
   -1.4467    1.6280   -0.5753 H   0  0  0  0  0  0  0  0  0  0  0  0
    0.8727    1.6369   -1.3119 H   0  0  0  0  0  0  0  0  0  0  0  0
    2.4252   -0.0945   -0.1993 H   0  0  0  0  0  0  0  0  0  0  0  0
    1.2038   -0.3701    1.0159 H   0  0  0  0  0  0  0  0  0  0  0  0
    1.2575    1.3559    3.2302 H   0  0  0  0  0  0  0  0  0  0  0  0
    3.8909    4.1656    1.5216 H   0  0  0  0  0  0  0  0  0  0  0  0
    2.6349    3.4560    3.6144 H   0  0  0  0  0  0  0  0  0  0  0  0
   -0.7768   -1.2035   -0.8414 N   0  0  0  0  0  0  0  0  0  0  0  0
   -1.3197   -2.4115   -1.4200 C   0  0  2  0  0  0  0  0  0  0  0  0
   -1.9136   -2.0571   -2.7770 C   0  0  0  0  0  0  0  0  0  0  0  0
   -2.2662   -0.9187   -3.0782 O   0  0  0  0  0  0  0  0  0  0  0  0
   -2.3691   -3.0360   -0.5137 C   0  0  0  0  0  0  0  0  0  0  0  0
   -1.0338   -0.9680    0.1127 H   0  0  0  0  0  0  0  0  0  0  0  0
   -0.4801   -3.1016   -1.5572 H   0  0  0  0  0  0  0  0  0  0  0  0
   -3.2183   -2.3591   -0.3646 H   0  0  0  0  0  0  0  0  0  0  0  0
   -2.7589   -3.9662   -0.9402 H   0  0  0  0  0  0  0  0  0  0  0  0
   -1.9479   -3.2628    0.4716 H   0  0  0  0  0  0  0  0  0  0  0  0
   -2.0436   -3.1697   -3.5964 N   0  0  0  0  0  0  0  0  0  0  0  0
   -2.5932   -3.0959   -4.9300 C   0  0  0  0  0  0  0  0  0  0  0  0
   -1.7075   -4.0715   -3.2715 H   0  0  0  0  0  0  0  0  0  0  0  0
   -3.6748   -3.2926   -4.8928 H   0  0  0  0  0  0  0  0  0  0  0  0
   -2.4172   -2.0920   -5.3439 H   0  0  0  0  0  0  0  0  0  0  0  0
   -2.1058   -3.8467   -5.5693 H   0  0  0  0  0  0  0  0  0  0  0  0
 22 24  2  0  0  0  0
 24 26  1  0  0  0  0
 23 25  2  0  0  0  0
 25 26  1  0  0  0  0
 21 22  1  0  0  0  0
 22 23  1  0  0  0  0
  1  3  1  0  0  0  0
  1  7  1  0  0  0  0
  1  2  2  0  0  0  0
 35 36  1  0  0  0  0
 36 44  1  0  0  0  0
 36 37  2  0  0  0  0
  8  9  1  0  0  0  0
  9 17  1  0  0  0  0
  9 10  2  0  0  0  0
 18 19  1  0  0  0  0
 19 34  1  0  0  0  0
 19 20  2  0  0  0  0
 35 38  1  0  0  0  0
  8 11  1  0  0  0  0
 44 45  1  0  0  0  0
 18 21  1  0  0  0  0
 34 35  1  0  0  0  0
  7  8  1  0  0  0  0
 17 18  1  0  0  0  0
 24 31  1  0  0  0  0
 25 32  1  0  0  0  0
  3  4  1  0  0  0  0
  3  5  1  0  0  0  0
  3  6  1  0  0  0  0
 38 41  1  0  0  0  0
 38 42  1  0  0  0  0
 38 43  1  0  0  0  0
 11 14  1  0  0  0  0
 11 15  1  0  0  0  0
 11 16  1  0  0  0  0
 45 47  1  0  0  0  0
 45 48  1  0  0  0  0
 45 49  1  0  0  0  0
 21 29  1  0  0  0  0
 21 30  1  0  0  0  0
 35 40  1  0  0  0  0
  8 13  1  0  0  0  0
 18 28  1  0  0  0  0
 26 33  1  0  0  0  0
 44 46  1  0  0  0  0
  7 12  1  0  0  0  0
 34 39  1  0  0  0  0
 17 27  1  0  0  0  0
M  END
$$$$

  -OEChem-05262214473D

 49 49  0     1  0  0  0  0  0999 V2000
   -1.6183    0.5613    3.8201 C   0  0  0  0  0  0  0  0  0  0  0  0
   -0.6710   -0.0534    3.3444 O   0  0  0  0  0  0  0  0  0  0  0  0
   -2.0502    0.2789    5.2208 C   0  0  0  0  0  0  0  0  0  0  0  0
   -2.8099   -0.5175    5.2742 H   0  0  0  0  0  0  0  0  0  0  0  0
   -1.2190   -0.0687    5.8551 H   0  0  0  0  0  0  0  0  0  0  0  0
   -2.4882    1.1338    5.7604 H   0  0  0  0  0  0  0  0  0  0  0  0
   -2.3680    1.5337    3.1790 N   0  0  0  0  0  0  0  0  0  0  0  0
   -2.1212    1.9597    1.8266 C   0  0  2  0  0  0  0  0  0  0  0  0
   -0.7862    1.3744    1.3854 C   0  0  0  0  0  0  0  0  0  0  0  0
    0.0859    1.0216    2.1767 O   0  0  0  0  0  0  0  0  0  0  0  0
   -2.1124    3.4765    1.7171 C   0  0  0  0  0  0  0  0  0  0  0  0
   -3.1331    1.9695    3.6908 H   0  0  0  0  0  0  0  0  0  0  0  0
   -2.9253    1.5413    1.2115 H   0  0  0  0  0  0  0  0  0  0  0  0
   -1.3133    3.9138    2.3268 H   0  0  0  0  0  0  0  0  0  0  0  0
   -1.9529    3.7988    0.6829 H   0  0  0  0  0  0  0  0  0  0  0  0
   -3.0626    3.8977    2.0629 H   0  0  0  0  0  0  0  0  0  0  0  0
   -0.6635    1.3313    0.0020 N   0  0  0  0  0  0  0  0  0  0  0  0
    0.5138    0.8305   -0.6617 C   0  0  2  0  0  0  0  0  0  0  0  0
    0.0782   -0.3491   -1.5237 C   0  0  0  0  0  0  0  0  0  0  0  0
    0.6677   -0.6818   -2.5497 O   0  0  0  0  0  0  0  0  0  0  0  0
    1.5966    0.3935    0.3316 C   0  0  0  0  0  0  0  0  0  0  0  0
    2.1279    1.5396    1.1574 C   0  0  0  0  0  0  0  0  0  0  0  0
    2.9865    2.4579    0.6069 N   0  0  0  0  0  0  0  0  0  0  0  0
    1.8682    1.8307    2.4758 C   0  0  0  0  0  0  0  0  0  0  0  0
    3.2461    3.3002    1.5822 C   0  0  0  0  0  0  0  0  0  0  0  0
    2.5918    2.9608    2.7337 N   0  0  0  0  0  0  0  0  0  0  0  0
   -1.4467    1.6280   -0.5753 H   0  0  0  0  0  0  0  0  0  0  0  0
    0.8727    1.6369   -1.3119 H   0  0  0  0  0  0  0  0  0  0  0  0
    2.4252   -0.0945   -0.1993 H   0  0  0  0  0  0  0  0  0  0  0  0
    1.2038   -0.3701    1.0159 H   0  0  0  0  0  0  0  0  0  0  0  0
    1.2575    1.3559    3.2302 H   0  0  0  0  0  0  0  0  0  0  0  0
    3.8909    4.1656    1.5216 H   0  0  0  0  0  0  0  0  0  0  0  0
    2.6349    3.4560    3.6144 H   0  0  0  0  0  0  0  0  0  0  0  0
   -1.0144   -1.0125   -0.9827 N   0  0  0  0  0  0  0  0  0  0  0  0
   -1.6135   -2.1800   -1.5883 C   0  0  2  0  0  0  0  0  0  0  0  0
   -1.8700   -1.8687   -3.0569 C   0  0  0  0  0  0  0  0  0  0  0  0
   -1.9778   -0.7237   -3.4910 O   0  0  0  0  0  0  0  0  0  0  0  0
   -2.9027   -2.5698   -0.8821 C   0  0  0  0  0  0  0  0  0  0  0  0
   -1.4129   -0.6598   -0.1175 H   0  0  0  0  0  0  0  0  0  0  0  0
   -0.8796   -2.9894   -1.5088 H   0  0  0  0  0  0  0  0  0  0  0  0
   -3.6501   -1.7711   -0.9511 H   0  0  0  0  0  0  0  0  0  0  0  0
   -3.3403   -3.4711   -1.3239 H   0  0  0  0  0  0  0  0  0  0  0  0
   -2.7214   -2.7645    0.1805 H   0  0  0  0  0  0  0  0  0  0  0  0
   -2.0075   -3.0208   -3.8184 N   0  0  0  0  0  0  0  0  0  0  0  0
   -2.2688   -2.9902   -5.2385 C   0  0  0  0  0  0  0  0  0  0  0  0
   -1.8840   -3.9281   -3.3786 H   0  0  0  0  0  0  0  0  0  0  0  0
   -3.3541   -3.0308   -5.4131 H   0  0  0  0  0  0  0  0  0  0  0  0
   -1.8633   -2.0613   -5.6659 H   0  0  0  0  0  0  0  0  0  0  0  0
   -1.7878   -3.8552   -5.7184 H   0  0  0  0  0  0  0  0  0  0  0  0
 22 24  2  0  0  0  0
 24 26  1  0  0  0  0
 23 25  2  0  0  0  0
 25 26  1  0  0  0  0
 21 22  1  0  0  0  0
 22 23  1  0  0  0  0
  1  3  1  0  0  0  0
  1  7  1  0  0  0  0
  1  2  2  0  0  0  0
 35 36  1  0  0  0  0
 36 44  1  0  0  0  0
 36 37  2  0  0  0  0
  8  9  1  0  0  0  0
  9 17  1  0  0  0  0
  9 10  2  0  0  0  0
 18 19  1  0  0  0  0
 19 34  1  0  0  0  0
 19 20  2  0  0  0  0
 35 38  1  0  0  0  0
  8 11  1  0  0  0  0
 44 45  1  0  0  0  0
 18 21  1  0  0  0  0
 34 35  1  0  0  0  0
  7  8  1  0  0  0  0
 17 18  1  0  0  0  0
 24 31  1  0  0  0  0
 25 32  1  0  0  0  0
  3  4  1  0  0  0  0
  3  5  1  0  0  0  0
  3  6  1  0  0  0  0
 38 41  1  0  0  0  0
 38 42  1  0  0  0  0
 38 43  1  0  0  0  0
 11 14  1  0  0  0  0
 11 15  1  0  0  0  0
 11 16  1  0  0  0  0
 45 47  1  0  0  0  0
 45 48  1  0  0  0  0
 45 49  1  0  0  0  0
 21 29  1  0  0  0  0
 21 30  1  0  0  0  0
 35 40  1  0  0  0  0
  8 13  1  0  0  0  0
 18 28  1  0  0  0  0
 26 33  1  0  0  0  0
 44 46  1  0  0  0  0
  7 12  1  0  0  0  0
 34 39  1  0  0  0  0
 17 27  1  0  0  0  0
M  END
$$$$

  -OEChem-05262214473D

 49 49  0     1  0  0  0  0  0999 V2000
   -1.6183    0.5613    3.8201 C   0  0  0  0  0  0  0  0  0  0  0  0
   -0.6710   -0.0534    3.3444 O   0  0  0  0  0  0  0  0  0  0  0  0
   -2.0502    0.2789    5.2208 C   0  0  0  0  0  0  0  0  0  0  0  0
   -2.8099   -0.5175    5.2742 H   0  0  0  0  0  0  0  0  0  0  0  0
   -1.2190   -0.0687    5.8551 H   0  0  0  0  0  0  0  0  0  0  0  0
   -2.4882    1.1338    5.7604 H   0  0  0  0  0  0  0  0  0  0  0  0
   -2.3680    1.5337    3.1790 N   0  0  0  0  0  0  0  0  0  0  0  0
   -2.1212    1.9597    1.8266 C   0  0  2  0  0  0  0  0  0  0  0  0
   -0.7862    1.3744    1.3854 C   0  0  0  0  0  0  0  0  0  0  0  0
    0.0859    1.0216    2.1767 O   0  0  0  0  0  0  0  0  0  0  0  0
   -2.1124    3.4765    1.7171 C   0  0  0  0  0  0  0  0  0  0  0  0
   -3.1331    1.9695    3.6908 H   0  0  0  0  0  0  0  0  0  0  0  0
   -2.9253    1.5413    1.2115 H   0  0  0  0  0  0  0  0  0  0  0  0
   -1.3133    3.9138    2.3268 H   0  0  0  0  0  0  0  0  0  0  0  0
   -1.9529    3.7988    0.6829 H   0  0  0  0  0  0  0  0  0  0  0  0
   -3.0626    3.8977    2.0629 H   0  0  0  0  0  0  0  0  0  0  0  0
   -0.6635    1.3313    0.0020 N   0  0  0  0  0  0  0  0  0  0  0  0
    0.5138    0.8305   -0.6617 C   0  0  2  0  0  0  0  0  0  0  0  0
    0.0782   -0.3491   -1.5237 C   0  0  0  0  0  0  0  0  0  0  0  0
    0.7979   -0.8503   -2.3849 O   0  0  0  0  0  0  0  0  0  0  0  0
    1.5966    0.3935    0.3316 C   0  0  0  0  0  0  0  0  0  0  0  0
    2.1279    1.5396    1.1574 C   0  0  0  0  0  0  0  0  0  0  0  0
    2.9865    2.4579    0.6069 N   0  0  0  0  0  0  0  0  0  0  0  0
    1.8682    1.8307    2.4758 C   0  0  0  0  0  0  0  0  0  0  0  0
    3.2461    3.3002    1.5822 C   0  0  0  0  0  0  0  0  0  0  0  0
    2.5918    2.9608    2.7337 N   0  0  0  0  0  0  0  0  0  0  0  0
   -1.4467    1.6280   -0.5753 H   0  0  0  0  0  0  0  0  0  0  0  0
    0.8727    1.6369   -1.3119 H   0  0  0  0  0  0  0  0  0  0  0  0
    2.4252   -0.0945   -0.1993 H   0  0  0  0  0  0  0  0  0  0  0  0
    1.2038   -0.3701    1.0159 H   0  0  0  0  0  0  0  0  0  0  0  0
    1.2575    1.3559    3.2302 H   0  0  0  0  0  0  0  0  0  0  0  0
    3.8909    4.1656    1.5216 H   0  0  0  0  0  0  0  0  0  0  0  0
    2.6349    3.4560    3.6144 H   0  0  0  0  0  0  0  0  0  0  0  0
   -1.1876   -0.8038   -1.1808 N   0  0  0  0  0  0  0  0  0  0  0  0
   -1.8297   -1.9259   -1.8268 C   0  0  2  0  0  0  0  0  0  0  0  0
   -1.7443   -1.7137   -3.3325 C   0  0  0  0  0  0  0  0  0  0  0  0
   -1.5879   -0.6080   -3.8463 O   0  0  0  0  0  0  0  0  0  0  0  0
   -3.2760   -2.0687   -1.3792 C   0  0  0  0  0  0  0  0  0  0  0  0
   -1.6879   -0.3236   -0.4386 H   0  0  0  0  0  0  0  0  0  0  0  0
   -1.2588   -2.8190   -1.5503 H   0  0  0  0  0  0  0  0  0  0  0  0
   -3.8638   -1.1832   -1.6476 H   0  0  0  0  0  0  0  0  0  0  0  0
   -3.7526   -2.9361   -1.8476 H   0  0  0  0  0  0  0  0  0  0  0  0
   -3.3374   -2.1914   -0.2924 H   0  0  0  0  0  0  0  0  0  0  0  0
   -1.9064   -2.8987   -4.0366 N   0  0  0  0  0  0  0  0  0  0  0  0
   -1.8783   -2.9584   -5.4794 C   0  0  0  0  0  0  0  0  0  0  0  0
   -2.0120   -3.7716   -3.5281 H   0  0  0  0  0  0  0  0  0  0  0  0
   -2.9019   -2.8633   -5.8708 H   0  0  0  0  0  0  0  0  0  0  0  0
   -1.2593   -2.1364   -5.8682 H   0  0  0  0  0  0  0  0  0  0  0  0
   -1.4519   -3.9210   -5.7981 H   0  0  0  0  0  0  0  0  0  0  0  0
 22 24  2  0  0  0  0
 24 26  1  0  0  0  0
 23 25  2  0  0  0  0
 25 26  1  0  0  0  0
 21 22  1  0  0  0  0
 22 23  1  0  0  0  0
  1  3  1  0  0  0  0
  1  7  1  0  0  0  0
  1  2  2  0  0  0  0
 35 36  1  0  0  0  0
 36 44  1  0  0  0  0
 36 37  2  0  0  0  0
  8  9  1  0  0  0  0
  9 17  1  0  0  0  0
  9 10  2  0  0  0  0
 18 19  1  0  0  0  0
 19 34  1  0  0  0  0
 19 20  2  0  0  0  0
 35 38  1  0  0  0  0
  8 11  1  0  0  0  0
 44 45  1  0  0  0  0
 18 21  1  0  0  0  0
 34 35  1  0  0  0  0
  7  8  1  0  0  0  0
 17 18  1  0  0  0  0
 24 31  1  0  0  0  0
 25 32  1  0  0  0  0
  3  4  1  0  0  0  0
  3  5  1  0  0  0  0
  3  6  1  0  0  0  0
 38 41  1  0  0  0  0
 38 42  1  0  0  0  0
 38 43  1  0  0  0  0
 11 14  1  0  0  0  0
 11 15  1  0  0  0  0
 11 16  1  0  0  0  0
 45 47  1  0  0  0  0
 45 48  1  0  0  0  0
 45 49  1  0  0  0  0
 21 29  1  0  0  0  0
 21 30  1  0  0  0  0
 35 40  1  0  0  0  0
  8 13  1  0  0  0  0
 18 28  1  0  0  0  0
 26 33  1  0  0  0  0
 44 46  1  0  0  0  0
  7 12  1  0  0  0  0
 34 39  1  0  0  0  0
 17 27  1  0  0  0  0
M  END
$$$$

  -OEChem-05262214473D

 49 49  0     1  0  0  0  0  0999 V2000
   -1.6183    0.5613    3.8201 C   0  0  0  0  0  0  0  0  0  0  0  0
   -0.6710   -0.0534    3.3444 O   0  0  0  0  0  0  0  0  0  0  0  0
   -2.0502    0.2789    5.2208 C   0  0  0  0  0  0  0  0  0  0  0  0
   -2.8099   -0.5175    5.2742 H   0  0  0  0  0  0  0  0  0  0  0  0
   -1.2190   -0.0687    5.8551 H   0  0  0  0  0  0  0  0  0  0  0  0
   -2.4882    1.1338    5.7604 H   0  0  0  0  0  0  0  0  0  0  0  0
   -2.3680    1.5337    3.1790 N   0  0  0  0  0  0  0  0  0  0  0  0
   -2.1212    1.9597    1.8266 C   0  0  2  0  0  0  0  0  0  0  0  0
   -0.7862    1.3744    1.3854 C   0  0  0  0  0  0  0  0  0  0  0  0
    0.0859    1.0216    2.1767 O   0  0  0  0  0  0  0  0  0  0  0  0
   -2.1124    3.4765    1.7171 C   0  0  0  0  0  0  0  0  0  0  0  0
   -3.1331    1.9695    3.6908 H   0  0  0  0  0  0  0  0  0  0  0  0
   -2.9253    1.5413    1.2115 H   0  0  0  0  0  0  0  0  0  0  0  0
   -1.3133    3.9138    2.3268 H   0  0  0  0  0  0  0  0  0  0  0  0
   -1.9529    3.7988    0.6829 H   0  0  0  0  0  0  0  0  0  0  0  0
   -3.0626    3.8977    2.0629 H   0  0  0  0  0  0  0  0  0  0  0  0
   -0.6635    1.3313    0.0020 N   0  0  0  0  0  0  0  0  0  0  0  0
    0.5138    0.8305   -0.6617 C   0  0  2  0  0  0  0  0  0  0  0  0
    0.0782   -0.3491   -1.5237 C   0  0  0  0  0  0  0  0  0  0  0  0
    0.8660   -1.0198   -2.1873 O   0  0  0  0  0  0  0  0  0  0  0  0
    1.5966    0.3935    0.3316 C   0  0  0  0  0  0  0  0  0  0  0  0
    2.1279    1.5396    1.1574 C   0  0  0  0  0  0  0  0  0  0  0  0
    2.9865    2.4579    0.6069 N   0  0  0  0  0  0  0  0  0  0  0  0
    1.8682    1.8307    2.4758 C   0  0  0  0  0  0  0  0  0  0  0  0
    3.2461    3.3002    1.5822 C   0  0  0  0  0  0  0  0  0  0  0  0
    2.5918    2.9608    2.7337 N   0  0  0  0  0  0  0  0  0  0  0  0
   -1.4467    1.6280   -0.5753 H   0  0  0  0  0  0  0  0  0  0  0  0
    0.8727    1.6369   -1.3119 H   0  0  0  0  0  0  0  0  0  0  0  0
    2.4252   -0.0945   -0.1993 H   0  0  0  0  0  0  0  0  0  0  0  0
    1.2038   -0.3701    1.0159 H   0  0  0  0  0  0  0  0  0  0  0  0
    1.2575    1.3559    3.2302 H   0  0  0  0  0  0  0  0  0  0  0  0
    3.8909    4.1656    1.5216 H   0  0  0  0  0  0  0  0  0  0  0  0
    2.6349    3.4560    3.6144 H   0  0  0  0  0  0  0  0  0  0  0  0
   -1.2847   -0.5914   -1.4224 N   0  0  0  0  0  0  0  0  0  0  0  0
   -1.9536   -1.6664   -2.1192 C   0  0  2  0  0  0  0  0  0  0  0  0
   -1.5450   -1.6028   -3.5850 C   0  0  0  0  0  0  0  0  0  0  0  0
   -1.1233   -0.5795   -4.1200 O   0  0  0  0  0  0  0  0  0  0  0  0
   -3.4638   -1.5667   -1.9712 C   0  0  0  0  0  0  0  0  0  0  0  0
   -1.8400    0.0176   -0.8286 H   0  0  0  0  0  0  0  0  0  0  0  0
   -1.5918   -2.6020   -1.6790 H   0  0  0  0  0  0  0  0  0  0  0  0
   -3.8446   -0.6356   -2.4065 H   0  0  0  0  0  0  0  0  0  0  0  0
   -3.9677   -2.3978   -2.4756 H   0  0  0  0  0  0  0  0  0  0  0  0
   -3.7538   -1.5827   -0.9150 H   0  0  0  0  0  0  0  0  0  0  0  0
   -1.7473   -2.8116   -4.2362 N   0  0  0  0  0  0  0  0  0  0  0  0
   -1.4482   -3.0026   -5.6362 C   0  0  0  0  0  0  0  0  0  0  0  0
   -2.0829   -3.6128   -3.7096 H   0  0  0  0  0  0  0  0  0  0  0  0
   -2.3489   -2.8015   -6.2348 H   0  0  0  0  0  0  0  0  0  0  0  0
   -0.6464   -2.3123   -5.9372 H   0  0  0  0  0  0  0  0  0  0  0  0
   -1.1212   -4.0395   -5.8030 H   0  0  0  0  0  0  0  0  0  0  0  0
 22 24  2  0  0  0  0
 24 26  1  0  0  0  0
 23 25  2  0  0  0  0
 25 26  1  0  0  0  0
 21 22  1  0  0  0  0
 22 23  1  0  0  0  0
  1  3  1  0  0  0  0
  1  7  1  0  0  0  0
  1  2  2  0  0  0  0
 35 36  1  0  0  0  0
 36 44  1  0  0  0  0
 36 37  2  0  0  0  0
  8  9  1  0  0  0  0
  9 17  1  0  0  0  0
  9 10  2  0  0  0  0
 18 19  1  0  0  0  0
 19 34  1  0  0  0  0
 19 20  2  0  0  0  0
 35 38  1  0  0  0  0
  8 11  1  0  0  0  0
 44 45  1  0  0  0  0
 18 21  1  0  0  0  0
 34 35  1  0  0  0  0
  7  8  1  0  0  0  0
 17 18  1  0  0  0  0
 24 31  1  0  0  0  0
 25 32  1  0  0  0  0
  3  4  1  0  0  0  0
  3  5  1  0  0  0  0
  3  6  1  0  0  0  0
 38 41  1  0  0  0  0
 38 42  1  0  0  0  0
 38 43  1  0  0  0  0
 11 14  1  0  0  0  0
 11 15  1  0  0  0  0
 11 16  1  0  0  0  0
 45 47  1  0  0  0  0
 45 48  1  0  0  0  0
 45 49  1  0  0  0  0
 21 29  1  0  0  0  0
 21 30  1  0  0  0  0
 35 40  1  0  0  0  0
  8 13  1  0  0  0  0
 18 28  1  0  0  0  0
 26 33  1  0  0  0  0
 44 46  1  0  0  0  0
  7 12  1  0  0  0  0
 34 39  1  0  0  0  0
 17 27  1  0  0  0  0
M  END
$$$$

  -OEChem-05262214473D

 49 49  0     1  0  0  0  0  0999 V2000
   -1.6183    0.5613    3.8201 C   0  0  0  0  0  0  0  0  0  0  0  0
   -0.6710   -0.0534    3.3444 O   0  0  0  0  0  0  0  0  0  0  0  0
   -2.0502    0.2789    5.2208 C   0  0  0  0  0  0  0  0  0  0  0  0
   -2.8099   -0.5175    5.2742 H   0  0  0  0  0  0  0  0  0  0  0  0
   -1.2190   -0.0687    5.8551 H   0  0  0  0  0  0  0  0  0  0  0  0
   -2.4882    1.1338    5.7604 H   0  0  0  0  0  0  0  0  0  0  0  0
   -2.3680    1.5337    3.1790 N   0  0  0  0  0  0  0  0  0  0  0  0
   -2.1212    1.9597    1.8266 C   0  0  2  0  0  0  0  0  0  0  0  0
   -0.7862    1.3744    1.3854 C   0  0  0  0  0  0  0  0  0  0  0  0
    0.0859    1.0216    2.1767 O   0  0  0  0  0  0  0  0  0  0  0  0
   -2.1124    3.4765    1.7171 C   0  0  0  0  0  0  0  0  0  0  0  0
   -3.1331    1.9695    3.6908 H   0  0  0  0  0  0  0  0  0  0  0  0
   -2.9253    1.5413    1.2115 H   0  0  0  0  0  0  0  0  0  0  0  0
   -1.3133    3.9138    2.3268 H   0  0  0  0  0  0  0  0  0  0  0  0
   -1.9529    3.7988    0.6829 H   0  0  0  0  0  0  0  0  0  0  0  0
   -3.0626    3.8977    2.0629 H   0  0  0  0  0  0  0  0  0  0  0  0
   -0.6635    1.3313    0.0020 N   0  0  0  0  0  0  0  0  0  0  0  0
    0.5138    0.8305   -0.6617 C   0  0  2  0  0  0  0  0  0  0  0  0
    0.0782   -0.3491   -1.5237 C   0  0  0  0  0  0  0  0  0  0  0  0
    0.8673   -1.1790   -1.9702 O   0  0  0  0  0  0  0  0  0  0  0  0
    1.5966    0.3935    0.3316 C   0  0  0  0  0  0  0  0  0  0  0  0
    2.1279    1.5396    1.1574 C   0  0  0  0  0  0  0  0  0  0  0  0
    2.9865    2.4579    0.6069 N   0  0  0  0  0  0  0  0  0  0  0  0
    1.8682    1.8307    2.4758 C   0  0  0  0  0  0  0  0  0  0  0  0
    3.2461    3.3002    1.5822 C   0  0  0  0  0  0  0  0  0  0  0  0
    2.5918    2.9608    2.7337 N   0  0  0  0  0  0  0  0  0  0  0  0
   -1.4467    1.6280   -0.5753 H   0  0  0  0  0  0  0  0  0  0  0  0
    0.8727    1.6369   -1.3119 H   0  0  0  0  0  0  0  0  0  0  0  0
    2.4252   -0.0945   -0.1993 H   0  0  0  0  0  0  0  0  0  0  0  0
    1.2038   -0.3701    1.0159 H   0  0  0  0  0  0  0  0  0  0  0  0
    1.2575    1.3559    3.2302 H   0  0  0  0  0  0  0  0  0  0  0  0
    3.8909    4.1656    1.5216 H   0  0  0  0  0  0  0  0  0  0  0  0
    2.6349    3.4560    3.6144 H   0  0  0  0  0  0  0  0  0  0  0  0
   -1.2991   -0.3899   -1.6909 N   0  0  0  0  0  0  0  0  0  0  0  0
   -1.9767   -1.4193   -2.4457 C   0  0  2  0  0  0  0  0  0  0  0  0
   -1.2856   -1.5435   -3.7972 C   0  0  0  0  0  0  0  0  0  0  0  0
   -0.6155   -0.6403   -4.2934 O   0  0  0  0  0  0  0  0  0  0  0  0
   -3.4532   -1.0982   -2.6177 C   0  0  0  0  0  0  0  0  0  0  0  0
   -1.8589    0.3406   -1.2611 H   0  0  0  0  0  0  0  0  0  0  0  0
   -1.8560   -2.3532   -1.8860 H   0  0  0  0  0  0  0  0  0  0  0  0
   -3.5940   -0.1657   -3.1763 H   0  0  0  0  0  0  0  0  0  0  0  0
   -3.9709   -1.8927   -3.1651 H   0  0  0  0  0  0  0  0  0  0  0  0
   -3.9422   -0.9798   -1.6447 H   0  0  0  0  0  0  0  0  0  0  0  0
   -1.5408   -2.7656   -4.4035 N   0  0  0  0  0  0  0  0  0  0  0  0
   -1.0078   -3.1199   -5.6983 C   0  0  0  0  0  0  0  0  0  0  0  0
   -2.0917   -3.4624   -3.9109 H   0  0  0  0  0  0  0  0  0  0  0  0
   -1.7328   -2.8497   -6.4802 H   0  0  0  0  0  0  0  0  0  0  0  0
   -0.0662   -2.5771   -5.8681 H   0  0  0  0  0  0  0  0  0  0  0  0
   -0.8181   -4.2028   -5.7327 H   0  0  0  0  0  0  0  0  0  0  0  0
 22 24  2  0  0  0  0
 24 26  1  0  0  0  0
 23 25  2  0  0  0  0
 25 26  1  0  0  0  0
 21 22  1  0  0  0  0
 22 23  1  0  0  0  0
  1  3  1  0  0  0  0
  1  7  1  0  0  0  0
  1  2  2  0  0  0  0
 35 36  1  0  0  0  0
 36 44  1  0  0  0  0
 36 37  2  0  0  0  0
  8  9  1  0  0  0  0
  9 17  1  0  0  0  0
  9 10  2  0  0  0  0
 18 19  1  0  0  0  0
 19 34  1  0  0  0  0
 19 20  2  0  0  0  0
 35 38  1  0  0  0  0
  8 11  1  0  0  0  0
 44 45  1  0  0  0  0
 18 21  1  0  0  0  0
 34 35  1  0  0  0  0
  7  8  1  0  0  0  0
 17 18  1  0  0  0  0
 24 31  1  0  0  0  0
 25 32  1  0  0  0  0
  3  4  1  0  0  0  0
  3  5  1  0  0  0  0
  3  6  1  0  0  0  0
 38 41  1  0  0  0  0
 38 42  1  0  0  0  0
 38 43  1  0  0  0  0
 11 14  1  0  0  0  0
 11 15  1  0  0  0  0
 11 16  1  0  0  0  0
 45 47  1  0  0  0  0
 45 48  1  0  0  0  0
 45 49  1  0  0  0  0
 21 29  1  0  0  0  0
 21 30  1  0  0  0  0
 35 40  1  0  0  0  0
  8 13  1  0  0  0  0
 18 28  1  0  0  0  0
 26 33  1  0  0  0  0
 44 46  1  0  0  0  0
  7 12  1  0  0  0  0
 34 39  1  0  0  0  0
 17 27  1  0  0  0  0
M  END
$$$$

  -OEChem-05262214473D

 49 49  0     1  0  0  0  0  0999 V2000
   -1.6183    0.5613    3.8201 C   0  0  0  0  0  0  0  0  0  0  0  0
   -0.6710   -0.0534    3.3444 O   0  0  0  0  0  0  0  0  0  0  0  0
   -2.0502    0.2789    5.2208 C   0  0  0  0  0  0  0  0  0  0  0  0
   -2.8099   -0.5175    5.2742 H   0  0  0  0  0  0  0  0  0  0  0  0
   -1.2190   -0.0687    5.8551 H   0  0  0  0  0  0  0  0  0  0  0  0
   -2.4882    1.1338    5.7604 H   0  0  0  0  0  0  0  0  0  0  0  0
   -2.3680    1.5337    3.1790 N   0  0  0  0  0  0  0  0  0  0  0  0
   -2.1212    1.9597    1.8266 C   0  0  2  0  0  0  0  0  0  0  0  0
   -0.7862    1.3744    1.3854 C   0  0  0  0  0  0  0  0  0  0  0  0
    0.0859    1.0216    2.1767 O   0  0  0  0  0  0  0  0  0  0  0  0
   -2.1124    3.4765    1.7171 C   0  0  0  0  0  0  0  0  0  0  0  0
   -3.1331    1.9695    3.6908 H   0  0  0  0  0  0  0  0  0  0  0  0
   -2.9253    1.5413    1.2115 H   0  0  0  0  0  0  0  0  0  0  0  0
   -1.3133    3.9138    2.3268 H   0  0  0  0  0  0  0  0  0  0  0  0
   -1.9529    3.7988    0.6829 H   0  0  0  0  0  0  0  0  0  0  0  0
   -3.0626    3.8977    2.0629 H   0  0  0  0  0  0  0  0  0  0  0  0
   -0.6635    1.3313    0.0020 N   0  0  0  0  0  0  0  0  0  0  0  0
    0.5138    0.8305   -0.6617 C   0  0  2  0  0  0  0  0  0  0  0  0
    0.0782   -0.3491   -1.5237 C   0  0  0  0  0  0  0  0  0  0  0  0
    0.8019   -1.3169   -1.7485 O   0  0  0  0  0  0  0  0  0  0  0  0
    1.5966    0.3935    0.3316 C   0  0  0  0  0  0  0  0  0  0  0  0
    2.1279    1.5396    1.1574 C   0  0  0  0  0  0  0  0  0  0  0  0
    2.9865    2.4579    0.6069 N   0  0  0  0  0  0  0  0  0  0  0  0
    1.8682    1.8307    2.4758 C   0  0  0  0  0  0  0  0  0  0  0  0
    3.2461    3.3002    1.5822 C   0  0  0  0  0  0  0  0  0  0  0  0
    2.5918    2.9608    2.7337 N   0  0  0  0  0  0  0  0  0  0  0  0
   -1.4467    1.6280   -0.5753 H   0  0  0  0  0  0  0  0  0  0  0  0
    0.8727    1.6369   -1.3119 H   0  0  0  0  0  0  0  0  0  0  0  0
    2.4252   -0.0945   -0.1993 H   0  0  0  0  0  0  0  0  0  0  0  0
    1.2038   -0.3701    1.0159 H   0  0  0  0  0  0  0  0  0  0  0  0
    1.2575    1.3559    3.2302 H   0  0  0  0  0  0  0  0  0  0  0  0
    3.8909    4.1656    1.5216 H   0  0  0  0  0  0  0  0  0  0  0  0
    2.6349    3.4560    3.6144 H   0  0  0  0  0  0  0  0  0  0  0  0
   -1.2297   -0.2130   -1.9680 N   0  0  0  0  0  0  0  0  0  0  0  0
   -1.8975   -1.2014   -2.7840 C   0  0  2  0  0  0  0  0  0  0  0  0
   -0.9839   -1.5399   -3.9546 C   0  0  0  0  0  0  0  0  0  0  0  0
   -0.0992   -0.7861   -4.3547 O   0  0  0  0  0  0  0  0  0  0  0  0
   -3.2449   -0.6950   -3.2747 C   0  0  0  0  0  0  0  0  0  0  0  0
   -1.7433    0.6234   -1.7065 H   0  0  0  0  0  0  0  0  0  0  0  0
   -2.0333   -2.0895   -2.1572 H   0  0  0  0  0  0  0  0  0  0  0  0
   -3.1290    0.1947   -3.9045 H   0  0  0  0  0  0  0  0  0  0  0  0
   -3.7621   -1.4554   -3.8690 H   0  0  0  0  0  0  0  0  0  0  0  0
   -3.8899   -0.4239   -2.4319 H   0  0  0  0  0  0  0  0  0  0  0  0
   -1.3011   -2.7637   -4.5272 N   0  0  0  0  0  0  0  0  0  0  0  0
   -0.5872   -3.3022   -5.6614 C   0  0  0  0  0  0  0  0  0  0  0  0
   -2.0379   -3.3307   -4.1183 H   0  0  0  0  0  0  0  0  0  0  0  0
   -1.0956   -3.0045   -6.5903 H   0  0  0  0  0  0  0  0  0  0  0  0
    0.4416   -2.9126   -5.6656 H   0  0  0  0  0  0  0  0  0  0  0  0
   -0.5633   -4.3997   -5.5920 H   0  0  0  0  0  0  0  0  0  0  0  0
 22 24  2  0  0  0  0
 24 26  1  0  0  0  0
 23 25  2  0  0  0  0
 25 26  1  0  0  0  0
 21 22  1  0  0  0  0
 22 23  1  0  0  0  0
  1  3  1  0  0  0  0
  1  7  1  0  0  0  0
  1  2  2  0  0  0  0
 35 36  1  0  0  0  0
 36 44  1  0  0  0  0
 36 37  2  0  0  0  0
  8  9  1  0  0  0  0
  9 17  1  0  0  0  0
  9 10  2  0  0  0  0
 18 19  1  0  0  0  0
 19 34  1  0  0  0  0
 19 20  2  0  0  0  0
 35 38  1  0  0  0  0
  8 11  1  0  0  0  0
 44 45  1  0  0  0  0
 18 21  1  0  0  0  0
 34 35  1  0  0  0  0
  7  8  1  0  0  0  0
 17 18  1  0  0  0  0
 24 31  1  0  0  0  0
 25 32  1  0  0  0  0
  3  4  1  0  0  0  0
  3  5  1  0  0  0  0
  3  6  1  0  0  0  0
 38 41  1  0  0  0  0
 38 42  1  0  0  0  0
 38 43  1  0  0  0  0
 11 14  1  0  0  0  0
 11 15  1  0  0  0  0
 11 16  1  0  0  0  0
 45 47  1  0  0  0  0
 45 48  1  0  0  0  0
 45 49  1  0  0  0  0
 21 29  1  0  0  0  0
 21 30  1  0  0  0  0
 35 40  1  0  0  0  0
  8 13  1  0  0  0  0
 18 28  1  0  0  0  0
 26 33  1  0  0  0  0
 44 46  1  0  0  0  0
  7 12  1  0  0  0  0
 34 39  1  0  0  0  0
 17 27  1  0  0  0  0
M  END
$$$$

  -OEChem-05262214473D

 49 49  0     1  0  0  0  0  0999 V2000
   -1.6183    0.5613    3.8201 C   0  0  0  0  0  0  0  0  0  0  0  0
   -0.6710   -0.0534    3.3444 O   0  0  0  0  0  0  0  0  0  0  0  0
   -2.0502    0.2789    5.2208 C   0  0  0  0  0  0  0  0  0  0  0  0
   -2.8099   -0.5175    5.2742 H   0  0  0  0  0  0  0  0  0  0  0  0
   -1.2190   -0.0687    5.8551 H   0  0  0  0  0  0  0  0  0  0  0  0
   -2.4882    1.1338    5.7604 H   0  0  0  0  0  0  0  0  0  0  0  0
   -2.3680    1.5337    3.1790 N   0  0  0  0  0  0  0  0  0  0  0  0
   -2.1212    1.9597    1.8266 C   0  0  2  0  0  0  0  0  0  0  0  0
   -0.7862    1.3744    1.3854 C   0  0  0  0  0  0  0  0  0  0  0  0
    0.0859    1.0216    2.1767 O   0  0  0  0  0  0  0  0  0  0  0  0
   -2.1124    3.4765    1.7171 C   0  0  0  0  0  0  0  0  0  0  0  0
   -3.1331    1.9695    3.6908 H   0  0  0  0  0  0  0  0  0  0  0  0
   -2.9253    1.5413    1.2115 H   0  0  0  0  0  0  0  0  0  0  0  0
   -1.3133    3.9138    2.3268 H   0  0  0  0  0  0  0  0  0  0  0  0
   -1.9529    3.7988    0.6829 H   0  0  0  0  0  0  0  0  0  0  0  0
   -3.0626    3.8977    2.0629 H   0  0  0  0  0  0  0  0  0  0  0  0
   -0.6635    1.3313    0.0020 N   0  0  0  0  0  0  0  0  0  0  0  0
    0.5138    0.8305   -0.6617 C   0  0  2  0  0  0  0  0  0  0  0  0
    0.0782   -0.3491   -1.5237 C   0  0  0  0  0  0  0  0  0  0  0  0
    0.6742   -1.4241   -1.5372 O   0  0  0  0  0  0  0  0  0  0  0  0
    1.5966    0.3935    0.3316 C   0  0  0  0  0  0  0  0  0  0  0  0
    2.1279    1.5396    1.1574 C   0  0  0  0  0  0  0  0  0  0  0  0
    2.9865    2.4579    0.6069 N   0  0  0  0  0  0  0  0  0  0  0  0
    1.8682    1.8307    2.4758 C   0  0  0  0  0  0  0  0  0  0  0  0
    3.2461    3.3002    1.5822 C   0  0  0  0  0  0  0  0  0  0  0  0
    2.5918    2.9608    2.7337 N   0  0  0  0  0  0  0  0  0  0  0  0
   -1.4467    1.6280   -0.5753 H   0  0  0  0  0  0  0  0  0  0  0  0
    0.8727    1.6369   -1.3119 H   0  0  0  0  0  0  0  0  0  0  0  0
    2.4252   -0.0945   -0.1993 H   0  0  0  0  0  0  0  0  0  0  0  0
    1.2038   -0.3701    1.0159 H   0  0  0  0  0  0  0  0  0  0  0  0
    1.2575    1.3559    3.2302 H   0  0  0  0  0  0  0  0  0  0  0  0
    3.8909    4.1656    1.5216 H   0  0  0  0  0  0  0  0  0  0  0  0
    2.6349    3.4560    3.6144 H   0  0  0  0  0  0  0  0  0  0  0  0
   -1.0813   -0.0728   -2.2348 N   0  0  0  0  0  0  0  0  0  0  0  0
   -1.7214   -1.0275   -3.1110 C   0  0  2  0  0  0  0  0  0  0  0  0
   -0.6605   -1.5922   -4.0465 C   0  0  0  0  0  0  0  0  0  0  0  0
    0.3905   -1.0071   -4.2998 O   0  0  0  0  0  0  0  0  0  0  0  0
   -2.8531   -0.3846   -3.8975 C   0  0  0  0  0  0  0  0  0  0  0  0
   -1.5011    0.8467   -2.1344 H   0  0  0  0  0  0  0  0  0  0  0  0
   -2.1116   -1.8289   -2.4743 H   0  0  0  0  0  0  0  0  0  0  0  0
   -2.4813    0.4209   -4.5413 H   0  0  0  0  0  0  0  0  0  0  0  0
   -3.3554   -1.1156   -4.5395 H   0  0  0  0  0  0  0  0  0  0  0  0
   -3.6003    0.0472   -3.2229 H   0  0  0  0  0  0  0  0  0  0  0  0
   -1.0445   -2.8061   -4.5988 N   0  0  0  0  0  0  0  0  0  0  0  0
   -0.2149   -3.5371   -5.5280 C   0  0  0  0  0  0  0  0  0  0  0  0
   -1.9252   -3.2268   -4.3175 H   0  0  0  0  0  0  0  0  0  0  0  0
   -0.4807   -3.2555   -6.5576 H   0  0  0  0  0  0  0  0  0  0  0  0
    0.8424   -3.2960   -5.3434 H   0  0  0  0  0  0  0  0  0  0  0  0
   -0.3742   -4.6168   -5.3906 H   0  0  0  0  0  0  0  0  0  0  0  0
 22 24  2  0  0  0  0
 24 26  1  0  0  0  0
 23 25  2  0  0  0  0
 25 26  1  0  0  0  0
 21 22  1  0  0  0  0
 22 23  1  0  0  0  0
  1  3  1  0  0  0  0
  1  7  1  0  0  0  0
  1  2  2  0  0  0  0
 35 36  1  0  0  0  0
 36 44  1  0  0  0  0
 36 37  2  0  0  0  0
  8  9  1  0  0  0  0
  9 17  1  0  0  0  0
  9 10  2  0  0  0  0
 18 19  1  0  0  0  0
 19 34  1  0  0  0  0
 19 20  2  0  0  0  0
 35 38  1  0  0  0  0
  8 11  1  0  0  0  0
 44 45  1  0  0  0  0
 18 21  1  0  0  0  0
 34 35  1  0  0  0  0
  7  8  1  0  0  0  0
 17 18  1  0  0  0  0
 24 31  1  0  0  0  0
 25 32  1  0  0  0  0
  3  4  1  0  0  0  0
  3  5  1  0  0  0  0
  3  6  1  0  0  0  0
 38 41  1  0  0  0  0
 38 42  1  0  0  0  0
 38 43  1  0  0  0  0
 11 14  1  0  0  0  0
 11 15  1  0  0  0  0
 11 16  1  0  0  0  0
 45 47  1  0  0  0  0
 45 48  1  0  0  0  0
 45 49  1  0  0  0  0
 21 29  1  0  0  0  0
 21 30  1  0  0  0  0
 35 40  1  0  0  0  0
  8 13  1  0  0  0  0
 18 28  1  0  0  0  0
 26 33  1  0  0  0  0
 44 46  1  0  0  0  0
  7 12  1  0  0  0  0
 34 39  1  0  0  0  0
 17 27  1  0  0  0  0
M  END
$$$$

  -OEChem-05262214473D

 49 49  0     1  0  0  0  0  0999 V2000
   -1.6183    0.5613    3.8201 C   0  0  0  0  0  0  0  0  0  0  0  0
   -0.6710   -0.0534    3.3444 O   0  0  0  0  0  0  0  0  0  0  0  0
   -2.0502    0.2789    5.2208 C   0  0  0  0  0  0  0  0  0  0  0  0
   -2.8099   -0.5175    5.2742 H   0  0  0  0  0  0  0  0  0  0  0  0
   -1.2190   -0.0687    5.8551 H   0  0  0  0  0  0  0  0  0  0  0  0
   -2.4882    1.1338    5.7604 H   0  0  0  0  0  0  0  0  0  0  0  0
   -2.3680    1.5337    3.1790 N   0  0  0  0  0  0  0  0  0  0  0  0
   -2.1212    1.9597    1.8266 C   0  0  2  0  0  0  0  0  0  0  0  0
   -0.7862    1.3744    1.3854 C   0  0  0  0  0  0  0  0  0  0  0  0
    0.0859    1.0216    2.1767 O   0  0  0  0  0  0  0  0  0  0  0  0
   -2.1124    3.4765    1.7171 C   0  0  0  0  0  0  0  0  0  0  0  0
   -3.1331    1.9695    3.6908 H   0  0  0  0  0  0  0  0  0  0  0  0
   -2.9253    1.5413    1.2115 H   0  0  0  0  0  0  0  0  0  0  0  0
   -1.3133    3.9138    2.3268 H   0  0  0  0  0  0  0  0  0  0  0  0
   -1.9529    3.7988    0.6829 H   0  0  0  0  0  0  0  0  0  0  0  0
   -3.0626    3.8977    2.0629 H   0  0  0  0  0  0  0  0  0  0  0  0
   -0.6635    1.3313    0.0020 N   0  0  0  0  0  0  0  0  0  0  0  0
    0.5138    0.8305   -0.6617 C   0  0  2  0  0  0  0  0  0  0  0  0
    0.0782   -0.3491   -1.5237 C   0  0  0  0  0  0  0  0  0  0  0  0
    0.4927   -1.4933   -1.3508 O   0  0  0  0  0  0  0  0  0  0  0  0
    1.5966    0.3935    0.3316 C   0  0  0  0  0  0  0  0  0  0  0  0
    2.1279    1.5396    1.1574 C   0  0  0  0  0  0  0  0  0  0  0  0
    2.9865    2.4579    0.6069 N   0  0  0  0  0  0  0  0  0  0  0  0
    1.8682    1.8307    2.4758 C   0  0  0  0  0  0  0  0  0  0  0  0
    3.2461    3.3002    1.5822 C   0  0  0  0  0  0  0  0  0  0  0  0
    2.5918    2.9608    2.7337 N   0  0  0  0  0  0  0  0  0  0  0  0
   -1.4467    1.6280   -0.5753 H   0  0  0  0  0  0  0  0  0  0  0  0
    0.8727    1.6369   -1.3119 H   0  0  0  0  0  0  0  0  0  0  0  0
    2.4252   -0.0945   -0.1993 H   0  0  0  0  0  0  0  0  0  0  0  0
    1.2038   -0.3701    1.0159 H   0  0  0  0  0  0  0  0  0  0  0  0
    1.2575    1.3559    3.2302 H   0  0  0  0  0  0  0  0  0  0  0  0
    3.8909    4.1656    1.5216 H   0  0  0  0  0  0  0  0  0  0  0  0
    2.6349    3.4560    3.6144 H   0  0  0  0  0  0  0  0  0  0  0  0
   -0.8640    0.0212   -2.4732 N   0  0  0  0  0  0  0  0  0  0  0  0
   -1.4603   -0.9095   -3.4044 C   0  0  2  0  0  0  0  0  0  0  0  0
   -0.3373   -1.6968   -4.0666 C   0  0  0  0  0  0  0  0  0  0  0  0
    0.8201   -1.2881   -4.1323 O   0  0  0  0  0  0  0  0  0  0  0  0
   -2.3045   -0.1881   -4.4435 C   0  0  0  0  0  0  0  0  0  0  0  0
   -1.1487    0.9953   -2.5158 H   0  0  0  0  0  0  0  0  0  0  0  0
   -2.0857   -1.5892   -2.8154 H   0  0  0  0  0  0  0  0  0  0  0  0
   -1.6950    0.4975   -5.0435 H   0  0  0  0  0  0  0  0  0  0  0  0
   -2.7785   -0.8965   -5.1309 H   0  0  0  0  0  0  0  0  0  0  0  0
   -3.0933    0.4014   -3.9638 H   0  0  0  0  0  0  0  0  0  0  0  0
   -0.7885   -2.8899   -4.6135 N   0  0  0  0  0  0  0  0  0  0  0  0
    0.0836   -3.8086   -5.3073 C   0  0  0  0  0  0  0  0  0  0  0  0
   -1.7612   -3.1576   -4.4950 H   0  0  0  0  0  0  0  0  0  0  0  0
    0.0699   -3.5855   -6.3843 H   0  0  0  0  0  0  0  0  0  0  0  0
    1.1089   -3.7012   -4.9236 H   0  0  0  0  0  0  0  0  0  0  0  0
   -0.2636   -4.8392   -5.1420 H   0  0  0  0  0  0  0  0  0  0  0  0
 22 24  2  0  0  0  0
 24 26  1  0  0  0  0
 23 25  2  0  0  0  0
 25 26  1  0  0  0  0
 21 22  1  0  0  0  0
 22 23  1  0  0  0  0
  1  3  1  0  0  0  0
  1  7  1  0  0  0  0
  1  2  2  0  0  0  0
 35 36  1  0  0  0  0
 36 44  1  0  0  0  0
 36 37  2  0  0  0  0
  8  9  1  0  0  0  0
  9 17  1  0  0  0  0
  9 10  2  0  0  0  0
 18 19  1  0  0  0  0
 19 34  1  0  0  0  0
 19 20  2  0  0  0  0
 35 38  1  0  0  0  0
  8 11  1  0  0  0  0
 44 45  1  0  0  0  0
 18 21  1  0  0  0  0
 34 35  1  0  0  0  0
  7  8  1  0  0  0  0
 17 18  1  0  0  0  0
 24 31  1  0  0  0  0
 25 32  1  0  0  0  0
  3  4  1  0  0  0  0
  3  5  1  0  0  0  0
  3  6  1  0  0  0  0
 38 41  1  0  0  0  0
 38 42  1  0  0  0  0
 38 43  1  0  0  0  0
 11 14  1  0  0  0  0
 11 15  1  0  0  0  0
 11 16  1  0  0  0  0
 45 47  1  0  0  0  0
 45 48  1  0  0  0  0
 45 49  1  0  0  0  0
 21 29  1  0  0  0  0
 21 30  1  0  0  0  0
 35 40  1  0  0  0  0
  8 13  1  0  0  0  0
 18 28  1  0  0  0  0
 26 33  1  0  0  0  0
 44 46  1  0  0  0  0
  7 12  1  0  0  0  0
 34 39  1  0  0  0  0
 17 27  1  0  0  0  0
M  END
$$$$

  -OEChem-05262214473D

 49 49  0     1  0  0  0  0  0999 V2000
   -1.6183    0.5613    3.8201 C   0  0  0  0  0  0  0  0  0  0  0  0
   -0.6710   -0.0534    3.3444 O   0  0  0  0  0  0  0  0  0  0  0  0
   -2.0502    0.2789    5.2208 C   0  0  0  0  0  0  0  0  0  0  0  0
   -2.8099   -0.5175    5.2742 H   0  0  0  0  0  0  0  0  0  0  0  0
   -1.2190   -0.0687    5.8551 H   0  0  0  0  0  0  0  0  0  0  0  0
   -2.4882    1.1338    5.7604 H   0  0  0  0  0  0  0  0  0  0  0  0
   -2.3680    1.5337    3.1790 N   0  0  0  0  0  0  0  0  0  0  0  0
   -2.1212    1.9597    1.8266 C   0  0  2  0  0  0  0  0  0  0  0  0
   -0.7862    1.3744    1.3854 C   0  0  0  0  0  0  0  0  0  0  0  0
    0.0859    1.0216    2.1767 O   0  0  0  0  0  0  0  0  0  0  0  0
   -2.1124    3.4765    1.7171 C   0  0  0  0  0  0  0  0  0  0  0  0
   -3.1331    1.9695    3.6908 H   0  0  0  0  0  0  0  0  0  0  0  0
   -2.9253    1.5413    1.2115 H   0  0  0  0  0  0  0  0  0  0  0  0
   -1.3133    3.9138    2.3268 H   0  0  0  0  0  0  0  0  0  0  0  0
   -1.9529    3.7988    0.6829 H   0  0  0  0  0  0  0  0  0  0  0  0
   -3.0626    3.8977    2.0629 H   0  0  0  0  0  0  0  0  0  0  0  0
   -0.6635    1.3313    0.0020 N   0  0  0  0  0  0  0  0  0  0  0  0
    0.5138    0.8305   -0.6617 C   0  0  2  0  0  0  0  0  0  0  0  0
    0.0782   -0.3491   -1.5237 C   0  0  0  0  0  0  0  0  0  0  0  0
    0.2700   -1.5198   -1.2020 O   0  0  0  0  0  0  0  0  0  0  0  0
    1.5966    0.3935    0.3316 C   0  0  0  0  0  0  0  0  0  0  0  0
    2.1279    1.5396    1.1574 C   0  0  0  0  0  0  0  0  0  0  0  0
    2.9865    2.4579    0.6069 N   0  0  0  0  0  0  0  0  0  0  0  0
    1.8682    1.8307    2.4758 C   0  0  0  0  0  0  0  0  0  0  0  0
    3.2461    3.3002    1.5822 C   0  0  0  0  0  0  0  0  0  0  0  0
    2.5918    2.9608    2.7337 N   0  0  0  0  0  0  0  0  0  0  0  0
   -1.4467    1.6280   -0.5753 H   0  0  0  0  0  0  0  0  0  0  0  0
    0.8727    1.6369   -1.3119 H   0  0  0  0  0  0  0  0  0  0  0  0
    2.4252   -0.0945   -0.1993 H   0  0  0  0  0  0  0  0  0  0  0  0
    1.2038   -0.3701    1.0159 H   0  0  0  0  0  0  0  0  0  0  0  0
    1.2575    1.3559    3.2302 H   0  0  0  0  0  0  0  0  0  0  0  0
    3.8909    4.1656    1.5216 H   0  0  0  0  0  0  0  0  0  0  0  0
    2.6349    3.4560    3.6144 H   0  0  0  0  0  0  0  0  0  0  0  0
   -0.5926    0.0625   -2.6669 N   0  0  0  0  0  0  0  0  0  0  0  0
   -1.1321   -0.8553   -3.6443 C   0  0  2  0  0  0  0  0  0  0  0  0
   -0.0365   -1.8466   -4.0136 C   0  0  0  0  0  0  0  0  0  0  0  0
    1.1605   -1.6101   -3.8638 O   0  0  0  0  0  0  0  0  0  0  0  0
   -1.6365   -0.1190   -4.8756 C   0  0  0  0  0  0  0  0  0  0  0  0
   -0.7102    1.0590   -2.8247 H   0  0  0  0  0  0  0  0  0  0  0  0
   -1.9572   -1.3867   -3.1575 H   0  0  0  0  0  0  0  0  0  0  0  0
   -0.8238    0.4193   -5.3767 H   0  0  0  0  0  0  0  0  0  0  0  0
   -2.0708   -0.8130   -5.6027 H   0  0  0  0  0  0  0  0  0  0  0  0
   -2.4033    0.6145   -4.6042 H   0  0  0  0  0  0  0  0  0  0  0  0
   -0.5506   -3.0094   -4.5702 N   0  0  0  0  0  0  0  0  0  0  0  0
    0.2880   -4.0982   -5.0142 C   0  0  0  0  0  0  0  0  0  0  0  0
   -1.5571   -3.1279   -4.6388 H   0  0  0  0  0  0  0  0  0  0  0  0
    0.5188   -3.9720   -6.0822 H   0  0  0  0  0  0  0  0  0  0  0  0
    1.2230   -4.1005   -4.4348 H   0  0  0  0  0  0  0  0  0  0  0  0
   -0.2392   -5.0519   -4.8634 H   0  0  0  0  0  0  0  0  0  0  0  0
 22 24  2  0  0  0  0
 24 26  1  0  0  0  0
 23 25  2  0  0  0  0
 25 26  1  0  0  0  0
 21 22  1  0  0  0  0
 22 23  1  0  0  0  0
  1  3  1  0  0  0  0
  1  7  1  0  0  0  0
  1  2  2  0  0  0  0
 35 36  1  0  0  0  0
 36 44  1  0  0  0  0
 36 37  2  0  0  0  0
  8  9  1  0  0  0  0
  9 17  1  0  0  0  0
  9 10  2  0  0  0  0
 18 19  1  0  0  0  0
 19 34  1  0  0  0  0
 19 20  2  0  0  0  0
 35 38  1  0  0  0  0
  8 11  1  0  0  0  0
 44 45  1  0  0  0  0
 18 21  1  0  0  0  0
 34 35  1  0  0  0  0
  7  8  1  0  0  0  0
 17 18  1  0  0  0  0
 24 31  1  0  0  0  0
 25 32  1  0  0  0  0
  3  4  1  0  0  0  0
  3  5  1  0  0  0  0
  3  6  1  0  0  0  0
 38 41  1  0  0  0  0
 38 42  1  0  0  0  0
 38 43  1  0  0  0  0
 11 14  1  0  0  0  0
 11 15  1  0  0  0  0
 11 16  1  0  0  0  0
 45 47  1  0  0  0  0
 45 48  1  0  0  0  0
 45 49  1  0  0  0  0
 21 29  1  0  0  0  0
 21 30  1  0  0  0  0
 35 40  1  0  0  0  0
  8 13  1  0  0  0  0
 18 28  1  0  0  0  0
 26 33  1  0  0  0  0
 44 46  1  0  0  0  0
  7 12  1  0  0  0  0
 34 39  1  0  0  0  0
 17 27  1  0  0  0  0
M  END
$$$$

  -OEChem-05262214473D

 49 49  0     1  0  0  0  0  0999 V2000
   -1.6183    0.5613    3.8201 C   0  0  0  0  0  0  0  0  0  0  0  0
   -0.6710   -0.0534    3.3444 O   0  0  0  0  0  0  0  0  0  0  0  0
   -2.0502    0.2789    5.2208 C   0  0  0  0  0  0  0  0  0  0  0  0
   -2.8099   -0.5175    5.2742 H   0  0  0  0  0  0  0  0  0  0  0  0
   -1.2190   -0.0687    5.8551 H   0  0  0  0  0  0  0  0  0  0  0  0
   -2.4882    1.1338    5.7604 H   0  0  0  0  0  0  0  0  0  0  0  0
   -2.3680    1.5337    3.1790 N   0  0  0  0  0  0  0  0  0  0  0  0
   -2.1212    1.9597    1.8266 C   0  0  2  0  0  0  0  0  0  0  0  0
   -0.7862    1.3744    1.3854 C   0  0  0  0  0  0  0  0  0  0  0  0
    0.0859    1.0216    2.1767 O   0  0  0  0  0  0  0  0  0  0  0  0
   -2.1124    3.4765    1.7171 C   0  0  0  0  0  0  0  0  0  0  0  0
   -3.1331    1.9695    3.6908 H   0  0  0  0  0  0  0  0  0  0  0  0
   -2.9253    1.5413    1.2115 H   0  0  0  0  0  0  0  0  0  0  0  0
   -1.3133    3.9138    2.3268 H   0  0  0  0  0  0  0  0  0  0  0  0
   -1.9529    3.7988    0.6829 H   0  0  0  0  0  0  0  0  0  0  0  0
   -3.0626    3.8977    2.0629 H   0  0  0  0  0  0  0  0  0  0  0  0
   -0.6635    1.3313    0.0020 N   0  0  0  0  0  0  0  0  0  0  0  0
    0.5138    0.8305   -0.6617 C   0  0  2  0  0  0  0  0  0  0  0  0
    0.0782   -0.3491   -1.5237 C   0  0  0  0  0  0  0  0  0  0  0  0
    0.0212   -1.5019   -1.1008 O   0  0  0  0  0  0  0  0  0  0  0  0
    1.5966    0.3935    0.3316 C   0  0  0  0  0  0  0  0  0  0  0  0
    2.1279    1.5396    1.1574 C   0  0  0  0  0  0  0  0  0  0  0  0
    2.9865    2.4579    0.6069 N   0  0  0  0  0  0  0  0  0  0  0  0
    1.8682    1.8307    2.4758 C   0  0  0  0  0  0  0  0  0  0  0  0
    3.2461    3.3002    1.5822 C   0  0  0  0  0  0  0  0  0  0  0  0
    2.5918    2.9608    2.7337 N   0  0  0  0  0  0  0  0  0  0  0  0
   -1.4467    1.6280   -0.5753 H   0  0  0  0  0  0  0  0  0  0  0  0
    0.8727    1.6369   -1.3119 H   0  0  0  0  0  0  0  0  0  0  0  0
    2.4252   -0.0945   -0.1993 H   0  0  0  0  0  0  0  0  0  0  0  0
    1.2038   -0.3701    1.0159 H   0  0  0  0  0  0  0  0  0  0  0  0
    1.2575    1.3559    3.2302 H   0  0  0  0  0  0  0  0  0  0  0  0
    3.8909    4.1656    1.5216 H   0  0  0  0  0  0  0  0  0  0  0  0
    2.6349    3.4560    3.6144 H   0  0  0  0  0  0  0  0  0  0  0  0
   -0.2856    0.0484   -2.8028 N   0  0  0  0  0  0  0  0  0  0  0  0
   -0.7591   -0.8689   -3.8143 C   0  0  2  0  0  0  0  0  0  0  0  0
    0.2216   -2.0315   -3.8910 C   0  0  0  0  0  0  0  0  0  0  0  0
    1.3883   -1.9510   -3.5124 O   0  0  0  0  0  0  0  0  0  0  0  0
   -0.8946   -0.1820   -5.1643 C   0  0  0  0  0  0  0  0  0  0  0  0
   -0.2155    1.0336   -3.0399 H   0  0  0  0  0  0  0  0  0  0  0  0
   -1.7350   -1.2351   -3.4772 H   0  0  0  0  0  0  0  0  0  0  0  0
    0.0731    0.1917   -5.5184 H   0  0  0  0  0  0  0  0  0  0  0  0
   -1.2806   -0.8708   -5.9230 H   0  0  0  0  0  0  0  0  0  0  0  0
   -1.5774    0.6721   -5.1002 H   0  0  0  0  0  0  0  0  0  0  0  0
   -0.3470   -3.1564   -4.4719 N   0  0  0  0  0  0  0  0  0  0  0  0
    0.3843   -4.3863   -4.6688 C   0  0  0  0  0  0  0  0  0  0  0  0
   -1.3268   -3.1397   -4.7390 H   0  0  0  0  0  0  0  0  0  0  0  0
    0.8354   -4.3886   -5.6720 H   0  0  0  0  0  0  0  0  0  0  0  0
    1.1769   -4.4668   -3.9103 H   0  0  0  0  0  0  0  0  0  0  0  0
   -0.3024   -5.2403   -4.5736 H   0  0  0  0  0  0  0  0  0  0  0  0
 22 24  2  0  0  0  0
 24 26  1  0  0  0  0
 23 25  2  0  0  0  0
 25 26  1  0  0  0  0
 21 22  1  0  0  0  0
 22 23  1  0  0  0  0
  1  3  1  0  0  0  0
  1  7  1  0  0  0  0
  1  2  2  0  0  0  0
 35 36  1  0  0  0  0
 36 44  1  0  0  0  0
 36 37  2  0  0  0  0
  8  9  1  0  0  0  0
  9 17  1  0  0  0  0
  9 10  2  0  0  0  0
 18 19  1  0  0  0  0
 19 34  1  0  0  0  0
 19 20  2  0  0  0  0
 35 38  1  0  0  0  0
  8 11  1  0  0  0  0
 44 45  1  0  0  0  0
 18 21  1  0  0  0  0
 34 35  1  0  0  0  0
  7  8  1  0  0  0  0
 17 18  1  0  0  0  0
 24 31  1  0  0  0  0
 25 32  1  0  0  0  0
  3  4  1  0  0  0  0
  3  5  1  0  0  0  0
  3  6  1  0  0  0  0
 38 41  1  0  0  0  0
 38 42  1  0  0  0  0
 38 43  1  0  0  0  0
 11 14  1  0  0  0  0
 11 15  1  0  0  0  0
 11 16  1  0  0  0  0
 45 47  1  0  0  0  0
 45 48  1  0  0  0  0
 45 49  1  0  0  0  0
 21 29  1  0  0  0  0
 21 30  1  0  0  0  0
 35 40  1  0  0  0  0
  8 13  1  0  0  0  0
 18 28  1  0  0  0  0
 26 33  1  0  0  0  0
 44 46  1  0  0  0  0
  7 12  1  0  0  0  0
 34 39  1  0  0  0  0
 17 27  1  0  0  0  0
M  END
$$$$

  -OEChem-05262214473D

 49 49  0     1  0  0  0  0  0999 V2000
   -1.6183    0.5613    3.8201 C   0  0  0  0  0  0  0  0  0  0  0  0
   -0.6710   -0.0534    3.3444 O   0  0  0  0  0  0  0  0  0  0  0  0
   -2.0502    0.2789    5.2208 C   0  0  0  0  0  0  0  0  0  0  0  0
   -2.8099   -0.5175    5.2742 H   0  0  0  0  0  0  0  0  0  0  0  0
   -1.2190   -0.0687    5.8551 H   0  0  0  0  0  0  0  0  0  0  0  0
   -2.4882    1.1338    5.7604 H   0  0  0  0  0  0  0  0  0  0  0  0
   -2.3680    1.5337    3.1790 N   0  0  0  0  0  0  0  0  0  0  0  0
   -2.1212    1.9597    1.8266 C   0  0  2  0  0  0  0  0  0  0  0  0
   -0.7862    1.3744    1.3854 C   0  0  0  0  0  0  0  0  0  0  0  0
    0.0859    1.0216    2.1767 O   0  0  0  0  0  0  0  0  0  0  0  0
   -2.1124    3.4765    1.7171 C   0  0  0  0  0  0  0  0  0  0  0  0
   -3.1331    1.9695    3.6908 H   0  0  0  0  0  0  0  0  0  0  0  0
   -2.9253    1.5413    1.2115 H   0  0  0  0  0  0  0  0  0  0  0  0
   -1.3133    3.9138    2.3268 H   0  0  0  0  0  0  0  0  0  0  0  0
   -1.9529    3.7988    0.6829 H   0  0  0  0  0  0  0  0  0  0  0  0
   -3.0626    3.8977    2.0629 H   0  0  0  0  0  0  0  0  0  0  0  0
   -0.6635    1.3313    0.0020 N   0  0  0  0  0  0  0  0  0  0  0  0
    0.5138    0.8305   -0.6617 C   0  0  2  0  0  0  0  0  0  0  0  0
    0.0782   -0.3491   -1.5237 C   0  0  0  0  0  0  0  0  0  0  0  0
   -0.2367   -1.4406   -1.0543 O   0  0  0  0  0  0  0  0  0  0  0  0
    1.5966    0.3935    0.3316 C   0  0  0  0  0  0  0  0  0  0  0  0
    2.1279    1.5396    1.1574 C   0  0  0  0  0  0  0  0  0  0  0  0
    2.9865    2.4579    0.6069 N   0  0  0  0  0  0  0  0  0  0  0  0
    1.8682    1.8307    2.4758 C   0  0  0  0  0  0  0  0  0  0  0  0
    3.2461    3.3002    1.5822 C   0  0  0  0  0  0  0  0  0  0  0  0
    2.5918    2.9608    2.7337 N   0  0  0  0  0  0  0  0  0  0  0  0
   -1.4467    1.6280   -0.5753 H   0  0  0  0  0  0  0  0  0  0  0  0
    0.8727    1.6369   -1.3119 H   0  0  0  0  0  0  0  0  0  0  0  0
    2.4252   -0.0945   -0.1993 H   0  0  0  0  0  0  0  0  0  0  0  0
    1.2038   -0.3701    1.0159 H   0  0  0  0  0  0  0  0  0  0  0  0
    1.2575    1.3559    3.2302 H   0  0  0  0  0  0  0  0  0  0  0  0
    3.8909    4.1656    1.5216 H   0  0  0  0  0  0  0  0  0  0  0  0
    2.6349    3.4560    3.6144 H   0  0  0  0  0  0  0  0  0  0  0  0
    0.0361   -0.0202   -2.8714 N   0  0  0  0  0  0  0  0  0  0  0  0
   -0.3668   -0.9491   -3.9028 C   0  0  2  0  0  0  0  0  0  0  0  0
    0.4193   -2.2388   -3.7073 C   0  0  0  0  0  0  0  0  0  0  0  0
    1.4882   -2.2877   -3.1021 O   0  0  0  0  0  0  0  0  0  0  0  0
   -0.1295   -0.3727   -5.2899 C   0  0  0  0  0  0  0  0  0  0  0  0
    0.3017    0.9208   -3.1468 H   0  0  0  0  0  0  0  0  0  0  0  0
   -1.4341   -1.1449   -3.7527 H   0  0  0  0  0  0  0  0  0  0  0  0
    0.9344   -0.1700   -5.4587 H   0  0  0  0  0  0  0  0  0  0  0  0
   -0.4615   -1.0660   -6.0698 H   0  0  0  0  0  0  0  0  0  0  0  0
   -0.6719    0.5702   -5.4183 H   0  0  0  0  0  0  0  0  0  0  0  0
   -0.1915   -3.3210   -4.3253 N   0  0  0  0  0  0  0  0  0  0  0  0
    0.3660   -4.6530   -4.2945 C   0  0  0  0  0  0  0  0  0  0  0  0
   -1.0861   -3.1922   -4.7888 H   0  0  0  0  0  0  0  0  0  0  0  0
    0.9980   -4.8071   -5.1815 H   0  0  0  0  0  0  0  0  0  0  0  0
    0.9737   -4.7751   -3.3858 H   0  0  0  0  0  0  0  0  0  0  0  0
   -0.4492   -5.3916   -4.2924 H   0  0  0  0  0  0  0  0  0  0  0  0
 22 24  2  0  0  0  0
 24 26  1  0  0  0  0
 23 25  2  0  0  0  0
 25 26  1  0  0  0  0
 21 22  1  0  0  0  0
 22 23  1  0  0  0  0
  1  3  1  0  0  0  0
  1  7  1  0  0  0  0
  1  2  2  0  0  0  0
 35 36  1  0  0  0  0
 36 44  1  0  0  0  0
 36 37  2  0  0  0  0
  8  9  1  0  0  0  0
  9 17  1  0  0  0  0
  9 10  2  0  0  0  0
 18 19  1  0  0  0  0
 19 34  1  0  0  0  0
 19 20  2  0  0  0  0
 35 38  1  0  0  0  0
  8 11  1  0  0  0  0
 44 45  1  0  0  0  0
 18 21  1  0  0  0  0
 34 35  1  0  0  0  0
  7  8  1  0  0  0  0
 17 18  1  0  0  0  0
 24 31  1  0  0  0  0
 25 32  1  0  0  0  0
  3  4  1  0  0  0  0
  3  5  1  0  0  0  0
  3  6  1  0  0  0  0
 38 41  1  0  0  0  0
 38 42  1  0  0  0  0
 38 43  1  0  0  0  0
 11 14  1  0  0  0  0
 11 15  1  0  0  0  0
 11 16  1  0  0  0  0
 45 47  1  0  0  0  0
 45 48  1  0  0  0  0
 45 49  1  0  0  0  0
 21 29  1  0  0  0  0
 21 30  1  0  0  0  0
 35 40  1  0  0  0  0
  8 13  1  0  0  0  0
 18 28  1  0  0  0  0
 26 33  1  0  0  0  0
 44 46  1  0  0  0  0
  7 12  1  0  0  0  0
 34 39  1  0  0  0  0
 17 27  1  0  0  0  0
M  END
$$$$

  -OEChem-05262214473D

 49 49  0     1  0  0  0  0  0999 V2000
   -1.6183    0.5613    3.8201 C   0  0  0  0  0  0  0  0  0  0  0  0
   -0.6710   -0.0534    3.3444 O   0  0  0  0  0  0  0  0  0  0  0  0
   -2.0502    0.2789    5.2208 C   0  0  0  0  0  0  0  0  0  0  0  0
   -2.8099   -0.5175    5.2742 H   0  0  0  0  0  0  0  0  0  0  0  0
   -1.2190   -0.0687    5.8551 H   0  0  0  0  0  0  0  0  0  0  0  0
   -2.4882    1.1338    5.7604 H   0  0  0  0  0  0  0  0  0  0  0  0
   -2.3680    1.5337    3.1790 N   0  0  0  0  0  0  0  0  0  0  0  0
   -2.1212    1.9597    1.8266 C   0  0  2  0  0  0  0  0  0  0  0  0
   -0.7862    1.3744    1.3854 C   0  0  0  0  0  0  0  0  0  0  0  0
    0.0859    1.0216    2.1767 O   0  0  0  0  0  0  0  0  0  0  0  0
   -2.1124    3.4765    1.7171 C   0  0  0  0  0  0  0  0  0  0  0  0
   -3.1331    1.9695    3.6908 H   0  0  0  0  0  0  0  0  0  0  0  0
   -2.9253    1.5413    1.2115 H   0  0  0  0  0  0  0  0  0  0  0  0
   -1.3133    3.9138    2.3268 H   0  0  0  0  0  0  0  0  0  0  0  0
   -1.9529    3.7988    0.6829 H   0  0  0  0  0  0  0  0  0  0  0  0
   -3.0626    3.8977    2.0629 H   0  0  0  0  0  0  0  0  0  0  0  0
   -0.6635    1.3313    0.0020 N   0  0  0  0  0  0  0  0  0  0  0  0
    0.5138    0.8305   -0.6617 C   0  0  2  0  0  0  0  0  0  0  0  0
    0.0782   -0.3491   -1.5237 C   0  0  0  0  0  0  0  0  0  0  0  0
   -0.4862   -1.3403   -1.0655 O   0  0  0  0  0  0  0  0  0  0  0  0
    1.5966    0.3935    0.3316 C   0  0  0  0  0  0  0  0  0  0  0  0
    2.1279    1.5396    1.1574 C   0  0  0  0  0  0  0  0  0  0  0  0
    2.9865    2.4579    0.6069 N   0  0  0  0  0  0  0  0  0  0  0  0
    1.8682    1.8307    2.4758 C   0  0  0  0  0  0  0  0  0  0  0  0
    3.2461    3.3002    1.5822 C   0  0  0  0  0  0  0  0  0  0  0  0
    2.5918    2.9608    2.7337 N   0  0  0  0  0  0  0  0  0  0  0  0
   -1.4467    1.6280   -0.5753 H   0  0  0  0  0  0  0  0  0  0  0  0
    0.8727    1.6369   -1.3119 H   0  0  0  0  0  0  0  0  0  0  0  0
    2.4252   -0.0945   -0.1993 H   0  0  0  0  0  0  0  0  0  0  0  0
    1.2038   -0.3701    1.0159 H   0  0  0  0  0  0  0  0  0  0  0  0
    1.2575    1.3559    3.2302 H   0  0  0  0  0  0  0  0  0  0  0  0
    3.8909    4.1656    1.5216 H   0  0  0  0  0  0  0  0  0  0  0  0
    2.6349    3.4560    3.6144 H   0  0  0  0  0  0  0  0  0  0  0  0
    0.3505   -0.1386   -2.8683 N   0  0  0  0  0  0  0  0  0  0  0  0
    0.0181   -1.0905   -3.9038 C   0  0  2  0  0  0  0  0  0  0  0  0
    0.5431   -2.4543   -3.4749 C   0  0  0  0  0  0  0  0  0  0  0  0
    1.4531   -2.5971   -2.6610 O   0  0  0  0  0  0  0  0  0  0  0  0
    0.6069   -0.6782   -5.2440 C   0  0  0  0  0  0  0  0  0  0  0  0
    0.8062    0.7281   -3.1381 H   0  0  0  0  0  0  0  0  0  0  0  0
   -1.0751   -1.1222   -3.9652 H   0  0  0  0  0  0  0  0  0  0  0  0
    1.7016   -0.6409   -5.2019 H   0  0  0  0  0  0  0  0  0  0  0  0
    0.3304   -1.3852   -6.0331 H   0  0  0  0  0  0  0  0  0  0  0  0
    0.2515    0.3156   -5.5366 H   0  0  0  0  0  0  0  0  0  0  0  0
   -0.0947   -3.4919   -4.1403 N   0  0  0  0  0  0  0  0  0  0  0  0
    0.2344   -4.8803   -3.9169 C   0  0  0  0  0  0  0  0  0  0  0  0
   -0.8512   -3.2818   -4.7848 H   0  0  0  0  0  0  0  0  0  0  0  0
    0.9956   -5.1989   -4.6443 H   0  0  0  0  0  0  0  0  0  0  0  0
    0.6273   -5.0043   -2.8970 H   0  0  0  0  0  0  0  0  0  0  0  0
   -0.6693   -5.4954   -4.0391 H   0  0  0  0  0  0  0  0  0  0  0  0
 22 24  2  0  0  0  0
 24 26  1  0  0  0  0
 23 25  2  0  0  0  0
 25 26  1  0  0  0  0
 21 22  1  0  0  0  0
 22 23  1  0  0  0  0
  1  3  1  0  0  0  0
  1  7  1  0  0  0  0
  1  2  2  0  0  0  0
 35 36  1  0  0  0  0
 36 44  1  0  0  0  0
 36 37  2  0  0  0  0
  8  9  1  0  0  0  0
  9 17  1  0  0  0  0
  9 10  2  0  0  0  0
 18 19  1  0  0  0  0
 19 34  1  0  0  0  0
 19 20  2  0  0  0  0
 35 38  1  0  0  0  0
  8 11  1  0  0  0  0
 44 45  1  0  0  0  0
 18 21  1  0  0  0  0
 34 35  1  0  0  0  0
  7  8  1  0  0  0  0
 17 18  1  0  0  0  0
 24 31  1  0  0  0  0
 25 32  1  0  0  0  0
  3  4  1  0  0  0  0
  3  5  1  0  0  0  0
  3  6  1  0  0  0  0
 38 41  1  0  0  0  0
 38 42  1  0  0  0  0
 38 43  1  0  0  0  0
 11 14  1  0  0  0  0
 11 15  1  0  0  0  0
 11 16  1  0  0  0  0
 45 47  1  0  0  0  0
 45 48  1  0  0  0  0
 45 49  1  0  0  0  0
 21 29  1  0  0  0  0
 21 30  1  0  0  0  0
 35 40  1  0  0  0  0
  8 13  1  0  0  0  0
 18 28  1  0  0  0  0
 26 33  1  0  0  0  0
 44 46  1  0  0  0  0
  7 12  1  0  0  0  0
 34 39  1  0  0  0  0
 17 27  1  0  0  0  0
M  END
$$$$

  -OEChem-05262214473D

 49 49  0     1  0  0  0  0  0999 V2000
   -1.6183    0.5613    3.8201 C   0  0  0  0  0  0  0  0  0  0  0  0
   -0.6710   -0.0534    3.3444 O   0  0  0  0  0  0  0  0  0  0  0  0
   -2.0502    0.2789    5.2208 C   0  0  0  0  0  0  0  0  0  0  0  0
   -2.8099   -0.5175    5.2742 H   0  0  0  0  0  0  0  0  0  0  0  0
   -1.2190   -0.0687    5.8551 H   0  0  0  0  0  0  0  0  0  0  0  0
   -2.4882    1.1338    5.7604 H   0  0  0  0  0  0  0  0  0  0  0  0
   -2.3680    1.5337    3.1790 N   0  0  0  0  0  0  0  0  0  0  0  0
   -2.1212    1.9597    1.8266 C   0  0  2  0  0  0  0  0  0  0  0  0
   -0.7862    1.3744    1.3854 C   0  0  0  0  0  0  0  0  0  0  0  0
    0.0859    1.0216    2.1767 O   0  0  0  0  0  0  0  0  0  0  0  0
   -2.1124    3.4765    1.7171 C   0  0  0  0  0  0  0  0  0  0  0  0
   -3.1331    1.9695    3.6908 H   0  0  0  0  0  0  0  0  0  0  0  0
   -2.9253    1.5413    1.2115 H   0  0  0  0  0  0  0  0  0  0  0  0
   -1.3133    3.9138    2.3268 H   0  0  0  0  0  0  0  0  0  0  0  0
   -1.9529    3.7988    0.6829 H   0  0  0  0  0  0  0  0  0  0  0  0
   -3.0626    3.8977    2.0629 H   0  0  0  0  0  0  0  0  0  0  0  0
   -0.6635    1.3313    0.0020 N   0  0  0  0  0  0  0  0  0  0  0  0
    0.5138    0.8305   -0.6617 C   0  0  2  0  0  0  0  0  0  0  0  0
    0.0782   -0.3491   -1.5237 C   0  0  0  0  0  0  0  0  0  0  0  0
   -0.7103   -1.2077   -1.1337 O   0  0  0  0  0  0  0  0  0  0  0  0
    1.5966    0.3935    0.3316 C   0  0  0  0  0  0  0  0  0  0  0  0
    2.1279    1.5396    1.1574 C   0  0  0  0  0  0  0  0  0  0  0  0
    2.9865    2.4579    0.6069 N   0  0  0  0  0  0  0  0  0  0  0  0
    1.8682    1.8307    2.4758 C   0  0  0  0  0  0  0  0  0  0  0  0
    3.2461    3.3002    1.5822 C   0  0  0  0  0  0  0  0  0  0  0  0
    2.5918    2.9608    2.7337 N   0  0  0  0  0  0  0  0  0  0  0  0
   -1.4467    1.6280   -0.5753 H   0  0  0  0  0  0  0  0  0  0  0  0
    0.8727    1.6369   -1.3119 H   0  0  0  0  0  0  0  0  0  0  0  0
    2.4252   -0.0945   -0.1993 H   0  0  0  0  0  0  0  0  0  0  0  0
    1.2038   -0.3701    1.0159 H   0  0  0  0  0  0  0  0  0  0  0  0
    1.2575    1.3559    3.2302 H   0  0  0  0  0  0  0  0  0  0  0  0
    3.8909    4.1656    1.5216 H   0  0  0  0  0  0  0  0  0  0  0  0
    2.6349    3.4560    3.6144 H   0  0  0  0  0  0  0  0  0  0  0  0
    0.6362   -0.2987   -2.7935 N   0  0  0  0  0  0  0  0  0  0  0  0
    0.3695   -1.2835   -3.8172 C   0  0  2  0  0  0  0  0  0  0  0  0
    0.5847   -2.6634   -3.2097 C   0  0  0  0  0  0  0  0  0  0  0  0
    1.2857   -2.8583   -2.2189 O   0  0  0  0  0  0  0  0  0  0  0  0
    1.2643   -1.0777   -5.0295 C   0  0  0  0  0  0  0  0  0  0  0  0
    1.2636    0.4689   -3.0145 H   0  0  0  0  0  0  0  0  0  0  0  0
   -0.6825   -1.1685   -4.1003 H   0  0  0  0  0  0  0  0  0  0  0  0
    2.3222   -1.1891   -4.7654 H   0  0  0  0  0  0  0  0  0  0  0  0
    1.0413   -1.8068   -5.8155 H   0  0  0  0  0  0  0  0  0  0  0  0
    1.1299   -0.0741   -5.4472 H   0  0  0  0  0  0  0  0  0  0  0  0
   -0.0633   -3.6574   -3.9297 N   0  0  0  0  0  0  0  0  0  0  0  0
   -0.0016   -5.0527   -3.5618 C   0  0  0  0  0  0  0  0  0  0  0  0
   -0.6383   -3.4025   -4.7273 H   0  0  0  0  0  0  0  0  0  0  0  0
    0.8284   -5.5372   -4.0968 H   0  0  0  0  0  0  0  0  0  0  0  0
    0.1613   -5.1389   -2.4773 H   0  0  0  0  0  0  0  0  0  0  0  0
   -0.9479   -5.5448   -3.8307 H   0  0  0  0  0  0  0  0  0  0  0  0
 22 24  2  0  0  0  0
 24 26  1  0  0  0  0
 23 25  2  0  0  0  0
 25 26  1  0  0  0  0
 21 22  1  0  0  0  0
 22 23  1  0  0  0  0
  1  3  1  0  0  0  0
  1  7  1  0  0  0  0
  1  2  2  0  0  0  0
 35 36  1  0  0  0  0
 36 44  1  0  0  0  0
 36 37  2  0  0  0  0
  8  9  1  0  0  0  0
  9 17  1  0  0  0  0
  9 10  2  0  0  0  0
 18 19  1  0  0  0  0
 19 34  1  0  0  0  0
 19 20  2  0  0  0  0
 35 38  1  0  0  0  0
  8 11  1  0  0  0  0
 44 45  1  0  0  0  0
 18 21  1  0  0  0  0
 34 35  1  0  0  0  0
  7  8  1  0  0  0  0
 17 18  1  0  0  0  0
 24 31  1  0  0  0  0
 25 32  1  0  0  0  0
  3  4  1  0  0  0  0
  3  5  1  0  0  0  0
  3  6  1  0  0  0  0
 38 41  1  0  0  0  0
 38 42  1  0  0  0  0
 38 43  1  0  0  0  0
 11 14  1  0  0  0  0
 11 15  1  0  0  0  0
 11 16  1  0  0  0  0
 45 47  1  0  0  0  0
 45 48  1  0  0  0  0
 45 49  1  0  0  0  0
 21 29  1  0  0  0  0
 21 30  1  0  0  0  0
 35 40  1  0  0  0  0
  8 13  1  0  0  0  0
 18 28  1  0  0  0  0
 26 33  1  0  0  0  0
 44 46  1  0  0  0  0
  7 12  1  0  0  0  0
 34 39  1  0  0  0  0
 17 27  1  0  0  0  0
M  END
$$$$

  -OEChem-05262214473D

 49 49  0     1  0  0  0  0  0999 V2000
   -1.6183    0.5613    3.8201 C   0  0  0  0  0  0  0  0  0  0  0  0
   -0.6710   -0.0534    3.3444 O   0  0  0  0  0  0  0  0  0  0  0  0
   -2.0502    0.2789    5.2208 C   0  0  0  0  0  0  0  0  0  0  0  0
   -2.8099   -0.5175    5.2742 H   0  0  0  0  0  0  0  0  0  0  0  0
   -1.2190   -0.0687    5.8551 H   0  0  0  0  0  0  0  0  0  0  0  0
   -2.4882    1.1338    5.7604 H   0  0  0  0  0  0  0  0  0  0  0  0
   -2.3680    1.5337    3.1790 N   0  0  0  0  0  0  0  0  0  0  0  0
   -2.1212    1.9597    1.8266 C   0  0  2  0  0  0  0  0  0  0  0  0
   -0.7862    1.3744    1.3854 C   0  0  0  0  0  0  0  0  0  0  0  0
    0.0859    1.0216    2.1767 O   0  0  0  0  0  0  0  0  0  0  0  0
   -2.1124    3.4765    1.7171 C   0  0  0  0  0  0  0  0  0  0  0  0
   -3.1331    1.9695    3.6908 H   0  0  0  0  0  0  0  0  0  0  0  0
   -2.9253    1.5413    1.2115 H   0  0  0  0  0  0  0  0  0  0  0  0
   -1.3133    3.9138    2.3268 H   0  0  0  0  0  0  0  0  0  0  0  0
   -1.9529    3.7988    0.6829 H   0  0  0  0  0  0  0  0  0  0  0  0
   -3.0626    3.8977    2.0629 H   0  0  0  0  0  0  0  0  0  0  0  0
   -0.6635    1.3313    0.0020 N   0  0  0  0  0  0  0  0  0  0  0  0
    0.5138    0.8305   -0.6617 C   0  0  2  0  0  0  0  0  0  0  0  0
    0.0782   -0.3491   -1.5237 C   0  0  0  0  0  0  0  0  0  0  0  0
   -0.8937   -1.0518   -1.2543 O   0  0  0  0  0  0  0  0  0  0  0  0
    1.5966    0.3935    0.3316 C   0  0  0  0  0  0  0  0  0  0  0  0
    2.1279    1.5396    1.1574 C   0  0  0  0  0  0  0  0  0  0  0  0
    2.9865    2.4579    0.6069 N   0  0  0  0  0  0  0  0  0  0  0  0
    1.8682    1.8307    2.4758 C   0  0  0  0  0  0  0  0  0  0  0  0
    3.2461    3.3002    1.5822 C   0  0  0  0  0  0  0  0  0  0  0  0
    2.5918    2.9608    2.7337 N   0  0  0  0  0  0  0  0  0  0  0  0
   -1.4467    1.6280   -0.5753 H   0  0  0  0  0  0  0  0  0  0  0  0
    0.8727    1.6369   -1.3119 H   0  0  0  0  0  0  0  0  0  0  0  0
    2.4252   -0.0945   -0.1993 H   0  0  0  0  0  0  0  0  0  0  0  0
    1.2038   -0.3701    1.0159 H   0  0  0  0  0  0  0  0  0  0  0  0
    1.2575    1.3559    3.2302 H   0  0  0  0  0  0  0  0  0  0  0  0
    3.8909    4.1656    1.5216 H   0  0  0  0  0  0  0  0  0  0  0  0
    2.6349    3.4560    3.6144 H   0  0  0  0  0  0  0  0  0  0  0  0
    0.8738   -0.4897   -2.6522 N   0  0  0  0  0  0  0  0  0  0  0  0
    0.6633   -1.5149   -3.6489 C   0  0  2  0  0  0  0  0  0  0  0  0
    0.5411   -2.8519   -2.9298 C   0  0  0  0  0  0  0  0  0  0  0  0
    0.9972   -3.0534   -1.8062 O   0  0  0  0  0  0  0  0  0  0  0  0
    1.7978   -1.5439   -4.6612 C   0  0  0  0  0  0  0  0  0  0  0  0
    1.6428    0.1607   -2.7843 H   0  0  0  0  0  0  0  0  0  0  0  0
   -0.2830   -1.2806   -4.1487 H   0  0  0  0  0  0  0  0  0  0  0  0
    2.7541   -1.7772   -4.1789 H   0  0  0  0  0  0  0  0  0  0  0  0
    1.6227   -2.3019   -5.4318 H   0  0  0  0  0  0  0  0  0  0  0  0
    1.9034   -0.5724   -5.1561 H   0  0  0  0  0  0  0  0  0  0  0  0
   -0.0993   -3.8063   -3.7077 N   0  0  0  0  0  0  0  0  0  0  0  0
   -0.3260   -5.1584   -3.2533 C   0  0  0  0  0  0  0  0  0  0  0  0
   -0.4618   -3.5460   -4.6202 H   0  0  0  0  0  0  0  0  0  0  0  0
    0.5078   -5.7990   -3.5765 H   0  0  0  0  0  0  0  0  0  0  0  0
   -0.3926   -5.1697   -2.1553 H   0  0  0  0  0  0  0  0  0  0  0  0
   -1.2660   -5.5363   -3.6816 H   0  0  0  0  0  0  0  0  0  0  0  0
 22 24  2  0  0  0  0
 24 26  1  0  0  0  0
 23 25  2  0  0  0  0
 25 26  1  0  0  0  0
 21 22  1  0  0  0  0
 22 23  1  0  0  0  0
  1  3  1  0  0  0  0
  1  7  1  0  0  0  0
  1  2  2  0  0  0  0
 35 36  1  0  0  0  0
 36 44  1  0  0  0  0
 36 37  2  0  0  0  0
  8  9  1  0  0  0  0
  9 17  1  0  0  0  0
  9 10  2  0  0  0  0
 18 19  1  0  0  0  0
 19 34  1  0  0  0  0
 19 20  2  0  0  0  0
 35 38  1  0  0  0  0
  8 11  1  0  0  0  0
 44 45  1  0  0  0  0
 18 21  1  0  0  0  0
 34 35  1  0  0  0  0
  7  8  1  0  0  0  0
 17 18  1  0  0  0  0
 24 31  1  0  0  0  0
 25 32  1  0  0  0  0
  3  4  1  0  0  0  0
  3  5  1  0  0  0  0
  3  6  1  0  0  0  0
 38 41  1  0  0  0  0
 38 42  1  0  0  0  0
 38 43  1  0  0  0  0
 11 14  1  0  0  0  0
 11 15  1  0  0  0  0
 11 16  1  0  0  0  0
 45 47  1  0  0  0  0
 45 48  1  0  0  0  0
 45 49  1  0  0  0  0
 21 29  1  0  0  0  0
 21 30  1  0  0  0  0
 35 40  1  0  0  0  0
  8 13  1  0  0  0  0
 18 28  1  0  0  0  0
 26 33  1  0  0  0  0
 44 46  1  0  0  0  0
  7 12  1  0  0  0  0
 34 39  1  0  0  0  0
 17 27  1  0  0  0  0
M  END
$$$$

  -OEChem-05262214473D

 49 49  0     1  0  0  0  0  0999 V2000
   -1.6183    0.5613    3.8201 C   0  0  0  0  0  0  0  0  0  0  0  0
   -0.6710   -0.0534    3.3444 O   0  0  0  0  0  0  0  0  0  0  0  0
   -2.0502    0.2789    5.2208 C   0  0  0  0  0  0  0  0  0  0  0  0
   -2.8099   -0.5175    5.2742 H   0  0  0  0  0  0  0  0  0  0  0  0
   -1.2190   -0.0687    5.8551 H   0  0  0  0  0  0  0  0  0  0  0  0
   -2.4882    1.1338    5.7604 H   0  0  0  0  0  0  0  0  0  0  0  0
   -2.3680    1.5337    3.1790 N   0  0  0  0  0  0  0  0  0  0  0  0
   -2.1212    1.9597    1.8266 C   0  0  2  0  0  0  0  0  0  0  0  0
   -0.7862    1.3744    1.3854 C   0  0  0  0  0  0  0  0  0  0  0  0
    0.0859    1.0216    2.1767 O   0  0  0  0  0  0  0  0  0  0  0  0
   -2.1124    3.4765    1.7171 C   0  0  0  0  0  0  0  0  0  0  0  0
   -3.1331    1.9695    3.6908 H   0  0  0  0  0  0  0  0  0  0  0  0
   -2.9253    1.5413    1.2115 H   0  0  0  0  0  0  0  0  0  0  0  0
   -1.3133    3.9138    2.3268 H   0  0  0  0  0  0  0  0  0  0  0  0
   -1.9529    3.7988    0.6829 H   0  0  0  0  0  0  0  0  0  0  0  0
   -3.0626    3.8977    2.0629 H   0  0  0  0  0  0  0  0  0  0  0  0
   -0.6635    1.3313    0.0020 N   0  0  0  0  0  0  0  0  0  0  0  0
    0.5138    0.8305   -0.6617 C   0  0  2  0  0  0  0  0  0  0  0  0
    0.0782   -0.3491   -1.5237 C   0  0  0  0  0  0  0  0  0  0  0  0
   -1.0239   -0.8834   -1.4190 O   0  0  0  0  0  0  0  0  0  0  0  0
    1.5966    0.3935    0.3316 C   0  0  0  0  0  0  0  0  0  0  0  0
    2.1279    1.5396    1.1574 C   0  0  0  0  0  0  0  0  0  0  0  0
    2.9865    2.4579    0.6069 N   0  0  0  0  0  0  0  0  0  0  0  0
    1.8682    1.8307    2.4758 C   0  0  0  0  0  0  0  0  0  0  0  0
    3.2461    3.3002    1.5822 C   0  0  0  0  0  0  0  0  0  0  0  0
    2.5918    2.9608    2.7337 N   0  0  0  0  0  0  0  0  0  0  0  0
   -1.4467    1.6280   -0.5753 H   0  0  0  0  0  0  0  0  0  0  0  0
    0.8727    1.6369   -1.3119 H   0  0  0  0  0  0  0  0  0  0  0  0
    2.4252   -0.0945   -0.1993 H   0  0  0  0  0  0  0  0  0  0  0  0
    1.2038   -0.3701    1.0159 H   0  0  0  0  0  0  0  0  0  0  0  0
    1.2575    1.3559    3.2302 H   0  0  0  0  0  0  0  0  0  0  0  0
    3.8909    4.1656    1.5216 H   0  0  0  0  0  0  0  0  0  0  0  0
    2.6349    3.4560    3.6144 H   0  0  0  0  0  0  0  0  0  0  0  0
    1.0471   -0.6985   -2.4541 N   0  0  0  0  0  0  0  0  0  0  0  0
    0.8795   -1.7691   -3.4104 C   0  0  2  0  0  0  0  0  0  0  0  0
    0.4153   -3.0069   -2.6542 C   0  0  0  0  0  0  0  0  0  0  0  0
    0.6074   -3.1691   -1.4509 O   0  0  0  0  0  0  0  0  0  0  0  0
    2.1712   -2.0450   -4.1641 C   0  0  0  0  0  0  0  0  0  0  0  0
    1.9178   -0.1755   -2.4632 H   0  0  0  0  0  0  0  0  0  0  0  0
    0.0962   -1.4510   -4.1071 H   0  0  0  0  0  0  0  0  0  0  0  0
    2.9677   -2.3650   -3.4824 H   0  0  0  0  0  0  0  0  0  0  0  0
    2.0350   -2.8368   -4.9081 H   0  0  0  0  0  0  0  0  0  0  0  0
    2.5194   -1.1455   -4.6831 H   0  0  0  0  0  0  0  0  0  0  0  0
   -0.2004   -3.9284   -3.4895 N   0  0  0  0  0  0  0  0  0  0  0  0
   -0.7165   -5.1902   -3.0124 C   0  0  0  0  0  0  0  0  0  0  0  0
   -0.3337   -3.7024   -4.4708 H   0  0  0  0  0  0  0  0  0  0  0  0
    0.0555   -5.9665   -3.1187 H   0  0  0  0  0  0  0  0  0  0  0  0
   -0.9966   -5.0946   -1.9530 H   0  0  0  0  0  0  0  0  0  0  0  0
   -1.6019   -5.4705   -3.6019 H   0  0  0  0  0  0  0  0  0  0  0  0
 22 24  2  0  0  0  0
 24 26  1  0  0  0  0
 23 25  2  0  0  0  0
 25 26  1  0  0  0  0
 21 22  1  0  0  0  0
 22 23  1  0  0  0  0
  1  3  1  0  0  0  0
  1  7  1  0  0  0  0
  1  2  2  0  0  0  0
 35 36  1  0  0  0  0
 36 44  1  0  0  0  0
 36 37  2  0  0  0  0
  8  9  1  0  0  0  0
  9 17  1  0  0  0  0
  9 10  2  0  0  0  0
 18 19  1  0  0  0  0
 19 34  1  0  0  0  0
 19 20  2  0  0  0  0
 35 38  1  0  0  0  0
  8 11  1  0  0  0  0
 44 45  1  0  0  0  0
 18 21  1  0  0  0  0
 34 35  1  0  0  0  0
  7  8  1  0  0  0  0
 17 18  1  0  0  0  0
 24 31  1  0  0  0  0
 25 32  1  0  0  0  0
  3  4  1  0  0  0  0
  3  5  1  0  0  0  0
  3  6  1  0  0  0  0
 38 41  1  0  0  0  0
 38 42  1  0  0  0  0
 38 43  1  0  0  0  0
 11 14  1  0  0  0  0
 11 15  1  0  0  0  0
 11 16  1  0  0  0  0
 45 47  1  0  0  0  0
 45 48  1  0  0  0  0
 45 49  1  0  0  0  0
 21 29  1  0  0  0  0
 21 30  1  0  0  0  0
 35 40  1  0  0  0  0
  8 13  1  0  0  0  0
 18 28  1  0  0  0  0
 26 33  1  0  0  0  0
 44 46  1  0  0  0  0
  7 12  1  0  0  0  0
 34 39  1  0  0  0  0
 17 27  1  0  0  0  0
M  END
$$$$

  -OEChem-05262214473D

 49 49  0     1  0  0  0  0  0999 V2000
   -1.6183    0.5613    3.8201 C   0  0  0  0  0  0  0  0  0  0  0  0
   -0.6710   -0.0534    3.3444 O   0  0  0  0  0  0  0  0  0  0  0  0
   -2.0502    0.2789    5.2208 C   0  0  0  0  0  0  0  0  0  0  0  0
   -2.8099   -0.5175    5.2742 H   0  0  0  0  0  0  0  0  0  0  0  0
   -1.2190   -0.0687    5.8551 H   0  0  0  0  0  0  0  0  0  0  0  0
   -2.4882    1.1338    5.7604 H   0  0  0  0  0  0  0  0  0  0  0  0
   -2.3680    1.5337    3.1790 N   0  0  0  0  0  0  0  0  0  0  0  0
   -2.1212    1.9597    1.8266 C   0  0  2  0  0  0  0  0  0  0  0  0
   -0.7862    1.3744    1.3854 C   0  0  0  0  0  0  0  0  0  0  0  0
    0.0859    1.0216    2.1767 O   0  0  0  0  0  0  0  0  0  0  0  0
   -2.1124    3.4765    1.7171 C   0  0  0  0  0  0  0  0  0  0  0  0
   -3.1331    1.9695    3.6908 H   0  0  0  0  0  0  0  0  0  0  0  0
   -2.9253    1.5413    1.2115 H   0  0  0  0  0  0  0  0  0  0  0  0
   -1.3133    3.9138    2.3268 H   0  0  0  0  0  0  0  0  0  0  0  0
   -1.9529    3.7988    0.6829 H   0  0  0  0  0  0  0  0  0  0  0  0
   -3.0626    3.8977    2.0629 H   0  0  0  0  0  0  0  0  0  0  0  0
   -0.6635    1.3313    0.0020 N   0  0  0  0  0  0  0  0  0  0  0  0
    0.5138    0.8305   -0.6617 C   0  0  2  0  0  0  0  0  0  0  0  0
    0.0425   -0.0801   -1.7899 C   0  0  0  0  0  0  0  0  0  0  0  0
   -1.1447   -0.2640   -2.0498 O   0  0  0  0  0  0  0  0  0  0  0  0
    1.4344    0.0625    0.2937 C   0  0  0  0  0  0  0  0  0  0  0  0
    2.0004    0.9357    1.3868 C   0  0  0  0  0  0  0  0  0  0  0  0
    3.0064    1.8293    1.1165 N   0  0  0  0  0  0  0  0  0  0  0  0
    1.6400    0.9800    2.7130 C   0  0  0  0  0  0  0  0  0  0  0  0
    3.2550    2.4120    2.2682 C   0  0  0  0  0  0  0  0  0  0  0  0
    2.4527    1.9299    3.2648 N   0  0  0  0  0  0  0  0  0  0  0  0
   -1.4467    1.6280   -0.5753 H   0  0  0  0  0  0  0  0  0  0  0  0
    1.0237    1.7004   -1.0919 H   0  0  0  0  0  0  0  0  0  0  0  0
    2.2548   -0.4083   -0.2649 H   0  0  0  0  0  0  0  0  0  0  0  0
    0.8921   -0.7686    0.7637 H   0  0  0  0  0  0  0  0  0  0  0  0
    0.9067    0.4428    3.2970 H   0  0  0  0  0  0  0  0  0  0  0  0
    3.9935    3.1809    2.4466 H   0  0  0  0  0  0  0  0  0  0  0  0
    2.4590    2.2233    4.2325 H   0  0  0  0  0  0  0  0  0  0  0  0
    1.1057   -0.6205   -2.4999 N   0  0  0  0  0  0  0  0  0  0  0  0
    0.9371   -1.5000   -3.6343 C   0  0  2  0  0  0  0  0  0  0  0  0
   -0.0342   -2.6027   -3.2342 C   0  0  0  0  0  0  0  0  0  0  0  0
   -0.2412   -2.9228   -2.0655 O   0  0  0  0  0  0  0  0  0  0  0  0
    2.2672   -2.0841   -4.0841 C   0  0  0  0  0  0  0  0  0  0  0  0
    2.0498   -0.3861   -2.2075 H   0  0  0  0  0  0  0  0  0  0  0  0
    0.4974   -0.8991   -4.4378 H   0  0  0  0  0  0  0  0  0  0  0  0
    2.7229   -2.6895   -3.2921 H   0  0  0  0  0  0  0  0  0  0  0  0
    2.1417   -2.7276   -4.9611 H   0  0  0  0  0  0  0  0  0  0  0  0
    2.9745   -1.2888   -4.3431 H   0  0  0  0  0  0  0  0  0  0  0  0
   -0.6103   -3.2165   -4.3376 N   0  0  0  0  0  0  0  0  0  0  0  0
   -1.5568   -4.3011   -4.2208 C   0  0  0  0  0  0  0  0  0  0  0  0
   -0.3951   -2.8735   -5.2692 H   0  0  0  0  0  0  0  0  0  0  0  0
   -1.0220   -5.2614   -4.2640 H   0  0  0  0  0  0  0  0  0  0  0  0
   -2.0895   -4.2210   -3.2617 H   0  0  0  0  0  0  0  0  0  0  0  0
   -2.2803   -4.2469   -5.0476 H   0  0  0  0  0  0  0  0  0  0  0  0
 22 24  2  0  0  0  0
 24 26  1  0  0  0  0
 23 25  2  0  0  0  0
 25 26  1  0  0  0  0
 21 22  1  0  0  0  0
 22 23  1  0  0  0  0
  1  3  1  0  0  0  0
  1  7  1  0  0  0  0
  1  2  2  0  0  0  0
 35 36  1  0  0  0  0
 36 44  1  0  0  0  0
 36 37  2  0  0  0  0
  8  9  1  0  0  0  0
  9 17  1  0  0  0  0
  9 10  2  0  0  0  0
 18 19  1  0  0  0  0
 19 34  1  0  0  0  0
 19 20  2  0  0  0  0
 35 38  1  0  0  0  0
  8 11  1  0  0  0  0
 44 45  1  0  0  0  0
 18 21  1  0  0  0  0
 34 35  1  0  0  0  0
  7  8  1  0  0  0  0
 17 18  1  0  0  0  0
 24 31  1  0  0  0  0
 25 32  1  0  0  0  0
  3  4  1  0  0  0  0
  3  5  1  0  0  0  0
  3  6  1  0  0  0  0
 38 41  1  0  0  0  0
 38 42  1  0  0  0  0
 38 43  1  0  0  0  0
 11 14  1  0  0  0  0
 11 15  1  0  0  0  0
 11 16  1  0  0  0  0
 45 47  1  0  0  0  0
 45 48  1  0  0  0  0
 45 49  1  0  0  0  0
 21 29  1  0  0  0  0
 21 30  1  0  0  0  0
 35 40  1  0  0  0  0
  8 13  1  0  0  0  0
 18 28  1  0  0  0  0
 26 33  1  0  0  0  0
 44 46  1  0  0  0  0
  7 12  1  0  0  0  0
 34 39  1  0  0  0  0
 17 27  1  0  0  0  0
M  END
$$$$

  -OEChem-05262214473D

 49 49  0     1  0  0  0  0  0999 V2000
   -1.6183    0.5613    3.8201 C   0  0  0  0  0  0  0  0  0  0  0  0
   -0.6710   -0.0534    3.3444 O   0  0  0  0  0  0  0  0  0  0  0  0
   -2.0502    0.2789    5.2208 C   0  0  0  0  0  0  0  0  0  0  0  0
   -2.8099   -0.5175    5.2742 H   0  0  0  0  0  0  0  0  0  0  0  0
   -1.2190   -0.0687    5.8551 H   0  0  0  0  0  0  0  0  0  0  0  0
   -2.4882    1.1338    5.7604 H   0  0  0  0  0  0  0  0  0  0  0  0
   -2.3680    1.5337    3.1790 N   0  0  0  0  0  0  0  0  0  0  0  0
   -2.1212    1.9597    1.8266 C   0  0  2  0  0  0  0  0  0  0  0  0
   -0.7862    1.3744    1.3854 C   0  0  0  0  0  0  0  0  0  0  0  0
    0.0859    1.0216    2.1767 O   0  0  0  0  0  0  0  0  0  0  0  0
   -2.1124    3.4765    1.7171 C   0  0  0  0  0  0  0  0  0  0  0  0
   -3.1331    1.9695    3.6908 H   0  0  0  0  0  0  0  0  0  0  0  0
   -2.9253    1.5413    1.2115 H   0  0  0  0  0  0  0  0  0  0  0  0
   -1.3133    3.9138    2.3268 H   0  0  0  0  0  0  0  0  0  0  0  0
   -1.9529    3.7988    0.6829 H   0  0  0  0  0  0  0  0  0  0  0  0
   -3.0626    3.8977    2.0629 H   0  0  0  0  0  0  0  0  0  0  0  0
   -0.6635    1.3313    0.0020 N   0  0  0  0  0  0  0  0  0  0  0  0
    0.5138    0.8305   -0.6617 C   0  0  2  0  0  0  0  0  0  0  0  0
    0.0425   -0.0801   -1.7899 C   0  0  0  0  0  0  0  0  0  0  0  0
   -1.1064   -0.0647   -2.2266 O   0  0  0  0  0  0  0  0  0  0  0  0
    1.4344    0.0625    0.2937 C   0  0  0  0  0  0  0  0  0  0  0  0
    2.0004    0.9357    1.3868 C   0  0  0  0  0  0  0  0  0  0  0  0
    3.0064    1.8293    1.1165 N   0  0  0  0  0  0  0  0  0  0  0  0
    1.6400    0.9800    2.7130 C   0  0  0  0  0  0  0  0  0  0  0  0
    3.2550    2.4120    2.2682 C   0  0  0  0  0  0  0  0  0  0  0  0
    2.4527    1.9299    3.2648 N   0  0  0  0  0  0  0  0  0  0  0  0
   -1.4467    1.6280   -0.5753 H   0  0  0  0  0  0  0  0  0  0  0  0
    1.0237    1.7004   -1.0919 H   0  0  0  0  0  0  0  0  0  0  0  0
    2.2548   -0.4083   -0.2649 H   0  0  0  0  0  0  0  0  0  0  0  0
    0.8921   -0.7686    0.7637 H   0  0  0  0  0  0  0  0  0  0  0  0
    0.9067    0.4428    3.2970 H   0  0  0  0  0  0  0  0  0  0  0  0
    3.9935    3.1809    2.4466 H   0  0  0  0  0  0  0  0  0  0  0  0
    2.4590    2.2233    4.2325 H   0  0  0  0  0  0  0  0  0  0  0  0
    1.0702   -0.8731   -2.2812 N   0  0  0  0  0  0  0  0  0  0  0  0
    0.8994   -1.8100   -3.3684 C   0  0  2  0  0  0  0  0  0  0  0  0
   -0.3189   -2.6705   -3.0605 C   0  0  0  0  0  0  0  0  0  0  0  0
   -0.7544   -2.8342   -1.9227 O   0  0  0  0  0  0  0  0  0  0  0  0
    2.1390   -2.6704   -3.5573 C   0  0  0  0  0  0  0  0  0  0  0  0
    1.9887   -0.7910   -1.8552 H   0  0  0  0  0  0  0  0  0  0  0  0
    0.7101   -1.2171   -4.2699 H   0  0  0  0  0  0  0  0  0  0  0  0
    2.3446   -3.2717   -2.6642 H   0  0  0  0  0  0  0  0  0  0  0  0
    2.0187   -3.3599   -4.3994 H   0  0  0  0  0  0  0  0  0  0  0  0
    3.0198   -2.0482   -3.7491 H   0  0  0  0  0  0  0  0  0  0  0  0
   -0.8367   -3.2690   -4.2007 N   0  0  0  0  0  0  0  0  0  0  0  0
   -1.9858   -4.1434   -4.1689 C   0  0  0  0  0  0  0  0  0  0  0  0
   -0.4235   -3.0620   -5.1052 H   0  0  0  0  0  0  0  0  0  0  0  0
   -1.6511   -5.1858   -4.0622 H   0  0  0  0  0  0  0  0  0  0  0  0
   -2.6270   -3.8752   -3.3163 H   0  0  0  0  0  0  0  0  0  0  0  0
   -2.5548   -4.0350   -5.1040 H   0  0  0  0  0  0  0  0  0  0  0  0
 22 24  2  0  0  0  0
 24 26  1  0  0  0  0
 23 25  2  0  0  0  0
 25 26  1  0  0  0  0
 21 22  1  0  0  0  0
 22 23  1  0  0  0  0
  1  3  1  0  0  0  0
  1  7  1  0  0  0  0
  1  2  2  0  0  0  0
 35 36  1  0  0  0  0
 36 44  1  0  0  0  0
 36 37  2  0  0  0  0
  8  9  1  0  0  0  0
  9 17  1  0  0  0  0
  9 10  2  0  0  0  0
 18 19  1  0  0  0  0
 19 34  1  0  0  0  0
 19 20  2  0  0  0  0
 35 38  1  0  0  0  0
  8 11  1  0  0  0  0
 44 45  1  0  0  0  0
 18 21  1  0  0  0  0
 34 35  1  0  0  0  0
  7  8  1  0  0  0  0
 17 18  1  0  0  0  0
 24 31  1  0  0  0  0
 25 32  1  0  0  0  0
  3  4  1  0  0  0  0
  3  5  1  0  0  0  0
  3  6  1  0  0  0  0
 38 41  1  0  0  0  0
 38 42  1  0  0  0  0
 38 43  1  0  0  0  0
 11 14  1  0  0  0  0
 11 15  1  0  0  0  0
 11 16  1  0  0  0  0
 45 47  1  0  0  0  0
 45 48  1  0  0  0  0
 45 49  1  0  0  0  0
 21 29  1  0  0  0  0
 21 30  1  0  0  0  0
 35 40  1  0  0  0  0
  8 13  1  0  0  0  0
 18 28  1  0  0  0  0
 26 33  1  0  0  0  0
 44 46  1  0  0  0  0
  7 12  1  0  0  0  0
 34 39  1  0  0  0  0
 17 27  1  0  0  0  0
M  END
$$$$

  -OEChem-05262214473D

 49 49  0     1  0  0  0  0  0999 V2000
   -1.6183    0.5613    3.8201 C   0  0  0  0  0  0  0  0  0  0  0  0
   -0.6710   -0.0534    3.3444 O   0  0  0  0  0  0  0  0  0  0  0  0
   -2.0502    0.2789    5.2208 C   0  0  0  0  0  0  0  0  0  0  0  0
   -2.8099   -0.5175    5.2742 H   0  0  0  0  0  0  0  0  0  0  0  0
   -1.2190   -0.0687    5.8551 H   0  0  0  0  0  0  0  0  0  0  0  0
   -2.4882    1.1338    5.7604 H   0  0  0  0  0  0  0  0  0  0  0  0
   -2.3680    1.5337    3.1790 N   0  0  0  0  0  0  0  0  0  0  0  0
   -2.1212    1.9597    1.8266 C   0  0  2  0  0  0  0  0  0  0  0  0
   -0.7862    1.3744    1.3854 C   0  0  0  0  0  0  0  0  0  0  0  0
    0.0859    1.0216    2.1767 O   0  0  0  0  0  0  0  0  0  0  0  0
   -2.1124    3.4765    1.7171 C   0  0  0  0  0  0  0  0  0  0  0  0
   -3.1331    1.9695    3.6908 H   0  0  0  0  0  0  0  0  0  0  0  0
   -2.9253    1.5413    1.2115 H   0  0  0  0  0  0  0  0  0  0  0  0
   -1.3133    3.9138    2.3268 H   0  0  0  0  0  0  0  0  0  0  0  0
   -1.9529    3.7988    0.6829 H   0  0  0  0  0  0  0  0  0  0  0  0
   -3.0626    3.8977    2.0629 H   0  0  0  0  0  0  0  0  0  0  0  0
   -0.6635    1.3313    0.0020 N   0  0  0  0  0  0  0  0  0  0  0  0
    0.5138    0.8305   -0.6617 C   0  0  2  0  0  0  0  0  0  0  0  0
    0.0425   -0.0801   -1.7899 C   0  0  0  0  0  0  0  0  0  0  0  0
   -1.0038    0.1063   -2.4074 O   0  0  0  0  0  0  0  0  0  0  0  0
    1.4344    0.0625    0.2937 C   0  0  0  0  0  0  0  0  0  0  0  0
    2.0004    0.9357    1.3868 C   0  0  0  0  0  0  0  0  0  0  0  0
    3.0064    1.8293    1.1165 N   0  0  0  0  0  0  0  0  0  0  0  0
    1.6400    0.9800    2.7130 C   0  0  0  0  0  0  0  0  0  0  0  0
    3.2550    2.4120    2.2682 C   0  0  0  0  0  0  0  0  0  0  0  0
    2.4527    1.9299    3.2648 N   0  0  0  0  0  0  0  0  0  0  0  0
   -1.4467    1.6280   -0.5753 H   0  0  0  0  0  0  0  0  0  0  0  0
    1.0237    1.7004   -1.0919 H   0  0  0  0  0  0  0  0  0  0  0  0
    2.2548   -0.4083   -0.2649 H   0  0  0  0  0  0  0  0  0  0  0  0
    0.8921   -0.7686    0.7637 H   0  0  0  0  0  0  0  0  0  0  0  0
    0.9067    0.4428    3.2970 H   0  0  0  0  0  0  0  0  0  0  0  0
    3.9935    3.1809    2.4466 H   0  0  0  0  0  0  0  0  0  0  0  0
    2.4590    2.2233    4.2325 H   0  0  0  0  0  0  0  0  0  0  0  0
    0.9538   -1.0929   -2.0553 N   0  0  0  0  0  0  0  0  0  0  0  0
    0.7624   -2.0808   -3.0926 C   0  0  2  0  0  0  0  0  0  0  0  0
   -0.6337   -2.6676   -2.9314 C   0  0  0  0  0  0  0  0  0  0  0  0
   -1.2552   -2.6388   -1.8712 O   0  0  0  0  0  0  0  0  0  0  0  0
    1.8213   -3.1700   -3.0214 C   0  0  0  0  0  0  0  0  0  0  0  0
    1.7976   -1.1421   -1.4920 H   0  0  0  0  0  0  0  0  0  0  0  0
    0.8286   -1.5516   -4.0494 H   0  0  0  0  0  0  0  0  0  0  0  0
    1.7706   -3.7113   -2.0696 H   0  0  0  0  0  0  0  0  0  0  0  0
    1.6920   -3.9022   -3.8253 H   0  0  0  0  0  0  0  0  0  0  0  0
    2.8263   -2.7428   -3.1077 H   0  0  0  0  0  0  0  0  0  0  0  0
   -1.0866   -3.2654   -4.0992 N   0  0  0  0  0  0  0  0  0  0  0  0
   -2.3779   -3.9048   -4.1977 C   0  0  0  0  0  0  0  0  0  0  0  0
   -0.5124   -3.2254   -4.9362 H   0  0  0  0  0  0  0  0  0  0  0  0
   -2.2754   -4.9762   -3.9706 H   0  0  0  0  0  0  0  0  0  0  0  0
   -3.0714   -3.4426   -3.4798 H   0  0  0  0  0  0  0  0  0  0  0  0
   -2.7707   -3.7822   -5.2179 H   0  0  0  0  0  0  0  0  0  0  0  0
 22 24  2  0  0  0  0
 24 26  1  0  0  0  0
 23 25  2  0  0  0  0
 25 26  1  0  0  0  0
 21 22  1  0  0  0  0
 22 23  1  0  0  0  0
  1  3  1  0  0  0  0
  1  7  1  0  0  0  0
  1  2  2  0  0  0  0
 35 36  1  0  0  0  0
 36 44  1  0  0  0  0
 36 37  2  0  0  0  0
  8  9  1  0  0  0  0
  9 17  1  0  0  0  0
  9 10  2  0  0  0  0
 18 19  1  0  0  0  0
 19 34  1  0  0  0  0
 19 20  2  0  0  0  0
 35 38  1  0  0  0  0
  8 11  1  0  0  0  0
 44 45  1  0  0  0  0
 18 21  1  0  0  0  0
 34 35  1  0  0  0  0
  7  8  1  0  0  0  0
 17 18  1  0  0  0  0
 24 31  1  0  0  0  0
 25 32  1  0  0  0  0
  3  4  1  0  0  0  0
  3  5  1  0  0  0  0
  3  6  1  0  0  0  0
 38 41  1  0  0  0  0
 38 42  1  0  0  0  0
 38 43  1  0  0  0  0
 11 14  1  0  0  0  0
 11 15  1  0  0  0  0
 11 16  1  0  0  0  0
 45 47  1  0  0  0  0
 45 48  1  0  0  0  0
 45 49  1  0  0  0  0
 21 29  1  0  0  0  0
 21 30  1  0  0  0  0
 35 40  1  0  0  0  0
  8 13  1  0  0  0  0
 18 28  1  0  0  0  0
 26 33  1  0  0  0  0
 44 46  1  0  0  0  0
  7 12  1  0  0  0  0
 34 39  1  0  0  0  0
 17 27  1  0  0  0  0
M  END
$$$$

  -OEChem-05262214473D

 49 49  0     1  0  0  0  0  0999 V2000
   -1.6183    0.5613    3.8201 C   0  0  0  0  0  0  0  0  0  0  0  0
   -0.6710   -0.0534    3.3444 O   0  0  0  0  0  0  0  0  0  0  0  0
   -2.0502    0.2789    5.2208 C   0  0  0  0  0  0  0  0  0  0  0  0
   -2.8099   -0.5175    5.2742 H   0  0  0  0  0  0  0  0  0  0  0  0
   -1.2190   -0.0687    5.8551 H   0  0  0  0  0  0  0  0  0  0  0  0
   -2.4882    1.1338    5.7604 H   0  0  0  0  0  0  0  0  0  0  0  0
   -2.3680    1.5337    3.1790 N   0  0  0  0  0  0  0  0  0  0  0  0
   -2.1212    1.9597    1.8266 C   0  0  2  0  0  0  0  0  0  0  0  0
   -0.7862    1.3744    1.3854 C   0  0  0  0  0  0  0  0  0  0  0  0
    0.0859    1.0216    2.1767 O   0  0  0  0  0  0  0  0  0  0  0  0
   -2.1124    3.4765    1.7171 C   0  0  0  0  0  0  0  0  0  0  0  0
   -3.1331    1.9695    3.6908 H   0  0  0  0  0  0  0  0  0  0  0  0
   -2.9253    1.5413    1.2115 H   0  0  0  0  0  0  0  0  0  0  0  0
   -1.3133    3.9138    2.3268 H   0  0  0  0  0  0  0  0  0  0  0  0
   -1.9529    3.7988    0.6829 H   0  0  0  0  0  0  0  0  0  0  0  0
   -3.0626    3.8977    2.0629 H   0  0  0  0  0  0  0  0  0  0  0  0
   -0.6635    1.3313    0.0020 N   0  0  0  0  0  0  0  0  0  0  0  0
    0.5138    0.8305   -0.6617 C   0  0  2  0  0  0  0  0  0  0  0  0
    0.0425   -0.0801   -1.7899 C   0  0  0  0  0  0  0  0  0  0  0  0
   -0.8440    0.2373   -2.5799 O   0  0  0  0  0  0  0  0  0  0  0  0
    1.4344    0.0625    0.2937 C   0  0  0  0  0  0  0  0  0  0  0  0
    2.0004    0.9357    1.3868 C   0  0  0  0  0  0  0  0  0  0  0  0
    3.0064    1.8293    1.1165 N   0  0  0  0  0  0  0  0  0  0  0  0
    1.6400    0.9800    2.7130 C   0  0  0  0  0  0  0  0  0  0  0  0
    3.2550    2.4120    2.2682 C   0  0  0  0  0  0  0  0  0  0  0  0
    2.4527    1.9299    3.2648 N   0  0  0  0  0  0  0  0  0  0  0  0
   -1.4467    1.6280   -0.5753 H   0  0  0  0  0  0  0  0  0  0  0  0
    1.0237    1.7004   -1.0919 H   0  0  0  0  0  0  0  0  0  0  0  0
    2.2548   -0.4083   -0.2649 H   0  0  0  0  0  0  0  0  0  0  0  0
    0.8921   -0.7686    0.7637 H   0  0  0  0  0  0  0  0  0  0  0  0
    0.9067    0.4428    3.2970 H   0  0  0  0  0  0  0  0  0  0  0  0
    3.9935    3.1809    2.4466 H   0  0  0  0  0  0  0  0  0  0  0  0
    2.4590    2.2233    4.2325 H   0  0  0  0  0  0  0  0  0  0  0  0
    0.7643   -1.2647   -1.8374 N   0  0  0  0  0  0  0  0  0  0  0  0
    0.5357   -2.2942   -2.8257 C   0  0  2  0  0  0  0  0  0  0  0  0
   -0.9572   -2.5941   -2.8556 C   0  0  0  0  0  0  0  0  0  0  0  0
   -1.7094   -2.3501   -1.9145 O   0  0  0  0  0  0  0  0  0  0  0  0
    1.3360   -3.5489   -2.5129 C   0  0  0  0  0  0  0  0  0  0  0  0
    1.4897   -1.4157   -1.1426 H   0  0  0  0  0  0  0  0  0  0  0  0
    0.8449   -1.8798   -3.7914 H   0  0  0  0  0  0  0  0  0  0  0  0
    1.0400   -3.9784   -1.5489 H   0  0  0  0  0  0  0  0  0  0  0  0
    1.1838   -4.3175   -3.2779 H   0  0  0  0  0  0  0  0  0  0  0  0
    2.4071   -3.3254   -2.4624 H   0  0  0  0  0  0  0  0  0  0  0  0
   -1.3429   -3.2060   -4.0401 N   0  0  0  0  0  0  0  0  0  0  0  0
   -2.7065   -3.6014   -4.3053 C   0  0  0  0  0  0  0  0  0  0  0  0
   -0.6557   -3.3528   -4.7735 H   0  0  0  0  0  0  0  0  0  0  0  0
   -2.8525   -4.6468   -3.9955 H   0  0  0  0  0  0  0  0  0  0  0  0
   -3.3926   -2.9527   -3.7410 H   0  0  0  0  0  0  0  0  0  0  0  0
   -2.9132   -3.5058   -5.3814 H   0  0  0  0  0  0  0  0  0  0  0  0
 22 24  2  0  0  0  0
 24 26  1  0  0  0  0
 23 25  2  0  0  0  0
 25 26  1  0  0  0  0
 21 22  1  0  0  0  0
 22 23  1  0  0  0  0
  1  3  1  0  0  0  0
  1  7  1  0  0  0  0
  1  2  2  0  0  0  0
 35 36  1  0  0  0  0
 36 44  1  0  0  0  0
 36 37  2  0  0  0  0
  8  9  1  0  0  0  0
  9 17  1  0  0  0  0
  9 10  2  0  0  0  0
 18 19  1  0  0  0  0
 19 34  1  0  0  0  0
 19 20  2  0  0  0  0
 35 38  1  0  0  0  0
  8 11  1  0  0  0  0
 44 45  1  0  0  0  0
 18 21  1  0  0  0  0
 34 35  1  0  0  0  0
  7  8  1  0  0  0  0
 17 18  1  0  0  0  0
 24 31  1  0  0  0  0
 25 32  1  0  0  0  0
  3  4  1  0  0  0  0
  3  5  1  0  0  0  0
  3  6  1  0  0  0  0
 38 41  1  0  0  0  0
 38 42  1  0  0  0  0
 38 43  1  0  0  0  0
 11 14  1  0  0  0  0
 11 15  1  0  0  0  0
 11 16  1  0  0  0  0
 45 47  1  0  0  0  0
 45 48  1  0  0  0  0
 45 49  1  0  0  0  0
 21 29  1  0  0  0  0
 21 30  1  0  0  0  0
 35 40  1  0  0  0  0
  8 13  1  0  0  0  0
 18 28  1  0  0  0  0
 26 33  1  0  0  0  0
 44 46  1  0  0  0  0
  7 12  1  0  0  0  0
 34 39  1  0  0  0  0
 17 27  1  0  0  0  0
M  END
$$$$

  -OEChem-05262214473D

 49 49  0     1  0  0  0  0  0999 V2000
   -1.6183    0.5613    3.8201 C   0  0  0  0  0  0  0  0  0  0  0  0
   -0.6710   -0.0534    3.3444 O   0  0  0  0  0  0  0  0  0  0  0  0
   -2.0502    0.2789    5.2208 C   0  0  0  0  0  0  0  0  0  0  0  0
   -2.8099   -0.5175    5.2742 H   0  0  0  0  0  0  0  0  0  0  0  0
   -1.2190   -0.0687    5.8551 H   0  0  0  0  0  0  0  0  0  0  0  0
   -2.4882    1.1338    5.7604 H   0  0  0  0  0  0  0  0  0  0  0  0
   -2.3680    1.5337    3.1790 N   0  0  0  0  0  0  0  0  0  0  0  0
   -2.1212    1.9597    1.8266 C   0  0  2  0  0  0  0  0  0  0  0  0
   -0.7862    1.3744    1.3854 C   0  0  0  0  0  0  0  0  0  0  0  0
    0.0859    1.0216    2.1767 O   0  0  0  0  0  0  0  0  0  0  0  0
   -2.1124    3.4765    1.7171 C   0  0  0  0  0  0  0  0  0  0  0  0
   -3.1331    1.9695    3.6908 H   0  0  0  0  0  0  0  0  0  0  0  0
   -2.9253    1.5413    1.2115 H   0  0  0  0  0  0  0  0  0  0  0  0
   -1.3133    3.9138    2.3268 H   0  0  0  0  0  0  0  0  0  0  0  0
   -1.9529    3.7988    0.6829 H   0  0  0  0  0  0  0  0  0  0  0  0
   -3.0626    3.8977    2.0629 H   0  0  0  0  0  0  0  0  0  0  0  0
   -0.6635    1.3313    0.0020 N   0  0  0  0  0  0  0  0  0  0  0  0
    0.5138    0.8305   -0.6617 C   0  0  2  0  0  0  0  0  0  0  0  0
    0.0425   -0.0801   -1.7899 C   0  0  0  0  0  0  0  0  0  0  0  0
   -0.6380    0.3195   -2.7323 O   0  0  0  0  0  0  0  0  0  0  0  0
    1.4344    0.0625    0.2937 C   0  0  0  0  0  0  0  0  0  0  0  0
    2.0004    0.9357    1.3868 C   0  0  0  0  0  0  0  0  0  0  0  0
    3.0064    1.8293    1.1165 N   0  0  0  0  0  0  0  0  0  0  0  0
    1.6400    0.9800    2.7130 C   0  0  0  0  0  0  0  0  0  0  0  0
    3.2550    2.4120    2.2682 C   0  0  0  0  0  0  0  0  0  0  0  0
    2.4527    1.9299    3.2648 N   0  0  0  0  0  0  0  0  0  0  0  0
   -1.4467    1.6280   -0.5753 H   0  0  0  0  0  0  0  0  0  0  0  0
    1.0237    1.7004   -1.0919 H   0  0  0  0  0  0  0  0  0  0  0  0
    2.2548   -0.4083   -0.2649 H   0  0  0  0  0  0  0  0  0  0  0  0
    0.8921   -0.7686    0.7637 H   0  0  0  0  0  0  0  0  0  0  0  0
    0.9067    0.4428    3.2970 H   0  0  0  0  0  0  0  0  0  0  0  0
    3.9935    3.1809    2.4466 H   0  0  0  0  0  0  0  0  0  0  0  0
    2.4590    2.2233    4.2325 H   0  0  0  0  0  0  0  0  0  0  0  0
    0.5147   -1.3770   -1.6426 N   0  0  0  0  0  0  0  0  0  0  0  0
    0.2345   -2.4355   -2.5858 C   0  0  2  0  0  0  0  0  0  0  0  0
   -1.2673   -2.4551   -2.8383 C   0  0  0  0  0  0  0  0  0  0  0  0
   -2.0862   -1.9876   -2.0497 O   0  0  0  0  0  0  0  0  0  0  0  0
    0.7160   -3.7812   -2.0665 C   0  0  0  0  0  0  0  0  0  0  0  0
    1.0859   -1.5930   -0.8309 H   0  0  0  0  0  0  0  0  0  0  0  0
    0.7580   -2.1793   -3.5134 H   0  0  0  0  0  0  0  0  0  0  0  0
    0.2027   -4.0549   -1.1375 H   0  0  0  0  0  0  0  0  0  0  0  0
    0.5288   -4.5775   -2.7944 H   0  0  0  0  0  0  0  0  0  0  0  0
    1.7909   -3.7563   -1.8573 H   0  0  0  0  0  0  0  0  0  0  0  0
   -1.5883   -3.0947   -4.0274 N   0  0  0  0  0  0  0  0  0  0  0  0
   -2.9492   -3.2541   -4.4842 C   0  0  0  0  0  0  0  0  0  0  0  0
   -0.8437   -3.4354   -4.6284 H   0  0  0  0  0  0  0  0  0  0  0  0
   -3.3429   -4.2200   -4.1350 H   0  0  0  0  0  0  0  0  0  0  0  0
   -3.5686   -2.4389   -4.0822 H   0  0  0  0  0  0  0  0  0  0  0  0
   -2.9726   -3.2246   -5.5836 H   0  0  0  0  0  0  0  0  0  0  0  0
 22 24  2  0  0  0  0
 24 26  1  0  0  0  0
 23 25  2  0  0  0  0
 25 26  1  0  0  0  0
 21 22  1  0  0  0  0
 22 23  1  0  0  0  0
  1  3  1  0  0  0  0
  1  7  1  0  0  0  0
  1  2  2  0  0  0  0
 35 36  1  0  0  0  0
 36 44  1  0  0  0  0
 36 37  2  0  0  0  0
  8  9  1  0  0  0  0
  9 17  1  0  0  0  0
  9 10  2  0  0  0  0
 18 19  1  0  0  0  0
 19 34  1  0  0  0  0
 19 20  2  0  0  0  0
 35 38  1  0  0  0  0
  8 11  1  0  0  0  0
 44 45  1  0  0  0  0
 18 21  1  0  0  0  0
 34 35  1  0  0  0  0
  7  8  1  0  0  0  0
 17 18  1  0  0  0  0
 24 31  1  0  0  0  0
 25 32  1  0  0  0  0
  3  4  1  0  0  0  0
  3  5  1  0  0  0  0
  3  6  1  0  0  0  0
 38 41  1  0  0  0  0
 38 42  1  0  0  0  0
 38 43  1  0  0  0  0
 11 14  1  0  0  0  0
 11 15  1  0  0  0  0
 11 16  1  0  0  0  0
 45 47  1  0  0  0  0
 45 48  1  0  0  0  0
 45 49  1  0  0  0  0
 21 29  1  0  0  0  0
 21 30  1  0  0  0  0
 35 40  1  0  0  0  0
  8 13  1  0  0  0  0
 18 28  1  0  0  0  0
 26 33  1  0  0  0  0
 44 46  1  0  0  0  0
  7 12  1  0  0  0  0
 34 39  1  0  0  0  0
 17 27  1  0  0  0  0
M  END
$$$$

  -OEChem-05262214473D

 49 49  0     1  0  0  0  0  0999 V2000
   -1.6183    0.5613    3.8201 C   0  0  0  0  0  0  0  0  0  0  0  0
   -0.6710   -0.0534    3.3444 O   0  0  0  0  0  0  0  0  0  0  0  0
   -2.0502    0.2789    5.2208 C   0  0  0  0  0  0  0  0  0  0  0  0
   -2.8099   -0.5175    5.2742 H   0  0  0  0  0  0  0  0  0  0  0  0
   -1.2190   -0.0687    5.8551 H   0  0  0  0  0  0  0  0  0  0  0  0
   -2.4882    1.1338    5.7604 H   0  0  0  0  0  0  0  0  0  0  0  0
   -2.3680    1.5337    3.1790 N   0  0  0  0  0  0  0  0  0  0  0  0
   -2.1212    1.9597    1.8266 C   0  0  2  0  0  0  0  0  0  0  0  0
   -0.7862    1.3744    1.3854 C   0  0  0  0  0  0  0  0  0  0  0  0
    0.0859    1.0216    2.1767 O   0  0  0  0  0  0  0  0  0  0  0  0
   -2.1124    3.4765    1.7171 C   0  0  0  0  0  0  0  0  0  0  0  0
   -3.1331    1.9695    3.6908 H   0  0  0  0  0  0  0  0  0  0  0  0
   -2.9253    1.5413    1.2115 H   0  0  0  0  0  0  0  0  0  0  0  0
   -1.3133    3.9138    2.3268 H   0  0  0  0  0  0  0  0  0  0  0  0
   -1.9529    3.7988    0.6829 H   0  0  0  0  0  0  0  0  0  0  0  0
   -3.0626    3.8977    2.0629 H   0  0  0  0  0  0  0  0  0  0  0  0
   -0.6635    1.3313    0.0020 N   0  0  0  0  0  0  0  0  0  0  0  0
    0.5138    0.8305   -0.6617 C   0  0  2  0  0  0  0  0  0  0  0  0
    0.0425   -0.0801   -1.7899 C   0  0  0  0  0  0  0  0  0  0  0  0
   -0.3996    0.3472   -2.8543 O   0  0  0  0  0  0  0  0  0  0  0  0
    1.4344    0.0625    0.2937 C   0  0  0  0  0  0  0  0  0  0  0  0
    2.0004    0.9357    1.3868 C   0  0  0  0  0  0  0  0  0  0  0  0
    3.0064    1.8293    1.1165 N   0  0  0  0  0  0  0  0  0  0  0  0
    1.6400    0.9800    2.7130 C   0  0  0  0  0  0  0  0  0  0  0  0
    3.2550    2.4120    2.2682 C   0  0  0  0  0  0  0  0  0  0  0  0
    2.4527    1.9299    3.2648 N   0  0  0  0  0  0  0  0  0  0  0  0
   -1.4467    1.6280   -0.5753 H   0  0  0  0  0  0  0  0  0  0  0  0
    1.0237    1.7004   -1.0919 H   0  0  0  0  0  0  0  0  0  0  0  0
    2.2548   -0.4083   -0.2649 H   0  0  0  0  0  0  0  0  0  0  0  0
    0.8921   -0.7686    0.7637 H   0  0  0  0  0  0  0  0  0  0  0  0
    0.9067    0.4428    3.2970 H   0  0  0  0  0  0  0  0  0  0  0  0
    3.9935    3.1809    2.4466 H   0  0  0  0  0  0  0  0  0  0  0  0
    2.4590    2.2233    4.2325 H   0  0  0  0  0  0  0  0  0  0  0  0
    0.2219   -1.4220   -1.4839 N   0  0  0  0  0  0  0  0  0  0  0  0
   -0.1206   -2.4951   -2.3894 C   0  0  2  0  0  0  0  0  0  0  0  0
   -1.5429   -2.2601   -2.8806 C   0  0  0  0  0  0  0  0  0  0  0  0
   -2.3599   -1.5761   -2.2675 O   0  0  0  0  0  0  0  0  0  0  0  0
    0.0037   -3.8512   -1.7125 C   0  0  0  0  0  0  0  0  0  0  0  0
    0.6136   -1.6619   -0.5780 H   0  0  0  0  0  0  0  0  0  0  0  0
    0.5736   -2.4297   -3.2343 H   0  0  0  0  0  0  0  0  0  0  0  0
   -0.6844   -3.9354   -0.8634 H   0  0  0  0  0  0  0  0  0  0  0  0
   -0.2285   -4.6645   -2.4079 H   0  0  0  0  0  0  0  0  0  0  0  0
    1.0197   -4.0060   -1.3336 H   0  0  0  0  0  0  0  0  0  0  0  0
   -1.8060   -2.9392   -4.0620 N   0  0  0  0  0  0  0  0  0  0  0  0
   -3.0894   -2.8865   -4.7224 C   0  0  0  0  0  0  0  0  0  0  0  0
   -1.0635   -3.4675   -4.5106 H   0  0  0  0  0  0  0  0  0  0  0  0
   -3.7134   -3.7251   -4.3798 H   0  0  0  0  0  0  0  0  0  0  0  0
   -3.5875   -1.9361   -4.4801 H   0  0  0  0  0  0  0  0  0  0  0  0
   -2.9449   -2.9577   -5.8105 H   0  0  0  0  0  0  0  0  0  0  0  0
 22 24  2  0  0  0  0
 24 26  1  0  0  0  0
 23 25  2  0  0  0  0
 25 26  1  0  0  0  0
 21 22  1  0  0  0  0
 22 23  1  0  0  0  0
  1  3  1  0  0  0  0
  1  7  1  0  0  0  0
  1  2  2  0  0  0  0
 35 36  1  0  0  0  0
 36 44  1  0  0  0  0
 36 37  2  0  0  0  0
  8  9  1  0  0  0  0
  9 17  1  0  0  0  0
  9 10  2  0  0  0  0
 18 19  1  0  0  0  0
 19 34  1  0  0  0  0
 19 20  2  0  0  0  0
 35 38  1  0  0  0  0
  8 11  1  0  0  0  0
 44 45  1  0  0  0  0
 18 21  1  0  0  0  0
 34 35  1  0  0  0  0
  7  8  1  0  0  0  0
 17 18  1  0  0  0  0
 24 31  1  0  0  0  0
 25 32  1  0  0  0  0
  3  4  1  0  0  0  0
  3  5  1  0  0  0  0
  3  6  1  0  0  0  0
 38 41  1  0  0  0  0
 38 42  1  0  0  0  0
 38 43  1  0  0  0  0
 11 14  1  0  0  0  0
 11 15  1  0  0  0  0
 11 16  1  0  0  0  0
 45 47  1  0  0  0  0
 45 48  1  0  0  0  0
 45 49  1  0  0  0  0
 21 29  1  0  0  0  0
 21 30  1  0  0  0  0
 35 40  1  0  0  0  0
  8 13  1  0  0  0  0
 18 28  1  0  0  0  0
 26 33  1  0  0  0  0
 44 46  1  0  0  0  0
  7 12  1  0  0  0  0
 34 39  1  0  0  0  0
 17 27  1  0  0  0  0
M  END
$$$$

  -OEChem-05262214473D

 49 49  0     1  0  0  0  0  0999 V2000
   -1.6183    0.5613    3.8201 C   0  0  0  0  0  0  0  0  0  0  0  0
   -0.6710   -0.0534    3.3444 O   0  0  0  0  0  0  0  0  0  0  0  0
   -2.0502    0.2789    5.2208 C   0  0  0  0  0  0  0  0  0  0  0  0
   -2.8099   -0.5175    5.2742 H   0  0  0  0  0  0  0  0  0  0  0  0
   -1.2190   -0.0687    5.8551 H   0  0  0  0  0  0  0  0  0  0  0  0
   -2.4882    1.1338    5.7604 H   0  0  0  0  0  0  0  0  0  0  0  0
   -2.3680    1.5337    3.1790 N   0  0  0  0  0  0  0  0  0  0  0  0
   -2.1212    1.9597    1.8266 C   0  0  2  0  0  0  0  0  0  0  0  0
   -0.7862    1.3744    1.3854 C   0  0  0  0  0  0  0  0  0  0  0  0
    0.0859    1.0216    2.1767 O   0  0  0  0  0  0  0  0  0  0  0  0
   -2.1124    3.4765    1.7171 C   0  0  0  0  0  0  0  0  0  0  0  0
   -3.1331    1.9695    3.6908 H   0  0  0  0  0  0  0  0  0  0  0  0
   -2.9253    1.5413    1.2115 H   0  0  0  0  0  0  0  0  0  0  0  0
   -1.3133    3.9138    2.3268 H   0  0  0  0  0  0  0  0  0  0  0  0
   -1.9529    3.7988    0.6829 H   0  0  0  0  0  0  0  0  0  0  0  0
   -3.0626    3.8977    2.0629 H   0  0  0  0  0  0  0  0  0  0  0  0
   -0.6635    1.3313    0.0020 N   0  0  0  0  0  0  0  0  0  0  0  0
    0.5138    0.8305   -0.6617 C   0  0  2  0  0  0  0  0  0  0  0  0
    0.0425   -0.0801   -1.7899 C   0  0  0  0  0  0  0  0  0  0  0  0
   -0.1452    0.3186   -2.9374 O   0  0  0  0  0  0  0  0  0  0  0  0
    1.4344    0.0625    0.2937 C   0  0  0  0  0  0  0  0  0  0  0  0
    2.0004    0.9357    1.3868 C   0  0  0  0  0  0  0  0  0  0  0  0
    3.0064    1.8293    1.1165 N   0  0  0  0  0  0  0  0  0  0  0  0
    1.6400    0.9800    2.7130 C   0  0  0  0  0  0  0  0  0  0  0  0
    3.2550    2.4120    2.2682 C   0  0  0  0  0  0  0  0  0  0  0  0
    2.4527    1.9299    3.2648 N   0  0  0  0  0  0  0  0  0  0  0  0
   -1.4467    1.6280   -0.5753 H   0  0  0  0  0  0  0  0  0  0  0  0
    1.0237    1.7004   -1.0919 H   0  0  0  0  0  0  0  0  0  0  0  0
    2.2548   -0.4083   -0.2649 H   0  0  0  0  0  0  0  0  0  0  0  0
    0.8921   -0.7686    0.7637 H   0  0  0  0  0  0  0  0  0  0  0  0
    0.9067    0.4428    3.2970 H   0  0  0  0  0  0  0  0  0  0  0  0
    3.9935    3.1809    2.4466 H   0  0  0  0  0  0  0  0  0  0  0  0
    2.4590    2.2233    4.2325 H   0  0  0  0  0  0  0  0  0  0  0  0
   -0.0940   -1.3967   -1.3724 N   0  0  0  0  0  0  0  0  0  0  0  0
   -0.5053   -2.4689   -2.2499 C   0  0  2  0  0  0  0  0  0  0  0  0
   -1.7653   -2.0223   -2.9796 C   0  0  0  0  0  0  0  0  0  0  0  0
   -2.5117   -1.1437   -2.5531 O   0  0  0  0  0  0  0  0  0  0  0  0
   -0.7526   -3.7540   -1.4751 C   0  0  0  0  0  0  0  0  0  0  0  0
    0.1052   -1.6178   -0.4012 H   0  0  0  0  0  0  0  0  0  0  0  0
    0.3045   -2.6139   -2.9732 H   0  0  0  0  0  0  0  0  0  0  0  0
   -1.5607   -3.6282   -0.7453 H   0  0  0  0  0  0  0  0  0  0  0  0
   -1.0364   -4.5726   -2.1447 H   0  0  0  0  0  0  0  0  0  0  0  0
    0.1459   -4.0576   -0.9270 H   0  0  0  0  0  0  0  0  0  0  0  0
   -1.9812   -2.7501   -4.1414 N   0  0  0  0  0  0  0  0  0  0  0  0
   -3.1176   -2.5235   -5.0035 C   0  0  0  0  0  0  0  0  0  0  0  0
   -1.3002   -3.4470   -4.4283 H   0  0  0  0  0  0  0  0  0  0  0  0
   -3.9386   -3.1956   -4.7130 H   0  0  0  0  0  0  0  0  0  0  0  0
   -3.4479   -1.4787   -4.9076 H   0  0  0  0  0  0  0  0  0  0  0  0
   -2.8319   -2.7235   -6.0468 H   0  0  0  0  0  0  0  0  0  0  0  0
 22 24  2  0  0  0  0
 24 26  1  0  0  0  0
 23 25  2  0  0  0  0
 25 26  1  0  0  0  0
 21 22  1  0  0  0  0
 22 23  1  0  0  0  0
  1  3  1  0  0  0  0
  1  7  1  0  0  0  0
  1  2  2  0  0  0  0
 35 36  1  0  0  0  0
 36 44  1  0  0  0  0
 36 37  2  0  0  0  0
  8  9  1  0  0  0  0
  9 17  1  0  0  0  0
  9 10  2  0  0  0  0
 18 19  1  0  0  0  0
 19 34  1  0  0  0  0
 19 20  2  0  0  0  0
 35 38  1  0  0  0  0
  8 11  1  0  0  0  0
 44 45  1  0  0  0  0
 18 21  1  0  0  0  0
 34 35  1  0  0  0  0
  7  8  1  0  0  0  0
 17 18  1  0  0  0  0
 24 31  1  0  0  0  0
 25 32  1  0  0  0  0
  3  4  1  0  0  0  0
  3  5  1  0  0  0  0
  3  6  1  0  0  0  0
 38 41  1  0  0  0  0
 38 42  1  0  0  0  0
 38 43  1  0  0  0  0
 11 14  1  0  0  0  0
 11 15  1  0  0  0  0
 11 16  1  0  0  0  0
 45 47  1  0  0  0  0
 45 48  1  0  0  0  0
 45 49  1  0  0  0  0
 21 29  1  0  0  0  0
 21 30  1  0  0  0  0
 35 40  1  0  0  0  0
  8 13  1  0  0  0  0
 18 28  1  0  0  0  0
 26 33  1  0  0  0  0
 44 46  1  0  0  0  0
  7 12  1  0  0  0  0
 34 39  1  0  0  0  0
 17 27  1  0  0  0  0
M  END
$$$$

  -OEChem-05262214473D

 49 49  0     1  0  0  0  0  0999 V2000
   -1.6183    0.5613    3.8201 C   0  0  0  0  0  0  0  0  0  0  0  0
   -0.6710   -0.0534    3.3444 O   0  0  0  0  0  0  0  0  0  0  0  0
   -2.0502    0.2789    5.2208 C   0  0  0  0  0  0  0  0  0  0  0  0
   -2.8099   -0.5175    5.2742 H   0  0  0  0  0  0  0  0  0  0  0  0
   -1.2190   -0.0687    5.8551 H   0  0  0  0  0  0  0  0  0  0  0  0
   -2.4882    1.1338    5.7604 H   0  0  0  0  0  0  0  0  0  0  0  0
   -2.3680    1.5337    3.1790 N   0  0  0  0  0  0  0  0  0  0  0  0
   -2.1212    1.9597    1.8266 C   0  0  2  0  0  0  0  0  0  0  0  0
   -0.7862    1.3744    1.3854 C   0  0  0  0  0  0  0  0  0  0  0  0
    0.0859    1.0216    2.1767 O   0  0  0  0  0  0  0  0  0  0  0  0
   -2.1124    3.4765    1.7171 C   0  0  0  0  0  0  0  0  0  0  0  0
   -3.1331    1.9695    3.6908 H   0  0  0  0  0  0  0  0  0  0  0  0
   -2.9253    1.5413    1.2115 H   0  0  0  0  0  0  0  0  0  0  0  0
   -1.3133    3.9138    2.3268 H   0  0  0  0  0  0  0  0  0  0  0  0
   -1.9529    3.7988    0.6829 H   0  0  0  0  0  0  0  0  0  0  0  0
   -3.0626    3.8977    2.0629 H   0  0  0  0  0  0  0  0  0  0  0  0
   -0.6635    1.3313    0.0020 N   0  0  0  0  0  0  0  0  0  0  0  0
    0.5138    0.8305   -0.6617 C   0  0  2  0  0  0  0  0  0  0  0  0
    0.0425   -0.0801   -1.7899 C   0  0  0  0  0  0  0  0  0  0  0  0
    0.1079    0.2355   -2.9761 O   0  0  0  0  0  0  0  0  0  0  0  0
    1.4344    0.0625    0.2937 C   0  0  0  0  0  0  0  0  0  0  0  0
    2.0004    0.9357    1.3868 C   0  0  0  0  0  0  0  0  0  0  0  0
    3.0064    1.8293    1.1165 N   0  0  0  0  0  0  0  0  0  0  0  0
    1.6400    0.9800    2.7130 C   0  0  0  0  0  0  0  0  0  0  0  0
    3.2550    2.4120    2.2682 C   0  0  0  0  0  0  0  0  0  0  0  0
    2.4527    1.9299    3.2648 N   0  0  0  0  0  0  0  0  0  0  0  0
   -1.4467    1.6280   -0.5753 H   0  0  0  0  0  0  0  0  0  0  0  0
    1.0237    1.7004   -1.0919 H   0  0  0  0  0  0  0  0  0  0  0  0
    2.2548   -0.4083   -0.2649 H   0  0  0  0  0  0  0  0  0  0  0  0
    0.8921   -0.7686    0.7637 H   0  0  0  0  0  0  0  0  0  0  0  0
    0.9067    0.4428    3.2970 H   0  0  0  0  0  0  0  0  0  0  0  0
    3.9935    3.1809    2.4466 H   0  0  0  0  0  0  0  0  0  0  0  0
    2.4590    2.2233    4.2325 H   0  0  0  0  0  0  0  0  0  0  0  0
   -0.4116   -1.3029   -1.3155 N   0  0  0  0  0  0  0  0  0  0  0  0
   -0.8935   -2.3588   -2.1766 C   0  0  2  0  0  0  0  0  0  0  0  0
   -1.9191   -1.7579   -3.1287 C   0  0  0  0  0  0  0  0  0  0  0  0
   -2.5314   -0.7197   -2.8870 O   0  0  0  0  0  0  0  0  0  0  0  0
   -1.5011   -3.4962   -1.3705 C   0  0  0  0  0  0  0  0  0  0  0  0
   -0.4048   -1.4637   -0.3126 H   0  0  0  0  0  0  0  0  0  0  0  0
   -0.0312   -2.7193   -2.7479 H   0  0  0  0  0  0  0  0  0  0  0  0
   -2.3666   -3.1541   -0.7914 H   0  0  0  0  0  0  0  0  0  0  0  0
   -1.8398   -4.3080   -2.0227 H   0  0  0  0  0  0  0  0  0  0  0  0
   -0.7709   -3.9076   -0.6652 H   0  0  0  0  0  0  0  0  0  0  0  0
   -2.1018   -2.5402   -4.2604 N   0  0  0  0  0  0  0  0  0  0  0  0
   -3.0319   -2.1901   -5.3084 C   0  0  0  0  0  0  0  0  0  0  0  0
   -1.5376   -3.3753   -4.3870 H   0  0  0  0  0  0  0  0  0  0  0  0
   -4.0031   -2.6677   -5.1121 H   0  0  0  0  0  0  0  0  0  0  0  0
   -3.1594   -1.0978   -5.3355 H   0  0  0  0  0  0  0  0  0  0  0  0
   -2.6414   -2.5377   -6.2763 H   0  0  0  0  0  0  0  0  0  0  0  0
 22 24  2  0  0  0  0
 24 26  1  0  0  0  0
 23 25  2  0  0  0  0
 25 26  1  0  0  0  0
 21 22  1  0  0  0  0
 22 23  1  0  0  0  0
  1  3  1  0  0  0  0
  1  7  1  0  0  0  0
  1  2  2  0  0  0  0
 35 36  1  0  0  0  0
 36 44  1  0  0  0  0
 36 37  2  0  0  0  0
  8  9  1  0  0  0  0
  9 17  1  0  0  0  0
  9 10  2  0  0  0  0
 18 19  1  0  0  0  0
 19 34  1  0  0  0  0
 19 20  2  0  0  0  0
 35 38  1  0  0  0  0
  8 11  1  0  0  0  0
 44 45  1  0  0  0  0
 18 21  1  0  0  0  0
 34 35  1  0  0  0  0
  7  8  1  0  0  0  0
 17 18  1  0  0  0  0
 24 31  1  0  0  0  0
 25 32  1  0  0  0  0
  3  4  1  0  0  0  0
  3  5  1  0  0  0  0
  3  6  1  0  0  0  0
 38 41  1  0  0  0  0
 38 42  1  0  0  0  0
 38 43  1  0  0  0  0
 11 14  1  0  0  0  0
 11 15  1  0  0  0  0
 11 16  1  0  0  0  0
 45 47  1  0  0  0  0
 45 48  1  0  0  0  0
 45 49  1  0  0  0  0
 21 29  1  0  0  0  0
 21 30  1  0  0  0  0
 35 40  1  0  0  0  0
  8 13  1  0  0  0  0
 18 28  1  0  0  0  0
 26 33  1  0  0  0  0
 44 46  1  0  0  0  0
  7 12  1  0  0  0  0
 34 39  1  0  0  0  0
 17 27  1  0  0  0  0
M  END
$$$$

  -OEChem-05262214473D

 49 49  0     1  0  0  0  0  0999 V2000
   -1.6183    0.5613    3.8201 C   0  0  0  0  0  0  0  0  0  0  0  0
   -0.6710   -0.0534    3.3444 O   0  0  0  0  0  0  0  0  0  0  0  0
   -2.0502    0.2789    5.2208 C   0  0  0  0  0  0  0  0  0  0  0  0
   -2.8099   -0.5175    5.2742 H   0  0  0  0  0  0  0  0  0  0  0  0
   -1.2190   -0.0687    5.8551 H   0  0  0  0  0  0  0  0  0  0  0  0
   -2.4882    1.1338    5.7604 H   0  0  0  0  0  0  0  0  0  0  0  0
   -2.3680    1.5337    3.1790 N   0  0  0  0  0  0  0  0  0  0  0  0
   -2.1212    1.9597    1.8266 C   0  0  2  0  0  0  0  0  0  0  0  0
   -0.7862    1.3744    1.3854 C   0  0  0  0  0  0  0  0  0  0  0  0
    0.0859    1.0216    2.1767 O   0  0  0  0  0  0  0  0  0  0  0  0
   -2.1124    3.4765    1.7171 C   0  0  0  0  0  0  0  0  0  0  0  0
   -3.1331    1.9695    3.6908 H   0  0  0  0  0  0  0  0  0  0  0  0
   -2.9253    1.5413    1.2115 H   0  0  0  0  0  0  0  0  0  0  0  0
   -1.3133    3.9138    2.3268 H   0  0  0  0  0  0  0  0  0  0  0  0
   -1.9529    3.7988    0.6829 H   0  0  0  0  0  0  0  0  0  0  0  0
   -3.0626    3.8977    2.0629 H   0  0  0  0  0  0  0  0  0  0  0  0
   -0.6635    1.3313    0.0020 N   0  0  0  0  0  0  0  0  0  0  0  0
    0.5138    0.8305   -0.6617 C   0  0  2  0  0  0  0  0  0  0  0  0
    0.0425   -0.0801   -1.7899 C   0  0  0  0  0  0  0  0  0  0  0  0
    0.3425    0.1037   -2.9677 O   0  0  0  0  0  0  0  0  0  0  0  0
    1.4344    0.0625    0.2937 C   0  0  0  0  0  0  0  0  0  0  0  0
    2.0004    0.9357    1.3868 C   0  0  0  0  0  0  0  0  0  0  0  0
    3.0064    1.8293    1.1165 N   0  0  0  0  0  0  0  0  0  0  0  0
    1.6400    0.9800    2.7130 C   0  0  0  0  0  0  0  0  0  0  0  0
    3.2550    2.4120    2.2682 C   0  0  0  0  0  0  0  0  0  0  0  0
    2.4527    1.9299    3.2648 N   0  0  0  0  0  0  0  0  0  0  0  0
   -1.4467    1.6280   -0.5753 H   0  0  0  0  0  0  0  0  0  0  0  0
    1.0237    1.7004   -1.0919 H   0  0  0  0  0  0  0  0  0  0  0  0
    2.2548   -0.4083   -0.2649 H   0  0  0  0  0  0  0  0  0  0  0  0
    0.8921   -0.7686    0.7637 H   0  0  0  0  0  0  0  0  0  0  0  0
    0.9067    0.4428    3.2970 H   0  0  0  0  0  0  0  0  0  0  0  0
    3.9935    3.1809    2.4466 H   0  0  0  0  0  0  0  0  0  0  0  0
    2.4590    2.2233    4.2325 H   0  0  0  0  0  0  0  0  0  0  0  0
   -0.7091   -1.1469   -1.3171 N   0  0  0  0  0  0  0  0  0  0  0  0
   -1.2587   -2.1722   -2.1746 C   0  0  2  0  0  0  0  0  0  0  0  0
   -1.9941   -1.4850   -3.3177 C   0  0  0  0  0  0  0  0  0  0  0  0
   -2.4175   -0.3332   -3.2465 O   0  0  0  0  0  0  0  0  0  0  0  0
   -2.1909   -3.0955   -1.4057 C   0  0  0  0  0  0  0  0  0  0  0  0
   -0.8816   -1.2101   -0.3181 H   0  0  0  0  0  0  0  0  0  0  0  0
   -0.4104   -2.7389   -2.5737 H   0  0  0  0  0  0  0  0  0  0  0  0
   -3.0470   -2.5455   -0.9983 H   0  0  0  0  0  0  0  0  0  0  0  0
   -2.5841   -3.8887   -2.0502 H   0  0  0  0  0  0  0  0  0  0  0  0
   -1.6681   -3.5661   -0.5661 H   0  0  0  0  0  0  0  0  0  0  0  0
   -2.1598   -2.3239   -4.4108 N   0  0  0  0  0  0  0  0  0  0  0  0
   -2.8381   -1.9088   -5.6164 C   0  0  0  0  0  0  0  0  0  0  0  0
   -1.7595   -3.2573   -4.3896 H   0  0  0  0  0  0  0  0  0  0  0  0
   -3.9027   -2.1773   -5.5498 H   0  0  0  0  0  0  0  0  0  0  0  0
   -2.7416   -0.8194   -5.7347 H   0  0  0  0  0  0  0  0  0  0  0  0
   -2.3863   -2.4131   -6.4833 H   0  0  0  0  0  0  0  0  0  0  0  0
 22 24  2  0  0  0  0
 24 26  1  0  0  0  0
 23 25  2  0  0  0  0
 25 26  1  0  0  0  0
 21 22  1  0  0  0  0
 22 23  1  0  0  0  0
  1  3  1  0  0  0  0
  1  7  1  0  0  0  0
  1  2  2  0  0  0  0
 35 36  1  0  0  0  0
 36 44  1  0  0  0  0
 36 37  2  0  0  0  0
  8  9  1  0  0  0  0
  9 17  1  0  0  0  0
  9 10  2  0  0  0  0
 18 19  1  0  0  0  0
 19 34  1  0  0  0  0
 19 20  2  0  0  0  0
 35 38  1  0  0  0  0
  8 11  1  0  0  0  0
 44 45  1  0  0  0  0
 18 21  1  0  0  0  0
 34 35  1  0  0  0  0
  7  8  1  0  0  0  0
 17 18  1  0  0  0  0
 24 31  1  0  0  0  0
 25 32  1  0  0  0  0
  3  4  1  0  0  0  0
  3  5  1  0  0  0  0
  3  6  1  0  0  0  0
 38 41  1  0  0  0  0
 38 42  1  0  0  0  0
 38 43  1  0  0  0  0
 11 14  1  0  0  0  0
 11 15  1  0  0  0  0
 11 16  1  0  0  0  0
 45 47  1  0  0  0  0
 45 48  1  0  0  0  0
 45 49  1  0  0  0  0
 21 29  1  0  0  0  0
 21 30  1  0  0  0  0
 35 40  1  0  0  0  0
  8 13  1  0  0  0  0
 18 28  1  0  0  0  0
 26 33  1  0  0  0  0
 44 46  1  0  0  0  0
  7 12  1  0  0  0  0
 34 39  1  0  0  0  0
 17 27  1  0  0  0  0
M  END
$$$$

  -OEChem-05262214473D

 49 49  0     1  0  0  0  0  0999 V2000
   -1.6183    0.5613    3.8201 C   0  0  0  0  0  0  0  0  0  0  0  0
   -0.6710   -0.0534    3.3444 O   0  0  0  0  0  0  0  0  0  0  0  0
   -2.0502    0.2789    5.2208 C   0  0  0  0  0  0  0  0  0  0  0  0
   -2.8099   -0.5175    5.2742 H   0  0  0  0  0  0  0  0  0  0  0  0
   -1.2190   -0.0687    5.8551 H   0  0  0  0  0  0  0  0  0  0  0  0
   -2.4882    1.1338    5.7604 H   0  0  0  0  0  0  0  0  0  0  0  0
   -2.3680    1.5337    3.1790 N   0  0  0  0  0  0  0  0  0  0  0  0
   -2.1212    1.9597    1.8266 C   0  0  2  0  0  0  0  0  0  0  0  0
   -0.7862    1.3744    1.3854 C   0  0  0  0  0  0  0  0  0  0  0  0
    0.0859    1.0216    2.1767 O   0  0  0  0  0  0  0  0  0  0  0  0
   -2.1124    3.4765    1.7171 C   0  0  0  0  0  0  0  0  0  0  0  0
   -3.1331    1.9695    3.6908 H   0  0  0  0  0  0  0  0  0  0  0  0
   -2.9253    1.5413    1.2115 H   0  0  0  0  0  0  0  0  0  0  0  0
   -1.3133    3.9138    2.3268 H   0  0  0  0  0  0  0  0  0  0  0  0
   -1.9529    3.7988    0.6829 H   0  0  0  0  0  0  0  0  0  0  0  0
   -3.0626    3.8977    2.0629 H   0  0  0  0  0  0  0  0  0  0  0  0
   -0.6635    1.3313    0.0020 N   0  0  0  0  0  0  0  0  0  0  0  0
    0.5138    0.8305   -0.6617 C   0  0  2  0  0  0  0  0  0  0  0  0
    0.0425   -0.0801   -1.7899 C   0  0  0  0  0  0  0  0  0  0  0  0
    0.5425   -0.0679   -2.9128 O   0  0  0  0  0  0  0  0  0  0  0  0
    1.4344    0.0625    0.2937 C   0  0  0  0  0  0  0  0  0  0  0  0
    2.0004    0.9357    1.3868 C   0  0  0  0  0  0  0  0  0  0  0  0
    3.0064    1.8293    1.1165 N   0  0  0  0  0  0  0  0  0  0  0  0
    1.6400    0.9800    2.7130 C   0  0  0  0  0  0  0  0  0  0  0  0
    3.2550    2.4120    2.2682 C   0  0  0  0  0  0  0  0  0  0  0  0
    2.4527    1.9299    3.2648 N   0  0  0  0  0  0  0  0  0  0  0  0
   -1.4467    1.6280   -0.5753 H   0  0  0  0  0  0  0  0  0  0  0  0
    1.0237    1.7004   -1.0919 H   0  0  0  0  0  0  0  0  0  0  0  0
    2.2548   -0.4083   -0.2649 H   0  0  0  0  0  0  0  0  0  0  0  0
    0.8921   -0.7686    0.7637 H   0  0  0  0  0  0  0  0  0  0  0  0
    0.9067    0.4428    3.2970 H   0  0  0  0  0  0  0  0  0  0  0  0
    3.9935    3.1809    2.4466 H   0  0  0  0  0  0  0  0  0  0  0  0
    2.4590    2.2233    4.2325 H   0  0  0  0  0  0  0  0  0  0  0  0
   -0.9664   -0.9393   -1.3772 N   0  0  0  0  0  0  0  0  0  0  0  0
   -1.5760   -1.9219   -2.2441 C   0  0  2  0  0  0  0  0  0  0  0  0
   -1.9850   -1.2222   -3.5336 C   0  0  0  0  0  0  0  0  0  0  0  0
   -2.1780   -0.0104   -3.6071 O   0  0  0  0  0  0  0  0  0  0  0  0
   -2.7750   -2.5792   -1.5785 C   0  0  0  0  0  0  0  0  0  0  0  0
   -1.2927   -0.8742   -0.4175 H   0  0  0  0  0  0  0  0  0  0  0  0
   -0.8074   -2.6713   -2.4625 H   0  0  0  0  0  0  0  0  0  0  0  0
   -3.5558   -1.8439   -1.3521 H   0  0  0  0  0  0  0  0  0  0  0  0
   -3.2184   -3.3434   -2.2253 H   0  0  0  0  0  0  0  0  0  0  0  0
   -2.4847   -3.0564   -0.6363 H   0  0  0  0  0  0  0  0  0  0  0  0
   -2.1511   -2.1159   -4.5823 N   0  0  0  0  0  0  0  0  0  0  0  0
   -2.5493   -1.6988   -5.9064 C   0  0  0  0  0  0  0  0  0  0  0  0
   -1.9509   -3.1009   -4.4358 H   0  0  0  0  0  0  0  0  0  0  0  0
   -3.6441   -1.7580   -5.9963 H   0  0  0  0  0  0  0  0  0  0  0  0
   -2.2230   -0.6624   -6.0780 H   0  0  0  0  0  0  0  0  0  0  0  0
   -2.0841   -2.3582   -6.6539 H   0  0  0  0  0  0  0  0  0  0  0  0
 22 24  2  0  0  0  0
 24 26  1  0  0  0  0
 23 25  2  0  0  0  0
 25 26  1  0  0  0  0
 21 22  1  0  0  0  0
 22 23  1  0  0  0  0
  1  3  1  0  0  0  0
  1  7  1  0  0  0  0
  1  2  2  0  0  0  0
 35 36  1  0  0  0  0
 36 44  1  0  0  0  0
 36 37  2  0  0  0  0
  8  9  1  0  0  0  0
  9 17  1  0  0  0  0
  9 10  2  0  0  0  0
 18 19  1  0  0  0  0
 19 34  1  0  0  0  0
 19 20  2  0  0  0  0
 35 38  1  0  0  0  0
  8 11  1  0  0  0  0
 44 45  1  0  0  0  0
 18 21  1  0  0  0  0
 34 35  1  0  0  0  0
  7  8  1  0  0  0  0
 17 18  1  0  0  0  0
 24 31  1  0  0  0  0
 25 32  1  0  0  0  0
  3  4  1  0  0  0  0
  3  5  1  0  0  0  0
  3  6  1  0  0  0  0
 38 41  1  0  0  0  0
 38 42  1  0  0  0  0
 38 43  1  0  0  0  0
 11 14  1  0  0  0  0
 11 15  1  0  0  0  0
 11 16  1  0  0  0  0
 45 47  1  0  0  0  0
 45 48  1  0  0  0  0
 45 49  1  0  0  0  0
 21 29  1  0  0  0  0
 21 30  1  0  0  0  0
 35 40  1  0  0  0  0
  8 13  1  0  0  0  0
 18 28  1  0  0  0  0
 26 33  1  0  0  0  0
 44 46  1  0  0  0  0
  7 12  1  0  0  0  0
 34 39  1  0  0  0  0
 17 27  1  0  0  0  0
M  END
$$$$

  -OEChem-05262214473D

 49 49  0     1  0  0  0  0  0999 V2000
   -1.6183    0.5613    3.8201 C   0  0  0  0  0  0  0  0  0  0  0  0
   -0.6710   -0.0534    3.3444 O   0  0  0  0  0  0  0  0  0  0  0  0
   -2.0502    0.2789    5.2208 C   0  0  0  0  0  0  0  0  0  0  0  0
   -2.8099   -0.5175    5.2742 H   0  0  0  0  0  0  0  0  0  0  0  0
   -1.2190   -0.0687    5.8551 H   0  0  0  0  0  0  0  0  0  0  0  0
   -2.4882    1.1338    5.7604 H   0  0  0  0  0  0  0  0  0  0  0  0
   -2.3680    1.5337    3.1790 N   0  0  0  0  0  0  0  0  0  0  0  0
   -2.1212    1.9597    1.8266 C   0  0  2  0  0  0  0  0  0  0  0  0
   -0.7862    1.3744    1.3854 C   0  0  0  0  0  0  0  0  0  0  0  0
    0.0859    1.0216    2.1767 O   0  0  0  0  0  0  0  0  0  0  0  0
   -2.1124    3.4765    1.7171 C   0  0  0  0  0  0  0  0  0  0  0  0
   -3.1331    1.9695    3.6908 H   0  0  0  0  0  0  0  0  0  0  0  0
   -2.9253    1.5413    1.2115 H   0  0  0  0  0  0  0  0  0  0  0  0
   -1.3133    3.9138    2.3268 H   0  0  0  0  0  0  0  0  0  0  0  0
   -1.9529    3.7988    0.6829 H   0  0  0  0  0  0  0  0  0  0  0  0
   -3.0626    3.8977    2.0629 H   0  0  0  0  0  0  0  0  0  0  0  0
   -0.6635    1.3313    0.0020 N   0  0  0  0  0  0  0  0  0  0  0  0
    0.5138    0.8305   -0.6617 C   0  0  2  0  0  0  0  0  0  0  0  0
    0.0425   -0.0801   -1.7899 C   0  0  0  0  0  0  0  0  0  0  0  0
    0.6943   -0.2675   -2.8151 O   0  0  0  0  0  0  0  0  0  0  0  0
    1.4344    0.0625    0.2937 C   0  0  0  0  0  0  0  0  0  0  0  0
    2.0004    0.9357    1.3868 C   0  0  0  0  0  0  0  0  0  0  0  0
    3.0064    1.8293    1.1165 N   0  0  0  0  0  0  0  0  0  0  0  0
    1.6400    0.9800    2.7130 C   0  0  0  0  0  0  0  0  0  0  0  0
    3.2550    2.4120    2.2682 C   0  0  0  0  0  0  0  0  0  0  0  0
    2.4527    1.9299    3.2648 N   0  0  0  0  0  0  0  0  0  0  0  0
   -1.4467    1.6280   -0.5753 H   0  0  0  0  0  0  0  0  0  0  0  0
    1.0237    1.7004   -1.0919 H   0  0  0  0  0  0  0  0  0  0  0  0
    2.2548   -0.4083   -0.2649 H   0  0  0  0  0  0  0  0  0  0  0  0
    0.8921   -0.7686    0.7637 H   0  0  0  0  0  0  0  0  0  0  0  0
    0.9067    0.4428    3.2970 H   0  0  0  0  0  0  0  0  0  0  0  0
    3.9935    3.1809    2.4466 H   0  0  0  0  0  0  0  0  0  0  0  0
    2.4590    2.2233    4.2325 H   0  0  0  0  0  0  0  0  0  0  0  0
   -1.1659   -0.6943   -1.4916 N   0  0  0  0  0  0  0  0  0  0  0  0
   -1.8238   -1.6249   -2.3804 C   0  0  2  0  0  0  0  0  0  0  0  0
   -1.8925   -0.9873   -3.7618 C   0  0  0  0  0  0  0  0  0  0  0  0
   -1.8290    0.2267   -3.9442 O   0  0  0  0  0  0  0  0  0  0  0  0
   -3.2136   -1.9823   -1.8770 C   0  0  0  0  0  0  0  0  0  0  0  0
   -1.6101   -0.4790   -0.6039 H   0  0  0  0  0  0  0  0  0  0  0  0
   -1.1951   -2.5210   -2.4219 H   0  0  0  0  0  0  0  0  0  0  0  0
   -3.8581   -1.0970   -1.8286 H   0  0  0  0  0  0  0  0  0  0  0  0
   -3.6996   -2.7092   -2.5362 H   0  0  0  0  0  0  0  0  0  0  0  0
   -3.1650   -2.4133   -0.8712 H   0  0  0  0  0  0  0  0  0  0  0  0
   -2.0763   -1.9304   -4.7633 N   0  0  0  0  0  0  0  0  0  0  0  0
   -2.1854   -1.5745   -6.1588 C   0  0  0  0  0  0  0  0  0  0  0  0
   -2.0987   -2.9170   -4.5226 H   0  0  0  0  0  0  0  0  0  0  0  0
   -3.2449   -1.4381   -6.4212 H   0  0  0  0  0  0  0  0  0  0  0  0
   -1.6389   -0.6376   -6.3419 H   0  0  0  0  0  0  0  0  0  0  0  0
   -1.7552   -2.3767   -6.7763 H   0  0  0  0  0  0  0  0  0  0  0  0
 22 24  2  0  0  0  0
 24 26  1  0  0  0  0
 23 25  2  0  0  0  0
 25 26  1  0  0  0  0
 21 22  1  0  0  0  0
 22 23  1  0  0  0  0
  1  3  1  0  0  0  0
  1  7  1  0  0  0  0
  1  2  2  0  0  0  0
 35 36  1  0  0  0  0
 36 44  1  0  0  0  0
 36 37  2  0  0  0  0
  8  9  1  0  0  0  0
  9 17  1  0  0  0  0
  9 10  2  0  0  0  0
 18 19  1  0  0  0  0
 19 34  1  0  0  0  0
 19 20  2  0  0  0  0
 35 38  1  0  0  0  0
  8 11  1  0  0  0  0
 44 45  1  0  0  0  0
 18 21  1  0  0  0  0
 34 35  1  0  0  0  0
  7  8  1  0  0  0  0
 17 18  1  0  0  0  0
 24 31  1  0  0  0  0
 25 32  1  0  0  0  0
  3  4  1  0  0  0  0
  3  5  1  0  0  0  0
  3  6  1  0  0  0  0
 38 41  1  0  0  0  0
 38 42  1  0  0  0  0
 38 43  1  0  0  0  0
 11 14  1  0  0  0  0
 11 15  1  0  0  0  0
 11 16  1  0  0  0  0
 45 47  1  0  0  0  0
 45 48  1  0  0  0  0
 45 49  1  0  0  0  0
 21 29  1  0  0  0  0
 21 30  1  0  0  0  0
 35 40  1  0  0  0  0
  8 13  1  0  0  0  0
 18 28  1  0  0  0  0
 26 33  1  0  0  0  0
 44 46  1  0  0  0  0
  7 12  1  0  0  0  0
 34 39  1  0  0  0  0
 17 27  1  0  0  0  0
M  END
$$$$

  -OEChem-05262214473D

 49 49  0     1  0  0  0  0  0999 V2000
   -1.6183    0.5613    3.8201 C   0  0  0  0  0  0  0  0  0  0  0  0
   -0.6710   -0.0534    3.3444 O   0  0  0  0  0  0  0  0  0  0  0  0
   -2.0502    0.2789    5.2208 C   0  0  0  0  0  0  0  0  0  0  0  0
   -2.8099   -0.5175    5.2742 H   0  0  0  0  0  0  0  0  0  0  0  0
   -1.2190   -0.0687    5.8551 H   0  0  0  0  0  0  0  0  0  0  0  0
   -2.4882    1.1338    5.7604 H   0  0  0  0  0  0  0  0  0  0  0  0
   -2.3680    1.5337    3.1790 N   0  0  0  0  0  0  0  0  0  0  0  0
   -2.1212    1.9597    1.8266 C   0  0  2  0  0  0  0  0  0  0  0  0
   -0.7862    1.3744    1.3854 C   0  0  0  0  0  0  0  0  0  0  0  0
    0.0859    1.0216    2.1767 O   0  0  0  0  0  0  0  0  0  0  0  0
   -2.1124    3.4765    1.7171 C   0  0  0  0  0  0  0  0  0  0  0  0
   -3.1331    1.9695    3.6908 H   0  0  0  0  0  0  0  0  0  0  0  0
   -2.9253    1.5413    1.2115 H   0  0  0  0  0  0  0  0  0  0  0  0
   -1.3133    3.9138    2.3268 H   0  0  0  0  0  0  0  0  0  0  0  0
   -1.9529    3.7988    0.6829 H   0  0  0  0  0  0  0  0  0  0  0  0
   -3.0626    3.8977    2.0629 H   0  0  0  0  0  0  0  0  0  0  0  0
   -0.6635    1.3313    0.0020 N   0  0  0  0  0  0  0  0  0  0  0  0
    0.5138    0.8305   -0.6617 C   0  0  2  0  0  0  0  0  0  0  0  0
    0.0425   -0.0801   -1.7899 C   0  0  0  0  0  0  0  0  0  0  0  0
    0.7876   -0.4816   -2.6813 O   0  0  0  0  0  0  0  0  0  0  0  0
    1.4344    0.0625    0.2937 C   0  0  0  0  0  0  0  0  0  0  0  0
    2.0004    0.9357    1.3868 C   0  0  0  0  0  0  0  0  0  0  0  0
    3.0064    1.8293    1.1165 N   0  0  0  0  0  0  0  0  0  0  0  0
    1.6400    0.9800    2.7130 C   0  0  0  0  0  0  0  0  0  0  0  0
    3.2550    2.4120    2.2682 C   0  0  0  0  0  0  0  0  0  0  0  0
    2.4527    1.9299    3.2648 N   0  0  0  0  0  0  0  0  0  0  0  0
   -1.4467    1.6280   -0.5753 H   0  0  0  0  0  0  0  0  0  0  0  0
    1.0237    1.7004   -1.0919 H   0  0  0  0  0  0  0  0  0  0  0  0
    2.2548   -0.4083   -0.2649 H   0  0  0  0  0  0  0  0  0  0  0  0
    0.8921   -0.7686    0.7637 H   0  0  0  0  0  0  0  0  0  0  0  0
    0.9067    0.4428    3.2970 H   0  0  0  0  0  0  0  0  0  0  0  0
    3.9935    3.1809    2.4466 H   0  0  0  0  0  0  0  0  0  0  0  0
    2.4590    2.2233    4.2325 H   0  0  0  0  0  0  0  0  0  0  0  0
   -1.2939   -0.4286   -1.6525 N   0  0  0  0  0  0  0  0  0  0  0  0
   -1.9852   -1.3014   -2.5740 C   0  0  2  0  0  0  0  0  0  0  0  0
   -1.7229   -0.7964   -3.9867 C   0  0  0  0  0  0  0  0  0  0  0  0
   -1.3944    0.3619   -4.2348 O   0  0  0  0  0  0  0  0  0  0  0  0
   -3.4768   -1.3457   -2.2809 C   0  0  0  0  0  0  0  0  0  0  0  0
   -1.8122   -0.0513   -0.8646 H   0  0  0  0  0  0  0  0  0  0  0  0
   -1.5471   -2.2983   -2.4546 H   0  0  0  0  0  0  0  0  0  0  0  0
   -3.9334   -0.3558   -2.3954 H   0  0  0  0  0  0  0  0  0  0  0  0
   -3.9948   -2.0293   -2.9616 H   0  0  0  0  0  0  0  0  0  0  0  0
   -3.6626   -1.6807   -1.2547 H   0  0  0  0  0  0  0  0  0  0  0  0
   -1.9406   -1.7800   -4.9413 N   0  0  0  0  0  0  0  0  0  0  0  0
   -1.7711   -1.5444   -6.3562 C   0  0  0  0  0  0  0  0  0  0  0  0
   -2.1928   -2.7179   -4.6439 H   0  0  0  0  0  0  0  0  0  0  0  0
   -2.7324   -1.2396   -6.7954 H   0  0  0  0  0  0  0  0  0  0  0  0
   -1.0292   -0.7467   -6.5086 H   0  0  0  0  0  0  0  0  0  0  0  0
   -1.4222   -2.4674   -6.8422 H   0  0  0  0  0  0  0  0  0  0  0  0
 22 24  2  0  0  0  0
 24 26  1  0  0  0  0
 23 25  2  0  0  0  0
 25 26  1  0  0  0  0
 21 22  1  0  0  0  0
 22 23  1  0  0  0  0
  1  3  1  0  0  0  0
  1  7  1  0  0  0  0
  1  2  2  0  0  0  0
 35 36  1  0  0  0  0
 36 44  1  0  0  0  0
 36 37  2  0  0  0  0
  8  9  1  0  0  0  0
  9 17  1  0  0  0  0
  9 10  2  0  0  0  0
 18 19  1  0  0  0  0
 19 34  1  0  0  0  0
 19 20  2  0  0  0  0
 35 38  1  0  0  0  0
  8 11  1  0  0  0  0
 44 45  1  0  0  0  0
 18 21  1  0  0  0  0
 34 35  1  0  0  0  0
  7  8  1  0  0  0  0
 17 18  1  0  0  0  0
 24 31  1  0  0  0  0
 25 32  1  0  0  0  0
  3  4  1  0  0  0  0
  3  5  1  0  0  0  0
  3  6  1  0  0  0  0
 38 41  1  0  0  0  0
 38 42  1  0  0  0  0
 38 43  1  0  0  0  0
 11 14  1  0  0  0  0
 11 15  1  0  0  0  0
 11 16  1  0  0  0  0
 45 47  1  0  0  0  0
 45 48  1  0  0  0  0
 45 49  1  0  0  0  0
 21 29  1  0  0  0  0
 21 30  1  0  0  0  0
 35 40  1  0  0  0  0
  8 13  1  0  0  0  0
 18 28  1  0  0  0  0
 26 33  1  0  0  0  0
 44 46  1  0  0  0  0
  7 12  1  0  0  0  0
 34 39  1  0  0  0  0
 17 27  1  0  0  0  0
M  END
$$$$

  -OEChem-05262214473D

 49 49  0     1  0  0  0  0  0999 V2000
   -1.6183    0.5613    3.8201 C   0  0  0  0  0  0  0  0  0  0  0  0
   -0.6710   -0.0534    3.3444 O   0  0  0  0  0  0  0  0  0  0  0  0
   -2.0502    0.2789    5.2208 C   0  0  0  0  0  0  0  0  0  0  0  0
   -2.8099   -0.5175    5.2742 H   0  0  0  0  0  0  0  0  0  0  0  0
   -1.2190   -0.0687    5.8551 H   0  0  0  0  0  0  0  0  0  0  0  0
   -2.4882    1.1338    5.7604 H   0  0  0  0  0  0  0  0  0  0  0  0
   -2.3680    1.5337    3.1790 N   0  0  0  0  0  0  0  0  0  0  0  0
   -2.1212    1.9597    1.8266 C   0  0  2  0  0  0  0  0  0  0  0  0
   -0.7862    1.3744    1.3854 C   0  0  0  0  0  0  0  0  0  0  0  0
    0.0859    1.0216    2.1767 O   0  0  0  0  0  0  0  0  0  0  0  0
   -2.1124    3.4765    1.7171 C   0  0  0  0  0  0  0  0  0  0  0  0
   -3.1331    1.9695    3.6908 H   0  0  0  0  0  0  0  0  0  0  0  0
   -2.9253    1.5413    1.2115 H   0  0  0  0  0  0  0  0  0  0  0  0
   -1.3133    3.9138    2.3268 H   0  0  0  0  0  0  0  0  0  0  0  0
   -1.9529    3.7988    0.6829 H   0  0  0  0  0  0  0  0  0  0  0  0
   -3.0626    3.8977    2.0629 H   0  0  0  0  0  0  0  0  0  0  0  0
   -0.6635    1.3313    0.0020 N   0  0  0  0  0  0  0  0  0  0  0  0
    0.5138    0.8305   -0.6617 C   0  0  2  0  0  0  0  0  0  0  0  0
    0.0425   -0.0801   -1.7899 C   0  0  0  0  0  0  0  0  0  0  0  0
    0.8161   -0.6956   -2.5204 O   0  0  0  0  0  0  0  0  0  0  0  0
    1.4344    0.0625    0.2937 C   0  0  0  0  0  0  0  0  0  0  0  0
    2.0004    0.9357    1.3868 C   0  0  0  0  0  0  0  0  0  0  0  0
    3.0064    1.8293    1.1165 N   0  0  0  0  0  0  0  0  0  0  0  0
    1.6400    0.9800    2.7130 C   0  0  0  0  0  0  0  0  0  0  0  0
    3.2550    2.4120    2.2682 C   0  0  0  0  0  0  0  0  0  0  0  0
    2.4527    1.9299    3.2648 N   0  0  0  0  0  0  0  0  0  0  0  0
   -1.4467    1.6280   -0.5753 H   0  0  0  0  0  0  0  0  0  0  0  0
    1.0237    1.7004   -1.0919 H   0  0  0  0  0  0  0  0  0  0  0  0
    2.2548   -0.4083   -0.2649 H   0  0  0  0  0  0  0  0  0  0  0  0
    0.8921   -0.7686    0.7637 H   0  0  0  0  0  0  0  0  0  0  0  0
    0.9067    0.4428    3.2970 H   0  0  0  0  0  0  0  0  0  0  0  0
    3.9935    3.1809    2.4466 H   0  0  0  0  0  0  0  0  0  0  0  0
    2.4590    2.2233    4.2325 H   0  0  0  0  0  0  0  0  0  0  0  0
   -1.3419   -0.1604   -1.8490 N   0  0  0  0  0  0  0  0  0  0  0  0
   -2.0493   -0.9735   -2.8119 C   0  0  2  0  0  0  0  0  0  0  0  0
   -1.4877   -0.6625   -4.1930 C   0  0  0  0  0  0  0  0  0  0  0  0
   -0.9038    0.3859   -4.4592 O   0  0  0  0  0  0  0  0  0  0  0  0
   -3.5467   -0.7127   -2.7626 C   0  0  0  0  0  0  0  0  0  0  0  0
   -1.8852    0.3796   -1.1819 H   0  0  0  0  0  0  0  0  0  0  0  0
   -1.8393   -2.0184   -2.5584 H   0  0  0  0  0  0  0  0  0  0  0  0
   -3.7765    0.3292   -3.0137 H   0  0  0  0  0  0  0  0  0  0  0  0
   -4.0840   -1.3500   -3.4726 H   0  0  0  0  0  0  0  0  0  0  0  0
   -3.9436   -0.9083   -1.7606 H   0  0  0  0  0  0  0  0  0  0  0  0
   -1.7532   -1.6749   -5.1044 N   0  0  0  0  0  0  0  0  0  0  0  0
   -1.3346   -1.6104   -6.4852 C   0  0  0  0  0  0  0  0  0  0  0  0
   -2.2268   -2.5173   -4.7916 H   0  0  0  0  0  0  0  0  0  0  0  0
   -2.1415   -1.1760   -7.0936 H   0  0  0  0  0  0  0  0  0  0  0  0
   -0.4353   -0.9821   -6.5666 H   0  0  0  0  0  0  0  0  0  0  0  0
   -1.1077   -2.6240   -6.8472 H   0  0  0  0  0  0  0  0  0  0  0  0
 22 24  2  0  0  0  0
 24 26  1  0  0  0  0
 23 25  2  0  0  0  0
 25 26  1  0  0  0  0
 21 22  1  0  0  0  0
 22 23  1  0  0  0  0
  1  3  1  0  0  0  0
  1  7  1  0  0  0  0
  1  2  2  0  0  0  0
 35 36  1  0  0  0  0
 36 44  1  0  0  0  0
 36 37  2  0  0  0  0
  8  9  1  0  0  0  0
  9 17  1  0  0  0  0
  9 10  2  0  0  0  0
 18 19  1  0  0  0  0
 19 34  1  0  0  0  0
 19 20  2  0  0  0  0
 35 38  1  0  0  0  0
  8 11  1  0  0  0  0
 44 45  1  0  0  0  0
 18 21  1  0  0  0  0
 34 35  1  0  0  0  0
  7  8  1  0  0  0  0
 17 18  1  0  0  0  0
 24 31  1  0  0  0  0
 25 32  1  0  0  0  0
  3  4  1  0  0  0  0
  3  5  1  0  0  0  0
  3  6  1  0  0  0  0
 38 41  1  0  0  0  0
 38 42  1  0  0  0  0
 38 43  1  0  0  0  0
 11 14  1  0  0  0  0
 11 15  1  0  0  0  0
 11 16  1  0  0  0  0
 45 47  1  0  0  0  0
 45 48  1  0  0  0  0
 45 49  1  0  0  0  0
 21 29  1  0  0  0  0
 21 30  1  0  0  0  0
 35 40  1  0  0  0  0
  8 13  1  0  0  0  0
 18 28  1  0  0  0  0
 26 33  1  0  0  0  0
 44 46  1  0  0  0  0
  7 12  1  0  0  0  0
 34 39  1  0  0  0  0
 17 27  1  0  0  0  0
M  END
$$$$

  -OEChem-05262214473D

 49 49  0     1  0  0  0  0  0999 V2000
   -1.6183    0.5613    3.8201 C   0  0  0  0  0  0  0  0  0  0  0  0
   -0.6710   -0.0534    3.3444 O   0  0  0  0  0  0  0  0  0  0  0  0
   -2.0502    0.2789    5.2208 C   0  0  0  0  0  0  0  0  0  0  0  0
   -2.8099   -0.5175    5.2742 H   0  0  0  0  0  0  0  0  0  0  0  0
   -1.2190   -0.0687    5.8551 H   0  0  0  0  0  0  0  0  0  0  0  0
   -2.4882    1.1338    5.7604 H   0  0  0  0  0  0  0  0  0  0  0  0
   -2.3680    1.5337    3.1790 N   0  0  0  0  0  0  0  0  0  0  0  0
   -2.1212    1.9597    1.8266 C   0  0  2  0  0  0  0  0  0  0  0  0
   -0.7862    1.3744    1.3854 C   0  0  0  0  0  0  0  0  0  0  0  0
    0.0859    1.0216    2.1767 O   0  0  0  0  0  0  0  0  0  0  0  0
   -2.1124    3.4765    1.7171 C   0  0  0  0  0  0  0  0  0  0  0  0
   -3.1331    1.9695    3.6908 H   0  0  0  0  0  0  0  0  0  0  0  0
   -2.9253    1.5413    1.2115 H   0  0  0  0  0  0  0  0  0  0  0  0
   -1.3133    3.9138    2.3268 H   0  0  0  0  0  0  0  0  0  0  0  0
   -1.9529    3.7988    0.6829 H   0  0  0  0  0  0  0  0  0  0  0  0
   -3.0626    3.8977    2.0629 H   0  0  0  0  0  0  0  0  0  0  0  0
   -0.6635    1.3313    0.0020 N   0  0  0  0  0  0  0  0  0  0  0  0
    0.5138    0.8305   -0.6617 C   0  0  2  0  0  0  0  0  0  0  0  0
    0.0425   -0.0801   -1.7899 C   0  0  0  0  0  0  0  0  0  0  0  0
    0.7777   -0.8948   -2.3436 O   0  0  0  0  0  0  0  0  0  0  0  0
    1.4344    0.0625    0.2937 C   0  0  0  0  0  0  0  0  0  0  0  0
    2.0004    0.9357    1.3868 C   0  0  0  0  0  0  0  0  0  0  0  0
    3.0064    1.8293    1.1165 N   0  0  0  0  0  0  0  0  0  0  0  0
    1.6400    0.9800    2.7130 C   0  0  0  0  0  0  0  0  0  0  0  0
    3.2550    2.4120    2.2682 C   0  0  0  0  0  0  0  0  0  0  0  0
    2.4527    1.9299    3.2648 N   0  0  0  0  0  0  0  0  0  0  0  0
   -1.4467    1.6280   -0.5753 H   0  0  0  0  0  0  0  0  0  0  0  0
    1.0237    1.7004   -1.0919 H   0  0  0  0  0  0  0  0  0  0  0  0
    2.2548   -0.4083   -0.2649 H   0  0  0  0  0  0  0  0  0  0  0  0
    0.8921   -0.7686    0.7637 H   0  0  0  0  0  0  0  0  0  0  0  0
    0.9067    0.4428    3.2970 H   0  0  0  0  0  0  0  0  0  0  0  0
    3.9935    3.1809    2.4466 H   0  0  0  0  0  0  0  0  0  0  0  0
    2.4590    2.2233    4.2325 H   0  0  0  0  0  0  0  0  0  0  0  0
   -1.3064    0.0923   -2.0677 N   0  0  0  0  0  0  0  0  0  0  0  0
   -2.0115   -0.6636   -3.0778 C   0  0  2  0  0  0  0  0  0  0  0  0
   -1.2030   -0.5947   -4.3666 C   0  0  0  0  0  0  0  0  0  0  0  0
   -0.3906    0.2973   -4.6019 O   0  0  0  0  0  0  0  0  0  0  0  0
   -3.4184   -0.1264   -3.2894 C   0  0  0  0  0  0  0  0  0  0  0  0
   -1.8241    0.7845   -1.5342 H   0  0  0  0  0  0  0  0  0  0  0  0
   -2.0520   -1.7003   -2.7263 H   0  0  0  0  0  0  0  0  0  0  0  0
   -3.3982    0.9114   -3.6416 H   0  0  0  0  0  0  0  0  0  0  0  0
   -3.9611   -0.7177   -4.0343 H   0  0  0  0  0  0  0  0  0  0  0  0
   -3.9889   -0.1490   -2.3546 H   0  0  0  0  0  0  0  0  0  0  0  0
   -1.5268   -1.6224   -5.2413 N   0  0  0  0  0  0  0  0  0  0  0  0
   -0.9057   -1.7681   -6.5371 C   0  0  0  0  0  0  0  0  0  0  0  0
   -2.1984   -2.3288   -4.9556 H   0  0  0  0  0  0  0  0  0  0  0  0
   -1.5125   -1.2516   -7.2953 H   0  0  0  0  0  0  0  0  0  0  0  0
    0.1021   -1.3279   -6.5120 H   0  0  0  0  0  0  0  0  0  0  0  0
   -0.8331   -2.8360   -6.7908 H   0  0  0  0  0  0  0  0  0  0  0  0
 22 24  2  0  0  0  0
 24 26  1  0  0  0  0
 23 25  2  0  0  0  0
 25 26  1  0  0  0  0
 21 22  1  0  0  0  0
 22 23  1  0  0  0  0
  1  3  1  0  0  0  0
  1  7  1  0  0  0  0
  1  2  2  0  0  0  0
 35 36  1  0  0  0  0
 36 44  1  0  0  0  0
 36 37  2  0  0  0  0
  8  9  1  0  0  0  0
  9 17  1  0  0  0  0
  9 10  2  0  0  0  0
 18 19  1  0  0  0  0
 19 34  1  0  0  0  0
 19 20  2  0  0  0  0
 35 38  1  0  0  0  0
  8 11  1  0  0  0  0
 44 45  1  0  0  0  0
 18 21  1  0  0  0  0
 34 35  1  0  0  0  0
  7  8  1  0  0  0  0
 17 18  1  0  0  0  0
 24 31  1  0  0  0  0
 25 32  1  0  0  0  0
  3  4  1  0  0  0  0
  3  5  1  0  0  0  0
  3  6  1  0  0  0  0
 38 41  1  0  0  0  0
 38 42  1  0  0  0  0
 38 43  1  0  0  0  0
 11 14  1  0  0  0  0
 11 15  1  0  0  0  0
 11 16  1  0  0  0  0
 45 47  1  0  0  0  0
 45 48  1  0  0  0  0
 45 49  1  0  0  0  0
 21 29  1  0  0  0  0
 21 30  1  0  0  0  0
 35 40  1  0  0  0  0
  8 13  1  0  0  0  0
 18 28  1  0  0  0  0
 26 33  1  0  0  0  0
 44 46  1  0  0  0  0
  7 12  1  0  0  0  0
 34 39  1  0  0  0  0
 17 27  1  0  0  0  0
M  END
$$$$

  -OEChem-05262214473D

 49 49  0     1  0  0  0  0  0999 V2000
   -1.6183    0.5613    3.8201 C   0  0  0  0  0  0  0  0  0  0  0  0
   -0.6710   -0.0534    3.3444 O   0  0  0  0  0  0  0  0  0  0  0  0
   -2.0502    0.2789    5.2208 C   0  0  0  0  0  0  0  0  0  0  0  0
   -2.8099   -0.5175    5.2742 H   0  0  0  0  0  0  0  0  0  0  0  0
   -1.2190   -0.0687    5.8551 H   0  0  0  0  0  0  0  0  0  0  0  0
   -2.4882    1.1338    5.7604 H   0  0  0  0  0  0  0  0  0  0  0  0
   -2.3680    1.5337    3.1790 N   0  0  0  0  0  0  0  0  0  0  0  0
   -2.1212    1.9597    1.8266 C   0  0  2  0  0  0  0  0  0  0  0  0
   -0.7862    1.3744    1.3854 C   0  0  0  0  0  0  0  0  0  0  0  0
    0.0859    1.0216    2.1767 O   0  0  0  0  0  0  0  0  0  0  0  0
   -2.1124    3.4765    1.7171 C   0  0  0  0  0  0  0  0  0  0  0  0
   -3.1331    1.9695    3.6908 H   0  0  0  0  0  0  0  0  0  0  0  0
   -2.9253    1.5413    1.2115 H   0  0  0  0  0  0  0  0  0  0  0  0
   -1.3133    3.9138    2.3268 H   0  0  0  0  0  0  0  0  0  0  0  0
   -1.9529    3.7988    0.6829 H   0  0  0  0  0  0  0  0  0  0  0  0
   -3.0626    3.8977    2.0629 H   0  0  0  0  0  0  0  0  0  0  0  0
   -0.6635    1.3313    0.0020 N   0  0  0  0  0  0  0  0  0  0  0  0
    0.5138    0.8305   -0.6617 C   0  0  2  0  0  0  0  0  0  0  0  0
    0.0425   -0.0801   -1.7899 C   0  0  0  0  0  0  0  0  0  0  0  0
    0.6752   -1.0658   -2.1628 O   0  0  0  0  0  0  0  0  0  0  0  0
    1.4344    0.0625    0.2937 C   0  0  0  0  0  0  0  0  0  0  0  0
    2.0004    0.9357    1.3868 C   0  0  0  0  0  0  0  0  0  0  0  0
    3.0064    1.8293    1.1165 N   0  0  0  0  0  0  0  0  0  0  0  0
    1.6400    0.9800    2.7130 C   0  0  0  0  0  0  0  0  0  0  0  0
    3.2550    2.4120    2.2682 C   0  0  0  0  0  0  0  0  0  0  0  0
    2.4527    1.9299    3.2648 N   0  0  0  0  0  0  0  0  0  0  0  0
   -1.4467    1.6280   -0.5753 H   0  0  0  0  0  0  0  0  0  0  0  0
    1.0237    1.7004   -1.0919 H   0  0  0  0  0  0  0  0  0  0  0  0
    2.2548   -0.4083   -0.2649 H   0  0  0  0  0  0  0  0  0  0  0  0
    0.8921   -0.7686    0.7637 H   0  0  0  0  0  0  0  0  0  0  0  0
    0.9067    0.4428    3.2970 H   0  0  0  0  0  0  0  0  0  0  0  0
    3.9935    3.1809    2.4466 H   0  0  0  0  0  0  0  0  0  0  0  0
    2.4590    2.2233    4.2325 H   0  0  0  0  0  0  0  0  0  0  0  0
   -1.1900    0.3120   -2.2936 N   0  0  0  0  0  0  0  0  0  0  0  0
   -1.8746   -0.3927   -3.3536 C   0  0  2  0  0  0  0  0  0  0  0  0
   -0.8882   -0.5977   -4.4957 C   0  0  0  0  0  0  0  0  0  0  0  0
    0.1102    0.1019   -4.6534 O   0  0  0  0  0  0  0  0  0  0  0  0
   -3.1008    0.3732   -3.8252 C   0  0  0  0  0  0  0  0  0  0  0  0
   -1.6331    1.1356   -1.8974 H   0  0  0  0  0  0  0  0  0  0  0  0
   -2.1705   -1.3658   -2.9468 H   0  0  0  0  0  0  0  0  0  0  0  0
   -2.8242    1.3510   -4.2362 H   0  0  0  0  0  0  0  0  0  0  0  0
   -3.6344   -0.1754   -4.6084 H   0  0  0  0  0  0  0  0  0  0  0  0
   -3.7954    0.5457   -2.9960 H   0  0  0  0  0  0  0  0  0  0  0  0
   -1.2769   -1.6260   -5.3428 N   0  0  0  0  0  0  0  0  0  0  0  0
   -0.5135   -2.0067   -6.5083 C   0  0  0  0  0  0  0  0  0  0  0  0
   -2.1095   -2.1654   -5.1246 H   0  0  0  0  0  0  0  0  0  0  0  0
   -0.8881   -1.4612   -7.3869 H   0  0  0  0  0  0  0  0  0  0  0  0
    0.5466   -1.7605   -6.3485 H   0  0  0  0  0  0  0  0  0  0  0  0
   -0.6173   -3.0888   -6.6770 H   0  0  0  0  0  0  0  0  0  0  0  0
 22 24  2  0  0  0  0
 24 26  1  0  0  0  0
 23 25  2  0  0  0  0
 25 26  1  0  0  0  0
 21 22  1  0  0  0  0
 22 23  1  0  0  0  0
  1  3  1  0  0  0  0
  1  7  1  0  0  0  0
  1  2  2  0  0  0  0
 35 36  1  0  0  0  0
 36 44  1  0  0  0  0
 36 37  2  0  0  0  0
  8  9  1  0  0  0  0
  9 17  1  0  0  0  0
  9 10  2  0  0  0  0
 18 19  1  0  0  0  0
 19 34  1  0  0  0  0
 19 20  2  0  0  0  0
 35 38  1  0  0  0  0
  8 11  1  0  0  0  0
 44 45  1  0  0  0  0
 18 21  1  0  0  0  0
 34 35  1  0  0  0  0
  7  8  1  0  0  0  0
 17 18  1  0  0  0  0
 24 31  1  0  0  0  0
 25 32  1  0  0  0  0
  3  4  1  0  0  0  0
  3  5  1  0  0  0  0
  3  6  1  0  0  0  0
 38 41  1  0  0  0  0
 38 42  1  0  0  0  0
 38 43  1  0  0  0  0
 11 14  1  0  0  0  0
 11 15  1  0  0  0  0
 11 16  1  0  0  0  0
 45 47  1  0  0  0  0
 45 48  1  0  0  0  0
 45 49  1  0  0  0  0
 21 29  1  0  0  0  0
 21 30  1  0  0  0  0
 35 40  1  0  0  0  0
  8 13  1  0  0  0  0
 18 28  1  0  0  0  0
 26 33  1  0  0  0  0
 44 46  1  0  0  0  0
  7 12  1  0  0  0  0
 34 39  1  0  0  0  0
 17 27  1  0  0  0  0
M  END
$$$$

  -OEChem-05262214473D

 49 49  0     1  0  0  0  0  0999 V2000
   -1.6183    0.5613    3.8201 C   0  0  0  0  0  0  0  0  0  0  0  0
   -0.6710   -0.0534    3.3444 O   0  0  0  0  0  0  0  0  0  0  0  0
   -2.0502    0.2789    5.2208 C   0  0  0  0  0  0  0  0  0  0  0  0
   -2.8099   -0.5175    5.2742 H   0  0  0  0  0  0  0  0  0  0  0  0
   -1.2190   -0.0687    5.8551 H   0  0  0  0  0  0  0  0  0  0  0  0
   -2.4882    1.1338    5.7604 H   0  0  0  0  0  0  0  0  0  0  0  0
   -2.3680    1.5337    3.1790 N   0  0  0  0  0  0  0  0  0  0  0  0
   -2.1212    1.9597    1.8266 C   0  0  2  0  0  0  0  0  0  0  0  0
   -0.7862    1.3744    1.3854 C   0  0  0  0  0  0  0  0  0  0  0  0
    0.0859    1.0216    2.1767 O   0  0  0  0  0  0  0  0  0  0  0  0
   -2.1124    3.4765    1.7171 C   0  0  0  0  0  0  0  0  0  0  0  0
   -3.1331    1.9695    3.6908 H   0  0  0  0  0  0  0  0  0  0  0  0
   -2.9253    1.5413    1.2115 H   0  0  0  0  0  0  0  0  0  0  0  0
   -1.3133    3.9138    2.3268 H   0  0  0  0  0  0  0  0  0  0  0  0
   -1.9529    3.7988    0.6829 H   0  0  0  0  0  0  0  0  0  0  0  0
   -3.0626    3.8977    2.0629 H   0  0  0  0  0  0  0  0  0  0  0  0
   -0.6635    1.3313    0.0020 N   0  0  0  0  0  0  0  0  0  0  0  0
    0.5138    0.8305   -0.6617 C   0  0  2  0  0  0  0  0  0  0  0  0
    0.0425   -0.0801   -1.7899 C   0  0  0  0  0  0  0  0  0  0  0  0
    0.5154   -1.1969   -1.9903 O   0  0  0  0  0  0  0  0  0  0  0  0
    1.4344    0.0625    0.2937 C   0  0  0  0  0  0  0  0  0  0  0  0
    2.0004    0.9357    1.3868 C   0  0  0  0  0  0  0  0  0  0  0  0
    3.0064    1.8293    1.1165 N   0  0  0  0  0  0  0  0  0  0  0  0
    1.6400    0.9800    2.7130 C   0  0  0  0  0  0  0  0  0  0  0  0
    3.2550    2.4120    2.2682 C   0  0  0  0  0  0  0  0  0  0  0  0
    2.4527    1.9299    3.2648 N   0  0  0  0  0  0  0  0  0  0  0  0
   -1.4467    1.6280   -0.5753 H   0  0  0  0  0  0  0  0  0  0  0  0
    1.0237    1.7004   -1.0919 H   0  0  0  0  0  0  0  0  0  0  0  0
    2.2548   -0.4083   -0.2649 H   0  0  0  0  0  0  0  0  0  0  0  0
    0.8921   -0.7686    0.7637 H   0  0  0  0  0  0  0  0  0  0  0  0
    0.9067    0.4428    3.2970 H   0  0  0  0  0  0  0  0  0  0  0  0
    3.9935    3.1809    2.4466 H   0  0  0  0  0  0  0  0  0  0  0  0
    2.4590    2.2233    4.2325 H   0  0  0  0  0  0  0  0  0  0  0  0
   -1.0005    0.4838   -2.5115 N   0  0  0  0  0  0  0  0  0  0  0  0
   -1.6478   -0.1793   -3.6205 C   0  0  2  0  0  0  0  0  0  0  0  0
   -0.5647   -0.6711   -4.5715 C   0  0  0  0  0  0  0  0  0  0  0  0
    0.5645   -0.1868   -4.6101 O   0  0  0  0  0  0  0  0  0  0  0  0
   -2.6155    0.7521   -4.3337 C   0  0  0  0  0  0  0  0  0  0  0  0
   -1.3251    1.4092   -2.2467 H   0  0  0  0  0  0  0  0  0  0  0  0
   -2.1868   -1.0377   -3.2048 H   0  0  0  0  0  0  0  0  0  0  0  0
   -2.0936    1.6182   -4.7569 H   0  0  0  0  0  0  0  0  0  0  0  0
   -3.1262    0.2399   -5.1558 H   0  0  0  0  0  0  0  0  0  0  0  0
   -3.3763    1.1283   -3.6413 H   0  0  0  0  0  0  0  0  0  0  0  0
   -1.0205   -1.6854   -5.4019 N   0  0  0  0  0  0  0  0  0  0  0  0
   -0.1849   -2.3101   -6.4007 C   0  0  0  0  0  0  0  0  0  0  0  0
   -1.9662   -2.0380   -5.2873 H   0  0  0  0  0  0  0  0  0  0  0  0
   -0.3111   -1.7906   -7.3621 H   0  0  0  0  0  0  0  0  0  0  0  0
    0.8678   -2.2505   -6.0873 H   0  0  0  0  0  0  0  0  0  0  0  0
   -0.4748   -3.3652   -6.5134 H   0  0  0  0  0  0  0  0  0  0  0  0
 22 24  2  0  0  0  0
 24 26  1  0  0  0  0
 23 25  2  0  0  0  0
 25 26  1  0  0  0  0
 21 22  1  0  0  0  0
 22 23  1  0  0  0  0
  1  3  1  0  0  0  0
  1  7  1  0  0  0  0
  1  2  2  0  0  0  0
 35 36  1  0  0  0  0
 36 44  1  0  0  0  0
 36 37  2  0  0  0  0
  8  9  1  0  0  0  0
  9 17  1  0  0  0  0
  9 10  2  0  0  0  0
 18 19  1  0  0  0  0
 19 34  1  0  0  0  0
 19 20  2  0  0  0  0
 35 38  1  0  0  0  0
  8 11  1  0  0  0  0
 44 45  1  0  0  0  0
 18 21  1  0  0  0  0
 34 35  1  0  0  0  0
  7  8  1  0  0  0  0
 17 18  1  0  0  0  0
 24 31  1  0  0  0  0
 25 32  1  0  0  0  0
  3  4  1  0  0  0  0
  3  5  1  0  0  0  0
  3  6  1  0  0  0  0
 38 41  1  0  0  0  0
 38 42  1  0  0  0  0
 38 43  1  0  0  0  0
 11 14  1  0  0  0  0
 11 15  1  0  0  0  0
 11 16  1  0  0  0  0
 45 47  1  0  0  0  0
 45 48  1  0  0  0  0
 45 49  1  0  0  0  0
 21 29  1  0  0  0  0
 21 30  1  0  0  0  0
 35 40  1  0  0  0  0
  8 13  1  0  0  0  0
 18 28  1  0  0  0  0
 26 33  1  0  0  0  0
 44 46  1  0  0  0  0
  7 12  1  0  0  0  0
 34 39  1  0  0  0  0
 17 27  1  0  0  0  0
M  END
$$$$

  -OEChem-05262214473D

 49 49  0     1  0  0  0  0  0999 V2000
   -1.6183    0.5613    3.8201 C   0  0  0  0  0  0  0  0  0  0  0  0
   -0.6710   -0.0534    3.3444 O   0  0  0  0  0  0  0  0  0  0  0  0
   -2.0502    0.2789    5.2208 C   0  0  0  0  0  0  0  0  0  0  0  0
   -2.8099   -0.5175    5.2742 H   0  0  0  0  0  0  0  0  0  0  0  0
   -1.2190   -0.0687    5.8551 H   0  0  0  0  0  0  0  0  0  0  0  0
   -2.4882    1.1338    5.7604 H   0  0  0  0  0  0  0  0  0  0  0  0
   -2.3680    1.5337    3.1790 N   0  0  0  0  0  0  0  0  0  0  0  0
   -2.1212    1.9597    1.8266 C   0  0  2  0  0  0  0  0  0  0  0  0
   -0.7862    1.3744    1.3854 C   0  0  0  0  0  0  0  0  0  0  0  0
    0.0859    1.0216    2.1767 O   0  0  0  0  0  0  0  0  0  0  0  0
   -2.1124    3.4765    1.7171 C   0  0  0  0  0  0  0  0  0  0  0  0
   -3.1331    1.9695    3.6908 H   0  0  0  0  0  0  0  0  0  0  0  0
   -2.9253    1.5413    1.2115 H   0  0  0  0  0  0  0  0  0  0  0  0
   -1.3133    3.9138    2.3268 H   0  0  0  0  0  0  0  0  0  0  0  0
   -1.9529    3.7988    0.6829 H   0  0  0  0  0  0  0  0  0  0  0  0
   -3.0626    3.8977    2.0629 H   0  0  0  0  0  0  0  0  0  0  0  0
   -0.6635    1.3313    0.0020 N   0  0  0  0  0  0  0  0  0  0  0  0
    0.5138    0.8305   -0.6617 C   0  0  2  0  0  0  0  0  0  0  0  0
    0.0425   -0.0801   -1.7899 C   0  0  0  0  0  0  0  0  0  0  0  0
    0.3093   -1.2790   -1.8379 O   0  0  0  0  0  0  0  0  0  0  0  0
    1.4344    0.0625    0.2937 C   0  0  0  0  0  0  0  0  0  0  0  0
    2.0004    0.9357    1.3868 C   0  0  0  0  0  0  0  0  0  0  0  0
    3.0064    1.8293    1.1165 N   0  0  0  0  0  0  0  0  0  0  0  0
    1.6400    0.9800    2.7130 C   0  0  0  0  0  0  0  0  0  0  0  0
    3.2550    2.4120    2.2682 C   0  0  0  0  0  0  0  0  0  0  0  0
    2.4527    1.9299    3.2648 N   0  0  0  0  0  0  0  0  0  0  0  0
   -1.4467    1.6280   -0.5753 H   0  0  0  0  0  0  0  0  0  0  0  0
    1.0237    1.7004   -1.0919 H   0  0  0  0  0  0  0  0  0  0  0  0
    2.2548   -0.4083   -0.2649 H   0  0  0  0  0  0  0  0  0  0  0  0
    0.8921   -0.7686    0.7637 H   0  0  0  0  0  0  0  0  0  0  0  0
    0.9067    0.4428    3.2970 H   0  0  0  0  0  0  0  0  0  0  0  0
    3.9935    3.1809    2.4466 H   0  0  0  0  0  0  0  0  0  0  0  0
    2.4590    2.2233    4.2325 H   0  0  0  0  0  0  0  0  0  0  0  0
   -0.7509    0.5961   -2.7063 N   0  0  0  0  0  0  0  0  0  0  0  0
   -1.3467   -0.0381   -3.8603 C   0  0  2  0  0  0  0  0  0  0  0  0
   -0.2546   -0.8101   -4.5889 C   0  0  0  0  0  0  0  0  0  0  0  0
    0.9413   -0.5493   -4.4750 O   0  0  0  0  0  0  0  0  0  0  0  0
   -1.9955    0.9845   -4.7802 C   0  0  0  0  0  0  0  0  0  0  0  0
   -0.9213    1.5864   -2.5585 H   0  0  0  0  0  0  0  0  0  0  0  0
   -2.0999   -0.7382   -3.4828 H   0  0  0  0  0  0  0  0  0  0  0  0
   -1.2562    1.6946   -5.1683 H   0  0  0  0  0  0  0  0  0  0  0  0
   -2.4711    0.4999   -5.6393 H   0  0  0  0  0  0  0  0  0  0  0  0
   -2.7601    1.5592   -4.2464 H   0  0  0  0  0  0  0  0  0  0  0  0
   -0.7751   -1.7967   -5.4146 N   0  0  0  0  0  0  0  0  0  0  0  0
    0.0578   -2.6574   -6.2218 C   0  0  0  0  0  0  0  0  0  0  0  0
   -1.7783   -1.9554   -5.4324 H   0  0  0  0  0  0  0  0  0  0  0  0
    0.1794   -2.2173   -7.2225 H   0  0  0  0  0  0  0  0  0  0  0  0
    1.0438   -2.7643   -5.7461 H   0  0  0  0  0  0  0  0  0  0  0  0
   -0.4153   -3.6464   -6.3113 H   0  0  0  0  0  0  0  0  0  0  0  0
 22 24  2  0  0  0  0
 24 26  1  0  0  0  0
 23 25  2  0  0  0  0
 25 26  1  0  0  0  0
 21 22  1  0  0  0  0
 22 23  1  0  0  0  0
  1  3  1  0  0  0  0
  1  7  1  0  0  0  0
  1  2  2  0  0  0  0
 35 36  1  0  0  0  0
 36 44  1  0  0  0  0
 36 37  2  0  0  0  0
  8  9  1  0  0  0  0
  9 17  1  0  0  0  0
  9 10  2  0  0  0  0
 18 19  1  0  0  0  0
 19 34  1  0  0  0  0
 19 20  2  0  0  0  0
 35 38  1  0  0  0  0
  8 11  1  0  0  0  0
 44 45  1  0  0  0  0
 18 21  1  0  0  0  0
 34 35  1  0  0  0  0
  7  8  1  0  0  0  0
 17 18  1  0  0  0  0
 24 31  1  0  0  0  0
 25 32  1  0  0  0  0
  3  4  1  0  0  0  0
  3  5  1  0  0  0  0
  3  6  1  0  0  0  0
 38 41  1  0  0  0  0
 38 42  1  0  0  0  0
 38 43  1  0  0  0  0
 11 14  1  0  0  0  0
 11 15  1  0  0  0  0
 11 16  1  0  0  0  0
 45 47  1  0  0  0  0
 45 48  1  0  0  0  0
 45 49  1  0  0  0  0
 21 29  1  0  0  0  0
 21 30  1  0  0  0  0
 35 40  1  0  0  0  0
  8 13  1  0  0  0  0
 18 28  1  0  0  0  0
 26 33  1  0  0  0  0
 44 46  1  0  0  0  0
  7 12  1  0  0  0  0
 34 39  1  0  0  0  0
 17 27  1  0  0  0  0
M  END
$$$$

  -OEChem-05262214473D

 49 49  0     1  0  0  0  0  0999 V2000
   -1.6183    0.5613    3.8201 C   0  0  0  0  0  0  0  0  0  0  0  0
   -0.6710   -0.0534    3.3444 O   0  0  0  0  0  0  0  0  0  0  0  0
   -2.0502    0.2789    5.2208 C   0  0  0  0  0  0  0  0  0  0  0  0
   -2.8099   -0.5175    5.2742 H   0  0  0  0  0  0  0  0  0  0  0  0
   -1.2190   -0.0687    5.8551 H   0  0  0  0  0  0  0  0  0  0  0  0
   -2.4882    1.1338    5.7604 H   0  0  0  0  0  0  0  0  0  0  0  0
   -2.3680    1.5337    3.1790 N   0  0  0  0  0  0  0  0  0  0  0  0
   -2.1212    1.9597    1.8266 C   0  0  2  0  0  0  0  0  0  0  0  0
   -0.7862    1.3744    1.3854 C   0  0  0  0  0  0  0  0  0  0  0  0
    0.0859    1.0216    2.1767 O   0  0  0  0  0  0  0  0  0  0  0  0
   -2.1124    3.4765    1.7171 C   0  0  0  0  0  0  0  0  0  0  0  0
   -3.1331    1.9695    3.6908 H   0  0  0  0  0  0  0  0  0  0  0  0
   -2.9253    1.5413    1.2115 H   0  0  0  0  0  0  0  0  0  0  0  0
   -1.3133    3.9138    2.3268 H   0  0  0  0  0  0  0  0  0  0  0  0
   -1.9529    3.7988    0.6829 H   0  0  0  0  0  0  0  0  0  0  0  0
   -3.0626    3.8977    2.0629 H   0  0  0  0  0  0  0  0  0  0  0  0
   -0.6635    1.3313    0.0020 N   0  0  0  0  0  0  0  0  0  0  0  0
    0.5138    0.8305   -0.6617 C   0  0  2  0  0  0  0  0  0  0  0  0
    0.0425   -0.0801   -1.7899 C   0  0  0  0  0  0  0  0  0  0  0  0
    0.0709   -1.3067   -1.7159 O   0  0  0  0  0  0  0  0  0  0  0  0
    1.4344    0.0625    0.2937 C   0  0  0  0  0  0  0  0  0  0  0  0
    2.0004    0.9357    1.3868 C   0  0  0  0  0  0  0  0  0  0  0  0
    3.0064    1.8293    1.1165 N   0  0  0  0  0  0  0  0  0  0  0  0
    1.6400    0.9800    2.7130 C   0  0  0  0  0  0  0  0  0  0  0  0
    3.2550    2.4120    2.2682 C   0  0  0  0  0  0  0  0  0  0  0  0
    2.4527    1.9299    3.2648 N   0  0  0  0  0  0  0  0  0  0  0  0
   -1.4467    1.6280   -0.5753 H   0  0  0  0  0  0  0  0  0  0  0  0
    1.0237    1.7004   -1.0919 H   0  0  0  0  0  0  0  0  0  0  0  0
    2.2548   -0.4083   -0.2649 H   0  0  0  0  0  0  0  0  0  0  0  0
    0.8921   -0.7686    0.7637 H   0  0  0  0  0  0  0  0  0  0  0  0
    0.9067    0.4428    3.2970 H   0  0  0  0  0  0  0  0  0  0  0  0
    3.9935    3.1809    2.4466 H   0  0  0  0  0  0  0  0  0  0  0  0
    2.4590    2.2233    4.2325 H   0  0  0  0  0  0  0  0  0  0  0  0
   -0.4581    0.6411   -2.8650 N   0  0  0  0  0  0  0  0  0  0  0  0
   -0.9916    0.0215   -4.0567 C   0  0  2  0  0  0  0  0  0  0  0  0
    0.0210   -1.0052   -4.5466 C   0  0  0  0  0  0  0  0  0  0  0  0
    1.2149   -0.9608   -4.2572 O   0  0  0  0  0  0  0  0  0  0  0  0
   -1.2831    1.0544   -5.1342 C   0  0  0  0  0  0  0  0  0  0  0  0
   -0.4491    1.6554   -2.8114 H   0  0  0  0  0  0  0  0  0  0  0  0
   -1.9155   -0.4878   -3.7619 H   0  0  0  0  0  0  0  0  0  0  0  0
   -0.3692    1.5751   -5.4424 H   0  0  0  0  0  0  0  0  0  0  0  0
   -1.7138    0.5869   -6.0258 H   0  0  0  0  0  0  0  0  0  0  0  0
   -1.9888    1.8089   -4.7701 H   0  0  0  0  0  0  0  0  0  0  0  0
   -0.5575   -1.9522   -5.3801 N   0  0  0  0  0  0  0  0  0  0  0  0
    0.1980   -3.0250   -5.9836 C   0  0  0  0  0  0  0  0  0  0  0  0
   -1.5585   -1.9233   -5.5502 H   0  0  0  0  0  0  0  0  0  0  0  0
    0.5498   -2.7123   -6.9778 H   0  0  0  0  0  0  0  0  0  0  0  0
    1.0627   -3.2671   -5.3482 H   0  0  0  0  0  0  0  0  0  0  0  0
   -0.4431   -3.9132   -6.0843 H   0  0  0  0  0  0  0  0  0  0  0  0
 22 24  2  0  0  0  0
 24 26  1  0  0  0  0
 23 25  2  0  0  0  0
 25 26  1  0  0  0  0
 21 22  1  0  0  0  0
 22 23  1  0  0  0  0
  1  3  1  0  0  0  0
  1  7  1  0  0  0  0
  1  2  2  0  0  0  0
 35 36  1  0  0  0  0
 36 44  1  0  0  0  0
 36 37  2  0  0  0  0
  8  9  1  0  0  0  0
  9 17  1  0  0  0  0
  9 10  2  0  0  0  0
 18 19  1  0  0  0  0
 19 34  1  0  0  0  0
 19 20  2  0  0  0  0
 35 38  1  0  0  0  0
  8 11  1  0  0  0  0
 44 45  1  0  0  0  0
 18 21  1  0  0  0  0
 34 35  1  0  0  0  0
  7  8  1  0  0  0  0
 17 18  1  0  0  0  0
 24 31  1  0  0  0  0
 25 32  1  0  0  0  0
  3  4  1  0  0  0  0
  3  5  1  0  0  0  0
  3  6  1  0  0  0  0
 38 41  1  0  0  0  0
 38 42  1  0  0  0  0
 38 43  1  0  0  0  0
 11 14  1  0  0  0  0
 11 15  1  0  0  0  0
 11 16  1  0  0  0  0
 45 47  1  0  0  0  0
 45 48  1  0  0  0  0
 45 49  1  0  0  0  0
 21 29  1  0  0  0  0
 21 30  1  0  0  0  0
 35 40  1  0  0  0  0
  8 13  1  0  0  0  0
 18 28  1  0  0  0  0
 26 33  1  0  0  0  0
 44 46  1  0  0  0  0
  7 12  1  0  0  0  0
 34 39  1  0  0  0  0
 17 27  1  0  0  0  0
M  END
$$$$

  -OEChem-05262214473D

 49 49  0     1  0  0  0  0  0999 V2000
   -1.6183    0.5613    3.8201 C   0  0  0  0  0  0  0  0  0  0  0  0
   -0.6710   -0.0534    3.3444 O   0  0  0  0  0  0  0  0  0  0  0  0
   -2.0502    0.2789    5.2208 C   0  0  0  0  0  0  0  0  0  0  0  0
   -2.8099   -0.5175    5.2742 H   0  0  0  0  0  0  0  0  0  0  0  0
   -1.2190   -0.0687    5.8551 H   0  0  0  0  0  0  0  0  0  0  0  0
   -2.4882    1.1338    5.7604 H   0  0  0  0  0  0  0  0  0  0  0  0
   -2.3680    1.5337    3.1790 N   0  0  0  0  0  0  0  0  0  0  0  0
   -2.1212    1.9597    1.8266 C   0  0  2  0  0  0  0  0  0  0  0  0
   -0.7862    1.3744    1.3854 C   0  0  0  0  0  0  0  0  0  0  0  0
    0.0859    1.0216    2.1767 O   0  0  0  0  0  0  0  0  0  0  0  0
   -2.1124    3.4765    1.7171 C   0  0  0  0  0  0  0  0  0  0  0  0
   -3.1331    1.9695    3.6908 H   0  0  0  0  0  0  0  0  0  0  0  0
   -2.9253    1.5413    1.2115 H   0  0  0  0  0  0  0  0  0  0  0  0
   -1.3133    3.9138    2.3268 H   0  0  0  0  0  0  0  0  0  0  0  0
   -1.9529    3.7988    0.6829 H   0  0  0  0  0  0  0  0  0  0  0  0
   -3.0626    3.8977    2.0629 H   0  0  0  0  0  0  0  0  0  0  0  0
   -0.6635    1.3313    0.0020 N   0  0  0  0  0  0  0  0  0  0  0  0
    0.5138    0.8305   -0.6617 C   0  0  2  0  0  0  0  0  0  0  0  0
    0.0425   -0.0801   -1.7899 C   0  0  0  0  0  0  0  0  0  0  0  0
   -0.1835   -1.2781   -1.6328 O   0  0  0  0  0  0  0  0  0  0  0  0
    1.4344    0.0625    0.2937 C   0  0  0  0  0  0  0  0  0  0  0  0
    2.0004    0.9357    1.3868 C   0  0  0  0  0  0  0  0  0  0  0  0
    3.0064    1.8293    1.1165 N   0  0  0  0  0  0  0  0  0  0  0  0
    1.6400    0.9800    2.7130 C   0  0  0  0  0  0  0  0  0  0  0  0
    3.2550    2.4120    2.2682 C   0  0  0  0  0  0  0  0  0  0  0  0
    2.4527    1.9299    3.2648 N   0  0  0  0  0  0  0  0  0  0  0  0
   -1.4467    1.6280   -0.5753 H   0  0  0  0  0  0  0  0  0  0  0  0
    1.0237    1.7004   -1.0919 H   0  0  0  0  0  0  0  0  0  0  0  0
    2.2548   -0.4083   -0.2649 H   0  0  0  0  0  0  0  0  0  0  0  0
    0.8921   -0.7686    0.7637 H   0  0  0  0  0  0  0  0  0  0  0  0
    0.9067    0.4428    3.2970 H   0  0  0  0  0  0  0  0  0  0  0  0
    3.9935    3.1809    2.4466 H   0  0  0  0  0  0  0  0  0  0  0  0
    2.4590    2.2233    4.2325 H   0  0  0  0  0  0  0  0  0  0  0  0
   -0.1422    0.6158   -2.9765 N   0  0  0  0  0  0  0  0  0  0  0  0
   -0.6069   -0.0046   -4.1963 C   0  0  2  0  0  0  0  0  0  0  0  0
    0.2433   -1.2430   -4.4475 C   0  0  0  0  0  0  0  0  0  0  0  0
    1.3667   -1.3932   -3.9716 O   0  0  0  0  0  0  0  0  0  0  0  0
   -0.5269    0.9572   -5.3716 C   0  0  0  0  0  0  0  0  0  0  0  0
    0.0594    1.6113   -2.9882 H   0  0  0  0  0  0  0  0  0  0  0  0
   -1.6464   -0.3036   -4.0230 H   0  0  0  0  0  0  0  0  0  0  0  0
    0.5071    1.2679   -5.5605 H   0  0  0  0  0  0  0  0  0  0  0  0
   -0.9059    0.4950   -6.2890 H   0  0  0  0  0  0  0  0  0  0  0  0
   -1.1150    1.8605   -5.1767 H   0  0  0  0  0  0  0  0  0  0  0  0
   -0.3823   -2.1413   -5.3006 N   0  0  0  0  0  0  0  0  0  0  0  0
    0.2262   -3.3880   -5.7025 C   0  0  0  0  0  0  0  0  0  0  0  0
   -1.3218   -1.9438   -5.6325 H   0  0  0  0  0  0  0  0  0  0  0  0
    0.7750   -3.2418   -6.6445 H   0  0  0  0  0  0  0  0  0  0  0  0
    0.9231   -3.7245   -4.9207 H   0  0  0  0  0  0  0  0  0  0  0  0
   -0.5560   -4.1475   -5.8481 H   0  0  0  0  0  0  0  0  0  0  0  0
 22 24  2  0  0  0  0
 24 26  1  0  0  0  0
 23 25  2  0  0  0  0
 25 26  1  0  0  0  0
 21 22  1  0  0  0  0
 22 23  1  0  0  0  0
  1  3  1  0  0  0  0
  1  7  1  0  0  0  0
  1  2  2  0  0  0  0
 35 36  1  0  0  0  0
 36 44  1  0  0  0  0
 36 37  2  0  0  0  0
  8  9  1  0  0  0  0
  9 17  1  0  0  0  0
  9 10  2  0  0  0  0
 18 19  1  0  0  0  0
 19 34  1  0  0  0  0
 19 20  2  0  0  0  0
 35 38  1  0  0  0  0
  8 11  1  0  0  0  0
 44 45  1  0  0  0  0
 18 21  1  0  0  0  0
 34 35  1  0  0  0  0
  7  8  1  0  0  0  0
 17 18  1  0  0  0  0
 24 31  1  0  0  0  0
 25 32  1  0  0  0  0
  3  4  1  0  0  0  0
  3  5  1  0  0  0  0
  3  6  1  0  0  0  0
 38 41  1  0  0  0  0
 38 42  1  0  0  0  0
 38 43  1  0  0  0  0
 11 14  1  0  0  0  0
 11 15  1  0  0  0  0
 11 16  1  0  0  0  0
 45 47  1  0  0  0  0
 45 48  1  0  0  0  0
 45 49  1  0  0  0  0
 21 29  1  0  0  0  0
 21 30  1  0  0  0  0
 35 40  1  0  0  0  0
  8 13  1  0  0  0  0
 18 28  1  0  0  0  0
 26 33  1  0  0  0  0
 44 46  1  0  0  0  0
  7 12  1  0  0  0  0
 34 39  1  0  0  0  0
 17 27  1  0  0  0  0
M  END
$$$$

  -OEChem-05262214473D

 49 49  0     1  0  0  0  0  0999 V2000
   -1.6183    0.5613    3.8201 C   0  0  0  0  0  0  0  0  0  0  0  0
   -0.6710   -0.0534    3.3444 O   0  0  0  0  0  0  0  0  0  0  0  0
   -2.0502    0.2789    5.2208 C   0  0  0  0  0  0  0  0  0  0  0  0
   -2.8099   -0.5175    5.2742 H   0  0  0  0  0  0  0  0  0  0  0  0
   -1.2190   -0.0687    5.8551 H   0  0  0  0  0  0  0  0  0  0  0  0
   -2.4882    1.1338    5.7604 H   0  0  0  0  0  0  0  0  0  0  0  0
   -2.3680    1.5337    3.1790 N   0  0  0  0  0  0  0  0  0  0  0  0
   -2.1212    1.9597    1.8266 C   0  0  2  0  0  0  0  0  0  0  0  0
   -0.7862    1.3744    1.3854 C   0  0  0  0  0  0  0  0  0  0  0  0
    0.0859    1.0216    2.1767 O   0  0  0  0  0  0  0  0  0  0  0  0
   -2.1124    3.4765    1.7171 C   0  0  0  0  0  0  0  0  0  0  0  0
   -3.1331    1.9695    3.6908 H   0  0  0  0  0  0  0  0  0  0  0  0
   -2.9253    1.5413    1.2115 H   0  0  0  0  0  0  0  0  0  0  0  0
   -1.3133    3.9138    2.3268 H   0  0  0  0  0  0  0  0  0  0  0  0
   -1.9529    3.7988    0.6829 H   0  0  0  0  0  0  0  0  0  0  0  0
   -3.0626    3.8977    2.0629 H   0  0  0  0  0  0  0  0  0  0  0  0
   -0.6635    1.3313    0.0020 N   0  0  0  0  0  0  0  0  0  0  0  0
    0.5138    0.8305   -0.6617 C   0  0  2  0  0  0  0  0  0  0  0  0
    0.0425   -0.0801   -1.7899 C   0  0  0  0  0  0  0  0  0  0  0  0
   -0.4366   -1.1950   -1.5941 O   0  0  0  0  0  0  0  0  0  0  0  0
    1.4344    0.0625    0.2937 C   0  0  0  0  0  0  0  0  0  0  0  0
    2.0004    0.9357    1.3868 C   0  0  0  0  0  0  0  0  0  0  0  0
    3.0064    1.8293    1.1165 N   0  0  0  0  0  0  0  0  0  0  0  0
    1.6400    0.9800    2.7130 C   0  0  0  0  0  0  0  0  0  0  0  0
    3.2550    2.4120    2.2682 C   0  0  0  0  0  0  0  0  0  0  0  0
    2.4527    1.9299    3.2648 N   0  0  0  0  0  0  0  0  0  0  0  0
   -1.4467    1.6280   -0.5753 H   0  0  0  0  0  0  0  0  0  0  0  0
    1.0237    1.7004   -1.0919 H   0  0  0  0  0  0  0  0  0  0  0  0
    2.2548   -0.4083   -0.2649 H   0  0  0  0  0  0  0  0  0  0  0  0
    0.8921   -0.7686    0.7637 H   0  0  0  0  0  0  0  0  0  0  0  0
    0.9067    0.4428    3.2970 H   0  0  0  0  0  0  0  0  0  0  0  0
    3.9935    3.1809    2.4466 H   0  0  0  0  0  0  0  0  0  0  0  0
    2.4590    2.2233    4.2325 H   0  0  0  0  0  0  0  0  0  0  0  0
    0.1754    0.5220   -3.0334 N   0  0  0  0  0  0  0  0  0  0  0  0
   -0.2187   -0.1147   -4.2696 C   0  0  2  0  0  0  0  0  0  0  0  0
    0.3972   -1.5073   -4.2984 C   0  0  0  0  0  0  0  0  0  0  0  0
    1.3864   -1.8171   -3.6377 O   0  0  0  0  0  0  0  0  0  0  0  0
    0.2216    0.6994   -5.4762 C   0  0  0  0  0  0  0  0  0  0  0  0
    0.5694    1.4572   -3.0768 H   0  0  0  0  0  0  0  0  0  0  0  0
   -1.3107   -0.1981   -4.2483 H   0  0  0  0  0  0  0  0  0  0  0  0
    1.3130    0.7938   -5.5145 H   0  0  0  0  0  0  0  0  0  0  0  0
   -0.1025    0.2304   -6.4111 H   0  0  0  0  0  0  0  0  0  0  0  0
   -0.1983    1.7104   -5.4385 H   0  0  0  0  0  0  0  0  0  0  0  0
   -0.2617   -2.3512   -5.1816 N   0  0  0  0  0  0  0  0  0  0  0  0
    0.1405   -3.7214   -5.3975 C   0  0  0  0  0  0  0  0  0  0  0  0
   -1.0844   -2.0155   -5.6738 H   0  0  0  0  0  0  0  0  0  0  0  0
    0.8396   -3.7697   -6.2454 H   0  0  0  0  0  0  0  0  0  0  0  0
    0.6345   -4.1053   -4.4928 H   0  0  0  0  0  0  0  0  0  0  0  0
   -0.7466   -4.3333   -5.6186 H   0  0  0  0  0  0  0  0  0  0  0  0
 22 24  2  0  0  0  0
 24 26  1  0  0  0  0
 23 25  2  0  0  0  0
 25 26  1  0  0  0  0
 21 22  1  0  0  0  0
 22 23  1  0  0  0  0
  1  3  1  0  0  0  0
  1  7  1  0  0  0  0
  1  2  2  0  0  0  0
 35 36  1  0  0  0  0
 36 44  1  0  0  0  0
 36 37  2  0  0  0  0
  8  9  1  0  0  0  0
  9 17  1  0  0  0  0
  9 10  2  0  0  0  0
 18 19  1  0  0  0  0
 19 34  1  0  0  0  0
 19 20  2  0  0  0  0
 35 38  1  0  0  0  0
  8 11  1  0  0  0  0
 44 45  1  0  0  0  0
 18 21  1  0  0  0  0
 34 35  1  0  0  0  0
  7  8  1  0  0  0  0
 17 18  1  0  0  0  0
 24 31  1  0  0  0  0
 25 32  1  0  0  0  0
  3  4  1  0  0  0  0
  3  5  1  0  0  0  0
  3  6  1  0  0  0  0
 38 41  1  0  0  0  0
 38 42  1  0  0  0  0
 38 43  1  0  0  0  0
 11 14  1  0  0  0  0
 11 15  1  0  0  0  0
 11 16  1  0  0  0  0
 45 47  1  0  0  0  0
 45 48  1  0  0  0  0
 45 49  1  0  0  0  0
 21 29  1  0  0  0  0
 21 30  1  0  0  0  0
 35 40  1  0  0  0  0
  8 13  1  0  0  0  0
 18 28  1  0  0  0  0
 26 33  1  0  0  0  0
 44 46  1  0  0  0  0
  7 12  1  0  0  0  0
 34 39  1  0  0  0  0
 17 27  1  0  0  0  0
M  END
$$$$

  -OEChem-05262214473D

 49 49  0     1  0  0  0  0  0999 V2000
   -1.6183    0.5613    3.8201 C   0  0  0  0  0  0  0  0  0  0  0  0
   -0.6710   -0.0534    3.3444 O   0  0  0  0  0  0  0  0  0  0  0  0
   -2.0502    0.2789    5.2208 C   0  0  0  0  0  0  0  0  0  0  0  0
   -2.8099   -0.5175    5.2742 H   0  0  0  0  0  0  0  0  0  0  0  0
   -1.2190   -0.0687    5.8551 H   0  0  0  0  0  0  0  0  0  0  0  0
   -2.4882    1.1338    5.7604 H   0  0  0  0  0  0  0  0  0  0  0  0
   -2.3680    1.5337    3.1790 N   0  0  0  0  0  0  0  0  0  0  0  0
   -2.1212    1.9597    1.8266 C   0  0  2  0  0  0  0  0  0  0  0  0
   -0.7862    1.3744    1.3854 C   0  0  0  0  0  0  0  0  0  0  0  0
    0.0859    1.0216    2.1767 O   0  0  0  0  0  0  0  0  0  0  0  0
   -2.1124    3.4765    1.7171 C   0  0  0  0  0  0  0  0  0  0  0  0
   -3.1331    1.9695    3.6908 H   0  0  0  0  0  0  0  0  0  0  0  0
   -2.9253    1.5413    1.2115 H   0  0  0  0  0  0  0  0  0  0  0  0
   -1.3133    3.9138    2.3268 H   0  0  0  0  0  0  0  0  0  0  0  0
   -1.9529    3.7988    0.6829 H   0  0  0  0  0  0  0  0  0  0  0  0
   -3.0626    3.8977    2.0629 H   0  0  0  0  0  0  0  0  0  0  0  0
   -0.6635    1.3313    0.0020 N   0  0  0  0  0  0  0  0  0  0  0  0
    0.5138    0.8305   -0.6617 C   0  0  2  0  0  0  0  0  0  0  0  0
    0.0425   -0.0801   -1.7899 C   0  0  0  0  0  0  0  0  0  0  0  0
   -0.6711   -1.0632   -1.6025 O   0  0  0  0  0  0  0  0  0  0  0  0
    1.4344    0.0625    0.2937 C   0  0  0  0  0  0  0  0  0  0  0  0
    2.0004    0.9357    1.3868 C   0  0  0  0  0  0  0  0  0  0  0  0
    3.0064    1.8293    1.1165 N   0  0  0  0  0  0  0  0  0  0  0  0
    1.6400    0.9800    2.7130 C   0  0  0  0  0  0  0  0  0  0  0  0
    3.2550    2.4120    2.2682 C   0  0  0  0  0  0  0  0  0  0  0  0
    2.4527    1.9299    3.2648 N   0  0  0  0  0  0  0  0  0  0  0  0
   -1.4467    1.6280   -0.5753 H   0  0  0  0  0  0  0  0  0  0  0  0
    1.0237    1.7004   -1.0919 H   0  0  0  0  0  0  0  0  0  0  0  0
    2.2548   -0.4083   -0.2649 H   0  0  0  0  0  0  0  0  0  0  0  0
    0.8921   -0.7686    0.7637 H   0  0  0  0  0  0  0  0  0  0  0  0
    0.9067    0.4428    3.2970 H   0  0  0  0  0  0  0  0  0  0  0  0
    3.9935    3.1809    2.4466 H   0  0  0  0  0  0  0  0  0  0  0  0
    2.4590    2.2233    4.2325 H   0  0  0  0  0  0  0  0  0  0  0  0
    0.4729    0.3660   -3.0318 N   0  0  0  0  0  0  0  0  0  0  0  0
    0.1465   -0.3013   -4.2715 C   0  0  2  0  0  0  0  0  0  0  0  0
    0.4722   -1.7802   -4.1095 C   0  0  0  0  0  0  0  0  0  0  0  0
    1.2726   -2.2037   -3.2782 O   0  0  0  0  0  0  0  0  0  0  0  0
    0.9114    0.2987   -5.4409 C   0  0  0  0  0  0  0  0  0  0  0  0
    1.0462    1.2036   -3.0713 H   0  0  0  0  0  0  0  0  0  0  0  0
   -0.9315   -0.1785   -4.4225 H   0  0  0  0  0  0  0  0  0  0  0  0
    1.9935    0.1852   -5.3075 H   0  0  0  0  0  0  0  0  0  0  0  0
    0.6417   -0.1889   -6.3835 H   0  0  0  0  0  0  0  0  0  0  0  0
    0.6990    1.3689   -5.5376 H   0  0  0  0  0  0  0  0  0  0  0  0
   -0.2037   -2.5675   -5.0312 N   0  0  0  0  0  0  0  0  0  0  0  0
   -0.0534   -4.0027   -5.0896 C   0  0  0  0  0  0  0  0  0  0  0  0
   -0.8624   -2.1335   -5.6712 H   0  0  0  0  0  0  0  0  0  0  0  0
    0.7391   -4.2600   -5.8077 H   0  0  0  0  0  0  0  0  0  0  0  0
    0.2167   -4.3838   -4.0936 H   0  0  0  0  0  0  0  0  0  0  0  0
   -1.0016   -4.4578   -5.4115 H   0  0  0  0  0  0  0  0  0  0  0  0
 22 24  2  0  0  0  0
 24 26  1  0  0  0  0
 23 25  2  0  0  0  0
 25 26  1  0  0  0  0
 21 22  1  0  0  0  0
 22 23  1  0  0  0  0
  1  3  1  0  0  0  0
  1  7  1  0  0  0  0
  1  2  2  0  0  0  0
 35 36  1  0  0  0  0
 36 44  1  0  0  0  0
 36 37  2  0  0  0  0
  8  9  1  0  0  0  0
  9 17  1  0  0  0  0
  9 10  2  0  0  0  0
 18 19  1  0  0  0  0
 19 34  1  0  0  0  0
 19 20  2  0  0  0  0
 35 38  1  0  0  0  0
  8 11  1  0  0  0  0
 44 45  1  0  0  0  0
 18 21  1  0  0  0  0
 34 35  1  0  0  0  0
  7  8  1  0  0  0  0
 17 18  1  0  0  0  0
 24 31  1  0  0  0  0
 25 32  1  0  0  0  0
  3  4  1  0  0  0  0
  3  5  1  0  0  0  0
  3  6  1  0  0  0  0
 38 41  1  0  0  0  0
 38 42  1  0  0  0  0
 38 43  1  0  0  0  0
 11 14  1  0  0  0  0
 11 15  1  0  0  0  0
 11 16  1  0  0  0  0
 45 47  1  0  0  0  0
 45 48  1  0  0  0  0
 45 49  1  0  0  0  0
 21 29  1  0  0  0  0
 21 30  1  0  0  0  0
 35 40  1  0  0  0  0
  8 13  1  0  0  0  0
 18 28  1  0  0  0  0
 26 33  1  0  0  0  0
 44 46  1  0  0  0  0
  7 12  1  0  0  0  0
 34 39  1  0  0  0  0
 17 27  1  0  0  0  0
M  END
$$$$

  -OEChem-05262214473D

 49 49  0     1  0  0  0  0  0999 V2000
   -1.6183    0.5613    3.8201 C   0  0  0  0  0  0  0  0  0  0  0  0
   -0.6710   -0.0534    3.3444 O   0  0  0  0  0  0  0  0  0  0  0  0
   -2.0502    0.2789    5.2208 C   0  0  0  0  0  0  0  0  0  0  0  0
   -2.8099   -0.5175    5.2742 H   0  0  0  0  0  0  0  0  0  0  0  0
   -1.2190   -0.0687    5.8551 H   0  0  0  0  0  0  0  0  0  0  0  0
   -2.4882    1.1338    5.7604 H   0  0  0  0  0  0  0  0  0  0  0  0
   -2.3680    1.5337    3.1790 N   0  0  0  0  0  0  0  0  0  0  0  0
   -2.1212    1.9597    1.8266 C   0  0  2  0  0  0  0  0  0  0  0  0
   -0.7862    1.3744    1.3854 C   0  0  0  0  0  0  0  0  0  0  0  0
    0.0859    1.0216    2.1767 O   0  0  0  0  0  0  0  0  0  0  0  0
   -2.1124    3.4765    1.7171 C   0  0  0  0  0  0  0  0  0  0  0  0
   -3.1331    1.9695    3.6908 H   0  0  0  0  0  0  0  0  0  0  0  0
   -2.9253    1.5413    1.2115 H   0  0  0  0  0  0  0  0  0  0  0  0
   -1.3133    3.9138    2.3268 H   0  0  0  0  0  0  0  0  0  0  0  0
   -1.9529    3.7988    0.6829 H   0  0  0  0  0  0  0  0  0  0  0  0
   -3.0626    3.8977    2.0629 H   0  0  0  0  0  0  0  0  0  0  0  0
   -0.6635    1.3313    0.0020 N   0  0  0  0  0  0  0  0  0  0  0  0
    0.5138    0.8305   -0.6617 C   0  0  2  0  0  0  0  0  0  0  0  0
    0.0425   -0.0801   -1.7899 C   0  0  0  0  0  0  0  0  0  0  0  0
   -0.8711   -0.8917   -1.6575 O   0  0  0  0  0  0  0  0  0  0  0  0
    1.4344    0.0625    0.2937 C   0  0  0  0  0  0  0  0  0  0  0  0
    2.0004    0.9357    1.3868 C   0  0  0  0  0  0  0  0  0  0  0  0
    3.0064    1.8293    1.1165 N   0  0  0  0  0  0  0  0  0  0  0  0
    1.6400    0.9800    2.7130 C   0  0  0  0  0  0  0  0  0  0  0  0
    3.2550    2.4120    2.2682 C   0  0  0  0  0  0  0  0  0  0  0  0
    2.4527    1.9299    3.2648 N   0  0  0  0  0  0  0  0  0  0  0  0
   -1.4467    1.6280   -0.5753 H   0  0  0  0  0  0  0  0  0  0  0  0
    1.0237    1.7004   -1.0919 H   0  0  0  0  0  0  0  0  0  0  0  0
    2.2548   -0.4083   -0.2649 H   0  0  0  0  0  0  0  0  0  0  0  0
    0.8921   -0.7686    0.7637 H   0  0  0  0  0  0  0  0  0  0  0  0
    0.9067    0.4428    3.2970 H   0  0  0  0  0  0  0  0  0  0  0  0
    3.9935    3.1809    2.4466 H   0  0  0  0  0  0  0  0  0  0  0  0
    2.4590    2.2233    4.2325 H   0  0  0  0  0  0  0  0  0  0  0  0
    0.7302    0.1584   -2.9717 N   0  0  0  0  0  0  0  0  0  0  0  0
    0.4638   -0.5516   -4.2020 C   0  0  2  0  0  0  0  0  0  0  0  0
    0.4631   -2.0431   -3.8936 C   0  0  0  0  0  0  0  0  0  0  0  0
    1.0330   -2.5265   -2.9176 O   0  0  0  0  0  0  0  0  0  0  0  0
    1.4956   -0.2176   -5.2682 C   0  0  0  0  0  0  0  0  0  0  0  0
    1.4573    0.8677   -2.9719 H   0  0  0  0  0  0  0  0  0  0  0  0
   -0.5345   -0.2462   -4.5337 H   0  0  0  0  0  0  0  0  0  0  0  0
    2.5022   -0.5164   -4.9537 H   0  0  0  0  0  0  0  0  0  0  0  0
    1.2761   -0.7342   -6.2084 H   0  0  0  0  0  0  0  0  0  0  0  0
    1.5155    0.8593   -5.4674 H   0  0  0  0  0  0  0  0  0  0  0  0
   -0.2124   -2.7755   -4.8597 N   0  0  0  0  0  0  0  0  0  0  0  0
   -0.3421   -4.2127   -4.7995 C   0  0  0  0  0  0  0  0  0  0  0  0
   -0.6710   -2.2899   -5.6250 H   0  0  0  0  0  0  0  0  0  0  0  0
    0.4805   -4.6794   -5.3612 H   0  0  0  0  0  0  0  0  0  0  0  0
   -0.3019   -4.5407   -3.7503 H   0  0  0  0  0  0  0  0  0  0  0  0
   -1.3039   -4.5127   -5.2409 H   0  0  0  0  0  0  0  0  0  0  0  0
 22 24  2  0  0  0  0
 24 26  1  0  0  0  0
 23 25  2  0  0  0  0
 25 26  1  0  0  0  0
 21 22  1  0  0  0  0
 22 23  1  0  0  0  0
  1  3  1  0  0  0  0
  1  7  1  0  0  0  0
  1  2  2  0  0  0  0
 35 36  1  0  0  0  0
 36 44  1  0  0  0  0
 36 37  2  0  0  0  0
  8  9  1  0  0  0  0
  9 17  1  0  0  0  0
  9 10  2  0  0  0  0
 18 19  1  0  0  0  0
 19 34  1  0  0  0  0
 19 20  2  0  0  0  0
 35 38  1  0  0  0  0
  8 11  1  0  0  0  0
 44 45  1  0  0  0  0
 18 21  1  0  0  0  0
 34 35  1  0  0  0  0
  7  8  1  0  0  0  0
 17 18  1  0  0  0  0
 24 31  1  0  0  0  0
 25 32  1  0  0  0  0
  3  4  1  0  0  0  0
  3  5  1  0  0  0  0
  3  6  1  0  0  0  0
 38 41  1  0  0  0  0
 38 42  1  0  0  0  0
 38 43  1  0  0  0  0
 11 14  1  0  0  0  0
 11 15  1  0  0  0  0
 11 16  1  0  0  0  0
 45 47  1  0  0  0  0
 45 48  1  0  0  0  0
 45 49  1  0  0  0  0
 21 29  1  0  0  0  0
 21 30  1  0  0  0  0
 35 40  1  0  0  0  0
  8 13  1  0  0  0  0
 18 28  1  0  0  0  0
 26 33  1  0  0  0  0
 44 46  1  0  0  0  0
  7 12  1  0  0  0  0
 34 39  1  0  0  0  0
 17 27  1  0  0  0  0
M  END
$$$$

  -OEChem-05262214473D

 49 49  0     1  0  0  0  0  0999 V2000
   -1.6183    0.5613    3.8201 C   0  0  0  0  0  0  0  0  0  0  0  0
   -0.6710   -0.0534    3.3444 O   0  0  0  0  0  0  0  0  0  0  0  0
   -2.0502    0.2789    5.2208 C   0  0  0  0  0  0  0  0  0  0  0  0
   -2.8099   -0.5175    5.2742 H   0  0  0  0  0  0  0  0  0  0  0  0
   -1.2190   -0.0687    5.8551 H   0  0  0  0  0  0  0  0  0  0  0  0
   -2.4882    1.1338    5.7604 H   0  0  0  0  0  0  0  0  0  0  0  0
   -2.3680    1.5337    3.1790 N   0  0  0  0  0  0  0  0  0  0  0  0
   -2.1212    1.9597    1.8266 C   0  0  2  0  0  0  0  0  0  0  0  0
   -0.7862    1.3744    1.3854 C   0  0  0  0  0  0  0  0  0  0  0  0
    0.0859    1.0216    2.1767 O   0  0  0  0  0  0  0  0  0  0  0  0
   -2.1124    3.4765    1.7171 C   0  0  0  0  0  0  0  0  0  0  0  0
   -3.1331    1.9695    3.6908 H   0  0  0  0  0  0  0  0  0  0  0  0
   -2.9253    1.5413    1.2115 H   0  0  0  0  0  0  0  0  0  0  0  0
   -1.3133    3.9138    2.3268 H   0  0  0  0  0  0  0  0  0  0  0  0
   -1.9529    3.7988    0.6829 H   0  0  0  0  0  0  0  0  0  0  0  0
   -3.0626    3.8977    2.0629 H   0  0  0  0  0  0  0  0  0  0  0  0
   -0.6635    1.3313    0.0020 N   0  0  0  0  0  0  0  0  0  0  0  0
    0.5138    0.8305   -0.6617 C   0  0  2  0  0  0  0  0  0  0  0  0
    0.0425   -0.0801   -1.7899 C   0  0  0  0  0  0  0  0  0  0  0  0
   -1.0230   -0.6920   -1.7552 O   0  0  0  0  0  0  0  0  0  0  0  0
    1.4344    0.0625    0.2937 C   0  0  0  0  0  0  0  0  0  0  0  0
    2.0004    0.9357    1.3868 C   0  0  0  0  0  0  0  0  0  0  0  0
    3.0064    1.8293    1.1165 N   0  0  0  0  0  0  0  0  0  0  0  0
    1.6400    0.9800    2.7130 C   0  0  0  0  0  0  0  0  0  0  0  0
    3.2550    2.4120    2.2682 C   0  0  0  0  0  0  0  0  0  0  0  0
    2.4527    1.9299    3.2648 N   0  0  0  0  0  0  0  0  0  0  0  0
   -1.4467    1.6280   -0.5753 H   0  0  0  0  0  0  0  0  0  0  0  0
    1.0237    1.7004   -1.0919 H   0  0  0  0  0  0  0  0  0  0  0  0
    2.2548   -0.4083   -0.2649 H   0  0  0  0  0  0  0  0  0  0  0  0
    0.8921   -0.7686    0.7637 H   0  0  0  0  0  0  0  0  0  0  0  0
    0.9067    0.4428    3.2970 H   0  0  0  0  0  0  0  0  0  0  0  0
    3.9935    3.1809    2.4466 H   0  0  0  0  0  0  0  0  0  0  0  0
    2.4590    2.2233    4.2325 H   0  0  0  0  0  0  0  0  0  0  0  0
    0.9297   -0.0866   -2.8573 N   0  0  0  0  0  0  0  0  0  0  0  0
    0.7117   -0.8487   -4.0658 C   0  0  2  0  0  0  0  0  0  0  0  0
    0.3706   -2.2779   -3.6654 C   0  0  0  0  0  0  0  0  0  0  0  0
    0.6840   -2.7636   -2.5805 O   0  0  0  0  0  0  0  0  0  0  0  0
    1.9342   -0.8145   -4.9697 C   0  0  0  0  0  0  0  0  0  0  0  0
    1.7747    0.4725   -2.7855 H   0  0  0  0  0  0  0  0  0  0  0  0
   -0.1468   -0.3965   -4.5743 H   0  0  0  0  0  0  0  0  0  0  0  0
    2.8045   -1.2633   -4.4772 H   0  0  0  0  0  0  0  0  0  0  0  0
    1.7573   -1.3684   -5.8975 H   0  0  0  0  0  0  0  0  0  0  0  0
    2.1958    0.2162   -5.2325 H   0  0  0  0  0  0  0  0  0  0  0  0
   -0.2872   -2.9610   -4.6788 N   0  0  0  0  0  0  0  0  0  0  0  0
   -0.7060   -4.3370   -4.5472 C   0  0  0  0  0  0  0  0  0  0  0  0
   -0.5232   -2.4738   -5.5382 H   0  0  0  0  0  0  0  0  0  0  0  0
    0.0814   -4.9993   -4.9364 H   0  0  0  0  0  0  0  0  0  0  0  0
   -0.8859   -4.5655   -3.4864 H   0  0  0  0  0  0  0  0  0  0  0  0
   -1.6327   -4.4942   -5.1185 H   0  0  0  0  0  0  0  0  0  0  0  0
 22 24  2  0  0  0  0
 24 26  1  0  0  0  0
 23 25  2  0  0  0  0
 25 26  1  0  0  0  0
 21 22  1  0  0  0  0
 22 23  1  0  0  0  0
  1  3  1  0  0  0  0
  1  7  1  0  0  0  0
  1  2  2  0  0  0  0
 35 36  1  0  0  0  0
 36 44  1  0  0  0  0
 36 37  2  0  0  0  0
  8  9  1  0  0  0  0
  9 17  1  0  0  0  0
  9 10  2  0  0  0  0
 18 19  1  0  0  0  0
 19 34  1  0  0  0  0
 19 20  2  0  0  0  0
 35 38  1  0  0  0  0
  8 11  1  0  0  0  0
 44 45  1  0  0  0  0
 18 21  1  0  0  0  0
 34 35  1  0  0  0  0
  7  8  1  0  0  0  0
 17 18  1  0  0  0  0
 24 31  1  0  0  0  0
 25 32  1  0  0  0  0
  3  4  1  0  0  0  0
  3  5  1  0  0  0  0
  3  6  1  0  0  0  0
 38 41  1  0  0  0  0
 38 42  1  0  0  0  0
 38 43  1  0  0  0  0
 11 14  1  0  0  0  0
 11 15  1  0  0  0  0
 11 16  1  0  0  0  0
 45 47  1  0  0  0  0
 45 48  1  0  0  0  0
 45 49  1  0  0  0  0
 21 29  1  0  0  0  0
 21 30  1  0  0  0  0
 35 40  1  0  0  0  0
  8 13  1  0  0  0  0
 18 28  1  0  0  0  0
 26 33  1  0  0  0  0
 44 46  1  0  0  0  0
  7 12  1  0  0  0  0
 34 39  1  0  0  0  0
 17 27  1  0  0  0  0
M  END
$$$$

  -OEChem-05262214473D

 49 49  0     1  0  0  0  0  0999 V2000
   -1.6183    0.5613    3.8201 C   0  0  0  0  0  0  0  0  0  0  0  0
   -0.6710   -0.0534    3.3444 O   0  0  0  0  0  0  0  0  0  0  0  0
   -2.0502    0.2789    5.2208 C   0  0  0  0  0  0  0  0  0  0  0  0
   -2.8099   -0.5175    5.2742 H   0  0  0  0  0  0  0  0  0  0  0  0
   -1.2190   -0.0687    5.8551 H   0  0  0  0  0  0  0  0  0  0  0  0
   -2.4882    1.1338    5.7604 H   0  0  0  0  0  0  0  0  0  0  0  0
   -2.3680    1.5337    3.1790 N   0  0  0  0  0  0  0  0  0  0  0  0
   -2.1212    1.9597    1.8266 C   0  0  2  0  0  0  0  0  0  0  0  0
   -0.7862    1.3744    1.3854 C   0  0  0  0  0  0  0  0  0  0  0  0
    0.0859    1.0216    2.1767 O   0  0  0  0  0  0  0  0  0  0  0  0
   -2.1124    3.4765    1.7171 C   0  0  0  0  0  0  0  0  0  0  0  0
   -3.1331    1.9695    3.6908 H   0  0  0  0  0  0  0  0  0  0  0  0
   -2.9253    1.5413    1.2115 H   0  0  0  0  0  0  0  0  0  0  0  0
   -1.3133    3.9138    2.3268 H   0  0  0  0  0  0  0  0  0  0  0  0
   -1.9529    3.7988    0.6829 H   0  0  0  0  0  0  0  0  0  0  0  0
   -3.0626    3.8977    2.0629 H   0  0  0  0  0  0  0  0  0  0  0  0
   -0.6635    1.3313    0.0020 N   0  0  0  0  0  0  0  0  0  0  0  0
    0.5138    0.8305   -0.6617 C   0  0  2  0  0  0  0  0  0  0  0  0
    0.0425   -0.0801   -1.7899 C   0  0  0  0  0  0  0  0  0  0  0  0
   -1.1163   -0.4779   -1.8890 O   0  0  0  0  0  0  0  0  0  0  0  0
    1.4344    0.0625    0.2937 C   0  0  0  0  0  0  0  0  0  0  0  0
    2.0004    0.9357    1.3868 C   0  0  0  0  0  0  0  0  0  0  0  0
    3.0064    1.8293    1.1165 N   0  0  0  0  0  0  0  0  0  0  0  0
    1.6400    0.9800    2.7130 C   0  0  0  0  0  0  0  0  0  0  0  0
    3.2550    2.4120    2.2682 C   0  0  0  0  0  0  0  0  0  0  0  0
    2.4527    1.9299    3.2648 N   0  0  0  0  0  0  0  0  0  0  0  0
   -1.4467    1.6280   -0.5753 H   0  0  0  0  0  0  0  0  0  0  0  0
    1.0237    1.7004   -1.0919 H   0  0  0  0  0  0  0  0  0  0  0  0
    2.2548   -0.4083   -0.2649 H   0  0  0  0  0  0  0  0  0  0  0  0
    0.8921   -0.7686    0.7637 H   0  0  0  0  0  0  0  0  0  0  0  0
    0.9067    0.4428    3.2970 H   0  0  0  0  0  0  0  0  0  0  0  0
    3.9935    3.1809    2.4466 H   0  0  0  0  0  0  0  0  0  0  0  0
    2.4590    2.2233    4.2325 H   0  0  0  0  0  0  0  0  0  0  0  0
    1.0577   -0.3523   -2.6964 N   0  0  0  0  0  0  0  0  0  0  0  0
    0.8731   -1.1721   -3.8722 C   0  0  2  0  0  0  0  0  0  0  0  0
    0.2010   -2.4688   -3.4405 C   0  0  0  0  0  0  0  0  0  0  0  0
    0.2494   -2.8988   -2.2899 O   0  0  0  0  0  0  0  0  0  0  0  0
    2.1974   -1.4511   -4.5658 C   0  0  0  0  0  0  0  0  0  0  0  0
    1.9768    0.0448   -2.5248 H   0  0  0  0  0  0  0  0  0  0  0  0
    0.2051   -0.6192   -4.5416 H   0  0  0  0  0  0  0  0  0  0  0  0
    2.8798   -2.0045   -3.9105 H   0  0  0  0  0  0  0  0  0  0  0  0
    2.0525   -2.0484   -5.4721 H   0  0  0  0  0  0  0  0  0  0  0  0
    2.6934   -0.5165   -4.8490 H   0  0  0  0  0  0  0  0  0  0  0  0
   -0.4229   -3.1114   -4.5007 N   0  0  0  0  0  0  0  0  0  0  0  0
   -1.1203   -4.3671   -4.3498 C   0  0  0  0  0  0  0  0  0  0  0  0
   -0.4291   -2.6729   -5.4169 H   0  0  0  0  0  0  0  0  0  0  0  0
   -0.4311   -5.1978   -4.5621 H   0  0  0  0  0  0  0  0  0  0  0  0
   -1.4957   -4.4565   -3.3197 H   0  0  0  0  0  0  0  0  0  0  0  0
   -1.9658   -4.4036   -5.0526 H   0  0  0  0  0  0  0  0  0  0  0  0
 22 24  2  0  0  0  0
 24 26  1  0  0  0  0
 23 25  2  0  0  0  0
 25 26  1  0  0  0  0
 21 22  1  0  0  0  0
 22 23  1  0  0  0  0
  1  3  1  0  0  0  0
  1  7  1  0  0  0  0
  1  2  2  0  0  0  0
 35 36  1  0  0  0  0
 36 44  1  0  0  0  0
 36 37  2  0  0  0  0
  8  9  1  0  0  0  0
  9 17  1  0  0  0  0
  9 10  2  0  0  0  0
 18 19  1  0  0  0  0
 19 34  1  0  0  0  0
 19 20  2  0  0  0  0
 35 38  1  0  0  0  0
  8 11  1  0  0  0  0
 44 45  1  0  0  0  0
 18 21  1  0  0  0  0
 34 35  1  0  0  0  0
  7  8  1  0  0  0  0
 17 18  1  0  0  0  0
 24 31  1  0  0  0  0
 25 32  1  0  0  0  0
  3  4  1  0  0  0  0
  3  5  1  0  0  0  0
  3  6  1  0  0  0  0
 38 41  1  0  0  0  0
 38 42  1  0  0  0  0
 38 43  1  0  0  0  0
 11 14  1  0  0  0  0
 11 15  1  0  0  0  0
 11 16  1  0  0  0  0
 45 47  1  0  0  0  0
 45 48  1  0  0  0  0
 45 49  1  0  0  0  0
 21 29  1  0  0  0  0
 21 30  1  0  0  0  0
 35 40  1  0  0  0  0
  8 13  1  0  0  0  0
 18 28  1  0  0  0  0
 26 33  1  0  0  0  0
 44 46  1  0  0  0  0
  7 12  1  0  0  0  0
 34 39  1  0  0  0  0
 17 27  1  0  0  0  0
M  END
$$$$

  -OEChem-05262214473D

 49 49  0     1  0  0  0  0  0999 V2000
   -1.6183    0.5613    3.8201 C   0  0  0  0  0  0  0  0  0  0  0  0
   -0.6710   -0.0534    3.3444 O   0  0  0  0  0  0  0  0  0  0  0  0
   -2.0502    0.2789    5.2208 C   0  0  0  0  0  0  0  0  0  0  0  0
   -2.8099   -0.5175    5.2742 H   0  0  0  0  0  0  0  0  0  0  0  0
   -1.2190   -0.0687    5.8551 H   0  0  0  0  0  0  0  0  0  0  0  0
   -2.4882    1.1338    5.7604 H   0  0  0  0  0  0  0  0  0  0  0  0
   -2.3680    1.5337    3.1790 N   0  0  0  0  0  0  0  0  0  0  0  0
   -2.1212    1.9597    1.8266 C   0  0  2  0  0  0  0  0  0  0  0  0
   -0.7862    1.3744    1.3854 C   0  0  0  0  0  0  0  0  0  0  0  0
    0.0859    1.0216    2.1767 O   0  0  0  0  0  0  0  0  0  0  0  0
   -2.1124    3.4765    1.7171 C   0  0  0  0  0  0  0  0  0  0  0  0
   -3.1331    1.9695    3.6908 H   0  0  0  0  0  0  0  0  0  0  0  0
   -2.9253    1.5413    1.2115 H   0  0  0  0  0  0  0  0  0  0  0  0
   -1.3133    3.9138    2.3268 H   0  0  0  0  0  0  0  0  0  0  0  0
   -1.9529    3.7988    0.6829 H   0  0  0  0  0  0  0  0  0  0  0  0
   -3.0626    3.8977    2.0629 H   0  0  0  0  0  0  0  0  0  0  0  0
   -0.6635    1.3313    0.0020 N   0  0  0  0  0  0  0  0  0  0  0  0
    0.5138    0.8305   -0.6617 C   0  0  2  0  0  0  0  0  0  0  0  0
    0.0641    0.2403   -1.9934 C   0  0  0  0  0  0  0  0  0  0  0  0
   -1.1032    0.2684   -2.3777 O   0  0  0  0  0  0  0  0  0  0  0  0
    1.2417   -0.2299    0.1725 C   0  0  0  0  0  0  0  0  0  0  0  0
    1.7845    0.3191    1.4693 C   0  0  0  0  0  0  0  0  0  0  0  0
    2.9048    1.1119    1.4775 N   0  0  0  0  0  0  0  0  0  0  0  0
    1.2969    0.1354    2.7416 C   0  0  0  0  0  0  0  0  0  0  0  0
    3.0961    1.4079    2.7439 C   0  0  0  0  0  0  0  0  0  0  0  0
    2.1477    0.8384    3.5473 N   0  0  0  0  0  0  0  0  0  0  0  0
   -1.4467    1.6280   -0.5753 H   0  0  0  0  0  0  0  0  0  0  0  0
    1.1574    1.6973   -0.8523 H   0  0  0  0  0  0  0  0  0  0  0  0
    2.0586   -0.6772   -0.4100 H   0  0  0  0  0  0  0  0  0  0  0  0
    0.5663   -1.0630    0.4078 H   0  0  0  0  0  0  0  0  0  0  0  0
    0.4530   -0.4116    3.1370 H   0  0  0  0  0  0  0  0  0  0  0  0
    3.8920    2.0219    3.1412 H   0  0  0  0  0  0  0  0  0  0  0  0
    2.0866    0.9229    4.5532 H   0  0  0  0  0  0  0  0  0  0  0  0
    1.1289   -0.2747   -2.7196 N   0  0  0  0  0  0  0  0  0  0  0  0
    0.9825   -0.8725   -4.0272 C   0  0  2  0  0  0  0  0  0  0  0  0
   -0.1396   -1.8994   -3.9519 C   0  0  0  0  0  0  0  0  0  0  0  0
   -0.4994   -2.4240   -2.9000 O   0  0  0  0  0  0  0  0  0  0  0  0
    2.2798   -1.5178   -4.4891 C   0  0  0  0  0  0  0  0  0  0  0  0
    2.0579   -0.2292   -2.3113 H   0  0  0  0  0  0  0  0  0  0  0  0
    0.6962   -0.0674   -4.7127 H   0  0  0  0  0  0  0  0  0  0  0  0
    2.5827   -2.3269   -3.8145 H   0  0  0  0  0  0  0  0  0  0  0  0
    2.1753   -1.9452   -5.4918 H   0  0  0  0  0  0  0  0  0  0  0  0
    3.0927   -0.7841   -4.5141 H   0  0  0  0  0  0  0  0  0  0  0  0
   -0.6630   -2.1933   -5.2033 N   0  0  0  0  0  0  0  0  0  0  0  0
   -1.7296   -3.1475   -5.3978 C   0  0  0  0  0  0  0  0  0  0  0  0
   -0.3170   -1.6964   -6.0188 H   0  0  0  0  0  0  0  0  0  0  0  0
   -1.3016   -4.1390   -5.6068 H   0  0  0  0  0  0  0  0  0  0  0  0
   -2.3460   -3.1987   -4.4881 H   0  0  0  0  0  0  0  0  0  0  0  0
   -2.3540   -2.8315   -6.2465 H   0  0  0  0  0  0  0  0  0  0  0  0
 22 24  2  0  0  0  0
 24 26  1  0  0  0  0
 23 25  2  0  0  0  0
 25 26  1  0  0  0  0
 21 22  1  0  0  0  0
 22 23  1  0  0  0  0
  1  3  1  0  0  0  0
  1  7  1  0  0  0  0
  1  2  2  0  0  0  0
 35 36  1  0  0  0  0
 36 44  1  0  0  0  0
 36 37  2  0  0  0  0
  8  9  1  0  0  0  0
  9 17  1  0  0  0  0
  9 10  2  0  0  0  0
 18 19  1  0  0  0  0
 19 34  1  0  0  0  0
 19 20  2  0  0  0  0
 35 38  1  0  0  0  0
  8 11  1  0  0  0  0
 44 45  1  0  0  0  0
 18 21  1  0  0  0  0
 34 35  1  0  0  0  0
  7  8  1  0  0  0  0
 17 18  1  0  0  0  0
 24 31  1  0  0  0  0
 25 32  1  0  0  0  0
  3  4  1  0  0  0  0
  3  5  1  0  0  0  0
  3  6  1  0  0  0  0
 38 41  1  0  0  0  0
 38 42  1  0  0  0  0
 38 43  1  0  0  0  0
 11 14  1  0  0  0  0
 11 15  1  0  0  0  0
 11 16  1  0  0  0  0
 45 47  1  0  0  0  0
 45 48  1  0  0  0  0
 45 49  1  0  0  0  0
 21 29  1  0  0  0  0
 21 30  1  0  0  0  0
 35 40  1  0  0  0  0
  8 13  1  0  0  0  0
 18 28  1  0  0  0  0
 26 33  1  0  0  0  0
 44 46  1  0  0  0  0
  7 12  1  0  0  0  0
 34 39  1  0  0  0  0
 17 27  1  0  0  0  0
M  END
$$$$

  -OEChem-05262214473D

 49 49  0     1  0  0  0  0  0999 V2000
   -1.6183    0.5613    3.8201 C   0  0  0  0  0  0  0  0  0  0  0  0
   -0.6710   -0.0534    3.3444 O   0  0  0  0  0  0  0  0  0  0  0  0
   -2.0502    0.2789    5.2208 C   0  0  0  0  0  0  0  0  0  0  0  0
   -2.8099   -0.5175    5.2742 H   0  0  0  0  0  0  0  0  0  0  0  0
   -1.2190   -0.0687    5.8551 H   0  0  0  0  0  0  0  0  0  0  0  0
   -2.4882    1.1338    5.7604 H   0  0  0  0  0  0  0  0  0  0  0  0
   -2.3680    1.5337    3.1790 N   0  0  0  0  0  0  0  0  0  0  0  0
   -2.1212    1.9597    1.8266 C   0  0  2  0  0  0  0  0  0  0  0  0
   -0.7862    1.3744    1.3854 C   0  0  0  0  0  0  0  0  0  0  0  0
    0.0859    1.0216    2.1767 O   0  0  0  0  0  0  0  0  0  0  0  0
   -2.1124    3.4765    1.7171 C   0  0  0  0  0  0  0  0  0  0  0  0
   -3.1331    1.9695    3.6908 H   0  0  0  0  0  0  0  0  0  0  0  0
   -2.9253    1.5413    1.2115 H   0  0  0  0  0  0  0  0  0  0  0  0
   -1.3133    3.9138    2.3268 H   0  0  0  0  0  0  0  0  0  0  0  0
   -1.9529    3.7988    0.6829 H   0  0  0  0  0  0  0  0  0  0  0  0
   -3.0626    3.8977    2.0629 H   0  0  0  0  0  0  0  0  0  0  0  0
   -0.6635    1.3313    0.0020 N   0  0  0  0  0  0  0  0  0  0  0  0
    0.5138    0.8305   -0.6617 C   0  0  2  0  0  0  0  0  0  0  0  0
    0.0641    0.2403   -1.9934 C   0  0  0  0  0  0  0  0  0  0  0  0
   -1.0252    0.4932   -2.5037 O   0  0  0  0  0  0  0  0  0  0  0  0
    1.2417   -0.2299    0.1725 C   0  0  0  0  0  0  0  0  0  0  0  0
    1.7845    0.3191    1.4693 C   0  0  0  0  0  0  0  0  0  0  0  0
    2.9048    1.1119    1.4775 N   0  0  0  0  0  0  0  0  0  0  0  0
    1.2969    0.1354    2.7416 C   0  0  0  0  0  0  0  0  0  0  0  0
    3.0961    1.4079    2.7439 C   0  0  0  0  0  0  0  0  0  0  0  0
    2.1477    0.8384    3.5473 N   0  0  0  0  0  0  0  0  0  0  0  0
   -1.4467    1.6280   -0.5753 H   0  0  0  0  0  0  0  0  0  0  0  0
    1.1574    1.6973   -0.8523 H   0  0  0  0  0  0  0  0  0  0  0  0
    2.0586   -0.6772   -0.4100 H   0  0  0  0  0  0  0  0  0  0  0  0
    0.5663   -1.0630    0.4078 H   0  0  0  0  0  0  0  0  0  0  0  0
    0.4530   -0.4116    3.1370 H   0  0  0  0  0  0  0  0  0  0  0  0
    3.8920    2.0219    3.1412 H   0  0  0  0  0  0  0  0  0  0  0  0
    2.0866    0.9229    4.5532 H   0  0  0  0  0  0  0  0  0  0  0  0
    1.0438   -0.5602   -2.5643 N   0  0  0  0  0  0  0  0  0  0  0  0
    0.8839   -1.2231   -3.8386 C   0  0  2  0  0  0  0  0  0  0  0  0
   -0.4464   -1.9643   -3.8196 C   0  0  0  0  0  0  0  0  0  0  0  0
   -1.0117   -2.3012   -2.7814 O   0  0  0  0  0  0  0  0  0  0  0  0
    2.0347   -2.1785   -4.1135 C   0  0  0  0  0  0  0  0  0  0  0  0
    1.9170   -0.6866   -2.0611 H   0  0  0  0  0  0  0  0  0  0  0  0
    0.8543   -0.4379   -4.6019 H   0  0  0  0  0  0  0  0  0  0  0  0
    2.0804   -2.9722   -3.3589 H   0  0  0  0  0  0  0  0  0  0  0  0
    1.9268   -2.6585   -5.0918 H   0  0  0  0  0  0  0  0  0  0  0  0
    2.9933   -1.6489   -4.0973 H   0  0  0  0  0  0  0  0  0  0  0  0
   -0.9067   -2.2433   -5.0988 N   0  0  0  0  0  0  0  0  0  0  0  0
   -2.1417   -2.9500   -5.3461 C   0  0  0  0  0  0  0  0  0  0  0  0
   -0.3826   -1.9094   -5.9023 H   0  0  0  0  0  0  0  0  0  0  0  0
   -1.9360   -4.0262   -5.4426 H   0  0  0  0  0  0  0  0  0  0  0  0
   -2.8339   -2.7828   -4.5077 H   0  0  0  0  0  0  0  0  0  0  0  0
   -2.5964   -2.5789   -6.2765 H   0  0  0  0  0  0  0  0  0  0  0  0
 22 24  2  0  0  0  0
 24 26  1  0  0  0  0
 23 25  2  0  0  0  0
 25 26  1  0  0  0  0
 21 22  1  0  0  0  0
 22 23  1  0  0  0  0
  1  3  1  0  0  0  0
  1  7  1  0  0  0  0
  1  2  2  0  0  0  0
 35 36  1  0  0  0  0
 36 44  1  0  0  0  0
 36 37  2  0  0  0  0
  8  9  1  0  0  0  0
  9 17  1  0  0  0  0
  9 10  2  0  0  0  0
 18 19  1  0  0  0  0
 19 34  1  0  0  0  0
 19 20  2  0  0  0  0
 35 38  1  0  0  0  0
  8 11  1  0  0  0  0
 44 45  1  0  0  0  0
 18 21  1  0  0  0  0
 34 35  1  0  0  0  0
  7  8  1  0  0  0  0
 17 18  1  0  0  0  0
 24 31  1  0  0  0  0
 25 32  1  0  0  0  0
  3  4  1  0  0  0  0
  3  5  1  0  0  0  0
  3  6  1  0  0  0  0
 38 41  1  0  0  0  0
 38 42  1  0  0  0  0
 38 43  1  0  0  0  0
 11 14  1  0  0  0  0
 11 15  1  0  0  0  0
 11 16  1  0  0  0  0
 45 47  1  0  0  0  0
 45 48  1  0  0  0  0
 45 49  1  0  0  0  0
 21 29  1  0  0  0  0
 21 30  1  0  0  0  0
 35 40  1  0  0  0  0
  8 13  1  0  0  0  0
 18 28  1  0  0  0  0
 26 33  1  0  0  0  0
 44 46  1  0  0  0  0
  7 12  1  0  0  0  0
 34 39  1  0  0  0  0
 17 27  1  0  0  0  0
M  END
$$$$

  -OEChem-05262214473D

 49 49  0     1  0  0  0  0  0999 V2000
   -1.6183    0.5613    3.8201 C   0  0  0  0  0  0  0  0  0  0  0  0
   -0.6710   -0.0534    3.3444 O   0  0  0  0  0  0  0  0  0  0  0  0
   -2.0502    0.2789    5.2208 C   0  0  0  0  0  0  0  0  0  0  0  0
   -2.8099   -0.5175    5.2742 H   0  0  0  0  0  0  0  0  0  0  0  0
   -1.2190   -0.0687    5.8551 H   0  0  0  0  0  0  0  0  0  0  0  0
   -2.4882    1.1338    5.7604 H   0  0  0  0  0  0  0  0  0  0  0  0
   -2.3680    1.5337    3.1790 N   0  0  0  0  0  0  0  0  0  0  0  0
   -2.1212    1.9597    1.8266 C   0  0  2  0  0  0  0  0  0  0  0  0
   -0.7862    1.3744    1.3854 C   0  0  0  0  0  0  0  0  0  0  0  0
    0.0859    1.0216    2.1767 O   0  0  0  0  0  0  0  0  0  0  0  0
   -2.1124    3.4765    1.7171 C   0  0  0  0  0  0  0  0  0  0  0  0
   -3.1331    1.9695    3.6908 H   0  0  0  0  0  0  0  0  0  0  0  0
   -2.9253    1.5413    1.2115 H   0  0  0  0  0  0  0  0  0  0  0  0
   -1.3133    3.9138    2.3268 H   0  0  0  0  0  0  0  0  0  0  0  0
   -1.9529    3.7988    0.6829 H   0  0  0  0  0  0  0  0  0  0  0  0
   -3.0626    3.8977    2.0629 H   0  0  0  0  0  0  0  0  0  0  0  0
   -0.6635    1.3313    0.0020 N   0  0  0  0  0  0  0  0  0  0  0  0
    0.5138    0.8305   -0.6617 C   0  0  2  0  0  0  0  0  0  0  0  0
    0.0641    0.2403   -1.9934 C   0  0  0  0  0  0  0  0  0  0  0  0
   -0.8865    0.6831   -2.6347 O   0  0  0  0  0  0  0  0  0  0  0  0
    1.2417   -0.2299    0.1725 C   0  0  0  0  0  0  0  0  0  0  0  0
    1.7845    0.3191    1.4693 C   0  0  0  0  0  0  0  0  0  0  0  0
    2.9048    1.1119    1.4775 N   0  0  0  0  0  0  0  0  0  0  0  0
    1.2969    0.1354    2.7416 C   0  0  0  0  0  0  0  0  0  0  0  0
    3.0961    1.4079    2.7439 C   0  0  0  0  0  0  0  0  0  0  0  0
    2.1477    0.8384    3.5473 N   0  0  0  0  0  0  0  0  0  0  0  0
   -1.4467    1.6280   -0.5753 H   0  0  0  0  0  0  0  0  0  0  0  0
    1.1574    1.6973   -0.8523 H   0  0  0  0  0  0  0  0  0  0  0  0
    2.0586   -0.6772   -0.4100 H   0  0  0  0  0  0  0  0  0  0  0  0
    0.5663   -1.0630    0.4078 H   0  0  0  0  0  0  0  0  0  0  0  0
    0.4530   -0.4116    3.1370 H   0  0  0  0  0  0  0  0  0  0  0  0
    3.8920    2.0219    3.1412 H   0  0  0  0  0  0  0  0  0  0  0  0
    2.0866    0.9229    4.5532 H   0  0  0  0  0  0  0  0  0  0  0  0
    0.8814   -0.8049   -2.4010 N   0  0  0  0  0  0  0  0  0  0  0  0
    0.6906   -1.5250   -3.6395 C   0  0  2  0  0  0  0  0  0  0  0  0
   -0.7706   -1.9475   -3.7176 C   0  0  0  0  0  0  0  0  0  0  0  0
   -1.4907   -2.0578   -2.7275 O   0  0  0  0  0  0  0  0  0  0  0  0
    1.6109   -2.7326   -3.7248 C   0  0  0  0  0  0  0  0  0  0  0  0
    1.6524   -1.0774   -1.7985 H   0  0  0  0  0  0  0  0  0  0  0  0
    0.9122   -0.8231   -4.4508 H   0  0  0  0  0  0  0  0  0  0  0  0
    1.4036   -3.4472   -2.9199 H   0  0  0  0  0  0  0  0  0  0  0  0
    1.4855   -3.2607   -4.6759 H   0  0  0  0  0  0  0  0  0  0  0  0
    2.6601   -2.4300   -3.6386 H   0  0  0  0  0  0  0  0  0  0  0  0
   -1.1638   -2.2285   -5.0186 N   0  0  0  0  0  0  0  0  0  0  0  0
   -2.5003   -2.6620   -5.3527 C   0  0  0  0  0  0  0  0  0  0  0  0
   -0.5057   -2.0913   -5.7801 H   0  0  0  0  0  0  0  0  0  0  0  0
   -2.5397   -3.7613   -5.3562 H   0  0  0  0  0  0  0  0  0  0  0  0
   -3.2092   -2.2722   -4.6073 H   0  0  0  0  0  0  0  0  0  0  0  0
   -2.7704   -2.2824   -6.3491 H   0  0  0  0  0  0  0  0  0  0  0  0
 22 24  2  0  0  0  0
 24 26  1  0  0  0  0
 23 25  2  0  0  0  0
 25 26  1  0  0  0  0
 21 22  1  0  0  0  0
 22 23  1  0  0  0  0
  1  3  1  0  0  0  0
  1  7  1  0  0  0  0
  1  2  2  0  0  0  0
 35 36  1  0  0  0  0
 36 44  1  0  0  0  0
 36 37  2  0  0  0  0
  8  9  1  0  0  0  0
  9 17  1  0  0  0  0
  9 10  2  0  0  0  0
 18 19  1  0  0  0  0
 19 34  1  0  0  0  0
 19 20  2  0  0  0  0
 35 38  1  0  0  0  0
  8 11  1  0  0  0  0
 44 45  1  0  0  0  0
 18 21  1  0  0  0  0
 34 35  1  0  0  0  0
  7  8  1  0  0  0  0
 17 18  1  0  0  0  0
 24 31  1  0  0  0  0
 25 32  1  0  0  0  0
  3  4  1  0  0  0  0
  3  5  1  0  0  0  0
  3  6  1  0  0  0  0
 38 41  1  0  0  0  0
 38 42  1  0  0  0  0
 38 43  1  0  0  0  0
 11 14  1  0  0  0  0
 11 15  1  0  0  0  0
 11 16  1  0  0  0  0
 45 47  1  0  0  0  0
 45 48  1  0  0  0  0
 45 49  1  0  0  0  0
 21 29  1  0  0  0  0
 21 30  1  0  0  0  0
 35 40  1  0  0  0  0
  8 13  1  0  0  0  0
 18 28  1  0  0  0  0
 26 33  1  0  0  0  0
 44 46  1  0  0  0  0
  7 12  1  0  0  0  0
 34 39  1  0  0  0  0
 17 27  1  0  0  0  0
M  END
$$$$

  -OEChem-05262214473D

 49 49  0     1  0  0  0  0  0999 V2000
   -1.6183    0.5613    3.8201 C   0  0  0  0  0  0  0  0  0  0  0  0
   -0.6710   -0.0534    3.3444 O   0  0  0  0  0  0  0  0  0  0  0  0
   -2.0502    0.2789    5.2208 C   0  0  0  0  0  0  0  0  0  0  0  0
   -2.8099   -0.5175    5.2742 H   0  0  0  0  0  0  0  0  0  0  0  0
   -1.2190   -0.0687    5.8551 H   0  0  0  0  0  0  0  0  0  0  0  0
   -2.4882    1.1338    5.7604 H   0  0  0  0  0  0  0  0  0  0  0  0
   -2.3680    1.5337    3.1790 N   0  0  0  0  0  0  0  0  0  0  0  0
   -2.1212    1.9597    1.8266 C   0  0  2  0  0  0  0  0  0  0  0  0
   -0.7862    1.3744    1.3854 C   0  0  0  0  0  0  0  0  0  0  0  0
    0.0859    1.0216    2.1767 O   0  0  0  0  0  0  0  0  0  0  0  0
   -2.1124    3.4765    1.7171 C   0  0  0  0  0  0  0  0  0  0  0  0
   -3.1331    1.9695    3.6908 H   0  0  0  0  0  0  0  0  0  0  0  0
   -2.9253    1.5413    1.2115 H   0  0  0  0  0  0  0  0  0  0  0  0
   -1.3133    3.9138    2.3268 H   0  0  0  0  0  0  0  0  0  0  0  0
   -1.9529    3.7988    0.6829 H   0  0  0  0  0  0  0  0  0  0  0  0
   -3.0626    3.8977    2.0629 H   0  0  0  0  0  0  0  0  0  0  0  0
   -0.6635    1.3313    0.0020 N   0  0  0  0  0  0  0  0  0  0  0  0
    0.5138    0.8305   -0.6617 C   0  0  2  0  0  0  0  0  0  0  0  0
    0.0641    0.2403   -1.9934 C   0  0  0  0  0  0  0  0  0  0  0  0
   -0.6965    0.8251   -2.7618 O   0  0  0  0  0  0  0  0  0  0  0  0
    1.2417   -0.2299    0.1725 C   0  0  0  0  0  0  0  0  0  0  0  0
    1.7845    0.3191    1.4693 C   0  0  0  0  0  0  0  0  0  0  0  0
    2.9048    1.1119    1.4775 N   0  0  0  0  0  0  0  0  0  0  0  0
    1.2969    0.1354    2.7416 C   0  0  0  0  0  0  0  0  0  0  0  0
    3.0961    1.4079    2.7439 C   0  0  0  0  0  0  0  0  0  0  0  0
    2.1477    0.8384    3.5473 N   0  0  0  0  0  0  0  0  0  0  0  0
   -1.4467    1.6280   -0.5753 H   0  0  0  0  0  0  0  0  0  0  0  0
    1.1574    1.6973   -0.8523 H   0  0  0  0  0  0  0  0  0  0  0  0
    2.0586   -0.6772   -0.4100 H   0  0  0  0  0  0  0  0  0  0  0  0
    0.5663   -1.0630    0.4078 H   0  0  0  0  0  0  0  0  0  0  0  0
    0.4530   -0.4116    3.1370 H   0  0  0  0  0  0  0  0  0  0  0  0
    3.8920    2.0219    3.1412 H   0  0  0  0  0  0  0  0  0  0  0  0
    2.0866    0.9229    4.5532 H   0  0  0  0  0  0  0  0  0  0  0  0
    0.6528   -0.9920   -2.2409 N   0  0  0  0  0  0  0  0  0  0  0  0
    0.4156   -1.7577   -3.4435 C   0  0  2  0  0  0  0  0  0  0  0  0
   -1.0901   -1.8501   -3.6528 C   0  0  0  0  0  0  0  0  0  0  0  0
   -1.9038   -1.7103   -2.7421 O   0  0  0  0  0  0  0  0  0  0  0  0
    1.0373   -3.1424   -3.3496 C   0  0  0  0  0  0  0  0  0  0  0  0
    1.2821   -1.3751   -1.5416 H   0  0  0  0  0  0  0  0  0  0  0  0
    0.8659   -1.1967   -4.2696 H   0  0  0  0  0  0  0  0  0  0  0  0
    0.5986   -3.7194   -2.5274 H   0  0  0  0  0  0  0  0  0  0  0  0
    0.8813   -3.7108   -4.2724 H   0  0  0  0  0  0  0  0  0  0  0  0
    2.1156   -3.0740   -3.1693 H   0  0  0  0  0  0  0  0  0  0  0  0
   -1.4168   -2.1500   -4.9679 N   0  0  0  0  0  0  0  0  0  0  0  0
   -2.7809   -2.3033   -5.4169 C   0  0  0  0  0  0  0  0  0  0  0  0
   -0.6781   -2.2299   -5.6605 H   0  0  0  0  0  0  0  0  0  0  0  0
   -3.0716   -3.3623   -5.3534 H   0  0  0  0  0  0  0  0  0  0  0  0
   -3.4462   -1.7018   -4.7800 H   0  0  0  0  0  0  0  0  0  0  0  0
   -2.8643   -1.9622   -6.4594 H   0  0  0  0  0  0  0  0  0  0  0  0
 22 24  2  0  0  0  0
 24 26  1  0  0  0  0
 23 25  2  0  0  0  0
 25 26  1  0  0  0  0
 21 22  1  0  0  0  0
 22 23  1  0  0  0  0
  1  3  1  0  0  0  0
  1  7  1  0  0  0  0
  1  2  2  0  0  0  0
 35 36  1  0  0  0  0
 36 44  1  0  0  0  0
 36 37  2  0  0  0  0
  8  9  1  0  0  0  0
  9 17  1  0  0  0  0
  9 10  2  0  0  0  0
 18 19  1  0  0  0  0
 19 34  1  0  0  0  0
 19 20  2  0  0  0  0
 35 38  1  0  0  0  0
  8 11  1  0  0  0  0
 44 45  1  0  0  0  0
 18 21  1  0  0  0  0
 34 35  1  0  0  0  0
  7  8  1  0  0  0  0
 17 18  1  0  0  0  0
 24 31  1  0  0  0  0
 25 32  1  0  0  0  0
  3  4  1  0  0  0  0
  3  5  1  0  0  0  0
  3  6  1  0  0  0  0
 38 41  1  0  0  0  0
 38 42  1  0  0  0  0
 38 43  1  0  0  0  0
 11 14  1  0  0  0  0
 11 15  1  0  0  0  0
 11 16  1  0  0  0  0
 45 47  1  0  0  0  0
 45 48  1  0  0  0  0
 45 49  1  0  0  0  0
 21 29  1  0  0  0  0
 21 30  1  0  0  0  0
 35 40  1  0  0  0  0
  8 13  1  0  0  0  0
 18 28  1  0  0  0  0
 26 33  1  0  0  0  0
 44 46  1  0  0  0  0
  7 12  1  0  0  0  0
 34 39  1  0  0  0  0
 17 27  1  0  0  0  0
M  END
$$$$

  -OEChem-05262214473D

 49 49  0     1  0  0  0  0  0999 V2000
   -1.6183    0.5613    3.8201 C   0  0  0  0  0  0  0  0  0  0  0  0
   -0.6710   -0.0534    3.3444 O   0  0  0  0  0  0  0  0  0  0  0  0
   -2.0502    0.2789    5.2208 C   0  0  0  0  0  0  0  0  0  0  0  0
   -2.8099   -0.5175    5.2742 H   0  0  0  0  0  0  0  0  0  0  0  0
   -1.2190   -0.0687    5.8551 H   0  0  0  0  0  0  0  0  0  0  0  0
   -2.4882    1.1338    5.7604 H   0  0  0  0  0  0  0  0  0  0  0  0
   -2.3680    1.5337    3.1790 N   0  0  0  0  0  0  0  0  0  0  0  0
   -2.1212    1.9597    1.8266 C   0  0  2  0  0  0  0  0  0  0  0  0
   -0.7862    1.3744    1.3854 C   0  0  0  0  0  0  0  0  0  0  0  0
    0.0859    1.0216    2.1767 O   0  0  0  0  0  0  0  0  0  0  0  0
   -2.1124    3.4765    1.7171 C   0  0  0  0  0  0  0  0  0  0  0  0
   -3.1331    1.9695    3.6908 H   0  0  0  0  0  0  0  0  0  0  0  0
   -2.9253    1.5413    1.2115 H   0  0  0  0  0  0  0  0  0  0  0  0
   -1.3133    3.9138    2.3268 H   0  0  0  0  0  0  0  0  0  0  0  0
   -1.9529    3.7988    0.6829 H   0  0  0  0  0  0  0  0  0  0  0  0
   -3.0626    3.8977    2.0629 H   0  0  0  0  0  0  0  0  0  0  0  0
   -0.6635    1.3313    0.0020 N   0  0  0  0  0  0  0  0  0  0  0  0
    0.5138    0.8305   -0.6617 C   0  0  2  0  0  0  0  0  0  0  0  0
    0.0641    0.2403   -1.9934 C   0  0  0  0  0  0  0  0  0  0  0  0
   -0.4681    0.9097   -2.8764 O   0  0  0  0  0  0  0  0  0  0  0  0
    1.2417   -0.2299    0.1725 C   0  0  0  0  0  0  0  0  0  0  0  0
    1.7845    0.3191    1.4693 C   0  0  0  0  0  0  0  0  0  0  0  0
    2.9048    1.1119    1.4775 N   0  0  0  0  0  0  0  0  0  0  0  0
    1.2969    0.1354    2.7416 C   0  0  0  0  0  0  0  0  0  0  0  0
    3.0961    1.4079    2.7439 C   0  0  0  0  0  0  0  0  0  0  0  0
    2.1477    0.8384    3.5473 N   0  0  0  0  0  0  0  0  0  0  0  0
   -1.4467    1.6280   -0.5753 H   0  0  0  0  0  0  0  0  0  0  0  0
    1.1574    1.6973   -0.8523 H   0  0  0  0  0  0  0  0  0  0  0  0
    2.0586   -0.6772   -0.4100 H   0  0  0  0  0  0  0  0  0  0  0  0
    0.5663   -1.0630    0.4078 H   0  0  0  0  0  0  0  0  0  0  0  0
    0.4530   -0.4116    3.1370 H   0  0  0  0  0  0  0  0  0  0  0  0
    3.8920    2.0219    3.1412 H   0  0  0  0  0  0  0  0  0  0  0  0
    2.0866    0.9229    4.5532 H   0  0  0  0  0  0  0  0  0  0  0  0
    0.3737   -1.1089   -2.0949 N   0  0  0  0  0  0  0  0  0  0  0  0
    0.0777   -1.9053   -3.2640 C   0  0  2  0  0  0  0  0  0  0  0  0
   -1.3833   -1.6789   -3.6297 C   0  0  0  0  0  0  0  0  0  0  0  0
   -2.2227   -1.2823   -2.8240 O   0  0  0  0  0  0  0  0  0  0  0  0
    0.3531   -3.3798   -3.0133 C   0  0  0  0  0  0  0  0  0  0  0  0
    0.8314   -1.5592   -1.3078 H   0  0  0  0  0  0  0  0  0  0  0  0
    0.7186   -1.5332   -4.0707 H   0  0  0  0  0  0  0  0  0  0  0  0
   -0.2799   -3.7704   -2.2082 H   0  0  0  0  0  0  0  0  0  0  0  0
    0.1555   -3.9782   -3.9088 H   0  0  0  0  0  0  0  0  0  0  0  0
    1.3970   -3.5372   -2.7214 H   0  0  0  0  0  0  0  0  0  0  0  0
   -1.6485   -2.0130   -4.9504 N   0  0  0  0  0  0  0  0  0  0  0  0
   -2.9645   -1.8982   -5.5344 C   0  0  0  0  0  0  0  0  0  0  0  0
   -0.8879   -2.3156   -5.5517 H   0  0  0  0  0  0  0  0  0  0  0  0
   -3.4954   -2.8564   -5.4345 H   0  0  0  0  0  0  0  0  0  0  0  0
   -3.5289   -1.1104   -5.0142 H   0  0  0  0  0  0  0  0  0  0  0  0
   -2.8714   -1.6401   -6.5997 H   0  0  0  0  0  0  0  0  0  0  0  0
 22 24  2  0  0  0  0
 24 26  1  0  0  0  0
 23 25  2  0  0  0  0
 25 26  1  0  0  0  0
 21 22  1  0  0  0  0
 22 23  1  0  0  0  0
  1  3  1  0  0  0  0
  1  7  1  0  0  0  0
  1  2  2  0  0  0  0
 35 36  1  0  0  0  0
 36 44  1  0  0  0  0
 36 37  2  0  0  0  0
  8  9  1  0  0  0  0
  9 17  1  0  0  0  0
  9 10  2  0  0  0  0
 18 19  1  0  0  0  0
 19 34  1  0  0  0  0
 19 20  2  0  0  0  0
 35 38  1  0  0  0  0
  8 11  1  0  0  0  0
 44 45  1  0  0  0  0
 18 21  1  0  0  0  0
 34 35  1  0  0  0  0
  7  8  1  0  0  0  0
 17 18  1  0  0  0  0
 24 31  1  0  0  0  0
 25 32  1  0  0  0  0
  3  4  1  0  0  0  0
  3  5  1  0  0  0  0
  3  6  1  0  0  0  0
 38 41  1  0  0  0  0
 38 42  1  0  0  0  0
 38 43  1  0  0  0  0
 11 14  1  0  0  0  0
 11 15  1  0  0  0  0
 11 16  1  0  0  0  0
 45 47  1  0  0  0  0
 45 48  1  0  0  0  0
 45 49  1  0  0  0  0
 21 29  1  0  0  0  0
 21 30  1  0  0  0  0
 35 40  1  0  0  0  0
  8 13  1  0  0  0  0
 18 28  1  0  0  0  0
 26 33  1  0  0  0  0
 44 46  1  0  0  0  0
  7 12  1  0  0  0  0
 34 39  1  0  0  0  0
 17 27  1  0  0  0  0
M  END
$$$$

  -OEChem-05262214473D

 49 49  0     1  0  0  0  0  0999 V2000
   -1.6183    0.5613    3.8201 C   0  0  0  0  0  0  0  0  0  0  0  0
   -0.6710   -0.0534    3.3444 O   0  0  0  0  0  0  0  0  0  0  0  0
   -2.0502    0.2789    5.2208 C   0  0  0  0  0  0  0  0  0  0  0  0
   -2.8099   -0.5175    5.2742 H   0  0  0  0  0  0  0  0  0  0  0  0
   -1.2190   -0.0687    5.8551 H   0  0  0  0  0  0  0  0  0  0  0  0
   -2.4882    1.1338    5.7604 H   0  0  0  0  0  0  0  0  0  0  0  0
   -2.3680    1.5337    3.1790 N   0  0  0  0  0  0  0  0  0  0  0  0
   -2.1212    1.9597    1.8266 C   0  0  2  0  0  0  0  0  0  0  0  0
   -0.7862    1.3744    1.3854 C   0  0  0  0  0  0  0  0  0  0  0  0
    0.0859    1.0216    2.1767 O   0  0  0  0  0  0  0  0  0  0  0  0
   -2.1124    3.4765    1.7171 C   0  0  0  0  0  0  0  0  0  0  0  0
   -3.1331    1.9695    3.6908 H   0  0  0  0  0  0  0  0  0  0  0  0
   -2.9253    1.5413    1.2115 H   0  0  0  0  0  0  0  0  0  0  0  0
   -1.3133    3.9138    2.3268 H   0  0  0  0  0  0  0  0  0  0  0  0
   -1.9529    3.7988    0.6829 H   0  0  0  0  0  0  0  0  0  0  0  0
   -3.0626    3.8977    2.0629 H   0  0  0  0  0  0  0  0  0  0  0  0
   -0.6635    1.3313    0.0020 N   0  0  0  0  0  0  0  0  0  0  0  0
    0.5138    0.8305   -0.6617 C   0  0  2  0  0  0  0  0  0  0  0  0
    0.0641    0.2403   -1.9934 C   0  0  0  0  0  0  0  0  0  0  0  0
   -0.2169    0.9310   -2.9706 O   0  0  0  0  0  0  0  0  0  0  0  0
    1.2417   -0.2299    0.1725 C   0  0  0  0  0  0  0  0  0  0  0  0
    1.7845    0.3191    1.4693 C   0  0  0  0  0  0  0  0  0  0  0  0
    2.9048    1.1119    1.4775 N   0  0  0  0  0  0  0  0  0  0  0  0
    1.2969    0.1354    2.7416 C   0  0  0  0  0  0  0  0  0  0  0  0
    3.0961    1.4079    2.7439 C   0  0  0  0  0  0  0  0  0  0  0  0
    2.1477    0.8384    3.5473 N   0  0  0  0  0  0  0  0  0  0  0  0
   -1.4467    1.6280   -0.5753 H   0  0  0  0  0  0  0  0  0  0  0  0
    1.1574    1.6973   -0.8523 H   0  0  0  0  0  0  0  0  0  0  0  0
    2.0586   -0.6772   -0.4100 H   0  0  0  0  0  0  0  0  0  0  0  0
    0.5663   -1.0630    0.4078 H   0  0  0  0  0  0  0  0  0  0  0  0
    0.4530   -0.4116    3.1370 H   0  0  0  0  0  0  0  0  0  0  0  0
    3.8920    2.0219    3.1412 H   0  0  0  0  0  0  0  0  0  0  0  0
    2.0866    0.9229    4.5532 H   0  0  0  0  0  0  0  0  0  0  0  0
    0.0631   -1.1475   -1.9728 N   0  0  0  0  0  0  0  0  0  0  0  0
   -0.3000   -1.9579   -3.1132 C   0  0  2  0  0  0  0  0  0  0  0  0
   -1.6301   -1.4455   -3.6498 C   0  0  0  0  0  0  0  0  0  0  0  0
   -2.4258   -0.8030   -2.9679 O   0  0  0  0  0  0  0  0  0  0  0  0
   -0.3953   -3.4288   -2.7389 C   0  0  0  0  0  0  0  0  0  0  0  0
    0.3310   -1.6173   -1.1130 H   0  0  0  0  0  0  0  0  0  0  0  0
    0.4803   -1.8098   -3.8677 H   0  0  0  0  0  0  0  0  0  0  0  0
   -1.1720   -3.5967   -1.9839 H   0  0  0  0  0  0  0  0  0  0  0  0
   -0.6424   -4.0446   -3.6100 H   0  0  0  0  0  0  0  0  0  0  0  0
    0.5533   -3.7879   -2.3254 H   0  0  0  0  0  0  0  0  0  0  0  0
   -1.8432   -1.8270   -4.9671 N   0  0  0  0  0  0  0  0  0  0  0  0
   -3.0384   -1.4745   -5.6973 C   0  0  0  0  0  0  0  0  0  0  0  0
   -1.1208   -2.3427   -5.4610 H   0  0  0  0  0  0  0  0  0  0  0  0
   -3.7823   -2.2781   -5.5939 H   0  0  0  0  0  0  0  0  0  0  0  0
   -3.4516   -0.5383   -5.2938 H   0  0  0  0  0  0  0  0  0  0  0  0
   -2.7915   -1.3381   -6.7605 H   0  0  0  0  0  0  0  0  0  0  0  0
 22 24  2  0  0  0  0
 24 26  1  0  0  0  0
 23 25  2  0  0  0  0
 25 26  1  0  0  0  0
 21 22  1  0  0  0  0
 22 23  1  0  0  0  0
  1  3  1  0  0  0  0
  1  7  1  0  0  0  0
  1  2  2  0  0  0  0
 35 36  1  0  0  0  0
 36 44  1  0  0  0  0
 36 37  2  0  0  0  0
  8  9  1  0  0  0  0
  9 17  1  0  0  0  0
  9 10  2  0  0  0  0
 18 19  1  0  0  0  0
 19 34  1  0  0  0  0
 19 20  2  0  0  0  0
 35 38  1  0  0  0  0
  8 11  1  0  0  0  0
 44 45  1  0  0  0  0
 18 21  1  0  0  0  0
 34 35  1  0  0  0  0
  7  8  1  0  0  0  0
 17 18  1  0  0  0  0
 24 31  1  0  0  0  0
 25 32  1  0  0  0  0
  3  4  1  0  0  0  0
  3  5  1  0  0  0  0
  3  6  1  0  0  0  0
 38 41  1  0  0  0  0
 38 42  1  0  0  0  0
 38 43  1  0  0  0  0
 11 14  1  0  0  0  0
 11 15  1  0  0  0  0
 11 16  1  0  0  0  0
 45 47  1  0  0  0  0
 45 48  1  0  0  0  0
 45 49  1  0  0  0  0
 21 29  1  0  0  0  0
 21 30  1  0  0  0  0
 35 40  1  0  0  0  0
  8 13  1  0  0  0  0
 18 28  1  0  0  0  0
 26 33  1  0  0  0  0
 44 46  1  0  0  0  0
  7 12  1  0  0  0  0
 34 39  1  0  0  0  0
 17 27  1  0  0  0  0
M  END
$$$$

  -OEChem-05262214473D

 49 49  0     1  0  0  0  0  0999 V2000
   -1.6183    0.5613    3.8201 C   0  0  0  0  0  0  0  0  0  0  0  0
   -0.6710   -0.0534    3.3444 O   0  0  0  0  0  0  0  0  0  0  0  0
   -2.0502    0.2789    5.2208 C   0  0  0  0  0  0  0  0  0  0  0  0
   -2.8099   -0.5175    5.2742 H   0  0  0  0  0  0  0  0  0  0  0  0
   -1.2190   -0.0687    5.8551 H   0  0  0  0  0  0  0  0  0  0  0  0
   -2.4882    1.1338    5.7604 H   0  0  0  0  0  0  0  0  0  0  0  0
   -2.3680    1.5337    3.1790 N   0  0  0  0  0  0  0  0  0  0  0  0
   -2.1212    1.9597    1.8266 C   0  0  2  0  0  0  0  0  0  0  0  0
   -0.7862    1.3744    1.3854 C   0  0  0  0  0  0  0  0  0  0  0  0
    0.0859    1.0216    2.1767 O   0  0  0  0  0  0  0  0  0  0  0  0
   -2.1124    3.4765    1.7171 C   0  0  0  0  0  0  0  0  0  0  0  0
   -3.1331    1.9695    3.6908 H   0  0  0  0  0  0  0  0  0  0  0  0
   -2.9253    1.5413    1.2115 H   0  0  0  0  0  0  0  0  0  0  0  0
   -1.3133    3.9138    2.3268 H   0  0  0  0  0  0  0  0  0  0  0  0
   -1.9529    3.7988    0.6829 H   0  0  0  0  0  0  0  0  0  0  0  0
   -3.0626    3.8977    2.0629 H   0  0  0  0  0  0  0  0  0  0  0  0
   -0.6635    1.3313    0.0020 N   0  0  0  0  0  0  0  0  0  0  0  0
    0.5138    0.8305   -0.6617 C   0  0  2  0  0  0  0  0  0  0  0  0
    0.0641    0.2403   -1.9934 C   0  0  0  0  0  0  0  0  0  0  0  0
    0.0401    0.8875   -3.0381 O   0  0  0  0  0  0  0  0  0  0  0  0
    1.2417   -0.2299    0.1725 C   0  0  0  0  0  0  0  0  0  0  0  0
    1.7845    0.3191    1.4693 C   0  0  0  0  0  0  0  0  0  0  0  0
    2.9048    1.1119    1.4775 N   0  0  0  0  0  0  0  0  0  0  0  0
    1.2969    0.1354    2.7416 C   0  0  0  0  0  0  0  0  0  0  0  0
    3.0961    1.4079    2.7439 C   0  0  0  0  0  0  0  0  0  0  0  0
    2.1477    0.8384    3.5473 N   0  0  0  0  0  0  0  0  0  0  0  0
   -1.4467    1.6280   -0.5753 H   0  0  0  0  0  0  0  0  0  0  0  0
    1.1574    1.6973   -0.8523 H   0  0  0  0  0  0  0  0  0  0  0  0
    2.0586   -0.6772   -0.4100 H   0  0  0  0  0  0  0  0  0  0  0  0
    0.5663   -1.0630    0.4078 H   0  0  0  0  0  0  0  0  0  0  0  0
    0.4530   -0.4116    3.1370 H   0  0  0  0  0  0  0  0  0  0  0  0
    3.8920    2.0219    3.1412 H   0  0  0  0  0  0  0  0  0  0  0  0
    2.0866    0.9229    4.5532 H   0  0  0  0  0  0  0  0  0  0  0  0
   -0.2580   -1.1053   -1.8832 N   0  0  0  0  0  0  0  0  0  0  0  0
   -0.6919   -1.9117   -3.0013 C   0  0  2  0  0  0  0  0  0  0  0  0
   -1.8136   -1.1658   -3.7118 C   0  0  0  0  0  0  0  0  0  0  0  0
   -2.4992   -0.3051   -3.1637 O   0  0  0  0  0  0  0  0  0  0  0  0
   -1.1567   -3.2859   -2.5451 C   0  0  0  0  0  0  0  0  0  0  0  0
   -0.1850   -1.5455   -0.9706 H   0  0  0  0  0  0  0  0  0  0  0  0
    0.1672   -2.0076   -3.6743 H   0  0  0  0  0  0  0  0  0  0  0  0
   -2.0168   -3.2100   -1.8700 H   0  0  0  0  0  0  0  0  0  0  0  0
   -1.4581   -3.9055   -3.3961 H   0  0  0  0  0  0  0  0  0  0  0  0
   -0.3580   -3.8091   -2.0083 H   0  0  0  0  0  0  0  0  0  0  0  0
   -1.9874   -1.6046   -5.0169 N   0  0  0  0  0  0  0  0  0  0  0  0
   -2.9976   -1.0609   -5.8943 C   0  0  0  0  0  0  0  0  0  0  0  0
   -1.3610   -2.3093   -5.3947 H   0  0  0  0  0  0  0  0  0  0  0  0
   -3.9127   -1.6669   -5.8207 H   0  0  0  0  0  0  0  0  0  0  0  0
   -3.2196   -0.0245   -5.5998 H   0  0  0  0  0  0  0  0  0  0  0  0
   -2.6299   -1.0768   -6.9309 H   0  0  0  0  0  0  0  0  0  0  0  0
 22 24  2  0  0  0  0
 24 26  1  0  0  0  0
 23 25  2  0  0  0  0
 25 26  1  0  0  0  0
 21 22  1  0  0  0  0
 22 23  1  0  0  0  0
  1  3  1  0  0  0  0
  1  7  1  0  0  0  0
  1  2  2  0  0  0  0
 35 36  1  0  0  0  0
 36 44  1  0  0  0  0
 36 37  2  0  0  0  0
  8  9  1  0  0  0  0
  9 17  1  0  0  0  0
  9 10  2  0  0  0  0
 18 19  1  0  0  0  0
 19 34  1  0  0  0  0
 19 20  2  0  0  0  0
 35 38  1  0  0  0  0
  8 11  1  0  0  0  0
 44 45  1  0  0  0  0
 18 21  1  0  0  0  0
 34 35  1  0  0  0  0
  7  8  1  0  0  0  0
 17 18  1  0  0  0  0
 24 31  1  0  0  0  0
 25 32  1  0  0  0  0
  3  4  1  0  0  0  0
  3  5  1  0  0  0  0
  3  6  1  0  0  0  0
 38 41  1  0  0  0  0
 38 42  1  0  0  0  0
 38 43  1  0  0  0  0
 11 14  1  0  0  0  0
 11 15  1  0  0  0  0
 11 16  1  0  0  0  0
 45 47  1  0  0  0  0
 45 48  1  0  0  0  0
 45 49  1  0  0  0  0
 21 29  1  0  0  0  0
 21 30  1  0  0  0  0
 35 40  1  0  0  0  0
  8 13  1  0  0  0  0
 18 28  1  0  0  0  0
 26 33  1  0  0  0  0
 44 46  1  0  0  0  0
  7 12  1  0  0  0  0
 34 39  1  0  0  0  0
 17 27  1  0  0  0  0
M  END
$$$$

  -OEChem-05262214473D

 49 49  0     1  0  0  0  0  0999 V2000
   -1.6183    0.5613    3.8201 C   0  0  0  0  0  0  0  0  0  0  0  0
   -0.6710   -0.0534    3.3444 O   0  0  0  0  0  0  0  0  0  0  0  0
   -2.0502    0.2789    5.2208 C   0  0  0  0  0  0  0  0  0  0  0  0
   -2.8099   -0.5175    5.2742 H   0  0  0  0  0  0  0  0  0  0  0  0
   -1.2190   -0.0687    5.8551 H   0  0  0  0  0  0  0  0  0  0  0  0
   -2.4882    1.1338    5.7604 H   0  0  0  0  0  0  0  0  0  0  0  0
   -2.3680    1.5337    3.1790 N   0  0  0  0  0  0  0  0  0  0  0  0
   -2.1212    1.9597    1.8266 C   0  0  2  0  0  0  0  0  0  0  0  0
   -0.7862    1.3744    1.3854 C   0  0  0  0  0  0  0  0  0  0  0  0
    0.0859    1.0216    2.1767 O   0  0  0  0  0  0  0  0  0  0  0  0
   -2.1124    3.4765    1.7171 C   0  0  0  0  0  0  0  0  0  0  0  0
   -3.1331    1.9695    3.6908 H   0  0  0  0  0  0  0  0  0  0  0  0
   -2.9253    1.5413    1.2115 H   0  0  0  0  0  0  0  0  0  0  0  0
   -1.3133    3.9138    2.3268 H   0  0  0  0  0  0  0  0  0  0  0  0
   -1.9529    3.7988    0.6829 H   0  0  0  0  0  0  0  0  0  0  0  0
   -3.0626    3.8977    2.0629 H   0  0  0  0  0  0  0  0  0  0  0  0
   -0.6635    1.3313    0.0020 N   0  0  0  0  0  0  0  0  0  0  0  0
    0.5138    0.8305   -0.6617 C   0  0  2  0  0  0  0  0  0  0  0  0
    0.0641    0.2403   -1.9934 C   0  0  0  0  0  0  0  0  0  0  0  0
    0.2852    0.7823   -3.0743 O   0  0  0  0  0  0  0  0  0  0  0  0
    1.2417   -0.2299    0.1725 C   0  0  0  0  0  0  0  0  0  0  0  0
    1.7845    0.3191    1.4693 C   0  0  0  0  0  0  0  0  0  0  0  0
    2.9048    1.1119    1.4775 N   0  0  0  0  0  0  0  0  0  0  0  0
    1.2969    0.1354    2.7416 C   0  0  0  0  0  0  0  0  0  0  0  0
    3.0961    1.4079    2.7439 C   0  0  0  0  0  0  0  0  0  0  0  0
    2.1477    0.8384    3.5473 N   0  0  0  0  0  0  0  0  0  0  0  0
   -1.4467    1.6280   -0.5753 H   0  0  0  0  0  0  0  0  0  0  0  0
    1.1574    1.6973   -0.8523 H   0  0  0  0  0  0  0  0  0  0  0  0
    2.0586   -0.6772   -0.4100 H   0  0  0  0  0  0  0  0  0  0  0  0
    0.5663   -1.0630    0.4078 H   0  0  0  0  0  0  0  0  0  0  0  0
    0.4530   -0.4116    3.1370 H   0  0  0  0  0  0  0  0  0  0  0  0
    3.8920    2.0219    3.1412 H   0  0  0  0  0  0  0  0  0  0  0  0
    2.0866    0.9229    4.5532 H   0  0  0  0  0  0  0  0  0  0  0  0
   -0.5675   -0.9851   -1.8319 N   0  0  0  0  0  0  0  0  0  0  0  0
   -1.0711   -1.7699   -2.9361 C   0  0  2  0  0  0  0  0  0  0  0  0
   -1.9215   -0.8588   -3.8114 C   0  0  0  0  0  0  0  0  0  0  0  0
   -2.4380    0.1774   -3.3983 O   0  0  0  0  0  0  0  0  0  0  0  0
   -1.8792   -2.9610   -2.4451 C   0  0  0  0  0  0  0  0  0  0  0  0
   -0.6815   -1.3485   -0.8903 H   0  0  0  0  0  0  0  0  0  0  0  0
   -0.1994   -2.1131   -3.5038 H   0  0  0  0  0  0  0  0  0  0  0  0
   -2.7569   -2.6369   -1.8741 H   0  0  0  0  0  0  0  0  0  0  0  0
   -2.2360   -3.5705   -3.2820 H   0  0  0  0  0  0  0  0  0  0  0  0
   -1.2748   -3.5993   -1.7917 H   0  0  0  0  0  0  0  0  0  0  0  0
   -2.0715   -1.3610   -5.0965 N   0  0  0  0  0  0  0  0  0  0  0  0
   -2.8450   -0.6856   -6.1121 C   0  0  0  0  0  0  0  0  0  0  0  0
   -1.5921   -2.2177   -5.3573 H   0  0  0  0  0  0  0  0  0  0  0  0
   -3.8777   -1.0643   -6.0996 H   0  0  0  0  0  0  0  0  0  0  0  0
   -2.8487    0.3959   -5.9114 H   0  0  0  0  0  0  0  0  0  0  0  0
   -2.3976   -0.8739   -7.0993 H   0  0  0  0  0  0  0  0  0  0  0  0
 22 24  2  0  0  0  0
 24 26  1  0  0  0  0
 23 25  2  0  0  0  0
 25 26  1  0  0  0  0
 21 22  1  0  0  0  0
 22 23  1  0  0  0  0
  1  3  1  0  0  0  0
  1  7  1  0  0  0  0
  1  2  2  0  0  0  0
 35 36  1  0  0  0  0
 36 44  1  0  0  0  0
 36 37  2  0  0  0  0
  8  9  1  0  0  0  0
  9 17  1  0  0  0  0
  9 10  2  0  0  0  0
 18 19  1  0  0  0  0
 19 34  1  0  0  0  0
 19 20  2  0  0  0  0
 35 38  1  0  0  0  0
  8 11  1  0  0  0  0
 44 45  1  0  0  0  0
 18 21  1  0  0  0  0
 34 35  1  0  0  0  0
  7  8  1  0  0  0  0
 17 18  1  0  0  0  0
 24 31  1  0  0  0  0
 25 32  1  0  0  0  0
  3  4  1  0  0  0  0
  3  5  1  0  0  0  0
  3  6  1  0  0  0  0
 38 41  1  0  0  0  0
 38 42  1  0  0  0  0
 38 43  1  0  0  0  0
 11 14  1  0  0  0  0
 11 15  1  0  0  0  0
 11 16  1  0  0  0  0
 45 47  1  0  0  0  0
 45 48  1  0  0  0  0
 45 49  1  0  0  0  0
 21 29  1  0  0  0  0
 21 30  1  0  0  0  0
 35 40  1  0  0  0  0
  8 13  1  0  0  0  0
 18 28  1  0  0  0  0
 26 33  1  0  0  0  0
 44 46  1  0  0  0  0
  7 12  1  0  0  0  0
 34 39  1  0  0  0  0
 17 27  1  0  0  0  0
M  END
$$$$

  -OEChem-05262214473D

 49 49  0     1  0  0  0  0  0999 V2000
   -1.6183    0.5613    3.8201 C   0  0  0  0  0  0  0  0  0  0  0  0
   -0.6710   -0.0534    3.3444 O   0  0  0  0  0  0  0  0  0  0  0  0
   -2.0502    0.2789    5.2208 C   0  0  0  0  0  0  0  0  0  0  0  0
   -2.8099   -0.5175    5.2742 H   0  0  0  0  0  0  0  0  0  0  0  0
   -1.2190   -0.0687    5.8551 H   0  0  0  0  0  0  0  0  0  0  0  0
   -2.4882    1.1338    5.7604 H   0  0  0  0  0  0  0  0  0  0  0  0
   -2.3680    1.5337    3.1790 N   0  0  0  0  0  0  0  0  0  0  0  0
   -2.1212    1.9597    1.8266 C   0  0  2  0  0  0  0  0  0  0  0  0
   -0.7862    1.3744    1.3854 C   0  0  0  0  0  0  0  0  0  0  0  0
    0.0859    1.0216    2.1767 O   0  0  0  0  0  0  0  0  0  0  0  0
   -2.1124    3.4765    1.7171 C   0  0  0  0  0  0  0  0  0  0  0  0
   -3.1331    1.9695    3.6908 H   0  0  0  0  0  0  0  0  0  0  0  0
   -2.9253    1.5413    1.2115 H   0  0  0  0  0  0  0  0  0  0  0  0
   -1.3133    3.9138    2.3268 H   0  0  0  0  0  0  0  0  0  0  0  0
   -1.9529    3.7988    0.6829 H   0  0  0  0  0  0  0  0  0  0  0  0
   -3.0626    3.8977    2.0629 H   0  0  0  0  0  0  0  0  0  0  0  0
   -0.6635    1.3313    0.0020 N   0  0  0  0  0  0  0  0  0  0  0  0
    0.5138    0.8305   -0.6617 C   0  0  2  0  0  0  0  0  0  0  0  0
    0.0641    0.2403   -1.9934 C   0  0  0  0  0  0  0  0  0  0  0  0
    0.5018    0.6225   -3.0766 O   0  0  0  0  0  0  0  0  0  0  0  0
    1.2417   -0.2299    0.1725 C   0  0  0  0  0  0  0  0  0  0  0  0
    1.7845    0.3191    1.4693 C   0  0  0  0  0  0  0  0  0  0  0  0
    2.9048    1.1119    1.4775 N   0  0  0  0  0  0  0  0  0  0  0  0
    1.2969    0.1354    2.7416 C   0  0  0  0  0  0  0  0  0  0  0  0
    3.0961    1.4079    2.7439 C   0  0  0  0  0  0  0  0  0  0  0  0
    2.1477    0.8384    3.5473 N   0  0  0  0  0  0  0  0  0  0  0  0
   -1.4467    1.6280   -0.5753 H   0  0  0  0  0  0  0  0  0  0  0  0
    1.1574    1.6973   -0.8523 H   0  0  0  0  0  0  0  0  0  0  0  0
    2.0586   -0.6772   -0.4100 H   0  0  0  0  0  0  0  0  0  0  0  0
    0.5663   -1.0630    0.4078 H   0  0  0  0  0  0  0  0  0  0  0  0
    0.4530   -0.4116    3.1370 H   0  0  0  0  0  0  0  0  0  0  0  0
    3.8920    2.0219    3.1412 H   0  0  0  0  0  0  0  0  0  0  0  0
    2.0866    0.9229    4.5532 H   0  0  0  0  0  0  0  0  0  0  0  0
   -0.8444   -0.7951   -1.8226 N   0  0  0  0  0  0  0  0  0  0  0  0
   -1.4120   -1.5423   -2.9219 C   0  0  2  0  0  0  0  0  0  0  0  0
   -1.9463   -0.5455   -3.9419 C   0  0  0  0  0  0  0  0  0  0  0  0
   -2.2461    0.6117   -3.6555 O   0  0  0  0  0  0  0  0  0  0  0  0
   -2.5137   -2.4762   -2.4458 C   0  0  0  0  0  0  0  0  0  0  0  0
   -1.1245   -1.0399   -0.8775 H   0  0  0  0  0  0  0  0  0  0  0  0
   -0.5943   -2.1191   -3.3677 H   0  0  0  0  0  0  0  0  0  0  0  0
   -3.3418   -1.9162   -1.9960 H   0  0  0  0  0  0  0  0  0  0  0  0
   -2.9231   -3.0622   -3.2752 H   0  0  0  0  0  0  0  0  0  0  0  0
   -2.1346   -3.1729   -1.6904 H   0  0  0  0  0  0  0  0  0  0  0  0
   -2.0897   -1.1128   -5.2004 N   0  0  0  0  0  0  0  0  0  0  0  0
   -2.5909   -0.3743   -6.3359 C   0  0  0  0  0  0  0  0  0  0  0  0
   -1.7984   -2.0741   -5.3513 H   0  0  0  0  0  0  0  0  0  0  0  0
   -3.6797   -0.5114   -6.4114 H   0  0  0  0  0  0  0  0  0  0  0  0
   -2.3641    0.6943   -6.2073 H   0  0  0  0  0  0  0  0  0  0  0  0
   -2.1105   -0.7432   -7.2541 H   0  0  0  0  0  0  0  0  0  0  0  0
 22 24  2  0  0  0  0
 24 26  1  0  0  0  0
 23 25  2  0  0  0  0
 25 26  1  0  0  0  0
 21 22  1  0  0  0  0
 22 23  1  0  0  0  0
  1  3  1  0  0  0  0
  1  7  1  0  0  0  0
  1  2  2  0  0  0  0
 35 36  1  0  0  0  0
 36 44  1  0  0  0  0
 36 37  2  0  0  0  0
  8  9  1  0  0  0  0
  9 17  1  0  0  0  0
  9 10  2  0  0  0  0
 18 19  1  0  0  0  0
 19 34  1  0  0  0  0
 19 20  2  0  0  0  0
 35 38  1  0  0  0  0
  8 11  1  0  0  0  0
 44 45  1  0  0  0  0
 18 21  1  0  0  0  0
 34 35  1  0  0  0  0
  7  8  1  0  0  0  0
 17 18  1  0  0  0  0
 24 31  1  0  0  0  0
 25 32  1  0  0  0  0
  3  4  1  0  0  0  0
  3  5  1  0  0  0  0
  3  6  1  0  0  0  0
 38 41  1  0  0  0  0
 38 42  1  0  0  0  0
 38 43  1  0  0  0  0
 11 14  1  0  0  0  0
 11 15  1  0  0  0  0
 11 16  1  0  0  0  0
 45 47  1  0  0  0  0
 45 48  1  0  0  0  0
 45 49  1  0  0  0  0
 21 29  1  0  0  0  0
 21 30  1  0  0  0  0
 35 40  1  0  0  0  0
  8 13  1  0  0  0  0
 18 28  1  0  0  0  0
 26 33  1  0  0  0  0
 44 46  1  0  0  0  0
  7 12  1  0  0  0  0
 34 39  1  0  0  0  0
 17 27  1  0  0  0  0
M  END
$$$$

  -OEChem-05262214473D

 49 49  0     1  0  0  0  0  0999 V2000
   -1.6183    0.5613    3.8201 C   0  0  0  0  0  0  0  0  0  0  0  0
   -0.6710   -0.0534    3.3444 O   0  0  0  0  0  0  0  0  0  0  0  0
   -2.0502    0.2789    5.2208 C   0  0  0  0  0  0  0  0  0  0  0  0
   -2.8099   -0.5175    5.2742 H   0  0  0  0  0  0  0  0  0  0  0  0
   -1.2190   -0.0687    5.8551 H   0  0  0  0  0  0  0  0  0  0  0  0
   -2.4882    1.1338    5.7604 H   0  0  0  0  0  0  0  0  0  0  0  0
   -2.3680    1.5337    3.1790 N   0  0  0  0  0  0  0  0  0  0  0  0
   -2.1212    1.9597    1.8266 C   0  0  2  0  0  0  0  0  0  0  0  0
   -0.7862    1.3744    1.3854 C   0  0  0  0  0  0  0  0  0  0  0  0
    0.0859    1.0216    2.1767 O   0  0  0  0  0  0  0  0  0  0  0  0
   -2.1124    3.4765    1.7171 C   0  0  0  0  0  0  0  0  0  0  0  0
   -3.1331    1.9695    3.6908 H   0  0  0  0  0  0  0  0  0  0  0  0
   -2.9253    1.5413    1.2115 H   0  0  0  0  0  0  0  0  0  0  0  0
   -1.3133    3.9138    2.3268 H   0  0  0  0  0  0  0  0  0  0  0  0
   -1.9529    3.7988    0.6829 H   0  0  0  0  0  0  0  0  0  0  0  0
   -3.0626    3.8977    2.0629 H   0  0  0  0  0  0  0  0  0  0  0  0
   -0.6635    1.3313    0.0020 N   0  0  0  0  0  0  0  0  0  0  0  0
    0.5138    0.8305   -0.6617 C   0  0  2  0  0  0  0  0  0  0  0  0
    0.0641    0.2403   -1.9934 C   0  0  0  0  0  0  0  0  0  0  0  0
    0.6751    0.4190   -3.0449 O   0  0  0  0  0  0  0  0  0  0  0  0
    1.2417   -0.2299    0.1725 C   0  0  0  0  0  0  0  0  0  0  0  0
    1.7845    0.3191    1.4693 C   0  0  0  0  0  0  0  0  0  0  0  0
    2.9048    1.1119    1.4775 N   0  0  0  0  0  0  0  0  0  0  0  0
    1.2969    0.1354    2.7416 C   0  0  0  0  0  0  0  0  0  0  0  0
    3.0961    1.4079    2.7439 C   0  0  0  0  0  0  0  0  0  0  0  0
    2.1477    0.8384    3.5473 N   0  0  0  0  0  0  0  0  0  0  0  0
   -1.4467    1.6280   -0.5753 H   0  0  0  0  0  0  0  0  0  0  0  0
    1.1574    1.6973   -0.8523 H   0  0  0  0  0  0  0  0  0  0  0  0
    2.0586   -0.6772   -0.4100 H   0  0  0  0  0  0  0  0  0  0  0  0
    0.5663   -1.0630    0.4078 H   0  0  0  0  0  0  0  0  0  0  0  0
    0.4530   -0.4116    3.1370 H   0  0  0  0  0  0  0  0  0  0  0  0
    3.8920    2.0219    3.1412 H   0  0  0  0  0  0  0  0  0  0  0  0
    2.0866    0.9229    4.5532 H   0  0  0  0  0  0  0  0  0  0  0  0
   -1.0699   -0.5482   -1.8559 N   0  0  0  0  0  0  0  0  0  0  0  0
   -1.6911   -1.2442   -2.9597 C   0  0  2  0  0  0  0  0  0  0  0  0
   -1.8864   -0.2472   -4.0943 C   0  0  0  0  0  0  0  0  0  0  0  0
   -1.9369    0.9683   -3.9179 O   0  0  0  0  0  0  0  0  0  0  0  0
   -3.0169   -1.8644   -2.5469 C   0  0  0  0  0  0  0  0  0  0  0  0
   -1.4840   -0.6407   -0.9330 H   0  0  0  0  0  0  0  0  0  0  0  0
   -0.9908   -2.0252   -3.2755 H   0  0  0  0  0  0  0  0  0  0  0  0
   -3.7315   -1.0972   -2.2273 H   0  0  0  0  0  0  0  0  0  0  0  0
   -3.4725   -2.4154   -3.3763 H   0  0  0  0  0  0  0  0  0  0  0  0
   -2.8789   -2.5588   -1.7112 H   0  0  0  0  0  0  0  0  0  0  0  0
   -2.0407   -0.8768   -5.3215 N   0  0  0  0  0  0  0  0  0  0  0  0
   -2.2527   -0.1481   -6.5504 C   0  0  0  0  0  0  0  0  0  0  0  0
   -1.9657   -1.8882   -5.3771 H   0  0  0  0  0  0  0  0  0  0  0  0
   -3.3323   -0.0459   -6.7351 H   0  0  0  0  0  0  0  0  0  0  0  0
   -1.7989    0.8505   -6.4673 H   0  0  0  0  0  0  0  0  0  0  0  0
   -1.7881   -0.6938   -7.3849 H   0  0  0  0  0  0  0  0  0  0  0  0
 22 24  2  0  0  0  0
 24 26  1  0  0  0  0
 23 25  2  0  0  0  0
 25 26  1  0  0  0  0
 21 22  1  0  0  0  0
 22 23  1  0  0  0  0
  1  3  1  0  0  0  0
  1  7  1  0  0  0  0
  1  2  2  0  0  0  0
 35 36  1  0  0  0  0
 36 44  1  0  0  0  0
 36 37  2  0  0  0  0
  8  9  1  0  0  0  0
  9 17  1  0  0  0  0
  9 10  2  0  0  0  0
 18 19  1  0  0  0  0
 19 34  1  0  0  0  0
 19 20  2  0  0  0  0
 35 38  1  0  0  0  0
  8 11  1  0  0  0  0
 44 45  1  0  0  0  0
 18 21  1  0  0  0  0
 34 35  1  0  0  0  0
  7  8  1  0  0  0  0
 17 18  1  0  0  0  0
 24 31  1  0  0  0  0
 25 32  1  0  0  0  0
  3  4  1  0  0  0  0
  3  5  1  0  0  0  0
  3  6  1  0  0  0  0
 38 41  1  0  0  0  0
 38 42  1  0  0  0  0
 38 43  1  0  0  0  0
 11 14  1  0  0  0  0
 11 15  1  0  0  0  0
 11 16  1  0  0  0  0
 45 47  1  0  0  0  0
 45 48  1  0  0  0  0
 45 49  1  0  0  0  0
 21 29  1  0  0  0  0
 21 30  1  0  0  0  0
 35 40  1  0  0  0  0
  8 13  1  0  0  0  0
 18 28  1  0  0  0  0
 26 33  1  0  0  0  0
 44 46  1  0  0  0  0
  7 12  1  0  0  0  0
 34 39  1  0  0  0  0
 17 27  1  0  0  0  0
M  END
$$$$

  -OEChem-05262214473D

 49 49  0     1  0  0  0  0  0999 V2000
   -1.6183    0.5613    3.8201 C   0  0  0  0  0  0  0  0  0  0  0  0
   -0.6710   -0.0534    3.3444 O   0  0  0  0  0  0  0  0  0  0  0  0
   -2.0502    0.2789    5.2208 C   0  0  0  0  0  0  0  0  0  0  0  0
   -2.8099   -0.5175    5.2742 H   0  0  0  0  0  0  0  0  0  0  0  0
   -1.2190   -0.0687    5.8551 H   0  0  0  0  0  0  0  0  0  0  0  0
   -2.4882    1.1338    5.7604 H   0  0  0  0  0  0  0  0  0  0  0  0
   -2.3680    1.5337    3.1790 N   0  0  0  0  0  0  0  0  0  0  0  0
   -2.1212    1.9597    1.8266 C   0  0  2  0  0  0  0  0  0  0  0  0
   -0.7862    1.3744    1.3854 C   0  0  0  0  0  0  0  0  0  0  0  0
    0.0859    1.0216    2.1767 O   0  0  0  0  0  0  0  0  0  0  0  0
   -2.1124    3.4765    1.7171 C   0  0  0  0  0  0  0  0  0  0  0  0
   -3.1331    1.9695    3.6908 H   0  0  0  0  0  0  0  0  0  0  0  0
   -2.9253    1.5413    1.2115 H   0  0  0  0  0  0  0  0  0  0  0  0
   -1.3133    3.9138    2.3268 H   0  0  0  0  0  0  0  0  0  0  0  0
   -1.9529    3.7988    0.6829 H   0  0  0  0  0  0  0  0  0  0  0  0
   -3.0626    3.8977    2.0629 H   0  0  0  0  0  0  0  0  0  0  0  0
   -0.6635    1.3313    0.0020 N   0  0  0  0  0  0  0  0  0  0  0  0
    0.5138    0.8305   -0.6617 C   0  0  2  0  0  0  0  0  0  0  0  0
    0.0641    0.2403   -1.9934 C   0  0  0  0  0  0  0  0  0  0  0  0
    0.7933    0.1857   -2.9814 O   0  0  0  0  0  0  0  0  0  0  0  0
    1.2417   -0.2299    0.1725 C   0  0  0  0  0  0  0  0  0  0  0  0
    1.7845    0.3191    1.4693 C   0  0  0  0  0  0  0  0  0  0  0  0
    2.9048    1.1119    1.4775 N   0  0  0  0  0  0  0  0  0  0  0  0
    1.2969    0.1354    2.7416 C   0  0  0  0  0  0  0  0  0  0  0  0
    3.0961    1.4079    2.7439 C   0  0  0  0  0  0  0  0  0  0  0  0
    2.1477    0.8384    3.5473 N   0  0  0  0  0  0  0  0  0  0  0  0
   -1.4467    1.6280   -0.5753 H   0  0  0  0  0  0  0  0  0  0  0  0
    1.1574    1.6973   -0.8523 H   0  0  0  0  0  0  0  0  0  0  0  0
    2.0586   -0.6772   -0.4100 H   0  0  0  0  0  0  0  0  0  0  0  0
    0.5663   -1.0630    0.4078 H   0  0  0  0  0  0  0  0  0  0  0  0
    0.4530   -0.4116    3.1370 H   0  0  0  0  0  0  0  0  0  0  0  0
    3.8920    2.0219    3.1412 H   0  0  0  0  0  0  0  0  0  0  0  0
    2.0866    0.9229    4.5532 H   0  0  0  0  0  0  0  0  0  0  0  0
   -1.2285   -0.2613   -1.9295 N   0  0  0  0  0  0  0  0  0  0  0  0
   -1.8896   -0.8961   -3.0469 C   0  0  2  0  0  0  0  0  0  0  0  0
   -1.7457    0.0157   -4.2583 C   0  0  0  0  0  0  0  0  0  0  0  0
   -1.5313    1.2227   -4.1676 O   0  0  0  0  0  0  0  0  0  0  0  0
   -3.3545   -1.1675   -2.7418 C   0  0  0  0  0  0  0  0  0  0  0  0
   -1.7354   -0.1780   -1.0532 H   0  0  0  0  0  0  0  0  0  0  0  0
   -1.3619   -1.8378   -3.2332 H   0  0  0  0  0  0  0  0  0  0  0  0
   -3.8997   -0.2356   -2.5524 H   0  0  0  0  0  0  0  0  0  0  0  0
   -3.8468   -1.6742   -3.5784 H   0  0  0  0  0  0  0  0  0  0  0  0
   -3.4569   -1.7990   -1.8527 H   0  0  0  0  0  0  0  0  0  0  0  0
   -1.9279   -0.6692   -5.4516 N   0  0  0  0  0  0  0  0  0  0  0  0
   -1.8534   -0.0225   -6.7409 C   0  0  0  0  0  0  0  0  0  0  0  0
   -2.0828   -1.6729   -5.4331 H   0  0  0  0  0  0  0  0  0  0  0  0
   -2.8590    0.3004   -7.0484 H   0  0  0  0  0  0  0  0  0  0  0  0
   -1.1916    0.8536   -6.6738 H   0  0  0  0  0  0  0  0  0  0  0  0
   -1.4524   -0.7289   -7.4826 H   0  0  0  0  0  0  0  0  0  0  0  0
 22 24  2  0  0  0  0
 24 26  1  0  0  0  0
 23 25  2  0  0  0  0
 25 26  1  0  0  0  0
 21 22  1  0  0  0  0
 22 23  1  0  0  0  0
  1  3  1  0  0  0  0
  1  7  1  0  0  0  0
  1  2  2  0  0  0  0
 35 36  1  0  0  0  0
 36 44  1  0  0  0  0
 36 37  2  0  0  0  0
  8  9  1  0  0  0  0
  9 17  1  0  0  0  0
  9 10  2  0  0  0  0
 18 19  1  0  0  0  0
 19 34  1  0  0  0  0
 19 20  2  0  0  0  0
 35 38  1  0  0  0  0
  8 11  1  0  0  0  0
 44 45  1  0  0  0  0
 18 21  1  0  0  0  0
 34 35  1  0  0  0  0
  7  8  1  0  0  0  0
 17 18  1  0  0  0  0
 24 31  1  0  0  0  0
 25 32  1  0  0  0  0
  3  4  1  0  0  0  0
  3  5  1  0  0  0  0
  3  6  1  0  0  0  0
 38 41  1  0  0  0  0
 38 42  1  0  0  0  0
 38 43  1  0  0  0  0
 11 14  1  0  0  0  0
 11 15  1  0  0  0  0
 11 16  1  0  0  0  0
 45 47  1  0  0  0  0
 45 48  1  0  0  0  0
 45 49  1  0  0  0  0
 21 29  1  0  0  0  0
 21 30  1  0  0  0  0
 35 40  1  0  0  0  0
  8 13  1  0  0  0  0
 18 28  1  0  0  0  0
 26 33  1  0  0  0  0
 44 46  1  0  0  0  0
  7 12  1  0  0  0  0
 34 39  1  0  0  0  0
 17 27  1  0  0  0  0
M  END
$$$$

  -OEChem-05262214473D

 49 49  0     1  0  0  0  0  0999 V2000
   -1.6183    0.5613    3.8201 C   0  0  0  0  0  0  0  0  0  0  0  0
   -0.6710   -0.0534    3.3444 O   0  0  0  0  0  0  0  0  0  0  0  0
   -2.0502    0.2789    5.2208 C   0  0  0  0  0  0  0  0  0  0  0  0
   -2.8099   -0.5175    5.2742 H   0  0  0  0  0  0  0  0  0  0  0  0
   -1.2190   -0.0687    5.8551 H   0  0  0  0  0  0  0  0  0  0  0  0
   -2.4882    1.1338    5.7604 H   0  0  0  0  0  0  0  0  0  0  0  0
   -2.3680    1.5337    3.1790 N   0  0  0  0  0  0  0  0  0  0  0  0
   -2.1212    1.9597    1.8266 C   0  0  2  0  0  0  0  0  0  0  0  0
   -0.7862    1.3744    1.3854 C   0  0  0  0  0  0  0  0  0  0  0  0
    0.0859    1.0216    2.1767 O   0  0  0  0  0  0  0  0  0  0  0  0
   -2.1124    3.4765    1.7171 C   0  0  0  0  0  0  0  0  0  0  0  0
   -3.1331    1.9695    3.6908 H   0  0  0  0  0  0  0  0  0  0  0  0
   -2.9253    1.5413    1.2115 H   0  0  0  0  0  0  0  0  0  0  0  0
   -1.3133    3.9138    2.3268 H   0  0  0  0  0  0  0  0  0  0  0  0
   -1.9529    3.7988    0.6829 H   0  0  0  0  0  0  0  0  0  0  0  0
   -3.0626    3.8977    2.0629 H   0  0  0  0  0  0  0  0  0  0  0  0
   -0.6635    1.3313    0.0020 N   0  0  0  0  0  0  0  0  0  0  0  0
    0.5138    0.8305   -0.6617 C   0  0  2  0  0  0  0  0  0  0  0  0
    0.0641    0.2403   -1.9934 C   0  0  0  0  0  0  0  0  0  0  0  0
    0.8484   -0.0616   -2.8904 O   0  0  0  0  0  0  0  0  0  0  0  0
    1.2417   -0.2299    0.1725 C   0  0  0  0  0  0  0  0  0  0  0  0
    1.7845    0.3191    1.4693 C   0  0  0  0  0  0  0  0  0  0  0  0
    2.9048    1.1119    1.4775 N   0  0  0  0  0  0  0  0  0  0  0  0
    1.2969    0.1354    2.7416 C   0  0  0  0  0  0  0  0  0  0  0  0
    3.0961    1.4079    2.7439 C   0  0  0  0  0  0  0  0  0  0  0  0
    2.1477    0.8384    3.5473 N   0  0  0  0  0  0  0  0  0  0  0  0
   -1.4467    1.6280   -0.5753 H   0  0  0  0  0  0  0  0  0  0  0  0
    1.1574    1.6973   -0.8523 H   0  0  0  0  0  0  0  0  0  0  0  0
    2.0586   -0.6772   -0.4100 H   0  0  0  0  0  0  0  0  0  0  0  0
    0.5663   -1.0630    0.4078 H   0  0  0  0  0  0  0  0  0  0  0  0
    0.4530   -0.4116    3.1370 H   0  0  0  0  0  0  0  0  0  0  0  0
    3.8920    2.0219    3.1412 H   0  0  0  0  0  0  0  0  0  0  0  0
    2.0866    0.9229    4.5532 H   0  0  0  0  0  0  0  0  0  0  0  0
   -1.3095    0.0461   -2.0383 N   0  0  0  0  0  0  0  0  0  0  0  0
   -1.9939   -0.5217   -3.1777 C   0  0  2  0  0  0  0  0  0  0  0  0
   -1.5340    0.2253   -4.4227 C   0  0  0  0  0  0  0  0  0  0  0  0
   -1.0570    1.3577   -4.3876 O   0  0  0  0  0  0  0  0  0  0  0  0
   -3.5035   -0.4328   -3.0171 C   0  0  0  0  0  0  0  0  0  0  0  0
   -1.8616    0.3166   -1.2298 H   0  0  0  0  0  0  0  0  0  0  0  0
   -1.6821   -1.5697   -3.2439 H   0  0  0  0  0  0  0  0  0  0  0  0
   -3.8347    0.6098   -2.9490 H   0  0  0  0  0  0  0  0  0  0  0  0
   -4.0206   -0.8890   -3.8677 H   0  0  0  0  0  0  0  0  0  0  0  0
   -3.8293   -0.9452   -2.1054 H   0  0  0  0  0  0  0  0  0  0  0  0
   -1.7589   -0.5041   -5.5818 N   0  0  0  0  0  0  0  0  0  0  0  0
   -1.4202   -0.0060   -6.8945 C   0  0  0  0  0  0  0  0  0  0  0  0
   -2.1415   -1.4426   -5.5152 H   0  0  0  0  0  0  0  0  0  0  0  0
   -2.2921    0.5040   -7.3300 H   0  0  0  0  0  0  0  0  0  0  0  0
   -0.5836    0.7036   -6.8126 H   0  0  0  0  0  0  0  0  0  0  0  0
   -1.1264   -0.8462   -7.5408 H   0  0  0  0  0  0  0  0  0  0  0  0
 22 24  2  0  0  0  0
 24 26  1  0  0  0  0
 23 25  2  0  0  0  0
 25 26  1  0  0  0  0
 21 22  1  0  0  0  0
 22 23  1  0  0  0  0
  1  3  1  0  0  0  0
  1  7  1  0  0  0  0
  1  2  2  0  0  0  0
 35 36  1  0  0  0  0
 36 44  1  0  0  0  0
 36 37  2  0  0  0  0
  8  9  1  0  0  0  0
  9 17  1  0  0  0  0
  9 10  2  0  0  0  0
 18 19  1  0  0  0  0
 19 34  1  0  0  0  0
 19 20  2  0  0  0  0
 35 38  1  0  0  0  0
  8 11  1  0  0  0  0
 44 45  1  0  0  0  0
 18 21  1  0  0  0  0
 34 35  1  0  0  0  0
  7  8  1  0  0  0  0
 17 18  1  0  0  0  0
 24 31  1  0  0  0  0
 25 32  1  0  0  0  0
  3  4  1  0  0  0  0
  3  5  1  0  0  0  0
  3  6  1  0  0  0  0
 38 41  1  0  0  0  0
 38 42  1  0  0  0  0
 38 43  1  0  0  0  0
 11 14  1  0  0  0  0
 11 15  1  0  0  0  0
 11 16  1  0  0  0  0
 45 47  1  0  0  0  0
 45 48  1  0  0  0  0
 45 49  1  0  0  0  0
 21 29  1  0  0  0  0
 21 30  1  0  0  0  0
 35 40  1  0  0  0  0
  8 13  1  0  0  0  0
 18 28  1  0  0  0  0
 26 33  1  0  0  0  0
 44 46  1  0  0  0  0
  7 12  1  0  0  0  0
 34 39  1  0  0  0  0
 17 27  1  0  0  0  0
M  END
$$$$

  -OEChem-05262214473D

 49 49  0     1  0  0  0  0  0999 V2000
   -1.6183    0.5613    3.8201 C   0  0  0  0  0  0  0  0  0  0  0  0
   -0.6710   -0.0534    3.3444 O   0  0  0  0  0  0  0  0  0  0  0  0
   -2.0502    0.2789    5.2208 C   0  0  0  0  0  0  0  0  0  0  0  0
   -2.8099   -0.5175    5.2742 H   0  0  0  0  0  0  0  0  0  0  0  0
   -1.2190   -0.0687    5.8551 H   0  0  0  0  0  0  0  0  0  0  0  0
   -2.4882    1.1338    5.7604 H   0  0  0  0  0  0  0  0  0  0  0  0
   -2.3680    1.5337    3.1790 N   0  0  0  0  0  0  0  0  0  0  0  0
   -2.1212    1.9597    1.8266 C   0  0  2  0  0  0  0  0  0  0  0  0
   -0.7862    1.3744    1.3854 C   0  0  0  0  0  0  0  0  0  0  0  0
    0.0859    1.0216    2.1767 O   0  0  0  0  0  0  0  0  0  0  0  0
   -2.1124    3.4765    1.7171 C   0  0  0  0  0  0  0  0  0  0  0  0
   -3.1331    1.9695    3.6908 H   0  0  0  0  0  0  0  0  0  0  0  0
   -2.9253    1.5413    1.2115 H   0  0  0  0  0  0  0  0  0  0  0  0
   -1.3133    3.9138    2.3268 H   0  0  0  0  0  0  0  0  0  0  0  0
   -1.9529    3.7988    0.6829 H   0  0  0  0  0  0  0  0  0  0  0  0
   -3.0626    3.8977    2.0629 H   0  0  0  0  0  0  0  0  0  0  0  0
   -0.6635    1.3313    0.0020 N   0  0  0  0  0  0  0  0  0  0  0  0
    0.5138    0.8305   -0.6617 C   0  0  2  0  0  0  0  0  0  0  0  0
    0.0641    0.2403   -1.9934 C   0  0  0  0  0  0  0  0  0  0  0  0
    0.8365   -0.3060   -2.7782 O   0  0  0  0  0  0  0  0  0  0  0  0
    1.2417   -0.2299    0.1725 C   0  0  0  0  0  0  0  0  0  0  0  0
    1.7845    0.3191    1.4693 C   0  0  0  0  0  0  0  0  0  0  0  0
    2.9048    1.1119    1.4775 N   0  0  0  0  0  0  0  0  0  0  0  0
    1.2969    0.1354    2.7416 C   0  0  0  0  0  0  0  0  0  0  0  0
    3.0961    1.4079    2.7439 C   0  0  0  0  0  0  0  0  0  0  0  0
    2.1477    0.8384    3.5473 N   0  0  0  0  0  0  0  0  0  0  0  0
   -1.4467    1.6280   -0.5753 H   0  0  0  0  0  0  0  0  0  0  0  0
    1.1574    1.6973   -0.8523 H   0  0  0  0  0  0  0  0  0  0  0  0
    2.0586   -0.6772   -0.4100 H   0  0  0  0  0  0  0  0  0  0  0  0
    0.5663   -1.0630    0.4078 H   0  0  0  0  0  0  0  0  0  0  0  0
    0.4530   -0.4116    3.1370 H   0  0  0  0  0  0  0  0  0  0  0  0
    3.8920    2.0219    3.1412 H   0  0  0  0  0  0  0  0  0  0  0  0
    2.0866    0.9229    4.5532 H   0  0  0  0  0  0  0  0  0  0  0  0
   -1.3073    0.3530   -2.1751 N   0  0  0  0  0  0  0  0  0  0  0  0
   -1.9968   -0.1464   -3.3430 C   0  0  2  0  0  0  0  0  0  0  0  0
   -1.2657    0.3674   -4.5763 C   0  0  0  0  0  0  0  0  0  0  0  0
   -0.5462    1.3641   -4.5629 O   0  0  0  0  0  0  0  0  0  0  0  0
   -3.4538    0.2895   -3.3540 C   0  0  0  0  0  0  0  0  0  0  0  0
   -1.8539    0.8094   -1.4507 H   0  0  0  0  0  0  0  0  0  0  0  0
   -1.9297   -1.2392   -3.3068 H   0  0  0  0  0  0  0  0  0  0  0  0
   -3.5411    1.3815   -3.3901 H   0  0  0  0  0  0  0  0  0  0  0  0
   -3.9819   -0.1133   -4.2245 H   0  0  0  0  0  0  0  0  0  0  0  0
   -3.9706   -0.0556   -2.4519 H   0  0  0  0  0  0  0  0  0  0  0  0
   -1.5454   -0.3927   -5.7033 N   0  0  0  0  0  0  0  0  0  0  0  0
   -0.9826   -0.0997   -7.0007 C   0  0  0  0  0  0  0  0  0  0  0  0
   -2.1380   -1.2133   -5.6181 H   0  0  0  0  0  0  0  0  0  0  0  0
   -1.6703    0.5510   -7.5608 H   0  0  0  0  0  0  0  0  0  0  0  0
   -0.0164    0.4107   -6.8743 H   0  0  0  0  0  0  0  0  0  0  0  0
   -0.8321   -1.0376   -7.5553 H   0  0  0  0  0  0  0  0  0  0  0  0
 22 24  2  0  0  0  0
 24 26  1  0  0  0  0
 23 25  2  0  0  0  0
 25 26  1  0  0  0  0
 21 22  1  0  0  0  0
 22 23  1  0  0  0  0
  1  3  1  0  0  0  0
  1  7  1  0  0  0  0
  1  2  2  0  0  0  0
 35 36  1  0  0  0  0
 36 44  1  0  0  0  0
 36 37  2  0  0  0  0
  8  9  1  0  0  0  0
  9 17  1  0  0  0  0
  9 10  2  0  0  0  0
 18 19  1  0  0  0  0
 19 34  1  0  0  0  0
 19 20  2  0  0  0  0
 35 38  1  0  0  0  0
  8 11  1  0  0  0  0
 44 45  1  0  0  0  0
 18 21  1  0  0  0  0
 34 35  1  0  0  0  0
  7  8  1  0  0  0  0
 17 18  1  0  0  0  0
 24 31  1  0  0  0  0
 25 32  1  0  0  0  0
  3  4  1  0  0  0  0
  3  5  1  0  0  0  0
  3  6  1  0  0  0  0
 38 41  1  0  0  0  0
 38 42  1  0  0  0  0
 38 43  1  0  0  0  0
 11 14  1  0  0  0  0
 11 15  1  0  0  0  0
 11 16  1  0  0  0  0
 45 47  1  0  0  0  0
 45 48  1  0  0  0  0
 45 49  1  0  0  0  0
 21 29  1  0  0  0  0
 21 30  1  0  0  0  0
 35 40  1  0  0  0  0
  8 13  1  0  0  0  0
 18 28  1  0  0  0  0
 26 33  1  0  0  0  0
 44 46  1  0  0  0  0
  7 12  1  0  0  0  0
 34 39  1  0  0  0  0
 17 27  1  0  0  0  0
M  END
$$$$

  -OEChem-05262214473D

 49 49  0     1  0  0  0  0  0999 V2000
   -1.6183    0.5613    3.8201 C   0  0  0  0  0  0  0  0  0  0  0  0
   -0.6710   -0.0534    3.3444 O   0  0  0  0  0  0  0  0  0  0  0  0
   -2.0502    0.2789    5.2208 C   0  0  0  0  0  0  0  0  0  0  0  0
   -2.8099   -0.5175    5.2742 H   0  0  0  0  0  0  0  0  0  0  0  0
   -1.2190   -0.0687    5.8551 H   0  0  0  0  0  0  0  0  0  0  0  0
   -2.4882    1.1338    5.7604 H   0  0  0  0  0  0  0  0  0  0  0  0
   -2.3680    1.5337    3.1790 N   0  0  0  0  0  0  0  0  0  0  0  0
   -2.1212    1.9597    1.8266 C   0  0  2  0  0  0  0  0  0  0  0  0
   -0.7862    1.3744    1.3854 C   0  0  0  0  0  0  0  0  0  0  0  0
    0.0859    1.0216    2.1767 O   0  0  0  0  0  0  0  0  0  0  0  0
   -2.1124    3.4765    1.7171 C   0  0  0  0  0  0  0  0  0  0  0  0
   -3.1331    1.9695    3.6908 H   0  0  0  0  0  0  0  0  0  0  0  0
   -2.9253    1.5413    1.2115 H   0  0  0  0  0  0  0  0  0  0  0  0
   -1.3133    3.9138    2.3268 H   0  0  0  0  0  0  0  0  0  0  0  0
   -1.9529    3.7988    0.6829 H   0  0  0  0  0  0  0  0  0  0  0  0
   -3.0626    3.8977    2.0629 H   0  0  0  0  0  0  0  0  0  0  0  0
   -0.6635    1.3313    0.0020 N   0  0  0  0  0  0  0  0  0  0  0  0
    0.5138    0.8305   -0.6617 C   0  0  2  0  0  0  0  0  0  0  0  0
    0.0641    0.2403   -1.9934 C   0  0  0  0  0  0  0  0  0  0  0  0
    0.7586   -0.5307   -2.6522 O   0  0  0  0  0  0  0  0  0  0  0  0
    1.2417   -0.2299    0.1725 C   0  0  0  0  0  0  0  0  0  0  0  0
    1.7845    0.3191    1.4693 C   0  0  0  0  0  0  0  0  0  0  0  0
    2.9048    1.1119    1.4775 N   0  0  0  0  0  0  0  0  0  0  0  0
    1.2969    0.1354    2.7416 C   0  0  0  0  0  0  0  0  0  0  0  0
    3.0961    1.4079    2.7439 C   0  0  0  0  0  0  0  0  0  0  0  0
    2.1477    0.8384    3.5473 N   0  0  0  0  0  0  0  0  0  0  0  0
   -1.4467    1.6280   -0.5753 H   0  0  0  0  0  0  0  0  0  0  0  0
    1.1574    1.6973   -0.8523 H   0  0  0  0  0  0  0  0  0  0  0  0
    2.0586   -0.6772   -0.4100 H   0  0  0  0  0  0  0  0  0  0  0  0
    0.5663   -1.0630    0.4078 H   0  0  0  0  0  0  0  0  0  0  0  0
    0.4530   -0.4116    3.1370 H   0  0  0  0  0  0  0  0  0  0  0  0
    3.8920    2.0219    3.1412 H   0  0  0  0  0  0  0  0  0  0  0  0
    2.0866    0.9229    4.5532 H   0  0  0  0  0  0  0  0  0  0  0  0
   -1.2222    0.6385   -2.3304 N   0  0  0  0  0  0  0  0  0  0  0  0
   -1.8983    0.2042   -3.5317 C   0  0  2  0  0  0  0  0  0  0  0  0
   -0.9590    0.4323   -4.7086 C   0  0  0  0  0  0  0  0  0  0  0  0
   -0.0339    1.2413   -4.6815 O   0  0  0  0  0  0  0  0  0  0  0  0
   -3.2086    0.9502   -3.7295 C   0  0  0  0  0  0  0  0  0  0  0  0
   -1.7130    1.2668   -1.7010 H   0  0  0  0  0  0  0  0  0  0  0  0
   -2.0879   -0.8687   -3.4176 H   0  0  0  0  0  0  0  0  0  0  0  0
   -3.0388    2.0268   -3.8457 H   0  0  0  0  0  0  0  0  0  0  0  0
   -3.7333    0.5999   -4.6245 H   0  0  0  0  0  0  0  0  0  0  0  0
   -3.8712    0.8092   -2.8687 H   0  0  0  0  0  0  0  0  0  0  0  0
   -1.3017   -0.3428   -5.8077 N   0  0  0  0  0  0  0  0  0  0  0  0
   -0.5704   -0.2972   -7.0523 C   0  0  0  0  0  0  0  0  0  0  0  0
   -2.0724   -1.0003   -5.7346 H   0  0  0  0  0  0  0  0  0  0  0  0
   -1.0359    0.4382   -7.7250 H   0  0  0  0  0  0  0  0  0  0  0  0
    0.4715   -0.0053   -6.8548 H   0  0  0  0  0  0  0  0  0  0  0  0
   -0.5896   -1.2902   -7.5252 H   0  0  0  0  0  0  0  0  0  0  0  0
 22 24  2  0  0  0  0
 24 26  1  0  0  0  0
 23 25  2  0  0  0  0
 25 26  1  0  0  0  0
 21 22  1  0  0  0  0
 22 23  1  0  0  0  0
  1  3  1  0  0  0  0
  1  7  1  0  0  0  0
  1  2  2  0  0  0  0
 35 36  1  0  0  0  0
 36 44  1  0  0  0  0
 36 37  2  0  0  0  0
  8  9  1  0  0  0  0
  9 17  1  0  0  0  0
  9 10  2  0  0  0  0
 18 19  1  0  0  0  0
 19 34  1  0  0  0  0
 19 20  2  0  0  0  0
 35 38  1  0  0  0  0
  8 11  1  0  0  0  0
 44 45  1  0  0  0  0
 18 21  1  0  0  0  0
 34 35  1  0  0  0  0
  7  8  1  0  0  0  0
 17 18  1  0  0  0  0
 24 31  1  0  0  0  0
 25 32  1  0  0  0  0
  3  4  1  0  0  0  0
  3  5  1  0  0  0  0
  3  6  1  0  0  0  0
 38 41  1  0  0  0  0
 38 42  1  0  0  0  0
 38 43  1  0  0  0  0
 11 14  1  0  0  0  0
 11 15  1  0  0  0  0
 11 16  1  0  0  0  0
 45 47  1  0  0  0  0
 45 48  1  0  0  0  0
 45 49  1  0  0  0  0
 21 29  1  0  0  0  0
 21 30  1  0  0  0  0
 35 40  1  0  0  0  0
  8 13  1  0  0  0  0
 18 28  1  0  0  0  0
 26 33  1  0  0  0  0
 44 46  1  0  0  0  0
  7 12  1  0  0  0  0
 34 39  1  0  0  0  0
 17 27  1  0  0  0  0
M  END
$$$$

  -OEChem-05262214473D

 49 49  0     1  0  0  0  0  0999 V2000
   -1.6183    0.5613    3.8201 C   0  0  0  0  0  0  0  0  0  0  0  0
   -0.6710   -0.0534    3.3444 O   0  0  0  0  0  0  0  0  0  0  0  0
   -2.0502    0.2789    5.2208 C   0  0  0  0  0  0  0  0  0  0  0  0
   -2.8099   -0.5175    5.2742 H   0  0  0  0  0  0  0  0  0  0  0  0
   -1.2190   -0.0687    5.8551 H   0  0  0  0  0  0  0  0  0  0  0  0
   -2.4882    1.1338    5.7604 H   0  0  0  0  0  0  0  0  0  0  0  0
   -2.3680    1.5337    3.1790 N   0  0  0  0  0  0  0  0  0  0  0  0
   -2.1212    1.9597    1.8266 C   0  0  2  0  0  0  0  0  0  0  0  0
   -0.7862    1.3744    1.3854 C   0  0  0  0  0  0  0  0  0  0  0  0
    0.0859    1.0216    2.1767 O   0  0  0  0  0  0  0  0  0  0  0  0
   -2.1124    3.4765    1.7171 C   0  0  0  0  0  0  0  0  0  0  0  0
   -3.1331    1.9695    3.6908 H   0  0  0  0  0  0  0  0  0  0  0  0
   -2.9253    1.5413    1.2115 H   0  0  0  0  0  0  0  0  0  0  0  0
   -1.3133    3.9138    2.3268 H   0  0  0  0  0  0  0  0  0  0  0  0
   -1.9529    3.7988    0.6829 H   0  0  0  0  0  0  0  0  0  0  0  0
   -3.0626    3.8977    2.0629 H   0  0  0  0  0  0  0  0  0  0  0  0
   -0.6635    1.3313    0.0020 N   0  0  0  0  0  0  0  0  0  0  0  0
    0.5138    0.8305   -0.6617 C   0  0  2  0  0  0  0  0  0  0  0  0
    0.0641    0.2403   -1.9934 C   0  0  0  0  0  0  0  0  0  0  0  0
    0.6199   -0.7206   -2.5213 O   0  0  0  0  0  0  0  0  0  0  0  0
    1.2417   -0.2299    0.1725 C   0  0  0  0  0  0  0  0  0  0  0  0
    1.7845    0.3191    1.4693 C   0  0  0  0  0  0  0  0  0  0  0  0
    2.9048    1.1119    1.4775 N   0  0  0  0  0  0  0  0  0  0  0  0
    1.2969    0.1354    2.7416 C   0  0  0  0  0  0  0  0  0  0  0  0
    3.0961    1.4079    2.7439 C   0  0  0  0  0  0  0  0  0  0  0  0
    2.1477    0.8384    3.5473 N   0  0  0  0  0  0  0  0  0  0  0  0
   -1.4467    1.6280   -0.5753 H   0  0  0  0  0  0  0  0  0  0  0  0
    1.1574    1.6973   -0.8523 H   0  0  0  0  0  0  0  0  0  0  0  0
    2.0586   -0.6772   -0.4100 H   0  0  0  0  0  0  0  0  0  0  0  0
    0.5663   -1.0630    0.4078 H   0  0  0  0  0  0  0  0  0  0  0  0
    0.4530   -0.4116    3.1370 H   0  0  0  0  0  0  0  0  0  0  0  0
    3.8920    2.0219    3.1412 H   0  0  0  0  0  0  0  0  0  0  0  0
    2.0866    0.9229    4.5532 H   0  0  0  0  0  0  0  0  0  0  0  0
   -1.0598    0.8831   -2.4936 N   0  0  0  0  0  0  0  0  0  0  0  0
   -1.7049    0.5061   -3.7307 C   0  0  2  0  0  0  0  0  0  0  0  0
   -0.6348    0.4155   -4.8106 C   0  0  0  0  0  0  0  0  0  0  0  0
    0.4451    0.9979   -4.7354 O   0  0  0  0  0  0  0  0  0  0  0  0
   -2.7848    1.5043   -4.1182 C   0  0  0  0  0  0  0  0  0  0  0  0
   -1.4483    1.6576   -1.9636 H   0  0  0  0  0  0  0  0  0  0  0  0
   -2.1458   -0.4835   -3.5687 H   0  0  0  0  0  0  0  0  0  0  0  0
   -2.3620    2.5017   -4.2847 H   0  0  0  0  0  0  0  0  0  0  0  0
   -3.2920    1.2021   -5.0404 H   0  0  0  0  0  0  0  0  0  0  0  0
   -3.5379    1.5903   -3.3274 H   0  0  0  0  0  0  0  0  0  0  0  0
   -1.0446   -0.3575   -5.8879 N   0  0  0  0  0  0  0  0  0  0  0  0
   -0.2119   -0.5852   -7.0458 C   0  0  0  0  0  0  0  0  0  0  0  0
   -1.9493   -0.8184   -5.8568 H   0  0  0  0  0  0  0  0  0  0  0  0
   -0.4322    0.1733   -7.8114 H   0  0  0  0  0  0  0  0  0  0  0  0
    0.8468   -0.5159   -6.7552 H   0  0  0  0  0  0  0  0  0  0  0  0
   -0.4156   -1.5867   -7.4526 H   0  0  0  0  0  0  0  0  0  0  0  0
 22 24  2  0  0  0  0
 24 26  1  0  0  0  0
 23 25  2  0  0  0  0
 25 26  1  0  0  0  0
 21 22  1  0  0  0  0
 22 23  1  0  0  0  0
  1  3  1  0  0  0  0
  1  7  1  0  0  0  0
  1  2  2  0  0  0  0
 35 36  1  0  0  0  0
 36 44  1  0  0  0  0
 36 37  2  0  0  0  0
  8  9  1  0  0  0  0
  9 17  1  0  0  0  0
  9 10  2  0  0  0  0
 18 19  1  0  0  0  0
 19 34  1  0  0  0  0
 19 20  2  0  0  0  0
 35 38  1  0  0  0  0
  8 11  1  0  0  0  0
 44 45  1  0  0  0  0
 18 21  1  0  0  0  0
 34 35  1  0  0  0  0
  7  8  1  0  0  0  0
 17 18  1  0  0  0  0
 24 31  1  0  0  0  0
 25 32  1  0  0  0  0
  3  4  1  0  0  0  0
  3  5  1  0  0  0  0
  3  6  1  0  0  0  0
 38 41  1  0  0  0  0
 38 42  1  0  0  0  0
 38 43  1  0  0  0  0
 11 14  1  0  0  0  0
 11 15  1  0  0  0  0
 11 16  1  0  0  0  0
 45 47  1  0  0  0  0
 45 48  1  0  0  0  0
 45 49  1  0  0  0  0
 21 29  1  0  0  0  0
 21 30  1  0  0  0  0
 35 40  1  0  0  0  0
  8 13  1  0  0  0  0
 18 28  1  0  0  0  0
 26 33  1  0  0  0  0
 44 46  1  0  0  0  0
  7 12  1  0  0  0  0
 34 39  1  0  0  0  0
 17 27  1  0  0  0  0
M  END
$$$$

  -OEChem-05262214473D

 49 49  0     1  0  0  0  0  0999 V2000
   -1.6183    0.5613    3.8201 C   0  0  0  0  0  0  0  0  0  0  0  0
   -0.6710   -0.0534    3.3444 O   0  0  0  0  0  0  0  0  0  0  0  0
   -2.0502    0.2789    5.2208 C   0  0  0  0  0  0  0  0  0  0  0  0
   -2.8099   -0.5175    5.2742 H   0  0  0  0  0  0  0  0  0  0  0  0
   -1.2190   -0.0687    5.8551 H   0  0  0  0  0  0  0  0  0  0  0  0
   -2.4882    1.1338    5.7604 H   0  0  0  0  0  0  0  0  0  0  0  0
   -2.3680    1.5337    3.1790 N   0  0  0  0  0  0  0  0  0  0  0  0
   -2.1212    1.9597    1.8266 C   0  0  2  0  0  0  0  0  0  0  0  0
   -0.7862    1.3744    1.3854 C   0  0  0  0  0  0  0  0  0  0  0  0
    0.0859    1.0216    2.1767 O   0  0  0  0  0  0  0  0  0  0  0  0
   -2.1124    3.4765    1.7171 C   0  0  0  0  0  0  0  0  0  0  0  0
   -3.1331    1.9695    3.6908 H   0  0  0  0  0  0  0  0  0  0  0  0
   -2.9253    1.5413    1.2115 H   0  0  0  0  0  0  0  0  0  0  0  0
   -1.3133    3.9138    2.3268 H   0  0  0  0  0  0  0  0  0  0  0  0
   -1.9529    3.7988    0.6829 H   0  0  0  0  0  0  0  0  0  0  0  0
   -3.0626    3.8977    2.0629 H   0  0  0  0  0  0  0  0  0  0  0  0
   -0.6635    1.3313    0.0020 N   0  0  0  0  0  0  0  0  0  0  0  0
    0.5138    0.8305   -0.6617 C   0  0  2  0  0  0  0  0  0  0  0  0
    0.0641    0.2403   -1.9934 C   0  0  0  0  0  0  0  0  0  0  0  0
    0.4299   -0.8627   -2.3941 O   0  0  0  0  0  0  0  0  0  0  0  0
    1.2417   -0.2299    0.1725 C   0  0  0  0  0  0  0  0  0  0  0  0
    1.7845    0.3191    1.4693 C   0  0  0  0  0  0  0  0  0  0  0  0
    2.9048    1.1119    1.4775 N   0  0  0  0  0  0  0  0  0  0  0  0
    1.2969    0.1354    2.7416 C   0  0  0  0  0  0  0  0  0  0  0  0
    3.0961    1.4079    2.7439 C   0  0  0  0  0  0  0  0  0  0  0  0
    2.1477    0.8384    3.5473 N   0  0  0  0  0  0  0  0  0  0  0  0
   -1.4467    1.6280   -0.5753 H   0  0  0  0  0  0  0  0  0  0  0  0
    1.1574    1.6973   -0.8523 H   0  0  0  0  0  0  0  0  0  0  0  0
    2.0586   -0.6772   -0.4100 H   0  0  0  0  0  0  0  0  0  0  0  0
    0.5663   -1.0630    0.4078 H   0  0  0  0  0  0  0  0  0  0  0  0
    0.4530   -0.4116    3.1370 H   0  0  0  0  0  0  0  0  0  0  0  0
    3.8920    2.0219    3.1412 H   0  0  0  0  0  0  0  0  0  0  0  0
    2.0866    0.9229    4.5532 H   0  0  0  0  0  0  0  0  0  0  0  0
   -0.8312    1.0703   -2.6538 N   0  0  0  0  0  0  0  0  0  0  0  0
   -1.4299    0.7388   -3.9267 C   0  0  2  0  0  0  0  0  0  0  0  0
   -0.3152    0.3181   -4.8754 C   0  0  0  0  0  0  0  0  0  0  0  0
    0.8582    0.6503   -4.7208 O   0  0  0  0  0  0  0  0  0  0  0  0
   -2.2113    1.9140   -4.4934 C   0  0  0  0  0  0  0  0  0  0  0  0
   -1.0781    1.9552   -2.2205 H   0  0  0  0  0  0  0  0  0  0  0  0
   -2.0995   -0.1099   -3.7499 H   0  0  0  0  0  0  0  0  0  0  0  0
   -1.5570    2.7740   -4.6772 H   0  0  0  0  0  0  0  0  0  0  0  0
   -2.6878    1.6522   -5.4439 H   0  0  0  0  0  0  0  0  0  0  0  0
   -2.9934    2.2343   -3.7967 H   0  0  0  0  0  0  0  0  0  0  0  0
   -0.7916   -0.4361   -5.9386 N   0  0  0  0  0  0  0  0  0  0  0  0
    0.0688   -0.9439   -6.9816 C   0  0  0  0  0  0  0  0  0  0  0  0
   -1.7770   -0.6798   -5.9764 H   0  0  0  0  0  0  0  0  0  0  0  0
    0.0997   -0.2258   -7.8142 H   0  0  0  0  0  0  0  0  0  0  0  0
    1.0839   -1.0863   -6.5824 H   0  0  0  0  0  0  0  0  0  0  0  0
   -0.3218   -1.9069   -7.3424 H   0  0  0  0  0  0  0  0  0  0  0  0
 22 24  2  0  0  0  0
 24 26  1  0  0  0  0
 23 25  2  0  0  0  0
 25 26  1  0  0  0  0
 21 22  1  0  0  0  0
 22 23  1  0  0  0  0
  1  3  1  0  0  0  0
  1  7  1  0  0  0  0
  1  2  2  0  0  0  0
 35 36  1  0  0  0  0
 36 44  1  0  0  0  0
 36 37  2  0  0  0  0
  8  9  1  0  0  0  0
  9 17  1  0  0  0  0
  9 10  2  0  0  0  0
 18 19  1  0  0  0  0
 19 34  1  0  0  0  0
 19 20  2  0  0  0  0
 35 38  1  0  0  0  0
  8 11  1  0  0  0  0
 44 45  1  0  0  0  0
 18 21  1  0  0  0  0
 34 35  1  0  0  0  0
  7  8  1  0  0  0  0
 17 18  1  0  0  0  0
 24 31  1  0  0  0  0
 25 32  1  0  0  0  0
  3  4  1  0  0  0  0
  3  5  1  0  0  0  0
  3  6  1  0  0  0  0
 38 41  1  0  0  0  0
 38 42  1  0  0  0  0
 38 43  1  0  0  0  0
 11 14  1  0  0  0  0
 11 15  1  0  0  0  0
 11 16  1  0  0  0  0
 45 47  1  0  0  0  0
 45 48  1  0  0  0  0
 45 49  1  0  0  0  0
 21 29  1  0  0  0  0
 21 30  1  0  0  0  0
 35 40  1  0  0  0  0
  8 13  1  0  0  0  0
 18 28  1  0  0  0  0
 26 33  1  0  0  0  0
 44 46  1  0  0  0  0
  7 12  1  0  0  0  0
 34 39  1  0  0  0  0
 17 27  1  0  0  0  0
M  END
$$$$

  -OEChem-05262214473D

 49 49  0     1  0  0  0  0  0999 V2000
   -1.6183    0.5613    3.8201 C   0  0  0  0  0  0  0  0  0  0  0  0
   -0.6710   -0.0534    3.3444 O   0  0  0  0  0  0  0  0  0  0  0  0
   -2.0502    0.2789    5.2208 C   0  0  0  0  0  0  0  0  0  0  0  0
   -2.8099   -0.5175    5.2742 H   0  0  0  0  0  0  0  0  0  0  0  0
   -1.2190   -0.0687    5.8551 H   0  0  0  0  0  0  0  0  0  0  0  0
   -2.4882    1.1338    5.7604 H   0  0  0  0  0  0  0  0  0  0  0  0
   -2.3680    1.5337    3.1790 N   0  0  0  0  0  0  0  0  0  0  0  0
   -2.1212    1.9597    1.8266 C   0  0  2  0  0  0  0  0  0  0  0  0
   -0.7862    1.3744    1.3854 C   0  0  0  0  0  0  0  0  0  0  0  0
    0.0859    1.0216    2.1767 O   0  0  0  0  0  0  0  0  0  0  0  0
   -2.1124    3.4765    1.7171 C   0  0  0  0  0  0  0  0  0  0  0  0
   -3.1331    1.9695    3.6908 H   0  0  0  0  0  0  0  0  0  0  0  0
   -2.9253    1.5413    1.2115 H   0  0  0  0  0  0  0  0  0  0  0  0
   -1.3133    3.9138    2.3268 H   0  0  0  0  0  0  0  0  0  0  0  0
   -1.9529    3.7988    0.6829 H   0  0  0  0  0  0  0  0  0  0  0  0
   -3.0626    3.8977    2.0629 H   0  0  0  0  0  0  0  0  0  0  0  0
   -0.6635    1.3313    0.0020 N   0  0  0  0  0  0  0  0  0  0  0  0
    0.5138    0.8305   -0.6617 C   0  0  2  0  0  0  0  0  0  0  0  0
    0.0641    0.2403   -1.9934 C   0  0  0  0  0  0  0  0  0  0  0  0
    0.2015   -0.9472   -2.2795 O   0  0  0  0  0  0  0  0  0  0  0  0
    1.2417   -0.2299    0.1725 C   0  0  0  0  0  0  0  0  0  0  0  0
    1.7845    0.3191    1.4693 C   0  0  0  0  0  0  0  0  0  0  0  0
    2.9048    1.1119    1.4775 N   0  0  0  0  0  0  0  0  0  0  0  0
    1.2969    0.1354    2.7416 C   0  0  0  0  0  0  0  0  0  0  0  0
    3.0961    1.4079    2.7439 C   0  0  0  0  0  0  0  0  0  0  0  0
    2.1477    0.8384    3.5473 N   0  0  0  0  0  0  0  0  0  0  0  0
   -1.4467    1.6280   -0.5753 H   0  0  0  0  0  0  0  0  0  0  0  0
    1.1574    1.6973   -0.8523 H   0  0  0  0  0  0  0  0  0  0  0  0
    2.0586   -0.6772   -0.4100 H   0  0  0  0  0  0  0  0  0  0  0  0
    0.5663   -1.0630    0.4078 H   0  0  0  0  0  0  0  0  0  0  0  0
    0.4530   -0.4116    3.1370 H   0  0  0  0  0  0  0  0  0  0  0  0
    3.8920    2.0219    3.1412 H   0  0  0  0  0  0  0  0  0  0  0  0
    2.0866    0.9229    4.5532 H   0  0  0  0  0  0  0  0  0  0  0  0
   -0.5521    1.1872   -2.7998 N   0  0  0  0  0  0  0  0  0  0  0  0
   -1.0920    0.8865   -4.1063 C   0  0  2  0  0  0  0  0  0  0  0  0
   -0.0220    0.1469   -4.8985 C   0  0  0  0  0  0  0  0  0  0  0  0
    1.1771    0.2224   -4.6389 O   0  0  0  0  0  0  0  0  0  0  0  0
   -1.5270    2.1514   -4.8297 C   0  0  0  0  0  0  0  0  0  0  0  0
   -0.6274    2.1394   -2.4543 H   0  0  0  0  0  0  0  0  0  0  0  0
   -1.9522    0.2266   -3.9488 H   0  0  0  0  0  0  0  0  0  0  0  0
   -0.6785    2.8250   -4.9964 H   0  0  0  0  0  0  0  0  0  0  0  0
   -1.9620    1.9196   -5.8075 H   0  0  0  0  0  0  0  0  0  0  0  0
   -2.2748    2.6975   -4.2446 H   0  0  0  0  0  0  0  0  0  0  0  0
   -0.5599   -0.5730   -5.9561 N   0  0  0  0  0  0  0  0  0  0  0  0
    0.2523   -1.3489   -6.8640 C   0  0  0  0  0  0  0  0  0  0  0  0
   -1.5672   -0.5940   -6.0852 H   0  0  0  0  0  0  0  0  0  0  0  0
    0.5235   -0.7316   -7.7331 H   0  0  0  0  0  0  0  0  0  0  0  0
    1.1666   -1.6777   -6.3483 H   0  0  0  0  0  0  0  0  0  0  0  0
   -0.3146   -2.2289   -7.2021 H   0  0  0  0  0  0  0  0  0  0  0  0
 22 24  2  0  0  0  0
 24 26  1  0  0  0  0
 23 25  2  0  0  0  0
 25 26  1  0  0  0  0
 21 22  1  0  0  0  0
 22 23  1  0  0  0  0
  1  3  1  0  0  0  0
  1  7  1  0  0  0  0
  1  2  2  0  0  0  0
 35 36  1  0  0  0  0
 36 44  1  0  0  0  0
 36 37  2  0  0  0  0
  8  9  1  0  0  0  0
  9 17  1  0  0  0  0
  9 10  2  0  0  0  0
 18 19  1  0  0  0  0
 19 34  1  0  0  0  0
 19 20  2  0  0  0  0
 35 38  1  0  0  0  0
  8 11  1  0  0  0  0
 44 45  1  0  0  0  0
 18 21  1  0  0  0  0
 34 35  1  0  0  0  0
  7  8  1  0  0  0  0
 17 18  1  0  0  0  0
 24 31  1  0  0  0  0
 25 32  1  0  0  0  0
  3  4  1  0  0  0  0
  3  5  1  0  0  0  0
  3  6  1  0  0  0  0
 38 41  1  0  0  0  0
 38 42  1  0  0  0  0
 38 43  1  0  0  0  0
 11 14  1  0  0  0  0
 11 15  1  0  0  0  0
 11 16  1  0  0  0  0
 45 47  1  0  0  0  0
 45 48  1  0  0  0  0
 45 49  1  0  0  0  0
 21 29  1  0  0  0  0
 21 30  1  0  0  0  0
 35 40  1  0  0  0  0
  8 13  1  0  0  0  0
 18 28  1  0  0  0  0
 26 33  1  0  0  0  0
 44 46  1  0  0  0  0
  7 12  1  0  0  0  0
 34 39  1  0  0  0  0
 17 27  1  0  0  0  0
M  END
$$$$

  -OEChem-05262214473D

 49 49  0     1  0  0  0  0  0999 V2000
   -1.6183    0.5613    3.8201 C   0  0  0  0  0  0  0  0  0  0  0  0
   -0.6710   -0.0534    3.3444 O   0  0  0  0  0  0  0  0  0  0  0  0
   -2.0502    0.2789    5.2208 C   0  0  0  0  0  0  0  0  0  0  0  0
   -2.8099   -0.5175    5.2742 H   0  0  0  0  0  0  0  0  0  0  0  0
   -1.2190   -0.0687    5.8551 H   0  0  0  0  0  0  0  0  0  0  0  0
   -2.4882    1.1338    5.7604 H   0  0  0  0  0  0  0  0  0  0  0  0
   -2.3680    1.5337    3.1790 N   0  0  0  0  0  0  0  0  0  0  0  0
   -2.1212    1.9597    1.8266 C   0  0  2  0  0  0  0  0  0  0  0  0
   -0.7862    1.3744    1.3854 C   0  0  0  0  0  0  0  0  0  0  0  0
    0.0859    1.0216    2.1767 O   0  0  0  0  0  0  0  0  0  0  0  0
   -2.1124    3.4765    1.7171 C   0  0  0  0  0  0  0  0  0  0  0  0
   -3.1331    1.9695    3.6908 H   0  0  0  0  0  0  0  0  0  0  0  0
   -2.9253    1.5413    1.2115 H   0  0  0  0  0  0  0  0  0  0  0  0
   -1.3133    3.9138    2.3268 H   0  0  0  0  0  0  0  0  0  0  0  0
   -1.9529    3.7988    0.6829 H   0  0  0  0  0  0  0  0  0  0  0  0
   -3.0626    3.8977    2.0629 H   0  0  0  0  0  0  0  0  0  0  0  0
   -0.6635    1.3313    0.0020 N   0  0  0  0  0  0  0  0  0  0  0  0
    0.5138    0.8305   -0.6617 C   0  0  2  0  0  0  0  0  0  0  0  0
    0.0641    0.2403   -1.9934 C   0  0  0  0  0  0  0  0  0  0  0  0
   -0.0498   -0.9685   -2.1853 O   0  0  0  0  0  0  0  0  0  0  0  0
    1.2417   -0.2299    0.1725 C   0  0  0  0  0  0  0  0  0  0  0  0
    1.7845    0.3191    1.4693 C   0  0  0  0  0  0  0  0  0  0  0  0
    2.9048    1.1119    1.4775 N   0  0  0  0  0  0  0  0  0  0  0  0
    1.2969    0.1354    2.7416 C   0  0  0  0  0  0  0  0  0  0  0  0
    3.0961    1.4079    2.7439 C   0  0  0  0  0  0  0  0  0  0  0  0
    2.1477    0.8384    3.5473 N   0  0  0  0  0  0  0  0  0  0  0  0
   -1.4467    1.6280   -0.5753 H   0  0  0  0  0  0  0  0  0  0  0  0
    1.1574    1.6973   -0.8523 H   0  0  0  0  0  0  0  0  0  0  0  0
    2.0586   -0.6772   -0.4100 H   0  0  0  0  0  0  0  0  0  0  0  0
    0.5663   -1.0630    0.4078 H   0  0  0  0  0  0  0  0  0  0  0  0
    0.4530   -0.4116    3.1370 H   0  0  0  0  0  0  0  0  0  0  0  0
    3.8920    2.0219    3.1412 H   0  0  0  0  0  0  0  0  0  0  0  0
    2.0866    0.9229    4.5532 H   0  0  0  0  0  0  0  0  0  0  0  0
   -0.2415    1.2258   -2.9218 N   0  0  0  0  0  0  0  0  0  0  0  0
   -0.7143    0.9390   -4.2571 C   0  0  2  0  0  0  0  0  0  0  0  0
    0.2247   -0.0865   -4.8784 C   0  0  0  0  0  0  0  0  0  0  0  0
    1.3802   -0.2569   -4.4950 O   0  0  0  0  0  0  0  0  0  0  0  0
   -0.7787    2.2004   -5.1041 C   0  0  0  0  0  0  0  0  0  0  0  0
   -0.1269    2.1975   -2.6490 H   0  0  0  0  0  0  0  0  0  0  0  0
   -1.7138    0.5032   -4.1519 H   0  0  0  0  0  0  0  0  0  0  0  0
    0.2136    2.6512   -5.2207 H   0  0  0  0  0  0  0  0  0  0  0  0
   -1.1641    1.9860   -6.1064 H   0  0  0  0  0  0  0  0  0  0  0  0
   -1.4312    2.9482   -4.6406 H   0  0  0  0  0  0  0  0  0  0  0  0
   -0.3652   -0.7590   -5.9394 N   0  0  0  0  0  0  0  0  0  0  0  0
    0.3262   -1.7727   -6.7012 C   0  0  0  0  0  0  0  0  0  0  0  0
   -1.3342   -0.5670   -6.1759 H   0  0  0  0  0  0  0  0  0  0  0  0
    0.8104   -1.3099   -7.5737 H   0  0  0  0  0  0  0  0  0  0  0  0
    1.0893   -2.2498   -6.0687 H   0  0  0  0  0  0  0  0  0  0  0  0
   -0.3945   -2.5310   -7.0413 H   0  0  0  0  0  0  0  0  0  0  0  0
 22 24  2  0  0  0  0
 24 26  1  0  0  0  0
 23 25  2  0  0  0  0
 25 26  1  0  0  0  0
 21 22  1  0  0  0  0
 22 23  1  0  0  0  0
  1  3  1  0  0  0  0
  1  7  1  0  0  0  0
  1  2  2  0  0  0  0
 35 36  1  0  0  0  0
 36 44  1  0  0  0  0
 36 37  2  0  0  0  0
  8  9  1  0  0  0  0
  9 17  1  0  0  0  0
  9 10  2  0  0  0  0
 18 19  1  0  0  0  0
 19 34  1  0  0  0  0
 19 20  2  0  0  0  0
 35 38  1  0  0  0  0
  8 11  1  0  0  0  0
 44 45  1  0  0  0  0
 18 21  1  0  0  0  0
 34 35  1  0  0  0  0
  7  8  1  0  0  0  0
 17 18  1  0  0  0  0
 24 31  1  0  0  0  0
 25 32  1  0  0  0  0
  3  4  1  0  0  0  0
  3  5  1  0  0  0  0
  3  6  1  0  0  0  0
 38 41  1  0  0  0  0
 38 42  1  0  0  0  0
 38 43  1  0  0  0  0
 11 14  1  0  0  0  0
 11 15  1  0  0  0  0
 11 16  1  0  0  0  0
 45 47  1  0  0  0  0
 45 48  1  0  0  0  0
 45 49  1  0  0  0  0
 21 29  1  0  0  0  0
 21 30  1  0  0  0  0
 35 40  1  0  0  0  0
  8 13  1  0  0  0  0
 18 28  1  0  0  0  0
 26 33  1  0  0  0  0
 44 46  1  0  0  0  0
  7 12  1  0  0  0  0
 34 39  1  0  0  0  0
 17 27  1  0  0  0  0
M  END
$$$$

  -OEChem-05262214473D

 49 49  0     1  0  0  0  0  0999 V2000
   -1.6183    0.5613    3.8201 C   0  0  0  0  0  0  0  0  0  0  0  0
   -0.6710   -0.0534    3.3444 O   0  0  0  0  0  0  0  0  0  0  0  0
   -2.0502    0.2789    5.2208 C   0  0  0  0  0  0  0  0  0  0  0  0
   -2.8099   -0.5175    5.2742 H   0  0  0  0  0  0  0  0  0  0  0  0
   -1.2190   -0.0687    5.8551 H   0  0  0  0  0  0  0  0  0  0  0  0
   -2.4882    1.1338    5.7604 H   0  0  0  0  0  0  0  0  0  0  0  0
   -2.3680    1.5337    3.1790 N   0  0  0  0  0  0  0  0  0  0  0  0
   -2.1212    1.9597    1.8266 C   0  0  2  0  0  0  0  0  0  0  0  0
   -0.7862    1.3744    1.3854 C   0  0  0  0  0  0  0  0  0  0  0  0
    0.0859    1.0216    2.1767 O   0  0  0  0  0  0  0  0  0  0  0  0
   -2.1124    3.4765    1.7171 C   0  0  0  0  0  0  0  0  0  0  0  0
   -3.1331    1.9695    3.6908 H   0  0  0  0  0  0  0  0  0  0  0  0
   -2.9253    1.5413    1.2115 H   0  0  0  0  0  0  0  0  0  0  0  0
   -1.3133    3.9138    2.3268 H   0  0  0  0  0  0  0  0  0  0  0  0
   -1.9529    3.7988    0.6829 H   0  0  0  0  0  0  0  0  0  0  0  0
   -3.0626    3.8977    2.0629 H   0  0  0  0  0  0  0  0  0  0  0  0
   -0.6635    1.3313    0.0020 N   0  0  0  0  0  0  0  0  0  0  0  0
    0.5138    0.8305   -0.6617 C   0  0  2  0  0  0  0  0  0  0  0  0
    0.0641    0.2403   -1.9934 C   0  0  0  0  0  0  0  0  0  0  0  0
   -0.3067   -0.9251   -2.1178 O   0  0  0  0  0  0  0  0  0  0  0  0
    1.2417   -0.2299    0.1725 C   0  0  0  0  0  0  0  0  0  0  0  0
    1.7845    0.3191    1.4693 C   0  0  0  0  0  0  0  0  0  0  0  0
    2.9048    1.1119    1.4775 N   0  0  0  0  0  0  0  0  0  0  0  0
    1.2969    0.1354    2.7416 C   0  0  0  0  0  0  0  0  0  0  0  0
    3.0961    1.4079    2.7439 C   0  0  0  0  0  0  0  0  0  0  0  0
    2.1477    0.8384    3.5473 N   0  0  0  0  0  0  0  0  0  0  0  0
   -1.4467    1.6280   -0.5753 H   0  0  0  0  0  0  0  0  0  0  0  0
    1.1574    1.6973   -0.8523 H   0  0  0  0  0  0  0  0  0  0  0  0
    2.0586   -0.6772   -0.4100 H   0  0  0  0  0  0  0  0  0  0  0  0
    0.5663   -1.0630    0.4078 H   0  0  0  0  0  0  0  0  0  0  0  0
    0.4530   -0.4116    3.1370 H   0  0  0  0  0  0  0  0  0  0  0  0
    3.8920    2.0219    3.1412 H   0  0  0  0  0  0  0  0  0  0  0  0
    2.0866    0.9229    4.5532 H   0  0  0  0  0  0  0  0  0  0  0  0
    0.0796    1.1836   -3.0115 N   0  0  0  0  0  0  0  0  0  0  0  0
   -0.3224    0.8928   -4.3689 C   0  0  2  0  0  0  0  0  0  0  0  0
    0.4083   -0.3663   -4.8164 C   0  0  0  0  0  0  0  0  0  0  0  0
    1.4536   -0.7548   -4.2992 O   0  0  0  0  0  0  0  0  0  0  0  0
   -0.0173    2.0575   -5.2979 C   0  0  0  0  0  0  0  0  0  0  0  0
    0.3891    2.1257   -2.7914 H   0  0  0  0  0  0  0  0  0  0  0  0
   -1.4007    0.7010   -4.3452 H   0  0  0  0  0  0  0  0  0  0  0  0
    1.0585    2.2646   -5.3346 H   0  0  0  0  0  0  0  0  0  0  0  0
   -0.3484    1.8470   -6.3202 H   0  0  0  0  0  0  0  0  0  0  0  0
   -0.5199    2.9694   -4.9577 H   0  0  0  0  0  0  0  0  0  0  0  0
   -0.2210   -0.9814   -5.8896 N   0  0  0  0  0  0  0  0  0  0  0  0
    0.2854   -2.1863   -6.5041 C   0  0  0  0  0  0  0  0  0  0  0  0
   -1.0940   -0.6004   -6.2422 H   0  0  0  0  0  0  0  0  0  0  0  0
    0.9408   -1.9212   -7.3469 H   0  0  0  0  0  0  0  0  0  0  0  0
    0.8572   -2.7635   -5.7626 H   0  0  0  0  0  0  0  0  0  0  0  0
   -0.5561   -2.7923   -6.8709 H   0  0  0  0  0  0  0  0  0  0  0  0
 22 24  2  0  0  0  0
 24 26  1  0  0  0  0
 23 25  2  0  0  0  0
 25 26  1  0  0  0  0
 21 22  1  0  0  0  0
 22 23  1  0  0  0  0
  1  3  1  0  0  0  0
  1  7  1  0  0  0  0
  1  2  2  0  0  0  0
 35 36  1  0  0  0  0
 36 44  1  0  0  0  0
 36 37  2  0  0  0  0
  8  9  1  0  0  0  0
  9 17  1  0  0  0  0
  9 10  2  0  0  0  0
 18 19  1  0  0  0  0
 19 34  1  0  0  0  0
 19 20  2  0  0  0  0
 35 38  1  0  0  0  0
  8 11  1  0  0  0  0
 44 45  1  0  0  0  0
 18 21  1  0  0  0  0
 34 35  1  0  0  0  0
  7  8  1  0  0  0  0
 17 18  1  0  0  0  0
 24 31  1  0  0  0  0
 25 32  1  0  0  0  0
  3  4  1  0  0  0  0
  3  5  1  0  0  0  0
  3  6  1  0  0  0  0
 38 41  1  0  0  0  0
 38 42  1  0  0  0  0
 38 43  1  0  0  0  0
 11 14  1  0  0  0  0
 11 15  1  0  0  0  0
 11 16  1  0  0  0  0
 45 47  1  0  0  0  0
 45 48  1  0  0  0  0
 45 49  1  0  0  0  0
 21 29  1  0  0  0  0
 21 30  1  0  0  0  0
 35 40  1  0  0  0  0
  8 13  1  0  0  0  0
 18 28  1  0  0  0  0
 26 33  1  0  0  0  0
 44 46  1  0  0  0  0
  7 12  1  0  0  0  0
 34 39  1  0  0  0  0
 17 27  1  0  0  0  0
M  END
$$$$

  -OEChem-05262214473D

 49 49  0     1  0  0  0  0  0999 V2000
   -1.6183    0.5613    3.8201 C   0  0  0  0  0  0  0  0  0  0  0  0
   -0.6710   -0.0534    3.3444 O   0  0  0  0  0  0  0  0  0  0  0  0
   -2.0502    0.2789    5.2208 C   0  0  0  0  0  0  0  0  0  0  0  0
   -2.8099   -0.5175    5.2742 H   0  0  0  0  0  0  0  0  0  0  0  0
   -1.2190   -0.0687    5.8551 H   0  0  0  0  0  0  0  0  0  0  0  0
   -2.4882    1.1338    5.7604 H   0  0  0  0  0  0  0  0  0  0  0  0
   -2.3680    1.5337    3.1790 N   0  0  0  0  0  0  0  0  0  0  0  0
   -2.1212    1.9597    1.8266 C   0  0  2  0  0  0  0  0  0  0  0  0
   -0.7862    1.3744    1.3854 C   0  0  0  0  0  0  0  0  0  0  0  0
    0.0859    1.0216    2.1767 O   0  0  0  0  0  0  0  0  0  0  0  0
   -2.1124    3.4765    1.7171 C   0  0  0  0  0  0  0  0  0  0  0  0
   -3.1331    1.9695    3.6908 H   0  0  0  0  0  0  0  0  0  0  0  0
   -2.9253    1.5413    1.2115 H   0  0  0  0  0  0  0  0  0  0  0  0
   -1.3133    3.9138    2.3268 H   0  0  0  0  0  0  0  0  0  0  0  0
   -1.9529    3.7988    0.6829 H   0  0  0  0  0  0  0  0  0  0  0  0
   -3.0626    3.8977    2.0629 H   0  0  0  0  0  0  0  0  0  0  0  0
   -0.6635    1.3313    0.0020 N   0  0  0  0  0  0  0  0  0  0  0  0
    0.5138    0.8305   -0.6617 C   0  0  2  0  0  0  0  0  0  0  0  0
    0.0641    0.2403   -1.9934 C   0  0  0  0  0  0  0  0  0  0  0  0
   -0.5518   -0.8198   -2.0816 O   0  0  0  0  0  0  0  0  0  0  0  0
    1.2417   -0.2299    0.1725 C   0  0  0  0  0  0  0  0  0  0  0  0
    1.7845    0.3191    1.4693 C   0  0  0  0  0  0  0  0  0  0  0  0
    2.9048    1.1119    1.4775 N   0  0  0  0  0  0  0  0  0  0  0  0
    1.2969    0.1354    2.7416 C   0  0  0  0  0  0  0  0  0  0  0  0
    3.0961    1.4079    2.7439 C   0  0  0  0  0  0  0  0  0  0  0  0
    2.1477    0.8384    3.5473 N   0  0  0  0  0  0  0  0  0  0  0  0
   -1.4467    1.6280   -0.5753 H   0  0  0  0  0  0  0  0  0  0  0  0
    1.1574    1.6973   -0.8523 H   0  0  0  0  0  0  0  0  0  0  0  0
    2.0586   -0.6772   -0.4100 H   0  0  0  0  0  0  0  0  0  0  0  0
    0.5663   -1.0630    0.4078 H   0  0  0  0  0  0  0  0  0  0  0  0
    0.4530   -0.4116    3.1370 H   0  0  0  0  0  0  0  0  0  0  0  0
    3.8920    2.0219    3.1412 H   0  0  0  0  0  0  0  0  0  0  0  0
    2.0866    0.9229    4.5532 H   0  0  0  0  0  0  0  0  0  0  0  0
    0.3891    1.0633   -3.0627 N   0  0  0  0  0  0  0  0  0  0  0  0
    0.0568    0.7511   -4.4342 C   0  0  2  0  0  0  0  0  0  0  0  0
    0.5162   -0.6732   -4.7168 C   0  0  0  0  0  0  0  0  0  0  0  0
    1.3923   -1.2373   -4.0647 O   0  0  0  0  0  0  0  0  0  0  0  0
    0.7053    1.7326   -5.3979 C   0  0  0  0  0  0  0  0  0  0  0  0
    0.8855    1.9287   -2.8718 H   0  0  0  0  0  0  0  0  0  0  0  0
   -1.0342    0.8065   -4.5157 H   0  0  0  0  0  0  0  0  0  0  0  0
    1.7985    1.6914   -5.3305 H   0  0  0  0  0  0  0  0  0  0  0  0
    0.4295    1.5119   -6.4344 H   0  0  0  0  0  0  0  0  0  0  0  0
    0.3970    2.7596   -5.1743 H   0  0  0  0  0  0  0  0  0  0  0  0
   -0.1369   -1.2250   -5.8100 N   0  0  0  0  0  0  0  0  0  0  0  0
    0.1328   -2.5615   -6.2863 C   0  0  0  0  0  0  0  0  0  0  0  0
   -0.8629   -0.6920   -6.2796 H   0  0  0  0  0  0  0  0  0  0  0  0
    0.9058   -2.5238   -7.0680 H   0  0  0  0  0  0  0  0  0  0  0  0
    0.4863   -3.1840   -5.4511 H   0  0  0  0  0  0  0  0  0  0  0  0
   -0.7884   -2.9952   -6.7025 H   0  0  0  0  0  0  0  0  0  0  0  0
 22 24  2  0  0  0  0
 24 26  1  0  0  0  0
 23 25  2  0  0  0  0
 25 26  1  0  0  0  0
 21 22  1  0  0  0  0
 22 23  1  0  0  0  0
  1  3  1  0  0  0  0
  1  7  1  0  0  0  0
  1  2  2  0  0  0  0
 35 36  1  0  0  0  0
 36 44  1  0  0  0  0
 36 37  2  0  0  0  0
  8  9  1  0  0  0  0
  9 17  1  0  0  0  0
  9 10  2  0  0  0  0
 18 19  1  0  0  0  0
 19 34  1  0  0  0  0
 19 20  2  0  0  0  0
 35 38  1  0  0  0  0
  8 11  1  0  0  0  0
 44 45  1  0  0  0  0
 18 21  1  0  0  0  0
 34 35  1  0  0  0  0
  7  8  1  0  0  0  0
 17 18  1  0  0  0  0
 24 31  1  0  0  0  0
 25 32  1  0  0  0  0
  3  4  1  0  0  0  0
  3  5  1  0  0  0  0
  3  6  1  0  0  0  0
 38 41  1  0  0  0  0
 38 42  1  0  0  0  0
 38 43  1  0  0  0  0
 11 14  1  0  0  0  0
 11 15  1  0  0  0  0
 11 16  1  0  0  0  0
 45 47  1  0  0  0  0
 45 48  1  0  0  0  0
 45 49  1  0  0  0  0
 21 29  1  0  0  0  0
 21 30  1  0  0  0  0
 35 40  1  0  0  0  0
  8 13  1  0  0  0  0
 18 28  1  0  0  0  0
 26 33  1  0  0  0  0
 44 46  1  0  0  0  0
  7 12  1  0  0  0  0
 34 39  1  0  0  0  0
 17 27  1  0  0  0  0
M  END
$$$$

  -OEChem-05262214473D

 49 49  0     1  0  0  0  0  0999 V2000
   -1.6183    0.5613    3.8201 C   0  0  0  0  0  0  0  0  0  0  0  0
   -0.6710   -0.0534    3.3444 O   0  0  0  0  0  0  0  0  0  0  0  0
   -2.0502    0.2789    5.2208 C   0  0  0  0  0  0  0  0  0  0  0  0
   -2.8099   -0.5175    5.2742 H   0  0  0  0  0  0  0  0  0  0  0  0
   -1.2190   -0.0687    5.8551 H   0  0  0  0  0  0  0  0  0  0  0  0
   -2.4882    1.1338    5.7604 H   0  0  0  0  0  0  0  0  0  0  0  0
   -2.3680    1.5337    3.1790 N   0  0  0  0  0  0  0  0  0  0  0  0
   -2.1212    1.9597    1.8266 C   0  0  2  0  0  0  0  0  0  0  0  0
   -0.7862    1.3744    1.3854 C   0  0  0  0  0  0  0  0  0  0  0  0
    0.0859    1.0216    2.1767 O   0  0  0  0  0  0  0  0  0  0  0  0
   -2.1124    3.4765    1.7171 C   0  0  0  0  0  0  0  0  0  0  0  0
   -3.1331    1.9695    3.6908 H   0  0  0  0  0  0  0  0  0  0  0  0
   -2.9253    1.5413    1.2115 H   0  0  0  0  0  0  0  0  0  0  0  0
   -1.3133    3.9138    2.3268 H   0  0  0  0  0  0  0  0  0  0  0  0
   -1.9529    3.7988    0.6829 H   0  0  0  0  0  0  0  0  0  0  0  0
   -3.0626    3.8977    2.0629 H   0  0  0  0  0  0  0  0  0  0  0  0
   -0.6635    1.3313    0.0020 N   0  0  0  0  0  0  0  0  0  0  0  0
    0.5138    0.8305   -0.6617 C   0  0  2  0  0  0  0  0  0  0  0  0
    0.0641    0.2403   -1.9934 C   0  0  0  0  0  0  0  0  0  0  0  0
   -0.7684   -0.6600   -2.0793 O   0  0  0  0  0  0  0  0  0  0  0  0
    1.2417   -0.2299    0.1725 C   0  0  0  0  0  0  0  0  0  0  0  0
    1.7845    0.3191    1.4693 C   0  0  0  0  0  0  0  0  0  0  0  0
    2.9048    1.1119    1.4775 N   0  0  0  0  0  0  0  0  0  0  0  0
    1.2969    0.1354    2.7416 C   0  0  0  0  0  0  0  0  0  0  0  0
    3.0961    1.4079    2.7439 C   0  0  0  0  0  0  0  0  0  0  0  0
    2.1477    0.8384    3.5473 N   0  0  0  0  0  0  0  0  0  0  0  0
   -1.4467    1.6280   -0.5753 H   0  0  0  0  0  0  0  0  0  0  0  0
    1.1574    1.6973   -0.8523 H   0  0  0  0  0  0  0  0  0  0  0  0
    2.0586   -0.6772   -0.4100 H   0  0  0  0  0  0  0  0  0  0  0  0
    0.5663   -1.0630    0.4078 H   0  0  0  0  0  0  0  0  0  0  0  0
    0.4530   -0.4116    3.1370 H   0  0  0  0  0  0  0  0  0  0  0  0
    3.8920    2.0219    3.1412 H   0  0  0  0  0  0  0  0  0  0  0  0
    2.0866    0.9229    4.5532 H   0  0  0  0  0  0  0  0  0  0  0  0
    0.6660    0.8733   -3.0720 N   0  0  0  0  0  0  0  0  0  0  0  0
    0.3976    0.5234   -4.4484 C   0  0  2  0  0  0  0  0  0  0  0  0
    0.5410   -0.9865   -4.5863 C   0  0  0  0  0  0  0  0  0  0  0  0
    1.2005   -1.6717   -3.8074 O   0  0  0  0  0  0  0  0  0  0  0  0
    1.3398    1.2478   -5.3973 C   0  0  0  0  0  0  0  0  0  0  0  0
    1.3286    1.6201   -2.8846 H   0  0  0  0  0  0  0  0  0  0  0  0
   -0.6392    0.8125   -4.6518 H   0  0  0  0  0  0  0  0  0  0  0  0
    2.3834    0.9708   -5.2086 H   0  0  0  0  0  0  0  0  0  0  0  0
    1.1166    1.0037   -6.4411 H   0  0  0  0  0  0  0  0  0  0  0  0
    1.2568    2.3332   -5.2756 H   0  0  0  0  0  0  0  0  0  0  0  0
   -0.1187   -1.4733   -5.7061 N   0  0  0  0  0  0  0  0  0  0  0  0
   -0.1212   -2.8729   -6.0626 C   0  0  0  0  0  0  0  0  0  0  0  0
   -0.6567   -0.8356   -6.2856 H   0  0  0  0  0  0  0  0  0  0  0  0
    0.7079   -3.0767   -6.7561 H   0  0  0  0  0  0  0  0  0  0  0  0
    0.0017   -3.4824   -5.1552 H   0  0  0  0  0  0  0  0  0  0  0  0
   -1.0755   -3.1259   -6.5477 H   0  0  0  0  0  0  0  0  0  0  0  0
 22 24  2  0  0  0  0
 24 26  1  0  0  0  0
 23 25  2  0  0  0  0
 25 26  1  0  0  0  0
 21 22  1  0  0  0  0
 22 23  1  0  0  0  0
  1  3  1  0  0  0  0
  1  7  1  0  0  0  0
  1  2  2  0  0  0  0
 35 36  1  0  0  0  0
 36 44  1  0  0  0  0
 36 37  2  0  0  0  0
  8  9  1  0  0  0  0
  9 17  1  0  0  0  0
  9 10  2  0  0  0  0
 18 19  1  0  0  0  0
 19 34  1  0  0  0  0
 19 20  2  0  0  0  0
 35 38  1  0  0  0  0
  8 11  1  0  0  0  0
 44 45  1  0  0  0  0
 18 21  1  0  0  0  0
 34 35  1  0  0  0  0
  7  8  1  0  0  0  0
 17 18  1  0  0  0  0
 24 31  1  0  0  0  0
 25 32  1  0  0  0  0
  3  4  1  0  0  0  0
  3  5  1  0  0  0  0
  3  6  1  0  0  0  0
 38 41  1  0  0  0  0
 38 42  1  0  0  0  0
 38 43  1  0  0  0  0
 11 14  1  0  0  0  0
 11 15  1  0  0  0  0
 11 16  1  0  0  0  0
 45 47  1  0  0  0  0
 45 48  1  0  0  0  0
 45 49  1  0  0  0  0
 21 29  1  0  0  0  0
 21 30  1  0  0  0  0
 35 40  1  0  0  0  0
  8 13  1  0  0  0  0
 18 28  1  0  0  0  0
 26 33  1  0  0  0  0
 44 46  1  0  0  0  0
  7 12  1  0  0  0  0
 34 39  1  0  0  0  0
 17 27  1  0  0  0  0
M  END
$$$$

  -OEChem-05262214473D

 49 49  0     1  0  0  0  0  0999 V2000
   -1.6183    0.5613    3.8201 C   0  0  0  0  0  0  0  0  0  0  0  0
   -0.6710   -0.0534    3.3444 O   0  0  0  0  0  0  0  0  0  0  0  0
   -2.0502    0.2789    5.2208 C   0  0  0  0  0  0  0  0  0  0  0  0
   -2.8099   -0.5175    5.2742 H   0  0  0  0  0  0  0  0  0  0  0  0
   -1.2190   -0.0687    5.8551 H   0  0  0  0  0  0  0  0  0  0  0  0
   -2.4882    1.1338    5.7604 H   0  0  0  0  0  0  0  0  0  0  0  0
   -2.3680    1.5337    3.1790 N   0  0  0  0  0  0  0  0  0  0  0  0
   -2.1212    1.9597    1.8266 C   0  0  2  0  0  0  0  0  0  0  0  0
   -0.7862    1.3744    1.3854 C   0  0  0  0  0  0  0  0  0  0  0  0
    0.0859    1.0216    2.1767 O   0  0  0  0  0  0  0  0  0  0  0  0
   -2.1124    3.4765    1.7171 C   0  0  0  0  0  0  0  0  0  0  0  0
   -3.1331    1.9695    3.6908 H   0  0  0  0  0  0  0  0  0  0  0  0
   -2.9253    1.5413    1.2115 H   0  0  0  0  0  0  0  0  0  0  0  0
   -1.3133    3.9138    2.3268 H   0  0  0  0  0  0  0  0  0  0  0  0
   -1.9529    3.7988    0.6829 H   0  0  0  0  0  0  0  0  0  0  0  0
   -3.0626    3.8977    2.0629 H   0  0  0  0  0  0  0  0  0  0  0  0
   -0.6635    1.3313    0.0020 N   0  0  0  0  0  0  0  0  0  0  0  0
    0.5138    0.8305   -0.6617 C   0  0  2  0  0  0  0  0  0  0  0  0
    0.0641    0.2403   -1.9934 C   0  0  0  0  0  0  0  0  0  0  0  0
   -0.9417   -0.4565   -2.1110 O   0  0  0  0  0  0  0  0  0  0  0  0
    1.2417   -0.2299    0.1725 C   0  0  0  0  0  0  0  0  0  0  0  0
    1.7845    0.3191    1.4693 C   0  0  0  0  0  0  0  0  0  0  0  0
    2.9048    1.1119    1.4775 N   0  0  0  0  0  0  0  0  0  0  0  0
    1.2969    0.1354    2.7416 C   0  0  0  0  0  0  0  0  0  0  0  0
    3.0961    1.4079    2.7439 C   0  0  0  0  0  0  0  0  0  0  0  0
    2.1477    0.8384    3.5473 N   0  0  0  0  0  0  0  0  0  0  0  0
   -1.4467    1.6280   -0.5753 H   0  0  0  0  0  0  0  0  0  0  0  0
    1.1574    1.6973   -0.8523 H   0  0  0  0  0  0  0  0  0  0  0  0
    2.0586   -0.6772   -0.4100 H   0  0  0  0  0  0  0  0  0  0  0  0
    0.5663   -1.0630    0.4078 H   0  0  0  0  0  0  0  0  0  0  0  0
    0.4530   -0.4116    3.1370 H   0  0  0  0  0  0  0  0  0  0  0  0
    3.8920    2.0219    3.1412 H   0  0  0  0  0  0  0  0  0  0  0  0
    2.0866    0.9229    4.5532 H   0  0  0  0  0  0  0  0  0  0  0  0
    0.8915    0.6264   -3.0388 N   0  0  0  0  0  0  0  0  0  0  0  0
    0.6768    0.2254   -4.4105 C   0  0  2  0  0  0  0  0  0  0  0  0
    0.4810   -1.2848   -4.4339 C   0  0  0  0  0  0  0  0  0  0  0  0
    0.8913   -2.0282   -3.5450 O   0  0  0  0  0  0  0  0  0  0  0  0
    1.8430    0.6360   -5.2961 C   0  0  0  0  0  0  0  0  0  0  0  0
    1.6880    1.2208   -2.8291 H   0  0  0  0  0  0  0  0  0  0  0  0
   -0.2427    0.7186   -4.7440 H   0  0  0  0  0  0  0  0  0  0  0  0
    2.7732    0.1517   -4.9772 H   0  0  0  0  0  0  0  0  0  0  0  0
    1.6660    0.3569   -6.3400 H   0  0  0  0  0  0  0  0  0  0  0  0
    2.0011    1.7191   -5.2548 H   0  0  0  0  0  0  0  0  0  0  0  0
   -0.1677   -1.7092   -5.5850 N   0  0  0  0  0  0  0  0  0  0  0  0
   -0.4595   -3.0991   -5.8481 C   0  0  0  0  0  0  0  0  0  0  0  0
   -0.4893   -1.0215   -6.2598 H   0  0  0  0  0  0  0  0  0  0  0  0
    0.3604   -3.5421   -6.4325 H   0  0  0  0  0  0  0  0  0  0  0  0
   -0.5635   -3.6385   -4.8951 H   0  0  0  0  0  0  0  0  0  0  0  0
   -1.3979   -3.1753   -6.4169 H   0  0  0  0  0  0  0  0  0  0  0  0
 22 24  2  0  0  0  0
 24 26  1  0  0  0  0
 23 25  2  0  0  0  0
 25 26  1  0  0  0  0
 21 22  1  0  0  0  0
 22 23  1  0  0  0  0
  1  3  1  0  0  0  0
  1  7  1  0  0  0  0
  1  2  2  0  0  0  0
 35 36  1  0  0  0  0
 36 44  1  0  0  0  0
 36 37  2  0  0  0  0
  8  9  1  0  0  0  0
  9 17  1  0  0  0  0
  9 10  2  0  0  0  0
 18 19  1  0  0  0  0
 19 34  1  0  0  0  0
 19 20  2  0  0  0  0
 35 38  1  0  0  0  0
  8 11  1  0  0  0  0
 44 45  1  0  0  0  0
 18 21  1  0  0  0  0
 34 35  1  0  0  0  0
  7  8  1  0  0  0  0
 17 18  1  0  0  0  0
 24 31  1  0  0  0  0
 25 32  1  0  0  0  0
  3  4  1  0  0  0  0
  3  5  1  0  0  0  0
  3  6  1  0  0  0  0
 38 41  1  0  0  0  0
 38 42  1  0  0  0  0
 38 43  1  0  0  0  0
 11 14  1  0  0  0  0
 11 15  1  0  0  0  0
 11 16  1  0  0  0  0
 45 47  1  0  0  0  0
 45 48  1  0  0  0  0
 45 49  1  0  0  0  0
 21 29  1  0  0  0  0
 21 30  1  0  0  0  0
 35 40  1  0  0  0  0
  8 13  1  0  0  0  0
 18 28  1  0  0  0  0
 26 33  1  0  0  0  0
 44 46  1  0  0  0  0
  7 12  1  0  0  0  0
 34 39  1  0  0  0  0
 17 27  1  0  0  0  0
M  END
$$$$

  -OEChem-05262214473D

 49 49  0     1  0  0  0  0  0999 V2000
   -1.6183    0.5613    3.8201 C   0  0  0  0  0  0  0  0  0  0  0  0
   -0.6710   -0.0534    3.3444 O   0  0  0  0  0  0  0  0  0  0  0  0
   -2.0502    0.2789    5.2208 C   0  0  0  0  0  0  0  0  0  0  0  0
   -2.8099   -0.5175    5.2742 H   0  0  0  0  0  0  0  0  0  0  0  0
   -1.2190   -0.0687    5.8551 H   0  0  0  0  0  0  0  0  0  0  0  0
   -2.4882    1.1338    5.7604 H   0  0  0  0  0  0  0  0  0  0  0  0
   -2.3680    1.5337    3.1790 N   0  0  0  0  0  0  0  0  0  0  0  0
   -2.1212    1.9597    1.8266 C   0  0  2  0  0  0  0  0  0  0  0  0
   -0.7862    1.3744    1.3854 C   0  0  0  0  0  0  0  0  0  0  0  0
    0.0859    1.0216    2.1767 O   0  0  0  0  0  0  0  0  0  0  0  0
   -2.1124    3.4765    1.7171 C   0  0  0  0  0  0  0  0  0  0  0  0
   -3.1331    1.9695    3.6908 H   0  0  0  0  0  0  0  0  0  0  0  0
   -2.9253    1.5413    1.2115 H   0  0  0  0  0  0  0  0  0  0  0  0
   -1.3133    3.9138    2.3268 H   0  0  0  0  0  0  0  0  0  0  0  0
   -1.9529    3.7988    0.6829 H   0  0  0  0  0  0  0  0  0  0  0  0
   -3.0626    3.8977    2.0629 H   0  0  0  0  0  0  0  0  0  0  0  0
   -0.6635    1.3313    0.0020 N   0  0  0  0  0  0  0  0  0  0  0  0
    0.5138    0.8305   -0.6617 C   0  0  2  0  0  0  0  0  0  0  0  0
    0.0641    0.2403   -1.9934 C   0  0  0  0  0  0  0  0  0  0  0  0
   -1.0599   -0.2232   -2.1745 O   0  0  0  0  0  0  0  0  0  0  0  0
    1.2417   -0.2299    0.1725 C   0  0  0  0  0  0  0  0  0  0  0  0
    1.7845    0.3191    1.4693 C   0  0  0  0  0  0  0  0  0  0  0  0
    2.9048    1.1119    1.4775 N   0  0  0  0  0  0  0  0  0  0  0  0
    1.2969    0.1354    2.7416 C   0  0  0  0  0  0  0  0  0  0  0  0
    3.0961    1.4079    2.7439 C   0  0  0  0  0  0  0  0  0  0  0  0
    2.1477    0.8384    3.5473 N   0  0  0  0  0  0  0  0  0  0  0  0
   -1.4467    1.6280   -0.5753 H   0  0  0  0  0  0  0  0  0  0  0  0
    1.1574    1.6973   -0.8523 H   0  0  0  0  0  0  0  0  0  0  0  0
    2.0586   -0.6772   -0.4100 H   0  0  0  0  0  0  0  0  0  0  0  0
    0.5663   -1.0630    0.4078 H   0  0  0  0  0  0  0  0  0  0  0  0
    0.4530   -0.4116    3.1370 H   0  0  0  0  0  0  0  0  0  0  0  0
    3.8920    2.0219    3.1412 H   0  0  0  0  0  0  0  0  0  0  0  0
    2.0866    0.9229    4.5532 H   0  0  0  0  0  0  0  0  0  0  0  0
    1.0501    0.3395   -2.9652 N   0  0  0  0  0  0  0  0  0  0  0  0
    0.8753   -0.1227   -4.3233 C   0  0  2  0  0  0  0  0  0  0  0  0
    0.3404   -1.5477   -4.2699 C   0  0  0  0  0  0  0  0  0  0  0  0
    0.4857   -2.2826   -3.2953 O   0  0  0  0  0  0  0  0  0  0  0  0
    2.1806   -0.0609   -5.1012 C   0  0  0  0  0  0  0  0  0  0  0  0
    1.9394    0.7581   -2.7089 H   0  0  0  0  0  0  0  0  0  0  0  0
    0.1283    0.5312   -4.7863 H   0  0  0  0  0  0  0  0  0  0  0  0
    2.9413   -0.7098   -4.6522 H   0  0  0  0  0  0  0  0  0  0  0  0
    2.0403   -0.3844   -6.1379 H   0  0  0  0  0  0  0  0  0  0  0  0
    2.5791    0.9593   -5.1133 H   0  0  0  0  0  0  0  0  0  0  0  0
   -0.2805   -1.9168   -5.4549 N   0  0  0  0  0  0  0  0  0  0  0  0
   -0.8588   -3.2247   -5.6576 C   0  0  0  0  0  0  0  0  0  0  0  0
   -0.3723   -1.2368   -6.2039 H   0  0  0  0  0  0  0  0  0  0  0  0
   -0.1129   -3.8884   -6.1192 H   0  0  0  0  0  0  0  0  0  0  0  0
   -1.1707   -3.6417   -4.6887 H   0  0  0  0  0  0  0  0  0  0  0  0
   -1.7336   -3.1402   -6.3191 H   0  0  0  0  0  0  0  0  0  0  0  0
 22 24  2  0  0  0  0
 24 26  1  0  0  0  0
 23 25  2  0  0  0  0
 25 26  1  0  0  0  0
 21 22  1  0  0  0  0
 22 23  1  0  0  0  0
  1  3  1  0  0  0  0
  1  7  1  0  0  0  0
  1  2  2  0  0  0  0
 35 36  1  0  0  0  0
 36 44  1  0  0  0  0
 36 37  2  0  0  0  0
  8  9  1  0  0  0  0
  9 17  1  0  0  0  0
  9 10  2  0  0  0  0
 18 19  1  0  0  0  0
 19 34  1  0  0  0  0
 19 20  2  0  0  0  0
 35 38  1  0  0  0  0
  8 11  1  0  0  0  0
 44 45  1  0  0  0  0
 18 21  1  0  0  0  0
 34 35  1  0  0  0  0
  7  8  1  0  0  0  0
 17 18  1  0  0  0  0
 24 31  1  0  0  0  0
 25 32  1  0  0  0  0
  3  4  1  0  0  0  0
  3  5  1  0  0  0  0
  3  6  1  0  0  0  0
 38 41  1  0  0  0  0
 38 42  1  0  0  0  0
 38 43  1  0  0  0  0
 11 14  1  0  0  0  0
 11 15  1  0  0  0  0
 11 16  1  0  0  0  0
 45 47  1  0  0  0  0
 45 48  1  0  0  0  0
 45 49  1  0  0  0  0
 21 29  1  0  0  0  0
 21 30  1  0  0  0  0
 35 40  1  0  0  0  0
  8 13  1  0  0  0  0
 18 28  1  0  0  0  0
 26 33  1  0  0  0  0
 44 46  1  0  0  0  0
  7 12  1  0  0  0  0
 34 39  1  0  0  0  0
 17 27  1  0  0  0  0
M  END
$$$$

  -OEChem-05262214473D

 49 49  0     1  0  0  0  0  0999 V2000
   -1.6183    0.5613    3.8201 C   0  0  0  0  0  0  0  0  0  0  0  0
   -0.6710   -0.0534    3.3444 O   0  0  0  0  0  0  0  0  0  0  0  0
   -2.0502    0.2789    5.2208 C   0  0  0  0  0  0  0  0  0  0  0  0
   -2.8099   -0.5175    5.2742 H   0  0  0  0  0  0  0  0  0  0  0  0
   -1.2190   -0.0687    5.8551 H   0  0  0  0  0  0  0  0  0  0  0  0
   -2.4882    1.1338    5.7604 H   0  0  0  0  0  0  0  0  0  0  0  0
   -2.3680    1.5337    3.1790 N   0  0  0  0  0  0  0  0  0  0  0  0
   -2.1212    1.9597    1.8266 C   0  0  2  0  0  0  0  0  0  0  0  0
   -0.7862    1.3744    1.3854 C   0  0  0  0  0  0  0  0  0  0  0  0
    0.0859    1.0216    2.1767 O   0  0  0  0  0  0  0  0  0  0  0  0
   -2.1124    3.4765    1.7171 C   0  0  0  0  0  0  0  0  0  0  0  0
   -3.1331    1.9695    3.6908 H   0  0  0  0  0  0  0  0  0  0  0  0
   -2.9253    1.5413    1.2115 H   0  0  0  0  0  0  0  0  0  0  0  0
   -1.3133    3.9138    2.3268 H   0  0  0  0  0  0  0  0  0  0  0  0
   -1.9529    3.7988    0.6829 H   0  0  0  0  0  0  0  0  0  0  0  0
   -3.0626    3.8977    2.0629 H   0  0  0  0  0  0  0  0  0  0  0  0
   -0.6635    1.3313    0.0020 N   0  0  0  0  0  0  0  0  0  0  0  0
    0.5138    0.8305   -0.6617 C   0  0  2  0  0  0  0  0  0  0  0  0
    0.0641    0.2403   -1.9934 C   0  0  0  0  0  0  0  0  0  0  0  0
   -1.1150    0.0241   -2.2655 O   0  0  0  0  0  0  0  0  0  0  0  0
    1.2417   -0.2299    0.1725 C   0  0  0  0  0  0  0  0  0  0  0  0
    1.7845    0.3191    1.4693 C   0  0  0  0  0  0  0  0  0  0  0  0
    2.9048    1.1119    1.4775 N   0  0  0  0  0  0  0  0  0  0  0  0
    1.2969    0.1354    2.7416 C   0  0  0  0  0  0  0  0  0  0  0  0
    3.0961    1.4079    2.7439 C   0  0  0  0  0  0  0  0  0  0  0  0
    2.1477    0.8384    3.5473 N   0  0  0  0  0  0  0  0  0  0  0  0
   -1.4467    1.6280   -0.5753 H   0  0  0  0  0  0  0  0  0  0  0  0
    1.1574    1.6973   -0.8523 H   0  0  0  0  0  0  0  0  0  0  0  0
    2.0586   -0.6772   -0.4100 H   0  0  0  0  0  0  0  0  0  0  0  0
    0.5663   -1.0630    0.4078 H   0  0  0  0  0  0  0  0  0  0  0  0
    0.4530   -0.4116    3.1370 H   0  0  0  0  0  0  0  0  0  0  0  0
    3.8920    2.0219    3.1412 H   0  0  0  0  0  0  0  0  0  0  0  0
    2.0866    0.9229    4.5532 H   0  0  0  0  0  0  0  0  0  0  0  0
    1.1311    0.0322   -2.8563 N   0  0  0  0  0  0  0  0  0  0  0  0
    0.9796   -0.4972   -4.1926 C   0  0  2  0  0  0  0  0  0  0  0  0
    0.1287   -1.7574   -4.1055 C   0  0  0  0  0  0  0  0  0  0  0  0
    0.0113   -2.4176   -3.0753 O   0  0  0  0  0  0  0  0  0  0  0  0
    2.3296   -0.7955   -4.8260 C   0  0  0  0  0  0  0  0  0  0  0  0
    2.0656    0.2636   -2.5323 H   0  0  0  0  0  0  0  0  0  0  0  0
    0.4485    0.2631   -4.7756 H   0  0  0  0  0  0  0  0  0  0  0  0
    2.8763   -1.5553   -4.2556 H   0  0  0  0  0  0  0  0  0  0  0  0
    2.2140   -1.1696   -5.8486 H   0  0  0  0  0  0  0  0  0  0  0  0
    2.9514    0.1055   -4.8606 H   0  0  0  0  0  0  0  0  0  0  0  0
   -0.4495   -2.0819   -5.3247 N   0  0  0  0  0  0  0  0  0  0  0  0
   -1.2920   -3.2412   -5.5040 C   0  0  0  0  0  0  0  0  0  0  0  0
   -0.3135   -1.4671   -6.1217 H   0  0  0  0  0  0  0  0  0  0  0  0
   -0.6798   -4.0921   -5.8376 H   0  0  0  0  0  0  0  0  0  0  0  0
   -1.7787   -3.4917   -4.5498 H   0  0  0  0  0  0  0  0  0  0  0  0
   -2.0597   -3.0229   -6.2610 H   0  0  0  0  0  0  0  0  0  0  0  0
 22 24  2  0  0  0  0
 24 26  1  0  0  0  0
 23 25  2  0  0  0  0
 25 26  1  0  0  0  0
 21 22  1  0  0  0  0
 22 23  1  0  0  0  0
  1  3  1  0  0  0  0
  1  7  1  0  0  0  0
  1  2  2  0  0  0  0
 35 36  1  0  0  0  0
 36 44  1  0  0  0  0
 36 37  2  0  0  0  0
  8  9  1  0  0  0  0
  9 17  1  0  0  0  0
  9 10  2  0  0  0  0
 18 19  1  0  0  0  0
 19 34  1  0  0  0  0
 19 20  2  0  0  0  0
 35 38  1  0  0  0  0
  8 11  1  0  0  0  0
 44 45  1  0  0  0  0
 18 21  1  0  0  0  0
 34 35  1  0  0  0  0
  7  8  1  0  0  0  0
 17 18  1  0  0  0  0
 24 31  1  0  0  0  0
 25 32  1  0  0  0  0
  3  4  1  0  0  0  0
  3  5  1  0  0  0  0
  3  6  1  0  0  0  0
 38 41  1  0  0  0  0
 38 42  1  0  0  0  0
 38 43  1  0  0  0  0
 11 14  1  0  0  0  0
 11 15  1  0  0  0  0
 11 16  1  0  0  0  0
 45 47  1  0  0  0  0
 45 48  1  0  0  0  0
 45 49  1  0  0  0  0
 21 29  1  0  0  0  0
 21 30  1  0  0  0  0
 35 40  1  0  0  0  0
  8 13  1  0  0  0  0
 18 28  1  0  0  0  0
 26 33  1  0  0  0  0
 44 46  1  0  0  0  0
  7 12  1  0  0  0  0
 34 39  1  0  0  0  0
 17 27  1  0  0  0  0
M  END
$$$$

  -OEChem-05262214473D

 49 49  0     1  0  0  0  0  0999 V2000
   -1.6183    0.5613    3.8201 C   0  0  0  0  0  0  0  0  0  0  0  0
   -0.6710   -0.0534    3.3444 O   0  0  0  0  0  0  0  0  0  0  0  0
   -2.0502    0.2789    5.2208 C   0  0  0  0  0  0  0  0  0  0  0  0
   -2.8099   -0.5175    5.2742 H   0  0  0  0  0  0  0  0  0  0  0  0
   -1.2190   -0.0687    5.8551 H   0  0  0  0  0  0  0  0  0  0  0  0
   -2.4882    1.1338    5.7604 H   0  0  0  0  0  0  0  0  0  0  0  0
   -2.3680    1.5337    3.1790 N   0  0  0  0  0  0  0  0  0  0  0  0
   -2.1212    1.9597    1.8266 C   0  0  2  0  0  0  0  0  0  0  0  0
   -0.7862    1.3744    1.3854 C   0  0  0  0  0  0  0  0  0  0  0  0
    0.0859    1.0216    2.1767 O   0  0  0  0  0  0  0  0  0  0  0  0
   -2.1124    3.4765    1.7171 C   0  0  0  0  0  0  0  0  0  0  0  0
   -3.1331    1.9695    3.6908 H   0  0  0  0  0  0  0  0  0  0  0  0
   -2.9253    1.5413    1.2115 H   0  0  0  0  0  0  0  0  0  0  0  0
   -1.3133    3.9138    2.3268 H   0  0  0  0  0  0  0  0  0  0  0  0
   -1.9529    3.7988    0.6829 H   0  0  0  0  0  0  0  0  0  0  0  0
   -3.0626    3.8977    2.0629 H   0  0  0  0  0  0  0  0  0  0  0  0
   -0.6635    1.3313    0.0020 N   0  0  0  0  0  0  0  0  0  0  0  0
    0.5138    0.8305   -0.6617 C   0  0  2  0  0  0  0  0  0  0  0  0
    0.1414    0.5902   -2.1204 C   0  0  0  0  0  0  0  0  0  0  0  0
   -0.9701    0.8471   -2.5782 O   0  0  0  0  0  0  0  0  0  0  0  0
    1.0317   -0.4637   -0.0237 C   0  0  0  0  0  0  0  0  0  0  0  0
    1.4952   -0.2682    1.3992 C   0  0  0  0  0  0  0  0  0  0  0  0
    2.6887    0.3548    1.6655 N   0  0  0  0  0  0  0  0  0  0  0  0
    0.8622   -0.6457    2.5599 C   0  0  0  0  0  0  0  0  0  0  0  0
    2.7801    0.3565    2.9769 C   0  0  0  0  0  0  0  0  0  0  0  0
    1.6976   -0.2392    3.5620 N   0  0  0  0  0  0  0  0  0  0  0  0
   -1.4467    1.6280   -0.5753 H   0  0  0  0  0  0  0  0  0  0  0  0
    1.2646    1.6276   -0.6096 H   0  0  0  0  0  0  0  0  0  0  0  0
    1.8501   -0.8830   -0.6246 H   0  0  0  0  0  0  0  0  0  0  0  0
    0.2484   -1.2333   -0.0275 H   0  0  0  0  0  0  0  0  0  0  0  0
   -0.0726   -1.1489    2.7609 H   0  0  0  0  0  0  0  0  0  0  0  0
    3.5935    0.7677    3.5580 H   0  0  0  0  0  0  0  0  0  0  0  0
    1.5431   -0.3566    4.5545 H   0  0  0  0  0  0  0  0  0  0  0  0
    1.2124    0.1030   -2.8566 N   0  0  0  0  0  0  0  0  0  0  0  0
    1.1365   -0.1887   -4.2700 C   0  0  2  0  0  0  0  0  0  0  0  0
   -0.0931   -1.0558   -4.5060 C   0  0  0  0  0  0  0  0  0  0  0  0
   -0.6143   -1.7349   -3.6238 O   0  0  0  0  0  0  0  0  0  0  0  0
    2.3959   -0.8867   -4.7594 C   0  0  0  0  0  0  0  0  0  0  0  0
    2.0939   -0.0567   -2.3778 H   0  0  0  0  0  0  0  0  0  0  0  0
    1.0120    0.7703   -4.7846 H   0  0  0  0  0  0  0  0  0  0  0  0
    2.5374   -1.8496   -4.2550 H   0  0  0  0  0  0  0  0  0  0  0  0
    2.3488   -1.0813   -5.8359 H   0  0  0  0  0  0  0  0  0  0  0  0
    3.2825   -0.2746   -4.5619 H   0  0  0  0  0  0  0  0  0  0  0  0
   -0.5142   -1.0156   -5.8278 N   0  0  0  0  0  0  0  0  0  0  0  0
   -1.6532   -1.7638   -6.3063 C   0  0  0  0  0  0  0  0  0  0  0  0
   -0.0339   -0.4103   -6.4871 H   0  0  0  0  0  0  0  0  0  0  0  0
   -1.3171   -2.7377   -6.6917 H   0  0  0  0  0  0  0  0  0  0  0  0
   -2.3617   -1.9214   -5.4797 H   0  0  0  0  0  0  0  0  0  0  0  0
   -2.1486   -1.2020   -7.1118 H   0  0  0  0  0  0  0  0  0  0  0  0
 22 24  2  0  0  0  0
 24 26  1  0  0  0  0
 23 25  2  0  0  0  0
 25 26  1  0  0  0  0
 21 22  1  0  0  0  0
 22 23  1  0  0  0  0
  1  3  1  0  0  0  0
  1  7  1  0  0  0  0
  1  2  2  0  0  0  0
 35 36  1  0  0  0  0
 36 44  1  0  0  0  0
 36 37  2  0  0  0  0
  8  9  1  0  0  0  0
  9 17  1  0  0  0  0
  9 10  2  0  0  0  0
 18 19  1  0  0  0  0
 19 34  1  0  0  0  0
 19 20  2  0  0  0  0
 35 38  1  0  0  0  0
  8 11  1  0  0  0  0
 44 45  1  0  0  0  0
 18 21  1  0  0  0  0
 34 35  1  0  0  0  0
  7  8  1  0  0  0  0
 17 18  1  0  0  0  0
 24 31  1  0  0  0  0
 25 32  1  0  0  0  0
  3  4  1  0  0  0  0
  3  5  1  0  0  0  0
  3  6  1  0  0  0  0
 38 41  1  0  0  0  0
 38 42  1  0  0  0  0
 38 43  1  0  0  0  0
 11 14  1  0  0  0  0
 11 15  1  0  0  0  0
 11 16  1  0  0  0  0
 45 47  1  0  0  0  0
 45 48  1  0  0  0  0
 45 49  1  0  0  0  0
 21 29  1  0  0  0  0
 21 30  1  0  0  0  0
 35 40  1  0  0  0  0
  8 13  1  0  0  0  0
 18 28  1  0  0  0  0
 26 33  1  0  0  0  0
 44 46  1  0  0  0  0
  7 12  1  0  0  0  0
 34 39  1  0  0  0  0
 17 27  1  0  0  0  0
M  END
$$$$

  -OEChem-05262214473D

 49 49  0     1  0  0  0  0  0999 V2000
   -1.6183    0.5613    3.8201 C   0  0  0  0  0  0  0  0  0  0  0  0
   -0.6710   -0.0534    3.3444 O   0  0  0  0  0  0  0  0  0  0  0  0
   -2.0502    0.2789    5.2208 C   0  0  0  0  0  0  0  0  0  0  0  0
   -2.8099   -0.5175    5.2742 H   0  0  0  0  0  0  0  0  0  0  0  0
   -1.2190   -0.0687    5.8551 H   0  0  0  0  0  0  0  0  0  0  0  0
   -2.4882    1.1338    5.7604 H   0  0  0  0  0  0  0  0  0  0  0  0
   -2.3680    1.5337    3.1790 N   0  0  0  0  0  0  0  0  0  0  0  0
   -2.1212    1.9597    1.8266 C   0  0  2  0  0  0  0  0  0  0  0  0
   -0.7862    1.3744    1.3854 C   0  0  0  0  0  0  0  0  0  0  0  0
    0.0859    1.0216    2.1767 O   0  0  0  0  0  0  0  0  0  0  0  0
   -2.1124    3.4765    1.7171 C   0  0  0  0  0  0  0  0  0  0  0  0
   -3.1331    1.9695    3.6908 H   0  0  0  0  0  0  0  0  0  0  0  0
   -2.9253    1.5413    1.2115 H   0  0  0  0  0  0  0  0  0  0  0  0
   -1.3133    3.9138    2.3268 H   0  0  0  0  0  0  0  0  0  0  0  0
   -1.9529    3.7988    0.6829 H   0  0  0  0  0  0  0  0  0  0  0  0
   -3.0626    3.8977    2.0629 H   0  0  0  0  0  0  0  0  0  0  0  0
   -0.6635    1.3313    0.0020 N   0  0  0  0  0  0  0  0  0  0  0  0
    0.5138    0.8305   -0.6617 C   0  0  2  0  0  0  0  0  0  0  0  0
    0.1414    0.5902   -2.1204 C   0  0  0  0  0  0  0  0  0  0  0  0
   -0.8555    1.0810   -2.6460 O   0  0  0  0  0  0  0  0  0  0  0  0
    1.0317   -0.4637   -0.0237 C   0  0  0  0  0  0  0  0  0  0  0  0
    1.4952   -0.2682    1.3992 C   0  0  0  0  0  0  0  0  0  0  0  0
    2.6887    0.3548    1.6655 N   0  0  0  0  0  0  0  0  0  0  0  0
    0.8622   -0.6457    2.5599 C   0  0  0  0  0  0  0  0  0  0  0  0
    2.7801    0.3565    2.9769 C   0  0  0  0  0  0  0  0  0  0  0  0
    1.6976   -0.2392    3.5620 N   0  0  0  0  0  0  0  0  0  0  0  0
   -1.4467    1.6280   -0.5753 H   0  0  0  0  0  0  0  0  0  0  0  0
    1.2646    1.6276   -0.6096 H   0  0  0  0  0  0  0  0  0  0  0  0
    1.8501   -0.8830   -0.6246 H   0  0  0  0  0  0  0  0  0  0  0  0
    0.2484   -1.2333   -0.0275 H   0  0  0  0  0  0  0  0  0  0  0  0
   -0.0726   -1.1489    2.7609 H   0  0  0  0  0  0  0  0  0  0  0  0
    3.5935    0.7677    3.5580 H   0  0  0  0  0  0  0  0  0  0  0  0
    1.5431   -0.3566    4.5545 H   0  0  0  0  0  0  0  0  0  0  0  0
    1.0809   -0.1950   -2.7739 N   0  0  0  0  0  0  0  0  0  0  0  0
    0.9813   -0.5549   -4.1701 C   0  0  2  0  0  0  0  0  0  0  0  0
   -0.4171   -1.1064   -4.4149 C   0  0  0  0  0  0  0  0  0  0  0  0
   -1.1196   -1.5743   -3.5213 O   0  0  0  0  0  0  0  0  0  0  0  0
    2.0426   -1.5734   -4.5561 C   0  0  0  0  0  0  0  0  0  0  0  0
    1.8788   -0.5337   -2.2443 H   0  0  0  0  0  0  0  0  0  0  0  0
    1.1164    0.3678   -4.7450 H   0  0  0  0  0  0  0  0  0  0  0  0
    1.9233   -2.5046   -3.9903 H   0  0  0  0  0  0  0  0  0  0  0  0
    1.9839   -1.8236   -5.6205 H   0  0  0  0  0  0  0  0  0  0  0  0
    3.0467   -1.1865   -4.3515 H   0  0  0  0  0  0  0  0  0  0  0  0
   -0.7713   -1.0542   -5.7558 N   0  0  0  0  0  0  0  0  0  0  0  0
   -2.0443   -1.5297   -6.2450 C   0  0  0  0  0  0  0  0  0  0  0  0
   -0.1340   -0.6324   -6.4249 H   0  0  0  0  0  0  0  0  0  0  0  0
   -1.9488   -2.5804   -6.5564 H   0  0  0  0  0  0  0  0  0  0  0  0
   -2.7965   -1.4511   -5.4462 H   0  0  0  0  0  0  0  0  0  0  0  0
   -2.3576   -0.9195   -7.1050 H   0  0  0  0  0  0  0  0  0  0  0  0
 22 24  2  0  0  0  0
 24 26  1  0  0  0  0
 23 25  2  0  0  0  0
 25 26  1  0  0  0  0
 21 22  1  0  0  0  0
 22 23  1  0  0  0  0
  1  3  1  0  0  0  0
  1  7  1  0  0  0  0
  1  2  2  0  0  0  0
 35 36  1  0  0  0  0
 36 44  1  0  0  0  0
 36 37  2  0  0  0  0
  8  9  1  0  0  0  0
  9 17  1  0  0  0  0
  9 10  2  0  0  0  0
 18 19  1  0  0  0  0
 19 34  1  0  0  0  0
 19 20  2  0  0  0  0
 35 38  1  0  0  0  0
  8 11  1  0  0  0  0
 44 45  1  0  0  0  0
 18 21  1  0  0  0  0
 34 35  1  0  0  0  0
  7  8  1  0  0  0  0
 17 18  1  0  0  0  0
 24 31  1  0  0  0  0
 25 32  1  0  0  0  0
  3  4  1  0  0  0  0
  3  5  1  0  0  0  0
  3  6  1  0  0  0  0
 38 41  1  0  0  0  0
 38 42  1  0  0  0  0
 38 43  1  0  0  0  0
 11 14  1  0  0  0  0
 11 15  1  0  0  0  0
 11 16  1  0  0  0  0
 45 47  1  0  0  0  0
 45 48  1  0  0  0  0
 45 49  1  0  0  0  0
 21 29  1  0  0  0  0
 21 30  1  0  0  0  0
 35 40  1  0  0  0  0
  8 13  1  0  0  0  0
 18 28  1  0  0  0  0
 26 33  1  0  0  0  0
 44 46  1  0  0  0  0
  7 12  1  0  0  0  0
 34 39  1  0  0  0  0
 17 27  1  0  0  0  0
M  END
$$$$

  -OEChem-05262214473D

 49 49  0     1  0  0  0  0  0999 V2000
   -1.6183    0.5613    3.8201 C   0  0  0  0  0  0  0  0  0  0  0  0
   -0.6710   -0.0534    3.3444 O   0  0  0  0  0  0  0  0  0  0  0  0
   -2.0502    0.2789    5.2208 C   0  0  0  0  0  0  0  0  0  0  0  0
   -2.8099   -0.5175    5.2742 H   0  0  0  0  0  0  0  0  0  0  0  0
   -1.2190   -0.0687    5.8551 H   0  0  0  0  0  0  0  0  0  0  0  0
   -2.4882    1.1338    5.7604 H   0  0  0  0  0  0  0  0  0  0  0  0
   -2.3680    1.5337    3.1790 N   0  0  0  0  0  0  0  0  0  0  0  0
   -2.1212    1.9597    1.8266 C   0  0  2  0  0  0  0  0  0  0  0  0
   -0.7862    1.3744    1.3854 C   0  0  0  0  0  0  0  0  0  0  0  0
    0.0859    1.0216    2.1767 O   0  0  0  0  0  0  0  0  0  0  0  0
   -2.1124    3.4765    1.7171 C   0  0  0  0  0  0  0  0  0  0  0  0
   -3.1331    1.9695    3.6908 H   0  0  0  0  0  0  0  0  0  0  0  0
   -2.9253    1.5413    1.2115 H   0  0  0  0  0  0  0  0  0  0  0  0
   -1.3133    3.9138    2.3268 H   0  0  0  0  0  0  0  0  0  0  0  0
   -1.9529    3.7988    0.6829 H   0  0  0  0  0  0  0  0  0  0  0  0
   -3.0626    3.8977    2.0629 H   0  0  0  0  0  0  0  0  0  0  0  0
   -0.6635    1.3313    0.0020 N   0  0  0  0  0  0  0  0  0  0  0  0
    0.5138    0.8305   -0.6617 C   0  0  2  0  0  0  0  0  0  0  0  0
    0.1414    0.5902   -2.1204 C   0  0  0  0  0  0  0  0  0  0  0  0
   -0.6841    1.2743   -2.7216 O   0  0  0  0  0  0  0  0  0  0  0  0
    1.0317   -0.4637   -0.0237 C   0  0  0  0  0  0  0  0  0  0  0  0
    1.4952   -0.2682    1.3992 C   0  0  0  0  0  0  0  0  0  0  0  0
    2.6887    0.3548    1.6655 N   0  0  0  0  0  0  0  0  0  0  0  0
    0.8622   -0.6457    2.5599 C   0  0  0  0  0  0  0  0  0  0  0  0
    2.7801    0.3565    2.9769 C   0  0  0  0  0  0  0  0  0  0  0  0
    1.6976   -0.2392    3.5620 N   0  0  0  0  0  0  0  0  0  0  0  0
   -1.4467    1.6280   -0.5753 H   0  0  0  0  0  0  0  0  0  0  0  0
    1.2646    1.6276   -0.6096 H   0  0  0  0  0  0  0  0  0  0  0  0
    1.8501   -0.8830   -0.6246 H   0  0  0  0  0  0  0  0  0  0  0  0
    0.2484   -1.2333   -0.0275 H   0  0  0  0  0  0  0  0  0  0  0  0
   -0.0726   -1.1489    2.7609 H   0  0  0  0  0  0  0  0  0  0  0  0
    3.5935    0.7677    3.5580 H   0  0  0  0  0  0  0  0  0  0  0  0
    1.5431   -0.3566    4.5545 H   0  0  0  0  0  0  0  0  0  0  0  0
    0.8768   -0.4450   -2.6806 N   0  0  0  0  0  0  0  0  0  0  0  0
    0.7366   -0.8639   -4.0567 C   0  0  2  0  0  0  0  0  0  0  0  0
   -0.7462   -1.0693   -4.3370 C   0  0  0  0  0  0  0  0  0  0  0  0
   -1.5720   -1.2875   -3.4530 O   0  0  0  0  0  0  0  0  0  0  0  0
    1.5230   -2.1363   -4.3307 C   0  0  0  0  0  0  0  0  0  0  0  0
    1.5473   -0.9328   -2.0939 H   0  0  0  0  0  0  0  0  0  0  0  0
    1.1160   -0.0444   -4.6769 H   0  0  0  0  0  0  0  0  0  0  0  0
    1.1571   -2.9686   -3.7183 H   0  0  0  0  0  0  0  0  0  0  0  0
    1.4389   -2.4365   -5.3804 H   0  0  0  0  0  0  0  0  0  0  0  0
    2.5845   -1.9957   -4.1002 H   0  0  0  0  0  0  0  0  0  0  0  0
   -1.0321   -1.0233   -5.6943 N   0  0  0  0  0  0  0  0  0  0  0  0
   -2.3666   -1.2028   -6.2166 C   0  0  0  0  0  0  0  0  0  0  0  0
   -0.2882   -0.8182   -6.3549 H   0  0  0  0  0  0  0  0  0  0  0  0
   -2.5256   -2.2634   -6.4614 H   0  0  0  0  0  0  0  0  0  0  0  0
   -3.1013   -0.8869   -5.4613 H   0  0  0  0  0  0  0  0  0  0  0  0
   -2.4897   -0.5946   -7.1248 H   0  0  0  0  0  0  0  0  0  0  0  0
 22 24  2  0  0  0  0
 24 26  1  0  0  0  0
 23 25  2  0  0  0  0
 25 26  1  0  0  0  0
 21 22  1  0  0  0  0
 22 23  1  0  0  0  0
  1  3  1  0  0  0  0
  1  7  1  0  0  0  0
  1  2  2  0  0  0  0
 35 36  1  0  0  0  0
 36 44  1  0  0  0  0
 36 37  2  0  0  0  0
  8  9  1  0  0  0  0
  9 17  1  0  0  0  0
  9 10  2  0  0  0  0
 18 19  1  0  0  0  0
 19 34  1  0  0  0  0
 19 20  2  0  0  0  0
 35 38  1  0  0  0  0
  8 11  1  0  0  0  0
 44 45  1  0  0  0  0
 18 21  1  0  0  0  0
 34 35  1  0  0  0  0
  7  8  1  0  0  0  0
 17 18  1  0  0  0  0
 24 31  1  0  0  0  0
 25 32  1  0  0  0  0
  3  4  1  0  0  0  0
  3  5  1  0  0  0  0
  3  6  1  0  0  0  0
 38 41  1  0  0  0  0
 38 42  1  0  0  0  0
 38 43  1  0  0  0  0
 11 14  1  0  0  0  0
 11 15  1  0  0  0  0
 11 16  1  0  0  0  0
 45 47  1  0  0  0  0
 45 48  1  0  0  0  0
 45 49  1  0  0  0  0
 21 29  1  0  0  0  0
 21 30  1  0  0  0  0
 35 40  1  0  0  0  0
  8 13  1  0  0  0  0
 18 28  1  0  0  0  0
 26 33  1  0  0  0  0
 44 46  1  0  0  0  0
  7 12  1  0  0  0  0
 34 39  1  0  0  0  0
 17 27  1  0  0  0  0
M  END
$$$$

  -OEChem-05262214473D

 49 49  0     1  0  0  0  0  0999 V2000
   -1.6183    0.5613    3.8201 C   0  0  0  0  0  0  0  0  0  0  0  0
   -0.6710   -0.0534    3.3444 O   0  0  0  0  0  0  0  0  0  0  0  0
   -2.0502    0.2789    5.2208 C   0  0  0  0  0  0  0  0  0  0  0  0
   -2.8099   -0.5175    5.2742 H   0  0  0  0  0  0  0  0  0  0  0  0
   -1.2190   -0.0687    5.8551 H   0  0  0  0  0  0  0  0  0  0  0  0
   -2.4882    1.1338    5.7604 H   0  0  0  0  0  0  0  0  0  0  0  0
   -2.3680    1.5337    3.1790 N   0  0  0  0  0  0  0  0  0  0  0  0
   -2.1212    1.9597    1.8266 C   0  0  2  0  0  0  0  0  0  0  0  0
   -0.7862    1.3744    1.3854 C   0  0  0  0  0  0  0  0  0  0  0  0
    0.0859    1.0216    2.1767 O   0  0  0  0  0  0  0  0  0  0  0  0
   -2.1124    3.4765    1.7171 C   0  0  0  0  0  0  0  0  0  0  0  0
   -3.1331    1.9695    3.6908 H   0  0  0  0  0  0  0  0  0  0  0  0
   -2.9253    1.5413    1.2115 H   0  0  0  0  0  0  0  0  0  0  0  0
   -1.3133    3.9138    2.3268 H   0  0  0  0  0  0  0  0  0  0  0  0
   -1.9529    3.7988    0.6829 H   0  0  0  0  0  0  0  0  0  0  0  0
   -3.0626    3.8977    2.0629 H   0  0  0  0  0  0  0  0  0  0  0  0
   -0.6635    1.3313    0.0020 N   0  0  0  0  0  0  0  0  0  0  0  0
    0.5138    0.8305   -0.6617 C   0  0  2  0  0  0  0  0  0  0  0  0
    0.1414    0.5902   -2.1204 C   0  0  0  0  0  0  0  0  0  0  0  0
   -0.4676    1.4138   -2.7999 O   0  0  0  0  0  0  0  0  0  0  0  0
    1.0317   -0.4637   -0.0237 C   0  0  0  0  0  0  0  0  0  0  0  0
    1.4952   -0.2682    1.3992 C   0  0  0  0  0  0  0  0  0  0  0  0
    2.6887    0.3548    1.6655 N   0  0  0  0  0  0  0  0  0  0  0  0
    0.8622   -0.6457    2.5599 C   0  0  0  0  0  0  0  0  0  0  0  0
    2.7801    0.3565    2.9769 C   0  0  0  0  0  0  0  0  0  0  0  0
    1.6976   -0.2392    3.5620 N   0  0  0  0  0  0  0  0  0  0  0  0
   -1.4467    1.6280   -0.5753 H   0  0  0  0  0  0  0  0  0  0  0  0
    1.2646    1.6276   -0.6096 H   0  0  0  0  0  0  0  0  0  0  0  0
    1.8501   -0.8830   -0.6246 H   0  0  0  0  0  0  0  0  0  0  0  0
    0.2484   -1.2333   -0.0275 H   0  0  0  0  0  0  0  0  0  0  0  0
   -0.0726   -1.1489    2.7609 H   0  0  0  0  0  0  0  0  0  0  0  0
    3.5935    0.7677    3.5580 H   0  0  0  0  0  0  0  0  0  0  0  0
    1.5431   -0.3566    4.5545 H   0  0  0  0  0  0  0  0  0  0  0  0
    0.6139   -0.6301   -2.5830 N   0  0  0  0  0  0  0  0  0  0  0  0
    0.4191   -1.0945   -3.9377 C   0  0  2  0  0  0  0  0  0  0  0  0
   -1.0582   -0.9471   -4.2775 C   0  0  0  0  0  0  0  0  0  0  0  0
   -1.9409   -0.8942   -3.4236 O   0  0  0  0  0  0  0  0  0  0  0  0
    0.8725   -2.5372   -4.0986 C   0  0  0  0  0  0  0  0  0  0  0  0
    1.1223   -1.2267   -1.9370 H   0  0  0  0  0  0  0  0  0  0  0  0
    1.0107   -0.4382   -4.5852 H   0  0  0  0  0  0  0  0  0  0  0  0
    0.2911   -3.2098   -3.4575 H   0  0  0  0  0  0  0  0  0  0  0  0
    0.7508   -2.8784   -5.1319 H   0  0  0  0  0  0  0  0  0  0  0  0
    1.9275   -2.6469   -3.8252 H   0  0  0  0  0  0  0  0  0  0  0  0
   -1.2788   -0.9250   -5.6475 N   0  0  0  0  0  0  0  0  0  0  0  0
   -2.5982   -0.8055   -6.2229 C   0  0  0  0  0  0  0  0  0  0  0  0
   -0.4861   -0.9551   -6.2819 H   0  0  0  0  0  0  0  0  0  0  0  0
   -3.0080   -1.8084   -6.4132 H   0  0  0  0  0  0  0  0  0  0  0  0
   -3.2555   -0.2674   -5.5240 H   0  0  0  0  0  0  0  0  0  0  0  0
   -2.5361   -0.2492   -7.1698 H   0  0  0  0  0  0  0  0  0  0  0  0
 22 24  2  0  0  0  0
 24 26  1  0  0  0  0
 23 25  2  0  0  0  0
 25 26  1  0  0  0  0
 21 22  1  0  0  0  0
 22 23  1  0  0  0  0
  1  3  1  0  0  0  0
  1  7  1  0  0  0  0
  1  2  2  0  0  0  0
 35 36  1  0  0  0  0
 36 44  1  0  0  0  0
 36 37  2  0  0  0  0
  8  9  1  0  0  0  0
  9 17  1  0  0  0  0
  9 10  2  0  0  0  0
 18 19  1  0  0  0  0
 19 34  1  0  0  0  0
 19 20  2  0  0  0  0
 35 38  1  0  0  0  0
  8 11  1  0  0  0  0
 44 45  1  0  0  0  0
 18 21  1  0  0  0  0
 34 35  1  0  0  0  0
  7  8  1  0  0  0  0
 17 18  1  0  0  0  0
 24 31  1  0  0  0  0
 25 32  1  0  0  0  0
  3  4  1  0  0  0  0
  3  5  1  0  0  0  0
  3  6  1  0  0  0  0
 38 41  1  0  0  0  0
 38 42  1  0  0  0  0
 38 43  1  0  0  0  0
 11 14  1  0  0  0  0
 11 15  1  0  0  0  0
 11 16  1  0  0  0  0
 45 47  1  0  0  0  0
 45 48  1  0  0  0  0
 45 49  1  0  0  0  0
 21 29  1  0  0  0  0
 21 30  1  0  0  0  0
 35 40  1  0  0  0  0
  8 13  1  0  0  0  0
 18 28  1  0  0  0  0
 26 33  1  0  0  0  0
 44 46  1  0  0  0  0
  7 12  1  0  0  0  0
 34 39  1  0  0  0  0
 17 27  1  0  0  0  0
M  END
$$$$

  -OEChem-05262214473D

 49 49  0     1  0  0  0  0  0999 V2000
   -1.6183    0.5613    3.8201 C   0  0  0  0  0  0  0  0  0  0  0  0
   -0.6710   -0.0534    3.3444 O   0  0  0  0  0  0  0  0  0  0  0  0
   -2.0502    0.2789    5.2208 C   0  0  0  0  0  0  0  0  0  0  0  0
   -2.8099   -0.5175    5.2742 H   0  0  0  0  0  0  0  0  0  0  0  0
   -1.2190   -0.0687    5.8551 H   0  0  0  0  0  0  0  0  0  0  0  0
   -2.4882    1.1338    5.7604 H   0  0  0  0  0  0  0  0  0  0  0  0
   -2.3680    1.5337    3.1790 N   0  0  0  0  0  0  0  0  0  0  0  0
   -2.1212    1.9597    1.8266 C   0  0  2  0  0  0  0  0  0  0  0  0
   -0.7862    1.3744    1.3854 C   0  0  0  0  0  0  0  0  0  0  0  0
    0.0859    1.0216    2.1767 O   0  0  0  0  0  0  0  0  0  0  0  0
   -2.1124    3.4765    1.7171 C   0  0  0  0  0  0  0  0  0  0  0  0
   -3.1331    1.9695    3.6908 H   0  0  0  0  0  0  0  0  0  0  0  0
   -2.9253    1.5413    1.2115 H   0  0  0  0  0  0  0  0  0  0  0  0
   -1.3133    3.9138    2.3268 H   0  0  0  0  0  0  0  0  0  0  0  0
   -1.9529    3.7988    0.6829 H   0  0  0  0  0  0  0  0  0  0  0  0
   -3.0626    3.8977    2.0629 H   0  0  0  0  0  0  0  0  0  0  0  0
   -0.6635    1.3313    0.0020 N   0  0  0  0  0  0  0  0  0  0  0  0
    0.5138    0.8305   -0.6617 C   0  0  2  0  0  0  0  0  0  0  0  0
    0.1414    0.5902   -2.1204 C   0  0  0  0  0  0  0  0  0  0  0  0
   -0.2207    1.4900   -2.8754 O   0  0  0  0  0  0  0  0  0  0  0  0
    1.0317   -0.4637   -0.0237 C   0  0  0  0  0  0  0  0  0  0  0  0
    1.4952   -0.2682    1.3992 C   0  0  0  0  0  0  0  0  0  0  0  0
    2.6887    0.3548    1.6655 N   0  0  0  0  0  0  0  0  0  0  0  0
    0.8622   -0.6457    2.5599 C   0  0  0  0  0  0  0  0  0  0  0  0
    2.7801    0.3565    2.9769 C   0  0  0  0  0  0  0  0  0  0  0  0
    1.6976   -0.2392    3.5620 N   0  0  0  0  0  0  0  0  0  0  0  0
   -1.4467    1.6280   -0.5753 H   0  0  0  0  0  0  0  0  0  0  0  0
    1.2646    1.6276   -0.6096 H   0  0  0  0  0  0  0  0  0  0  0  0
    1.8501   -0.8830   -0.6246 H   0  0  0  0  0  0  0  0  0  0  0  0
    0.2484   -1.2333   -0.0275 H   0  0  0  0  0  0  0  0  0  0  0  0
   -0.0726   -1.1489    2.7609 H   0  0  0  0  0  0  0  0  0  0  0  0
    3.5935    0.7677    3.5580 H   0  0  0  0  0  0  0  0  0  0  0  0
    1.5431   -0.3566    4.5545 H   0  0  0  0  0  0  0  0  0  0  0  0
    0.3102   -0.7376   -2.4878 N   0  0  0  0  0  0  0  0  0  0  0  0
    0.0504   -1.2312   -3.8211 C   0  0  2  0  0  0  0  0  0  0  0  0
   -1.3316   -0.7480   -4.2405 C   0  0  0  0  0  0  0  0  0  0  0  0
   -2.2009   -0.4210   -3.4352 O   0  0  0  0  0  0  0  0  0  0  0  0
    0.1354   -2.7486   -3.8756 C   0  0  0  0  0  0  0  0  0  0  0  0
    0.6325   -1.3955   -1.7842 H   0  0  0  0  0  0  0  0  0  0  0  0
    0.8077   -0.7867   -4.4760 H   0  0  0  0  0  0  0  0  0  0  0  0
   -0.6158   -3.2118   -3.2256 H   0  0  0  0  0  0  0  0  0  0  0  0
   -0.0334   -3.1191   -4.8921 H   0  0  0  0  0  0  0  0  0  0  0  0
    1.1203   -3.0959   -3.5452 H   0  0  0  0  0  0  0  0  0  0  0  0
   -1.4947   -0.7659   -5.6186 N   0  0  0  0  0  0  0  0  0  0  0  0
   -2.7232   -0.3647   -6.2636 C   0  0  0  0  0  0  0  0  0  0  0  0
   -0.7141   -1.0336   -6.2107 H   0  0  0  0  0  0  0  0  0  0  0  0
   -3.3633   -1.2463   -6.4150 H   0  0  0  0  0  0  0  0  0  0  0  0
   -3.2484    0.3651   -5.6300 H   0  0  0  0  0  0  0  0  0  0  0  0
   -2.4935    0.0931   -7.2371 H   0  0  0  0  0  0  0  0  0  0  0  0
 22 24  2  0  0  0  0
 24 26  1  0  0  0  0
 23 25  2  0  0  0  0
 25 26  1  0  0  0  0
 21 22  1  0  0  0  0
 22 23  1  0  0  0  0
  1  3  1  0  0  0  0
  1  7  1  0  0  0  0
  1  2  2  0  0  0  0
 35 36  1  0  0  0  0
 36 44  1  0  0  0  0
 36 37  2  0  0  0  0
  8  9  1  0  0  0  0
  9 17  1  0  0  0  0
  9 10  2  0  0  0  0
 18 19  1  0  0  0  0
 19 34  1  0  0  0  0
 19 20  2  0  0  0  0
 35 38  1  0  0  0  0
  8 11  1  0  0  0  0
 44 45  1  0  0  0  0
 18 21  1  0  0  0  0
 34 35  1  0  0  0  0
  7  8  1  0  0  0  0
 17 18  1  0  0  0  0
 24 31  1  0  0  0  0
 25 32  1  0  0  0  0
  3  4  1  0  0  0  0
  3  5  1  0  0  0  0
  3  6  1  0  0  0  0
 38 41  1  0  0  0  0
 38 42  1  0  0  0  0
 38 43  1  0  0  0  0
 11 14  1  0  0  0  0
 11 15  1  0  0  0  0
 11 16  1  0  0  0  0
 45 47  1  0  0  0  0
 45 48  1  0  0  0  0
 45 49  1  0  0  0  0
 21 29  1  0  0  0  0
 21 30  1  0  0  0  0
 35 40  1  0  0  0  0
  8 13  1  0  0  0  0
 18 28  1  0  0  0  0
 26 33  1  0  0  0  0
 44 46  1  0  0  0  0
  7 12  1  0  0  0  0
 34 39  1  0  0  0  0
 17 27  1  0  0  0  0
M  END
$$$$

  -OEChem-05262214473D

 49 49  0     1  0  0  0  0  0999 V2000
   -1.6183    0.5613    3.8201 C   0  0  0  0  0  0  0  0  0  0  0  0
   -0.6710   -0.0534    3.3444 O   0  0  0  0  0  0  0  0  0  0  0  0
   -2.0502    0.2789    5.2208 C   0  0  0  0  0  0  0  0  0  0  0  0
   -2.8099   -0.5175    5.2742 H   0  0  0  0  0  0  0  0  0  0  0  0
   -1.2190   -0.0687    5.8551 H   0  0  0  0  0  0  0  0  0  0  0  0
   -2.4882    1.1338    5.7604 H   0  0  0  0  0  0  0  0  0  0  0  0
   -2.3680    1.5337    3.1790 N   0  0  0  0  0  0  0  0  0  0  0  0
   -2.1212    1.9597    1.8266 C   0  0  2  0  0  0  0  0  0  0  0  0
   -0.7862    1.3744    1.3854 C   0  0  0  0  0  0  0  0  0  0  0  0
    0.0859    1.0216    2.1767 O   0  0  0  0  0  0  0  0  0  0  0  0
   -2.1124    3.4765    1.7171 C   0  0  0  0  0  0  0  0  0  0  0  0
   -3.1331    1.9695    3.6908 H   0  0  0  0  0  0  0  0  0  0  0  0
   -2.9253    1.5413    1.2115 H   0  0  0  0  0  0  0  0  0  0  0  0
   -1.3133    3.9138    2.3268 H   0  0  0  0  0  0  0  0  0  0  0  0
   -1.9529    3.7988    0.6829 H   0  0  0  0  0  0  0  0  0  0  0  0
   -3.0626    3.8977    2.0629 H   0  0  0  0  0  0  0  0  0  0  0  0
   -0.6635    1.3313    0.0020 N   0  0  0  0  0  0  0  0  0  0  0  0
    0.5138    0.8305   -0.6617 C   0  0  2  0  0  0  0  0  0  0  0  0
    0.1414    0.5902   -2.1204 C   0  0  0  0  0  0  0  0  0  0  0  0
    0.0397    1.4977   -2.9432 O   0  0  0  0  0  0  0  0  0  0  0  0
    1.0317   -0.4637   -0.0237 C   0  0  0  0  0  0  0  0  0  0  0  0
    1.4952   -0.2682    1.3992 C   0  0  0  0  0  0  0  0  0  0  0  0
    2.6887    0.3548    1.6655 N   0  0  0  0  0  0  0  0  0  0  0  0
    0.8622   -0.6457    2.5599 C   0  0  0  0  0  0  0  0  0  0  0  0
    2.7801    0.3565    2.9769 C   0  0  0  0  0  0  0  0  0  0  0  0
    1.6976   -0.2392    3.5620 N   0  0  0  0  0  0  0  0  0  0  0  0
   -1.4467    1.6280   -0.5753 H   0  0  0  0  0  0  0  0  0  0  0  0
    1.2646    1.6276   -0.6096 H   0  0  0  0  0  0  0  0  0  0  0  0
    1.8501   -0.8830   -0.6246 H   0  0  0  0  0  0  0  0  0  0  0  0
    0.2484   -1.2333   -0.0275 H   0  0  0  0  0  0  0  0  0  0  0  0
   -0.0726   -1.1489    2.7609 H   0  0  0  0  0  0  0  0  0  0  0  0
    3.5935    0.7677    3.5580 H   0  0  0  0  0  0  0  0  0  0  0  0
    1.5431   -0.3566    4.5545 H   0  0  0  0  0  0  0  0  0  0  0  0
   -0.0137   -0.7602   -2.4014 N   0  0  0  0  0  0  0  0  0  0  0  0
   -0.3443   -1.2645   -3.7148 C   0  0  2  0  0  0  0  0  0  0  0  0
   -1.5480   -0.4856   -4.2285 C   0  0  0  0  0  0  0  0  0  0  0  0
   -2.3344    0.0997   -3.4869 O   0  0  0  0  0  0  0  0  0  0  0  0
   -0.6379   -2.7562   -3.6769 C   0  0  0  0  0  0  0  0  0  0  0  0
    0.1114   -1.4275   -1.6459 H   0  0  0  0  0  0  0  0  0  0  0  0
    0.5209   -1.0661   -4.3567 H   0  0  0  0  0  0  0  0  0  0  0  0
   -1.5018   -2.9745   -3.0385 H   0  0  0  0  0  0  0  0  0  0  0  0
   -0.8602   -3.1423   -4.6772 H   0  0  0  0  0  0  0  0  0  0  0  0
    0.2181   -3.3120   -3.2793 H   0  0  0  0  0  0  0  0  0  0  0  0
   -1.6651   -0.5570   -5.6096 N   0  0  0  0  0  0  0  0  0  0  0  0
   -2.7331    0.0894   -6.3359 C   0  0  0  0  0  0  0  0  0  0  0  0
   -0.9566   -1.0486   -6.1464 H   0  0  0  0  0  0  0  0  0  0  0  0
   -3.5672   -0.6156   -6.4669 H   0  0  0  0  0  0  0  0  0  0  0  0
   -3.0806    0.9677   -5.7721 H   0  0  0  0  0  0  0  0  0  0  0  0
   -2.3649    0.4089   -7.3219 H   0  0  0  0  0  0  0  0  0  0  0  0
 22 24  2  0  0  0  0
 24 26  1  0  0  0  0
 23 25  2  0  0  0  0
 25 26  1  0  0  0  0
 21 22  1  0  0  0  0
 22 23  1  0  0  0  0
  1  3  1  0  0  0  0
  1  7  1  0  0  0  0
  1  2  2  0  0  0  0
 35 36  1  0  0  0  0
 36 44  1  0  0  0  0
 36 37  2  0  0  0  0
  8  9  1  0  0  0  0
  9 17  1  0  0  0  0
  9 10  2  0  0  0  0
 18 19  1  0  0  0  0
 19 34  1  0  0  0  0
 19 20  2  0  0  0  0
 35 38  1  0  0  0  0
  8 11  1  0  0  0  0
 44 45  1  0  0  0  0
 18 21  1  0  0  0  0
 34 35  1  0  0  0  0
  7  8  1  0  0  0  0
 17 18  1  0  0  0  0
 24 31  1  0  0  0  0
 25 32  1  0  0  0  0
  3  4  1  0  0  0  0
  3  5  1  0  0  0  0
  3  6  1  0  0  0  0
 38 41  1  0  0  0  0
 38 42  1  0  0  0  0
 38 43  1  0  0  0  0
 11 14  1  0  0  0  0
 11 15  1  0  0  0  0
 11 16  1  0  0  0  0
 45 47  1  0  0  0  0
 45 48  1  0  0  0  0
 45 49  1  0  0  0  0
 21 29  1  0  0  0  0
 21 30  1  0  0  0  0
 35 40  1  0  0  0  0
  8 13  1  0  0  0  0
 18 28  1  0  0  0  0
 26 33  1  0  0  0  0
 44 46  1  0  0  0  0
  7 12  1  0  0  0  0
 34 39  1  0  0  0  0
 17 27  1  0  0  0  0
M  END
$$$$

  -OEChem-05262214473D

 49 49  0     1  0  0  0  0  0999 V2000
   -1.6183    0.5613    3.8201 C   0  0  0  0  0  0  0  0  0  0  0  0
   -0.6710   -0.0534    3.3444 O   0  0  0  0  0  0  0  0  0  0  0  0
   -2.0502    0.2789    5.2208 C   0  0  0  0  0  0  0  0  0  0  0  0
   -2.8099   -0.5175    5.2742 H   0  0  0  0  0  0  0  0  0  0  0  0
   -1.2190   -0.0687    5.8551 H   0  0  0  0  0  0  0  0  0  0  0  0
   -2.4882    1.1338    5.7604 H   0  0  0  0  0  0  0  0  0  0  0  0
   -2.3680    1.5337    3.1790 N   0  0  0  0  0  0  0  0  0  0  0  0
   -2.1212    1.9597    1.8266 C   0  0  2  0  0  0  0  0  0  0  0  0
   -0.7862    1.3744    1.3854 C   0  0  0  0  0  0  0  0  0  0  0  0
    0.0859    1.0216    2.1767 O   0  0  0  0  0  0  0  0  0  0  0  0
   -2.1124    3.4765    1.7171 C   0  0  0  0  0  0  0  0  0  0  0  0
   -3.1331    1.9695    3.6908 H   0  0  0  0  0  0  0  0  0  0  0  0
   -2.9253    1.5413    1.2115 H   0  0  0  0  0  0  0  0  0  0  0  0
   -1.3133    3.9138    2.3268 H   0  0  0  0  0  0  0  0  0  0  0  0
   -1.9529    3.7988    0.6829 H   0  0  0  0  0  0  0  0  0  0  0  0
   -3.0626    3.8977    2.0629 H   0  0  0  0  0  0  0  0  0  0  0  0
   -0.6635    1.3313    0.0020 N   0  0  0  0  0  0  0  0  0  0  0  0
    0.5138    0.8305   -0.6617 C   0  0  2  0  0  0  0  0  0  0  0  0
    0.1414    0.5902   -2.1204 C   0  0  0  0  0  0  0  0  0  0  0  0
    0.2959    1.4363   -2.9985 O   0  0  0  0  0  0  0  0  0  0  0  0
    1.0317   -0.4637   -0.0237 C   0  0  0  0  0  0  0  0  0  0  0  0
    1.4952   -0.2682    1.3992 C   0  0  0  0  0  0  0  0  0  0  0  0
    2.6887    0.3548    1.6655 N   0  0  0  0  0  0  0  0  0  0  0  0
    0.8622   -0.6457    2.5599 C   0  0  0  0  0  0  0  0  0  0  0  0
    2.7801    0.3565    2.9769 C   0  0  0  0  0  0  0  0  0  0  0  0
    1.6976   -0.2392    3.5620 N   0  0  0  0  0  0  0  0  0  0  0  0
   -1.4467    1.6280   -0.5753 H   0  0  0  0  0  0  0  0  0  0  0  0
    1.2646    1.6276   -0.6096 H   0  0  0  0  0  0  0  0  0  0  0  0
    1.8501   -0.8830   -0.6246 H   0  0  0  0  0  0  0  0  0  0  0  0
    0.2484   -1.2333   -0.0275 H   0  0  0  0  0  0  0  0  0  0  0  0
   -0.0726   -1.1489    2.7609 H   0  0  0  0  0  0  0  0  0  0  0  0
    3.5935    0.7677    3.5580 H   0  0  0  0  0  0  0  0  0  0  0  0
    1.5431   -0.3566    4.5545 H   0  0  0  0  0  0  0  0  0  0  0  0
   -0.3357   -0.6963   -2.3297 N   0  0  0  0  0  0  0  0  0  0  0  0
   -0.7381   -1.1923   -3.6262 C   0  0  2  0  0  0  0  0  0  0  0  0
   -1.6925   -0.1778   -4.2423 C   0  0  0  0  0  0  0  0  0  0  0  0
   -2.3324    0.6324   -3.5752 O   0  0  0  0  0  0  0  0  0  0  0  0
   -1.3950   -2.5594   -3.5161 C   0  0  0  0  0  0  0  0  0  0  0  0
   -0.4055   -1.3206   -1.5315 H   0  0  0  0  0  0  0  0  0  0  0  0
    0.1698   -1.2574   -4.2356 H   0  0  0  0  0  0  0  0  0  0  0  0
   -2.3065   -2.5141   -2.9089 H   0  0  0  0  0  0  0  0  0  0  0  0
   -1.6734   -2.9464   -4.5019 H   0  0  0  0  0  0  0  0  0  0  0  0
   -0.7178   -3.2804   -3.0456 H   0  0  0  0  0  0  0  0  0  0  0  0
   -1.7782   -0.3124   -5.6210 N   0  0  0  0  0  0  0  0  0  0  0  0
   -2.6273    0.5260   -6.4348 C   0  0  0  0  0  0  0  0  0  0  0  0
   -1.1973   -0.9989   -6.0931 H   0  0  0  0  0  0  0  0  0  0  0  0
   -3.6059    0.0409   -6.5651 H   0  0  0  0  0  0  0  0  0  0  0  0
   -2.7635    1.4992   -5.9406 H   0  0  0  0  0  0  0  0  0  0  0  0
   -2.1589    0.6767   -7.4186 H   0  0  0  0  0  0  0  0  0  0  0  0
 22 24  2  0  0  0  0
 24 26  1  0  0  0  0
 23 25  2  0  0  0  0
 25 26  1  0  0  0  0
 21 22  1  0  0  0  0
 22 23  1  0  0  0  0
  1  3  1  0  0  0  0
  1  7  1  0  0  0  0
  1  2  2  0  0  0  0
 35 36  1  0  0  0  0
 36 44  1  0  0  0  0
 36 37  2  0  0  0  0
  8  9  1  0  0  0  0
  9 17  1  0  0  0  0
  9 10  2  0  0  0  0
 18 19  1  0  0  0  0
 19 34  1  0  0  0  0
 19 20  2  0  0  0  0
 35 38  1  0  0  0  0
  8 11  1  0  0  0  0
 44 45  1  0  0  0  0
 18 21  1  0  0  0  0
 34 35  1  0  0  0  0
  7  8  1  0  0  0  0
 17 18  1  0  0  0  0
 24 31  1  0  0  0  0
 25 32  1  0  0  0  0
  3  4  1  0  0  0  0
  3  5  1  0  0  0  0
  3  6  1  0  0  0  0
 38 41  1  0  0  0  0
 38 42  1  0  0  0  0
 38 43  1  0  0  0  0
 11 14  1  0  0  0  0
 11 15  1  0  0  0  0
 11 16  1  0  0  0  0
 45 47  1  0  0  0  0
 45 48  1  0  0  0  0
 45 49  1  0  0  0  0
 21 29  1  0  0  0  0
 21 30  1  0  0  0  0
 35 40  1  0  0  0  0
  8 13  1  0  0  0  0
 18 28  1  0  0  0  0
 26 33  1  0  0  0  0
 44 46  1  0  0  0  0
  7 12  1  0  0  0  0
 34 39  1  0  0  0  0
 17 27  1  0  0  0  0
M  END
$$$$

  -OEChem-05262214473D

 49 49  0     1  0  0  0  0  0999 V2000
   -1.6183    0.5613    3.8201 C   0  0  0  0  0  0  0  0  0  0  0  0
   -0.6710   -0.0534    3.3444 O   0  0  0  0  0  0  0  0  0  0  0  0
   -2.0502    0.2789    5.2208 C   0  0  0  0  0  0  0  0  0  0  0  0
   -2.8099   -0.5175    5.2742 H   0  0  0  0  0  0  0  0  0  0  0  0
   -1.2190   -0.0687    5.8551 H   0  0  0  0  0  0  0  0  0  0  0  0
   -2.4882    1.1338    5.7604 H   0  0  0  0  0  0  0  0  0  0  0  0
   -2.3680    1.5337    3.1790 N   0  0  0  0  0  0  0  0  0  0  0  0
   -2.1212    1.9597    1.8266 C   0  0  2  0  0  0  0  0  0  0  0  0
   -0.7862    1.3744    1.3854 C   0  0  0  0  0  0  0  0  0  0  0  0
    0.0859    1.0216    2.1767 O   0  0  0  0  0  0  0  0  0  0  0  0
   -2.1124    3.4765    1.7171 C   0  0  0  0  0  0  0  0  0  0  0  0
   -3.1331    1.9695    3.6908 H   0  0  0  0  0  0  0  0  0  0  0  0
   -2.9253    1.5413    1.2115 H   0  0  0  0  0  0  0  0  0  0  0  0
   -1.3133    3.9138    2.3268 H   0  0  0  0  0  0  0  0  0  0  0  0
   -1.9529    3.7988    0.6829 H   0  0  0  0  0  0  0  0  0  0  0  0
   -3.0626    3.8977    2.0629 H   0  0  0  0  0  0  0  0  0  0  0  0
   -0.6635    1.3313    0.0020 N   0  0  0  0  0  0  0  0  0  0  0  0
    0.5138    0.8305   -0.6617 C   0  0  2  0  0  0  0  0  0  0  0  0
    0.1414    0.5902   -2.1204 C   0  0  0  0  0  0  0  0  0  0  0  0
    0.5304    1.3101   -3.0376 O   0  0  0  0  0  0  0  0  0  0  0  0
    1.0317   -0.4637   -0.0237 C   0  0  0  0  0  0  0  0  0  0  0  0
    1.4952   -0.2682    1.3992 C   0  0  0  0  0  0  0  0  0  0  0  0
    2.6887    0.3548    1.6655 N   0  0  0  0  0  0  0  0  0  0  0  0
    0.8622   -0.6457    2.5599 C   0  0  0  0  0  0  0  0  0  0  0  0
    2.7801    0.3565    2.9769 C   0  0  0  0  0  0  0  0  0  0  0  0
    1.6976   -0.2392    3.5620 N   0  0  0  0  0  0  0  0  0  0  0  0
   -1.4467    1.6280   -0.5753 H   0  0  0  0  0  0  0  0  0  0  0  0
    1.2646    1.6276   -0.6096 H   0  0  0  0  0  0  0  0  0  0  0  0
    1.8501   -0.8830   -0.6246 H   0  0  0  0  0  0  0  0  0  0  0  0
    0.2484   -1.2333   -0.0275 H   0  0  0  0  0  0  0  0  0  0  0  0
   -0.0726   -1.1489    2.7609 H   0  0  0  0  0  0  0  0  0  0  0  0
    3.5935    0.7677    3.5580 H   0  0  0  0  0  0  0  0  0  0  0  0
    1.5431   -0.3566    4.5545 H   0  0  0  0  0  0  0  0  0  0  0  0
   -0.6338   -0.5503   -2.2776 N   0  0  0  0  0  0  0  0  0  0  0  0
   -1.1042   -1.0193   -3.5612 C   0  0  2  0  0  0  0  0  0  0  0  0
   -1.7553    0.1543   -4.2810 C   0  0  0  0  0  0  0  0  0  0  0  0
   -2.1948    1.1409   -3.6940 O   0  0  0  0  0  0  0  0  0  0  0  0
   -2.0840   -2.1717   -3.4040 C   0  0  0  0  0  0  0  0  0  0  0  0
   -0.8831   -1.0822   -1.4489 H   0  0  0  0  0  0  0  0  0  0  0  0
   -0.2216   -1.3476   -4.1208 H   0  0  0  0  0  0  0  0  0  0  0  0
   -2.9750   -1.8618   -2.8457 H   0  0  0  0  0  0  0  0  0  0  0  0
   -2.4175   -2.5446   -4.3781 H   0  0  0  0  0  0  0  0  0  0  0  0
   -1.6235   -3.0034   -2.8600 H   0  0  0  0  0  0  0  0  0  0  0  0
   -1.8265   -0.0488   -5.6520 N   0  0  0  0  0  0  0  0  0  0  0  0
   -2.4129    0.9152   -6.5536 C   0  0  0  0  0  0  0  0  0  0  0  0
   -1.4196   -0.8879   -6.0546 H   0  0  0  0  0  0  0  0  0  0  0  0
   -3.4767    0.6784   -6.7031 H   0  0  0  0  0  0  0  0  0  0  0  0
   -2.3187    1.9234   -6.1240 H   0  0  0  0  0  0  0  0  0  0  0  0
   -1.8898    0.8782   -7.5205 H   0  0  0  0  0  0  0  0  0  0  0  0
 22 24  2  0  0  0  0
 24 26  1  0  0  0  0
 23 25  2  0  0  0  0
 25 26  1  0  0  0  0
 21 22  1  0  0  0  0
 22 23  1  0  0  0  0
  1  3  1  0  0  0  0
  1  7  1  0  0  0  0
  1  2  2  0  0  0  0
 35 36  1  0  0  0  0
 36 44  1  0  0  0  0
 36 37  2  0  0  0  0
  8  9  1  0  0  0  0
  9 17  1  0  0  0  0
  9 10  2  0  0  0  0
 18 19  1  0  0  0  0
 19 34  1  0  0  0  0
 19 20  2  0  0  0  0
 35 38  1  0  0  0  0
  8 11  1  0  0  0  0
 44 45  1  0  0  0  0
 18 21  1  0  0  0  0
 34 35  1  0  0  0  0
  7  8  1  0  0  0  0
 17 18  1  0  0  0  0
 24 31  1  0  0  0  0
 25 32  1  0  0  0  0
  3  4  1  0  0  0  0
  3  5  1  0  0  0  0
  3  6  1  0  0  0  0
 38 41  1  0  0  0  0
 38 42  1  0  0  0  0
 38 43  1  0  0  0  0
 11 14  1  0  0  0  0
 11 15  1  0  0  0  0
 11 16  1  0  0  0  0
 45 47  1  0  0  0  0
 45 48  1  0  0  0  0
 45 49  1  0  0  0  0
 21 29  1  0  0  0  0
 21 30  1  0  0  0  0
 35 40  1  0  0  0  0
  8 13  1  0  0  0  0
 18 28  1  0  0  0  0
 26 33  1  0  0  0  0
 44 46  1  0  0  0  0
  7 12  1  0  0  0  0
 34 39  1  0  0  0  0
 17 27  1  0  0  0  0
M  END
$$$$

  -OEChem-05262214473D

 49 49  0     1  0  0  0  0  0999 V2000
   -1.6183    0.5613    3.8201 C   0  0  0  0  0  0  0  0  0  0  0  0
   -0.6710   -0.0534    3.3444 O   0  0  0  0  0  0  0  0  0  0  0  0
   -2.0502    0.2789    5.2208 C   0  0  0  0  0  0  0  0  0  0  0  0
   -2.8099   -0.5175    5.2742 H   0  0  0  0  0  0  0  0  0  0  0  0
   -1.2190   -0.0687    5.8551 H   0  0  0  0  0  0  0  0  0  0  0  0
   -2.4882    1.1338    5.7604 H   0  0  0  0  0  0  0  0  0  0  0  0
   -2.3680    1.5337    3.1790 N   0  0  0  0  0  0  0  0  0  0  0  0
   -2.1212    1.9597    1.8266 C   0  0  2  0  0  0  0  0  0  0  0  0
   -0.7862    1.3744    1.3854 C   0  0  0  0  0  0  0  0  0  0  0  0
    0.0859    1.0216    2.1767 O   0  0  0  0  0  0  0  0  0  0  0  0
   -2.1124    3.4765    1.7171 C   0  0  0  0  0  0  0  0  0  0  0  0
   -3.1331    1.9695    3.6908 H   0  0  0  0  0  0  0  0  0  0  0  0
   -2.9253    1.5413    1.2115 H   0  0  0  0  0  0  0  0  0  0  0  0
   -1.3133    3.9138    2.3268 H   0  0  0  0  0  0  0  0  0  0  0  0
   -1.9529    3.7988    0.6829 H   0  0  0  0  0  0  0  0  0  0  0  0
   -3.0626    3.8977    2.0629 H   0  0  0  0  0  0  0  0  0  0  0  0
   -0.6635    1.3313    0.0020 N   0  0  0  0  0  0  0  0  0  0  0  0
    0.5138    0.8305   -0.6617 C   0  0  2  0  0  0  0  0  0  0  0  0
    0.1414    0.5902   -2.1204 C   0  0  0  0  0  0  0  0  0  0  0  0
    0.7272    1.1277   -3.0578 O   0  0  0  0  0  0  0  0  0  0  0  0
    1.0317   -0.4637   -0.0237 C   0  0  0  0  0  0  0  0  0  0  0  0
    1.4952   -0.2682    1.3992 C   0  0  0  0  0  0  0  0  0  0  0  0
    2.6887    0.3548    1.6655 N   0  0  0  0  0  0  0  0  0  0  0  0
    0.8622   -0.6457    2.5599 C   0  0  0  0  0  0  0  0  0  0  0  0
    2.7801    0.3565    2.9769 C   0  0  0  0  0  0  0  0  0  0  0  0
    1.6976   -0.2392    3.5620 N   0  0  0  0  0  0  0  0  0  0  0  0
   -1.4467    1.6280   -0.5753 H   0  0  0  0  0  0  0  0  0  0  0  0
    1.2646    1.6276   -0.6096 H   0  0  0  0  0  0  0  0  0  0  0  0
    1.8501   -0.8830   -0.6246 H   0  0  0  0  0  0  0  0  0  0  0  0
    0.2484   -1.2333   -0.0275 H   0  0  0  0  0  0  0  0  0  0  0  0
   -0.0726   -1.1489    2.7609 H   0  0  0  0  0  0  0  0  0  0  0  0
    3.5935    0.7677    3.5580 H   0  0  0  0  0  0  0  0  0  0  0  0
    1.5431   -0.3566    4.5545 H   0  0  0  0  0  0  0  0  0  0  0  0
   -0.8878   -0.3322   -2.2487 N   0  0  0  0  0  0  0  0  0  0  0  0
   -1.4177   -0.7575   -3.5243 C   0  0  2  0  0  0  0  0  0  0  0  0
   -1.7321    0.4883   -4.3419 C   0  0  0  0  0  0  0  0  0  0  0  0
   -1.9312    1.5905   -3.8354 O   0  0  0  0  0  0  0  0  0  0  0  0
   -2.6582   -1.6195   -3.3484 C   0  0  0  0  0  0  0  0  0  0  0  0
   -1.2886   -0.7283   -1.4036 H   0  0  0  0  0  0  0  0  0  0  0  0
   -0.6267   -1.3306   -4.0202 H   0  0  0  0  0  0  0  0  0  0  0  0
   -3.4617   -1.0623   -2.8531 H   0  0  0  0  0  0  0  0  0  0  0  0
   -3.0419   -1.9644   -4.3143 H   0  0  0  0  0  0  0  0  0  0  0  0
   -2.4373   -2.4998   -2.7352 H   0  0  0  0  0  0  0  0  0  0  0  0
   -1.8066    0.2157   -5.7007 N   0  0  0  0  0  0  0  0  0  0  0  0
   -2.1047    1.2305   -6.6842 C   0  0  0  0  0  0  0  0  0  0  0  0
   -1.6084   -0.7232   -6.0336 H   0  0  0  0  0  0  0  0  0  0  0  0
   -3.1884    1.2534   -6.8715 H   0  0  0  0  0  0  0  0  0  0  0  0
   -1.7766    2.2114   -6.3099 H   0  0  0  0  0  0  0  0  0  0  0  0
   -1.5757    0.9999   -7.6207 H   0  0  0  0  0  0  0  0  0  0  0  0
 22 24  2  0  0  0  0
 24 26  1  0  0  0  0
 23 25  2  0  0  0  0
 25 26  1  0  0  0  0
 21 22  1  0  0  0  0
 22 23  1  0  0  0  0
  1  3  1  0  0  0  0
  1  7  1  0  0  0  0
  1  2  2  0  0  0  0
 35 36  1  0  0  0  0
 36 44  1  0  0  0  0
 36 37  2  0  0  0  0
  8  9  1  0  0  0  0
  9 17  1  0  0  0  0
  9 10  2  0  0  0  0
 18 19  1  0  0  0  0
 19 34  1  0  0  0  0
 19 20  2  0  0  0  0
 35 38  1  0  0  0  0
  8 11  1  0  0  0  0
 44 45  1  0  0  0  0
 18 21  1  0  0  0  0
 34 35  1  0  0  0  0
  7  8  1  0  0  0  0
 17 18  1  0  0  0  0
 24 31  1  0  0  0  0
 25 32  1  0  0  0  0
  3  4  1  0  0  0  0
  3  5  1  0  0  0  0
  3  6  1  0  0  0  0
 38 41  1  0  0  0  0
 38 42  1  0  0  0  0
 38 43  1  0  0  0  0
 11 14  1  0  0  0  0
 11 15  1  0  0  0  0
 11 16  1  0  0  0  0
 45 47  1  0  0  0  0
 45 48  1  0  0  0  0
 45 49  1  0  0  0  0
 21 29  1  0  0  0  0
 21 30  1  0  0  0  0
 35 40  1  0  0  0  0
  8 13  1  0  0  0  0
 18 28  1  0  0  0  0
 26 33  1  0  0  0  0
 44 46  1  0  0  0  0
  7 12  1  0  0  0  0
 34 39  1  0  0  0  0
 17 27  1  0  0  0  0
M  END
$$$$

  -OEChem-05262214473D

 49 49  0     1  0  0  0  0  0999 V2000
   -1.6183    0.5613    3.8201 C   0  0  0  0  0  0  0  0  0  0  0  0
   -0.6710   -0.0534    3.3444 O   0  0  0  0  0  0  0  0  0  0  0  0
   -2.0502    0.2789    5.2208 C   0  0  0  0  0  0  0  0  0  0  0  0
   -2.8099   -0.5175    5.2742 H   0  0  0  0  0  0  0  0  0  0  0  0
   -1.2190   -0.0687    5.8551 H   0  0  0  0  0  0  0  0  0  0  0  0
   -2.4882    1.1338    5.7604 H   0  0  0  0  0  0  0  0  0  0  0  0
   -2.3680    1.5337    3.1790 N   0  0  0  0  0  0  0  0  0  0  0  0
   -2.1212    1.9597    1.8266 C   0  0  2  0  0  0  0  0  0  0  0  0
   -0.7862    1.3744    1.3854 C   0  0  0  0  0  0  0  0  0  0  0  0
    0.0859    1.0216    2.1767 O   0  0  0  0  0  0  0  0  0  0  0  0
   -2.1124    3.4765    1.7171 C   0  0  0  0  0  0  0  0  0  0  0  0
   -3.1331    1.9695    3.6908 H   0  0  0  0  0  0  0  0  0  0  0  0
   -2.9253    1.5413    1.2115 H   0  0  0  0  0  0  0  0  0  0  0  0
   -1.3133    3.9138    2.3268 H   0  0  0  0  0  0  0  0  0  0  0  0
   -1.9529    3.7988    0.6829 H   0  0  0  0  0  0  0  0  0  0  0  0
   -3.0626    3.8977    2.0629 H   0  0  0  0  0  0  0  0  0  0  0  0
   -0.6635    1.3313    0.0020 N   0  0  0  0  0  0  0  0  0  0  0  0
    0.5138    0.8305   -0.6617 C   0  0  2  0  0  0  0  0  0  0  0  0
    0.1414    0.5902   -2.1204 C   0  0  0  0  0  0  0  0  0  0  0  0
    0.8731    0.9014   -3.0577 O   0  0  0  0  0  0  0  0  0  0  0  0
    1.0317   -0.4637   -0.0237 C   0  0  0  0  0  0  0  0  0  0  0  0
    1.4952   -0.2682    1.3992 C   0  0  0  0  0  0  0  0  0  0  0  0
    2.6887    0.3548    1.6655 N   0  0  0  0  0  0  0  0  0  0  0  0
    0.8622   -0.6457    2.5599 C   0  0  0  0  0  0  0  0  0  0  0  0
    2.7801    0.3565    2.9769 C   0  0  0  0  0  0  0  0  0  0  0  0
    1.6976   -0.2392    3.5620 N   0  0  0  0  0  0  0  0  0  0  0  0
   -1.4467    1.6280   -0.5753 H   0  0  0  0  0  0  0  0  0  0  0  0
    1.2646    1.6276   -0.6096 H   0  0  0  0  0  0  0  0  0  0  0  0
    1.8501   -0.8830   -0.6246 H   0  0  0  0  0  0  0  0  0  0  0  0
    0.2484   -1.2333   -0.0275 H   0  0  0  0  0  0  0  0  0  0  0  0
   -0.0726   -1.1489    2.7609 H   0  0  0  0  0  0  0  0  0  0  0  0
    3.5935    0.7677    3.5580 H   0  0  0  0  0  0  0  0  0  0  0  0
    1.5431   -0.3566    4.5545 H   0  0  0  0  0  0  0  0  0  0  0  0
   -1.0802   -0.0569   -2.2449 N   0  0  0  0  0  0  0  0  0  0  0  0
   -1.6572   -0.4247   -3.5180 C   0  0  2  0  0  0  0  0  0  0  0  0
   -1.6245    0.8013   -4.4209 C   0  0  0  0  0  0  0  0  0  0  0  0
   -1.5595    1.9506   -3.9896 O   0  0  0  0  0  0  0  0  0  0  0  0
   -3.0783   -0.9404   -3.3530 C   0  0  0  0  0  0  0  0  0  0  0  0
   -1.5946   -0.2833   -1.3988 H   0  0  0  0  0  0  0  0  0  0  0  0
   -1.0179   -1.2074   -3.9406 H   0  0  0  0  0  0  0  0  0  0  0  0
   -3.7336   -0.1699   -2.9307 H   0  0  0  0  0  0  0  0  0  0  0  0
   -3.5038   -1.2454   -4.3148 H   0  0  0  0  0  0  0  0  0  0  0  0
   -3.1038   -1.8040   -2.6796 H   0  0  0  0  0  0  0  0  0  0  0  0
   -1.7199    0.4633   -5.7636 N   0  0  0  0  0  0  0  0  0  0  0  0
   -1.7235    1.4505   -6.8178 C   0  0  0  0  0  0  0  0  0  0  0  0
   -1.7508   -0.5161   -6.0313 H   0  0  0  0  0  0  0  0  0  0  0  0
   -2.7606    1.7268   -7.0586 H   0  0  0  0  0  0  0  0  0  0  0  0
   -1.1740    2.3436   -6.4855 H   0  0  0  0  0  0  0  0  0  0  0  0
   -1.2381    1.0332   -7.7124 H   0  0  0  0  0  0  0  0  0  0  0  0
 22 24  2  0  0  0  0
 24 26  1  0  0  0  0
 23 25  2  0  0  0  0
 25 26  1  0  0  0  0
 21 22  1  0  0  0  0
 22 23  1  0  0  0  0
  1  3  1  0  0  0  0
  1  7  1  0  0  0  0
  1  2  2  0  0  0  0
 35 36  1  0  0  0  0
 36 44  1  0  0  0  0
 36 37  2  0  0  0  0
  8  9  1  0  0  0  0
  9 17  1  0  0  0  0
  9 10  2  0  0  0  0
 18 19  1  0  0  0  0
 19 34  1  0  0  0  0
 19 20  2  0  0  0  0
 35 38  1  0  0  0  0
  8 11  1  0  0  0  0
 44 45  1  0  0  0  0
 18 21  1  0  0  0  0
 34 35  1  0  0  0  0
  7  8  1  0  0  0  0
 17 18  1  0  0  0  0
 24 31  1  0  0  0  0
 25 32  1  0  0  0  0
  3  4  1  0  0  0  0
  3  5  1  0  0  0  0
  3  6  1  0  0  0  0
 38 41  1  0  0  0  0
 38 42  1  0  0  0  0
 38 43  1  0  0  0  0
 11 14  1  0  0  0  0
 11 15  1  0  0  0  0
 11 16  1  0  0  0  0
 45 47  1  0  0  0  0
 45 48  1  0  0  0  0
 45 49  1  0  0  0  0
 21 29  1  0  0  0  0
 21 30  1  0  0  0  0
 35 40  1  0  0  0  0
  8 13  1  0  0  0  0
 18 28  1  0  0  0  0
 26 33  1  0  0  0  0
 44 46  1  0  0  0  0
  7 12  1  0  0  0  0
 34 39  1  0  0  0  0
 17 27  1  0  0  0  0
M  END
$$$$

  -OEChem-05262214473D

 49 49  0     1  0  0  0  0  0999 V2000
   -1.6183    0.5613    3.8201 C   0  0  0  0  0  0  0  0  0  0  0  0
   -0.6710   -0.0534    3.3444 O   0  0  0  0  0  0  0  0  0  0  0  0
   -2.0502    0.2789    5.2208 C   0  0  0  0  0  0  0  0  0  0  0  0
   -2.8099   -0.5175    5.2742 H   0  0  0  0  0  0  0  0  0  0  0  0
   -1.2190   -0.0687    5.8551 H   0  0  0  0  0  0  0  0  0  0  0  0
   -2.4882    1.1338    5.7604 H   0  0  0  0  0  0  0  0  0  0  0  0
   -2.3680    1.5337    3.1790 N   0  0  0  0  0  0  0  0  0  0  0  0
   -2.1212    1.9597    1.8266 C   0  0  2  0  0  0  0  0  0  0  0  0
   -0.7862    1.3744    1.3854 C   0  0  0  0  0  0  0  0  0  0  0  0
    0.0859    1.0216    2.1767 O   0  0  0  0  0  0  0  0  0  0  0  0
   -2.1124    3.4765    1.7171 C   0  0  0  0  0  0  0  0  0  0  0  0
   -3.1331    1.9695    3.6908 H   0  0  0  0  0  0  0  0  0  0  0  0
   -2.9253    1.5413    1.2115 H   0  0  0  0  0  0  0  0  0  0  0  0
   -1.3133    3.9138    2.3268 H   0  0  0  0  0  0  0  0  0  0  0  0
   -1.9529    3.7988    0.6829 H   0  0  0  0  0  0  0  0  0  0  0  0
   -3.0626    3.8977    2.0629 H   0  0  0  0  0  0  0  0  0  0  0  0
   -0.6635    1.3313    0.0020 N   0  0  0  0  0  0  0  0  0  0  0  0
    0.5138    0.8305   -0.6617 C   0  0  2  0  0  0  0  0  0  0  0  0
    0.1414    0.5902   -2.1204 C   0  0  0  0  0  0  0  0  0  0  0  0
    0.9579    0.6468   -3.0374 O   0  0  0  0  0  0  0  0  0  0  0  0
    1.0317   -0.4637   -0.0237 C   0  0  0  0  0  0  0  0  0  0  0  0
    1.4952   -0.2682    1.3992 C   0  0  0  0  0  0  0  0  0  0  0  0
    2.6887    0.3548    1.6655 N   0  0  0  0  0  0  0  0  0  0  0  0
    0.8622   -0.6457    2.5599 C   0  0  0  0  0  0  0  0  0  0  0  0
    2.7801    0.3565    2.9769 C   0  0  0  0  0  0  0  0  0  0  0  0
    1.6976   -0.2392    3.5620 N   0  0  0  0  0  0  0  0  0  0  0  0
   -1.4467    1.6280   -0.5753 H   0  0  0  0  0  0  0  0  0  0  0  0
    1.2646    1.6276   -0.6096 H   0  0  0  0  0  0  0  0  0  0  0  0
    1.8501   -0.8830   -0.6246 H   0  0  0  0  0  0  0  0  0  0  0  0
    0.2484   -1.2333   -0.0275 H   0  0  0  0  0  0  0  0  0  0  0  0
   -0.0726   -1.1489    2.7609 H   0  0  0  0  0  0  0  0  0  0  0  0
    3.5935    0.7677    3.5580 H   0  0  0  0  0  0  0  0  0  0  0  0
    1.5431   -0.3566    4.5545 H   0  0  0  0  0  0  0  0  0  0  0  0
   -1.1981    0.2570   -2.2666 N   0  0  0  0  0  0  0  0  0  0  0  0
   -1.8064   -0.0434   -3.5427 C   0  0  2  0  0  0  0  0  0  0  0  0
   -1.4398    1.0720   -4.5127 C   0  0  0  0  0  0  0  0  0  0  0  0
   -1.1049    2.1966   -4.1461 O   0  0  0  0  0  0  0  0  0  0  0  0
   -3.3157   -0.1808   -3.4175 C   0  0  0  0  0  0  0  0  0  0  0  0
   -1.7801    0.2227   -1.4348 H   0  0  0  0  0  0  0  0  0  0  0  0
   -1.3686   -0.9866   -3.8875 H   0  0  0  0  0  0  0  0  0  0  0  0
   -3.7721    0.7544   -3.0732 H   0  0  0  0  0  0  0  0  0  0  0  0
   -3.7720   -0.4365   -4.3795 H   0  0  0  0  0  0  0  0  0  0  0  0
   -3.5775   -0.9633   -2.6972 H   0  0  0  0  0  0  0  0  0  0  0  0
   -1.5723    0.6769   -5.8365 N   0  0  0  0  0  0  0  0  0  0  0  0
   -1.2953    1.5602   -6.9452 C   0  0  0  0  0  0  0  0  0  0  0  0
   -1.8372   -0.2806   -6.0481 H   0  0  0  0  0  0  0  0  0  0  0  0
   -2.2226    2.0663   -7.2519 H   0  0  0  0  0  0  0  0  0  0  0  0
   -0.5520    2.3110   -6.6389 H   0  0  0  0  0  0  0  0  0  0  0  0
   -0.9001    0.9760   -7.7893 H   0  0  0  0  0  0  0  0  0  0  0  0
 22 24  2  0  0  0  0
 24 26  1  0  0  0  0
 23 25  2  0  0  0  0
 25 26  1  0  0  0  0
 21 22  1  0  0  0  0
 22 23  1  0  0  0  0
  1  3  1  0  0  0  0
  1  7  1  0  0  0  0
  1  2  2  0  0  0  0
 35 36  1  0  0  0  0
 36 44  1  0  0  0  0
 36 37  2  0  0  0  0
  8  9  1  0  0  0  0
  9 17  1  0  0  0  0
  9 10  2  0  0  0  0
 18 19  1  0  0  0  0
 19 34  1  0  0  0  0
 19 20  2  0  0  0  0
 35 38  1  0  0  0  0
  8 11  1  0  0  0  0
 44 45  1  0  0  0  0
 18 21  1  0  0  0  0
 34 35  1  0  0  0  0
  7  8  1  0  0  0  0
 17 18  1  0  0  0  0
 24 31  1  0  0  0  0
 25 32  1  0  0  0  0
  3  4  1  0  0  0  0
  3  5  1  0  0  0  0
  3  6  1  0  0  0  0
 38 41  1  0  0  0  0
 38 42  1  0  0  0  0
 38 43  1  0  0  0  0
 11 14  1  0  0  0  0
 11 15  1  0  0  0  0
 11 16  1  0  0  0  0
 45 47  1  0  0  0  0
 45 48  1  0  0  0  0
 45 49  1  0  0  0  0
 21 29  1  0  0  0  0
 21 30  1  0  0  0  0
 35 40  1  0  0  0  0
  8 13  1  0  0  0  0
 18 28  1  0  0  0  0
 26 33  1  0  0  0  0
 44 46  1  0  0  0  0
  7 12  1  0  0  0  0
 34 39  1  0  0  0  0
 17 27  1  0  0  0  0
M  END
$$$$

  -OEChem-05262214473D

 49 49  0     1  0  0  0  0  0999 V2000
   -1.6183    0.5613    3.8201 C   0  0  0  0  0  0  0  0  0  0  0  0
   -0.6710   -0.0534    3.3444 O   0  0  0  0  0  0  0  0  0  0  0  0
   -2.0502    0.2789    5.2208 C   0  0  0  0  0  0  0  0  0  0  0  0
   -2.8099   -0.5175    5.2742 H   0  0  0  0  0  0  0  0  0  0  0  0
   -1.2190   -0.0687    5.8551 H   0  0  0  0  0  0  0  0  0  0  0  0
   -2.4882    1.1338    5.7604 H   0  0  0  0  0  0  0  0  0  0  0  0
   -2.3680    1.5337    3.1790 N   0  0  0  0  0  0  0  0  0  0  0  0
   -2.1212    1.9597    1.8266 C   0  0  2  0  0  0  0  0  0  0  0  0
   -0.7862    1.3744    1.3854 C   0  0  0  0  0  0  0  0  0  0  0  0
    0.0859    1.0216    2.1767 O   0  0  0  0  0  0  0  0  0  0  0  0
   -2.1124    3.4765    1.7171 C   0  0  0  0  0  0  0  0  0  0  0  0
   -3.1331    1.9695    3.6908 H   0  0  0  0  0  0  0  0  0  0  0  0
   -2.9253    1.5413    1.2115 H   0  0  0  0  0  0  0  0  0  0  0  0
   -1.3133    3.9138    2.3268 H   0  0  0  0  0  0  0  0  0  0  0  0
   -1.9529    3.7988    0.6829 H   0  0  0  0  0  0  0  0  0  0  0  0
   -3.0626    3.8977    2.0629 H   0  0  0  0  0  0  0  0  0  0  0  0
   -0.6635    1.3313    0.0020 N   0  0  0  0  0  0  0  0  0  0  0  0
    0.5138    0.8305   -0.6617 C   0  0  2  0  0  0  0  0  0  0  0  0
    0.1414    0.5902   -2.1204 C   0  0  0  0  0  0  0  0  0  0  0  0
    0.9759    0.3811   -2.9983 O   0  0  0  0  0  0  0  0  0  0  0  0
    1.0317   -0.4637   -0.0237 C   0  0  0  0  0  0  0  0  0  0  0  0
    1.4952   -0.2682    1.3992 C   0  0  0  0  0  0  0  0  0  0  0  0
    2.6887    0.3548    1.6655 N   0  0  0  0  0  0  0  0  0  0  0  0
    0.8622   -0.6457    2.5599 C   0  0  0  0  0  0  0  0  0  0  0  0
    2.7801    0.3565    2.9769 C   0  0  0  0  0  0  0  0  0  0  0  0
    1.6976   -0.2392    3.5620 N   0  0  0  0  0  0  0  0  0  0  0  0
   -1.4467    1.6280   -0.5753 H   0  0  0  0  0  0  0  0  0  0  0  0
    1.2646    1.6276   -0.6096 H   0  0  0  0  0  0  0  0  0  0  0  0
    1.8501   -0.8830   -0.6246 H   0  0  0  0  0  0  0  0  0  0  0  0
    0.2484   -1.2333   -0.0275 H   0  0  0  0  0  0  0  0  0  0  0  0
   -0.0726   -1.1489    2.7609 H   0  0  0  0  0  0  0  0  0  0  0  0
    3.5935    0.7677    3.5580 H   0  0  0  0  0  0  0  0  0  0  0  0
    1.5431   -0.3566    4.5545 H   0  0  0  0  0  0  0  0  0  0  0  0
   -1.2333    0.5881   -2.3121 N   0  0  0  0  0  0  0  0  0  0  0  0
   -1.8550    0.3602   -3.5967 C   0  0  2  0  0  0  0  0  0  0  0  0
   -1.1907    1.2820   -4.6109 C   0  0  0  0  0  0  0  0  0  0  0  0
   -0.5986    2.3117   -4.2944 O   0  0  0  0  0  0  0  0  0  0  0  0
   -3.3543    0.6078   -3.5376 C   0  0  0  0  0  0  0  0  0  0  0  0
   -1.8325    0.7551   -1.5091 H   0  0  0  0  0  0  0  0  0  0  0  0
   -1.6547   -0.6830   -3.8644 H   0  0  0  0  0  0  0  0  0  0  0  0
   -3.5745    1.6479   -3.2708 H   0  0  0  0  0  0  0  0  0  0  0  0
   -3.8280    0.4071   -4.5042 H   0  0  0  0  0  0  0  0  0  0  0  0
   -3.8261   -0.0350   -2.7866 H   0  0  0  0  0  0  0  0  0  0  0  0
   -1.3738    0.8421   -5.9144 N   0  0  0  0  0  0  0  0  0  0  0  0
   -0.8494    1.5520   -7.0577 C   0  0  0  0  0  0  0  0  0  0  0  0
   -1.8617   -0.0327   -6.0826 H   0  0  0  0  0  0  0  0  0  0  0  0
   -1.6109    2.2488   -7.4381 H   0  0  0  0  0  0  0  0  0  0  0  0
    0.0469    2.1157   -6.7596 H   0  0  0  0  0  0  0  0  0  0  0  0
   -0.5846    0.8322   -7.8462 H   0  0  0  0  0  0  0  0  0  0  0  0
 22 24  2  0  0  0  0
 24 26  1  0  0  0  0
 23 25  2  0  0  0  0
 25 26  1  0  0  0  0
 21 22  1  0  0  0  0
 22 23  1  0  0  0  0
  1  3  1  0  0  0  0
  1  7  1  0  0  0  0
  1  2  2  0  0  0  0
 35 36  1  0  0  0  0
 36 44  1  0  0  0  0
 36 37  2  0  0  0  0
  8  9  1  0  0  0  0
  9 17  1  0  0  0  0
  9 10  2  0  0  0  0
 18 19  1  0  0  0  0
 19 34  1  0  0  0  0
 19 20  2  0  0  0  0
 35 38  1  0  0  0  0
  8 11  1  0  0  0  0
 44 45  1  0  0  0  0
 18 21  1  0  0  0  0
 34 35  1  0  0  0  0
  7  8  1  0  0  0  0
 17 18  1  0  0  0  0
 24 31  1  0  0  0  0
 25 32  1  0  0  0  0
  3  4  1  0  0  0  0
  3  5  1  0  0  0  0
  3  6  1  0  0  0  0
 38 41  1  0  0  0  0
 38 42  1  0  0  0  0
 38 43  1  0  0  0  0
 11 14  1  0  0  0  0
 11 15  1  0  0  0  0
 11 16  1  0  0  0  0
 45 47  1  0  0  0  0
 45 48  1  0  0  0  0
 45 49  1  0  0  0  0
 21 29  1  0  0  0  0
 21 30  1  0  0  0  0
 35 40  1  0  0  0  0
  8 13  1  0  0  0  0
 18 28  1  0  0  0  0
 26 33  1  0  0  0  0
 44 46  1  0  0  0  0
  7 12  1  0  0  0  0
 34 39  1  0  0  0  0
 17 27  1  0  0  0  0
M  END
$$$$

  -OEChem-05262214473D

 49 49  0     1  0  0  0  0  0999 V2000
   -1.6183    0.5613    3.8201 C   0  0  0  0  0  0  0  0  0  0  0  0
   -0.6710   -0.0534    3.3444 O   0  0  0  0  0  0  0  0  0  0  0  0
   -2.0502    0.2789    5.2208 C   0  0  0  0  0  0  0  0  0  0  0  0
   -2.8099   -0.5175    5.2742 H   0  0  0  0  0  0  0  0  0  0  0  0
   -1.2190   -0.0687    5.8551 H   0  0  0  0  0  0  0  0  0  0  0  0
   -2.4882    1.1338    5.7604 H   0  0  0  0  0  0  0  0  0  0  0  0
   -2.3680    1.5337    3.1790 N   0  0  0  0  0  0  0  0  0  0  0  0
   -2.1212    1.9597    1.8266 C   0  0  2  0  0  0  0  0  0  0  0  0
   -0.7862    1.3744    1.3854 C   0  0  0  0  0  0  0  0  0  0  0  0
    0.0859    1.0216    2.1767 O   0  0  0  0  0  0  0  0  0  0  0  0
   -2.1124    3.4765    1.7171 C   0  0  0  0  0  0  0  0  0  0  0  0
   -3.1331    1.9695    3.6908 H   0  0  0  0  0  0  0  0  0  0  0  0
   -2.9253    1.5413    1.2115 H   0  0  0  0  0  0  0  0  0  0  0  0
   -1.3133    3.9138    2.3268 H   0  0  0  0  0  0  0  0  0  0  0  0
   -1.9529    3.7988    0.6829 H   0  0  0  0  0  0  0  0  0  0  0  0
   -3.0626    3.8977    2.0629 H   0  0  0  0  0  0  0  0  0  0  0  0
   -0.6635    1.3313    0.0020 N   0  0  0  0  0  0  0  0  0  0  0  0
    0.5138    0.8305   -0.6617 C   0  0  2  0  0  0  0  0  0  0  0  0
    0.1414    0.5902   -2.1204 C   0  0  0  0  0  0  0  0  0  0  0  0
    0.9259    0.1224   -2.9429 O   0  0  0  0  0  0  0  0  0  0  0  0
    1.0317   -0.4637   -0.0237 C   0  0  0  0  0  0  0  0  0  0  0  0
    1.4952   -0.2682    1.3992 C   0  0  0  0  0  0  0  0  0  0  0  0
    2.6887    0.3548    1.6655 N   0  0  0  0  0  0  0  0  0  0  0  0
    0.8622   -0.6457    2.5599 C   0  0  0  0  0  0  0  0  0  0  0  0
    2.7801    0.3565    2.9769 C   0  0  0  0  0  0  0  0  0  0  0  0
    1.6976   -0.2392    3.5620 N   0  0  0  0  0  0  0  0  0  0  0  0
   -1.4467    1.6280   -0.5753 H   0  0  0  0  0  0  0  0  0  0  0  0
    1.2646    1.6276   -0.6096 H   0  0  0  0  0  0  0  0  0  0  0  0
    1.8501   -0.8830   -0.6246 H   0  0  0  0  0  0  0  0  0  0  0  0
    0.2484   -1.2333   -0.0275 H   0  0  0  0  0  0  0  0  0  0  0  0
   -0.0726   -1.1489    2.7609 H   0  0  0  0  0  0  0  0  0  0  0  0
    3.5935    0.7677    3.5580 H   0  0  0  0  0  0  0  0  0  0  0  0
    1.5431   -0.3566    4.5545 H   0  0  0  0  0  0  0  0  0  0  0  0
   -1.1835    0.9136   -2.3784 N   0  0  0  0  0  0  0  0  0  0  0  0
   -1.7998    0.7587   -3.6765 C   0  0  2  0  0  0  0  0  0  0  0  0
   -0.8940    1.4168   -4.7088 C   0  0  0  0  0  0  0  0  0  0  0  0
   -0.0749    2.2882   -4.4242 O   0  0  0  0  0  0  0  0  0  0  0  0
   -3.1914    1.3714   -3.7050 C   0  0  0  0  0  0  0  0  0  0  0  0
   -1.7483    1.2776   -1.6167 H   0  0  0  0  0  0  0  0  0  0  0  0
   -1.8569   -0.3175   -3.8730 H   0  0  0  0  0  0  0  0  0  0  0  0
   -3.1544    2.4494   -3.5101 H   0  0  0  0  0  0  0  0  0  0  0  0
   -3.6682    1.2280   -4.6802 H   0  0  0  0  0  0  0  0  0  0  0  0
   -3.8328    0.9175   -2.9418 H   0  0  0  0  0  0  0  0  0  0  0  0
   -1.1380    0.9476   -5.9920 N   0  0  0  0  0  0  0  0  0  0  0  0
   -0.4161    1.4266   -7.1476 C   0  0  0  0  0  0  0  0  0  0  0  0
   -1.8225    0.2105   -6.1327 H   0  0  0  0  0  0  0  0  0  0  0  0
   -0.9673    2.2618   -7.6046 H   0  0  0  0  0  0  0  0  0  0  0  0
    0.5820    1.7711   -6.8395 H   0  0  0  0  0  0  0  0  0  0  0  0
   -0.3131    0.6116   -7.8791 H   0  0  0  0  0  0  0  0  0  0  0  0
 22 24  2  0  0  0  0
 24 26  1  0  0  0  0
 23 25  2  0  0  0  0
 25 26  1  0  0  0  0
 21 22  1  0  0  0  0
 22 23  1  0  0  0  0
  1  3  1  0  0  0  0
  1  7  1  0  0  0  0
  1  2  2  0  0  0  0
 35 36  1  0  0  0  0
 36 44  1  0  0  0  0
 36 37  2  0  0  0  0
  8  9  1  0  0  0  0
  9 17  1  0  0  0  0
  9 10  2  0  0  0  0
 18 19  1  0  0  0  0
 19 34  1  0  0  0  0
 19 20  2  0  0  0  0
 35 38  1  0  0  0  0
  8 11  1  0  0  0  0
 44 45  1  0  0  0  0
 18 21  1  0  0  0  0
 34 35  1  0  0  0  0
  7  8  1  0  0  0  0
 17 18  1  0  0  0  0
 24 31  1  0  0  0  0
 25 32  1  0  0  0  0
  3  4  1  0  0  0  0
  3  5  1  0  0  0  0
  3  6  1  0  0  0  0
 38 41  1  0  0  0  0
 38 42  1  0  0  0  0
 38 43  1  0  0  0  0
 11 14  1  0  0  0  0
 11 15  1  0  0  0  0
 11 16  1  0  0  0  0
 45 47  1  0  0  0  0
 45 48  1  0  0  0  0
 45 49  1  0  0  0  0
 21 29  1  0  0  0  0
 21 30  1  0  0  0  0
 35 40  1  0  0  0  0
  8 13  1  0  0  0  0
 18 28  1  0  0  0  0
 26 33  1  0  0  0  0
 44 46  1  0  0  0  0
  7 12  1  0  0  0  0
 34 39  1  0  0  0  0
 17 27  1  0  0  0  0
M  END
$$$$

  -OEChem-05262214473D

 49 49  0     1  0  0  0  0  0999 V2000
   -1.6183    0.5613    3.8201 C   0  0  0  0  0  0  0  0  0  0  0  0
   -0.6710   -0.0534    3.3444 O   0  0  0  0  0  0  0  0  0  0  0  0
   -2.0502    0.2789    5.2208 C   0  0  0  0  0  0  0  0  0  0  0  0
   -2.8099   -0.5175    5.2742 H   0  0  0  0  0  0  0  0  0  0  0  0
   -1.2190   -0.0687    5.8551 H   0  0  0  0  0  0  0  0  0  0  0  0
   -2.4882    1.1338    5.7604 H   0  0  0  0  0  0  0  0  0  0  0  0
   -2.3680    1.5337    3.1790 N   0  0  0  0  0  0  0  0  0  0  0  0
   -2.1212    1.9597    1.8266 C   0  0  2  0  0  0  0  0  0  0  0  0
   -0.7862    1.3744    1.3854 C   0  0  0  0  0  0  0  0  0  0  0  0
    0.0859    1.0216    2.1767 O   0  0  0  0  0  0  0  0  0  0  0  0
   -2.1124    3.4765    1.7171 C   0  0  0  0  0  0  0  0  0  0  0  0
   -3.1331    1.9695    3.6908 H   0  0  0  0  0  0  0  0  0  0  0  0
   -2.9253    1.5413    1.2115 H   0  0  0  0  0  0  0  0  0  0  0  0
   -1.3133    3.9138    2.3268 H   0  0  0  0  0  0  0  0  0  0  0  0
   -1.9529    3.7988    0.6829 H   0  0  0  0  0  0  0  0  0  0  0  0
   -3.0626    3.8977    2.0629 H   0  0  0  0  0  0  0  0  0  0  0  0
   -0.6635    1.3313    0.0020 N   0  0  0  0  0  0  0  0  0  0  0  0
    0.5138    0.8305   -0.6617 C   0  0  2  0  0  0  0  0  0  0  0  0
    0.1414    0.5902   -2.1204 C   0  0  0  0  0  0  0  0  0  0  0  0
    0.8113   -0.1115   -2.8751 O   0  0  0  0  0  0  0  0  0  0  0  0
    1.0317   -0.4637   -0.0237 C   0  0  0  0  0  0  0  0  0  0  0  0
    1.4952   -0.2682    1.3992 C   0  0  0  0  0  0  0  0  0  0  0  0
    2.6887    0.3548    1.6655 N   0  0  0  0  0  0  0  0  0  0  0  0
    0.8622   -0.6457    2.5599 C   0  0  0  0  0  0  0  0  0  0  0  0
    2.7801    0.3565    2.9769 C   0  0  0  0  0  0  0  0  0  0  0  0
    1.6976   -0.2392    3.5620 N   0  0  0  0  0  0  0  0  0  0  0  0
   -1.4467    1.6280   -0.5753 H   0  0  0  0  0  0  0  0  0  0  0  0
    1.2646    1.6276   -0.6096 H   0  0  0  0  0  0  0  0  0  0  0  0
    1.8501   -0.8830   -0.6246 H   0  0  0  0  0  0  0  0  0  0  0  0
    0.2484   -1.2333   -0.0275 H   0  0  0  0  0  0  0  0  0  0  0  0
   -0.0726   -1.1489    2.7609 H   0  0  0  0  0  0  0  0  0  0  0  0
    3.5935    0.7677    3.5580 H   0  0  0  0  0  0  0  0  0  0  0  0
    1.5431   -0.3566    4.5545 H   0  0  0  0  0  0  0  0  0  0  0  0
   -1.0520    1.2116   -2.4611 N   0  0  0  0  0  0  0  0  0  0  0  0
   -1.6446    1.1249   -3.7764 C   0  0  2  0  0  0  0  0  0  0  0  0
   -0.5701    1.4675   -4.7999 C   0  0  0  0  0  0  0  0  0  0  0  0
    0.4304    2.1275   -4.5267 O   0  0  0  0  0  0  0  0  0  0  0  0
   -2.8381    2.0581   -3.9083 C   0  0  0  0  0  0  0  0  0  0  0  0
   -1.5332    1.7547   -1.7502 H   0  0  0  0  0  0  0  0  0  0  0  0
   -1.9613    0.0851   -3.9127 H   0  0  0  0  0  0  0  0  0  0  0  0
   -2.5403    3.1045   -3.7747 H   0  0  0  0  0  0  0  0  0  0  0  0
   -3.3033    1.9703   -4.8956 H   0  0  0  0  0  0  0  0  0  0  0  0
   -3.5970    1.8294   -3.1522 H   0  0  0  0  0  0  0  0  0  0  0  0
   -0.8809    0.9862   -6.0639 N   0  0  0  0  0  0  0  0  0  0  0  0
   -0.0250    1.1925   -7.2089 C   0  0  0  0  0  0  0  0  0  0  0  0
   -1.7224    0.4326   -6.1948 H   0  0  0  0  0  0  0  0  0  0  0  0
   -0.3356    2.1044   -7.7399 H   0  0  0  0  0  0  0  0  0  0  0  0
    1.0168    1.3008   -6.8730 H   0  0  0  0  0  0  0  0  0  0  0  0
   -0.1041    0.3292   -7.8859 H   0  0  0  0  0  0  0  0  0  0  0  0
 22 24  2  0  0  0  0
 24 26  1  0  0  0  0
 23 25  2  0  0  0  0
 25 26  1  0  0  0  0
 21 22  1  0  0  0  0
 22 23  1  0  0  0  0
  1  3  1  0  0  0  0
  1  7  1  0  0  0  0
  1  2  2  0  0  0  0
 35 36  1  0  0  0  0
 36 44  1  0  0  0  0
 36 37  2  0  0  0  0
  8  9  1  0  0  0  0
  9 17  1  0  0  0  0
  9 10  2  0  0  0  0
 18 19  1  0  0  0  0
 19 34  1  0  0  0  0
 19 20  2  0  0  0  0
 35 38  1  0  0  0  0
  8 11  1  0  0  0  0
 44 45  1  0  0  0  0
 18 21  1  0  0  0  0
 34 35  1  0  0  0  0
  7  8  1  0  0  0  0
 17 18  1  0  0  0  0
 24 31  1  0  0  0  0
 25 32  1  0  0  0  0
  3  4  1  0  0  0  0
  3  5  1  0  0  0  0
  3  6  1  0  0  0  0
 38 41  1  0  0  0  0
 38 42  1  0  0  0  0
 38 43  1  0  0  0  0
 11 14  1  0  0  0  0
 11 15  1  0  0  0  0
 11 16  1  0  0  0  0
 45 47  1  0  0  0  0
 45 48  1  0  0  0  0
 45 49  1  0  0  0  0
 21 29  1  0  0  0  0
 21 30  1  0  0  0  0
 35 40  1  0  0  0  0
  8 13  1  0  0  0  0
 18 28  1  0  0  0  0
 26 33  1  0  0  0  0
 44 46  1  0  0  0  0
  7 12  1  0  0  0  0
 34 39  1  0  0  0  0
 17 27  1  0  0  0  0
M  END
$$$$

  -OEChem-05262214473D

 49 49  0     1  0  0  0  0  0999 V2000
   -1.6183    0.5613    3.8201 C   0  0  0  0  0  0  0  0  0  0  0  0
   -0.6710   -0.0534    3.3444 O   0  0  0  0  0  0  0  0  0  0  0  0
   -2.0502    0.2789    5.2208 C   0  0  0  0  0  0  0  0  0  0  0  0
   -2.8099   -0.5175    5.2742 H   0  0  0  0  0  0  0  0  0  0  0  0
   -1.2190   -0.0687    5.8551 H   0  0  0  0  0  0  0  0  0  0  0  0
   -2.4882    1.1338    5.7604 H   0  0  0  0  0  0  0  0  0  0  0  0
   -2.3680    1.5337    3.1790 N   0  0  0  0  0  0  0  0  0  0  0  0
   -2.1212    1.9597    1.8266 C   0  0  2  0  0  0  0  0  0  0  0  0
   -0.7862    1.3744    1.3854 C   0  0  0  0  0  0  0  0  0  0  0  0
    0.0859    1.0216    2.1767 O   0  0  0  0  0  0  0  0  0  0  0  0
   -2.1124    3.4765    1.7171 C   0  0  0  0  0  0  0  0  0  0  0  0
   -3.1331    1.9695    3.6908 H   0  0  0  0  0  0  0  0  0  0  0  0
   -2.9253    1.5413    1.2115 H   0  0  0  0  0  0  0  0  0  0  0  0
   -1.3133    3.9138    2.3268 H   0  0  0  0  0  0  0  0  0  0  0  0
   -1.9529    3.7988    0.6829 H   0  0  0  0  0  0  0  0  0  0  0  0
   -3.0626    3.8977    2.0629 H   0  0  0  0  0  0  0  0  0  0  0  0
   -0.6635    1.3313    0.0020 N   0  0  0  0  0  0  0  0  0  0  0  0
    0.5138    0.8305   -0.6617 C   0  0  2  0  0  0  0  0  0  0  0  0
    0.1414    0.5902   -2.1204 C   0  0  0  0  0  0  0  0  0  0  0  0
    0.6399   -0.3048   -2.7995 O   0  0  0  0  0  0  0  0  0  0  0  0
    1.0317   -0.4637   -0.0237 C   0  0  0  0  0  0  0  0  0  0  0  0
    1.4952   -0.2682    1.3992 C   0  0  0  0  0  0  0  0  0  0  0  0
    2.6887    0.3548    1.6655 N   0  0  0  0  0  0  0  0  0  0  0  0
    0.8622   -0.6457    2.5599 C   0  0  0  0  0  0  0  0  0  0  0  0
    2.7801    0.3565    2.9769 C   0  0  0  0  0  0  0  0  0  0  0  0
    1.6976   -0.2392    3.5620 N   0  0  0  0  0  0  0  0  0  0  0  0
   -1.4467    1.6280   -0.5753 H   0  0  0  0  0  0  0  0  0  0  0  0
    1.2646    1.6276   -0.6096 H   0  0  0  0  0  0  0  0  0  0  0  0
    1.8501   -0.8830   -0.6246 H   0  0  0  0  0  0  0  0  0  0  0  0
    0.2484   -1.2333   -0.0275 H   0  0  0  0  0  0  0  0  0  0  0  0
   -0.0726   -1.1489    2.7609 H   0  0  0  0  0  0  0  0  0  0  0  0
    3.5935    0.7677    3.5580 H   0  0  0  0  0  0  0  0  0  0  0  0
    1.5431   -0.3566    4.5545 H   0  0  0  0  0  0  0  0  0  0  0  0
   -0.8479    1.4616   -2.5544 N   0  0  0  0  0  0  0  0  0  0  0  0
   -1.3999    1.4338   -3.8898 C   0  0  2  0  0  0  0  0  0  0  0  0
   -0.2409    1.4304   -4.8778 C   0  0  0  0  0  0  0  0  0  0  0  0
    0.8828    1.8408   -4.5950 O   0  0  0  0  0  0  0  0  0  0  0  0
   -2.3185    2.6210   -4.1336 C   0  0  0  0  0  0  0  0  0  0  0  0
   -1.2018    2.1538   -1.9005 H   0  0  0  0  0  0  0  0  0  0  0  0
   -1.9608    0.4973   -3.9807 H   0  0  0  0  0  0  0  0  0  0  0  0
   -1.7741    3.5684   -4.0467 H   0  0  0  0  0  0  0  0  0  0  0  0
   -2.7582    2.5832   -5.1358 H   0  0  0  0  0  0  0  0  0  0  0  0
   -3.1348    2.6386   -3.4035 H   0  0  0  0  0  0  0  0  0  0  0  0
   -0.6201    0.9553   -6.1254 N   0  0  0  0  0  0  0  0  0  0  0  0
    0.2973    0.8656   -7.2373 C   0  0  0  0  0  0  0  0  0  0  0  0
   -1.5681    0.6184   -6.2648 H   0  0  0  0  0  0  0  0  0  0  0  0
    0.2412    1.7874   -7.8349 H   0  0  0  0  0  0  0  0  0  0  0  0
    1.3217    0.7366   -6.8579 H   0  0  0  0  0  0  0  0  0  0  0  0
    0.0280    0.0042   -7.8662 H   0  0  0  0  0  0  0  0  0  0  0  0
 22 24  2  0  0  0  0
 24 26  1  0  0  0  0
 23 25  2  0  0  0  0
 25 26  1  0  0  0  0
 21 22  1  0  0  0  0
 22 23  1  0  0  0  0
  1  3  1  0  0  0  0
  1  7  1  0  0  0  0
  1  2  2  0  0  0  0
 35 36  1  0  0  0  0
 36 44  1  0  0  0  0
 36 37  2  0  0  0  0
  8  9  1  0  0  0  0
  9 17  1  0  0  0  0
  9 10  2  0  0  0  0
 18 19  1  0  0  0  0
 19 34  1  0  0  0  0
 19 20  2  0  0  0  0
 35 38  1  0  0  0  0
  8 11  1  0  0  0  0
 44 45  1  0  0  0  0
 18 21  1  0  0  0  0
 34 35  1  0  0  0  0
  7  8  1  0  0  0  0
 17 18  1  0  0  0  0
 24 31  1  0  0  0  0
 25 32  1  0  0  0  0
  3  4  1  0  0  0  0
  3  5  1  0  0  0  0
  3  6  1  0  0  0  0
 38 41  1  0  0  0  0
 38 42  1  0  0  0  0
 38 43  1  0  0  0  0
 11 14  1  0  0  0  0
 11 15  1  0  0  0  0
 11 16  1  0  0  0  0
 45 47  1  0  0  0  0
 45 48  1  0  0  0  0
 45 49  1  0  0  0  0
 21 29  1  0  0  0  0
 21 30  1  0  0  0  0
 35 40  1  0  0  0  0
  8 13  1  0  0  0  0
 18 28  1  0  0  0  0
 26 33  1  0  0  0  0
 44 46  1  0  0  0  0
  7 12  1  0  0  0  0
 34 39  1  0  0  0  0
 17 27  1  0  0  0  0
M  END
$$$$

  -OEChem-05262214473D

 49 49  0     1  0  0  0  0  0999 V2000
   -1.6183    0.5613    3.8201 C   0  0  0  0  0  0  0  0  0  0  0  0
   -0.6710   -0.0534    3.3444 O   0  0  0  0  0  0  0  0  0  0  0  0
   -2.0502    0.2789    5.2208 C   0  0  0  0  0  0  0  0  0  0  0  0
   -2.8099   -0.5175    5.2742 H   0  0  0  0  0  0  0  0  0  0  0  0
   -1.2190   -0.0687    5.8551 H   0  0  0  0  0  0  0  0  0  0  0  0
   -2.4882    1.1338    5.7604 H   0  0  0  0  0  0  0  0  0  0  0  0
   -2.3680    1.5337    3.1790 N   0  0  0  0  0  0  0  0  0  0  0  0
   -2.1212    1.9597    1.8266 C   0  0  2  0  0  0  0  0  0  0  0  0
   -0.7862    1.3744    1.3854 C   0  0  0  0  0  0  0  0  0  0  0  0
    0.0859    1.0216    2.1767 O   0  0  0  0  0  0  0  0  0  0  0  0
   -2.1124    3.4765    1.7171 C   0  0  0  0  0  0  0  0  0  0  0  0
   -3.1331    1.9695    3.6908 H   0  0  0  0  0  0  0  0  0  0  0  0
   -2.9253    1.5413    1.2115 H   0  0  0  0  0  0  0  0  0  0  0  0
   -1.3133    3.9138    2.3268 H   0  0  0  0  0  0  0  0  0  0  0  0
   -1.9529    3.7988    0.6829 H   0  0  0  0  0  0  0  0  0  0  0  0
   -3.0626    3.8977    2.0629 H   0  0  0  0  0  0  0  0  0  0  0  0
   -0.6635    1.3313    0.0020 N   0  0  0  0  0  0  0  0  0  0  0  0
    0.5138    0.8305   -0.6617 C   0  0  2  0  0  0  0  0  0  0  0  0
    0.1414    0.5902   -2.1204 C   0  0  0  0  0  0  0  0  0  0  0  0
    0.4234   -0.4443   -2.7213 O   0  0  0  0  0  0  0  0  0  0  0  0
    1.0317   -0.4637   -0.0237 C   0  0  0  0  0  0  0  0  0  0  0  0
    1.4952   -0.2682    1.3992 C   0  0  0  0  0  0  0  0  0  0  0  0
    2.6887    0.3548    1.6655 N   0  0  0  0  0  0  0  0  0  0  0  0
    0.8622   -0.6457    2.5599 C   0  0  0  0  0  0  0  0  0  0  0  0
    2.7801    0.3565    2.9769 C   0  0  0  0  0  0  0  0  0  0  0  0
    1.6976   -0.2392    3.5620 N   0  0  0  0  0  0  0  0  0  0  0  0
   -1.4467    1.6280   -0.5753 H   0  0  0  0  0  0  0  0  0  0  0  0
    1.2646    1.6276   -0.6096 H   0  0  0  0  0  0  0  0  0  0  0  0
    1.8501   -0.8830   -0.6246 H   0  0  0  0  0  0  0  0  0  0  0  0
    0.2484   -1.2333   -0.0275 H   0  0  0  0  0  0  0  0  0  0  0  0
   -0.0726   -1.1489    2.7609 H   0  0  0  0  0  0  0  0  0  0  0  0
    3.5935    0.7677    3.5580 H   0  0  0  0  0  0  0  0  0  0  0  0
    1.5431   -0.3566    4.5545 H   0  0  0  0  0  0  0  0  0  0  0  0
   -0.5850    1.6467   -2.6520 N   0  0  0  0  0  0  0  0  0  0  0  0
   -1.0824    1.6645   -4.0088 C   0  0  2  0  0  0  0  0  0  0  0  0
    0.0710    1.3081   -4.9373 C   0  0  0  0  0  0  0  0  0  0  0  0
    1.2516    1.4474   -4.6244 O   0  0  0  0  0  0  0  0  0  0  0  0
   -1.6680    3.0219   -4.3657 C   0  0  0  0  0  0  0  0  0  0  0  0
   -0.7767    2.4477   -2.0575 H   0  0  0  0  0  0  0  0  0  0  0  0
   -1.8555    0.8910   -4.0724 H   0  0  0  0  0  0  0  0  0  0  0  0
   -0.9081    3.8096   -4.3076 H   0  0  0  0  0  0  0  0  0  0  0  0
   -2.0702    3.0251   -5.3842 H   0  0  0  0  0  0  0  0  0  0  0  0
   -2.4778    3.2898   -3.6785 H   0  0  0  0  0  0  0  0  0  0  0  0
   -0.3733    0.8569   -6.1722 N   0  0  0  0  0  0  0  0  0  0  0  0
    0.5288    0.4683   -7.2310 C   0  0  0  0  0  0  0  0  0  0  0  0
   -1.3703    0.7552   -6.3379 H   0  0  0  0  0  0  0  0  0  0  0  0
    0.7236    1.3324   -7.8832 H   0  0  0  0  0  0  0  0  0  0  0  0
    1.4758    0.1171   -6.7952 H   0  0  0  0  0  0  0  0  0  0  0  0
    0.0744   -0.3412   -7.8211 H   0  0  0  0  0  0  0  0  0  0  0  0
 22 24  2  0  0  0  0
 24 26  1  0  0  0  0
 23 25  2  0  0  0  0
 25 26  1  0  0  0  0
 21 22  1  0  0  0  0
 22 23  1  0  0  0  0
  1  3  1  0  0  0  0
  1  7  1  0  0  0  0
  1  2  2  0  0  0  0
 35 36  1  0  0  0  0
 36 44  1  0  0  0  0
 36 37  2  0  0  0  0
  8  9  1  0  0  0  0
  9 17  1  0  0  0  0
  9 10  2  0  0  0  0
 18 19  1  0  0  0  0
 19 34  1  0  0  0  0
 19 20  2  0  0  0  0
 35 38  1  0  0  0  0
  8 11  1  0  0  0  0
 44 45  1  0  0  0  0
 18 21  1  0  0  0  0
 34 35  1  0  0  0  0
  7  8  1  0  0  0  0
 17 18  1  0  0  0  0
 24 31  1  0  0  0  0
 25 32  1  0  0  0  0
  3  4  1  0  0  0  0
  3  5  1  0  0  0  0
  3  6  1  0  0  0  0
 38 41  1  0  0  0  0
 38 42  1  0  0  0  0
 38 43  1  0  0  0  0
 11 14  1  0  0  0  0
 11 15  1  0  0  0  0
 11 16  1  0  0  0  0
 45 47  1  0  0  0  0
 45 48  1  0  0  0  0
 45 49  1  0  0  0  0
 21 29  1  0  0  0  0
 21 30  1  0  0  0  0
 35 40  1  0  0  0  0
  8 13  1  0  0  0  0
 18 28  1  0  0  0  0
 26 33  1  0  0  0  0
 44 46  1  0  0  0  0
  7 12  1  0  0  0  0
 34 39  1  0  0  0  0
 17 27  1  0  0  0  0
M  END
$$$$

  -OEChem-05262214473D

 49 49  0     1  0  0  0  0  0999 V2000
   -1.6183    0.5613    3.8201 C   0  0  0  0  0  0  0  0  0  0  0  0
   -0.6710   -0.0534    3.3444 O   0  0  0  0  0  0  0  0  0  0  0  0
   -2.0502    0.2789    5.2208 C   0  0  0  0  0  0  0  0  0  0  0  0
   -2.8099   -0.5175    5.2742 H   0  0  0  0  0  0  0  0  0  0  0  0
   -1.2190   -0.0687    5.8551 H   0  0  0  0  0  0  0  0  0  0  0  0
   -2.4882    1.1338    5.7604 H   0  0  0  0  0  0  0  0  0  0  0  0
   -2.3680    1.5337    3.1790 N   0  0  0  0  0  0  0  0  0  0  0  0
   -2.1212    1.9597    1.8266 C   0  0  2  0  0  0  0  0  0  0  0  0
   -0.7862    1.3744    1.3854 C   0  0  0  0  0  0  0  0  0  0  0  0
    0.0859    1.0216    2.1767 O   0  0  0  0  0  0  0  0  0  0  0  0
   -2.1124    3.4765    1.7171 C   0  0  0  0  0  0  0  0  0  0  0  0
   -3.1331    1.9695    3.6908 H   0  0  0  0  0  0  0  0  0  0  0  0
   -2.9253    1.5413    1.2115 H   0  0  0  0  0  0  0  0  0  0  0  0
   -1.3133    3.9138    2.3268 H   0  0  0  0  0  0  0  0  0  0  0  0
   -1.9529    3.7988    0.6829 H   0  0  0  0  0  0  0  0  0  0  0  0
   -3.0626    3.8977    2.0629 H   0  0  0  0  0  0  0  0  0  0  0  0
   -0.6635    1.3313    0.0020 N   0  0  0  0  0  0  0  0  0  0  0  0
    0.5138    0.8305   -0.6617 C   0  0  2  0  0  0  0  0  0  0  0  0
    0.1414    0.5902   -2.1204 C   0  0  0  0  0  0  0  0  0  0  0  0
    0.1766   -0.5205   -2.6457 O   0  0  0  0  0  0  0  0  0  0  0  0
    1.0317   -0.4637   -0.0237 C   0  0  0  0  0  0  0  0  0  0  0  0
    1.4952   -0.2682    1.3992 C   0  0  0  0  0  0  0  0  0  0  0  0
    2.6887    0.3548    1.6655 N   0  0  0  0  0  0  0  0  0  0  0  0
    0.8622   -0.6457    2.5599 C   0  0  0  0  0  0  0  0  0  0  0  0
    2.7801    0.3565    2.9769 C   0  0  0  0  0  0  0  0  0  0  0  0
    1.6976   -0.2392    3.5620 N   0  0  0  0  0  0  0  0  0  0  0  0
   -1.4467    1.6280   -0.5753 H   0  0  0  0  0  0  0  0  0  0  0  0
    1.2646    1.6276   -0.6096 H   0  0  0  0  0  0  0  0  0  0  0  0
    1.8501   -0.8830   -0.6246 H   0  0  0  0  0  0  0  0  0  0  0  0
    0.2484   -1.2333   -0.0275 H   0  0  0  0  0  0  0  0  0  0  0  0
   -0.0726   -1.1489    2.7609 H   0  0  0  0  0  0  0  0  0  0  0  0
    3.5935    0.7677    3.5580 H   0  0  0  0  0  0  0  0  0  0  0  0
    1.5431   -0.3566    4.5545 H   0  0  0  0  0  0  0  0  0  0  0  0
   -0.2813    1.7542   -2.7472 N   0  0  0  0  0  0  0  0  0  0  0  0
   -0.7138    1.8012   -4.1255 C   0  0  2  0  0  0  0  0  0  0  0  0
    0.3445    1.1091   -4.9743 C   0  0  0  0  0  0  0  0  0  0  0  0
    1.5117    0.9743   -4.6128 O   0  0  0  0  0  0  0  0  0  0  0  0
   -0.9310    3.2333   -4.5887 C   0  0  0  0  0  0  0  0  0  0  0  0
   -0.2869    2.6164   -2.2103 H   0  0  0  0  0  0  0  0  0  0  0  0
   -1.6526    1.2395   -4.1816 H   0  0  0  0  0  0  0  0  0  0  0  0
   -0.0012    3.8117   -4.5394 H   0  0  0  0  0  0  0  0  0  0  0  0
   -1.2860    3.2658   -5.6241 H   0  0  0  0  0  0  0  0  0  0  0  0
   -1.6706    3.7388   -3.9585 H   0  0  0  0  0  0  0  0  0  0  0  0
   -0.1574    0.6979   -6.2011 N   0  0  0  0  0  0  0  0  0  0  0  0
    0.6538    0.0275   -7.1903 C   0  0  0  0  0  0  0  0  0  0  0  0
   -1.1423    0.8338   -6.4090 H   0  0  0  0  0  0  0  0  0  0  0  0
    1.0789    0.7704   -7.8813 H   0  0  0  0  0  0  0  0  0  0  0  0
    1.4688   -0.5154   -6.6892 H   0  0  0  0  0  0  0  0  0  0  0  0
    0.0318   -0.6835   -7.7539 H   0  0  0  0  0  0  0  0  0  0  0  0
 22 24  2  0  0  0  0
 24 26  1  0  0  0  0
 23 25  2  0  0  0  0
 25 26  1  0  0  0  0
 21 22  1  0  0  0  0
 22 23  1  0  0  0  0
  1  3  1  0  0  0  0
  1  7  1  0  0  0  0
  1  2  2  0  0  0  0
 35 36  1  0  0  0  0
 36 44  1  0  0  0  0
 36 37  2  0  0  0  0
  8  9  1  0  0  0  0
  9 17  1  0  0  0  0
  9 10  2  0  0  0  0
 18 19  1  0  0  0  0
 19 34  1  0  0  0  0
 19 20  2  0  0  0  0
 35 38  1  0  0  0  0
  8 11  1  0  0  0  0
 44 45  1  0  0  0  0
 18 21  1  0  0  0  0
 34 35  1  0  0  0  0
  7  8  1  0  0  0  0
 17 18  1  0  0  0  0
 24 31  1  0  0  0  0
 25 32  1  0  0  0  0
  3  4  1  0  0  0  0
  3  5  1  0  0  0  0
  3  6  1  0  0  0  0
 38 41  1  0  0  0  0
 38 42  1  0  0  0  0
 38 43  1  0  0  0  0
 11 14  1  0  0  0  0
 11 15  1  0  0  0  0
 11 16  1  0  0  0  0
 45 47  1  0  0  0  0
 45 48  1  0  0  0  0
 45 49  1  0  0  0  0
 21 29  1  0  0  0  0
 21 30  1  0  0  0  0
 35 40  1  0  0  0  0
  8 13  1  0  0  0  0
 18 28  1  0  0  0  0
 26 33  1  0  0  0  0
 44 46  1  0  0  0  0
  7 12  1  0  0  0  0
 34 39  1  0  0  0  0
 17 27  1  0  0  0  0
M  END
$$$$

  -OEChem-05262214473D

 49 49  0     1  0  0  0  0  0999 V2000
   -1.6183    0.5613    3.8201 C   0  0  0  0  0  0  0  0  0  0  0  0
   -0.6710   -0.0534    3.3444 O   0  0  0  0  0  0  0  0  0  0  0  0
   -2.0502    0.2789    5.2208 C   0  0  0  0  0  0  0  0  0  0  0  0
   -2.8099   -0.5175    5.2742 H   0  0  0  0  0  0  0  0  0  0  0  0
   -1.2190   -0.0687    5.8551 H   0  0  0  0  0  0  0  0  0  0  0  0
   -2.4882    1.1338    5.7604 H   0  0  0  0  0  0  0  0  0  0  0  0
   -2.3680    1.5337    3.1790 N   0  0  0  0  0  0  0  0  0  0  0  0
   -2.1212    1.9597    1.8266 C   0  0  2  0  0  0  0  0  0  0  0  0
   -0.7862    1.3744    1.3854 C   0  0  0  0  0  0  0  0  0  0  0  0
    0.0859    1.0216    2.1767 O   0  0  0  0  0  0  0  0  0  0  0  0
   -2.1124    3.4765    1.7171 C   0  0  0  0  0  0  0  0  0  0  0  0
   -3.1331    1.9695    3.6908 H   0  0  0  0  0  0  0  0  0  0  0  0
   -2.9253    1.5413    1.2115 H   0  0  0  0  0  0  0  0  0  0  0  0
   -1.3133    3.9138    2.3268 H   0  0  0  0  0  0  0  0  0  0  0  0
   -1.9529    3.7988    0.6829 H   0  0  0  0  0  0  0  0  0  0  0  0
   -3.0626    3.8977    2.0629 H   0  0  0  0  0  0  0  0  0  0  0  0
   -0.6635    1.3313    0.0020 N   0  0  0  0  0  0  0  0  0  0  0  0
    0.5138    0.8305   -0.6617 C   0  0  2  0  0  0  0  0  0  0  0  0
    0.1414    0.5902   -2.1204 C   0  0  0  0  0  0  0  0  0  0  0  0
   -0.0838   -0.5282   -2.5780 O   0  0  0  0  0  0  0  0  0  0  0  0
    1.0317   -0.4637   -0.0237 C   0  0  0  0  0  0  0  0  0  0  0  0
    1.4952   -0.2682    1.3992 C   0  0  0  0  0  0  0  0  0  0  0  0
    2.6887    0.3548    1.6655 N   0  0  0  0  0  0  0  0  0  0  0  0
    0.8622   -0.6457    2.5599 C   0  0  0  0  0  0  0  0  0  0  0  0
    2.7801    0.3565    2.9769 C   0  0  0  0  0  0  0  0  0  0  0  0
    1.6976   -0.2392    3.5620 N   0  0  0  0  0  0  0  0  0  0  0  0
   -1.4467    1.6280   -0.5753 H   0  0  0  0  0  0  0  0  0  0  0  0
    1.2646    1.6276   -0.6096 H   0  0  0  0  0  0  0  0  0  0  0  0
    1.8501   -0.8830   -0.6246 H   0  0  0  0  0  0  0  0  0  0  0  0
    0.2484   -1.2333   -0.0275 H   0  0  0  0  0  0  0  0  0  0  0  0
   -0.0726   -1.1489    2.7609 H   0  0  0  0  0  0  0  0  0  0  0  0
    3.5935    0.7677    3.5580 H   0  0  0  0  0  0  0  0  0  0  0  0
    1.5431   -0.3566    4.5545 H   0  0  0  0  0  0  0  0  0  0  0  0
    0.0426    1.7768   -2.8336 N   0  0  0  0  0  0  0  0  0  0  0  0
   -0.3191    1.8345   -4.2317 C   0  0  2  0  0  0  0  0  0  0  0  0
    0.5609    0.8467   -4.9863 C   0  0  0  0  0  0  0  0  0  0  0  0
    1.6452    0.4536   -4.5611 O   0  0  0  0  0  0  0  0  0  0  0  0
   -0.1576    3.2409   -4.7874 C   0  0  0  0  0  0  0  0  0  0  0  0
    0.2342    2.6484   -2.3486 H   0  0  0  0  0  0  0  0  0  0  0  0
   -1.3658    1.5189   -4.3009 H   0  0  0  0  0  0  0  0  0  0  0  0
    0.8848    3.5744   -4.7265 H   0  0  0  0  0  0  0  0  0  0  0  0
   -0.4591    3.2890   -5.8390 H   0  0  0  0  0  0  0  0  0  0  0  0
   -0.7684    3.9549   -4.2244 H   0  0  0  0  0  0  0  0  0  0  0  0
    0.0129    0.4889   -6.2102 N   0  0  0  0  0  0  0  0  0  0  0  0
    0.6638   -0.4266   -7.1180 C   0  0  0  0  0  0  0  0  0  0  0  0
   -0.8997    0.8488   -6.4734 H   0  0  0  0  0  0  0  0  0  0  0  0
    1.2829    0.1396   -7.8295 H   0  0  0  0  0  0  0  0  0  0  0  0
    1.3010   -1.1180   -6.5471 H   0  0  0  0  0  0  0  0  0  0  0  0
   -0.0968   -0.9992   -7.6690 H   0  0  0  0  0  0  0  0  0  0  0  0
 22 24  2  0  0  0  0
 24 26  1  0  0  0  0
 23 25  2  0  0  0  0
 25 26  1  0  0  0  0
 21 22  1  0  0  0  0
 22 23  1  0  0  0  0
  1  3  1  0  0  0  0
  1  7  1  0  0  0  0
  1  2  2  0  0  0  0
 35 36  1  0  0  0  0
 36 44  1  0  0  0  0
 36 37  2  0  0  0  0
  8  9  1  0  0  0  0
  9 17  1  0  0  0  0
  9 10  2  0  0  0  0
 18 19  1  0  0  0  0
 19 34  1  0  0  0  0
 19 20  2  0  0  0  0
 35 38  1  0  0  0  0
  8 11  1  0  0  0  0
 44 45  1  0  0  0  0
 18 21  1  0  0  0  0
 34 35  1  0  0  0  0
  7  8  1  0  0  0  0
 17 18  1  0  0  0  0
 24 31  1  0  0  0  0
 25 32  1  0  0  0  0
  3  4  1  0  0  0  0
  3  5  1  0  0  0  0
  3  6  1  0  0  0  0
 38 41  1  0  0  0  0
 38 42  1  0  0  0  0
 38 43  1  0  0  0  0
 11 14  1  0  0  0  0
 11 15  1  0  0  0  0
 11 16  1  0  0  0  0
 45 47  1  0  0  0  0
 45 48  1  0  0  0  0
 45 49  1  0  0  0  0
 21 29  1  0  0  0  0
 21 30  1  0  0  0  0
 35 40  1  0  0  0  0
  8 13  1  0  0  0  0
 18 28  1  0  0  0  0
 26 33  1  0  0  0  0
 44 46  1  0  0  0  0
  7 12  1  0  0  0  0
 34 39  1  0  0  0  0
 17 27  1  0  0  0  0
M  END
$$$$

  -OEChem-05262214473D

 49 49  0     1  0  0  0  0  0999 V2000
   -1.6183    0.5613    3.8201 C   0  0  0  0  0  0  0  0  0  0  0  0
   -0.6710   -0.0534    3.3444 O   0  0  0  0  0  0  0  0  0  0  0  0
   -2.0502    0.2789    5.2208 C   0  0  0  0  0  0  0  0  0  0  0  0
   -2.8099   -0.5175    5.2742 H   0  0  0  0  0  0  0  0  0  0  0  0
   -1.2190   -0.0687    5.8551 H   0  0  0  0  0  0  0  0  0  0  0  0
   -2.4882    1.1338    5.7604 H   0  0  0  0  0  0  0  0  0  0  0  0
   -2.3680    1.5337    3.1790 N   0  0  0  0  0  0  0  0  0  0  0  0
   -2.1212    1.9597    1.8266 C   0  0  2  0  0  0  0  0  0  0  0  0
   -0.7862    1.3744    1.3854 C   0  0  0  0  0  0  0  0  0  0  0  0
    0.0859    1.0216    2.1767 O   0  0  0  0  0  0  0  0  0  0  0  0
   -2.1124    3.4765    1.7171 C   0  0  0  0  0  0  0  0  0  0  0  0
   -3.1331    1.9695    3.6908 H   0  0  0  0  0  0  0  0  0  0  0  0
   -2.9253    1.5413    1.2115 H   0  0  0  0  0  0  0  0  0  0  0  0
   -1.3133    3.9138    2.3268 H   0  0  0  0  0  0  0  0  0  0  0  0
   -1.9529    3.7988    0.6829 H   0  0  0  0  0  0  0  0  0  0  0  0
   -3.0626    3.8977    2.0629 H   0  0  0  0  0  0  0  0  0  0  0  0
   -0.6635    1.3313    0.0020 N   0  0  0  0  0  0  0  0  0  0  0  0
    0.5138    0.8305   -0.6617 C   0  0  2  0  0  0  0  0  0  0  0  0
    0.1414    0.5902   -2.1204 C   0  0  0  0  0  0  0  0  0  0  0  0
   -0.3400   -0.4668   -2.5227 O   0  0  0  0  0  0  0  0  0  0  0  0
    1.0317   -0.4637   -0.0237 C   0  0  0  0  0  0  0  0  0  0  0  0
    1.4952   -0.2682    1.3992 C   0  0  0  0  0  0  0  0  0  0  0  0
    2.6887    0.3548    1.6655 N   0  0  0  0  0  0  0  0  0  0  0  0
    0.8622   -0.6457    2.5599 C   0  0  0  0  0  0  0  0  0  0  0  0
    2.7801    0.3565    2.9769 C   0  0  0  0  0  0  0  0  0  0  0  0
    1.6976   -0.2392    3.5620 N   0  0  0  0  0  0  0  0  0  0  0  0
   -1.4467    1.6280   -0.5753 H   0  0  0  0  0  0  0  0  0  0  0  0
    1.2646    1.6276   -0.6096 H   0  0  0  0  0  0  0  0  0  0  0  0
    1.8501   -0.8830   -0.6246 H   0  0  0  0  0  0  0  0  0  0  0  0
    0.2484   -1.2333   -0.0275 H   0  0  0  0  0  0  0  0  0  0  0  0
   -0.0726   -1.1489    2.7609 H   0  0  0  0  0  0  0  0  0  0  0  0
    3.5935    0.7677    3.5580 H   0  0  0  0  0  0  0  0  0  0  0  0
    1.5431   -0.3566    4.5545 H   0  0  0  0  0  0  0  0  0  0  0  0
    0.3646    1.7129   -2.9053 N   0  0  0  0  0  0  0  0  0  0  0  0
    0.0748    1.7622   -4.3203 C   0  0  2  0  0  0  0  0  0  0  0  0
    0.7054    0.5389   -4.9725 C   0  0  0  0  0  0  0  0  0  0  0  0
    1.6431   -0.0792   -4.4728 O   0  0  0  0  0  0  0  0  0  0  0  0
    0.5994    3.0441   -4.9483 C   0  0  0  0  0  0  0  0  0  0  0  0
    0.7511    2.5416   -2.4630 H   0  0  0  0  0  0  0  0  0  0  0  0
   -1.0147    1.7103   -4.4220 H   0  0  0  0  0  0  0  0  0  0  0  0
    1.6895    3.1139   -4.8561 H   0  0  0  0  0  0  0  0  0  0  0  0
    0.3541    3.0931   -6.0143 H   0  0  0  0  0  0  0  0  0  0  0  0
    0.1675    3.9233   -4.4582 H   0  0  0  0  0  0  0  0  0  0  0  0
    0.1261    0.2444   -6.1988 N   0  0  0  0  0  0  0  0  0  0  0  0
    0.5580   -0.8632   -7.0191 C   0  0  0  0  0  0  0  0  0  0  0  0
   -0.6591    0.7991   -6.5267 H   0  0  0  0  0  0  0  0  0  0  0  0
    1.3215   -0.5169   -7.7312 H   0  0  0  0  0  0  0  0  0  0  0  0
    0.9839   -1.6495   -6.3786 H   0  0  0  0  0  0  0  0  0  0  0  0
   -0.3028   -1.2671   -7.5723 H   0  0  0  0  0  0  0  0  0  0  0  0
 22 24  2  0  0  0  0
 24 26  1  0  0  0  0
 23 25  2  0  0  0  0
 25 26  1  0  0  0  0
 21 22  1  0  0  0  0
 22 23  1  0  0  0  0
  1  3  1  0  0  0  0
  1  7  1  0  0  0  0
  1  2  2  0  0  0  0
 35 36  1  0  0  0  0
 36 44  1  0  0  0  0
 36 37  2  0  0  0  0
  8  9  1  0  0  0  0
  9 17  1  0  0  0  0
  9 10  2  0  0  0  0
 18 19  1  0  0  0  0
 19 34  1  0  0  0  0
 19 20  2  0  0  0  0
 35 38  1  0  0  0  0
  8 11  1  0  0  0  0
 44 45  1  0  0  0  0
 18 21  1  0  0  0  0
 34 35  1  0  0  0  0
  7  8  1  0  0  0  0
 17 18  1  0  0  0  0
 24 31  1  0  0  0  0
 25 32  1  0  0  0  0
  3  4  1  0  0  0  0
  3  5  1  0  0  0  0
  3  6  1  0  0  0  0
 38 41  1  0  0  0  0
 38 42  1  0  0  0  0
 38 43  1  0  0  0  0
 11 14  1  0  0  0  0
 11 15  1  0  0  0  0
 11 16  1  0  0  0  0
 45 47  1  0  0  0  0
 45 48  1  0  0  0  0
 45 49  1  0  0  0  0
 21 29  1  0  0  0  0
 21 30  1  0  0  0  0
 35 40  1  0  0  0  0
  8 13  1  0  0  0  0
 18 28  1  0  0  0  0
 26 33  1  0  0  0  0
 44 46  1  0  0  0  0
  7 12  1  0  0  0  0
 34 39  1  0  0  0  0
 17 27  1  0  0  0  0
M  END
$$$$

  -OEChem-05262214473D

 49 49  0     1  0  0  0  0  0999 V2000
   -1.6183    0.5613    3.8201 C   0  0  0  0  0  0  0  0  0  0  0  0
   -0.6710   -0.0534    3.3444 O   0  0  0  0  0  0  0  0  0  0  0  0
   -2.0502    0.2789    5.2208 C   0  0  0  0  0  0  0  0  0  0  0  0
   -2.8099   -0.5175    5.2742 H   0  0  0  0  0  0  0  0  0  0  0  0
   -1.2190   -0.0687    5.8551 H   0  0  0  0  0  0  0  0  0  0  0  0
   -2.4882    1.1338    5.7604 H   0  0  0  0  0  0  0  0  0  0  0  0
   -2.3680    1.5337    3.1790 N   0  0  0  0  0  0  0  0  0  0  0  0
   -2.1212    1.9597    1.8266 C   0  0  2  0  0  0  0  0  0  0  0  0
   -0.7862    1.3744    1.3854 C   0  0  0  0  0  0  0  0  0  0  0  0
    0.0859    1.0216    2.1767 O   0  0  0  0  0  0  0  0  0  0  0  0
   -2.1124    3.4765    1.7171 C   0  0  0  0  0  0  0  0  0  0  0  0
   -3.1331    1.9695    3.6908 H   0  0  0  0  0  0  0  0  0  0  0  0
   -2.9253    1.5413    1.2115 H   0  0  0  0  0  0  0  0  0  0  0  0
   -1.3133    3.9138    2.3268 H   0  0  0  0  0  0  0  0  0  0  0  0
   -1.9529    3.7988    0.6829 H   0  0  0  0  0  0  0  0  0  0  0  0
   -3.0626    3.8977    2.0629 H   0  0  0  0  0  0  0  0  0  0  0  0
   -0.6635    1.3313    0.0020 N   0  0  0  0  0  0  0  0  0  0  0  0
    0.5138    0.8305   -0.6617 C   0  0  2  0  0  0  0  0  0  0  0  0
    0.1414    0.5902   -2.1204 C   0  0  0  0  0  0  0  0  0  0  0  0
   -0.5745   -0.3406   -2.4836 O   0  0  0  0  0  0  0  0  0  0  0  0
    1.0317   -0.4637   -0.0237 C   0  0  0  0  0  0  0  0  0  0  0  0
    1.4952   -0.2682    1.3992 C   0  0  0  0  0  0  0  0  0  0  0  0
    2.6887    0.3548    1.6655 N   0  0  0  0  0  0  0  0  0  0  0  0
    0.8622   -0.6457    2.5599 C   0  0  0  0  0  0  0  0  0  0  0  0
    2.7801    0.3565    2.9769 C   0  0  0  0  0  0  0  0  0  0  0  0
    1.6976   -0.2392    3.5620 N   0  0  0  0  0  0  0  0  0  0  0  0
   -1.4467    1.6280   -0.5753 H   0  0  0  0  0  0  0  0  0  0  0  0
    1.2646    1.6276   -0.6096 H   0  0  0  0  0  0  0  0  0  0  0  0
    1.8501   -0.8830   -0.6246 H   0  0  0  0  0  0  0  0  0  0  0  0
    0.2484   -1.2333   -0.0275 H   0  0  0  0  0  0  0  0  0  0  0  0
   -0.0726   -1.1489    2.7609 H   0  0  0  0  0  0  0  0  0  0  0  0
    3.5935    0.7677    3.5580 H   0  0  0  0  0  0  0  0  0  0  0  0
    1.5431   -0.3566    4.5545 H   0  0  0  0  0  0  0  0  0  0  0  0
    0.6627    1.5669   -2.9574 N   0  0  0  0  0  0  0  0  0  0  0  0
    0.4409    1.5893   -4.3853 C   0  0  2  0  0  0  0  0  0  0  0  0
    0.7681    0.2067   -4.9338 C   0  0  0  0  0  0  0  0  0  0  0  0
    1.5056   -0.5877   -4.3540 O   0  0  0  0  0  0  0  0  0  0  0  0
    1.2885    2.6564   -5.0603 C   0  0  0  0  0  0  0  0  0  0  0  0
    1.2287    2.3031   -2.5456 H   0  0  0  0  0  0  0  0  0  0  0  0
   -0.6233    1.8005   -4.5368 H   0  0  0  0  0  0  0  0  0  0  0  0
    2.3579    2.4617   -4.9193 H   0  0  0  0  0  0  0  0  0  0  0  0
    1.0982    2.6913   -6.1381 H   0  0  0  0  0  0  0  0  0  0  0  0
    1.0732    3.6463   -4.6438 H   0  0  0  0  0  0  0  0  0  0  0  0
    0.1744   -0.0192   -6.1677 N   0  0  0  0  0  0  0  0  0  0  0  0
    0.3436   -1.2524   -6.9003 C   0  0  0  0  0  0  0  0  0  0  0  0
   -0.4368    0.6881   -6.5651 H   0  0  0  0  0  0  0  0  0  0  0  0
    1.1923   -1.1543   -7.5932 H   0  0  0  0  0  0  0  0  0  0  0  0
    0.5391   -2.0737   -6.1952 H   0  0  0  0  0  0  0  0  0  0  0  0
   -0.5719   -1.4686   -7.4704 H   0  0  0  0  0  0  0  0  0  0  0  0
 22 24  2  0  0  0  0
 24 26  1  0  0  0  0
 23 25  2  0  0  0  0
 25 26  1  0  0  0  0
 21 22  1  0  0  0  0
 22 23  1  0  0  0  0
  1  3  1  0  0  0  0
  1  7  1  0  0  0  0
  1  2  2  0  0  0  0
 35 36  1  0  0  0  0
 36 44  1  0  0  0  0
 36 37  2  0  0  0  0
  8  9  1  0  0  0  0
  9 17  1  0  0  0  0
  9 10  2  0  0  0  0
 18 19  1  0  0  0  0
 19 34  1  0  0  0  0
 19 20  2  0  0  0  0
 35 38  1  0  0  0  0
  8 11  1  0  0  0  0
 44 45  1  0  0  0  0
 18 21  1  0  0  0  0
 34 35  1  0  0  0  0
  7  8  1  0  0  0  0
 17 18  1  0  0  0  0
 24 31  1  0  0  0  0
 25 32  1  0  0  0  0
  3  4  1  0  0  0  0
  3  5  1  0  0  0  0
  3  6  1  0  0  0  0
 38 41  1  0  0  0  0
 38 42  1  0  0  0  0
 38 43  1  0  0  0  0
 11 14  1  0  0  0  0
 11 15  1  0  0  0  0
 11 16  1  0  0  0  0
 45 47  1  0  0  0  0
 45 48  1  0  0  0  0
 45 49  1  0  0  0  0
 21 29  1  0  0  0  0
 21 30  1  0  0  0  0
 35 40  1  0  0  0  0
  8 13  1  0  0  0  0
 18 28  1  0  0  0  0
 26 33  1  0  0  0  0
 44 46  1  0  0  0  0
  7 12  1  0  0  0  0
 34 39  1  0  0  0  0
 17 27  1  0  0  0  0
M  END
$$$$

  -OEChem-05262214473D

 49 49  0     1  0  0  0  0  0999 V2000
   -1.6183    0.5613    3.8201 C   0  0  0  0  0  0  0  0  0  0  0  0
   -0.6710   -0.0534    3.3444 O   0  0  0  0  0  0  0  0  0  0  0  0
   -2.0502    0.2789    5.2208 C   0  0  0  0  0  0  0  0  0  0  0  0
   -2.8099   -0.5175    5.2742 H   0  0  0  0  0  0  0  0  0  0  0  0
   -1.2190   -0.0687    5.8551 H   0  0  0  0  0  0  0  0  0  0  0  0
   -2.4882    1.1338    5.7604 H   0  0  0  0  0  0  0  0  0  0  0  0
   -2.3680    1.5337    3.1790 N   0  0  0  0  0  0  0  0  0  0  0  0
   -2.1212    1.9597    1.8266 C   0  0  2  0  0  0  0  0  0  0  0  0
   -0.7862    1.3744    1.3854 C   0  0  0  0  0  0  0  0  0  0  0  0
    0.0859    1.0216    2.1767 O   0  0  0  0  0  0  0  0  0  0  0  0
   -2.1124    3.4765    1.7171 C   0  0  0  0  0  0  0  0  0  0  0  0
   -3.1331    1.9695    3.6908 H   0  0  0  0  0  0  0  0  0  0  0  0
   -2.9253    1.5413    1.2115 H   0  0  0  0  0  0  0  0  0  0  0  0
   -1.3133    3.9138    2.3268 H   0  0  0  0  0  0  0  0  0  0  0  0
   -1.9529    3.7988    0.6829 H   0  0  0  0  0  0  0  0  0  0  0  0
   -3.0626    3.8977    2.0629 H   0  0  0  0  0  0  0  0  0  0  0  0
   -0.6635    1.3313    0.0020 N   0  0  0  0  0  0  0  0  0  0  0  0
    0.5138    0.8305   -0.6617 C   0  0  2  0  0  0  0  0  0  0  0  0
    0.1414    0.5902   -2.1204 C   0  0  0  0  0  0  0  0  0  0  0  0
   -0.7714   -0.1582   -2.4634 O   0  0  0  0  0  0  0  0  0  0  0  0
    1.0317   -0.4637   -0.0237 C   0  0  0  0  0  0  0  0  0  0  0  0
    1.4952   -0.2682    1.3992 C   0  0  0  0  0  0  0  0  0  0  0  0
    2.6887    0.3548    1.6655 N   0  0  0  0  0  0  0  0  0  0  0  0
    0.8622   -0.6457    2.5599 C   0  0  0  0  0  0  0  0  0  0  0  0
    2.7801    0.3565    2.9769 C   0  0  0  0  0  0  0  0  0  0  0  0
    1.6976   -0.2392    3.5620 N   0  0  0  0  0  0  0  0  0  0  0  0
   -1.4467    1.6280   -0.5753 H   0  0  0  0  0  0  0  0  0  0  0  0
    1.2646    1.6276   -0.6096 H   0  0  0  0  0  0  0  0  0  0  0  0
    1.8501   -0.8830   -0.6246 H   0  0  0  0  0  0  0  0  0  0  0  0
    0.2484   -1.2333   -0.0275 H   0  0  0  0  0  0  0  0  0  0  0  0
   -0.0726   -1.1489    2.7609 H   0  0  0  0  0  0  0  0  0  0  0  0
    3.5935    0.7677    3.5580 H   0  0  0  0  0  0  0  0  0  0  0  0
    1.5431   -0.3566    4.5545 H   0  0  0  0  0  0  0  0  0  0  0  0
    0.9167    1.3488   -2.9863 N   0  0  0  0  0  0  0  0  0  0  0  0
    0.7544    1.3275   -4.4222 C   0  0  2  0  0  0  0  0  0  0  0  0
    0.7450   -0.1273   -4.8729 C   0  0  0  0  0  0  0  0  0  0  0  0
    1.2420   -1.0373   -4.2126 O   0  0  0  0  0  0  0  0  0  0  0  0
    1.8627    2.1042   -5.1159 C   0  0  0  0  0  0  0  0  0  0  0  0
    1.6342    1.9493   -2.5908 H   0  0  0  0  0  0  0  0  0  0  0  0
   -0.2181    1.7834   -4.6374 H   0  0  0  0  0  0  0  0  0  0  0  0
    2.8447    1.6622   -4.9119 H   0  0  0  0  0  0  0  0  0  0  0  0
    1.7225    2.1111   -6.2019 H   0  0  0  0  0  0  0  0  0  0  0  0
    1.8870    3.1427   -4.7686 H   0  0  0  0  0  0  0  0  0  0  0  0
    0.1545   -0.2838   -6.1191 N   0  0  0  0  0  0  0  0  0  0  0  0
    0.0353   -1.5677   -6.7696 C   0  0  0  0  0  0  0  0  0  0  0  0
   -0.2480    0.5234   -6.5862 H   0  0  0  0  0  0  0  0  0  0  0  0
    0.9040   -1.7294   -7.4249 H   0  0  0  0  0  0  0  0  0  0  0  0
   -0.0031   -2.3617   -6.0093 H   0  0  0  0  0  0  0  0  0  0  0  0
   -0.8860   -1.5902   -7.3702 H   0  0  0  0  0  0  0  0  0  0  0  0
 22 24  2  0  0  0  0
 24 26  1  0  0  0  0
 23 25  2  0  0  0  0
 25 26  1  0  0  0  0
 21 22  1  0  0  0  0
 22 23  1  0  0  0  0
  1  3  1  0  0  0  0
  1  7  1  0  0  0  0
  1  2  2  0  0  0  0
 35 36  1  0  0  0  0
 36 44  1  0  0  0  0
 36 37  2  0  0  0  0
  8  9  1  0  0  0  0
  9 17  1  0  0  0  0
  9 10  2  0  0  0  0
 18 19  1  0  0  0  0
 19 34  1  0  0  0  0
 19 20  2  0  0  0  0
 35 38  1  0  0  0  0
  8 11  1  0  0  0  0
 44 45  1  0  0  0  0
 18 21  1  0  0  0  0
 34 35  1  0  0  0  0
  7  8  1  0  0  0  0
 17 18  1  0  0  0  0
 24 31  1  0  0  0  0
 25 32  1  0  0  0  0
  3  4  1  0  0  0  0
  3  5  1  0  0  0  0
  3  6  1  0  0  0  0
 38 41  1  0  0  0  0
 38 42  1  0  0  0  0
 38 43  1  0  0  0  0
 11 14  1  0  0  0  0
 11 15  1  0  0  0  0
 11 16  1  0  0  0  0
 45 47  1  0  0  0  0
 45 48  1  0  0  0  0
 45 49  1  0  0  0  0
 21 29  1  0  0  0  0
 21 30  1  0  0  0  0
 35 40  1  0  0  0  0
  8 13  1  0  0  0  0
 18 28  1  0  0  0  0
 26 33  1  0  0  0  0
 44 46  1  0  0  0  0
  7 12  1  0  0  0  0
 34 39  1  0  0  0  0
 17 27  1  0  0  0  0
M  END
$$$$

  -OEChem-05262214473D

 49 49  0     1  0  0  0  0  0999 V2000
   -1.6183    0.5613    3.8201 C   0  0  0  0  0  0  0  0  0  0  0  0
   -0.6710   -0.0534    3.3444 O   0  0  0  0  0  0  0  0  0  0  0  0
   -2.0502    0.2789    5.2208 C   0  0  0  0  0  0  0  0  0  0  0  0
   -2.8099   -0.5175    5.2742 H   0  0  0  0  0  0  0  0  0  0  0  0
   -1.2190   -0.0687    5.8551 H   0  0  0  0  0  0  0  0  0  0  0  0
   -2.4882    1.1338    5.7604 H   0  0  0  0  0  0  0  0  0  0  0  0
   -2.3680    1.5337    3.1790 N   0  0  0  0  0  0  0  0  0  0  0  0
   -2.1212    1.9597    1.8266 C   0  0  2  0  0  0  0  0  0  0  0  0
   -0.7862    1.3744    1.3854 C   0  0  0  0  0  0  0  0  0  0  0  0
    0.0859    1.0216    2.1767 O   0  0  0  0  0  0  0  0  0  0  0  0
   -2.1124    3.4765    1.7171 C   0  0  0  0  0  0  0  0  0  0  0  0
   -3.1331    1.9695    3.6908 H   0  0  0  0  0  0  0  0  0  0  0  0
   -2.9253    1.5413    1.2115 H   0  0  0  0  0  0  0  0  0  0  0  0
   -1.3133    3.9138    2.3268 H   0  0  0  0  0  0  0  0  0  0  0  0
   -1.9529    3.7988    0.6829 H   0  0  0  0  0  0  0  0  0  0  0  0
   -3.0626    3.8977    2.0629 H   0  0  0  0  0  0  0  0  0  0  0  0
   -0.6635    1.3313    0.0020 N   0  0  0  0  0  0  0  0  0  0  0  0
    0.5138    0.8305   -0.6617 C   0  0  2  0  0  0  0  0  0  0  0  0
    0.1414    0.5902   -2.1204 C   0  0  0  0  0  0  0  0  0  0  0  0
   -0.9172    0.0681   -2.4634 O   0  0  0  0  0  0  0  0  0  0  0  0
    1.0317   -0.4637   -0.0237 C   0  0  0  0  0  0  0  0  0  0  0  0
    1.4952   -0.2682    1.3992 C   0  0  0  0  0  0  0  0  0  0  0  0
    2.6887    0.3548    1.6655 N   0  0  0  0  0  0  0  0  0  0  0  0
    0.8622   -0.6457    2.5599 C   0  0  0  0  0  0  0  0  0  0  0  0
    2.7801    0.3565    2.9769 C   0  0  0  0  0  0  0  0  0  0  0  0
    1.6976   -0.2392    3.5620 N   0  0  0  0  0  0  0  0  0  0  0  0
   -1.4467    1.6280   -0.5753 H   0  0  0  0  0  0  0  0  0  0  0  0
    1.2646    1.6276   -0.6096 H   0  0  0  0  0  0  0  0  0  0  0  0
    1.8501   -0.8830   -0.6246 H   0  0  0  0  0  0  0  0  0  0  0  0
    0.2484   -1.2333   -0.0275 H   0  0  0  0  0  0  0  0  0  0  0  0
   -0.0726   -1.1489    2.7609 H   0  0  0  0  0  0  0  0  0  0  0  0
    3.5935    0.7677    3.5580 H   0  0  0  0  0  0  0  0  0  0  0  0
    1.5431   -0.3566    4.5545 H   0  0  0  0  0  0  0  0  0  0  0  0
    1.1091    1.0735   -2.9900 N   0  0  0  0  0  0  0  0  0  0  0  0
    0.9939    0.9946   -4.4285 C   0  0  2  0  0  0  0  0  0  0  0  0
    0.6374   -0.4403   -4.7939 C   0  0  0  0  0  0  0  0  0  0  0  0
    0.8702   -1.3973   -4.0584 O   0  0  0  0  0  0  0  0  0  0  0  0
    2.2828    1.4251   -5.1113 C   0  0  0  0  0  0  0  0  0  0  0  0
    1.9402    1.5042   -2.5956 H   0  0  0  0  0  0  0  0  0  0  0  0
    0.1731    1.6603   -4.7170 H   0  0  0  0  0  0  0  0  0  0  0  0
    3.1166    0.7698   -4.8343 H   0  0  0  0  0  0  0  0  0  0  0  0
    2.1845    1.3921   -6.2014 H   0  0  0  0  0  0  0  0  0  0  0  0
    2.5535    2.4469   -4.8241 H   0  0  0  0  0  0  0  0  0  0  0  0
    0.0678   -0.5313   -6.0562 N   0  0  0  0  0  0  0  0  0  0  0  0
   -0.3459   -1.7877   -6.6361 C   0  0  0  0  0  0  0  0  0  0  0  0
   -0.1056    0.3163   -6.5884 H   0  0  0  0  0  0  0  0  0  0  0  0
    0.4762   -2.2028   -7.2377 H   0  0  0  0  0  0  0  0  0  0  0  0
   -0.6057   -2.4939   -5.8337 H   0  0  0  0  0  0  0  0  0  0  0  0
   -1.2236   -1.6236   -7.2785 H   0  0  0  0  0  0  0  0  0  0  0  0
 22 24  2  0  0  0  0
 24 26  1  0  0  0  0
 23 25  2  0  0  0  0
 25 26  1  0  0  0  0
 21 22  1  0  0  0  0
 22 23  1  0  0  0  0
  1  3  1  0  0  0  0
  1  7  1  0  0  0  0
  1  2  2  0  0  0  0
 35 36  1  0  0  0  0
 36 44  1  0  0  0  0
 36 37  2  0  0  0  0
  8  9  1  0  0  0  0
  9 17  1  0  0  0  0
  9 10  2  0  0  0  0
 18 19  1  0  0  0  0
 19 34  1  0  0  0  0
 19 20  2  0  0  0  0
 35 38  1  0  0  0  0
  8 11  1  0  0  0  0
 44 45  1  0  0  0  0
 18 21  1  0  0  0  0
 34 35  1  0  0  0  0
  7  8  1  0  0  0  0
 17 18  1  0  0  0  0
 24 31  1  0  0  0  0
 25 32  1  0  0  0  0
  3  4  1  0  0  0  0
  3  5  1  0  0  0  0
  3  6  1  0  0  0  0
 38 41  1  0  0  0  0
 38 42  1  0  0  0  0
 38 43  1  0  0  0  0
 11 14  1  0  0  0  0
 11 15  1  0  0  0  0
 11 16  1  0  0  0  0
 45 47  1  0  0  0  0
 45 48  1  0  0  0  0
 45 49  1  0  0  0  0
 21 29  1  0  0  0  0
 21 30  1  0  0  0  0
 35 40  1  0  0  0  0
  8 13  1  0  0  0  0
 18 28  1  0  0  0  0
 26 33  1  0  0  0  0
 44 46  1  0  0  0  0
  7 12  1  0  0  0  0
 34 39  1  0  0  0  0
 17 27  1  0  0  0  0
M  END
$$$$

  -OEChem-05262214473D

 49 49  0     1  0  0  0  0  0999 V2000
   -1.6183    0.5613    3.8201 C   0  0  0  0  0  0  0  0  0  0  0  0
   -0.6710   -0.0534    3.3444 O   0  0  0  0  0  0  0  0  0  0  0  0
   -2.0502    0.2789    5.2208 C   0  0  0  0  0  0  0  0  0  0  0  0
   -2.8099   -0.5175    5.2742 H   0  0  0  0  0  0  0  0  0  0  0  0
   -1.2190   -0.0687    5.8551 H   0  0  0  0  0  0  0  0  0  0  0  0
   -2.4882    1.1338    5.7604 H   0  0  0  0  0  0  0  0  0  0  0  0
   -2.3680    1.5337    3.1790 N   0  0  0  0  0  0  0  0  0  0  0  0
   -2.1212    1.9597    1.8266 C   0  0  2  0  0  0  0  0  0  0  0  0
   -0.7862    1.3744    1.3854 C   0  0  0  0  0  0  0  0  0  0  0  0
    0.0859    1.0216    2.1767 O   0  0  0  0  0  0  0  0  0  0  0  0
   -2.1124    3.4765    1.7171 C   0  0  0  0  0  0  0  0  0  0  0  0
   -3.1331    1.9695    3.6908 H   0  0  0  0  0  0  0  0  0  0  0  0
   -2.9253    1.5413    1.2115 H   0  0  0  0  0  0  0  0  0  0  0  0
   -1.3133    3.9138    2.3268 H   0  0  0  0  0  0  0  0  0  0  0  0
   -1.9529    3.7988    0.6829 H   0  0  0  0  0  0  0  0  0  0  0  0
   -3.0626    3.8977    2.0629 H   0  0  0  0  0  0  0  0  0  0  0  0
   -0.6635    1.3313    0.0020 N   0  0  0  0  0  0  0  0  0  0  0  0
    0.5138    0.8305   -0.6617 C   0  0  2  0  0  0  0  0  0  0  0  0
    0.1414    0.5902   -2.1204 C   0  0  0  0  0  0  0  0  0  0  0  0
   -1.0020    0.3227   -2.4837 O   0  0  0  0  0  0  0  0  0  0  0  0
    1.0317   -0.4637   -0.0237 C   0  0  0  0  0  0  0  0  0  0  0  0
    1.4952   -0.2682    1.3992 C   0  0  0  0  0  0  0  0  0  0  0  0
    2.6887    0.3548    1.6655 N   0  0  0  0  0  0  0  0  0  0  0  0
    0.8622   -0.6457    2.5599 C   0  0  0  0  0  0  0  0  0  0  0  0
    2.7801    0.3565    2.9769 C   0  0  0  0  0  0  0  0  0  0  0  0
    1.6976   -0.2392    3.5620 N   0  0  0  0  0  0  0  0  0  0  0  0
   -1.4467    1.6280   -0.5753 H   0  0  0  0  0  0  0  0  0  0  0  0
    1.2646    1.6276   -0.6096 H   0  0  0  0  0  0  0  0  0  0  0  0
    1.8501   -0.8830   -0.6246 H   0  0  0  0  0  0  0  0  0  0  0  0
    0.2484   -1.2333   -0.0275 H   0  0  0  0  0  0  0  0  0  0  0  0
   -0.0726   -1.1489    2.7609 H   0  0  0  0  0  0  0  0  0  0  0  0
    3.5935    0.7677    3.5580 H   0  0  0  0  0  0  0  0  0  0  0  0
    1.5431   -0.3566    4.5545 H   0  0  0  0  0  0  0  0  0  0  0  0
    1.2270    0.7596   -2.9684 N   0  0  0  0  0  0  0  0  0  0  0  0
    1.1430    0.6134   -4.4038 C   0  0  2  0  0  0  0  0  0  0  0  0
    0.4527   -0.7110   -4.7021 C   0  0  0  0  0  0  0  0  0  0  0  0
    0.4157   -1.6433   -3.9018 O   0  0  0  0  0  0  0  0  0  0  0  0
    2.5202    0.6654   -5.0468 C   0  0  0  0  0  0  0  0  0  0  0  0
    2.1257    0.9983   -2.5597 H   0  0  0  0  0  0  0  0  0  0  0  0
    0.5237    1.4394   -4.7702 H   0  0  0  0  0  0  0  0  0  0  0  0
    3.1551   -0.1546   -4.6919 H   0  0  0  0  0  0  0  0  0  0  0  0
    2.4526    0.5832   -6.1366 H   0  0  0  0  0  0  0  0  0  0  0  0
    3.0272    1.6062   -4.8065 H   0  0  0  0  0  0  0  0  0  0  0  0
   -0.0799   -0.7450   -5.9833 N   0  0  0  0  0  0  0  0  0  0  0  0
   -0.7740   -1.8974   -6.5087 C   0  0  0  0  0  0  0  0  0  0  0  0
   -0.0192    0.0808   -6.5717 H   0  0  0  0  0  0  0  0  0  0  0  0
   -0.0618   -2.5423   -7.0444 H   0  0  0  0  0  0  0  0  0  0  0  0
   -1.2276   -2.4613   -5.6803 H   0  0  0  0  0  0  0  0  0  0  0  0
   -1.5616   -1.5664   -7.2016 H   0  0  0  0  0  0  0  0  0  0  0  0
 22 24  2  0  0  0  0
 24 26  1  0  0  0  0
 23 25  2  0  0  0  0
 25 26  1  0  0  0  0
 21 22  1  0  0  0  0
 22 23  1  0  0  0  0
  1  3  1  0  0  0  0
  1  7  1  0  0  0  0
  1  2  2  0  0  0  0
 35 36  1  0  0  0  0
 36 44  1  0  0  0  0
 36 37  2  0  0  0  0
  8  9  1  0  0  0  0
  9 17  1  0  0  0  0
  9 10  2  0  0  0  0
 18 19  1  0  0  0  0
 19 34  1  0  0  0  0
 19 20  2  0  0  0  0
 35 38  1  0  0  0  0
  8 11  1  0  0  0  0
 44 45  1  0  0  0  0
 18 21  1  0  0  0  0
 34 35  1  0  0  0  0
  7  8  1  0  0  0  0
 17 18  1  0  0  0  0
 24 31  1  0  0  0  0
 25 32  1  0  0  0  0
  3  4  1  0  0  0  0
  3  5  1  0  0  0  0
  3  6  1  0  0  0  0
 38 41  1  0  0  0  0
 38 42  1  0  0  0  0
 38 43  1  0  0  0  0
 11 14  1  0  0  0  0
 11 15  1  0  0  0  0
 11 16  1  0  0  0  0
 45 47  1  0  0  0  0
 45 48  1  0  0  0  0
 45 49  1  0  0  0  0
 21 29  1  0  0  0  0
 21 30  1  0  0  0  0
 35 40  1  0  0  0  0
  8 13  1  0  0  0  0
 18 28  1  0  0  0  0
 26 33  1  0  0  0  0
 44 46  1  0  0  0  0
  7 12  1  0  0  0  0
 34 39  1  0  0  0  0
 17 27  1  0  0  0  0
M  END
$$$$

  -OEChem-05262214473D

 49 49  0     1  0  0  0  0  0999 V2000
   -1.6183    0.5613    3.8201 C   0  0  0  0  0  0  0  0  0  0  0  0
   -0.6710   -0.0534    3.3444 O   0  0  0  0  0  0  0  0  0  0  0  0
   -2.0502    0.2789    5.2208 C   0  0  0  0  0  0  0  0  0  0  0  0
   -2.8099   -0.5175    5.2742 H   0  0  0  0  0  0  0  0  0  0  0  0
   -1.2190   -0.0687    5.8551 H   0  0  0  0  0  0  0  0  0  0  0  0
   -2.4882    1.1338    5.7604 H   0  0  0  0  0  0  0  0  0  0  0  0
   -2.3680    1.5337    3.1790 N   0  0  0  0  0  0  0  0  0  0  0  0
   -2.1212    1.9597    1.8266 C   0  0  2  0  0  0  0  0  0  0  0  0
   -0.7862    1.3744    1.3854 C   0  0  0  0  0  0  0  0  0  0  0  0
    0.0859    1.0216    2.1767 O   0  0  0  0  0  0  0  0  0  0  0  0
   -2.1124    3.4765    1.7171 C   0  0  0  0  0  0  0  0  0  0  0  0
   -3.1331    1.9695    3.6908 H   0  0  0  0  0  0  0  0  0  0  0  0
   -2.9253    1.5413    1.2115 H   0  0  0  0  0  0  0  0  0  0  0  0
   -1.3133    3.9138    2.3268 H   0  0  0  0  0  0  0  0  0  0  0  0
   -1.9529    3.7988    0.6829 H   0  0  0  0  0  0  0  0  0  0  0  0
   -3.0626    3.8977    2.0629 H   0  0  0  0  0  0  0  0  0  0  0  0
   -0.6635    1.3313    0.0020 N   0  0  0  0  0  0  0  0  0  0  0  0
    0.5138    0.8305   -0.6617 C   0  0  2  0  0  0  0  0  0  0  0  0
    0.1414    0.5902   -2.1204 C   0  0  0  0  0  0  0  0  0  0  0  0
   -1.0200    0.5884   -2.5229 O   0  0  0  0  0  0  0  0  0  0  0  0
    1.0317   -0.4637   -0.0237 C   0  0  0  0  0  0  0  0  0  0  0  0
    1.4952   -0.2682    1.3992 C   0  0  0  0  0  0  0  0  0  0  0  0
    2.6887    0.3548    1.6655 N   0  0  0  0  0  0  0  0  0  0  0  0
    0.8622   -0.6457    2.5599 C   0  0  0  0  0  0  0  0  0  0  0  0
    2.7801    0.3565    2.9769 C   0  0  0  0  0  0  0  0  0  0  0  0
    1.6976   -0.2392    3.5620 N   0  0  0  0  0  0  0  0  0  0  0  0
   -1.4467    1.6280   -0.5753 H   0  0  0  0  0  0  0  0  0  0  0  0
    1.2646    1.6276   -0.6096 H   0  0  0  0  0  0  0  0  0  0  0  0
    1.8501   -0.8830   -0.6246 H   0  0  0  0  0  0  0  0  0  0  0  0
    0.2484   -1.2333   -0.0275 H   0  0  0  0  0  0  0  0  0  0  0  0
   -0.0726   -1.1489    2.7609 H   0  0  0  0  0  0  0  0  0  0  0  0
    3.5935    0.7677    3.5580 H   0  0  0  0  0  0  0  0  0  0  0  0
    1.5431   -0.3566    4.5545 H   0  0  0  0  0  0  0  0  0  0  0  0
    1.2622    0.4286   -2.9229 N   0  0  0  0  0  0  0  0  0  0  0  0
    1.1917    0.2098   -4.3498 C   0  0  2  0  0  0  0  0  0  0  0  0
    0.2035   -0.9209   -4.6039 C   0  0  0  0  0  0  0  0  0  0  0  0
   -0.0907   -1.7585   -3.7536 O   0  0  0  0  0  0  0  0  0  0  0  0
    2.5588   -0.1231   -4.9267 C   0  0  0  0  0  0  0  0  0  0  0  0
    2.1781    0.4659   -2.4854 H   0  0  0  0  0  0  0  0  0  0  0  0
    0.8098    1.1359   -4.7932 H   0  0  0  0  0  0  0  0  0  0  0  0
    2.9575   -1.0480   -4.4943 H   0  0  0  0  0  0  0  0  0  0  0  0
    2.5087   -0.2604   -6.0119 H   0  0  0  0  0  0  0  0  0  0  0  0
    3.2758    0.6779   -4.7171 H   0  0  0  0  0  0  0  0  0  0  0  0
   -0.2784   -0.9102   -5.9054 N   0  0  0  0  0  0  0  0  0  0  0  0
   -1.2199   -1.8892   -6.3962 C   0  0  0  0  0  0  0  0  0  0  0  0
    0.0053   -0.1671   -6.5371 H   0  0  0  0  0  0  0  0  0  0  0  0
   -0.6735   -2.7247   -6.8582 H   0  0  0  0  0  0  0  0  0  0  0  0
   -1.8266   -2.2660   -5.5596 H   0  0  0  0  0  0  0  0  0  0  0  0
   -1.8772   -1.4226   -7.1448 H   0  0  0  0  0  0  0  0  0  0  0  0
 22 24  2  0  0  0  0
 24 26  1  0  0  0  0
 23 25  2  0  0  0  0
 25 26  1  0  0  0  0
 21 22  1  0  0  0  0
 22 23  1  0  0  0  0
  1  3  1  0  0  0  0
  1  7  1  0  0  0  0
  1  2  2  0  0  0  0
 35 36  1  0  0  0  0
 36 44  1  0  0  0  0
 36 37  2  0  0  0  0
  8  9  1  0  0  0  0
  9 17  1  0  0  0  0
  9 10  2  0  0  0  0
 18 19  1  0  0  0  0
 19 34  1  0  0  0  0
 19 20  2  0  0  0  0
 35 38  1  0  0  0  0
  8 11  1  0  0  0  0
 44 45  1  0  0  0  0
 18 21  1  0  0  0  0
 34 35  1  0  0  0  0
  7  8  1  0  0  0  0
 17 18  1  0  0  0  0
 24 31  1  0  0  0  0
 25 32  1  0  0  0  0
  3  4  1  0  0  0  0
  3  5  1  0  0  0  0
  3  6  1  0  0  0  0
 38 41  1  0  0  0  0
 38 42  1  0  0  0  0
 38 43  1  0  0  0  0
 11 14  1  0  0  0  0
 11 15  1  0  0  0  0
 11 16  1  0  0  0  0
 45 47  1  0  0  0  0
 45 48  1  0  0  0  0
 45 49  1  0  0  0  0
 21 29  1  0  0  0  0
 21 30  1  0  0  0  0
 35 40  1  0  0  0  0
  8 13  1  0  0  0  0
 18 28  1  0  0  0  0
 26 33  1  0  0  0  0
 44 46  1  0  0  0  0
  7 12  1  0  0  0  0
 34 39  1  0  0  0  0
 17 27  1  0  0  0  0
M  END
$$$$
