
  -OEChem-02062319123D

 46 46  0     1  0  0  0  0  0999 V2000
   -0.5056   -3.7408    3.7434 C   0  0  0  0  0  0  0  0  0  0  0  0
   -0.4281   -4.8320    3.2010 O   0  0  0  0  0  0  0  0  0  0  0  0
   -0.5281   -3.6396    5.2566 C   0  0  0  0  0  0  0  0  0  0  0  0
   -1.4809   -3.2194    5.5874 H   0  0  0  0  0  0  0  0  0  0  0  0
   -0.4056   -4.6305    5.7027 H   0  0  0  0  0  0  0  0  0  0  0  0
    0.2853   -2.9956    5.6002 H   0  0  0  0  0  0  0  0  0  0  0  0
   -0.5636   -2.5943    2.9801 N   0  0  0  0  0  0  0  0  0  0  0  0
   -0.3878   -2.5595    1.5221 C   0  0  2  0  0  0  0  0  0  0  0  0
    0.3515   -1.2760    1.0692 C   0  0  0  0  0  0  0  0  0  0  0  0
    0.3781   -0.3180    1.8357 O   0  0  0  0  0  0  0  0  0  0  0  0
   -1.7777   -2.6424    0.8838 C   0  0  0  0  0  0  0  0  0  0  0  0
   -0.5060   -1.7023    3.4711 H   0  0  0  0  0  0  0  0  0  0  0  0
    0.2076   -3.4221    1.2096 H   0  0  0  0  0  0  0  0  0  0  0  0
   -2.3888   -1.7863    1.1873 H   0  0  0  0  0  0  0  0  0  0  0  0
   -1.7046   -2.6499   -0.2071 H   0  0  0  0  0  0  0  0  0  0  0  0
   -2.2831   -3.5606    1.2000 H   0  0  0  0  0  0  0  0  0  0  0  0
    0.9291   -1.1339   -0.1943 N   0  0  0  0  0  0  0  0  0  0  0  0
    1.6303    0.0911   -0.6146 C   0  0  2  0  0  0  0  0  0  0  0  0
    0.7808    1.3770   -0.6069 C   0  0  0  0  0  0  0  0  0  0  0  0
    1.3104    2.4461   -0.3327 O   0  0  0  0  0  0  0  0  0  0  0  0
    2.1290   -0.2475   -2.0224 C   0  0  0  0  0  0  0  0  0  0  0  0
    2.2385   -1.7670   -2.0299 C   0  0  0  0  0  0  0  0  0  0  0  0
    1.1019   -2.2368   -1.1317 C   0  0  0  0  0  0  0  0  0  0  0  0
    2.4866    0.2518    0.0495 H   0  0  0  0  0  0  0  0  0  0  0  0
    3.0884    0.2342   -2.2382 H   0  0  0  0  0  0  0  0  0  0  0  0
    1.4049    0.0745   -2.7788 H   0  0  0  0  0  0  0  0  0  0  0  0
    2.1622   -2.1818   -3.0400 H   0  0  0  0  0  0  0  0  0  0  0  0
    3.1990   -2.0713   -1.6006 H   0  0  0  0  0  0  0  0  0  0  0  0
    0.1876   -2.3921   -1.7138 H   0  0  0  0  0  0  0  0  0  0  0  0
    1.3760   -3.1763   -0.6413 H   0  0  0  0  0  0  0  0  0  0  0  0
   -0.4991    1.3467   -1.1385 N   0  0  0  0  0  0  0  0  0  0  0  0
   -1.4708    2.4579   -1.1885 C   0  0  2  0  0  0  0  0  0  0  0  0
   -1.1339    3.5842   -2.1939 C   0  0  0  0  0  0  0  0  0  0  0  0
   -2.0021    3.9865   -2.9578 O   0  0  0  0  0  0  0  0  0  0  0  0
   -1.7149    3.0310    0.2143 C   0  0  0  0  0  0  0  0  0  0  0  0
   -0.8456    0.4177   -1.3561 H   0  0  0  0  0  0  0  0  0  0  0  0
   -2.4202    2.0299   -1.5261 H   0  0  0  0  0  0  0  0  0  0  0  0
   -0.8371    3.5720    0.5800 H   0  0  0  0  0  0  0  0  0  0  0  0
   -2.5595    3.7268    0.1931 H   0  0  0  0  0  0  0  0  0  0  0  0
   -1.9458    2.2267    0.9195 H   0  0  0  0  0  0  0  0  0  0  0  0
    0.1214    4.1559   -2.2414 N   0  0  0  0  0  0  0  0  0  0  0  0
    0.4826    5.2703   -3.1059 C   0  0  0  0  0  0  0  0  0  0  0  0
    0.7971    3.8115   -1.5538 H   0  0  0  0  0  0  0  0  0  0  0  0
   -0.1038    6.1584   -2.8490 H   0  0  0  0  0  0  0  0  0  0  0  0
    1.5441    5.5084   -2.9882 H   0  0  0  0  0  0  0  0  0  0  0  0
    0.2999    5.0174   -4.1553 H   0  0  0  0  0  0  0  0  0  0  0  0
  1  2  2  0  0  0  0
  1  3  1  0  0  0  0
  1  7  1  0  0  0  0
  3  4  1  0  0  0  0
  3  5  1  0  0  0  0
  3  6  1  0  0  0  0
  7  8  1  0  0  0  0
  7 12  1  0  0  0  0
  8  9  1  0  0  0  0
  8 11  1  0  0  0  0
  8 13  1  0  0  0  0
  9 10  2  0  0  0  0
  9 17  1  0  0  0  0
 11 14  1  0  0  0  0
 11 15  1  0  0  0  0
 11 16  1  0  0  0  0
 17 18  1  0  0  0  0
 17 23  1  0  0  0  0
 18 19  1  0  0  0  0
 18 21  1  0  0  0  0
 18 24  1  0  0  0  0
 19 20  2  0  0  0  0
 19 31  1  0  0  0  0
 21 22  1  0  0  0  0
 21 25  1  0  0  0  0
 21 26  1  0  0  0  0
 22 23  1  0  0  0  0
 22 27  1  0  0  0  0
 22 28  1  0  0  0  0
 23 29  1  0  0  0  0
 23 30  1  0  0  0  0
 31 32  1  0  0  0  0
 31 36  1  0  0  0  0
 32 33  1  0  0  0  0
 32 35  1  0  0  0  0
 32 37  1  0  0  0  0
 33 34  2  0  0  0  0
 33 41  1  0  0  0  0
 35 38  1  0  0  0  0
 35 39  1  0  0  0  0
 35 40  1  0  0  0  0
 41 42  1  0  0  0  0
 41 43  1  0  0  0  0
 42 44  1  0  0  0  0
 42 45  1  0  0  0  0
 42 46  1  0  0  0  0
M  END
$$$$

  -OEChem-02062319123D

 46 46  0     1  0  0  0  0  0999 V2000
   -0.7039   -3.7300    3.7027 C   0  0  0  0  0  0  0  0  0  0  0  0
   -0.6290   -4.8214    3.1604 O   0  0  0  0  0  0  0  0  0  0  0  0
   -0.7822   -3.6331    5.2148 C   0  0  0  0  0  0  0  0  0  0  0  0
   -1.7395   -3.1979    5.5113 H   0  0  0  0  0  0  0  0  0  0  0  0
   -0.6930   -4.6273    5.6617 H   0  0  0  0  0  0  0  0  0  0  0  0
    0.0283   -3.0045    5.5918 H   0  0  0  0  0  0  0  0  0  0  0  0
   -0.7054   -2.5809    2.9405 N   0  0  0  0  0  0  0  0  0  0  0  0
   -0.4614   -2.5467    1.4915 C   0  0  2  0  0  0  0  0  0  0  0  0
    0.2864   -1.2563    1.0685 C   0  0  0  0  0  0  0  0  0  0  0  0
    0.3276   -0.3245    1.8662 O   0  0  0  0  0  0  0  0  0  0  0  0
   -1.8180   -2.6491    0.7867 C   0  0  0  0  0  0  0  0  0  0  0  0
   -0.6410   -1.6921    3.4365 H   0  0  0  0  0  0  0  0  0  0  0  0
    0.1597   -3.4034    1.2145 H   0  0  0  0  0  0  0  0  0  0  0  0
   -2.4541   -1.8005    1.0579 H   0  0  0  0  0  0  0  0  0  0  0  0
   -1.6932   -2.6583   -0.2993 H   0  0  0  0  0  0  0  0  0  0  0  0
   -2.3265   -3.5731    1.0805 H   0  0  0  0  0  0  0  0  0  0  0  0
    0.9689   -1.1224   -0.1443 N   0  0  0  0  0  0  0  0  0  0  0  0
    1.9290   -0.0321   -0.3945 C   0  0  2  0  0  0  0  0  0  0  0  0
    1.3708    1.4014   -0.2989 C   0  0  0  0  0  0  0  0  0  0  0  0
    2.0952    2.3007    0.1083 O   0  0  0  0  0  0  0  0  0  0  0  0
    2.4564   -0.3370   -1.7981 C   0  0  0  0  0  0  0  0  0  0  0  0
    2.3181   -1.8473   -1.9263 C   0  0  0  0  0  0  0  0  0  0  0  0
    1.0531   -2.1808   -1.1460 C   0  0  0  0  0  0  0  0  0  0  0  0
    2.7475   -0.1160    0.3288 H   0  0  0  0  0  0  0  0  0  0  0  0
    3.4931   -0.0067   -1.9223 H   0  0  0  0  0  0  0  0  0  0  0  0
    1.8426    0.1570   -2.5593 H   0  0  0  0  0  0  0  0  0  0  0  0
    2.2538   -2.1690   -2.9706 H   0  0  0  0  0  0  0  0  0  0  0  0
    3.1800   -2.3392   -1.4632 H   0  0  0  0  0  0  0  0  0  0  0  0
    0.1774   -2.1517   -1.8029 H   0  0  0  0  0  0  0  0  0  0  0  0
    1.1377   -3.1819   -0.7124 H   0  0  0  0  0  0  0  0  0  0  0  0
    0.1570    1.6979   -0.8984 N   0  0  0  0  0  0  0  0  0  0  0  0
   -0.5454    2.9971   -0.8943 C   0  0  2  0  0  0  0  0  0  0  0  0
    0.1037    4.1023   -1.7604 C   0  0  0  0  0  0  0  0  0  0  0  0
   -0.5934    4.7432   -2.5366 O   0  0  0  0  0  0  0  0  0  0  0  0
   -0.7713    3.4898    0.5414 C   0  0  0  0  0  0  0  0  0  0  0  0
   -0.3700    0.8871   -1.2078 H   0  0  0  0  0  0  0  0  0  0  0  0
   -1.5346    2.8206   -1.3286 H   0  0  0  0  0  0  0  0  0  0  0  0
    0.1710    3.7837    1.0128 H   0  0  0  0  0  0  0  0  0  0  0  0
   -1.4364    4.3589    0.5389 H   0  0  0  0  0  0  0  0  0  0  0  0
   -1.2314    2.7026    1.1462 H   0  0  0  0  0  0  0  0  0  0  0  0
    1.4491    4.3963   -1.6674 N   0  0  0  0  0  0  0  0  0  0  0  0
    2.1045    5.4712   -2.3987 C   0  0  0  0  0  0  0  0  0  0  0  0
    1.9814    3.8540   -0.9813 H   0  0  0  0  0  0  0  0  0  0  0  0
    3.1711    5.4961   -2.1557 H   0  0  0  0  0  0  0  0  0  0  0  0
    1.9985    5.3206   -3.4779 H   0  0  0  0  0  0  0  0  0  0  0  0
    1.6657    6.4383   -2.1324 H   0  0  0  0  0  0  0  0  0  0  0  0
  1  2  2  0  0  0  0
  1  3  1  0  0  0  0
  1  7  1  0  0  0  0
  3  4  1  0  0  0  0
  3  5  1  0  0  0  0
  3  6  1  0  0  0  0
  7  8  1  0  0  0  0
  7 12  1  0  0  0  0
  8  9  1  0  0  0  0
  8 11  1  0  0  0  0
  8 13  1  0  0  0  0
  9 10  2  0  0  0  0
  9 17  1  0  0  0  0
 11 14  1  0  0  0  0
 11 15  1  0  0  0  0
 11 16  1  0  0  0  0
 17 18  1  0  0  0  0
 17 23  1  0  0  0  0
 18 19  1  0  0  0  0
 18 21  1  0  0  0  0
 18 24  1  0  0  0  0
 19 20  2  0  0  0  0
 19 31  1  0  0  0  0
 21 22  1  0  0  0  0
 21 25  1  0  0  0  0
 21 26  1  0  0  0  0
 22 23  1  0  0  0  0
 22 27  1  0  0  0  0
 22 28  1  0  0  0  0
 23 29  1  0  0  0  0
 23 30  1  0  0  0  0
 31 32  1  0  0  0  0
 31 36  1  0  0  0  0
 32 33  1  0  0  0  0
 32 35  1  0  0  0  0
 32 37  1  0  0  0  0
 33 34  2  0  0  0  0
 33 41  1  0  0  0  0
 35 38  1  0  0  0  0
 35 39  1  0  0  0  0
 35 40  1  0  0  0  0
 41 42  1  0  0  0  0
 41 43  1  0  0  0  0
 42 44  1  0  0  0  0
 42 45  1  0  0  0  0
 42 46  1  0  0  0  0
M  END
$$$$

  -OEChem-02062319123D

 46 46  0     1  0  0  0  0  0999 V2000
   -0.8665   -3.7048    3.6376 C   0  0  0  0  0  0  0  0  0  0  0  0
   -0.8516   -4.7883    3.0747 O   0  0  0  0  0  0  0  0  0  0  0  0
   -0.9437   -3.6319    5.1509 C   0  0  0  0  0  0  0  0  0  0  0  0
   -1.8550   -3.1102    5.4533 H   0  0  0  0  0  0  0  0  0  0  0  0
   -0.9562   -4.6392    5.5766 H   0  0  0  0  0  0  0  0  0  0  0  0
   -0.0770   -3.0945    5.5441 H   0  0  0  0  0  0  0  0  0  0  0  0
   -0.7992   -2.5438    2.8970 N   0  0  0  0  0  0  0  0  0  0  0  0
   -0.5488   -2.4995    1.4497 C   0  0  2  0  0  0  0  0  0  0  0  0
    0.2305   -1.2230    1.0406 C   0  0  0  0  0  0  0  0  0  0  0  0
    0.3253   -0.3203    1.8668 O   0  0  0  0  0  0  0  0  0  0  0  0
   -1.9042   -2.5631    0.7365 C   0  0  0  0  0  0  0  0  0  0  0  0
   -0.6836   -1.6690    3.4084 H   0  0  0  0  0  0  0  0  0  0  0  0
    0.0551   -3.3674    1.1689 H   0  0  0  0  0  0  0  0  0  0  0  0
   -2.5223   -1.7033    1.0143 H   0  0  0  0  0  0  0  0  0  0  0  0
   -1.7743   -2.5626   -0.3490 H   0  0  0  0  0  0  0  0  0  0  0  0
   -2.4358   -3.4781    1.0168 H   0  0  0  0  0  0  0  0  0  0  0  0
    0.9828   -1.1241   -0.1340 N   0  0  0  0  0  0  0  0  0  0  0  0
    2.1733   -0.2595   -0.2350 C   0  0  2  0  0  0  0  0  0  0  0  0
    1.9541    1.2469    0.0061 C   0  0  0  0  0  0  0  0  0  0  0  0
    2.8475    1.9040    0.5255 O   0  0  0  0  0  0  0  0  0  0  0  0
    2.6932   -0.5347   -1.6459 C   0  0  0  0  0  0  0  0  0  0  0  0
    2.2743   -1.9725   -1.9140 C   0  0  0  0  0  0  0  0  0  0  0  0
    0.9321   -2.1145   -1.2069 C   0  0  0  0  0  0  0  0  0  0  0  0
    2.9126   -0.6019    0.4976 H   0  0  0  0  0  0  0  0  0  0  0  0
    3.7779   -0.4016   -1.7129 H   0  0  0  0  0  0  0  0  0  0  0  0
    2.2165    0.1332   -2.3719 H   0  0  0  0  0  0  0  0  0  0  0  0
    2.1998   -2.1879   -2.9847 H   0  0  0  0  0  0  0  0  0  0  0  0
    3.0020   -2.6602   -1.4700 H   0  0  0  0  0  0  0  0  0  0  0  0
    0.1113   -1.8820   -1.8936 H   0  0  0  0  0  0  0  0  0  0  0  0
    0.8102   -3.1408   -0.8481 H   0  0  0  0  0  0  0  0  0  0  0  0
    0.8723    1.8791   -0.5858 N   0  0  0  0  0  0  0  0  0  0  0  0
    0.4852    3.2971   -0.4432 C   0  0  2  0  0  0  0  0  0  0  0  0
    1.4069    4.3053   -1.1682 C   0  0  0  0  0  0  0  0  0  0  0  0
    0.9150    5.1427   -1.9138 O   0  0  0  0  0  0  0  0  0  0  0  0
    0.3214    3.6717    1.0366 C   0  0  0  0  0  0  0  0  0  0  0  0
    0.1785    1.2473   -0.9741 H   0  0  0  0  0  0  0  0  0  0  0  0
   -0.5003    3.4024   -0.9082 H   0  0  0  0  0  0  0  0  0  0  0  0
    1.2883    3.7004    1.5477 H   0  0  0  0  0  0  0  0  0  0  0  0
   -0.1396    4.6605    1.1245 H   0  0  0  0  0  0  0  0  0  0  0  0
   -0.3183    2.9437    1.5453 H   0  0  0  0  0  0  0  0  0  0  0  0
    2.7747    4.2895   -0.9845 N   0  0  0  0  0  0  0  0  0  0  0  0
    3.6974    5.2261   -1.6091 C   0  0  0  0  0  0  0  0  0  0  0  0
    3.1353    3.5686   -0.3534 H   0  0  0  0  0  0  0  0  0  0  0  0
    4.7230    5.0109   -1.2937 H   0  0  0  0  0  0  0  0  0  0  0  0
    3.6451    5.1448   -2.6997 H   0  0  0  0  0  0  0  0  0  0  0  0
    3.4548    6.2537   -1.3189 H   0  0  0  0  0  0  0  0  0  0  0  0
  1  2  2  0  0  0  0
  1  3  1  0  0  0  0
  1  7  1  0  0  0  0
  3  4  1  0  0  0  0
  3  5  1  0  0  0  0
  3  6  1  0  0  0  0
  7  8  1  0  0  0  0
  7 12  1  0  0  0  0
  8  9  1  0  0  0  0
  8 11  1  0  0  0  0
  8 13  1  0  0  0  0
  9 10  2  0  0  0  0
  9 17  1  0  0  0  0
 11 14  1  0  0  0  0
 11 15  1  0  0  0  0
 11 16  1  0  0  0  0
 17 18  1  0  0  0  0
 17 23  1  0  0  0  0
 18 19  1  0  0  0  0
 18 21  1  0  0  0  0
 18 24  1  0  0  0  0
 19 20  2  0  0  0  0
 19 31  1  0  0  0  0
 21 22  1  0  0  0  0
 21 25  1  0  0  0  0
 21 26  1  0  0  0  0
 22 23  1  0  0  0  0
 22 27  1  0  0  0  0
 22 28  1  0  0  0  0
 23 29  1  0  0  0  0
 23 30  1  0  0  0  0
 31 32  1  0  0  0  0
 31 36  1  0  0  0  0
 32 33  1  0  0  0  0
 32 35  1  0  0  0  0
 32 37  1  0  0  0  0
 33 34  2  0  0  0  0
 33 41  1  0  0  0  0
 35 38  1  0  0  0  0
 35 39  1  0  0  0  0
 35 40  1  0  0  0  0
 41 42  1  0  0  0  0
 41 43  1  0  0  0  0
 42 44  1  0  0  0  0
 42 45  1  0  0  0  0
 42 46  1  0  0  0  0
M  END
$$$$

  -OEChem-02062319123D

 46 46  0     1  0  0  0  0  0999 V2000
   -1.0030   -3.6218    3.5814 C   0  0  0  0  0  0  0  0  0  0  0  0
   -1.0173   -4.7031    3.0144 O   0  0  0  0  0  0  0  0  0  0  0  0
   -1.0763   -3.5529    5.0952 C   0  0  0  0  0  0  0  0  0  0  0  0
   -1.9780   -3.0173    5.4018 H   0  0  0  0  0  0  0  0  0  0  0  0
   -1.1046   -4.5612    5.5179 H   0  0  0  0  0  0  0  0  0  0  0  0
   -0.2000   -3.0314    5.4880 H   0  0  0  0  0  0  0  0  0  0  0  0
   -0.9066   -2.4597    2.8456 N   0  0  0  0  0  0  0  0  0  0  0  0
   -0.6490   -2.4160    1.3993 C   0  0  2  0  0  0  0  0  0  0  0  0
    0.1749   -1.1661    0.9968 C   0  0  0  0  0  0  0  0  0  0  0  0
    0.2984   -0.2735    1.8299 O   0  0  0  0  0  0  0  0  0  0  0  0
   -2.0023   -2.4291    0.6799 C   0  0  0  0  0  0  0  0  0  0  0  0
   -0.7654   -1.5915    3.3616 H   0  0  0  0  0  0  0  0  0  0  0  0
   -0.0731   -3.3019    1.1147 H   0  0  0  0  0  0  0  0  0  0  0  0
   -2.5949   -1.5540    0.9651 H   0  0  0  0  0  0  0  0  0  0  0  0
   -1.8676   -2.4195   -0.4051 H   0  0  0  0  0  0  0  0  0  0  0  0
   -2.5628   -3.3306    0.9468 H   0  0  0  0  0  0  0  0  0  0  0  0
    1.0110   -1.1374   -0.1232 N   0  0  0  0  0  0  0  0  0  0  0  0
    2.3689   -0.5640   -0.0711 C   0  0  2  0  0  0  0  0  0  0  0  0
    2.4808    0.9237    0.3158 C   0  0  0  0  0  0  0  0  0  0  0  0
    3.4606    1.3061    0.9434 O   0  0  0  0  0  0  0  0  0  0  0  0
    2.9211   -0.8322   -1.4700 C   0  0  0  0  0  0  0  0  0  0  0  0
    2.2350   -2.1249   -1.8861 C   0  0  0  0  0  0  0  0  0  0  0  0
    0.8471   -2.0390   -1.2617 C   0  0  0  0  0  0  0  0  0  0  0  0
    2.9535   -1.1314    0.6612 H   0  0  0  0  0  0  0  0  0  0  0  0
    4.0119   -0.9270   -1.4657 H   0  0  0  0  0  0  0  0  0  0  0  0
    2.6455   -0.0245   -2.1568 H   0  0  0  0  0  0  0  0  0  0  0  0
    2.1895   -2.2351   -2.9742 H   0  0  0  0  0  0  0  0  0  0  0  0
    2.7760   -2.9823   -1.4717 H   0  0  0  0  0  0  0  0  0  0  0  0
    0.1330   -1.6115   -1.9735 H   0  0  0  0  0  0  0  0  0  0  0  0
    0.5046   -3.0395   -0.9823 H   0  0  0  0  0  0  0  0  0  0  0  0
    1.6150    1.8372   -0.2626 N   0  0  0  0  0  0  0  0  0  0  0  0
    1.5305    3.2832    0.0235 C   0  0  2  0  0  0  0  0  0  0  0  0
    2.6991    4.1342   -0.5261 C   0  0  0  0  0  0  0  0  0  0  0  0
    2.4544    5.1537   -1.1586 O   0  0  0  0  0  0  0  0  0  0  0  0
    1.3282    3.5309    1.5248 C   0  0  0  0  0  0  0  0  0  0  0  0
    0.8125    1.4128   -0.7182 H   0  0  0  0  0  0  0  0  0  0  0  0
    0.6311    3.6490   -0.4824 H   0  0  0  0  0  0  0  0  0  0  0  0
    2.2329    3.2930    2.0918 H   0  0  0  0  0  0  0  0  0  0  0  0
    1.0820    4.5825    1.7010 H   0  0  0  0  0  0  0  0  0  0  0  0
    0.5078    2.9138    1.9043 H   0  0  0  0  0  0  0  0  0  0  0  0
    4.0150    3.7769   -0.3125 N   0  0  0  0  0  0  0  0  0  0  0  0
    5.1583    4.5516   -0.7732 C   0  0  0  0  0  0  0  0  0  0  0  0
    4.1670    2.9262    0.2363 H   0  0  0  0  0  0  0  0  0  0  0  0
    6.0901    4.0569   -0.4831 H   0  0  0  0  0  0  0  0  0  0  0  0
    5.1418    4.6464   -1.8639 H   0  0  0  0  0  0  0  0  0  0  0  0
    5.1450    5.5534   -0.3312 H   0  0  0  0  0  0  0  0  0  0  0  0
  1  2  2  0  0  0  0
  1  3  1  0  0  0  0
  1  7  1  0  0  0  0
  3  4  1  0  0  0  0
  3  5  1  0  0  0  0
  3  6  1  0  0  0  0
  7  8  1  0  0  0  0
  7 12  1  0  0  0  0
  8  9  1  0  0  0  0
  8 11  1  0  0  0  0
  8 13  1  0  0  0  0
  9 10  2  0  0  0  0
  9 17  1  0  0  0  0
 11 14  1  0  0  0  0
 11 15  1  0  0  0  0
 11 16  1  0  0  0  0
 17 18  1  0  0  0  0
 17 23  1  0  0  0  0
 18 19  1  0  0  0  0
 18 21  1  0  0  0  0
 18 24  1  0  0  0  0
 19 20  2  0  0  0  0
 19 31  1  0  0  0  0
 21 22  1  0  0  0  0
 21 25  1  0  0  0  0
 21 26  1  0  0  0  0
 22 23  1  0  0  0  0
 22 27  1  0  0  0  0
 22 28  1  0  0  0  0
 23 29  1  0  0  0  0
 23 30  1  0  0  0  0
 31 32  1  0  0  0  0
 31 36  1  0  0  0  0
 32 33  1  0  0  0  0
 32 35  1  0  0  0  0
 32 37  1  0  0  0  0
 33 34  2  0  0  0  0
 33 41  1  0  0  0  0
 35 38  1  0  0  0  0
 35 39  1  0  0  0  0
 35 40  1  0  0  0  0
 41 42  1  0  0  0  0
 41 43  1  0  0  0  0
 42 44  1  0  0  0  0
 42 45  1  0  0  0  0
 42 46  1  0  0  0  0
M  END
$$$$

  -OEChem-02062319123D

 46 46  0     1  0  0  0  0  0999 V2000
   -1.0614   -3.5050    3.5323 C   0  0  0  0  0  0  0  0  0  0  0  0
   -1.0920   -4.5895    2.9721 O   0  0  0  0  0  0  0  0  0  0  0  0
   -1.1138   -3.4257    5.0464 C   0  0  0  0  0  0  0  0  0  0  0  0
   -2.0161   -2.8957    5.3609 H   0  0  0  0  0  0  0  0  0  0  0  0
   -1.1272   -4.4311    5.4766 H   0  0  0  0  0  0  0  0  0  0  0  0
   -0.2371   -2.8934    5.4237 H   0  0  0  0  0  0  0  0  0  0  0  0
   -0.9729   -2.3474    2.7887 N   0  0  0  0  0  0  0  0  0  0  0  0
   -0.7469   -2.3117    1.3371 C   0  0  2  0  0  0  0  0  0  0  0  0
    0.1210   -1.0991    0.9167 C   0  0  0  0  0  0  0  0  0  0  0  0
    0.2696   -0.1959    1.7341 O   0  0  0  0  0  0  0  0  0  0  0  0
   -2.1154   -2.2612    0.6497 C   0  0  0  0  0  0  0  0  0  0  0  0
   -0.8165   -1.4778    3.2977 H   0  0  0  0  0  0  0  0  0  0  0  0
   -0.2183   -3.2209    1.0334 H   0  0  0  0  0  0  0  0  0  0  0  0
   -2.6610   -1.3620    0.9530 H   0  0  0  0  0  0  0  0  0  0  0  0
   -2.0054   -2.2509   -0.4382 H   0  0  0  0  0  0  0  0  0  0  0  0
   -2.7089   -3.1385    0.9263 H   0  0  0  0  0  0  0  0  0  0  0  0
    1.0175   -1.1594   -0.1517 N   0  0  0  0  0  0  0  0  0  0  0  0
    2.4579   -0.9148    0.0417 C   0  0  2  0  0  0  0  0  0  0  0  0
    2.8721    0.4640    0.5935 C   0  0  0  0  0  0  0  0  0  0  0  0
    3.8560    0.5401    1.3188 O   0  0  0  0  0  0  0  0  0  0  0  0
    3.0416   -1.1784   -1.3437 C   0  0  0  0  0  0  0  0  0  0  0  0
    2.1545   -2.2841   -1.8971 C   0  0  0  0  0  0  0  0  0  0  0  0
    0.7696   -1.9829   -1.3340 C   0  0  0  0  0  0  0  0  0  0  0  0
    2.8429   -1.6651    0.7413 H   0  0  0  0  0  0  0  0  0  0  0  0
    4.0934   -1.4788   -1.2936 H   0  0  0  0  0  0  0  0  0  0  0  0
    2.9644   -0.2843   -1.9720 H   0  0  0  0  0  0  0  0  0  0  0  0
    2.1566   -2.3041   -2.9916 H   0  0  0  0  0  0  0  0  0  0  0  0
    2.5005   -3.2566   -1.5308 H   0  0  0  0  0  0  0  0  0  0  0  0
    0.1766   -1.4179   -2.0611 H   0  0  0  0  0  0  0  0  0  0  0  0
    0.2484   -2.9190   -1.1131 H   0  0  0  0  0  0  0  0  0  0  0  0
    2.2890    1.6089    0.0754 N   0  0  0  0  0  0  0  0  0  0  0  0
    2.5214    2.9996    0.5164 C   0  0  2  0  0  0  0  0  0  0  0  0
    3.8970    3.5969    0.1365 C   0  0  0  0  0  0  0  0  0  0  0  0
    3.9540    4.7307   -0.3225 O   0  0  0  0  0  0  0  0  0  0  0  0
    2.2602    3.1435    2.0220 C   0  0  0  0  0  0  0  0  0  0  0  0
    1.4356    1.4322   -0.4473 H   0  0  0  0  0  0  0  0  0  0  0  0
    1.7772    3.6177    0.0040 H   0  0  0  0  0  0  0  0  0  0  0  0
    3.0328    2.6372    2.6079 H   0  0  0  0  0  0  0  0  0  0  0  0
    2.2578    4.2014    2.3025 H   0  0  0  0  0  0  0  0  0  0  0  0
    1.2881    2.7130    2.2820 H   0  0  0  0  0  0  0  0  0  0  0  0
    5.0675    2.8898    0.3250 N   0  0  0  0  0  0  0  0  0  0  0  0
    6.3974    3.4309    0.0841 C   0  0  0  0  0  0  0  0  0  0  0  0
    4.9696    1.9795    0.7821 H   0  0  0  0  0  0  0  0  0  0  0  0
    7.1533    2.6562    0.2443 H   0  0  0  0  0  0  0  0  0  0  0  0
    6.4846    3.7898   -0.9467 H   0  0  0  0  0  0  0  0  0  0  0  0
    6.6011    4.2622    0.7669 H   0  0  0  0  0  0  0  0  0  0  0  0
  1  2  2  0  0  0  0
  1  3  1  0  0  0  0
  1  7  1  0  0  0  0
  3  4  1  0  0  0  0
  3  5  1  0  0  0  0
  3  6  1  0  0  0  0
  7  8  1  0  0  0  0
  7 12  1  0  0  0  0
  8  9  1  0  0  0  0
  8 11  1  0  0  0  0
  8 13  1  0  0  0  0
  9 10  2  0  0  0  0
  9 17  1  0  0  0  0
 11 14  1  0  0  0  0
 11 15  1  0  0  0  0
 11 16  1  0  0  0  0
 17 18  1  0  0  0  0
 17 23  1  0  0  0  0
 18 19  1  0  0  0  0
 18 21  1  0  0  0  0
 18 24  1  0  0  0  0
 19 20  2  0  0  0  0
 19 31  1  0  0  0  0
 21 22  1  0  0  0  0
 21 25  1  0  0  0  0
 21 26  1  0  0  0  0
 22 23  1  0  0  0  0
 22 27  1  0  0  0  0
 22 28  1  0  0  0  0
 23 29  1  0  0  0  0
 23 30  1  0  0  0  0
 31 32  1  0  0  0  0
 31 36  1  0  0  0  0
 32 33  1  0  0  0  0
 32 35  1  0  0  0  0
 32 37  1  0  0  0  0
 33 34  2  0  0  0  0
 33 41  1  0  0  0  0
 35 38  1  0  0  0  0
 35 39  1  0  0  0  0
 35 40  1  0  0  0  0
 41 42  1  0  0  0  0
 41 43  1  0  0  0  0
 42 44  1  0  0  0  0
 42 45  1  0  0  0  0
 42 46  1  0  0  0  0
M  END
$$$$

  -OEChem-02062319123D

 46 46  0     1  0  0  0  0  0999 V2000
   -0.1868   -3.4716    2.4661 C   0  0  0  0  0  0  0  0  0  0  0  0
    0.1109   -4.1010    1.4628 O   0  0  0  0  0  0  0  0  0  0  0  0
    0.3281   -3.9139    3.8226 C   0  0  0  0  0  0  0  0  0  0  0  0
   -0.5095   -4.1926    4.4666 H   0  0  0  0  0  0  0  0  0  0  0  0
    0.9902   -4.7774    3.7125 H   0  0  0  0  0  0  0  0  0  0  0  0
    0.8868   -3.1010    4.2936 H   0  0  0  0  0  0  0  0  0  0  0  0
   -0.9497   -2.3267    2.3622 N   0  0  0  0  0  0  0  0  0  0  0  0
   -1.3150   -1.7119    1.0782 C   0  0  2  0  0  0  0  0  0  0  0  0
   -0.1924   -0.7734    0.5606 C   0  0  0  0  0  0  0  0  0  0  0  0
   -0.0571    0.3054    1.1274 O   0  0  0  0  0  0  0  0  0  0  0  0
   -2.6345   -0.9597    1.2896 C   0  0  0  0  0  0  0  0  0  0  0  0
   -1.0230   -1.7525    3.1983 H   0  0  0  0  0  0  0  0  0  0  0  0
   -1.5098   -2.4881    0.3350 H   0  0  0  0  0  0  0  0  0  0  0  0
   -2.5245   -0.1860    2.0566 H   0  0  0  0  0  0  0  0  0  0  0  0
   -2.9513   -0.4804    0.3582 H   0  0  0  0  0  0  0  0  0  0  0  0
   -3.4193   -1.6535    1.6064 H   0  0  0  0  0  0  0  0  0  0  0  0
    0.9082   -1.2422   -0.1577 N   0  0  0  0  0  0  0  0  0  0  0  0
    2.2305   -1.3410    0.4839 C   0  0  2  0  0  0  0  0  0  0  0  0
    2.8525   -0.0426    1.0323 C   0  0  0  0  0  0  0  0  0  0  0  0
    3.5375   -0.0962    2.0472 O   0  0  0  0  0  0  0  0  0  0  0  0
    3.0907   -1.9810   -0.5999 C   0  0  0  0  0  0  0  0  0  0  0  0
    2.1266   -2.9355   -1.2872 C   0  0  0  0  0  0  0  0  0  0  0  0
    0.7771   -2.2256   -1.2328 C   0  0  0  0  0  0  0  0  0  0  0  0
    2.1513   -2.0357    1.3266 H   0  0  0  0  0  0  0  0  0  0  0  0
    3.9577   -2.5014   -0.1805 H   0  0  0  0  0  0  0  0  0  0  0  0
    3.4451   -1.2258   -1.3097 H   0  0  0  0  0  0  0  0  0  0  0  0
    2.4322   -3.1610   -2.3137 H   0  0  0  0  0  0  0  0  0  0  0  0
    2.0706   -3.8748   -0.7262 H   0  0  0  0  0  0  0  0  0  0  0  0
    0.5769   -1.7130   -2.1795 H   0  0  0  0  0  0  0  0  0  0  0  0
   -0.0141   -2.9604   -1.0638 H   0  0  0  0  0  0  0  0  0  0  0  0
    2.8171    1.1083    0.2630 N   0  0  0  0  0  0  0  0  0  0  0  0
    3.2939    2.4506    0.6545 C   0  0  2  0  0  0  0  0  0  0  0  0
    4.8300    2.6160    0.7299 C   0  0  0  0  0  0  0  0  0  0  0  0
    5.3511    3.6186    0.2575 O   0  0  0  0  0  0  0  0  0  0  0  0
    2.6306    2.9044    1.9622 C   0  0  0  0  0  0  0  0  0  0  0  0
    2.1270    1.0706   -0.4832 H   0  0  0  0  0  0  0  0  0  0  0  0
    2.9595    3.1391   -0.1283 H   0  0  0  0  0  0  0  0  0  0  0  0
    2.9973    2.3250    2.8143 H   0  0  0  0  0  0  0  0  0  0  0  0
    2.8509    3.9600    2.1479 H   0  0  0  0  0  0  0  0  0  0  0  0
    1.5448    2.7822    1.9000 H   0  0  0  0  0  0  0  0  0  0  0  0
    5.6300    1.6712    1.3408 N   0  0  0  0  0  0  0  0  0  0  0  0
    7.0680    1.8115    1.5203 C   0  0  0  0  0  0  0  0  0  0  0  0
    5.1392    0.8933    1.7890 H   0  0  0  0  0  0  0  0  0  0  0  0
    7.4760    0.9193    2.0046 H   0  0  0  0  0  0  0  0  0  0  0  0
    7.5651    1.9370    0.5528 H   0  0  0  0  0  0  0  0  0  0  0  0
    7.2917    2.6804    2.1475 H   0  0  0  0  0  0  0  0  0  0  0  0
  1  2  2  0  0  0  0
  1  3  1  0  0  0  0
  1  7  1  0  0  0  0
  3  4  1  0  0  0  0
  3  5  1  0  0  0  0
  3  6  1  0  0  0  0
  7  8  1  0  0  0  0
  7 12  1  0  0  0  0
  8  9  1  0  0  0  0
  8 11  1  0  0  0  0
  8 13  1  0  0  0  0
  9 10  2  0  0  0  0
  9 17  1  0  0  0  0
 11 14  1  0  0  0  0
 11 15  1  0  0  0  0
 11 16  1  0  0  0  0
 17 18  1  0  0  0  0
 17 23  1  0  0  0  0
 18 19  1  0  0  0  0
 18 21  1  0  0  0  0
 18 24  1  0  0  0  0
 19 20  2  0  0  0  0
 19 31  1  0  0  0  0
 21 22  1  0  0  0  0
 21 25  1  0  0  0  0
 21 26  1  0  0  0  0
 22 23  1  0  0  0  0
 22 27  1  0  0  0  0
 22 28  1  0  0  0  0
 23 29  1  0  0  0  0
 23 30  1  0  0  0  0
 31 32  1  0  0  0  0
 31 36  1  0  0  0  0
 32 33  1  0  0  0  0
 32 35  1  0  0  0  0
 32 37  1  0  0  0  0
 33 34  2  0  0  0  0
 33 41  1  0  0  0  0
 35 38  1  0  0  0  0
 35 39  1  0  0  0  0
 35 40  1  0  0  0  0
 41 42  1  0  0  0  0
 41 43  1  0  0  0  0
 42 44  1  0  0  0  0
 42 45  1  0  0  0  0
 42 46  1  0  0  0  0
M  END
$$$$

  -OEChem-02062319123D

 46 46  0     1  0  0  0  0  0999 V2000
   -0.0739   -2.9704    3.4832 C   0  0  0  0  0  0  0  0  0  0  0  0
    0.6191   -3.7977    2.9131 O   0  0  0  0  0  0  0  0  0  0  0  0
    0.0818   -2.7388    4.9740 C   0  0  0  0  0  0  0  0  0  0  0  0
   -0.8666   -2.9284    5.4824 H   0  0  0  0  0  0  0  0  0  0  0  0
    0.8415   -3.4112    5.3824 H   0  0  0  0  0  0  0  0  0  0  0  0
    0.3894   -1.7070    5.1610 H   0  0  0  0  0  0  0  0  0  0  0  0
   -0.9782   -2.2191    2.7605 N   0  0  0  0  0  0  0  0  0  0  0  0
   -1.0351   -2.2357    1.2930 C   0  0  2  0  0  0  0  0  0  0  0  0
   -0.0347   -1.2285    0.6857 C   0  0  0  0  0  0  0  0  0  0  0  0
   -0.2953   -0.0293    0.7141 O   0  0  0  0  0  0  0  0  0  0  0  0
   -2.4788   -1.9404    0.8721 C   0  0  0  0  0  0  0  0  0  0  0  0
   -1.4203   -1.4433    3.2463 H   0  0  0  0  0  0  0  0  0  0  0  0
   -0.7796   -3.2322    0.9160 H   0  0  0  0  0  0  0  0  0  0  0  0
   -2.8006   -0.9628    1.2453 H   0  0  0  0  0  0  0  0  0  0  0  0
   -2.5623   -1.9390   -0.2190 H   0  0  0  0  0  0  0  0  0  0  0  0
   -3.1531   -2.7049    1.2704 H   0  0  0  0  0  0  0  0  0  0  0  0
    0.8938   -1.6585   -0.2517 N   0  0  0  0  0  0  0  0  0  0  0  0
    2.1886   -2.1363    0.2405 C   0  0  2  0  0  0  0  0  0  0  0  0
    2.9827   -1.0808    1.0436 C   0  0  0  0  0  0  0  0  0  0  0  0
    3.6309   -1.4351    2.0186 O   0  0  0  0  0  0  0  0  0  0  0  0
    2.9039   -2.4791   -1.0661 C   0  0  0  0  0  0  0  0  0  0  0  0
    2.3798   -1.4656   -2.0843 C   0  0  0  0  0  0  0  0  0  0  0  0
    0.9949   -1.0605   -1.5797 C   0  0  0  0  0  0  0  0  0  0  0  0
    2.0765   -3.0339    0.8583 H   0  0  0  0  0  0  0  0  0  0  0  0
    2.6277   -3.4922   -1.3768 H   0  0  0  0  0  0  0  0  0  0  0  0
    3.9942   -2.4369   -0.9670 H   0  0  0  0  0  0  0  0  0  0  0  0
    3.0368   -0.5906   -2.1209 H   0  0  0  0  0  0  0  0  0  0  0  0
    2.3308   -1.8983   -3.0886 H   0  0  0  0  0  0  0  0  0  0  0  0
    0.8990    0.0308   -1.5552 H   0  0  0  0  0  0  0  0  0  0  0  0
    0.2141   -1.4629   -2.2336 H   0  0  0  0  0  0  0  0  0  0  0  0
    3.0829    0.2211    0.5805 N   0  0  0  0  0  0  0  0  0  0  0  0
    3.7607    1.3559    1.2380 C   0  0  2  0  0  0  0  0  0  0  0  0
    5.3050    1.2735    1.2644 C   0  0  0  0  0  0  0  0  0  0  0  0
    5.9654    2.2326    0.8860 O   0  0  0  0  0  0  0  0  0  0  0  0
    3.1985    1.5886    2.6468 C   0  0  0  0  0  0  0  0  0  0  0  0
    2.4195    0.4501   -0.1554 H   0  0  0  0  0  0  0  0  0  0  0  0
    3.5190    2.2469    0.6494 H   0  0  0  0  0  0  0  0  0  0  0  0
    3.4886    0.7835    3.3282 H   0  0  0  0  0  0  0  0  0  0  0  0
    3.5812    2.5311    3.0508 H   0  0  0  0  0  0  0  0  0  0  0  0
    2.1058    1.6431    2.6154 H   0  0  0  0  0  0  0  0  0  0  0  0
    5.9591    0.1453    1.7169 N   0  0  0  0  0  0  0  0  0  0  0  0
    7.4071    0.0102    1.7821 C   0  0  0  0  0  0  0  0  0  0  0  0
    5.3644   -0.6285    2.0256 H   0  0  0  0  0  0  0  0  0  0  0  0
    7.6764   -0.9602    2.2098 H   0  0  0  0  0  0  0  0  0  0  0  0
    7.8427    0.0810    0.7800 H   0  0  0  0  0  0  0  0  0  0  0  0
    7.8377    0.7965    2.4108 H   0  0  0  0  0  0  0  0  0  0  0  0
  1  2  2  0  0  0  0
  1  3  1  0  0  0  0
  1  7  1  0  0  0  0
  3  4  1  0  0  0  0
  3  5  1  0  0  0  0
  3  6  1  0  0  0  0
  7  8  1  0  0  0  0
  7 12  1  0  0  0  0
  8  9  1  0  0  0  0
  8 11  1  0  0  0  0
  8 13  1  0  0  0  0
  9 10  2  0  0  0  0
  9 17  1  0  0  0  0
 11 14  1  0  0  0  0
 11 15  1  0  0  0  0
 11 16  1  0  0  0  0
 17 18  1  0  0  0  0
 17 23  1  0  0  0  0
 18 19  1  0  0  0  0
 18 21  1  0  0  0  0
 18 24  1  0  0  0  0
 19 20  2  0  0  0  0
 19 31  1  0  0  0  0
 21 22  1  0  0  0  0
 21 25  1  0  0  0  0
 21 26  1  0  0  0  0
 22 23  1  0  0  0  0
 22 27  1  0  0  0  0
 22 28  1  0  0  0  0
 23 29  1  0  0  0  0
 23 30  1  0  0  0  0
 31 32  1  0  0  0  0
 31 36  1  0  0  0  0
 32 33  1  0  0  0  0
 32 35  1  0  0  0  0
 32 37  1  0  0  0  0
 33 34  2  0  0  0  0
 33 41  1  0  0  0  0
 35 38  1  0  0  0  0
 35 39  1  0  0  0  0
 35 40  1  0  0  0  0
 41 42  1  0  0  0  0
 41 43  1  0  0  0  0
 42 44  1  0  0  0  0
 42 45  1  0  0  0  0
 42 46  1  0  0  0  0
M  END
$$$$

  -OEChem-02062319123D

 46 46  0     1  0  0  0  0  0999 V2000
   -0.0722   -3.2824    3.2200 C   0  0  0  0  0  0  0  0  0  0  0  0
    0.1096   -4.2707    2.5273 O   0  0  0  0  0  0  0  0  0  0  0  0
    0.4593   -3.2393    4.6394 C   0  0  0  0  0  0  0  0  0  0  0  0
   -0.3463   -2.9933    5.3352 H   0  0  0  0  0  0  0  0  0  0  0  0
    0.8782   -4.2112    4.9146 H   0  0  0  0  0  0  0  0  0  0  0  0
    1.2452   -2.4837    4.7171 H   0  0  0  0  0  0  0  0  0  0  0  0
   -0.7290   -2.1845    2.7007 N   0  0  0  0  0  0  0  0  0  0  0  0
   -1.0738   -2.0301    1.2795 C   0  0  2  0  0  0  0  0  0  0  0  0
   -0.0445   -1.1245    0.5661 C   0  0  0  0  0  0  0  0  0  0  0  0
   -0.2195    0.0895    0.5378 O   0  0  0  0  0  0  0  0  0  0  0  0
   -2.5031   -1.4816    1.1990 C   0  0  0  0  0  0  0  0  0  0  0  0
   -0.7729   -1.3586    3.2920 H   0  0  0  0  0  0  0  0  0  0  0  0
   -1.0679   -3.0003    0.7713 H   0  0  0  0  0  0  0  0  0  0  0  0
   -2.5793   -0.5156    1.7086 H   0  0  0  0  0  0  0  0  0  0  0  0
   -2.7981   -1.3465    0.1538 H   0  0  0  0  0  0  0  0  0  0  0  0
   -3.2020   -2.1803    1.6689 H   0  0  0  0  0  0  0  0  0  0  0  0
    0.8441   -1.6708   -0.3518 N   0  0  0  0  0  0  0  0  0  0  0  0
    1.9638   -2.4583    0.1687 C   0  0  2  0  0  0  0  0  0  0  0  0
    2.8873   -1.6583    1.1139 C   0  0  0  0  0  0  0  0  0  0  0  0
    3.2845   -2.1828    2.1457 O   0  0  0  0  0  0  0  0  0  0  0  0
    2.6948   -2.8421   -1.1182 C   0  0  0  0  0  0  0  0  0  0  0  0
    2.4685   -1.6704   -2.0734 C   0  0  0  0  0  0  0  0  0  0  0  0
    1.1526   -1.0332   -1.6291 C   0  0  0  0  0  0  0  0  0  0  0  0
    1.6222   -3.3601    0.6857 H   0  0  0  0  0  0  0  0  0  0  0  0
    2.2441   -3.7493   -1.5344 H   0  0  0  0  0  0  0  0  0  0  0  0
    3.7599   -3.0354   -0.9508 H   0  0  0  0  0  0  0  0  0  0  0  0
    3.2850   -0.9465   -1.9848 H   0  0  0  0  0  0  0  0  0  0  0  0
    2.4211   -2.0066   -3.1142 H   0  0  0  0  0  0  0  0  0  0  0  0
    1.2640    0.0531   -1.5396 H   0  0  0  0  0  0  0  0  0  0  0  0
    0.3590   -1.2421   -2.3542 H   0  0  0  0  0  0  0  0  0  0  0  0
    3.2923   -0.3756    0.7825 N   0  0  0  0  0  0  0  0  0  0  0  0
    4.1111    0.5462    1.5951 C   0  0  2  0  0  0  0  0  0  0  0  0
    5.5870    0.1203    1.7734 C   0  0  0  0  0  0  0  0  0  0  0  0
    6.4791    0.9206    1.5248 O   0  0  0  0  0  0  0  0  0  0  0  0
    3.4497    0.8211    2.9524 C   0  0  0  0  0  0  0  0  0  0  0  0
    2.8131    0.0220   -0.0217 H   0  0  0  0  0  0  0  0  0  0  0  0
    4.1377    1.4989    1.0563 H   0  0  0  0  0  0  0  0  0  0  0  0
    3.4757   -0.0644    3.5939 H   0  0  0  0  0  0  0  0  0  0  0  0
    3.9770    1.6300    3.4680 H   0  0  0  0  0  0  0  0  0  0  0  0
    2.4070    1.1219    2.8117 H   0  0  0  0  0  0  0  0  0  0  0  0
    5.9221   -1.1454    2.2111 N   0  0  0  0  0  0  0  0  0  0  0  0
    7.2890   -1.6127    2.3915 C   0  0  0  0  0  0  0  0  0  0  0  0
    5.1419   -1.7805    2.3990 H   0  0  0  0  0  0  0  0  0  0  0  0
    7.8194   -0.9784    3.1094 H   0  0  0  0  0  0  0  0  0  0  0  0
    7.2897   -2.6391    2.7706 H   0  0  0  0  0  0  0  0  0  0  0  0
    7.8273   -1.5941    1.4384 H   0  0  0  0  0  0  0  0  0  0  0  0
  1  2  2  0  0  0  0
  1  3  1  0  0  0  0
  1  7  1  0  0  0  0
  3  4  1  0  0  0  0
  3  5  1  0  0  0  0
  3  6  1  0  0  0  0
  7  8  1  0  0  0  0
  7 12  1  0  0  0  0
  8  9  1  0  0  0  0
  8 11  1  0  0  0  0
  8 13  1  0  0  0  0
  9 10  2  0  0  0  0
  9 17  1  0  0  0  0
 11 14  1  0  0  0  0
 11 15  1  0  0  0  0
 11 16  1  0  0  0  0
 17 18  1  0  0  0  0
 17 23  1  0  0  0  0
 18 19  1  0  0  0  0
 18 21  1  0  0  0  0
 18 24  1  0  0  0  0
 19 20  2  0  0  0  0
 19 31  1  0  0  0  0
 21 22  1  0  0  0  0
 21 25  1  0  0  0  0
 21 26  1  0  0  0  0
 22 23  1  0  0  0  0
 22 27  1  0  0  0  0
 22 28  1  0  0  0  0
 23 29  1  0  0  0  0
 23 30  1  0  0  0  0
 31 32  1  0  0  0  0
 31 36  1  0  0  0  0
 32 33  1  0  0  0  0
 32 35  1  0  0  0  0
 32 37  1  0  0  0  0
 33 34  2  0  0  0  0
 33 41  1  0  0  0  0
 35 38  1  0  0  0  0
 35 39  1  0  0  0  0
 35 40  1  0  0  0  0
 41 42  1  0  0  0  0
 41 43  1  0  0  0  0
 42 44  1  0  0  0  0
 42 45  1  0  0  0  0
 42 46  1  0  0  0  0
M  END
$$$$

  -OEChem-02062319123D

 46 46  0     1  0  0  0  0  0999 V2000
   -0.4474   -2.1430    3.9434 C   0  0  0  0  0  0  0  0  0  0  0  0
    0.6588   -2.6423    3.8122 O   0  0  0  0  0  0  0  0  0  0  0  0
   -0.8411   -1.4940    5.2571 C   0  0  0  0  0  0  0  0  0  0  0  0
   -1.7558   -1.9516    5.6416 H   0  0  0  0  0  0  0  0  0  0  0  0
   -0.0448   -1.6246    5.9954 H   0  0  0  0  0  0  0  0  0  0  0  0
   -1.0104   -0.4245    5.1084 H   0  0  0  0  0  0  0  0  0  0  0  0
   -1.3193   -2.1183    2.8738 N   0  0  0  0  0  0  0  0  0  0  0  0
   -0.8763   -2.4618    1.5151 C   0  0  2  0  0  0  0  0  0  0  0  0
    0.0402   -1.3717    0.9094 C   0  0  0  0  0  0  0  0  0  0  0  0
   -0.2537   -0.1972    1.1171 O   0  0  0  0  0  0  0  0  0  0  0  0
   -2.1220   -2.6632    0.6486 C   0  0  0  0  0  0  0  0  0  0  0  0
   -2.1070   -1.4831    2.9631 H   0  0  0  0  0  0  0  0  0  0  0  0
   -0.3219   -3.4051    1.5468 H   0  0  0  0  0  0  0  0  0  0  0  0
   -2.7012   -1.7361    0.5862 H   0  0  0  0  0  0  0  0  0  0  0  0
   -1.8358   -2.9620   -0.3647 H   0  0  0  0  0  0  0  0  0  0  0  0
   -2.7575   -3.4463    1.0734 H   0  0  0  0  0  0  0  0  0  0  0  0
    0.8344   -1.6513   -0.2004 N   0  0  0  0  0  0  0  0  0  0  0  0
    1.8469   -2.7114   -0.1563 C   0  0  2  0  0  0  0  0  0  0  0  0
    2.9290   -2.5017    0.9230 C   0  0  0  0  0  0  0  0  0  0  0  0
    3.4029   -3.4882    1.4688 O   0  0  0  0  0  0  0  0  0  0  0  0
    2.4456   -2.6498   -1.5624 C   0  0  0  0  0  0  0  0  0  0  0  0
    2.3308   -1.1856   -1.9776 C   0  0  0  0  0  0  0  0  0  0  0  0
    1.1089   -0.6543   -1.2336 C   0  0  0  0  0  0  0  0  0  0  0  0
    1.3891   -3.6925    0.0064 H   0  0  0  0  0  0  0  0  0  0  0  0
    1.8528   -3.2733   -2.2398 H   0  0  0  0  0  0  0  0  0  0  0  0
    3.4821   -3.0038   -1.5908 H   0  0  0  0  0  0  0  0  0  0  0  0
    3.2256   -0.6355   -1.6684 H   0  0  0  0  0  0  0  0  0  0  0  0
    2.2210   -1.0808   -3.0617 H   0  0  0  0  0  0  0  0  0  0  0  0
    1.3194    0.3362   -0.8151 H   0  0  0  0  0  0  0  0  0  0  0  0
    0.2520   -0.5713   -1.9101 H   0  0  0  0  0  0  0  0  0  0  0  0
    3.5122   -1.2569    1.0948 N   0  0  0  0  0  0  0  0  0  0  0  0
    4.4771   -0.8728    2.1457 C   0  0  2  0  0  0  0  0  0  0  0  0
    5.9058   -1.4397    1.9733 C   0  0  0  0  0  0  0  0  0  0  0  0
    6.8668   -0.6875    2.0745 O   0  0  0  0  0  0  0  0  0  0  0  0
    3.9233   -1.1968    3.5408 C   0  0  0  0  0  0  0  0  0  0  0  0
    3.0240   -0.4991    0.6249 H   0  0  0  0  0  0  0  0  0  0  0  0
    4.5803    0.2158    2.0923 H   0  0  0  0  0  0  0  0  0  0  0  0
    3.8675   -2.2769    3.7066 H   0  0  0  0  0  0  0  0  0  0  0  0
    4.5716   -0.7670    4.3108 H   0  0  0  0  0  0  0  0  0  0  0  0
    2.9197   -0.7770    3.6589 H   0  0  0  0  0  0  0  0  0  0  0  0
    6.1258   -2.7783    1.7192 N   0  0  0  0  0  0  0  0  0  0  0  0
    7.4452   -3.3857    1.6212 C   0  0  0  0  0  0  0  0  0  0  0  0
    5.2923   -3.3717    1.6895 H   0  0  0  0  0  0  0  0  0  0  0  0
    7.3530   -4.4470    1.3723 H   0  0  0  0  0  0  0  0  0  0  0  0
    8.0357   -2.8978    0.8388 H   0  0  0  0  0  0  0  0  0  0  0  0
    7.9781   -3.2970    2.5735 H   0  0  0  0  0  0  0  0  0  0  0  0
  1  2  2  0  0  0  0
  1  3  1  0  0  0  0
  1  7  1  0  0  0  0
  3  4  1  0  0  0  0
  3  5  1  0  0  0  0
  3  6  1  0  0  0  0
  7  8  1  0  0  0  0
  7 12  1  0  0  0  0
  8  9  1  0  0  0  0
  8 11  1  0  0  0  0
  8 13  1  0  0  0  0
  9 10  2  0  0  0  0
  9 17  1  0  0  0  0
 11 14  1  0  0  0  0
 11 15  1  0  0  0  0
 11 16  1  0  0  0  0
 17 18  1  0  0  0  0
 17 23  1  0  0  0  0
 18 19  1  0  0  0  0
 18 21  1  0  0  0  0
 18 24  1  0  0  0  0
 19 20  2  0  0  0  0
 19 31  1  0  0  0  0
 21 22  1  0  0  0  0
 21 25  1  0  0  0  0
 21 26  1  0  0  0  0
 22 23  1  0  0  0  0
 22 27  1  0  0  0  0
 22 28  1  0  0  0  0
 23 29  1  0  0  0  0
 23 30  1  0  0  0  0
 31 32  1  0  0  0  0
 31 36  1  0  0  0  0
 32 33  1  0  0  0  0
 32 35  1  0  0  0  0
 32 37  1  0  0  0  0
 33 34  2  0  0  0  0
 33 41  1  0  0  0  0
 35 38  1  0  0  0  0
 35 39  1  0  0  0  0
 35 40  1  0  0  0  0
 41 42  1  0  0  0  0
 41 43  1  0  0  0  0
 42 44  1  0  0  0  0
 42 45  1  0  0  0  0
 42 46  1  0  0  0  0
M  END
$$$$

  -OEChem-02062319123D

 46 46  0     1  0  0  0  0  0999 V2000
   -1.4469   -2.3992    4.1214 C   0  0  0  0  0  0  0  0  0  0  0  0
   -1.3615   -3.6158    4.0831 O   0  0  0  0  0  0  0  0  0  0  0  0
   -1.8587   -1.7040    5.4054 C   0  0  0  0  0  0  0  0  0  0  0  0
   -2.7985   -1.1675    5.2535 H   0  0  0  0  0  0  0  0  0  0  0  0
   -1.9967   -2.4380    6.2044 H   0  0  0  0  0  0  0  0  0  0  0  0
   -1.0861   -0.9936    5.7102 H   0  0  0  0  0  0  0  0  0  0  0  0
   -1.1651   -1.6509    2.9982 N   0  0  0  0  0  0  0  0  0  0  0  0
   -0.6333   -2.1979    1.7423 C   0  0  2  0  0  0  0  0  0  0  0  0
    0.2948   -1.1846    1.0314 C   0  0  0  0  0  0  0  0  0  0  0  0
    0.1852    0.0083    1.3028 O   0  0  0  0  0  0  0  0  0  0  0  0
   -1.8174   -2.5749    0.8458 C   0  0  0  0  0  0  0  0  0  0  0  0
   -1.1684   -0.6363    3.0957 H   0  0  0  0  0  0  0  0  0  0  0  0
   -0.0429   -3.0955    1.9556 H   0  0  0  0  0  0  0  0  0  0  0  0
   -2.4219   -1.6912    0.6180 H   0  0  0  0  0  0  0  0  0  0  0  0
   -1.4661   -3.0088   -0.0950 H   0  0  0  0  0  0  0  0  0  0  0  0
   -2.4521   -3.3122    1.3480 H   0  0  0  0  0  0  0  0  0  0  0  0
    1.0011   -1.5271   -0.1187 N   0  0  0  0  0  0  0  0  0  0  0  0
    1.7239   -2.7949   -0.2553 C   0  0  2  0  0  0  0  0  0  0  0  0
    2.8232   -2.9769    0.8086 C   0  0  0  0  0  0  0  0  0  0  0  0
    2.9554   -4.0665    1.3456 O   0  0  0  0  0  0  0  0  0  0  0  0
    2.3381   -2.7053   -1.6639 C   0  0  0  0  0  0  0  0  0  0  0  0
    1.7361   -1.4561   -2.3072 C   0  0  0  0  0  0  0  0  0  0  0  0
    1.3548   -0.5580   -1.1418 C   0  0  0  0  0  0  0  0  0  0  0  0
    1.0310   -3.6413   -0.2058 H   0  0  0  0  0  0  0  0  0  0  0  0
    2.1123   -3.6005   -2.2527 H   0  0  0  0  0  0  0  0  0  0  0  0
    3.4281   -2.6032   -1.6121 H   0  0  0  0  0  0  0  0  0  0  0  0
    2.4364   -0.9651   -2.9903 H   0  0  0  0  0  0  0  0  0  0  0  0
    0.8360   -1.7272   -2.8689 H   0  0  0  0  0  0  0  0  0  0  0  0
    2.2000    0.0597   -0.8204 H   0  0  0  0  0  0  0  0  0  0  0  0
    0.5164    0.0960   -1.4060 H   0  0  0  0  0  0  0  0  0  0  0  0
    3.6780   -1.9286    1.1078 N   0  0  0  0  0  0  0  0  0  0  0  0
    4.7106   -1.8923    2.1636 C   0  0  2  0  0  0  0  0  0  0  0  0
    5.9292   -2.8134    1.9204 C   0  0  0  0  0  0  0  0  0  0  0  0
    7.0579   -2.3423    1.9679 O   0  0  0  0  0  0  0  0  0  0  0  0
    4.0908   -2.1521    3.5441 C   0  0  0  0  0  0  0  0  0  0  0  0
    3.4569   -1.0493    0.6469 H   0  0  0  0  0  0  0  0  0  0  0  0
    5.1063   -0.8714    2.1816 H   0  0  0  0  0  0  0  0  0  0  0  0
    3.7561   -3.1891    3.6422 H   0  0  0  0  0  0  0  0  0  0  0  0
    4.8296   -1.9579    4.3279 H   0  0  0  0  0  0  0  0  0  0  0  0
    3.2336   -1.4919    3.7067 H   0  0  0  0  0  0  0  0  0  0  0  0
    5.7724   -4.1582    1.6506 N   0  0  0  0  0  0  0  0  0  0  0  0
    6.8753   -5.0815    1.4245 C   0  0  0  0  0  0  0  0  0  0  0  0
    4.8096   -4.5021    1.6079 H   0  0  0  0  0  0  0  0  0  0  0  0
    7.5405   -5.1030    2.2940 H   0  0  0  0  0  0  0  0  0  0  0  0
    6.4919   -6.0927    1.2578 H   0  0  0  0  0  0  0  0  0  0  0  0
    7.4529   -4.7802    0.5446 H   0  0  0  0  0  0  0  0  0  0  0  0
  1  2  2  0  0  0  0
  1  3  1  0  0  0  0
  1  7  1  0  0  0  0
  3  4  1  0  0  0  0
  3  5  1  0  0  0  0
  3  6  1  0  0  0  0
  7  8  1  0  0  0  0
  7 12  1  0  0  0  0
  8  9  1  0  0  0  0
  8 11  1  0  0  0  0
  8 13  1  0  0  0  0
  9 10  2  0  0  0  0
  9 17  1  0  0  0  0
 11 14  1  0  0  0  0
 11 15  1  0  0  0  0
 11 16  1  0  0  0  0
 17 18  1  0  0  0  0
 17 23  1  0  0  0  0
 18 19  1  0  0  0  0
 18 21  1  0  0  0  0
 18 24  1  0  0  0  0
 19 20  2  0  0  0  0
 19 31  1  0  0  0  0
 21 22  1  0  0  0  0
 21 25  1  0  0  0  0
 21 26  1  0  0  0  0
 22 23  1  0  0  0  0
 22 27  1  0  0  0  0
 22 28  1  0  0  0  0
 23 29  1  0  0  0  0
 23 30  1  0  0  0  0
 31 32  1  0  0  0  0
 31 36  1  0  0  0  0
 32 33  1  0  0  0  0
 32 35  1  0  0  0  0
 32 37  1  0  0  0  0
 33 34  2  0  0  0  0
 33 41  1  0  0  0  0
 35 38  1  0  0  0  0
 35 39  1  0  0  0  0
 35 40  1  0  0  0  0
 41 42  1  0  0  0  0
 41 43  1  0  0  0  0
 42 44  1  0  0  0  0
 42 45  1  0  0  0  0
 42 46  1  0  0  0  0
M  END
$$$$

  -OEChem-02062319123D

 46 46  0     1  0  0  0  0  0999 V2000
   -0.6926   -2.0912    4.1227 C   0  0  0  0  0  0  0  0  0  0  0  0
    0.0993   -3.0191    4.1409 O   0  0  0  0  0  0  0  0  0  0  0  0
   -1.0220   -1.3530    5.4066 C   0  0  0  0  0  0  0  0  0  0  0  0
   -2.0950   -1.4110    5.6060 H   0  0  0  0  0  0  0  0  0  0  0  0
   -0.4821   -1.7991    6.2466 H   0  0  0  0  0  0  0  0  0  0  0  0
   -0.7305   -0.3036    5.3197 H   0  0  0  0  0  0  0  0  0  0  0  0
   -1.2675   -1.6868    2.9356 N   0  0  0  0  0  0  0  0  0  0  0  0
   -0.8129   -2.1589    1.6184 C   0  0  2  0  0  0  0  0  0  0  0  0
    0.1794   -1.1703    0.9564 C   0  0  0  0  0  0  0  0  0  0  0  0
    0.1022    0.0204    1.2472 O   0  0  0  0  0  0  0  0  0  0  0  0
   -2.0583   -2.3327    0.7451 C   0  0  0  0  0  0  0  0  0  0  0  0
   -1.7247   -0.7786    2.9606 H   0  0  0  0  0  0  0  0  0  0  0  0
   -0.3245   -3.1337    1.7167 H   0  0  0  0  0  0  0  0  0  0  0  0
   -2.5745   -1.3757    0.6184 H   0  0  0  0  0  0  0  0  0  0  0  0
   -1.7850   -2.7128   -0.2438 H   0  0  0  0  0  0  0  0  0  0  0  0
   -2.7488   -3.0443    1.2088 H   0  0  0  0  0  0  0  0  0  0  0  0
    0.9449   -1.5198   -0.1561 N   0  0  0  0  0  0  0  0  0  0  0  0
    1.4007   -2.8851   -0.4427 C   0  0  2  0  0  0  0  0  0  0  0  0
    2.2937   -3.4906    0.6563 C   0  0  0  0  0  0  0  0  0  0  0  0
    2.1393   -4.6647    0.9593 O   0  0  0  0  0  0  0  0  0  0  0  0
    2.1809   -2.7335   -1.7590 C   0  0  0  0  0  0  0  0  0  0  0  0
    1.7822   -1.3697   -2.3157 C   0  0  0  0  0  0  0  0  0  0  0  0
    1.4709   -0.5318   -1.0858 C   0  0  0  0  0  0  0  0  0  0  0  0
    0.5402   -3.5430   -0.6018 H   0  0  0  0  0  0  0  0  0  0  0  0
    1.9427   -3.5396   -2.4603 H   0  0  0  0  0  0  0  0  0  0  0  0
    3.2613   -2.7508   -1.5775 H   0  0  0  0  0  0  0  0  0  0  0  0
    2.5743   -0.9242   -2.9259 H   0  0  0  0  0  0  0  0  0  0  0  0
    0.8822   -1.4678   -2.9318 H   0  0  0  0  0  0  0  0  0  0  0  0
    2.3764   -0.0655   -0.6832 H   0  0  0  0  0  0  0  0  0  0  0  0
    0.7431    0.2522   -1.3232 H   0  0  0  0  0  0  0  0  0  0  0  0
    3.3108   -2.7323    1.2125 N   0  0  0  0  0  0  0  0  0  0  0  0
    4.2156   -3.1243    2.3118 C   0  0  2  0  0  0  0  0  0  0  0  0
    5.2024   -4.2673    1.9753 C   0  0  0  0  0  0  0  0  0  0  0  0
    6.4076   -4.0632    2.0489 O   0  0  0  0  0  0  0  0  0  0  0  0
    3.4201   -3.4372    3.5858 C   0  0  0  0  0  0  0  0  0  0  0  0
    3.3310   -1.7584    0.9212 H   0  0  0  0  0  0  0  0  0  0  0  0
    4.8376   -2.2515    2.5352 H   0  0  0  0  0  0  0  0  0  0  0  0
    2.7863   -4.3194    3.4562 H   0  0  0  0  0  0  0  0  0  0  0  0
    4.1027   -3.6273    4.4196 H   0  0  0  0  0  0  0  0  0  0  0  0
    2.7827   -2.5886    3.8502 H   0  0  0  0  0  0  0  0  0  0  0  0
    4.7548   -5.5155    1.5914 N   0  0  0  0  0  0  0  0  0  0  0  0
    5.6294   -6.6211    1.2270 C   0  0  0  0  0  0  0  0  0  0  0  0
    3.7450   -5.6047    1.4506 H   0  0  0  0  0  0  0  0  0  0  0  0
    6.3410   -6.8286    2.0328 H   0  0  0  0  0  0  0  0  0  0  0  0
    5.0397   -7.5252    1.0490 H   0  0  0  0  0  0  0  0  0  0  0  0
    6.1874   -6.3835    0.3158 H   0  0  0  0  0  0  0  0  0  0  0  0
  1  2  2  0  0  0  0
  1  3  1  0  0  0  0
  1  7  1  0  0  0  0
  3  4  1  0  0  0  0
  3  5  1  0  0  0  0
  3  6  1  0  0  0  0
  7  8  1  0  0  0  0
  7 12  1  0  0  0  0
  8  9  1  0  0  0  0
  8 11  1  0  0  0  0
  8 13  1  0  0  0  0
  9 10  2  0  0  0  0
  9 17  1  0  0  0  0
 11 14  1  0  0  0  0
 11 15  1  0  0  0  0
 11 16  1  0  0  0  0
 17 18  1  0  0  0  0
 17 23  1  0  0  0  0
 18 19  1  0  0  0  0
 18 21  1  0  0  0  0
 18 24  1  0  0  0  0
 19 20  2  0  0  0  0
 19 31  1  0  0  0  0
 21 22  1  0  0  0  0
 21 25  1  0  0  0  0
 21 26  1  0  0  0  0
 22 23  1  0  0  0  0
 22 27  1  0  0  0  0
 22 28  1  0  0  0  0
 23 29  1  0  0  0  0
 23 30  1  0  0  0  0
 31 32  1  0  0  0  0
 31 36  1  0  0  0  0
 32 33  1  0  0  0  0
 32 35  1  0  0  0  0
 32 37  1  0  0  0  0
 33 34  2  0  0  0  0
 33 41  1  0  0  0  0
 35 38  1  0  0  0  0
 35 39  1  0  0  0  0
 35 40  1  0  0  0  0
 41 42  1  0  0  0  0
 41 43  1  0  0  0  0
 42 44  1  0  0  0  0
 42 45  1  0  0  0  0
 42 46  1  0  0  0  0
M  END
$$$$

  -OEChem-02062319123D

 46 46  0     1  0  0  0  0  0999 V2000
   -0.7282   -2.1236    4.2285 C   0  0  0  0  0  0  0  0  0  0  0  0
   -0.4052   -3.2998    4.2183 O   0  0  0  0  0  0  0  0  0  0  0  0
   -0.8088   -1.3747    5.5452 C   0  0  0  0  0  0  0  0  0  0  0  0
   -1.8272   -1.0127    5.7055 H   0  0  0  0  0  0  0  0  0  0  0  0
   -0.5347   -2.0360    6.3724 H   0  0  0  0  0  0  0  0  0  0  0  0
   -0.1241   -0.5231    5.5343 H   0  0  0  0  0  0  0  0  0  0  0  0
   -1.0051   -1.4619    3.0504 N   0  0  0  0  0  0  0  0  0  0  0  0
   -0.7417   -2.0081    1.7098 C   0  0  2  0  0  0  0  0  0  0  0  0
    0.2454   -1.1128    0.9173 C   0  0  0  0  0  0  0  0  0  0  0  0
    0.3370    0.0712    1.2322 O   0  0  0  0  0  0  0  0  0  0  0  0
   -2.0879   -2.0999    0.9860 C   0  0  0  0  0  0  0  0  0  0  0  0
   -1.0831   -0.4486    3.1160 H   0  0  0  0  0  0  0  0  0  0  0  0
   -0.3186   -3.0127    1.7875 H   0  0  0  0  0  0  0  0  0  0  0  0
   -2.5419   -1.1081    0.8922 H   0  0  0  0  0  0  0  0  0  0  0  0
   -1.9617   -2.5198   -0.0161 H   0  0  0  0  0  0  0  0  0  0  0  0
   -2.7721   -2.7461    1.5454 H   0  0  0  0  0  0  0  0  0  0  0  0
    0.9333   -1.5404   -0.2207 N   0  0  0  0  0  0  0  0  0  0  0  0
    1.0729   -2.9402   -0.6444 C   0  0  2  0  0  0  0  0  0  0  0  0
    1.7781   -3.8466    0.3809 C   0  0  0  0  0  0  0  0  0  0  0  0
    1.3254   -4.9620    0.5915 O   0  0  0  0  0  0  0  0  0  0  0  0
    1.8839   -2.8424   -1.9444 C   0  0  0  0  0  0  0  0  0  0  0  0
    1.6968   -1.4059   -2.4190 C   0  0  0  0  0  0  0  0  0  0  0  0
    1.5676   -0.6002   -1.1355 C   0  0  0  0  0  0  0  0  0  0  0  0
    0.0869   -3.3610   -0.8643 H   0  0  0  0  0  0  0  0  0  0  0  0
    1.5386   -3.5659   -2.6903 H   0  0  0  0  0  0  0  0  0  0  0  0
    2.9471   -3.0278   -1.7562 H   0  0  0  0  0  0  0  0  0  0  0  0
    2.5318   -1.0619   -3.0377 H   0  0  0  0  0  0  0  0  0  0  0  0
    0.7735   -1.3228   -3.0021 H   0  0  0  0  0  0  0  0  0  0  0  0
    2.5501   -0.2994   -0.7568 H   0  0  0  0  0  0  0  0  0  0  0  0
    0.9627    0.2984   -1.3021 H   0  0  0  0  0  0  0  0  0  0  0  0
    2.9303   -3.4074    1.0120 N   0  0  0  0  0  0  0  0  0  0  0  0
    3.6563   -4.0796    2.1092 C   0  0  2  0  0  0  0  0  0  0  0  0
    4.3531   -5.4082    1.7295 C   0  0  0  0  0  0  0  0  0  0  0  0
    5.5512   -5.5409    1.9436 O   0  0  0  0  0  0  0  0  0  0  0  0
    2.7438   -4.2661    3.3288 C   0  0  0  0  0  0  0  0  0  0  0  0
    3.2059   -2.4536    0.7912 H   0  0  0  0  0  0  0  0  0  0  0  0
    4.4594   -3.4019    2.4166 H   0  0  0  0  0  0  0  0  0  0  0  0
    1.9355   -4.9734    3.1202 H   0  0  0  0  0  0  0  0  0  0  0  0
    3.3214   -4.6499    4.1755 H   0  0  0  0  0  0  0  0  0  0  0  0
    2.3005   -3.3095    3.6203 H   0  0  0  0  0  0  0  0  0  0  0  0
    3.6551   -6.4522    1.1567 N   0  0  0  0  0  0  0  0  0  0  0  0
    4.2490   -7.7297    0.7888 C   0  0  0  0  0  0  0  0  0  0  0  0
    2.6638   -6.2822    0.9679 H   0  0  0  0  0  0  0  0  0  0  0  0
    3.4914   -8.3832    0.3458 H   0  0  0  0  0  0  0  0  0  0  0  0
    5.0510   -7.5831    0.0579 H   0  0  0  0  0  0  0  0  0  0  0  0
    4.6621   -8.2277    1.6722 H   0  0  0  0  0  0  0  0  0  0  0  0
  1  2  2  0  0  0  0
  1  3  1  0  0  0  0
  1  7  1  0  0  0  0
  3  4  1  0  0  0  0
  3  5  1  0  0  0  0
  3  6  1  0  0  0  0
  7  8  1  0  0  0  0
  7 12  1  0  0  0  0
  8  9  1  0  0  0  0
  8 11  1  0  0  0  0
  8 13  1  0  0  0  0
  9 10  2  0  0  0  0
  9 17  1  0  0  0  0
 11 14  1  0  0  0  0
 11 15  1  0  0  0  0
 11 16  1  0  0  0  0
 17 18  1  0  0  0  0
 17 23  1  0  0  0  0
 18 19  1  0  0  0  0
 18 21  1  0  0  0  0
 18 24  1  0  0  0  0
 19 20  2  0  0  0  0
 19 31  1  0  0  0  0
 21 22  1  0  0  0  0
 21 25  1  0  0  0  0
 21 26  1  0  0  0  0
 22 23  1  0  0  0  0
 22 27  1  0  0  0  0
 22 28  1  0  0  0  0
 23 29  1  0  0  0  0
 23 30  1  0  0  0  0
 31 32  1  0  0  0  0
 31 36  1  0  0  0  0
 32 33  1  0  0  0  0
 32 35  1  0  0  0  0
 32 37  1  0  0  0  0
 33 34  2  0  0  0  0
 33 41  1  0  0  0  0
 35 38  1  0  0  0  0
 35 39  1  0  0  0  0
 35 40  1  0  0  0  0
 41 42  1  0  0  0  0
 41 43  1  0  0  0  0
 42 44  1  0  0  0  0
 42 45  1  0  0  0  0
 42 46  1  0  0  0  0
M  END
$$$$

  -OEChem-02062319123D

 46 46  0     1  0  0  0  0  0999 V2000
   -0.7505   -2.0898    4.3408 C   0  0  0  0  0  0  0  0  0  0  0  0
   -0.8275   -3.3065    4.2906 O   0  0  0  0  0  0  0  0  0  0  0  0
   -0.6967   -1.3884    5.6848 C   0  0  0  0  0  0  0  0  0  0  0  0
   -1.5484   -0.7113    5.7859 H   0  0  0  0  0  0  0  0  0  0  0  0
   -0.7321   -2.1226    6.4950 H   0  0  0  0  0  0  0  0  0  0  0  0
    0.2289   -0.8139    5.7700 H   0  0  0  0  0  0  0  0  0  0  0  0
   -0.7017   -1.3482    3.1793 N   0  0  0  0  0  0  0  0  0  0  0  0
   -0.6080   -1.9171    1.8266 C   0  0  2  0  0  0  0  0  0  0  0  0
    0.3372   -1.0785    0.9244 C   0  0  0  0  0  0  0  0  0  0  0  0
    0.5944    0.0701    1.2784 O   0  0  0  0  0  0  0  0  0  0  0  0
   -2.0265   -1.9623    1.2518 C   0  0  0  0  0  0  0  0  0  0  0  0
   -0.5055   -0.3520    3.2709 H   0  0  0  0  0  0  0  0  0  0  0  0
   -0.2168   -2.9341    1.8920 H   0  0  0  0  0  0  0  0  0  0  0  0
   -2.4428   -0.9525    1.1796 H   0  0  0  0  0  0  0  0  0  0  0  0
   -2.0310   -2.4125    0.2562 H   0  0  0  0  0  0  0  0  0  0  0  0
   -2.6747   -2.5615    1.8993 H   0  0  0  0  0  0  0  0  0  0  0  0
    0.9257   -1.5395   -0.2594 N   0  0  0  0  0  0  0  0  0  0  0  0
    0.7500   -2.8798   -0.8403 C   0  0  2  0  0  0  0  0  0  0  0  0
    1.2044   -4.0431    0.0578 C   0  0  0  0  0  0  0  0  0  0  0  0
    0.4808   -5.0213    0.1711 O   0  0  0  0  0  0  0  0  0  0  0  0
    1.5785   -2.8254   -2.1295 C   0  0  0  0  0  0  0  0  0  0  0  0
    1.6460   -1.3457   -2.4818 C   0  0  0  0  0  0  0  0  0  0  0  0
    1.6760   -0.6426   -1.1332 C   0  0  0  0  0  0  0  0  0  0  0  0
   -0.3021   -3.0305   -1.0996 H   0  0  0  0  0  0  0  0  0  0  0  0
    1.1203   -3.4155   -2.9299 H   0  0  0  0  0  0  0  0  0  0  0  0
    2.5914   -3.2067   -1.9596 H   0  0  0  0  0  0  0  0  0  0  0  0
    2.5233   -1.1040   -3.0903 H   0  0  0  0  0  0  0  0  0  0  0  0
    0.7465   -1.0512   -3.0334 H   0  0  0  0  0  0  0  0  0  0  0  0
    2.7039   -0.5304   -0.7720 H   0  0  0  0  0  0  0  0  0  0  0  0
    1.2196    0.3507   -1.2098 H   0  0  0  0  0  0  0  0  0  0  0  0
    2.4153   -3.9630    0.7253 N   0  0  0  0  0  0  0  0  0  0  0  0
    2.9289   -4.8922    1.7527 C   0  0  2  0  0  0  0  0  0  0  0  0
    3.2741   -6.3132    1.2472 C   0  0  0  0  0  0  0  0  0  0  0  0
    4.4054   -6.7514    1.4105 O   0  0  0  0  0  0  0  0  0  0  0  0
    1.9764   -4.9528    2.9549 C   0  0  0  0  0  0  0  0  0  0  0  0
    2.9268   -3.0943    0.5894 H   0  0  0  0  0  0  0  0  0  0  0  0
    3.8712   -4.4699    2.1165 H   0  0  0  0  0  0  0  0  0  0  0  0
    1.0235   -5.4193    2.6877 H   0  0  0  0  0  0  0  0  0  0  0  0
    2.4274   -5.5385    3.7620 H   0  0  0  0  0  0  0  0  0  0  0  0
    1.7753   -3.9461    3.3324 H   0  0  0  0  0  0  0  0  0  0  0  0
    2.3310   -7.1035    0.6220 N   0  0  0  0  0  0  0  0  0  0  0  0
    2.5873   -8.4485    0.1271 C   0  0  0  0  0  0  0  0  0  0  0  0
    1.4183   -6.6709    0.4569 H   0  0  0  0  0  0  0  0  0  0  0  0
    1.6677   -8.8815   -0.2779 H   0  0  0  0  0  0  0  0  0  0  0  0
    3.3405   -8.4269   -0.6670 H   0  0  0  0  0  0  0  0  0  0  0  0
    2.9446   -9.0934    0.9370 H   0  0  0  0  0  0  0  0  0  0  0  0
  1  2  2  0  0  0  0
  1  3  1  0  0  0  0
  1  7  1  0  0  0  0
  3  4  1  0  0  0  0
  3  5  1  0  0  0  0
  3  6  1  0  0  0  0
  7  8  1  0  0  0  0
  7 12  1  0  0  0  0
  8  9  1  0  0  0  0
  8 11  1  0  0  0  0
  8 13  1  0  0  0  0
  9 10  2  0  0  0  0
  9 17  1  0  0  0  0
 11 14  1  0  0  0  0
 11 15  1  0  0  0  0
 11 16  1  0  0  0  0
 17 18  1  0  0  0  0
 17 23  1  0  0  0  0
 18 19  1  0  0  0  0
 18 21  1  0  0  0  0
 18 24  1  0  0  0  0
 19 20  2  0  0  0  0
 19 31  1  0  0  0  0
 21 22  1  0  0  0  0
 21 25  1  0  0  0  0
 21 26  1  0  0  0  0
 22 23  1  0  0  0  0
 22 27  1  0  0  0  0
 22 28  1  0  0  0  0
 23 29  1  0  0  0  0
 23 30  1  0  0  0  0
 31 32  1  0  0  0  0
 31 36  1  0  0  0  0
 32 33  1  0  0  0  0
 32 35  1  0  0  0  0
 32 37  1  0  0  0  0
 33 34  2  0  0  0  0
 33 41  1  0  0  0  0
 35 38  1  0  0  0  0
 35 39  1  0  0  0  0
 35 40  1  0  0  0  0
 41 42  1  0  0  0  0
 41 43  1  0  0  0  0
 42 44  1  0  0  0  0
 42 45  1  0  0  0  0
 42 46  1  0  0  0  0
M  END
$$$$

  -OEChem-02062319123D

 46 46  0     1  0  0  0  0  0999 V2000
    0.0627   -3.0998    3.2222 C   0  0  0  0  0  0  0  0  0  0  0  0
    1.1088   -2.8085    2.6591 O   0  0  0  0  0  0  0  0  0  0  0  0
    0.0718   -3.4403    4.6997 C   0  0  0  0  0  0  0  0  0  0  0  0
   -0.6050   -2.7765    5.2425 H   0  0  0  0  0  0  0  0  0  0  0  0
   -0.2462   -4.4763    4.8429 H   0  0  0  0  0  0  0  0  0  0  0  0
    1.0805   -3.3258    5.1065 H   0  0  0  0  0  0  0  0  0  0  0  0
   -1.1305   -3.1261    2.5216 N   0  0  0  0  0  0  0  0  0  0  0  0
   -1.2682   -2.8317    1.0843 C   0  0  2  0  0  0  0  0  0  0  0  0
   -0.5406   -1.5273    0.6514 C   0  0  0  0  0  0  0  0  0  0  0  0
   -0.8890   -0.4789    1.1892 O   0  0  0  0  0  0  0  0  0  0  0  0
   -2.7649   -2.7243    0.7774 C   0  0  0  0  0  0  0  0  0  0  0  0
   -1.9724   -3.2798    3.0671 H   0  0  0  0  0  0  0  0  0  0  0  0
   -0.8818   -3.6792    0.5224 H   0  0  0  0  0  0  0  0  0  0  0  0
   -3.2199   -1.9109    1.3525 H   0  0  0  0  0  0  0  0  0  0  0  0
   -2.9195   -2.5238   -0.2873 H   0  0  0  0  0  0  0  0  0  0  0  0
   -3.2740   -3.6591    1.0304 H   0  0  0  0  0  0  0  0  0  0  0  0
    0.4973   -1.4803   -0.2894 N   0  0  0  0  0  0  0  0  0  0  0  0
    0.8700   -2.5446   -1.2408 C   0  0  2  0  0  0  0  0  0  0  0  0
    1.2964   -3.9210   -0.6896 C   0  0  0  0  0  0  0  0  0  0  0  0
    0.8871   -4.9260   -1.2597 O   0  0  0  0  0  0  0  0  0  0  0  0
    2.0219   -1.9218   -2.0356 C   0  0  0  0  0  0  0  0  0  0  0  0
    1.7637   -0.4255   -1.9706 C   0  0  0  0  0  0  0  0  0  0  0  0
    1.1671   -0.2158   -0.5878 C   0  0  0  0  0  0  0  0  0  0  0  0
    0.0221   -2.7074   -1.9144 H   0  0  0  0  0  0  0  0  0  0  0  0
    2.0490   -2.2879   -3.0670 H   0  0  0  0  0  0  0  0  0  0  0  0
    2.9838   -2.1485   -1.5627 H   0  0  0  0  0  0  0  0  0  0  0  0
    2.6771    0.1596   -2.1166 H   0  0  0  0  0  0  0  0  0  0  0  0
    1.0367   -0.1369   -2.7369 H   0  0  0  0  0  0  0  0  0  0  0  0
    1.9513   -0.0245    0.1525 H   0  0  0  0  0  0  0  0  0  0  0  0
    0.4806    0.6383   -0.6004 H   0  0  0  0  0  0  0  0  0  0  0  0
    2.1695   -4.0591    0.3718 N   0  0  0  0  0  0  0  0  0  0  0  0
    2.5073   -5.3607    0.9747 C   0  0  2  0  0  0  0  0  0  0  0  0
    1.3345   -5.9857    1.7786 C   0  0  0  0  0  0  0  0  0  0  0  0
    1.3868   -6.1688    2.9902 O   0  0  0  0  0  0  0  0  0  0  0  0
    3.7545   -5.1402    1.8388 C   0  0  0  0  0  0  0  0  0  0  0  0
    2.1941   -3.2530    1.0049 H   0  0  0  0  0  0  0  0  0  0  0  0
    2.7705   -6.0699    0.1832 H   0  0  0  0  0  0  0  0  0  0  0  0
    4.5730   -4.7414    1.2321 H   0  0  0  0  0  0  0  0  0  0  0  0
    4.0813   -6.0854    2.2834 H   0  0  0  0  0  0  0  0  0  0  0  0
    3.5415   -4.4328    2.6471 H   0  0  0  0  0  0  0  0  0  0  0  0
    0.1854   -6.3628    1.1110 N   0  0  0  0  0  0  0  0  0  0  0  0
   -0.9934   -6.9229    1.7561 C   0  0  0  0  0  0  0  0  0  0  0  0
    0.1653   -6.1629    0.1081 H   0  0  0  0  0  0  0  0  0  0  0  0
   -0.7352   -7.8376    2.2998 H   0  0  0  0  0  0  0  0  0  0  0  0
   -1.4222   -6.2025    2.4599 H   0  0  0  0  0  0  0  0  0  0  0  0
   -1.7505   -7.1701    1.0057 H   0  0  0  0  0  0  0  0  0  0  0  0
  1  2  2  0  0  0  0
  1  3  1  0  0  0  0
  1  7  1  0  0  0  0
  3  4  1  0  0  0  0
  3  5  1  0  0  0  0
  3  6  1  0  0  0  0
  7  8  1  0  0  0  0
  7 12  1  0  0  0  0
  8  9  1  0  0  0  0
  8 11  1  0  0  0  0
  8 13  1  0  0  0  0
  9 10  2  0  0  0  0
  9 17  1  0  0  0  0
 11 14  1  0  0  0  0
 11 15  1  0  0  0  0
 11 16  1  0  0  0  0
 17 18  1  0  0  0  0
 17 23  1  0  0  0  0
 18 19  1  0  0  0  0
 18 21  1  0  0  0  0
 18 24  1  0  0  0  0
 19 20  2  0  0  0  0
 19 31  1  0  0  0  0
 21 22  1  0  0  0  0
 21 25  1  0  0  0  0
 21 26  1  0  0  0  0
 22 23  1  0  0  0  0
 22 27  1  0  0  0  0
 22 28  1  0  0  0  0
 23 29  1  0  0  0  0
 23 30  1  0  0  0  0
 31 32  1  0  0  0  0
 31 36  1  0  0  0  0
 32 33  1  0  0  0  0
 32 35  1  0  0  0  0
 32 37  1  0  0  0  0
 33 34  2  0  0  0  0
 33 41  1  0  0  0  0
 35 38  1  0  0  0  0
 35 39  1  0  0  0  0
 35 40  1  0  0  0  0
 41 42  1  0  0  0  0
 41 43  1  0  0  0  0
 42 44  1  0  0  0  0
 42 45  1  0  0  0  0
 42 46  1  0  0  0  0
M  END
$$$$

  -OEChem-02062319123D

 46 46  0     1  0  0  0  0  0999 V2000
   -0.2365   -2.0380    4.5555 C   0  0  0  0  0  0  0  0  0  0  0  0
   -0.5659   -3.2122    4.5050 O   0  0  0  0  0  0  0  0  0  0  0  0
    0.1256   -1.4049    5.8859 C   0  0  0  0  0  0  0  0  0  0  0  0
   -0.4653   -0.4989    6.0420 H   0  0  0  0  0  0  0  0  0  0  0  0
   -0.0785   -2.1024    6.7031 H   0  0  0  0  0  0  0  0  0  0  0  0
    1.1873   -1.1464    5.8990 H   0  0  0  0  0  0  0  0  0  0  0  0
   -0.1838   -1.2845    3.4022 N   0  0  0  0  0  0  0  0  0  0  0  0
   -0.3980   -1.8088    2.0448 C   0  0  2  0  0  0  0  0  0  0  0  0
    0.4351   -1.0277    0.9926 C   0  0  0  0  0  0  0  0  0  0  0  0
    0.9543    0.0226    1.3659 O   0  0  0  0  0  0  0  0  0  0  0  0
   -1.8996   -1.7108    1.7505 C   0  0  0  0  0  0  0  0  0  0  0  0
    0.2126   -0.3477    3.4727 H   0  0  0  0  0  0  0  0  0  0  0  0
   -0.0863   -2.8539    2.0199 H   0  0  0  0  0  0  0  0  0  0  0  0
   -2.2282   -0.6673    1.7850 H   0  0  0  0  0  0  0  0  0  0  0  0
   -2.1369   -2.1162    0.7642 H   0  0  0  0  0  0  0  0  0  0  0  0
   -2.4670   -2.2792    2.4945 H   0  0  0  0  0  0  0  0  0  0  0  0
    0.8284   -1.5337   -0.2550 N   0  0  0  0  0  0  0  0  0  0  0  0
    0.0834   -2.5345   -1.0397 C   0  0  2  0  0  0  0  0  0  0  0  0
   -0.1540   -3.9122   -0.3963 C   0  0  0  0  0  0  0  0  0  0  0  0
   -1.2477   -4.4448   -0.5189 O   0  0  0  0  0  0  0  0  0  0  0  0
    0.9130   -2.6695   -2.3183 C   0  0  0  0  0  0  0  0  0  0  0  0
    1.5339   -1.2941   -2.5001 C   0  0  0  0  0  0  0  0  0  0  0  0
    1.7984   -0.8116   -1.0807 C   0  0  0  0  0  0  0  0  0  0  0  0
   -0.8950   -2.1146   -1.2970 H   0  0  0  0  0  0  0  0  0  0  0  0
    0.2960   -2.9574   -3.1758 H   0  0  0  0  0  0  0  0  0  0  0  0
    1.7032   -3.4182   -2.1937 H   0  0  0  0  0  0  0  0  0  0  0  0
    2.4495   -1.3287   -3.0991 H   0  0  0  0  0  0  0  0  0  0  0  0
    0.8198   -0.6251   -2.9920 H   0  0  0  0  0  0  0  0  0  0  0  0
    2.8177   -1.0626   -0.7682 H   0  0  0  0  0  0  0  0  0  0  0  0
    1.6736    0.2761   -1.0279 H   0  0  0  0  0  0  0  0  0  0  0  0
    0.8854   -4.5567    0.2546 N   0  0  0  0  0  0  0  0  0  0  0  0
    0.8555   -5.8970    0.8763 C   0  0  2  0  0  0  0  0  0  0  0  0
    0.6598   -7.0625   -0.1221 C   0  0  0  0  0  0  0  0  0  0  0  0
    1.5320   -7.9139   -0.2347 O   0  0  0  0  0  0  0  0  0  0  0  0
   -0.1761   -5.9631    2.0107 C   0  0  0  0  0  0  0  0  0  0  0  0
    1.7674   -4.0504    0.2809 H   0  0  0  0  0  0  0  0  0  0  0  0
    1.8368   -6.0561    1.3357 H   0  0  0  0  0  0  0  0  0  0  0  0
   -1.1967   -5.8559    1.6331 H   0  0  0  0  0  0  0  0  0  0  0  0
   -0.1037   -6.9254    2.5273 H   0  0  0  0  0  0  0  0  0  0  0  0
    0.0111   -5.1696    2.7389 H   0  0  0  0  0  0  0  0  0  0  0  0
   -0.4688   -7.1461   -0.9132 N   0  0  0  0  0  0  0  0  0  0  0  0
   -0.6850   -8.1779   -1.9180 C   0  0  0  0  0  0  0  0  0  0  0  0
   -1.1167   -6.3562   -0.8559 H   0  0  0  0  0  0  0  0  0  0  0  0
   -1.6742   -8.0613   -2.3709 H   0  0  0  0  0  0  0  0  0  0  0  0
    0.0700   -8.1082   -2.7079 H   0  0  0  0  0  0  0  0  0  0  0  0
   -0.6292   -9.1726   -1.4633 H   0  0  0  0  0  0  0  0  0  0  0  0
  1  2  2  0  0  0  0
  1  3  1  0  0  0  0
  1  7  1  0  0  0  0
  3  4  1  0  0  0  0
  3  5  1  0  0  0  0
  3  6  1  0  0  0  0
  7  8  1  0  0  0  0
  7 12  1  0  0  0  0
  8  9  1  0  0  0  0
  8 11  1  0  0  0  0
  8 13  1  0  0  0  0
  9 10  2  0  0  0  0
  9 17  1  0  0  0  0
 11 14  1  0  0  0  0
 11 15  1  0  0  0  0
 11 16  1  0  0  0  0
 17 18  1  0  0  0  0
 17 23  1  0  0  0  0
 18 19  1  0  0  0  0
 18 21  1  0  0  0  0
 18 24  1  0  0  0  0
 19 20  2  0  0  0  0
 19 31  1  0  0  0  0
 21 22  1  0  0  0  0
 21 25  1  0  0  0  0
 21 26  1  0  0  0  0
 22 23  1  0  0  0  0
 22 27  1  0  0  0  0
 22 28  1  0  0  0  0
 23 29  1  0  0  0  0
 23 30  1  0  0  0  0
 31 32  1  0  0  0  0
 31 36  1  0  0  0  0
 32 33  1  0  0  0  0
 32 35  1  0  0  0  0
 32 37  1  0  0  0  0
 33 34  2  0  0  0  0
 33 41  1  0  0  0  0
 35 38  1  0  0  0  0
 35 39  1  0  0  0  0
 35 40  1  0  0  0  0
 41 42  1  0  0  0  0
 41 43  1  0  0  0  0
 42 44  1  0  0  0  0
 42 45  1  0  0  0  0
 42 46  1  0  0  0  0
M  END
$$$$

  -OEChem-02062319123D

 46 46  0     1  0  0  0  0  0999 V2000
   -0.3046   -2.9706    2.8840 C   0  0  0  0  0  0  0  0  0  0  0  0
    0.7420   -3.1140    2.2673 O   0  0  0  0  0  0  0  0  0  0  0  0
   -0.3898   -3.4019    4.3352 C   0  0  0  0  0  0  0  0  0  0  0  0
   -1.1269   -4.2025    4.4404 H   0  0  0  0  0  0  0  0  0  0  0  0
    0.5809   -3.7710    4.6772 H   0  0  0  0  0  0  0  0  0  0  0  0
   -0.6858   -2.5564    4.9606 H   0  0  0  0  0  0  0  0  0  0  0  0
   -1.4160   -2.4297    2.2680 N   0  0  0  0  0  0  0  0  0  0  0  0
   -1.5080   -2.1044    0.8361 C   0  0  2  0  0  0  0  0  0  0  0  0
   -0.4439   -1.0826    0.3443 C   0  0  0  0  0  0  0  0  0  0  0  0
   -0.5064    0.0480    0.8212 O   0  0  0  0  0  0  0  0  0  0  0  0
   -2.9191   -1.5602    0.5885 C   0  0  0  0  0  0  0  0  0  0  0  0
   -2.2543   -2.3503    2.8347 H   0  0  0  0  0  0  0  0  0  0  0  0
   -1.4230   -3.0243    0.2686 H   0  0  0  0  0  0  0  0  0  0  0  0
   -3.0908   -0.6489    1.1711 H   0  0  0  0  0  0  0  0  0  0  0  0
   -3.0532   -1.3238   -0.4717 H   0  0  0  0  0  0  0  0  0  0  0  0
   -3.6702   -2.3025    0.8739 H   0  0  0  0  0  0  0  0  0  0  0  0
    0.7140   -1.4333   -0.3669 N   0  0  0  0  0  0  0  0  0  0  0  0
    0.7722   -2.3813   -1.4973 C   0  0  2  0  0  0  0  0  0  0  0  0
    0.3340   -3.8408   -1.2699 C   0  0  0  0  0  0  0  0  0  0  0  0
   -0.4155   -4.3828   -2.0740 O   0  0  0  0  0  0  0  0  0  0  0  0
    2.2391   -2.3271   -1.9252 C   0  0  0  0  0  0  0  0  0  0  0  0
    2.6623   -0.9035   -1.6051 C   0  0  0  0  0  0  0  0  0  0  0  0
    1.8886   -0.5599   -0.3402 C   0  0  0  0  0  0  0  0  0  0  0  0
    0.1522   -1.9793   -2.3055 H   0  0  0  0  0  0  0  0  0  0  0  0
    2.3638   -2.5641   -2.9867 H   0  0  0  0  0  0  0  0  0  0  0  0
    2.8389   -3.0314   -1.3382 H   0  0  0  0  0  0  0  0  0  0  0  0
    3.7435   -0.8159   -1.4600 H   0  0  0  0  0  0  0  0  0  0  0  0
    2.3626   -0.2326   -2.4170 H   0  0  0  0  0  0  0  0  0  0  0  0
    2.4874   -0.7750    0.5514 H   0  0  0  0  0  0  0  0  0  0  0  0
    1.6325    0.5055   -0.3399 H   0  0  0  0  0  0  0  0  0  0  0  0
    0.7448   -4.5428   -0.1534 N   0  0  0  0  0  0  0  0  0  0  0  0
    0.2455   -5.8776    0.2068 C   0  0  2  0  0  0  0  0  0  0  0  0
   -1.2099   -5.8422    0.7359 C   0  0  0  0  0  0  0  0  0  0  0  0
   -1.4825   -5.9891    1.9228 O   0  0  0  0  0  0  0  0  0  0  0  0
    1.2253   -6.4747    1.2239 C   0  0  0  0  0  0  0  0  0  0  0  0
    1.1200   -3.9677    0.6101 H   0  0  0  0  0  0  0  0  0  0  0  0
    0.2554   -6.5201   -0.6797 H   0  0  0  0  0  0  0  0  0  0  0  0
    1.2600   -5.8643    2.1321 H   0  0  0  0  0  0  0  0  0  0  0  0
    0.9143   -7.4872    1.4998 H   0  0  0  0  0  0  0  0  0  0  0  0
    2.2323   -6.5244    0.7992 H   0  0  0  0  0  0  0  0  0  0  0  0
   -2.2364   -5.6057   -0.1577 N   0  0  0  0  0  0  0  0  0  0  0  0
   -3.6406   -5.5168    0.2169 C   0  0  0  0  0  0  0  0  0  0  0  0
   -1.9544   -5.3742   -1.1135 H   0  0  0  0  0  0  0  0  0  0  0  0
   -3.7785   -4.7908    1.0245 H   0  0  0  0  0  0  0  0  0  0  0  0
   -4.2402   -5.1973   -0.6408 H   0  0  0  0  0  0  0  0  0  0  0  0
   -4.0069   -6.4923    0.5533 H   0  0  0  0  0  0  0  0  0  0  0  0
  1  2  2  0  0  0  0
  1  3  1  0  0  0  0
  1  7  1  0  0  0  0
  3  4  1  0  0  0  0
  3  5  1  0  0  0  0
  3  6  1  0  0  0  0
  7  8  1  0  0  0  0
  7 12  1  0  0  0  0
  8  9  1  0  0  0  0
  8 11  1  0  0  0  0
  8 13  1  0  0  0  0
  9 10  2  0  0  0  0
  9 17  1  0  0  0  0
 11 14  1  0  0  0  0
 11 15  1  0  0  0  0
 11 16  1  0  0  0  0
 17 18  1  0  0  0  0
 17 23  1  0  0  0  0
 18 19  1  0  0  0  0
 18 21  1  0  0  0  0
 18 24  1  0  0  0  0
 19 20  2  0  0  0  0
 19 31  1  0  0  0  0
 21 22  1  0  0  0  0
 21 25  1  0  0  0  0
 21 26  1  0  0  0  0
 22 23  1  0  0  0  0
 22 27  1  0  0  0  0
 22 28  1  0  0  0  0
 23 29  1  0  0  0  0
 23 30  1  0  0  0  0
 31 32  1  0  0  0  0
 31 36  1  0  0  0  0
 32 33  1  0  0  0  0
 32 35  1  0  0  0  0
 32 37  1  0  0  0  0
 33 34  2  0  0  0  0
 33 41  1  0  0  0  0
 35 38  1  0  0  0  0
 35 39  1  0  0  0  0
 35 40  1  0  0  0  0
 41 42  1  0  0  0  0
 41 43  1  0  0  0  0
 42 44  1  0  0  0  0
 42 45  1  0  0  0  0
 42 46  1  0  0  0  0
M  END
$$$$

  -OEChem-02062319123D

 46 46  0     1  0  0  0  0  0999 V2000
   -0.3854   -2.8917    2.8398 C   0  0  0  0  0  0  0  0  0  0  0  0
    0.4032   -3.4160    2.0654 O   0  0  0  0  0  0  0  0  0  0  0  0
   -0.1998   -3.0506    4.3364 C   0  0  0  0  0  0  0  0  0  0  0  0
   -1.0997   -3.4851    4.7790 H   0  0  0  0  0  0  0  0  0  0  0  0
    0.6473   -3.7103    4.5446 H   0  0  0  0  0  0  0  0  0  0  0  0
   -0.0097   -2.0766    4.7941 H   0  0  0  0  0  0  0  0  0  0  0  0
   -1.4248   -2.1227    2.3581 N   0  0  0  0  0  0  0  0  0  0  0  0
   -1.6274   -1.8328    0.9324 C   0  0  2  0  0  0  0  0  0  0  0  0
   -0.5442   -0.8780    0.3629 C   0  0  0  0  0  0  0  0  0  0  0  0
   -0.5044    0.2449    0.8601 O   0  0  0  0  0  0  0  0  0  0  0  0
   -3.0281   -1.2335    0.7746 C   0  0  0  0  0  0  0  0  0  0  0  0
   -1.9433   -1.5744    3.0379 H   0  0  0  0  0  0  0  0  0  0  0  0
   -1.6233   -2.7684    0.3830 H   0  0  0  0  0  0  0  0  0  0  0  0
   -3.1113   -0.2895    1.3229 H   0  0  0  0  0  0  0  0  0  0  0  0
   -3.2403   -1.0413   -0.2815 H   0  0  0  0  0  0  0  0  0  0  0  0
   -3.7826   -1.9271    1.1578 H   0  0  0  0  0  0  0  0  0  0  0  0
    0.5864   -1.3257   -0.3332 N   0  0  0  0  0  0  0  0  0  0  0  0
    0.5316   -2.1074   -1.5825 C   0  0  2  0  0  0  0  0  0  0  0  0
   -0.1724   -3.4777   -1.5870 C   0  0  0  0  0  0  0  0  0  0  0  0
   -0.9506   -3.7541   -2.4920 O   0  0  0  0  0  0  0  0  0  0  0  0
    2.0063   -2.2636   -1.9509 C   0  0  0  0  0  0  0  0  0  0  0  0
    2.6414   -0.9719   -1.4644 C   0  0  0  0  0  0  0  0  0  0  0  0
    1.8647   -0.6235   -0.2020 C   0  0  0  0  0  0  0  0  0  0  0  0
    0.0396   -1.4913   -2.3431 H   0  0  0  0  0  0  0  0  0  0  0  0
    2.1462   -2.4109   -3.0266 H   0  0  0  0  0  0  0  0  0  0  0  0
    2.4470   -3.1159   -1.4219 H   0  0  0  0  0  0  0  0  0  0  0  0
    3.7117   -1.0872   -1.2674 H   0  0  0  0  0  0  0  0  0  0  0  0
    2.5064   -0.1835   -2.2123 H   0  0  0  0  0  0  0  0  0  0  0  0
    2.3926   -0.9836    0.6874 H   0  0  0  0  0  0  0  0  0  0  0  0
    1.7525    0.4637   -0.1246 H   0  0  0  0  0  0  0  0  0  0  0  0
    0.0392   -4.3996   -0.5792 N   0  0  0  0  0  0  0  0  0  0  0  0
   -0.6450   -5.6980   -0.4829 C   0  0  2  0  0  0  0  0  0  0  0  0
   -2.1155   -5.5699   -0.0110 C   0  0  0  0  0  0  0  0  0  0  0  0
   -2.5116   -6.0573    1.0413 O   0  0  0  0  0  0  0  0  0  0  0  0
    0.1983   -6.5819    0.4440 C   0  0  0  0  0  0  0  0  0  0  0  0
    0.4923   -4.0429    0.2705 H   0  0  0  0  0  0  0  0  0  0  0  0
   -0.6628   -6.1720   -1.4699 H   0  0  0  0  0  0  0  0  0  0  0  0
   -0.2357   -7.5843    0.5110 H   0  0  0  0  0  0  0  0  0  0  0  0
    0.2385   -6.1548    1.4512 H   0  0  0  0  0  0  0  0  0  0  0  0
    1.2197   -6.6712    0.0620 H   0  0  0  0  0  0  0  0  0  0  0  0
   -3.0171   -4.8895   -0.8063 N   0  0  0  0  0  0  0  0  0  0  0  0
   -4.4331   -4.7470   -0.4990 C   0  0  0  0  0  0  0  0  0  0  0  0
   -2.6450   -4.4935   -1.6731 H   0  0  0  0  0  0  0  0  0  0  0  0
   -4.5682   -4.2788    0.4814 H   0  0  0  0  0  0  0  0  0  0  0  0
   -4.9211   -4.1199   -1.2512 H   0  0  0  0  0  0  0  0  0  0  0  0
   -4.9220   -5.7268   -0.4928 H   0  0  0  0  0  0  0  0  0  0  0  0
  1  2  2  0  0  0  0
  1  3  1  0  0  0  0
  1  7  1  0  0  0  0
  3  4  1  0  0  0  0
  3  5  1  0  0  0  0
  3  6  1  0  0  0  0
  7  8  1  0  0  0  0
  7 12  1  0  0  0  0
  8  9  1  0  0  0  0
  8 11  1  0  0  0  0
  8 13  1  0  0  0  0
  9 10  2  0  0  0  0
  9 17  1  0  0  0  0
 11 14  1  0  0  0  0
 11 15  1  0  0  0  0
 11 16  1  0  0  0  0
 17 18  1  0  0  0  0
 17 23  1  0  0  0  0
 18 19  1  0  0  0  0
 18 21  1  0  0  0  0
 18 24  1  0  0  0  0
 19 20  2  0  0  0  0
 19 31  1  0  0  0  0
 21 22  1  0  0  0  0
 21 25  1  0  0  0  0
 21 26  1  0  0  0  0
 22 23  1  0  0  0  0
 22 27  1  0  0  0  0
 22 28  1  0  0  0  0
 23 29  1  0  0  0  0
 23 30  1  0  0  0  0
 31 32  1  0  0  0  0
 31 36  1  0  0  0  0
 32 33  1  0  0  0  0
 32 35  1  0  0  0  0
 32 37  1  0  0  0  0
 33 34  2  0  0  0  0
 33 41  1  0  0  0  0
 35 38  1  0  0  0  0
 35 39  1  0  0  0  0
 35 40  1  0  0  0  0
 41 42  1  0  0  0  0
 41 43  1  0  0  0  0
 42 44  1  0  0  0  0
 42 45  1  0  0  0  0
 42 46  1  0  0  0  0
M  END
$$$$

  -OEChem-02062319123D

 46 46  0     1  0  0  0  0  0999 V2000
   -0.3552   -3.2787    2.5935 C   0  0  0  0  0  0  0  0  0  0  0  0
    0.1588   -3.7828    1.6048 O   0  0  0  0  0  0  0  0  0  0  0  0
    0.0464   -3.7478    3.9789 C   0  0  0  0  0  0  0  0  0  0  0  0
   -0.8349   -4.0907    4.5267 H   0  0  0  0  0  0  0  0  0  0  0  0
    0.7584   -4.5747    3.9062 H   0  0  0  0  0  0  0  0  0  0  0  0
    0.5135   -2.9281    4.5303 H   0  0  0  0  0  0  0  0  0  0  0  0
   -1.2700   -2.2548    2.4565 N   0  0  0  0  0  0  0  0  0  0  0  0
   -1.6383   -1.6556    1.1668 C   0  0  2  0  0  0  0  0  0  0  0  0
   -0.5375   -0.7045    0.6291 C   0  0  0  0  0  0  0  0  0  0  0  0
   -0.3864    0.3492    1.2416 O   0  0  0  0  0  0  0  0  0  0  0  0
   -2.9735   -0.9277    1.3560 C   0  0  0  0  0  0  0  0  0  0  0  0
   -1.5469   -1.7691    3.3048 H   0  0  0  0  0  0  0  0  0  0  0  0
   -1.8169   -2.4458    0.4435 H   0  0  0  0  0  0  0  0  0  0  0  0
   -3.2998   -0.4853    0.4097 H   0  0  0  0  0  0  0  0  0  0  0  0
   -3.7423   -1.6297    1.6931 H   0  0  0  0  0  0  0  0  0  0  0  0
   -2.8808   -0.1288    2.0988 H   0  0  0  0  0  0  0  0  0  0  0  0
    0.5407   -1.1775   -0.1260 N   0  0  0  0  0  0  0  0  0  0  0  0
    0.3965   -1.5837   -1.5335 C   0  0  2  0  0  0  0  0  0  0  0  0
   -0.5683   -2.7322   -1.8844 C   0  0  0  0  0  0  0  0  0  0  0  0
   -1.3584   -2.5947   -2.8103 O   0  0  0  0  0  0  0  0  0  0  0  0
    1.8292   -1.9324   -1.9284 C   0  0  0  0  0  0  0  0  0  0  0  0
    2.6709   -0.9365   -1.1459 C   0  0  0  0  0  0  0  0  0  0  0  0
    1.9057   -0.7299    0.1559 C   0  0  0  0  0  0  0  0  0  0  0  0
    0.0742   -0.7078   -2.1070 H   0  0  0  0  0  0  0  0  0  0  0  0
    1.9891   -1.8463   -3.0080 H   0  0  0  0  0  0  0  0  0  0  0  0
    2.0761   -2.9539   -1.6186 H   0  0  0  0  0  0  0  0  0  0  0  0
    3.6863   -1.3055   -0.9695 H   0  0  0  0  0  0  0  0  0  0  0  0
    2.7335    0.0101   -1.6928 H   0  0  0  0  0  0  0  0  0  0  0  0
    2.3352   -1.3425    0.9555 H   0  0  0  0  0  0  0  0  0  0  0  0
    1.9597    0.3224    0.4560 H   0  0  0  0  0  0  0  0  0  0  0  0
   -0.5971   -3.9024   -1.1492 N   0  0  0  0  0  0  0  0  0  0  0  0
   -1.5451   -5.0047   -1.3721 C   0  0  2  0  0  0  0  0  0  0  0  0
   -2.9676   -4.6896   -0.8437 C   0  0  0  0  0  0  0  0  0  0  0  0
   -3.5003   -5.3515    0.0392 O   0  0  0  0  0  0  0  0  0  0  0  0
   -0.9372   -6.2566   -0.7284 C   0  0  0  0  0  0  0  0  0  0  0  0
   -0.0733   -3.8983   -0.2659 H   0  0  0  0  0  0  0  0  0  0  0  0
   -1.6348   -5.1933   -2.4471 H   0  0  0  0  0  0  0  0  0  0  0  0
   -1.5814   -7.1240   -0.9025 H   0  0  0  0  0  0  0  0  0  0  0  0
   -0.8267   -6.1190    0.3521 H   0  0  0  0  0  0  0  0  0  0  0  0
    0.0479   -6.4658   -1.1563 H   0  0  0  0  0  0  0  0  0  0  0  0
   -3.6624   -3.6250   -1.3843 N   0  0  0  0  0  0  0  0  0  0  0  0
   -5.0276   -3.2694   -1.0226 C   0  0  0  0  0  0  0  0  0  0  0  0
   -3.1864   -3.1093   -2.1287 H   0  0  0  0  0  0  0  0  0  0  0  0
   -5.3250   -2.3490   -1.5343 H   0  0  0  0  0  0  0  0  0  0  0  0
   -5.7190   -4.0674   -1.3124 H   0  0  0  0  0  0  0  0  0  0  0  0
   -5.1104   -3.1070    0.0570 H   0  0  0  0  0  0  0  0  0  0  0  0
  1  2  2  0  0  0  0
  1  3  1  0  0  0  0
  1  7  1  0  0  0  0
  3  4  1  0  0  0  0
  3  5  1  0  0  0  0
  3  6  1  0  0  0  0
  7  8  1  0  0  0  0
  7 12  1  0  0  0  0
  8  9  1  0  0  0  0
  8 11  1  0  0  0  0
  8 13  1  0  0  0  0
  9 10  2  0  0  0  0
  9 17  1  0  0  0  0
 11 14  1  0  0  0  0
 11 15  1  0  0  0  0
 11 16  1  0  0  0  0
 17 18  1  0  0  0  0
 17 23  1  0  0  0  0
 18 19  1  0  0  0  0
 18 21  1  0  0  0  0
 18 24  1  0  0  0  0
 19 20  2  0  0  0  0
 19 31  1  0  0  0  0
 21 22  1  0  0  0  0
 21 25  1  0  0  0  0
 21 26  1  0  0  0  0
 22 23  1  0  0  0  0
 22 27  1  0  0  0  0
 22 28  1  0  0  0  0
 23 29  1  0  0  0  0
 23 30  1  0  0  0  0
 31 32  1  0  0  0  0
 31 36  1  0  0  0  0
 32 33  1  0  0  0  0
 32 35  1  0  0  0  0
 32 37  1  0  0  0  0
 33 34  2  0  0  0  0
 33 41  1  0  0  0  0
 35 38  1  0  0  0  0
 35 39  1  0  0  0  0
 35 40  1  0  0  0  0
 41 42  1  0  0  0  0
 41 43  1  0  0  0  0
 42 44  1  0  0  0  0
 42 45  1  0  0  0  0
 42 46  1  0  0  0  0
M  END
$$$$

  -OEChem-02062319123D

 46 46  0     1  0  0  0  0  0999 V2000
    0.2047   -3.4537    2.5259 C   0  0  0  0  0  0  0  0  0  0  0  0
   -0.1305   -3.8604    1.4230 O   0  0  0  0  0  0  0  0  0  0  0  0
    1.1070   -4.2979    3.4058 C   0  0  0  0  0  0  0  0  0  0  0  0
    0.6033   -4.5243    4.3488 H   0  0  0  0  0  0  0  0  0  0  0  0
    1.3521   -5.2382    2.9039 H   0  0  0  0  0  0  0  0  0  0  0  0
    2.0344   -3.7595    3.6163 H   0  0  0  0  0  0  0  0  0  0  0  0
   -0.2158   -2.2149    2.9647 N   0  0  0  0  0  0  0  0  0  0  0  0
   -0.9815   -1.2684    2.1403 C   0  0  2  0  0  0  0  0  0  0  0  0
   -0.0676   -0.4509    1.1914 C   0  0  0  0  0  0  0  0  0  0  0  0
    0.5119    0.5195    1.6694 O   0  0  0  0  0  0  0  0  0  0  0  0
   -1.7781   -0.3713    3.0958 C   0  0  0  0  0  0  0  0  0  0  0  0
    0.2044   -1.8649    3.8216 H   0  0  0  0  0  0  0  0  0  0  0  0
   -1.7094   -1.8098    1.5363 H   0  0  0  0  0  0  0  0  0  0  0  0
   -1.1082    0.1692    3.7725 H   0  0  0  0  0  0  0  0  0  0  0  0
   -2.3619    0.3611    2.5294 H   0  0  0  0  0  0  0  0  0  0  0  0
   -2.4671   -0.9736    3.6960 H   0  0  0  0  0  0  0  0  0  0  0  0
    0.4991   -1.0546    0.0689 N   0  0  0  0  0  0  0  0  0  0  0  0
   -0.2128   -1.0478   -1.2159 C   0  0  2  0  0  0  0  0  0  0  0  0
   -1.5954   -1.7225   -1.2877 C   0  0  0  0  0  0  0  0  0  0  0  0
   -2.4858   -1.1811   -1.9288 O   0  0  0  0  0  0  0  0  0  0  0  0
    0.7925   -1.7114   -2.1513 C   0  0  0  0  0  0  0  0  0  0  0  0
    2.1316   -1.1888   -1.6516 C   0  0  0  0  0  0  0  0  0  0  0  0
    1.9466   -1.0315   -0.1452 C   0  0  0  0  0  0  0  0  0  0  0  0
   -0.3499   -0.0050   -1.5239 H   0  0  0  0  0  0  0  0  0  0  0  0
    0.6130   -1.4508   -3.1994 H   0  0  0  0  0  0  0  0  0  0  0  0
    0.7522   -2.8017   -2.0495 H   0  0  0  0  0  0  0  0  0  0  0  0
    2.9535   -1.8697   -1.8944 H   0  0  0  0  0  0  0  0  0  0  0  0
    2.3432   -0.2132   -2.1016 H   0  0  0  0  0  0  0  0  0  0  0  0
    2.4121   -1.8674    0.3872 H   0  0  0  0  0  0  0  0  0  0  0  0
    2.4146   -0.1004    0.1932 H   0  0  0  0  0  0  0  0  0  0  0  0
   -1.8062   -2.9638   -0.7131 N   0  0  0  0  0  0  0  0  0  0  0  0
   -3.0515   -3.7577   -0.7013 C   0  0  2  0  0  0  0  0  0  0  0  0
   -3.4976   -4.3056   -2.0774 C   0  0  0  0  0  0  0  0  0  0  0  0
   -3.8685   -5.4685   -2.1739 O   0  0  0  0  0  0  0  0  0  0  0  0
   -4.1963   -2.9880   -0.0293 C   0  0  0  0  0  0  0  0  0  0  0  0
   -1.0266   -3.3285   -0.1534 H   0  0  0  0  0  0  0  0  0  0  0  0
   -2.8498   -4.6367   -0.0800 H   0  0  0  0  0  0  0  0  0  0  0  0
   -4.5037   -2.1288   -0.6321 H   0  0  0  0  0  0  0  0  0  0  0  0
   -5.0636   -3.6439    0.0950 H   0  0  0  0  0  0  0  0  0  0  0  0
   -3.8899   -2.6324    0.9583 H   0  0  0  0  0  0  0  0  0  0  0  0
   -3.5284   -3.4987   -3.1975 N   0  0  0  0  0  0  0  0  0  0  0  0
   -4.0055   -3.9318   -4.5031 C   0  0  0  0  0  0  0  0  0  0  0  0
   -3.2804   -2.5172   -3.0512 H   0  0  0  0  0  0  0  0  0  0  0  0
   -3.9347   -3.1100   -5.2221 H   0  0  0  0  0  0  0  0  0  0  0  0
   -3.4026   -4.7678   -4.8723 H   0  0  0  0  0  0  0  0  0  0  0  0
   -5.0513   -4.2500   -4.4422 H   0  0  0  0  0  0  0  0  0  0  0  0
  1  2  2  0  0  0  0
  1  3  1  0  0  0  0
  1  7  1  0  0  0  0
  3  4  1  0  0  0  0
  3  5  1  0  0  0  0
  3  6  1  0  0  0  0
  7  8  1  0  0  0  0
  7 12  1  0  0  0  0
  8  9  1  0  0  0  0
  8 11  1  0  0  0  0
  8 13  1  0  0  0  0
  9 10  2  0  0  0  0
  9 17  1  0  0  0  0
 11 14  1  0  0  0  0
 11 15  1  0  0  0  0
 11 16  1  0  0  0  0
 17 18  1  0  0  0  0
 17 23  1  0  0  0  0
 18 19  1  0  0  0  0
 18 21  1  0  0  0  0
 18 24  1  0  0  0  0
 19 20  2  0  0  0  0
 19 31  1  0  0  0  0
 21 22  1  0  0  0  0
 21 25  1  0  0  0  0
 21 26  1  0  0  0  0
 22 23  1  0  0  0  0
 22 27  1  0  0  0  0
 22 28  1  0  0  0  0
 23 29  1  0  0  0  0
 23 30  1  0  0  0  0
 31 32  1  0  0  0  0
 31 36  1  0  0  0  0
 32 33  1  0  0  0  0
 32 35  1  0  0  0  0
 32 37  1  0  0  0  0
 33 34  2  0  0  0  0
 33 41  1  0  0  0  0
 35 38  1  0  0  0  0
 35 39  1  0  0  0  0
 35 40  1  0  0  0  0
 41 42  1  0  0  0  0
 41 43  1  0  0  0  0
 42 44  1  0  0  0  0
 42 45  1  0  0  0  0
 42 46  1  0  0  0  0
M  END
$$$$

  -OEChem-02062319123D

 46 46  0     1  0  0  0  0  0999 V2000
   -0.1018   -3.6281    2.1301 C   0  0  0  0  0  0  0  0  0  0  0  0
   -0.5451   -3.7848    1.0019 O   0  0  0  0  0  0  0  0  0  0  0  0
    0.7385   -4.7141    2.7749 C   0  0  0  0  0  0  0  0  0  0  0  0
    0.2579   -5.0632    3.6923 H   0  0  0  0  0  0  0  0  0  0  0  0
    0.8491   -5.5614    2.0923 H   0  0  0  0  0  0  0  0  0  0  0  0
    1.7310   -4.3256    3.0162 H   0  0  0  0  0  0  0  0  0  0  0  0
   -0.3381   -2.4493    2.8079 N   0  0  0  0  0  0  0  0  0  0  0  0
   -1.0695   -1.3052    2.2418 C   0  0  2  0  0  0  0  0  0  0  0  0
   -0.1654   -0.3874    1.3786 C   0  0  0  0  0  0  0  0  0  0  0  0
    0.2689    0.6596    1.8465 O   0  0  0  0  0  0  0  0  0  0  0  0
   -1.7317   -0.5597    3.4071 C   0  0  0  0  0  0  0  0  0  0  0  0
    0.1245   -2.3283    3.7047 H   0  0  0  0  0  0  0  0  0  0  0  0
   -1.8738   -1.6693    1.5981 H   0  0  0  0  0  0  0  0  0  0  0  0
   -0.9776   -0.1792    4.1037 H   0  0  0  0  0  0  0  0  0  0  0  0
   -2.3139    0.2877    3.0310 H   0  0  0  0  0  0  0  0  0  0  0  0
   -2.4067   -1.2266    3.9519 H   0  0  0  0  0  0  0  0  0  0  0  0
    0.4722   -0.9110    0.2598 N   0  0  0  0  0  0  0  0  0  0  0  0
   -0.0536   -0.5727   -1.0643 C   0  0  2  0  0  0  0  0  0  0  0  0
   -1.5065   -0.9953   -1.3470 C   0  0  0  0  0  0  0  0  0  0  0  0
   -2.2438   -0.2270   -1.9494 O   0  0  0  0  0  0  0  0  0  0  0  0
    0.9592   -1.2307   -1.9918 C   0  0  0  0  0  0  0  0  0  0  0  0
    2.2819   -0.9887   -1.2745 C   0  0  0  0  0  0  0  0  0  0  0  0
    1.9296   -0.9971    0.2128 C   0  0  0  0  0  0  0  0  0  0  0  0
   -0.0029    0.5146   -1.1939 H   0  0  0  0  0  0  0  0  0  0  0  0
    0.9461   -0.7921   -2.9949 H   0  0  0  0  0  0  0  0  0  0  0  0
    0.7636   -2.3056   -2.0751 H   0  0  0  0  0  0  0  0  0  0  0  0
    3.0246   -1.7533   -1.5226 H   0  0  0  0  0  0  0  0  0  0  0  0
    2.6846   -0.0092   -1.5532 H   0  0  0  0  0  0  0  0  0  0  0  0
    2.2628   -1.9293    0.6800 H   0  0  0  0  0  0  0  0  0  0  0  0
    2.4167   -0.1581    0.7224 H   0  0  0  0  0  0  0  0  0  0  0  0
   -1.9488   -2.2601   -0.9980 N   0  0  0  0  0  0  0  0  0  0  0  0
   -3.3061   -2.8195   -1.1618 C   0  0  2  0  0  0  0  0  0  0  0  0
   -3.7461   -3.0733   -2.6230 C   0  0  0  0  0  0  0  0  0  0  0  0
   -4.3177   -4.1180   -2.9086 O   0  0  0  0  0  0  0  0  0  0  0  0
   -4.3493   -1.9677   -0.4249 C   0  0  0  0  0  0  0  0  0  0  0  0
   -1.2795   -2.8301   -0.4679 H   0  0  0  0  0  0  0  0  0  0  0  0
   -3.2950   -3.8019   -0.6773 H   0  0  0  0  0  0  0  0  0  0  0  0
   -4.4707   -0.9902   -0.9005 H   0  0  0  0  0  0  0  0  0  0  0  0
   -5.3197   -2.4740   -0.4363 H   0  0  0  0  0  0  0  0  0  0  0  0
   -4.0527   -1.8154    0.6164 H   0  0  0  0  0  0  0  0  0  0  0  0
   -3.5560   -2.1231   -3.6066 N   0  0  0  0  0  0  0  0  0  0  0  0
   -4.0455   -2.2533   -4.9714 C   0  0  0  0  0  0  0  0  0  0  0  0
   -3.1534   -1.2345   -3.2987 H   0  0  0  0  0  0  0  0  0  0  0  0
   -3.7773   -1.3671   -5.5542 H   0  0  0  0  0  0  0  0  0  0  0  0
   -3.6046   -3.1315   -5.4542 H   0  0  0  0  0  0  0  0  0  0  0  0
   -5.1354   -2.3563   -4.9788 H   0  0  0  0  0  0  0  0  0  0  0  0
  1  2  2  0  0  0  0
  1  3  1  0  0  0  0
  1  7  1  0  0  0  0
  3  4  1  0  0  0  0
  3  5  1  0  0  0  0
  3  6  1  0  0  0  0
  7  8  1  0  0  0  0
  7 12  1  0  0  0  0
  8  9  1  0  0  0  0
  8 11  1  0  0  0  0
  8 13  1  0  0  0  0
  9 10  2  0  0  0  0
  9 17  1  0  0  0  0
 11 14  1  0  0  0  0
 11 15  1  0  0  0  0
 11 16  1  0  0  0  0
 17 18  1  0  0  0  0
 17 23  1  0  0  0  0
 18 19  1  0  0  0  0
 18 21  1  0  0  0  0
 18 24  1  0  0  0  0
 19 20  2  0  0  0  0
 19 31  1  0  0  0  0
 21 22  1  0  0  0  0
 21 25  1  0  0  0  0
 21 26  1  0  0  0  0
 22 23  1  0  0  0  0
 22 27  1  0  0  0  0
 22 28  1  0  0  0  0
 23 29  1  0  0  0  0
 23 30  1  0  0  0  0
 31 32  1  0  0  0  0
 31 36  1  0  0  0  0
 32 33  1  0  0  0  0
 32 35  1  0  0  0  0
 32 37  1  0  0  0  0
 33 34  2  0  0  0  0
 33 41  1  0  0  0  0
 35 38  1  0  0  0  0
 35 39  1  0  0  0  0
 35 40  1  0  0  0  0
 41 42  1  0  0  0  0
 41 43  1  0  0  0  0
 42 44  1  0  0  0  0
 42 45  1  0  0  0  0
 42 46  1  0  0  0  0
M  END
$$$$

  -OEChem-02062319123D

 46 46  0     1  0  0  0  0  0999 V2000
    0.3850   -3.3827    4.1713 C   0  0  0  0  0  0  0  0  0  0  0  0
    0.7324   -4.4806    3.7656 O   0  0  0  0  0  0  0  0  0  0  0  0
    0.3702   -3.0881    5.6596 C   0  0  0  0  0  0  0  0  0  0  0  0
   -0.6363   -2.8000    5.9730 H   0  0  0  0  0  0  0  0  0  0  0  0
    0.6744   -3.9749    6.2229 H   0  0  0  0  0  0  0  0  0  0  0  0
    1.0620   -2.2729    5.8854 H   0  0  0  0  0  0  0  0  0  0  0  0
    0.0061   -2.4057    3.2752 N   0  0  0  0  0  0  0  0  0  0  0  0
    0.0994   -2.5302    1.8134 C   0  0  2  0  0  0  0  0  0  0  0  0
    0.5947   -1.2063    1.1714 C   0  0  0  0  0  0  0  0  0  0  0  0
    0.3242   -0.1717    1.7733 O   0  0  0  0  0  0  0  0  0  0  0  0
   -1.2720   -2.9855    1.3158 C   0  0  0  0  0  0  0  0  0  0  0  0
   -0.1694   -1.4722    3.6464 H   0  0  0  0  0  0  0  0  0  0  0  0
    0.8361   -3.2992    1.5581 H   0  0  0  0  0  0  0  0  0  0  0  0
   -2.0063   -2.1828    1.4320 H   0  0  0  0  0  0  0  0  0  0  0  0
   -1.2173   -3.2804    0.2664 H   0  0  0  0  0  0  0  0  0  0  0  0
   -1.6137   -3.8543    1.8878 H   0  0  0  0  0  0  0  0  0  0  0  0
    0.8241   -1.0670   -0.1960 N   0  0  0  0  0  0  0  0  0  0  0  0
    0.1286   -0.0807   -1.0431 C   0  0  2  0  0  0  0  0  0  0  0  0
   -1.4076   -0.1597   -1.1418 C   0  0  0  0  0  0  0  0  0  0  0  0
   -2.0530    0.8739   -1.2499 O   0  0  0  0  0  0  0  0  0  0  0  0
    0.7505   -0.3213   -2.4316 C   0  0  0  0  0  0  0  0  0  0  0  0
    1.8895   -1.3191   -2.2220 C   0  0  0  0  0  0  0  0  0  0  0  0
    1.5126   -2.0850   -0.9646 C   0  0  0  0  0  0  0  0  0  0  0  0
    0.3882    0.9248   -0.6931 H   0  0  0  0  0  0  0  0  0  0  0  0
    1.1188    0.6142   -2.8654 H   0  0  0  0  0  0  0  0  0  0  0  0
    0.0149   -0.7452   -3.1243 H   0  0  0  0  0  0  0  0  0  0  0  0
    2.0204   -1.9829   -3.0826 H   0  0  0  0  0  0  0  0  0  0  0  0
    2.8270   -0.7779   -2.0552 H   0  0  0  0  0  0  0  0  0  0  0  0
    0.8470   -2.9230   -1.1965 H   0  0  0  0  0  0  0  0  0  0  0  0
    2.4032   -2.4657   -0.4523 H   0  0  0  0  0  0  0  0  0  0  0  0
   -2.0321   -1.3819   -1.3274 N   0  0  0  0  0  0  0  0  0  0  0  0
   -3.4574   -1.6215   -1.6342 C   0  0  2  0  0  0  0  0  0  0  0  0
   -3.8912   -1.1419   -3.0390 C   0  0  0  0  0  0  0  0  0  0  0  0
   -4.3435   -1.9517   -3.8374 O   0  0  0  0  0  0  0  0  0  0  0  0
   -4.3774   -1.0434   -0.5488 C   0  0  0  0  0  0  0  0  0  0  0  0
   -1.4093   -2.1827   -1.3612 H   0  0  0  0  0  0  0  0  0  0  0  0
   -3.6052   -2.7066   -1.6239 H   0  0  0  0  0  0  0  0  0  0  0  0
   -4.3649    0.0502   -0.5545 H   0  0  0  0  0  0  0  0  0  0  0  0
   -5.4075   -1.3710   -0.7204 H   0  0  0  0  0  0  0  0  0  0  0  0
   -4.0662   -1.3888    0.4409 H   0  0  0  0  0  0  0  0  0  0  0  0
   -3.7499    0.1772   -3.4206 N   0  0  0  0  0  0  0  0  0  0  0  0
   -4.1007    0.6877   -4.7381 C   0  0  0  0  0  0  0  0  0  0  0  0
   -3.2980    0.7972   -2.7427 H   0  0  0  0  0  0  0  0  0  0  0  0
   -3.9333    1.7682   -4.7806 H   0  0  0  0  0  0  0  0  0  0  0  0
   -3.4884    0.2099   -5.5099 H   0  0  0  0  0  0  0  0  0  0  0  0
   -5.1564    0.4936   -4.9544 H   0  0  0  0  0  0  0  0  0  0  0  0
  1  2  2  0  0  0  0
  1  3  1  0  0  0  0
  1  7  1  0  0  0  0
  3  4  1  0  0  0  0
  3  5  1  0  0  0  0
  3  6  1  0  0  0  0
  7  8  1  0  0  0  0
  7 12  1  0  0  0  0
  8  9  1  0  0  0  0
  8 11  1  0  0  0  0
  8 13  1  0  0  0  0
  9 10  2  0  0  0  0
  9 17  1  0  0  0  0
 11 14  1  0  0  0  0
 11 15  1  0  0  0  0
 11 16  1  0  0  0  0
 17 18  1  0  0  0  0
 17 23  1  0  0  0  0
 18 19  1  0  0  0  0
 18 21  1  0  0  0  0
 18 24  1  0  0  0  0
 19 20  2  0  0  0  0
 19 31  1  0  0  0  0
 21 22  1  0  0  0  0
 21 25  1  0  0  0  0
 21 26  1  0  0  0  0
 22 23  1  0  0  0  0
 22 27  1  0  0  0  0
 22 28  1  0  0  0  0
 23 29  1  0  0  0  0
 23 30  1  0  0  0  0
 31 32  1  0  0  0  0
 31 36  1  0  0  0  0
 32 33  1  0  0  0  0
 32 35  1  0  0  0  0
 32 37  1  0  0  0  0
 33 34  2  0  0  0  0
 33 41  1  0  0  0  0
 35 38  1  0  0  0  0
 35 39  1  0  0  0  0
 35 40  1  0  0  0  0
 41 42  1  0  0  0  0
 41 43  1  0  0  0  0
 42 44  1  0  0  0  0
 42 45  1  0  0  0  0
 42 46  1  0  0  0  0
M  END
$$$$

  -OEChem-02062319123D

 46 46  0     1  0  0  0  0  0999 V2000
    0.0536   -3.5570    3.9910 C   0  0  0  0  0  0  0  0  0  0  0  0
    0.2835   -4.6604    3.5216 O   0  0  0  0  0  0  0  0  0  0  0  0
    0.0109   -3.3613    5.4948 C   0  0  0  0  0  0  0  0  0  0  0  0
   -0.9663   -2.9740    5.7935 H   0  0  0  0  0  0  0  0  0  0  0  0
    0.1827   -4.3140    6.0037 H   0  0  0  0  0  0  0  0  0  0  0  0
    0.7851   -2.6538    5.8015 H   0  0  0  0  0  0  0  0  0  0  0  0
   -0.1652   -2.4850    3.1517 N   0  0  0  0  0  0  0  0  0  0  0  0
   -0.0361   -2.5327    1.6891 C   0  0  2  0  0  0  0  0  0  0  0  0
    0.5685   -1.2206    1.1308 C   0  0  0  0  0  0  0  0  0  0  0  0
    0.3721   -0.1899    1.7667 O   0  0  0  0  0  0  0  0  0  0  0  0
   -1.4279   -2.8139    1.1150 C   0  0  0  0  0  0  0  0  0  0  0  0
   -0.2620   -1.5636    3.5778 H   0  0  0  0  0  0  0  0  0  0  0  0
    0.6381   -3.3476    1.4066 H   0  0  0  0  0  0  0  0  0  0  0  0
   -2.1065   -1.9838    1.3344 H   0  0  0  0  0  0  0  0  0  0  0  0
   -1.3780   -2.9538    0.0327 H   0  0  0  0  0  0  0  0  0  0  0  0
   -1.8405   -3.7267    1.5565 H   0  0  0  0  0  0  0  0  0  0  0  0
    0.9050   -1.0887   -0.2143 N   0  0  0  0  0  0  0  0  0  0  0  0
    0.5759    0.1032   -1.0112 C   0  0  2  0  0  0  0  0  0  0  0  0
   -0.9251    0.4330   -1.1256 C   0  0  0  0  0  0  0  0  0  0  0  0
   -1.2844    1.6018   -1.1693 O   0  0  0  0  0  0  0  0  0  0  0  0
    1.1702   -0.2237   -2.3914 C   0  0  0  0  0  0  0  0  0  0  0  0
    2.0870   -1.4258   -2.1713 C   0  0  0  0  0  0  0  0  0  0  0  0
    1.4713   -2.1716   -0.9976 C   0  0  0  0  0  0  0  0  0  0  0  0
    1.0860    0.9729   -0.5828 H   0  0  0  0  0  0  0  0  0  0  0  0
    1.7193    0.6303   -2.8012 H   0  0  0  0  0  0  0  0  0  0  0  0
    0.3813   -0.4910   -3.1030 H   0  0  0  0  0  0  0  0  0  0  0  0
    2.1635   -2.0555   -3.0634 H   0  0  0  0  0  0  0  0  0  0  0  0
    3.0912   -1.0813   -1.9019 H   0  0  0  0  0  0  0  0  0  0  0  0
    0.6915   -2.8618   -1.3360 H   0  0  0  0  0  0  0  0  0  0  0  0
    2.2337   -2.7339   -0.4470 H   0  0  0  0  0  0  0  0  0  0  0  0
   -1.8317   -0.5810   -1.3932 N   0  0  0  0  0  0  0  0  0  0  0  0
   -3.2827   -0.4467   -1.6345 C   0  0  2  0  0  0  0  0  0  0  0  0
   -3.6496    0.2422   -2.9696 C   0  0  0  0  0  0  0  0  0  0  0  0
   -4.3677   -0.3425   -3.7699 O   0  0  0  0  0  0  0  0  0  0  0  0
   -3.9844    0.2370   -0.4519 C   0  0  0  0  0  0  0  0  0  0  0  0
   -1.4345   -1.5136   -1.4417 H   0  0  0  0  0  0  0  0  0  0  0  0
   -3.6881   -1.4619   -1.6962 H   0  0  0  0  0  0  0  0  0  0  0  0
   -3.7139    1.2949   -0.3850 H   0  0  0  0  0  0  0  0  0  0  0  0
   -5.0703    0.1717   -0.5733 H   0  0  0  0  0  0  0  0  0  0  0  0
   -3.7115   -0.2510    0.4882 H   0  0  0  0  0  0  0  0  0  0  0  0
   -3.1701    1.4977   -3.2847 N   0  0  0  0  0  0  0  0  0  0  0  0
   -3.4691    2.2009   -4.5242 C   0  0  0  0  0  0  0  0  0  0  0  0
   -2.5379    1.9240   -2.6015 H   0  0  0  0  0  0  0  0  0  0  0  0
   -2.9815    3.1804   -4.5285 H   0  0  0  0  0  0  0  0  0  0  0  0
   -3.1086    1.6298   -5.3860 H   0  0  0  0  0  0  0  0  0  0  0  0
   -4.5487    2.3516   -4.6271 H   0  0  0  0  0  0  0  0  0  0  0  0
  1  2  2  0  0  0  0
  1  3  1  0  0  0  0
  1  7  1  0  0  0  0
  3  4  1  0  0  0  0
  3  5  1  0  0  0  0
  3  6  1  0  0  0  0
  7  8  1  0  0  0  0
  7 12  1  0  0  0  0
  8  9  1  0  0  0  0
  8 11  1  0  0  0  0
  8 13  1  0  0  0  0
  9 10  2  0  0  0  0
  9 17  1  0  0  0  0
 11 14  1  0  0  0  0
 11 15  1  0  0  0  0
 11 16  1  0  0  0  0
 17 18  1  0  0  0  0
 17 23  1  0  0  0  0
 18 19  1  0  0  0  0
 18 21  1  0  0  0  0
 18 24  1  0  0  0  0
 19 20  2  0  0  0  0
 19 31  1  0  0  0  0
 21 22  1  0  0  0  0
 21 25  1  0  0  0  0
 21 26  1  0  0  0  0
 22 23  1  0  0  0  0
 22 27  1  0  0  0  0
 22 28  1  0  0  0  0
 23 29  1  0  0  0  0
 23 30  1  0  0  0  0
 31 32  1  0  0  0  0
 31 36  1  0  0  0  0
 32 33  1  0  0  0  0
 32 35  1  0  0  0  0
 32 37  1  0  0  0  0
 33 34  2  0  0  0  0
 33 41  1  0  0  0  0
 35 38  1  0  0  0  0
 35 39  1  0  0  0  0
 35 40  1  0  0  0  0
 41 42  1  0  0  0  0
 41 43  1  0  0  0  0
 42 44  1  0  0  0  0
 42 45  1  0  0  0  0
 42 46  1  0  0  0  0
M  END
$$$$

  -OEChem-02062319123D

 46 46  0     1  0  0  0  0  0999 V2000
   -0.1842   -3.6397    3.8680 C   0  0  0  0  0  0  0  0  0  0  0  0
   -0.0059   -4.7370    3.3634 O   0  0  0  0  0  0  0  0  0  0  0  0
   -0.2108   -3.4881    5.3776 C   0  0  0  0  0  0  0  0  0  0  0  0
   -1.1757   -3.0861    5.6960 H   0  0  0  0  0  0  0  0  0  0  0  0
   -0.0589   -4.4591    5.8573 H   0  0  0  0  0  0  0  0  0  0  0  0
    0.5825   -2.8083    5.6983 H   0  0  0  0  0  0  0  0  0  0  0  0
   -0.3522   -2.5316    3.0645 N   0  0  0  0  0  0  0  0  0  0  0  0
   -0.2011   -2.5323    1.6030 C   0  0  2  0  0  0  0  0  0  0  0  0
    0.4831   -1.2383    1.1011 C   0  0  0  0  0  0  0  0  0  0  0  0
    0.3539   -0.2188    1.7710 O   0  0  0  0  0  0  0  0  0  0  0  0
   -1.5980   -2.6808    0.9908 C   0  0  0  0  0  0  0  0  0  0  0  0
   -0.3942   -1.6221    3.5234 H   0  0  0  0  0  0  0  0  0  0  0  0
    0.4197   -3.3802    1.2968 H   0  0  0  0  0  0  0  0  0  0  0  0
   -2.2292   -1.8299    1.2671 H   0  0  0  0  0  0  0  0  0  0  0  0
   -1.5387   -2.7320   -0.0998 H   0  0  0  0  0  0  0  0  0  0  0  0
   -2.0726   -3.5990    1.3518 H   0  0  0  0  0  0  0  0  0  0  0  0
    0.9318   -1.1108   -0.2120 N   0  0  0  0  0  0  0  0  0  0  0  0
    0.9885    0.1777   -0.9182 C   0  0  2  0  0  0  0  0  0  0  0  0
   -0.3726    0.8864   -1.0559 C   0  0  0  0  0  0  0  0  0  0  0  0
   -0.4308    2.1080   -1.0110 O   0  0  0  0  0  0  0  0  0  0  0  0
    1.5719   -0.1933   -2.2887 C   0  0  0  0  0  0  0  0  0  0  0  0
    2.2366   -1.5513   -2.0816 C   0  0  0  0  0  0  0  0  0  0  0  0
    1.3934   -2.2325   -1.0130 C   0  0  0  0  0  0  0  0  0  0  0  0
    1.6752    0.8495   -0.3910 H   0  0  0  0  0  0  0  0  0  0  0  0
    2.2862    0.5596   -2.6377 H   0  0  0  0  0  0  0  0  0  0  0  0
    0.7786   -0.2842   -3.0387 H   0  0  0  0  0  0  0  0  0  0  0  0
    2.2795   -2.1357   -3.0061 H   0  0  0  0  0  0  0  0  0  0  0  0
    3.2578   -1.4107   -1.7115 H   0  0  0  0  0  0  0  0  0  0  0  0
    0.5489   -2.7653   -1.4624 H   0  0  0  0  0  0  0  0  0  0  0  0
    1.9980   -2.9408   -0.4357 H   0  0  0  0  0  0  0  0  0  0  0  0
   -1.4814    0.1483   -1.4403 N   0  0  0  0  0  0  0  0  0  0  0  0
   -2.8664    0.6333   -1.6021 C   0  0  2  0  0  0  0  0  0  0  0  0
   -3.0964    1.5491   -2.8268 C   0  0  0  0  0  0  0  0  0  0  0  0
   -3.9701    1.2620   -3.6350 O   0  0  0  0  0  0  0  0  0  0  0  0
   -3.3670    1.3004   -0.3133 C   0  0  0  0  0  0  0  0  0  0  0  0
   -1.3268   -0.8525   -1.5066 H   0  0  0  0  0  0  0  0  0  0  0  0
   -3.4928   -0.2499   -1.7648 H   0  0  0  0  0  0  0  0  0  0  0  0
   -2.8571    2.2518   -0.1347 H   0  0  0  0  0  0  0  0  0  0  0  0
   -4.4409    1.4982   -0.3869 H   0  0  0  0  0  0  0  0  0  0  0  0
   -3.1931    0.6470    0.5467 H   0  0  0  0  0  0  0  0  0  0  0  0
   -2.3318    2.6796   -3.0329 N   0  0  0  0  0  0  0  0  0  0  0  0
   -2.4860    3.5748   -4.1705 C   0  0  0  0  0  0  0  0  0  0  0  0
   -1.5901    2.8540   -2.3490 H   0  0  0  0  0  0  0  0  0  0  0  0
   -1.7760    4.4039   -4.0965 H   0  0  0  0  0  0  0  0  0  0  0  0
   -2.2988    3.0392   -5.1069 H   0  0  0  0  0  0  0  0  0  0  0  0
   -3.4991    3.9890   -4.1966 H   0  0  0  0  0  0  0  0  0  0  0  0
  1  2  2  0  0  0  0
  1  3  1  0  0  0  0
  1  7  1  0  0  0  0
  3  4  1  0  0  0  0
  3  5  1  0  0  0  0
  3  6  1  0  0  0  0
  7  8  1  0  0  0  0
  7 12  1  0  0  0  0
  8  9  1  0  0  0  0
  8 11  1  0  0  0  0
  8 13  1  0  0  0  0
  9 10  2  0  0  0  0
  9 17  1  0  0  0  0
 11 14  1  0  0  0  0
 11 15  1  0  0  0  0
 11 16  1  0  0  0  0
 17 18  1  0  0  0  0
 17 23  1  0  0  0  0
 18 19  1  0  0  0  0
 18 21  1  0  0  0  0
 18 24  1  0  0  0  0
 19 20  2  0  0  0  0
 19 31  1  0  0  0  0
 21 22  1  0  0  0  0
 21 25  1  0  0  0  0
 21 26  1  0  0  0  0
 22 23  1  0  0  0  0
 22 27  1  0  0  0  0
 22 28  1  0  0  0  0
 23 29  1  0  0  0  0
 23 30  1  0  0  0  0
 31 32  1  0  0  0  0
 31 36  1  0  0  0  0
 32 33  1  0  0  0  0
 32 35  1  0  0  0  0
 32 37  1  0  0  0  0
 33 34  2  0  0  0  0
 33 41  1  0  0  0  0
 35 38  1  0  0  0  0
 35 39  1  0  0  0  0
 35 40  1  0  0  0  0
 41 42  1  0  0  0  0
 41 43  1  0  0  0  0
 42 44  1  0  0  0  0
 42 45  1  0  0  0  0
 42 46  1  0  0  0  0
M  END
$$$$

  -OEChem-02062319123D

 46 46  0     1  0  0  0  0  0999 V2000
   -0.2984   -3.7276    3.7879 C   0  0  0  0  0  0  0  0  0  0  0  0
   -0.0934   -4.8058    3.2529 O   0  0  0  0  0  0  0  0  0  0  0  0
   -0.3317   -3.6221    5.3010 C   0  0  0  0  0  0  0  0  0  0  0  0
   -1.3167   -3.2822    5.6298 H   0  0  0  0  0  0  0  0  0  0  0  0
   -0.1271   -4.5975    5.7515 H   0  0  0  0  0  0  0  0  0  0  0  0
    0.4241   -2.9106    5.6425 H   0  0  0  0  0  0  0  0  0  0  0  0
   -0.4950   -2.6008    3.0174 N   0  0  0  0  0  0  0  0  0  0  0  0
   -0.3305   -2.5543    1.5580 C   0  0  2  0  0  0  0  0  0  0  0  0
    0.3825   -1.2571    1.1059 C   0  0  0  0  0  0  0  0  0  0  0  0
    0.3074   -0.2689    1.8293 O   0  0  0  0  0  0  0  0  0  0  0  0
   -1.7244   -2.6522    0.9302 C   0  0  0  0  0  0  0  0  0  0  0  0
   -0.5332   -1.7055    3.5038 H   0  0  0  0  0  0  0  0  0  0  0  0
    0.2738   -3.4043    1.2282 H   0  0  0  0  0  0  0  0  0  0  0  0
   -2.3431   -1.8027    1.2375 H   0  0  0  0  0  0  0  0  0  0  0  0
   -1.6573   -2.6582   -0.1612 H   0  0  0  0  0  0  0  0  0  0  0  0
   -2.2171   -3.5764    1.2491 H   0  0  0  0  0  0  0  0  0  0  0  0
    0.9223   -1.1066   -0.1716 N   0  0  0  0  0  0  0  0  0  0  0  0
    1.3131    0.1992   -0.7253 C   0  0  2  0  0  0  0  0  0  0  0  0
    0.1665    1.2232   -0.8284 C   0  0  0  0  0  0  0  0  0  0  0  0
    0.3996    2.4140   -0.6672 O   0  0  0  0  0  0  0  0  0  0  0  0
    1.8809   -0.1531   -2.1051 C   0  0  0  0  0  0  0  0  0  0  0  0
    2.2848   -1.6192   -1.9951 C   0  0  0  0  0  0  0  0  0  0  0  0
    1.2705   -2.2256   -1.0350 C   0  0  0  0  0  0  0  0  0  0  0  0
    2.1014    0.6316   -0.0993 H   0  0  0  0  0  0  0  0  0  0  0  0
    2.7305    0.4865   -2.3658 H   0  0  0  0  0  0  0  0  0  0  0  0
    1.1161   -0.0394   -2.8812 H   0  0  0  0  0  0  0  0  0  0  0  0
    2.2820   -2.1220   -2.9675 H   0  0  0  0  0  0  0  0  0  0  0  0
    3.2899   -1.6952   -1.5665 H   0  0  0  0  0  0  0  0  0  0  0  0
    0.3896   -2.5860   -1.5765 H   0  0  0  0  0  0  0  0  0  0  0  0
    1.7193   -3.0596   -0.4851 H   0  0  0  0  0  0  0  0  0  0  0  0
   -1.0583    0.8118   -1.3310 N   0  0  0  0  0  0  0  0  0  0  0  0
   -2.2796    1.6261   -1.4898 C   0  0  2  0  0  0  0  0  0  0  0  0
   -2.2215    2.6823   -2.6180 C   0  0  0  0  0  0  0  0  0  0  0  0
   -3.1367    2.7442   -3.4287 O   0  0  0  0  0  0  0  0  0  0  0  0
   -2.6854    2.2671   -0.1557 C   0  0  0  0  0  0  0  0  0  0  0  0
   -1.1458   -0.1898   -1.4702 H   0  0  0  0  0  0  0  0  0  0  0  0
   -3.0832    0.9362   -1.7667 H   0  0  0  0  0  0  0  0  0  0  0  0
   -1.9785    3.0475    0.1412 H   0  0  0  0  0  0  0  0  0  0  0  0
   -3.6774    2.7213   -0.2448 H   0  0  0  0  0  0  0  0  0  0  0  0
   -2.7198    1.5111    0.6347 H   0  0  0  0  0  0  0  0  0  0  0  0
   -1.1600    3.5571   -2.7321 N   0  0  0  0  0  0  0  0  0  0  0  0
   -1.0599    4.5954   -3.7476 C   0  0  0  0  0  0  0  0  0  0  0  0
   -0.4325    3.4785   -2.0161 H   0  0  0  0  0  0  0  0  0  0  0  0
   -0.1009    5.1151   -3.6605 H   0  0  0  0  0  0  0  0  0  0  0  0
   -1.1263    4.1598   -4.7500 H   0  0  0  0  0  0  0  0  0  0  0  0
   -1.8649    5.3275   -3.6263 H   0  0  0  0  0  0  0  0  0  0  0  0
  1  2  2  0  0  0  0
  1  3  1  0  0  0  0
  1  7  1  0  0  0  0
  3  4  1  0  0  0  0
  3  5  1  0  0  0  0
  3  6  1  0  0  0  0
  7  8  1  0  0  0  0
  7 12  1  0  0  0  0
  8  9  1  0  0  0  0
  8 11  1  0  0  0  0
  8 13  1  0  0  0  0
  9 10  2  0  0  0  0
  9 17  1  0  0  0  0
 11 14  1  0  0  0  0
 11 15  1  0  0  0  0
 11 16  1  0  0  0  0
 17 18  1  0  0  0  0
 17 23  1  0  0  0  0
 18 19  1  0  0  0  0
 18 21  1  0  0  0  0
 18 24  1  0  0  0  0
 19 20  2  0  0  0  0
 19 31  1  0  0  0  0
 21 22  1  0  0  0  0
 21 25  1  0  0  0  0
 21 26  1  0  0  0  0
 22 23  1  0  0  0  0
 22 27  1  0  0  0  0
 22 28  1  0  0  0  0
 23 29  1  0  0  0  0
 23 30  1  0  0  0  0
 31 32  1  0  0  0  0
 31 36  1  0  0  0  0
 32 33  1  0  0  0  0
 32 35  1  0  0  0  0
 32 37  1  0  0  0  0
 33 34  2  0  0  0  0
 33 41  1  0  0  0  0
 35 38  1  0  0  0  0
 35 39  1  0  0  0  0
 35 40  1  0  0  0  0
 41 42  1  0  0  0  0
 41 43  1  0  0  0  0
 42 44  1  0  0  0  0
 42 45  1  0  0  0  0
 42 46  1  0  0  0  0
M  END
$$$$
