
  -OEChem-02062319033D

 46 46  0     1  0  0  0  0  0999 V2000
   -0.6012   -3.2995    3.8205 C   0  0  0  0  0  0  0  0  0  0  0  0
   -0.6574   -4.4683    3.4568 O   0  0  0  0  0  0  0  0  0  0  0  0
   -0.4935   -2.9859    5.2760 C   0  0  0  0  0  0  0  0  0  0  0  0
   -1.4789   -2.8689    5.7550 H   0  0  0  0  0  0  0  0  0  0  0  0
    0.0123   -3.7847    5.8419 H   0  0  0  0  0  0  0  0  0  0  0  0
    0.0585   -2.0642    5.5199 H   0  0  0  0  0  0  0  0  0  0  0  0
   -0.6261   -2.1849    2.9917 N   0  0  0  0  0  0  0  0  0  0  0  0
   -0.7237   -2.2601    1.5650 C   0  0  2  0  0  0  0  0  0  0  0  0
    0.1695   -1.1513    1.0687 C   0  0  0  0  0  0  0  0  0  0  0  0
    0.3193   -0.1267    1.7365 O   0  0  0  0  0  0  0  0  0  0  0  0
   -2.1397   -2.0663    1.0750 C   0  0  0  0  0  0  0  0  0  0  0  0
   -0.5717   -1.2606    3.4238 H   0  0  0  0  0  0  0  0  0  0  0  0
   -0.3076   -3.2111    1.2363 H   0  0  0  0  0  0  0  0  0  0  0  0
   -2.5584   -1.1089    1.4061 H   0  0  0  0  0  0  0  0  0  0  0  0
   -2.1682   -2.0790   -0.0197 H   0  0  0  0  0  0  0  0  0  0  0  0
   -2.7965   -2.8601    1.4459 H   0  0  0  0  0  0  0  0  0  0  0  0
    0.7724   -1.3745   -0.1593 N   0  0  0  0  0  0  0  0  0  0  0  0
    1.6644   -0.4046   -0.7812 C   0  0  2  0  0  0  0  0  0  0  0  0
    0.8763    0.8546   -0.9831 C   0  0  0  0  0  0  0  0  0  0  0  0
    1.3755    1.9338   -0.6868 O   0  0  0  0  0  0  0  0  0  0  0  0
    2.0641   -1.0409   -2.1075 C   0  0  0  0  0  0  0  0  0  0  0  0
    1.9044   -2.5447   -1.8976 C   0  0  0  0  0  0  0  0  0  0  0  0
    0.7499   -2.6270   -0.9105 C   0  0  0  0  0  0  0  0  0  0  0  0
    2.5189   -0.1855   -0.1340 H   0  0  0  0  0  0  0  0  0  0  0  0
    3.1169   -0.8245   -2.3246 H   0  0  0  0  0  0  0  0  0  0  0  0
    1.4574   -0.7057   -2.9543 H   0  0  0  0  0  0  0  0  0  0  0  0
    1.6386   -3.0353   -2.8411 H   0  0  0  0  0  0  0  0  0  0  0  0
    2.8187   -3.0078   -1.5160 H   0  0  0  0  0  0  0  0  0  0  0  0
   -0.2175   -2.7569   -1.4033 H   0  0  0  0  0  0  0  0  0  0  0  0
    0.8977   -3.4414   -0.1930 H   0  0  0  0  0  0  0  0  0  0  0  0
   -0.2104    0.9886   -1.4039 N   0  0  0  0  0  0  0  0  0  0  0  0
   -1.1420    2.0907   -1.3227 C   0  0  2  0  0  0  0  0  0  0  0  0
   -0.3448    3.3865   -1.3934 C   0  0  0  0  0  0  0  0  0  0  0  0
    0.8476    3.4571   -1.1033 O   0  0  0  0  0  0  0  0  0  0  0  0
   -1.9640    2.0273   -0.0448 C   0  0  0  0  0  0  0  0  0  0  0  0
   -0.3212    0.3165   -2.1571 H   0  0  0  0  0  0  0  0  0  0  0  0
   -1.7972    2.0161   -2.1974 H   0  0  0  0  0  0  0  0  0  0  0  0
   -1.3246    2.1006    0.8425 H   0  0  0  0  0  0  0  0  0  0  0  0
   -2.6889    2.8467    0.0017 H   0  0  0  0  0  0  0  0  0  0  0  0
   -2.5135    1.0819    0.0187 H   0  0  0  0  0  0  0  0  0  0  0  0
   -1.1320    4.4632   -1.7772 N   0  0  0  0  0  0  0  0  0  0  0  0
   -0.6102    5.8038   -1.9057 C   0  0  0  0  0  0  0  0  0  0  0  0
   -2.1069    4.3090   -2.0169 H   0  0  0  0  0  0  0  0  0  0  0  0
   -0.7502    6.3446   -0.9581 H   0  0  0  0  0  0  0  0  0  0  0  0
    0.4621    5.7582   -2.1468 H   0  0  0  0  0  0  0  0  0  0  0  0
   -1.1450    6.3297   -2.7103 H   0  0  0  0  0  0  0  0  0  0  0  0
 18 19  1  0  0  0  0
 19 31  1  0  0  0  0
 19 20  2  0  0  0  0
  8  9  1  0  0  0  0
  9 17  1  0  0  0  0
  9 10  2  0  0  0  0
  1  3  1  0  0  0  0
  1  7  1  0  0  0  0
  1  2  2  0  0  0  0
 32 33  1  0  0  0  0
 33 41  1  0  0  0  0
 33 34  2  0  0  0  0
 21 22  1  0  0  0  0
 22 23  1  0  0  0  0
 18 21  1  0  0  0  0
 17 23  1  0  0  0  0
 17 18  1  0  0  0  0
  8 11  1  0  0  0  0
 32 35  1  0  0  0  0
 41 42  1  0  0  0  0
  7  8  1  0  0  0  0
 31 32  1  0  0  0  0
 22 27  1  0  0  0  0
 22 28  1  0  0  0  0
 21 25  1  0  0  0  0
 21 26  1  0  0  0  0
 23 29  1  0  0  0  0
 23 30  1  0  0  0  0
 18 24  1  0  0  0  0
  3  4  1  0  0  0  0
  3  5  1  0  0  0  0
  3  6  1  0  0  0  0
 11 14  1  0  0  0  0
 11 15  1  0  0  0  0
 11 16  1  0  0  0  0
 35 38  1  0  0  0  0
 35 39  1  0  0  0  0
 35 40  1  0  0  0  0
 42 44  1  0  0  0  0
 42 45  1  0  0  0  0
 42 46  1  0  0  0  0
  8 13  1  0  0  0  0
 32 37  1  0  0  0  0
 31 36  1  0  0  0  0
 41 43  1  0  0  0  0
  7 12  1  0  0  0  0
M  END
$$$$

  -OEChem-02062319033D

 46 46  0     1  0  0  0  0  0999 V2000
   -0.6012   -3.2995    3.8205 C   0  0  0  0  0  0  0  0  0  0  0  0
   -0.6574   -4.4683    3.4568 O   0  0  0  0  0  0  0  0  0  0  0  0
   -0.4935   -2.9859    5.2760 C   0  0  0  0  0  0  0  0  0  0  0  0
   -1.4789   -2.8689    5.7550 H   0  0  0  0  0  0  0  0  0  0  0  0
    0.0123   -3.7847    5.8419 H   0  0  0  0  0  0  0  0  0  0  0  0
    0.0585   -2.0642    5.5199 H   0  0  0  0  0  0  0  0  0  0  0  0
   -0.6261   -2.1849    2.9917 N   0  0  0  0  0  0  0  0  0  0  0  0
   -0.7237   -2.2601    1.5650 C   0  0  2  0  0  0  0  0  0  0  0  0
    0.1695   -1.1513    1.0687 C   0  0  0  0  0  0  0  0  0  0  0  0
    0.3193   -0.1267    1.7365 O   0  0  0  0  0  0  0  0  0  0  0  0
   -2.1397   -2.0663    1.0750 C   0  0  0  0  0  0  0  0  0  0  0  0
   -0.5717   -1.2606    3.4238 H   0  0  0  0  0  0  0  0  0  0  0  0
   -0.3076   -3.2111    1.2363 H   0  0  0  0  0  0  0  0  0  0  0  0
   -2.5584   -1.1089    1.4061 H   0  0  0  0  0  0  0  0  0  0  0  0
   -2.1682   -2.0790   -0.0197 H   0  0  0  0  0  0  0  0  0  0  0  0
   -2.7965   -2.8601    1.4459 H   0  0  0  0  0  0  0  0  0  0  0  0
    0.7724   -1.3745   -0.1593 N   0  0  0  0  0  0  0  0  0  0  0  0
    1.8939   -0.5765   -0.6373 C   0  0  2  0  0  0  0  0  0  0  0  0
    1.4244    0.8452   -0.7123 C   0  0  0  0  0  0  0  0  0  0  0  0
    2.1385    1.7410   -0.2772 O   0  0  0  0  0  0  0  0  0  0  0  0
    2.2109   -1.1414   -2.0171 C   0  0  0  0  0  0  0  0  0  0  0  0
    1.7029   -2.5808   -1.9900 C   0  0  0  0  0  0  0  0  0  0  0  0
    0.5075   -2.4993   -1.0528 C   0  0  0  0  0  0  0  0  0  0  0  0
    2.7391   -0.6323    0.0553 H   0  0  0  0  0  0  0  0  0  0  0  0
    3.2957   -1.1527   -2.1772 H   0  0  0  0  0  0  0  0  0  0  0  0
    1.7434   -0.5855   -2.8357 H   0  0  0  0  0  0  0  0  0  0  0  0
    1.3848   -2.8920   -2.9918 H   0  0  0  0  0  0  0  0  0  0  0  0
    2.4660   -3.2815   -1.6394 H   0  0  0  0  0  0  0  0  0  0  0  0
   -0.4357   -2.3477   -1.5848 H   0  0  0  0  0  0  0  0  0  0  0  0
    0.4271   -3.3982   -0.4320 H   0  0  0  0  0  0  0  0  0  0  0  0
    0.4212    1.2719   -1.1453 N   0  0  0  0  0  0  0  0  0  0  0  0
   -0.2390    2.5445   -0.9619 C   0  0  2  0  0  0  0  0  0  0  0  0
    0.8340    3.6202   -0.8572 C   0  0  0  0  0  0  0  0  0  0  0  0
    1.9936    3.3810   -0.5269 O   0  0  0  0  0  0  0  0  0  0  0  0
   -1.1228    2.5361    0.2757 C   0  0  0  0  0  0  0  0  0  0  0  0
    0.2022    0.7289   -1.9751 H   0  0  0  0  0  0  0  0  0  0  0  0
   -0.8451    2.7184   -1.8576 H   0  0  0  0  0  0  0  0  0  0  0  0
   -0.5330    2.3632    1.1834 H   0  0  0  0  0  0  0  0  0  0  0  0
   -1.6443    3.4912    0.3974 H   0  0  0  0  0  0  0  0  0  0  0  0
   -1.8751    1.7425    0.2120 H   0  0  0  0  0  0  0  0  0  0  0  0
    0.3339    4.8849   -1.1341 N   0  0  0  0  0  0  0  0  0  0  0  0
    1.1525    6.0740   -1.0893 C   0  0  0  0  0  0  0  0  0  0  0  0
   -0.6359    4.9876   -1.4180 H   0  0  0  0  0  0  0  0  0  0  0  0
    1.0872    6.5272   -0.0892 H   0  0  0  0  0  0  0  0  0  0  0  0
    2.1981    5.8075   -1.3034 H   0  0  0  0  0  0  0  0  0  0  0  0
    0.7960    6.7930   -1.8416 H   0  0  0  0  0  0  0  0  0  0  0  0
 18 19  1  0  0  0  0
 19 31  1  0  0  0  0
 19 20  2  0  0  0  0
  8  9  1  0  0  0  0
  9 17  1  0  0  0  0
  9 10  2  0  0  0  0
  1  3  1  0  0  0  0
  1  7  1  0  0  0  0
  1  2  2  0  0  0  0
 32 33  1  0  0  0  0
 33 41  1  0  0  0  0
 33 34  2  0  0  0  0
 21 22  1  0  0  0  0
 22 23  1  0  0  0  0
 18 21  1  0  0  0  0
 17 23  1  0  0  0  0
 17 18  1  0  0  0  0
  8 11  1  0  0  0  0
 32 35  1  0  0  0  0
 41 42  1  0  0  0  0
  7  8  1  0  0  0  0
 31 32  1  0  0  0  0
 22 27  1  0  0  0  0
 22 28  1  0  0  0  0
 21 25  1  0  0  0  0
 21 26  1  0  0  0  0
 23 29  1  0  0  0  0
 23 30  1  0  0  0  0
 18 24  1  0  0  0  0
  3  4  1  0  0  0  0
  3  5  1  0  0  0  0
  3  6  1  0  0  0  0
 11 14  1  0  0  0  0
 11 15  1  0  0  0  0
 11 16  1  0  0  0  0
 35 38  1  0  0  0  0
 35 39  1  0  0  0  0
 35 40  1  0  0  0  0
 42 44  1  0  0  0  0
 42 45  1  0  0  0  0
 42 46  1  0  0  0  0
  8 13  1  0  0  0  0
 32 37  1  0  0  0  0
 31 36  1  0  0  0  0
 41 43  1  0  0  0  0
  7 12  1  0  0  0  0
M  END
$$$$

  -OEChem-02062319033D

 46 46  0     1  0  0  0  0  0999 V2000
   -0.6012   -3.2995    3.8205 C   0  0  0  0  0  0  0  0  0  0  0  0
   -0.6574   -4.4683    3.4568 O   0  0  0  0  0  0  0  0  0  0  0  0
   -0.4935   -2.9859    5.2760 C   0  0  0  0  0  0  0  0  0  0  0  0
   -1.4789   -2.8689    5.7550 H   0  0  0  0  0  0  0  0  0  0  0  0
    0.0123   -3.7847    5.8419 H   0  0  0  0  0  0  0  0  0  0  0  0
    0.0585   -2.0642    5.5199 H   0  0  0  0  0  0  0  0  0  0  0  0
   -0.6261   -2.1849    2.9917 N   0  0  0  0  0  0  0  0  0  0  0  0
   -0.7237   -2.2601    1.5650 C   0  0  2  0  0  0  0  0  0  0  0  0
    0.1695   -1.1513    1.0687 C   0  0  0  0  0  0  0  0  0  0  0  0
    0.3193   -0.1267    1.7365 O   0  0  0  0  0  0  0  0  0  0  0  0
   -2.1397   -2.0663    1.0750 C   0  0  0  0  0  0  0  0  0  0  0  0
   -0.5717   -1.2606    3.4238 H   0  0  0  0  0  0  0  0  0  0  0  0
   -0.3076   -3.2111    1.2363 H   0  0  0  0  0  0  0  0  0  0  0  0
   -2.5584   -1.1089    1.4061 H   0  0  0  0  0  0  0  0  0  0  0  0
   -2.1682   -2.0790   -0.0197 H   0  0  0  0  0  0  0  0  0  0  0  0
   -2.7965   -2.8601    1.4459 H   0  0  0  0  0  0  0  0  0  0  0  0
    0.7724   -1.3745   -0.1593 N   0  0  0  0  0  0  0  0  0  0  0  0
    2.0702   -0.8113   -0.5081 C   0  0  2  0  0  0  0  0  0  0  0  0
    1.9404    0.6801   -0.4290 C   0  0  0  0  0  0  0  0  0  0  0  0
    2.8141    1.3338    0.1285 O   0  0  0  0  0  0  0  0  0  0  0  0
    2.3259   -1.2823   -1.9350 C   0  0  0  0  0  0  0  0  0  0  0  0
    1.5038   -2.5592   -2.0917 C   0  0  0  0  0  0  0  0  0  0  0  0
    0.3085   -2.3043   -1.1859 C   0  0  0  0  0  0  0  0  0  0  0  0
    2.8414   -1.1357    0.1971 H   0  0  0  0  0  0  0  0  0  0  0  0
    3.3869   -1.5273   -2.0643 H   0  0  0  0  0  0  0  0  0  0  0  0
    2.0423   -0.5484   -2.6957 H   0  0  0  0  0  0  0  0  0  0  0  0
    1.1788   -2.6784   -3.1317 H   0  0  0  0  0  0  0  0  0  0  0  0
    2.0676   -3.4512   -1.8042 H   0  0  0  0  0  0  0  0  0  0  0  0
   -0.5450   -1.8819   -1.7232 H   0  0  0  0  0  0  0  0  0  0  0  0
   -0.0076   -3.2217   -0.6775 H   0  0  0  0  0  0  0  0  0  0  0  0
    1.0854    1.3717   -0.8373 N   0  0  0  0  0  0  0  0  0  0  0  0
    0.7222    2.7352   -0.5246 C   0  0  2  0  0  0  0  0  0  0  0  0
    2.0039    3.5153   -0.2637 C   0  0  0  0  0  0  0  0  0  0  0  0
    3.0591    2.9798    0.0692 O   0  0  0  0  0  0  0  0  0  0  0  0
   -0.2069    2.7985    0.6777 C   0  0  0  0  0  0  0  0  0  0  0  0
    0.7948    0.9868   -1.7311 H   0  0  0  0  0  0  0  0  0  0  0  0
    0.2213    3.1403   -1.4107 H   0  0  0  0  0  0  0  0  0  0  0  0
    0.2776    2.3969    1.5752 H   0  0  0  0  0  0  0  0  0  0  0  0
   -0.5039    3.8297    0.8958 H   0  0  0  0  0  0  0  0  0  0  0  0
   -1.1150    2.2124    0.4998 H   0  0  0  0  0  0  0  0  0  0  0  0
    1.8198    4.8837   -0.4044 N   0  0  0  0  0  0  0  0  0  0  0  0
    2.8831    5.8389   -0.1969 C   0  0  0  0  0  0  0  0  0  0  0  0
    0.9156    5.2383   -0.7018 H   0  0  0  0  0  0  0  0  0  0  0  0
    2.8677    6.1845    0.8472 H   0  0  0  0  0  0  0  0  0  0  0  0
    3.8510    5.3620   -0.4109 H   0  0  0  0  0  0  0  0  0  0  0  0
    2.7408    6.6976   -0.8695 H   0  0  0  0  0  0  0  0  0  0  0  0
 18 19  1  0  0  0  0
 19 31  1  0  0  0  0
 19 20  2  0  0  0  0
  8  9  1  0  0  0  0
  9 17  1  0  0  0  0
  9 10  2  0  0  0  0
  1  3  1  0  0  0  0
  1  7  1  0  0  0  0
  1  2  2  0  0  0  0
 32 33  1  0  0  0  0
 33 41  1  0  0  0  0
 33 34  2  0  0  0  0
 21 22  1  0  0  0  0
 22 23  1  0  0  0  0
 18 21  1  0  0  0  0
 17 23  1  0  0  0  0
 17 18  1  0  0  0  0
  8 11  1  0  0  0  0
 32 35  1  0  0  0  0
 41 42  1  0  0  0  0
  7  8  1  0  0  0  0
 31 32  1  0  0  0  0
 22 27  1  0  0  0  0
 22 28  1  0  0  0  0
 21 25  1  0  0  0  0
 21 26  1  0  0  0  0
 23 29  1  0  0  0  0
 23 30  1  0  0  0  0
 18 24  1  0  0  0  0
  3  4  1  0  0  0  0
  3  5  1  0  0  0  0
  3  6  1  0  0  0  0
 11 14  1  0  0  0  0
 11 15  1  0  0  0  0
 11 16  1  0  0  0  0
 35 38  1  0  0  0  0
 35 39  1  0  0  0  0
 35 40  1  0  0  0  0
 42 44  1  0  0  0  0
 42 45  1  0  0  0  0
 42 46  1  0  0  0  0
  8 13  1  0  0  0  0
 32 37  1  0  0  0  0
 31 36  1  0  0  0  0
 41 43  1  0  0  0  0
  7 12  1  0  0  0  0
M  END
$$$$

  -OEChem-02062319033D

 46 46  0     1  0  0  0  0  0999 V2000
   -0.6012   -3.2995    3.8205 C   0  0  0  0  0  0  0  0  0  0  0  0
   -0.6574   -4.4683    3.4568 O   0  0  0  0  0  0  0  0  0  0  0  0
   -0.4935   -2.9859    5.2760 C   0  0  0  0  0  0  0  0  0  0  0  0
   -1.4789   -2.8689    5.7550 H   0  0  0  0  0  0  0  0  0  0  0  0
    0.0123   -3.7847    5.8419 H   0  0  0  0  0  0  0  0  0  0  0  0
    0.0585   -2.0642    5.5199 H   0  0  0  0  0  0  0  0  0  0  0  0
   -0.6261   -2.1849    2.9917 N   0  0  0  0  0  0  0  0  0  0  0  0
   -0.7237   -2.2601    1.5650 C   0  0  2  0  0  0  0  0  0  0  0  0
    0.1695   -1.1513    1.0687 C   0  0  0  0  0  0  0  0  0  0  0  0
    0.3193   -0.1267    1.7365 O   0  0  0  0  0  0  0  0  0  0  0  0
   -2.1397   -2.0663    1.0750 C   0  0  0  0  0  0  0  0  0  0  0  0
   -0.5717   -1.2606    3.4238 H   0  0  0  0  0  0  0  0  0  0  0  0
   -0.3076   -3.2111    1.2363 H   0  0  0  0  0  0  0  0  0  0  0  0
   -2.5584   -1.1089    1.4061 H   0  0  0  0  0  0  0  0  0  0  0  0
   -2.1682   -2.0790   -0.0197 H   0  0  0  0  0  0  0  0  0  0  0  0
   -2.7965   -2.8601    1.4459 H   0  0  0  0  0  0  0  0  0  0  0  0
    0.7724   -1.3745   -0.1593 N   0  0  0  0  0  0  0  0  0  0  0  0
    2.1812   -1.0931   -0.4023 C   0  0  2  0  0  0  0  0  0  0  0  0
    2.3891    0.3703   -0.1524 C   0  0  0  0  0  0  0  0  0  0  0  0
    3.3565    0.7399    0.5028 O   0  0  0  0  0  0  0  0  0  0  0  0
    2.4012   -1.4540   -1.8668 C   0  0  0  0  0  0  0  0  0  0  0  0
    1.3206   -2.4812   -2.1958 C   0  0  0  0  0  0  0  0  0  0  0  0
    0.1666   -2.0554   -1.3008 C   0  0  0  0  0  0  0  0  0  0  0  0
    2.8189   -1.6614    0.2816 H   0  0  0  0  0  0  0  0  0  0  0  0
    3.3844   -1.9227   -1.9936 H   0  0  0  0  0  0  0  0  0  0  0  0
    2.3337   -0.5968   -2.5438 H   0  0  0  0  0  0  0  0  0  0  0  0
    1.0346   -2.4091   -3.2515 H   0  0  0  0  0  0  0  0  0  0  0  0
    1.6507   -3.5051   -1.9990 H   0  0  0  0  0  0  0  0  0  0  0  0
   -0.5380   -1.3914   -1.8089 H   0  0  0  0  0  0  0  0  0  0  0  0
   -0.3768   -2.9238   -0.9129 H   0  0  0  0  0  0  0  0  0  0  0  0
    1.7370    1.2810   -0.5009 N   0  0  0  0  0  0  0  0  0  0  0  0
    1.6761    2.6498   -0.0407 C   0  0  2  0  0  0  0  0  0  0  0  0
    3.0852    3.0790    0.3464 C   0  0  0  0  0  0  0  0  0  0  0  0
    3.9715    2.2809    0.6441 O   0  0  0  0  0  0  0  0  0  0  0  0
    0.7212    2.7967    1.1337 C   0  0  0  0  0  0  0  0  0  0  0  0
    1.4161    1.0725   -1.4416 H   0  0  0  0  0  0  0  0  0  0  0  0
    1.3296    3.2529   -0.8871 H   0  0  0  0  0  0  0  0  0  0  0  0
    1.0519    2.1996    1.9912 H   0  0  0  0  0  0  0  0  0  0  0  0
    0.6544    3.8390    1.4627 H   0  0  0  0  0  0  0  0  0  0  0  0
   -0.2851    2.4597    0.8623 H   0  0  0  0  0  0  0  0  0  0  0  0
    3.2243    4.4597    0.3622 N   0  0  0  0  0  0  0  0  0  0  0  0
    4.4636    5.1145    0.7107 C   0  0  0  0  0  0  0  0  0  0  0  0
    2.4419    5.0441    0.0828 H   0  0  0  0  0  0  0  0  0  0  0  0
    4.4698    5.3397    1.7874 H   0  0  0  0  0  0  0  0  0  0  0  0
    5.3083    4.4523    0.4699 H   0  0  0  0  0  0  0  0  0  0  0  0
    4.5570    6.0501    0.1399 H   0  0  0  0  0  0  0  0  0  0  0  0
 18 19  1  0  0  0  0
 19 31  1  0  0  0  0
 19 20  2  0  0  0  0
  8  9  1  0  0  0  0
  9 17  1  0  0  0  0
  9 10  2  0  0  0  0
  1  3  1  0  0  0  0
  1  7  1  0  0  0  0
  1  2  2  0  0  0  0
 32 33  1  0  0  0  0
 33 41  1  0  0  0  0
 33 34  2  0  0  0  0
 21 22  1  0  0  0  0
 22 23  1  0  0  0  0
 18 21  1  0  0  0  0
 17 23  1  0  0  0  0
 17 18  1  0  0  0  0
  8 11  1  0  0  0  0
 32 35  1  0  0  0  0
 41 42  1  0  0  0  0
  7  8  1  0  0  0  0
 31 32  1  0  0  0  0
 22 27  1  0  0  0  0
 22 28  1  0  0  0  0
 21 25  1  0  0  0  0
 21 26  1  0  0  0  0
 23 29  1  0  0  0  0
 23 30  1  0  0  0  0
 18 24  1  0  0  0  0
  3  4  1  0  0  0  0
  3  5  1  0  0  0  0
  3  6  1  0  0  0  0
 11 14  1  0  0  0  0
 11 15  1  0  0  0  0
 11 16  1  0  0  0  0
 35 38  1  0  0  0  0
 35 39  1  0  0  0  0
 35 40  1  0  0  0  0
 42 44  1  0  0  0  0
 42 45  1  0  0  0  0
 42 46  1  0  0  0  0
  8 13  1  0  0  0  0
 32 37  1  0  0  0  0
 31 36  1  0  0  0  0
 41 43  1  0  0  0  0
  7 12  1  0  0  0  0
M  END
$$$$

  -OEChem-02062319033D

 46 46  0     1  0  0  0  0  0999 V2000
   -0.6012   -3.2995    3.8205 C   0  0  0  0  0  0  0  0  0  0  0  0
   -0.6574   -4.4683    3.4568 O   0  0  0  0  0  0  0  0  0  0  0  0
   -0.4935   -2.9859    5.2760 C   0  0  0  0  0  0  0  0  0  0  0  0
   -1.4789   -2.8689    5.7550 H   0  0  0  0  0  0  0  0  0  0  0  0
    0.0123   -3.7847    5.8419 H   0  0  0  0  0  0  0  0  0  0  0  0
    0.0585   -2.0642    5.5199 H   0  0  0  0  0  0  0  0  0  0  0  0
   -0.6261   -2.1849    2.9917 N   0  0  0  0  0  0  0  0  0  0  0  0
   -0.7237   -2.2601    1.5650 C   0  0  2  0  0  0  0  0  0  0  0  0
    0.1695   -1.1513    1.0687 C   0  0  0  0  0  0  0  0  0  0  0  0
    0.3193   -0.1267    1.7365 O   0  0  0  0  0  0  0  0  0  0  0  0
   -2.1397   -2.0663    1.0750 C   0  0  0  0  0  0  0  0  0  0  0  0
   -0.5717   -1.2606    3.4238 H   0  0  0  0  0  0  0  0  0  0  0  0
   -0.3076   -3.2111    1.2363 H   0  0  0  0  0  0  0  0  0  0  0  0
   -2.5584   -1.1089    1.4061 H   0  0  0  0  0  0  0  0  0  0  0  0
   -2.1682   -2.0790   -0.0197 H   0  0  0  0  0  0  0  0  0  0  0  0
   -2.7965   -2.8601    1.4459 H   0  0  0  0  0  0  0  0  0  0  0  0
    0.7724   -1.3745   -0.1593 N   0  0  0  0  0  0  0  0  0  0  0  0
    2.2195   -1.4027   -0.3273 C   0  0  2  0  0  0  0  0  0  0  0  0
    2.7400   -0.0629    0.0987 C   0  0  0  0  0  0  0  0  0  0  0  0
    3.7286   -0.0003    0.8200 O   0  0  0  0  0  0  0  0  0  0  0  0
    2.4318   -1.6448   -1.8172 C   0  0  0  0  0  0  0  0  0  0  0  0
    1.1660   -2.3521   -2.2952 C   0  0  0  0  0  0  0  0  0  0  0  0
    0.0914   -1.7695   -1.3897 C   0  0  0  0  0  0  0  0  0  0  0  0
    2.6731   -2.1735    0.3031 H   0  0  0  0  0  0  0  0  0  0  0  0
    3.2884   -2.3121   -1.9700 H   0  0  0  0  0  0  0  0  0  0  0  0
    2.5977   -0.7275   -2.3904 H   0  0  0  0  0  0  0  0  0  0  0  0
    0.9621   -2.1024   -3.3428 H   0  0  0  0  0  0  0  0  0  0  0  0
    1.2438   -3.4398   -2.2107 H   0  0  0  0  0  0  0  0  0  0  0  0
   -0.4152   -0.9096   -1.8362 H   0  0  0  0  0  0  0  0  0  0  0  0
   -0.6553   -2.5250   -1.1221 H   0  0  0  0  0  0  0  0  0  0  0  0
    2.3317    1.0062   -0.1590 N   0  0  0  0  0  0  0  0  0  0  0  0
    2.5578    2.2941    0.4568 C   0  0  2  0  0  0  0  0  0  0  0  0
    4.0041    2.3409    0.9317 C   0  0  0  0  0  0  0  0  0  0  0  0
    4.6685    1.3319    1.1589 O   0  0  0  0  0  0  0  0  0  0  0  0
    1.5982    2.5309    1.6126 C   0  0  0  0  0  0  0  0  0  0  0  0
    2.0238    0.9803   -1.1265 H   0  0  0  0  0  0  0  0  0  0  0  0
    2.4041    3.0486   -0.3224 H   0  0  0  0  0  0  0  0  0  0  0  0
    1.7373    1.7845    2.4032 H   0  0  0  0  0  0  0  0  0  0  0  0
    1.7517    3.5186    2.0597 H   0  0  0  0  0  0  0  0  0  0  0  0
    0.5581    2.4674    1.2749 H   0  0  0  0  0  0  0  0  0  0  0  0
    4.4519    3.6419    1.1136 N   0  0  0  0  0  0  0  0  0  0  0  0
    5.7864    3.9502    1.5718 C   0  0  0  0  0  0  0  0  0  0  0  0
    3.8389    4.4182    0.8825 H   0  0  0  0  0  0  0  0  0  0  0  0
    5.7845    4.0506    2.6672 H   0  0  0  0  0  0  0  0  0  0  0  0
    6.4707    3.1402    1.2791 H   0  0  0  0  0  0  0  0  0  0  0  0
    6.1208    4.8947    1.1177 H   0  0  0  0  0  0  0  0  0  0  0  0
 18 19  1  0  0  0  0
 19 31  1  0  0  0  0
 19 20  2  0  0  0  0
  8  9  1  0  0  0  0
  9 17  1  0  0  0  0
  9 10  2  0  0  0  0
  1  3  1  0  0  0  0
  1  7  1  0  0  0  0
  1  2  2  0  0  0  0
 32 33  1  0  0  0  0
 33 41  1  0  0  0  0
 33 34  2  0  0  0  0
 21 22  1  0  0  0  0
 22 23  1  0  0  0  0
 18 21  1  0  0  0  0
 17 23  1  0  0  0  0
 17 18  1  0  0  0  0
  8 11  1  0  0  0  0
 32 35  1  0  0  0  0
 41 42  1  0  0  0  0
  7  8  1  0  0  0  0
 31 32  1  0  0  0  0
 22 27  1  0  0  0  0
 22 28  1  0  0  0  0
 21 25  1  0  0  0  0
 21 26  1  0  0  0  0
 23 29  1  0  0  0  0
 23 30  1  0  0  0  0
 18 24  1  0  0  0  0
  3  4  1  0  0  0  0
  3  5  1  0  0  0  0
  3  6  1  0  0  0  0
 11 14  1  0  0  0  0
 11 15  1  0  0  0  0
 11 16  1  0  0  0  0
 35 38  1  0  0  0  0
 35 39  1  0  0  0  0
 35 40  1  0  0  0  0
 42 44  1  0  0  0  0
 42 45  1  0  0  0  0
 42 46  1  0  0  0  0
  8 13  1  0  0  0  0
 32 37  1  0  0  0  0
 31 36  1  0  0  0  0
 41 43  1  0  0  0  0
  7 12  1  0  0  0  0
M  END
$$$$

  -OEChem-02062319033D

 46 46  0     1  0  0  0  0  0999 V2000
   -0.6012   -3.2995    3.8205 C   0  0  0  0  0  0  0  0  0  0  0  0
   -0.6574   -4.4683    3.4568 O   0  0  0  0  0  0  0  0  0  0  0  0
   -0.4935   -2.9859    5.2760 C   0  0  0  0  0  0  0  0  0  0  0  0
   -1.4789   -2.8689    5.7550 H   0  0  0  0  0  0  0  0  0  0  0  0
    0.0123   -3.7847    5.8419 H   0  0  0  0  0  0  0  0  0  0  0  0
    0.0585   -2.0642    5.5199 H   0  0  0  0  0  0  0  0  0  0  0  0
   -0.6261   -2.1849    2.9917 N   0  0  0  0  0  0  0  0  0  0  0  0
   -0.7237   -2.2601    1.5650 C   0  0  2  0  0  0  0  0  0  0  0  0
    0.1695   -1.1513    1.0687 C   0  0  0  0  0  0  0  0  0  0  0  0
    0.3193   -0.1267    1.7365 O   0  0  0  0  0  0  0  0  0  0  0  0
   -2.1397   -2.0663    1.0750 C   0  0  0  0  0  0  0  0  0  0  0  0
   -0.5717   -1.2606    3.4238 H   0  0  0  0  0  0  0  0  0  0  0  0
   -0.3076   -3.2111    1.2363 H   0  0  0  0  0  0  0  0  0  0  0  0
   -2.5584   -1.1089    1.4061 H   0  0  0  0  0  0  0  0  0  0  0  0
   -2.1682   -2.0790   -0.0197 H   0  0  0  0  0  0  0  0  0  0  0  0
   -2.7965   -2.8601    1.4459 H   0  0  0  0  0  0  0  0  0  0  0  0
    0.7724   -1.3745   -0.1593 N   0  0  0  0  0  0  0  0  0  0  0  0
    2.1823   -1.7189   -0.2881 C   0  0  2  0  0  0  0  0  0  0  0  0
    2.9691   -0.5901    0.3070 C   0  0  0  0  0  0  0  0  0  0  0  0
    3.9051   -0.8363    1.0586 O   0  0  0  0  0  0  0  0  0  0  0  0
    2.4155   -1.8417   -1.7894 C   0  0  0  0  0  0  0  0  0  0  0  0
    1.0504   -2.1808   -2.3831 C   0  0  0  0  0  0  0  0  0  0  0  0
    0.0880   -1.4661   -1.4465 C   0  0  0  0  0  0  0  0  0  0  0  0
    2.4139   -2.6371    0.2601 H   0  0  0  0  0  0  0  0  0  0  0  0
    3.1053   -2.6689   -1.9950 H   0  0  0  0  0  0  0  0  0  0  0  0
    2.8164   -0.9315   -2.2460 H   0  0  0  0  0  0  0  0  0  0  0  0
    0.9662   -1.7793   -3.3996 H   0  0  0  0  0  0  0  0  0  0  0  0
    0.8746   -3.2595   -2.4247 H   0  0  0  0  0  0  0  0  0  0  0  0
   -0.1850   -0.4692   -1.8032 H   0  0  0  0  0  0  0  0  0  0  0  0
   -0.8242   -2.0523   -1.2909 H   0  0  0  0  0  0  0  0  0  0  0  0
    2.8288    0.5659    0.1651 N   0  0  0  0  0  0  0  0  0  0  0  0
    3.3071    1.6923    0.9341 C   0  0  2  0  0  0  0  0  0  0  0  0
    4.6980    1.3513    1.4523 C   0  0  0  0  0  0  0  0  0  0  0  0
    5.1027    0.1974    1.5782 O   0  0  0  0  0  0  0  0  0  0  0  0
    2.3644    2.0191    2.0818 C   0  0  0  0  0  0  0  0  0  0  0  0
    2.5766    0.7164   -0.8071 H   0  0  0  0  0  0  0  0  0  0  0  0
    3.3716    2.5413    0.2448 H   0  0  0  0  0  0  0  0  0  0  0  0
    2.2870    1.1801    2.7829 H   0  0  0  0  0  0  0  0  0  0  0  0
    2.7133    2.8903    2.6461 H   0  0  0  0  0  0  0  0  0  0  0  0
    1.3572    2.2350    1.7094 H   0  0  0  0  0  0  0  0  0  0  0  0
    5.4187    2.4858    1.7984 N   0  0  0  0  0  0  0  0  0  0  0  0
    6.7612    2.4253    2.3275 C   0  0  0  0  0  0  0  0  0  0  0  0
    5.0115    3.4032    1.6427 H   0  0  0  0  0  0  0  0  0  0  0  0
    6.7221    2.4049    3.4266 H   0  0  0  0  0  0  0  0  0  0  0  0
    7.2588    1.5152    1.9614 H   0  0  0  0  0  0  0  0  0  0  0  0
    7.3255    3.3099    1.9973 H   0  0  0  0  0  0  0  0  0  0  0  0
 18 19  1  0  0  0  0
 19 31  1  0  0  0  0
 19 20  2  0  0  0  0
  8  9  1  0  0  0  0
  9 17  1  0  0  0  0
  9 10  2  0  0  0  0
  1  3  1  0  0  0  0
  1  7  1  0  0  0  0
  1  2  2  0  0  0  0
 32 33  1  0  0  0  0
 33 41  1  0  0  0  0
 33 34  2  0  0  0  0
 21 22  1  0  0  0  0
 22 23  1  0  0  0  0
 18 21  1  0  0  0  0
 17 23  1  0  0  0  0
 17 18  1  0  0  0  0
  8 11  1  0  0  0  0
 32 35  1  0  0  0  0
 41 42  1  0  0  0  0
  7  8  1  0  0  0  0
 31 32  1  0  0  0  0
 22 27  1  0  0  0  0
 22 28  1  0  0  0  0
 21 25  1  0  0  0  0
 21 26  1  0  0  0  0
 23 29  1  0  0  0  0
 23 30  1  0  0  0  0
 18 24  1  0  0  0  0
  3  4  1  0  0  0  0
  3  5  1  0  0  0  0
  3  6  1  0  0  0  0
 11 14  1  0  0  0  0
 11 15  1  0  0  0  0
 11 16  1  0  0  0  0
 35 38  1  0  0  0  0
 35 39  1  0  0  0  0
 35 40  1  0  0  0  0
 42 44  1  0  0  0  0
 42 45  1  0  0  0  0
 42 46  1  0  0  0  0
  8 13  1  0  0  0  0
 32 37  1  0  0  0  0
 31 36  1  0  0  0  0
 41 43  1  0  0  0  0
  7 12  1  0  0  0  0
M  END
$$$$

  -OEChem-02062319033D

 46 46  0     1  0  0  0  0  0999 V2000
   -0.6012   -3.2995    3.8205 C   0  0  0  0  0  0  0  0  0  0  0  0
   -0.6574   -4.4683    3.4568 O   0  0  0  0  0  0  0  0  0  0  0  0
   -0.4935   -2.9859    5.2760 C   0  0  0  0  0  0  0  0  0  0  0  0
   -1.4789   -2.8689    5.7550 H   0  0  0  0  0  0  0  0  0  0  0  0
    0.0123   -3.7847    5.8419 H   0  0  0  0  0  0  0  0  0  0  0  0
    0.0585   -2.0642    5.5199 H   0  0  0  0  0  0  0  0  0  0  0  0
   -0.6261   -2.1849    2.9917 N   0  0  0  0  0  0  0  0  0  0  0  0
   -0.7237   -2.2601    1.5650 C   0  0  2  0  0  0  0  0  0  0  0  0
    0.1695   -1.1513    1.0687 C   0  0  0  0  0  0  0  0  0  0  0  0
    0.3193   -0.1267    1.7365 O   0  0  0  0  0  0  0  0  0  0  0  0
   -2.1397   -2.0663    1.0750 C   0  0  0  0  0  0  0  0  0  0  0  0
   -0.5717   -1.2606    3.4238 H   0  0  0  0  0  0  0  0  0  0  0  0
   -0.3076   -3.2111    1.2363 H   0  0  0  0  0  0  0  0  0  0  0  0
   -2.5584   -1.1089    1.4061 H   0  0  0  0  0  0  0  0  0  0  0  0
   -2.1682   -2.0790   -0.0197 H   0  0  0  0  0  0  0  0  0  0  0  0
   -2.7965   -2.8601    1.4459 H   0  0  0  0  0  0  0  0  0  0  0  0
    0.7724   -1.3745   -0.1593 N   0  0  0  0  0  0  0  0  0  0  0  0
    2.0722   -2.0203   -0.2873 C   0  0  2  0  0  0  0  0  0  0  0  0
    3.0608   -1.1753    0.4584 C   0  0  0  0  0  0  0  0  0  0  0  0
    3.8739   -1.7111    1.2023 O   0  0  0  0  0  0  0  0  0  0  0  0
    2.3534   -2.0313   -1.7854 C   0  0  0  0  0  0  0  0  0  0  0  0
    0.9816   -1.9789   -2.4535 C   0  0  0  0  0  0  0  0  0  0  0  0
    0.1567   -1.1658   -1.4674 C   0  0  0  0  0  0  0  0  0  0  0  0
    2.0591   -3.0207    0.1556 H   0  0  0  0  0  0  0  0  0  0  0  0
    2.8478   -2.9687   -2.0670 H   0  0  0  0  0  0  0  0  0  0  0  0
    2.9748   -1.1950   -2.1203 H   0  0  0  0  0  0  0  0  0  0  0  0
    1.0466   -1.4618   -3.4178 H   0  0  0  0  0  0  0  0  0  0  0  0
    0.5682   -2.9766   -2.6266 H   0  0  0  0  0  0  0  0  0  0  0  0
    0.1370   -0.1004   -1.7122 H   0  0  0  0  0  0  0  0  0  0  0  0
   -0.8718   -1.5380   -1.4078 H   0  0  0  0  0  0  0  0  0  0  0  0
    3.1945   -0.0099    0.4493 N   0  0  0  0  0  0  0  0  0  0  0  0
    3.8731    0.8855    1.3586 C   0  0  2  0  0  0  0  0  0  0  0  0
    5.1198    0.1777    1.8727 C   0  0  0  0  0  0  0  0  0  0  0  0
    5.2445   -1.0452    1.8737 O   0  0  0  0  0  0  0  0  0  0  0  0
    2.9677    1.2962    2.5094 C   0  0  0  0  0  0  0  0  0  0  0  0
    3.0367    0.2987   -0.5053 H   0  0  0  0  0  0  0  0  0  0  0  0
    4.1662    1.7656    0.7759 H   0  0  0  0  0  0  0  0  0  0  0  0
    2.6636    0.4275    3.1046 H   0  0  0  0  0  0  0  0  0  0  0  0
    3.4736    1.9968    3.1817 H   0  0  0  0  0  0  0  0  0  0  0  0
    2.0577    1.7784    2.1363 H   0  0  0  0  0  0  0  0  0  0  0  0
    6.0590    1.0703    2.3700 N   0  0  0  0  0  0  0  0  0  0  0  0
    7.3217    0.6439    2.9265 C   0  0  0  0  0  0  0  0  0  0  0  0
    5.8797    2.0684    2.3115 H   0  0  0  0  0  0  0  0  0  0  0  0
    7.2187    0.5147    4.0140 H   0  0  0  0  0  0  0  0  0  0  0  0
    7.6191   -0.3119    2.4704 H   0  0  0  0  0  0  0  0  0  0  0  0
    8.0892    1.4039    2.7187 H   0  0  0  0  0  0  0  0  0  0  0  0
 18 19  1  0  0  0  0
 19 31  1  0  0  0  0
 19 20  2  0  0  0  0
  8  9  1  0  0  0  0
  9 17  1  0  0  0  0
  9 10  2  0  0  0  0
  1  3  1  0  0  0  0
  1  7  1  0  0  0  0
  1  2  2  0  0  0  0
 32 33  1  0  0  0  0
 33 41  1  0  0  0  0
 33 34  2  0  0  0  0
 21 22  1  0  0  0  0
 22 23  1  0  0  0  0
 18 21  1  0  0  0  0
 17 23  1  0  0  0  0
 17 18  1  0  0  0  0
  8 11  1  0  0  0  0
 32 35  1  0  0  0  0
 41 42  1  0  0  0  0
  7  8  1  0  0  0  0
 31 32  1  0  0  0  0
 22 27  1  0  0  0  0
 22 28  1  0  0  0  0
 21 25  1  0  0  0  0
 21 26  1  0  0  0  0
 23 29  1  0  0  0  0
 23 30  1  0  0  0  0
 18 24  1  0  0  0  0
  3  4  1  0  0  0  0
  3  5  1  0  0  0  0
  3  6  1  0  0  0  0
 11 14  1  0  0  0  0
 11 15  1  0  0  0  0
 11 16  1  0  0  0  0
 35 38  1  0  0  0  0
 35 39  1  0  0  0  0
 35 40  1  0  0  0  0
 42 44  1  0  0  0  0
 42 45  1  0  0  0  0
 42 46  1  0  0  0  0
  8 13  1  0  0  0  0
 32 37  1  0  0  0  0
 31 36  1  0  0  0  0
 41 43  1  0  0  0  0
  7 12  1  0  0  0  0
M  END
$$$$

  -OEChem-02062319033D

 46 46  0     1  0  0  0  0  0999 V2000
   -0.6012   -3.2995    3.8205 C   0  0  0  0  0  0  0  0  0  0  0  0
   -0.6574   -4.4683    3.4568 O   0  0  0  0  0  0  0  0  0  0  0  0
   -0.4935   -2.9859    5.2760 C   0  0  0  0  0  0  0  0  0  0  0  0
   -1.4789   -2.8689    5.7550 H   0  0  0  0  0  0  0  0  0  0  0  0
    0.0123   -3.7847    5.8419 H   0  0  0  0  0  0  0  0  0  0  0  0
    0.0585   -2.0642    5.5199 H   0  0  0  0  0  0  0  0  0  0  0  0
   -0.6261   -2.1849    2.9917 N   0  0  0  0  0  0  0  0  0  0  0  0
   -0.7237   -2.2601    1.5650 C   0  0  2  0  0  0  0  0  0  0  0  0
    0.1695   -1.1513    1.0687 C   0  0  0  0  0  0  0  0  0  0  0  0
    0.3193   -0.1267    1.7365 O   0  0  0  0  0  0  0  0  0  0  0  0
   -2.1397   -2.0663    1.0750 C   0  0  0  0  0  0  0  0  0  0  0  0
   -0.5717   -1.2606    3.4238 H   0  0  0  0  0  0  0  0  0  0  0  0
   -0.3076   -3.2111    1.2363 H   0  0  0  0  0  0  0  0  0  0  0  0
   -2.5584   -1.1089    1.4061 H   0  0  0  0  0  0  0  0  0  0  0  0
   -2.1682   -2.0790   -0.0197 H   0  0  0  0  0  0  0  0  0  0  0  0
   -2.7965   -2.8601    1.4459 H   0  0  0  0  0  0  0  0  0  0  0  0
    0.7724   -1.3745   -0.1593 N   0  0  0  0  0  0  0  0  0  0  0  0
    1.8968   -2.2862   -0.3251 C   0  0  2  0  0  0  0  0  0  0  0  0
    3.0089   -1.7786    0.5426 C   0  0  0  0  0  0  0  0  0  0  0  0
    3.6372   -2.5652    1.2414 O   0  0  0  0  0  0  0  0  0  0  0  0
    2.2498   -2.2006   -1.8055 C   0  0  0  0  0  0  0  0  0  0  0  0
    0.9644   -1.7602   -2.5017 C   0  0  0  0  0  0  0  0  0  0  0  0
    0.2927   -0.8892   -1.4508 C   0  0  0  0  0  0  0  0  0  0  0  0
    1.6327   -3.2981   -0.0033 H   0  0  0  0  0  0  0  0  0  0  0  0
    2.5333   -3.1911   -2.1810 H   0  0  0  0  0  0  0  0  0  0  0  0
    3.0621   -1.5000   -2.0220 H   0  0  0  0  0  0  0  0  0  0  0  0
    1.1978   -1.1714   -3.3963 H   0  0  0  0  0  0  0  0  0  0  0  0
    0.3456   -2.6103   -2.8025 H   0  0  0  0  0  0  0  0  0  0  0  0
    0.5287    0.1718   -1.5693 H   0  0  0  0  0  0  0  0  0  0  0  0
   -0.7951   -1.0172   -1.4648 H   0  0  0  0  0  0  0  0  0  0  0  0
    3.4039   -0.6819    0.6742 N   0  0  0  0  0  0  0  0  0  0  0  0
    4.2170   -0.0714    1.7014 C   0  0  2  0  0  0  0  0  0  0  0  0
    5.2405   -1.0999    2.1642 C   0  0  0  0  0  0  0  0  0  0  0  0
    5.0842   -2.3112    2.0252 O   0  0  0  0  0  0  0  0  0  0  0  0
    3.3667    0.4115    2.8661 C   0  0  0  0  0  0  0  0  0  0  0  0
    3.3728   -0.2441   -0.2416 H   0  0  0  0  0  0  0  0  0  0  0  0
    4.7337    0.7744    1.2347 H   0  0  0  0  0  0  0  0  0  0  0  0
    2.8413   -0.4221    3.3463 H   0  0  0  0  0  0  0  0  0  0  0  0
    3.9809    0.8992    3.6303 H   0  0  0  0  0  0  0  0  0  0  0  0
    2.6117    1.1287    2.5264 H   0  0  0  0  0  0  0  0  0  0  0  0
    6.3290   -0.5081    2.7895 N   0  0  0  0  0  0  0  0  0  0  0  0
    7.4296   -1.2729    3.3279 C   0  0  0  0  0  0  0  0  0  0  0  0
    6.3844    0.5047    2.8436 H   0  0  0  0  0  0  0  0  0  0  0  0
    7.2406   -1.4910    4.3894 H   0  0  0  0  0  0  0  0  0  0  0  0
    7.5269   -2.2167    2.7714 H   0  0  0  0  0  0  0  0  0  0  0  0
    8.3598   -0.6935    3.2327 H   0  0  0  0  0  0  0  0  0  0  0  0
 18 19  1  0  0  0  0
 19 31  1  0  0  0  0
 19 20  2  0  0  0  0
  8  9  1  0  0  0  0
  9 17  1  0  0  0  0
  9 10  2  0  0  0  0
  1  3  1  0  0  0  0
  1  7  1  0  0  0  0
  1  2  2  0  0  0  0
 32 33  1  0  0  0  0
 33 41  1  0  0  0  0
 33 34  2  0  0  0  0
 21 22  1  0  0  0  0
 22 23  1  0  0  0  0
 18 21  1  0  0  0  0
 17 23  1  0  0  0  0
 17 18  1  0  0  0  0
  8 11  1  0  0  0  0
 32 35  1  0  0  0  0
 41 42  1  0  0  0  0
  7  8  1  0  0  0  0
 31 32  1  0  0  0  0
 22 27  1  0  0  0  0
 22 28  1  0  0  0  0
 21 25  1  0  0  0  0
 21 26  1  0  0  0  0
 23 29  1  0  0  0  0
 23 30  1  0  0  0  0
 18 24  1  0  0  0  0
  3  4  1  0  0  0  0
  3  5  1  0  0  0  0
  3  6  1  0  0  0  0
 11 14  1  0  0  0  0
 11 15  1  0  0  0  0
 11 16  1  0  0  0  0
 35 38  1  0  0  0  0
 35 39  1  0  0  0  0
 35 40  1  0  0  0  0
 42 44  1  0  0  0  0
 42 45  1  0  0  0  0
 42 46  1  0  0  0  0
  8 13  1  0  0  0  0
 32 37  1  0  0  0  0
 31 36  1  0  0  0  0
 41 43  1  0  0  0  0
  7 12  1  0  0  0  0
M  END
$$$$

  -OEChem-02062319033D

 46 46  0     1  0  0  0  0  0999 V2000
   -0.6012   -3.2995    3.8205 C   0  0  0  0  0  0  0  0  0  0  0  0
   -0.6574   -4.4683    3.4568 O   0  0  0  0  0  0  0  0  0  0  0  0
   -0.4935   -2.9859    5.2760 C   0  0  0  0  0  0  0  0  0  0  0  0
   -1.4789   -2.8689    5.7550 H   0  0  0  0  0  0  0  0  0  0  0  0
    0.0123   -3.7847    5.8419 H   0  0  0  0  0  0  0  0  0  0  0  0
    0.0585   -2.0642    5.5199 H   0  0  0  0  0  0  0  0  0  0  0  0
   -0.6261   -2.1849    2.9917 N   0  0  0  0  0  0  0  0  0  0  0  0
   -0.7237   -2.2601    1.5650 C   0  0  2  0  0  0  0  0  0  0  0  0
    0.1695   -1.1513    1.0687 C   0  0  0  0  0  0  0  0  0  0  0  0
    0.3193   -0.1267    1.7365 O   0  0  0  0  0  0  0  0  0  0  0  0
   -2.1397   -2.0663    1.0750 C   0  0  0  0  0  0  0  0  0  0  0  0
   -0.5717   -1.2606    3.4238 H   0  0  0  0  0  0  0  0  0  0  0  0
   -0.3076   -3.2111    1.2363 H   0  0  0  0  0  0  0  0  0  0  0  0
   -2.5584   -1.1089    1.4061 H   0  0  0  0  0  0  0  0  0  0  0  0
   -2.1682   -2.0790   -0.0197 H   0  0  0  0  0  0  0  0  0  0  0  0
   -2.7965   -2.8601    1.4459 H   0  0  0  0  0  0  0  0  0  0  0  0
    0.7724   -1.3745   -0.1593 N   0  0  0  0  0  0  0  0  0  0  0  0
    1.6680   -2.4986   -0.3989 C   0  0  2  0  0  0  0  0  0  0  0  0
    2.8170   -2.3590    0.5538 C   0  0  0  0  0  0  0  0  0  0  0  0
    3.2111   -3.3402    1.1731 O   0  0  0  0  0  0  0  0  0  0  0  0
    2.1118   -2.3382   -1.8482 C   0  0  0  0  0  0  0  0  0  0  0  0
    1.0000   -1.5396   -2.5243 C   0  0  0  0  0  0  0  0  0  0  0  0
    0.4869   -0.6551   -1.3981 C   0  0  0  0  0  0  0  0  0  0  0  0
    1.1639   -3.4504   -0.2058 H   0  0  0  0  0  0  0  0  0  0  0  0
    2.1832   -3.3210   -2.3292 H   0  0  0  0  0  0  0  0  0  0  0  0
    3.0725   -1.8257   -1.9577 H   0  0  0  0  0  0  0  0  0  0  0  0
    1.4095   -0.9280   -3.3366 H   0  0  0  0  0  0  0  0  0  0  0  0
    0.2218   -2.1857   -2.9404 H   0  0  0  0  0  0  0  0  0  0  0  0
    0.9636    0.3288   -1.3844 H   0  0  0  0  0  0  0  0  0  0  0  0
   -0.5992   -0.5253   -1.4580 H   0  0  0  0  0  0  0  0  0  0  0  0
    3.4426   -1.4043    0.8246 N   0  0  0  0  0  0  0  0  0  0  0  0
    4.3156   -1.1131    1.9391 C   0  0  2  0  0  0  0  0  0  0  0  0
    5.0520   -2.3944    2.3070 C   0  0  0  0  0  0  0  0  0  0  0  0
    4.6328   -3.5144    2.0223 O   0  0  0  0  0  0  0  0  0  0  0  0
    3.5345   -0.5747    3.1277 C   0  0  0  0  0  0  0  0  0  0  0  0
    3.5619   -0.8752   -0.0340 H   0  0  0  0  0  0  0  0  0  0  0  0
    5.0354   -0.3648    1.5899 H   0  0  0  0  0  0  0  0  0  0  0  0
    2.8082   -1.3106    3.4915 H   0  0  0  0  0  0  0  0  0  0  0  0
    4.2005   -0.3278    3.9611 H   0  0  0  0  0  0  0  0  0  0  0  0
    2.9817    0.3302    2.8532 H   0  0  0  0  0  0  0  0  0  0  0  0
    6.2105   -2.1418    3.0283 N   0  0  0  0  0  0  0  0  0  0  0  0
    7.0776   -3.1942    3.5043 C   0  0  0  0  0  0  0  0  0  0  0  0
    6.4912   -1.1813    3.2025 H   0  0  0  0  0  0  0  0  0  0  0  0
    6.7861   -3.4757    4.5270 H   0  0  0  0  0  0  0  0  0  0  0  0
    6.9886   -4.0694    2.8439 H   0  0  0  0  0  0  0  0  0  0  0  0
    8.1188   -2.8393    3.5045 H   0  0  0  0  0  0  0  0  0  0  0  0
 18 19  1  0  0  0  0
 19 31  1  0  0  0  0
 19 20  2  0  0  0  0
  8  9  1  0  0  0  0
  9 17  1  0  0  0  0
  9 10  2  0  0  0  0
  1  3  1  0  0  0  0
  1  7  1  0  0  0  0
  1  2  2  0  0  0  0
 32 33  1  0  0  0  0
 33 41  1  0  0  0  0
 33 34  2  0  0  0  0
 21 22  1  0  0  0  0
 22 23  1  0  0  0  0
 18 21  1  0  0  0  0
 17 23  1  0  0  0  0
 17 18  1  0  0  0  0
  8 11  1  0  0  0  0
 32 35  1  0  0  0  0
 41 42  1  0  0  0  0
  7  8  1  0  0  0  0
 31 32  1  0  0  0  0
 22 27  1  0  0  0  0
 22 28  1  0  0  0  0
 21 25  1  0  0  0  0
 21 26  1  0  0  0  0
 23 29  1  0  0  0  0
 23 30  1  0  0  0  0
 18 24  1  0  0  0  0
  3  4  1  0  0  0  0
  3  5  1  0  0  0  0
  3  6  1  0  0  0  0
 11 14  1  0  0  0  0
 11 15  1  0  0  0  0
 11 16  1  0  0  0  0
 35 38  1  0  0  0  0
 35 39  1  0  0  0  0
 35 40  1  0  0  0  0
 42 44  1  0  0  0  0
 42 45  1  0  0  0  0
 42 46  1  0  0  0  0
  8 13  1  0  0  0  0
 32 37  1  0  0  0  0
 31 36  1  0  0  0  0
 41 43  1  0  0  0  0
  7 12  1  0  0  0  0
M  END
$$$$

  -OEChem-02062319033D

 46 46  0     1  0  0  0  0  0999 V2000
   -0.6012   -3.2995    3.8205 C   0  0  0  0  0  0  0  0  0  0  0  0
   -0.6574   -4.4683    3.4568 O   0  0  0  0  0  0  0  0  0  0  0  0
   -0.4935   -2.9859    5.2760 C   0  0  0  0  0  0  0  0  0  0  0  0
   -1.4789   -2.8689    5.7550 H   0  0  0  0  0  0  0  0  0  0  0  0
    0.0123   -3.7847    5.8419 H   0  0  0  0  0  0  0  0  0  0  0  0
    0.0585   -2.0642    5.5199 H   0  0  0  0  0  0  0  0  0  0  0  0
   -0.6261   -2.1849    2.9917 N   0  0  0  0  0  0  0  0  0  0  0  0
   -0.7237   -2.2601    1.5650 C   0  0  2  0  0  0  0  0  0  0  0  0
    0.1695   -1.1513    1.0687 C   0  0  0  0  0  0  0  0  0  0  0  0
    0.3193   -0.1267    1.7365 O   0  0  0  0  0  0  0  0  0  0  0  0
   -2.1397   -2.0663    1.0750 C   0  0  0  0  0  0  0  0  0  0  0  0
   -0.5717   -1.2606    3.4238 H   0  0  0  0  0  0  0  0  0  0  0  0
   -0.3076   -3.2111    1.2363 H   0  0  0  0  0  0  0  0  0  0  0  0
   -2.5584   -1.1089    1.4061 H   0  0  0  0  0  0  0  0  0  0  0  0
   -2.1682   -2.0790   -0.0197 H   0  0  0  0  0  0  0  0  0  0  0  0
   -2.7965   -2.8601    1.4459 H   0  0  0  0  0  0  0  0  0  0  0  0
    0.7724   -1.3745   -0.1593 N   0  0  0  0  0  0  0  0  0  0  0  0
    1.4013   -2.6430   -0.5035 C   0  0  2  0  0  0  0  0  0  0  0  0
    2.4980   -2.8768    0.4914 C   0  0  0  0  0  0  0  0  0  0  0  0
    2.6246   -3.9835    1.0021 O   0  0  0  0  0  0  0  0  0  0  0  0
    1.9487   -2.4346   -1.9108 C   0  0  0  0  0  0  0  0  0  0  0  0
    1.0859   -1.3321   -2.5199 C   0  0  0  0  0  0  0  0  0  0  0  0
    0.7259   -0.4794   -1.3127 C   0  0  0  0  0  0  0  0  0  0  0  0
    0.6846   -3.4672   -0.4380 H   0  0  0  0  0  0  0  0  0  0  0  0
    1.8215   -3.3495   -2.5016 H   0  0  0  0  0  0  0  0  0  0  0  0
    3.0051   -2.1499   -1.9318 H   0  0  0  0  0  0  0  0  0  0  0  0
    1.6674   -0.7482   -3.2427 H   0  0  0  0  0  0  0  0  0  0  0  0
    0.2054   -1.7317   -3.0310 H   0  0  0  0  0  0  0  0  0  0  0  0
    1.4120    0.3599   -1.1699 H   0  0  0  0  0  0  0  0  0  0  0  0
   -0.2974   -0.0958   -1.3879 H   0  0  0  0  0  0  0  0  0  0  0  0
    3.3082   -2.1280    0.8901 N   0  0  0  0  0  0  0  0  0  0  0  0
    4.1620   -2.1687    2.0556 C   0  0  2  0  0  0  0  0  0  0  0  0
    4.5672   -3.6178    2.2913 C   0  0  0  0  0  0  0  0  0  0  0  0
    3.9210   -4.5728    1.8652 O   0  0  0  0  0  0  0  0  0  0  0  0
    3.4595   -1.5953    3.2764 C   0  0  0  0  0  0  0  0  0  0  0  0
    3.5913   -1.5516    0.1033 H   0  0  0  0  0  0  0  0  0  0  0  0
    5.0509   -1.5744    1.8174 H   0  0  0  0  0  0  0  0  0  0  0  0
    2.5663   -2.1776    3.5304 H   0  0  0  0  0  0  0  0  0  0  0  0
    4.1174   -1.6006    4.1517 H   0  0  0  0  0  0  0  0  0  0  0  0
    3.1424   -0.5627    3.0944 H   0  0  0  0  0  0  0  0  0  0  0  0
    5.7114   -3.7196    3.0701 N   0  0  0  0  0  0  0  0  0  0  0  0
    6.2897   -4.9893    3.4438 C   0  0  0  0  0  0  0  0  0  0  0  0
    6.1928   -2.8748    3.3638 H   0  0  0  0  0  0  0  0  0  0  0  0
    5.8863   -5.3040    4.4176 H   0  0  0  0  0  0  0  0  0  0  0  0
    6.0407   -5.7436    2.6828 H   0  0  0  0  0  0  0  0  0  0  0  0
    7.3826   -4.8874    3.5153 H   0  0  0  0  0  0  0  0  0  0  0  0
 18 19  1  0  0  0  0
 19 31  1  0  0  0  0
 19 20  2  0  0  0  0
  8  9  1  0  0  0  0
  9 17  1  0  0  0  0
  9 10  2  0  0  0  0
  1  3  1  0  0  0  0
  1  7  1  0  0  0  0
  1  2  2  0  0  0  0
 32 33  1  0  0  0  0
 33 41  1  0  0  0  0
 33 34  2  0  0  0  0
 21 22  1  0  0  0  0
 22 23  1  0  0  0  0
 18 21  1  0  0  0  0
 17 23  1  0  0  0  0
 17 18  1  0  0  0  0
  8 11  1  0  0  0  0
 32 35  1  0  0  0  0
 41 42  1  0  0  0  0
  7  8  1  0  0  0  0
 31 32  1  0  0  0  0
 22 27  1  0  0  0  0
 22 28  1  0  0  0  0
 21 25  1  0  0  0  0
 21 26  1  0  0  0  0
 23 29  1  0  0  0  0
 23 30  1  0  0  0  0
 18 24  1  0  0  0  0
  3  4  1  0  0  0  0
  3  5  1  0  0  0  0
  3  6  1  0  0  0  0
 11 14  1  0  0  0  0
 11 15  1  0  0  0  0
 11 16  1  0  0  0  0
 35 38  1  0  0  0  0
 35 39  1  0  0  0  0
 35 40  1  0  0  0  0
 42 44  1  0  0  0  0
 42 45  1  0  0  0  0
 42 46  1  0  0  0  0
  8 13  1  0  0  0  0
 32 37  1  0  0  0  0
 31 36  1  0  0  0  0
 41 43  1  0  0  0  0
  7 12  1  0  0  0  0
M  END
$$$$

  -OEChem-02062319033D

 46 46  0     1  0  0  0  0  0999 V2000
   -0.6012   -3.2995    3.8205 C   0  0  0  0  0  0  0  0  0  0  0  0
   -0.6574   -4.4683    3.4568 O   0  0  0  0  0  0  0  0  0  0  0  0
   -0.4935   -2.9859    5.2760 C   0  0  0  0  0  0  0  0  0  0  0  0
   -1.4789   -2.8689    5.7550 H   0  0  0  0  0  0  0  0  0  0  0  0
    0.0123   -3.7847    5.8419 H   0  0  0  0  0  0  0  0  0  0  0  0
    0.0585   -2.0642    5.5199 H   0  0  0  0  0  0  0  0  0  0  0  0
   -0.6261   -2.1849    2.9917 N   0  0  0  0  0  0  0  0  0  0  0  0
   -0.7237   -2.2601    1.5650 C   0  0  2  0  0  0  0  0  0  0  0  0
    0.1695   -1.1513    1.0687 C   0  0  0  0  0  0  0  0  0  0  0  0
    0.3193   -0.1267    1.7365 O   0  0  0  0  0  0  0  0  0  0  0  0
   -2.1397   -2.0663    1.0750 C   0  0  0  0  0  0  0  0  0  0  0  0
   -0.5717   -1.2606    3.4238 H   0  0  0  0  0  0  0  0  0  0  0  0
   -0.3076   -3.2111    1.2363 H   0  0  0  0  0  0  0  0  0  0  0  0
   -2.5584   -1.1089    1.4061 H   0  0  0  0  0  0  0  0  0  0  0  0
   -2.1682   -2.0790   -0.0197 H   0  0  0  0  0  0  0  0  0  0  0  0
   -2.7965   -2.8601    1.4459 H   0  0  0  0  0  0  0  0  0  0  0  0
    0.7724   -1.3745   -0.1593 N   0  0  0  0  0  0  0  0  0  0  0  0
    1.1149   -2.7095   -0.6320 C   0  0  2  0  0  0  0  0  0  0  0  0
    2.0738   -3.2968    0.3594 C   0  0  0  0  0  0  0  0  0  0  0  0
    1.9178   -4.4511    0.7400 O   0  0  0  0  0  0  0  0  0  0  0  0
    1.7716   -2.4833   -1.9889 C   0  0  0  0  0  0  0  0  0  0  0  0
    1.2162   -1.1518   -2.4887 C   0  0  0  0  0  0  0  0  0  0  0  0
    0.9935   -0.3741   -1.2004 C   0  0  0  0  0  0  0  0  0  0  0  0
    0.2275   -3.3473   -0.6843 H   0  0  0  0  0  0  0  0  0  0  0  0
    1.4727   -3.2747   -2.6864 H   0  0  0  0  0  0  0  0  0  0  0  0
    2.8647   -2.4505   -1.9462 H   0  0  0  0  0  0  0  0  0  0  0  0
    1.9538   -0.6442   -3.1210 H   0  0  0  0  0  0  0  0  0  0  0  0
    0.2974   -1.2791   -3.0681 H   0  0  0  0  0  0  0  0  0  0  0  0
    1.8433    0.2631   -0.9405 H   0  0  0  0  0  0  0  0  0  0  0  0
    0.0897    0.2420   -1.2593 H   0  0  0  0  0  0  0  0  0  0  0  0
    3.0096   -2.8035    0.8663 N   0  0  0  0  0  0  0  0  0  0  0  0
    3.7667   -3.1662    2.0429 C   0  0  2  0  0  0  0  0  0  0  0  0
    3.8190   -4.6864    2.1182 C   0  0  0  0  0  0  0  0  0  0  0  0
    2.9974   -5.4142    1.5646 O   0  0  0  0  0  0  0  0  0  0  0  0
    3.1469   -2.5806    3.3020 C   0  0  0  0  0  0  0  0  0  0  0  0
    3.4588   -2.2271    0.1611 H   0  0  0  0  0  0  0  0  0  0  0  0
    4.7789   -2.7720    1.9016 H   0  0  0  0  0  0  0  0  0  0  0  0
    2.1323   -2.9640    3.4602 H   0  0  0  0  0  0  0  0  0  0  0  0
    3.7374   -2.8324    4.1891 H   0  0  0  0  0  0  0  0  0  0  0  0
    3.0828   -1.4892    3.2336 H   0  0  0  0  0  0  0  0  0  0  0  0
    4.8658   -5.1339    2.9120 N   0  0  0  0  0  0  0  0  0  0  0  0
    5.1195   -6.5356    3.1504 C   0  0  0  0  0  0  0  0  0  0  0  0
    5.5095   -4.4603    3.3165 H   0  0  0  0  0  0  0  0  0  0  0  0
    4.6026   -6.8514    4.0686 H   0  0  0  0  0  0  0  0  0  0  0  0
    4.7480   -7.1253    2.2993 H   0  0  0  0  0  0  0  0  0  0  0  0
    6.2014   -6.6981    3.2645 H   0  0  0  0  0  0  0  0  0  0  0  0
 18 19  1  0  0  0  0
 19 31  1  0  0  0  0
 19 20  2  0  0  0  0
  8  9  1  0  0  0  0
  9 17  1  0  0  0  0
  9 10  2  0  0  0  0
  1  3  1  0  0  0  0
  1  7  1  0  0  0  0
  1  2  2  0  0  0  0
 32 33  1  0  0  0  0
 33 41  1  0  0  0  0
 33 34  2  0  0  0  0
 21 22  1  0  0  0  0
 22 23  1  0  0  0  0
 18 21  1  0  0  0  0
 17 23  1  0  0  0  0
 17 18  1  0  0  0  0
  8 11  1  0  0  0  0
 32 35  1  0  0  0  0
 41 42  1  0  0  0  0
  7  8  1  0  0  0  0
 31 32  1  0  0  0  0
 22 27  1  0  0  0  0
 22 28  1  0  0  0  0
 21 25  1  0  0  0  0
 21 26  1  0  0  0  0
 23 29  1  0  0  0  0
 23 30  1  0  0  0  0
 18 24  1  0  0  0  0
  3  4  1  0  0  0  0
  3  5  1  0  0  0  0
  3  6  1  0  0  0  0
 11 14  1  0  0  0  0
 11 15  1  0  0  0  0
 11 16  1  0  0  0  0
 35 38  1  0  0  0  0
 35 39  1  0  0  0  0
 35 40  1  0  0  0  0
 42 44  1  0  0  0  0
 42 45  1  0  0  0  0
 42 46  1  0  0  0  0
  8 13  1  0  0  0  0
 32 37  1  0  0  0  0
 31 36  1  0  0  0  0
 41 43  1  0  0  0  0
  7 12  1  0  0  0  0
M  END
$$$$

  -OEChem-02062319033D

 46 46  0     1  0  0  0  0  0999 V2000
   -0.6012   -3.2995    3.8205 C   0  0  0  0  0  0  0  0  0  0  0  0
   -0.6574   -4.4683    3.4568 O   0  0  0  0  0  0  0  0  0  0  0  0
   -0.4935   -2.9859    5.2760 C   0  0  0  0  0  0  0  0  0  0  0  0
   -1.4789   -2.8689    5.7550 H   0  0  0  0  0  0  0  0  0  0  0  0
    0.0123   -3.7847    5.8419 H   0  0  0  0  0  0  0  0  0  0  0  0
    0.0585   -2.0642    5.5199 H   0  0  0  0  0  0  0  0  0  0  0  0
   -0.6261   -2.1849    2.9917 N   0  0  0  0  0  0  0  0  0  0  0  0
   -0.7237   -2.2601    1.5650 C   0  0  2  0  0  0  0  0  0  0  0  0
    0.1695   -1.1513    1.0687 C   0  0  0  0  0  0  0  0  0  0  0  0
    0.3193   -0.1267    1.7365 O   0  0  0  0  0  0  0  0  0  0  0  0
   -2.1397   -2.0663    1.0750 C   0  0  0  0  0  0  0  0  0  0  0  0
   -0.5717   -1.2606    3.4238 H   0  0  0  0  0  0  0  0  0  0  0  0
   -0.3076   -3.2111    1.2363 H   0  0  0  0  0  0  0  0  0  0  0  0
   -2.5584   -1.1089    1.4061 H   0  0  0  0  0  0  0  0  0  0  0  0
   -2.1682   -2.0790   -0.0197 H   0  0  0  0  0  0  0  0  0  0  0  0
   -2.7965   -2.8601    1.4459 H   0  0  0  0  0  0  0  0  0  0  0  0
    0.7724   -1.3745   -0.1593 N   0  0  0  0  0  0  0  0  0  0  0  0
    0.8285   -2.6936   -0.7756 C   0  0  2  0  0  0  0  0  0  0  0  0
    1.5732   -3.5904    0.1670 C   0  0  0  0  0  0  0  0  0  0  0  0
    1.1387   -4.7113    0.4048 O   0  0  0  0  0  0  0  0  0  0  0  0
    1.5927   -2.4809   -2.0771 C   0  0  0  0  0  0  0  0  0  0  0  0
    1.3822   -1.0111   -2.4328 C   0  0  0  0  0  0  0  0  0  0  0  0
    1.2715   -0.3464   -1.0690 C   0  0  0  0  0  0  0  0  0  0  0  0
   -0.1764   -3.0991   -0.9277 H   0  0  0  0  0  0  0  0  0  0  0  0
    1.1607   -3.1017   -2.8711 H   0  0  0  0  0  0  0  0  0  0  0  0
    2.6606   -2.7071   -1.9997 H   0  0  0  0  0  0  0  0  0  0  0  0
    2.2492   -0.6231   -2.9798 H   0  0  0  0  0  0  0  0  0  0  0  0
    0.4916   -0.8589   -3.0491 H   0  0  0  0  0  0  0  0  0  0  0  0
    2.2281    0.0448   -0.7119 H   0  0  0  0  0  0  0  0  0  0  0  0
    0.5356    0.4650   -1.0809 H   0  0  0  0  0  0  0  0  0  0  0  0
    2.5673   -3.3848    0.7549 N   0  0  0  0  0  0  0  0  0  0  0  0
    3.1567   -4.0377    1.9018 C   0  0  2  0  0  0  0  0  0  0  0  0
    2.8585   -5.5277    1.7996 C   0  0  0  0  0  0  0  0  0  0  0  0
    1.9248   -5.9813    1.1411 O   0  0  0  0  0  0  0  0  0  0  0  0
    2.6179   -3.4635    3.2028 C   0  0  0  0  0  0  0  0  0  0  0  0
    3.1736   -2.8557    0.1353 H   0  0  0  0  0  0  0  0  0  0  0  0
    4.2382   -3.8758    1.8367 H   0  0  0  0  0  0  0  0  0  0  0  0
    1.5356   -3.6162    3.2859 H   0  0  0  0  0  0  0  0  0  0  0  0
    3.0864   -3.9393    4.0706 H   0  0  0  0  0  0  0  0  0  0  0  0
    2.8069   -2.3862    3.2612 H   0  0  0  0  0  0  0  0  0  0  0  0
    3.7313   -6.2883    2.5648 N   0  0  0  0  0  0  0  0  0  0  0  0
    3.6469   -7.7280    2.6441 C   0  0  0  0  0  0  0  0  0  0  0  0
    4.4879   -5.8298    3.0639 H   0  0  0  0  0  0  0  0  0  0  0  0
    3.0222   -8.0124    3.5037 H   0  0  0  0  0  0  0  0  0  0  0  0
    3.1985   -8.1203    1.7194 H   0  0  0  0  0  0  0  0  0  0  0  0
    4.6558   -8.1480    2.7693 H   0  0  0  0  0  0  0  0  0  0  0  0
 18 19  1  0  0  0  0
 19 31  1  0  0  0  0
 19 20  2  0  0  0  0
  8  9  1  0  0  0  0
  9 17  1  0  0  0  0
  9 10  2  0  0  0  0
  1  3  1  0  0  0  0
  1  7  1  0  0  0  0
  1  2  2  0  0  0  0
 32 33  1  0  0  0  0
 33 41  1  0  0  0  0
 33 34  2  0  0  0  0
 21 22  1  0  0  0  0
 22 23  1  0  0  0  0
 18 21  1  0  0  0  0
 17 23  1  0  0  0  0
 17 18  1  0  0  0  0
  8 11  1  0  0  0  0
 32 35  1  0  0  0  0
 41 42  1  0  0  0  0
  7  8  1  0  0  0  0
 31 32  1  0  0  0  0
 22 27  1  0  0  0  0
 22 28  1  0  0  0  0
 21 25  1  0  0  0  0
 21 26  1  0  0  0  0
 23 29  1  0  0  0  0
 23 30  1  0  0  0  0
 18 24  1  0  0  0  0
  3  4  1  0  0  0  0
  3  5  1  0  0  0  0
  3  6  1  0  0  0  0
 11 14  1  0  0  0  0
 11 15  1  0  0  0  0
 11 16  1  0  0  0  0
 35 38  1  0  0  0  0
 35 39  1  0  0  0  0
 35 40  1  0  0  0  0
 42 44  1  0  0  0  0
 42 45  1  0  0  0  0
 42 46  1  0  0  0  0
  8 13  1  0  0  0  0
 32 37  1  0  0  0  0
 31 36  1  0  0  0  0
 41 43  1  0  0  0  0
  7 12  1  0  0  0  0
M  END
$$$$

  -OEChem-02062319033D

 46 46  0     1  0  0  0  0  0999 V2000
   -0.6012   -3.2995    3.8205 C   0  0  0  0  0  0  0  0  0  0  0  0
   -0.6574   -4.4683    3.4568 O   0  0  0  0  0  0  0  0  0  0  0  0
   -0.4935   -2.9859    5.2760 C   0  0  0  0  0  0  0  0  0  0  0  0
   -1.4789   -2.8689    5.7550 H   0  0  0  0  0  0  0  0  0  0  0  0
    0.0123   -3.7847    5.8419 H   0  0  0  0  0  0  0  0  0  0  0  0
    0.0585   -2.0642    5.5199 H   0  0  0  0  0  0  0  0  0  0  0  0
   -0.6261   -2.1849    2.9917 N   0  0  0  0  0  0  0  0  0  0  0  0
   -0.7237   -2.2601    1.5650 C   0  0  2  0  0  0  0  0  0  0  0  0
    0.1695   -1.1513    1.0687 C   0  0  0  0  0  0  0  0  0  0  0  0
    0.3193   -0.1267    1.7365 O   0  0  0  0  0  0  0  0  0  0  0  0
   -2.1397   -2.0663    1.0750 C   0  0  0  0  0  0  0  0  0  0  0  0
   -0.5717   -1.2606    3.4238 H   0  0  0  0  0  0  0  0  0  0  0  0
   -0.3076   -3.2111    1.2363 H   0  0  0  0  0  0  0  0  0  0  0  0
   -2.5584   -1.1089    1.4061 H   0  0  0  0  0  0  0  0  0  0  0  0
   -2.1682   -2.0790   -0.0197 H   0  0  0  0  0  0  0  0  0  0  0  0
   -2.7965   -2.8601    1.4459 H   0  0  0  0  0  0  0  0  0  0  0  0
    0.7724   -1.3745   -0.1593 N   0  0  0  0  0  0  0  0  0  0  0  0
    0.5614   -2.5964   -0.9244 C   0  0  2  0  0  0  0  0  0  0  0  0
    1.0304   -3.7375   -0.0727 C   0  0  0  0  0  0  0  0  0  0  0  0
    0.3406   -4.7462    0.0193 O   0  0  0  0  0  0  0  0  0  0  0  0
    1.4241   -2.4277   -2.1696 C   0  0  0  0  0  0  0  0  0  0  0  0
    1.5724   -0.9196   -2.3560 C   0  0  0  0  0  0  0  0  0  0  0  0
    1.5408   -0.3981   -0.9273 C   0  0  0  0  0  0  0  0  0  0  0  0
   -0.4994   -2.7392   -1.1516 H   0  0  0  0  0  0  0  0  0  0  0  0
    0.9067   -2.8423   -3.0430 H   0  0  0  0  0  0  0  0  0  0  0  0
    2.4070   -2.9021   -2.0888 H   0  0  0  0  0  0  0  0  0  0  0  0
    2.5335   -0.6864   -2.8287 H   0  0  0  0  0  0  0  0  0  0  0  0
    0.7747   -0.4997   -2.9754 H   0  0  0  0  0  0  0  0  0  0  0  0
    2.5402   -0.2801   -0.4996 H   0  0  0  0  0  0  0  0  0  0  0  0
    1.0101    0.5581   -0.8649 H   0  0  0  0  0  0  0  0  0  0  0  0
    2.0115   -3.8324    0.5633 N   0  0  0  0  0  0  0  0  0  0  0  0
    2.3736   -4.7237    1.6420 C   0  0  2  0  0  0  0  0  0  0  0  0
    1.7511   -6.0841    1.3570 C   0  0  0  0  0  0  0  0  0  0  0  0
    0.7763   -6.2354    0.6235 O   0  0  0  0  0  0  0  0  0  0  0  0
    1.9086   -4.1839    2.9855 C   0  0  0  0  0  0  0  0  0  0  0  0
    2.7550   -3.3946    0.0277 H   0  0  0  0  0  0  0  0  0  0  0  0
    3.4655   -4.8108    1.6273 H   0  0  0  0  0  0  0  0  0  0  0  0
    0.8171   -4.0897    3.0191 H   0  0  0  0  0  0  0  0  0  0  0  0
    2.2086   -4.8459    3.8045 H   0  0  0  0  0  0  0  0  0  0  0  0
    2.3337   -3.1924    3.1754 H   0  0  0  0  0  0  0  0  0  0  0  0
    2.3853   -7.1042    2.0523 N   0  0  0  0  0  0  0  0  0  0  0  0
    1.9722   -8.4851    1.9595 C   0  0  0  0  0  0  0  0  0  0  0  0
    3.1977   -6.8899    2.6231 H   0  0  0  0  0  0  0  0  0  0  0  0
    1.2531   -8.7079    2.7616 H   0  0  0  0  0  0  0  0  0  0  0  0
    1.4978   -8.6609    0.9827 H   0  0  0  0  0  0  0  0  0  0  0  0
    2.8510   -9.1384    2.0632 H   0  0  0  0  0  0  0  0  0  0  0  0
 18 19  1  0  0  0  0
 19 31  1  0  0  0  0
 19 20  2  0  0  0  0
  8  9  1  0  0  0  0
  9 17  1  0  0  0  0
  9 10  2  0  0  0  0
  1  3  1  0  0  0  0
  1  7  1  0  0  0  0
  1  2  2  0  0  0  0
 32 33  1  0  0  0  0
 33 41  1  0  0  0  0
 33 34  2  0  0  0  0
 21 22  1  0  0  0  0
 22 23  1  0  0  0  0
 18 21  1  0  0  0  0
 17 23  1  0  0  0  0
 17 18  1  0  0  0  0
  8 11  1  0  0  0  0
 32 35  1  0  0  0  0
 41 42  1  0  0  0  0
  7  8  1  0  0  0  0
 31 32  1  0  0  0  0
 22 27  1  0  0  0  0
 22 28  1  0  0  0  0
 21 25  1  0  0  0  0
 21 26  1  0  0  0  0
 23 29  1  0  0  0  0
 23 30  1  0  0  0  0
 18 24  1  0  0  0  0
  3  4  1  0  0  0  0
  3  5  1  0  0  0  0
  3  6  1  0  0  0  0
 11 14  1  0  0  0  0
 11 15  1  0  0  0  0
 11 16  1  0  0  0  0
 35 38  1  0  0  0  0
 35 39  1  0  0  0  0
 35 40  1  0  0  0  0
 42 44  1  0  0  0  0
 42 45  1  0  0  0  0
 42 46  1  0  0  0  0
  8 13  1  0  0  0  0
 32 37  1  0  0  0  0
 31 36  1  0  0  0  0
 41 43  1  0  0  0  0
  7 12  1  0  0  0  0
M  END
$$$$

  -OEChem-02062319033D

 46 46  0     1  0  0  0  0  0999 V2000
   -0.6012   -3.2995    3.8205 C   0  0  0  0  0  0  0  0  0  0  0  0
   -0.6574   -4.4683    3.4568 O   0  0  0  0  0  0  0  0  0  0  0  0
   -0.4935   -2.9859    5.2760 C   0  0  0  0  0  0  0  0  0  0  0  0
   -1.4789   -2.8689    5.7550 H   0  0  0  0  0  0  0  0  0  0  0  0
    0.0123   -3.7847    5.8419 H   0  0  0  0  0  0  0  0  0  0  0  0
    0.0585   -2.0642    5.5199 H   0  0  0  0  0  0  0  0  0  0  0  0
   -0.6261   -2.1849    2.9917 N   0  0  0  0  0  0  0  0  0  0  0  0
   -0.7237   -2.2601    1.5650 C   0  0  2  0  0  0  0  0  0  0  0  0
    0.1695   -1.1513    1.0687 C   0  0  0  0  0  0  0  0  0  0  0  0
    0.3193   -0.1267    1.7365 O   0  0  0  0  0  0  0  0  0  0  0  0
   -2.1397   -2.0663    1.0750 C   0  0  0  0  0  0  0  0  0  0  0  0
   -0.5717   -1.2606    3.4238 H   0  0  0  0  0  0  0  0  0  0  0  0
   -0.3076   -3.2111    1.2363 H   0  0  0  0  0  0  0  0  0  0  0  0
   -2.5584   -1.1089    1.4061 H   0  0  0  0  0  0  0  0  0  0  0  0
   -2.1682   -2.0790   -0.0197 H   0  0  0  0  0  0  0  0  0  0  0  0
   -2.7965   -2.8601    1.4459 H   0  0  0  0  0  0  0  0  0  0  0  0
    0.7724   -1.3745   -0.1593 N   0  0  0  0  0  0  0  0  0  0  0  0
    0.3319   -2.4246   -1.0683 C   0  0  2  0  0  0  0  0  0  0  0  0
    0.4823   -3.7282   -0.3435 C   0  0  0  0  0  0  0  0  0  0  0  0
   -0.4224   -4.5534   -0.3903 O   0  0  0  0  0  0  0  0  0  0  0  0
    1.2773   -2.3271   -2.2599 C   0  0  0  0  0  0  0  0  0  0  0  0
    1.7739   -0.8834   -2.2637 C   0  0  0  0  0  0  0  0  0  0  0  0
    1.7833   -0.5259   -0.7851 C   0  0  0  0  0  0  0  0  0  0  0  0
   -0.7195   -2.2924   -1.3409 H   0  0  0  0  0  0  0  0  0  0  0  0
    0.7280   -2.5140   -3.1904 H   0  0  0  0  0  0  0  0  0  0  0  0
    2.1209   -3.0222   -2.2074 H   0  0  0  0  0  0  0  0  0  0  0  0
    2.7872   -0.8297   -2.6781 H   0  0  0  0  0  0  0  0  0  0  0  0
    1.1275   -0.2259   -2.8520 H   0  0  0  0  0  0  0  0  0  0  0  0
    2.7583   -0.6893   -0.3182 H   0  0  0  0  0  0  0  0  0  0  0  0
    1.4807    0.5149   -0.6260 H   0  0  0  0  0  0  0  0  0  0  0  0
    1.3799   -4.1158    0.3047 N   0  0  0  0  0  0  0  0  0  0  0  0
    1.4706   -5.1775    1.2812 C   0  0  2  0  0  0  0  0  0  0  0  0
    0.5722   -6.3179    0.8208 C   0  0  0  0  0  0  0  0  0  0  0  0
   -0.3697   -6.1593    0.0470 O   0  0  0  0  0  0  0  0  0  0  0  0
    1.0674   -4.6926    2.6650 C   0  0  0  0  0  0  0  0  0  0  0  0
    2.2316   -3.8070   -0.1543 H   0  0  0  0  0  0  0  0  0  0  0  0
    2.5134   -5.5131    1.2875 H   0  0  0  0  0  0  0  0  0  0  0  0
    0.0255   -4.3523    2.6782 H   0  0  0  0  0  0  0  0  0  0  0  0
    1.1639   -5.4904    3.4087 H   0  0  0  0  0  0  0  0  0  0  0  0
    1.6953   -3.8530    2.9820 H   0  0  0  0  0  0  0  0  0  0  0  0
    0.9194   -7.5259    1.4092 N   0  0  0  0  0  0  0  0  0  0  0  0
    0.2094   -8.7552    1.1432 C   0  0  0  0  0  0  0  0  0  0  0  0
    1.7266   -7.5684    2.0243 H   0  0  0  0  0  0  0  0  0  0  0  0
   -0.5843   -8.8905    1.8927 H   0  0  0  0  0  0  0  0  0  0  0  0
   -0.2382   -8.7101    0.1394 H   0  0  0  0  0  0  0  0  0  0  0  0
    0.9101   -9.6016    1.1945 H   0  0  0  0  0  0  0  0  0  0  0  0
 18 19  1  0  0  0  0
 19 31  1  0  0  0  0
 19 20  2  0  0  0  0
  8  9  1  0  0  0  0
  9 17  1  0  0  0  0
  9 10  2  0  0  0  0
  1  3  1  0  0  0  0
  1  7  1  0  0  0  0
  1  2  2  0  0  0  0
 32 33  1  0  0  0  0
 33 41  1  0  0  0  0
 33 34  2  0  0  0  0
 21 22  1  0  0  0  0
 22 23  1  0  0  0  0
 18 21  1  0  0  0  0
 17 23  1  0  0  0  0
 17 18  1  0  0  0  0
  8 11  1  0  0  0  0
 32 35  1  0  0  0  0
 41 42  1  0  0  0  0
  7  8  1  0  0  0  0
 31 32  1  0  0  0  0
 22 27  1  0  0  0  0
 22 28  1  0  0  0  0
 21 25  1  0  0  0  0
 21 26  1  0  0  0  0
 23 29  1  0  0  0  0
 23 30  1  0  0  0  0
 18 24  1  0  0  0  0
  3  4  1  0  0  0  0
  3  5  1  0  0  0  0
  3  6  1  0  0  0  0
 11 14  1  0  0  0  0
 11 15  1  0  0  0  0
 11 16  1  0  0  0  0
 35 38  1  0  0  0  0
 35 39  1  0  0  0  0
 35 40  1  0  0  0  0
 42 44  1  0  0  0  0
 42 45  1  0  0  0  0
 42 46  1  0  0  0  0
  8 13  1  0  0  0  0
 32 37  1  0  0  0  0
 31 36  1  0  0  0  0
 41 43  1  0  0  0  0
  7 12  1  0  0  0  0
M  END
$$$$

  -OEChem-02062319033D

 46 46  0     1  0  0  0  0  0999 V2000
   -0.6012   -3.2995    3.8205 C   0  0  0  0  0  0  0  0  0  0  0  0
   -0.6574   -4.4683    3.4568 O   0  0  0  0  0  0  0  0  0  0  0  0
   -0.4935   -2.9859    5.2760 C   0  0  0  0  0  0  0  0  0  0  0  0
   -1.4789   -2.8689    5.7550 H   0  0  0  0  0  0  0  0  0  0  0  0
    0.0123   -3.7847    5.8419 H   0  0  0  0  0  0  0  0  0  0  0  0
    0.0585   -2.0642    5.5199 H   0  0  0  0  0  0  0  0  0  0  0  0
   -0.6261   -2.1849    2.9917 N   0  0  0  0  0  0  0  0  0  0  0  0
   -0.7237   -2.2601    1.5650 C   0  0  2  0  0  0  0  0  0  0  0  0
    0.1695   -1.1513    1.0687 C   0  0  0  0  0  0  0  0  0  0  0  0
    0.3193   -0.1267    1.7365 O   0  0  0  0  0  0  0  0  0  0  0  0
   -2.1397   -2.0663    1.0750 C   0  0  0  0  0  0  0  0  0  0  0  0
   -0.5717   -1.2606    3.4238 H   0  0  0  0  0  0  0  0  0  0  0  0
   -0.3076   -3.2111    1.2363 H   0  0  0  0  0  0  0  0  0  0  0  0
   -2.5584   -1.1089    1.4061 H   0  0  0  0  0  0  0  0  0  0  0  0
   -2.1682   -2.0790   -0.0197 H   0  0  0  0  0  0  0  0  0  0  0  0
   -2.7965   -2.8601    1.4459 H   0  0  0  0  0  0  0  0  0  0  0  0
    0.7724   -1.3745   -0.1593 N   0  0  0  0  0  0  0  0  0  0  0  0
    0.1556   -2.1898   -1.1975 C   0  0  2  0  0  0  0  0  0  0  0  0
   -0.0336   -3.5630   -0.6268 C   0  0  0  0  0  0  0  0  0  0  0  0
   -1.0980   -4.1462   -0.7961 O   0  0  0  0  0  0  0  0  0  0  0  0
    1.1623   -2.1862   -2.3420 C   0  0  0  0  0  0  0  0  0  0  0  0
    1.9730   -0.9051   -2.1620 C   0  0  0  0  0  0  0  0  0  0  0  0
    1.9822   -0.7208   -0.6520 C   0  0  0  0  0  0  0  0  0  0  0  0
   -0.8218   -1.7890   -1.4827 H   0  0  0  0  0  0  0  0  0  0  0  0
    0.6368   -2.1394   -3.3032 H   0  0  0  0  0  0  0  0  0  0  0  0
    1.8220   -3.0594   -2.3474 H   0  0  0  0  0  0  0  0  0  0  0  0
    2.9932   -1.0433   -2.5381 H   0  0  0  0  0  0  0  0  0  0  0  0
    1.5259   -0.0563   -2.6872 H   0  0  0  0  0  0  0  0  0  0  0  0
    2.8676   -1.1550   -0.1798 H   0  0  0  0  0  0  0  0  0  0  0  0
    1.9154    0.3383   -0.3805 H   0  0  0  0  0  0  0  0  0  0  0  0
    0.7157   -4.2155   -0.0033 N   0  0  0  0  0  0  0  0  0  0  0  0
    0.5094   -5.3682    0.8439 C   0  0  2  0  0  0  0  0  0  0  0  0
   -0.5977   -6.2130    0.2273 C   0  0  0  0  0  0  0  0  0  0  0  0
   -1.4351   -5.7581   -0.5490 O   0  0  0  0  0  0  0  0  0  0  0  0
    0.1515   -4.9550    2.2630 C   0  0  0  0  0  0  0  0  0  0  0  0
    1.6390   -4.0649   -0.3983 H   0  0  0  0  0  0  0  0  0  0  0  0
    1.4469   -5.9349    0.8406 H   0  0  0  0  0  0  0  0  0  0  0  0
   -0.7851   -4.3861    2.2864 H   0  0  0  0  0  0  0  0  0  0  0  0
    0.0236   -5.8289    2.9104 H   0  0  0  0  0  0  0  0  0  0  0  0
    0.9352   -4.3229    2.6943 H   0  0  0  0  0  0  0  0  0  0  0  0
   -0.5665   -7.5248    0.6795 N   0  0  0  0  0  0  0  0  0  0  0  0
   -1.5212   -8.5201    0.2508 C   0  0  0  0  0  0  0  0  0  0  0  0
    0.1751   -7.8191    1.3081 H   0  0  0  0  0  0  0  0  0  0  0  0
   -2.3647   -8.5477    0.9562 H   0  0  0  0  0  0  0  0  0  0  0  0
   -1.8912   -8.2647   -0.7531 H   0  0  0  0  0  0  0  0  0  0  0  0
   -1.0347   -9.5063    0.2223 H   0  0  0  0  0  0  0  0  0  0  0  0
 18 19  1  0  0  0  0
 19 31  1  0  0  0  0
 19 20  2  0  0  0  0
  8  9  1  0  0  0  0
  9 17  1  0  0  0  0
  9 10  2  0  0  0  0
  1  3  1  0  0  0  0
  1  7  1  0  0  0  0
  1  2  2  0  0  0  0
 32 33  1  0  0  0  0
 33 41  1  0  0  0  0
 33 34  2  0  0  0  0
 21 22  1  0  0  0  0
 22 23  1  0  0  0  0
 18 21  1  0  0  0  0
 17 23  1  0  0  0  0
 17 18  1  0  0  0  0
  8 11  1  0  0  0  0
 32 35  1  0  0  0  0
 41 42  1  0  0  0  0
  7  8  1  0  0  0  0
 31 32  1  0  0  0  0
 22 27  1  0  0  0  0
 22 28  1  0  0  0  0
 21 25  1  0  0  0  0
 21 26  1  0  0  0  0
 23 29  1  0  0  0  0
 23 30  1  0  0  0  0
 18 24  1  0  0  0  0
  3  4  1  0  0  0  0
  3  5  1  0  0  0  0
  3  6  1  0  0  0  0
 11 14  1  0  0  0  0
 11 15  1  0  0  0  0
 11 16  1  0  0  0  0
 35 38  1  0  0  0  0
 35 39  1  0  0  0  0
 35 40  1  0  0  0  0
 42 44  1  0  0  0  0
 42 45  1  0  0  0  0
 42 46  1  0  0  0  0
  8 13  1  0  0  0  0
 32 37  1  0  0  0  0
 31 36  1  0  0  0  0
 41 43  1  0  0  0  0
  7 12  1  0  0  0  0
M  END
$$$$

  -OEChem-02062319033D

 46 46  0     1  0  0  0  0  0999 V2000
   -0.6012   -3.2995    3.8205 C   0  0  0  0  0  0  0  0  0  0  0  0
   -0.6574   -4.4683    3.4568 O   0  0  0  0  0  0  0  0  0  0  0  0
   -0.4935   -2.9859    5.2760 C   0  0  0  0  0  0  0  0  0  0  0  0
   -1.4789   -2.8689    5.7550 H   0  0  0  0  0  0  0  0  0  0  0  0
    0.0123   -3.7847    5.8419 H   0  0  0  0  0  0  0  0  0  0  0  0
    0.0585   -2.0642    5.5199 H   0  0  0  0  0  0  0  0  0  0  0  0
   -0.6261   -2.1849    2.9917 N   0  0  0  0  0  0  0  0  0  0  0  0
   -0.7237   -2.2601    1.5650 C   0  0  2  0  0  0  0  0  0  0  0  0
    0.1695   -1.1513    1.0687 C   0  0  0  0  0  0  0  0  0  0  0  0
    0.3193   -0.1267    1.7365 O   0  0  0  0  0  0  0  0  0  0  0  0
   -2.1397   -2.0663    1.0750 C   0  0  0  0  0  0  0  0  0  0  0  0
   -0.5717   -1.2606    3.4238 H   0  0  0  0  0  0  0  0  0  0  0  0
   -0.3076   -3.2111    1.2363 H   0  0  0  0  0  0  0  0  0  0  0  0
   -2.5584   -1.1089    1.4061 H   0  0  0  0  0  0  0  0  0  0  0  0
   -2.1682   -2.0790   -0.0197 H   0  0  0  0  0  0  0  0  0  0  0  0
   -2.7965   -2.8601    1.4459 H   0  0  0  0  0  0  0  0  0  0  0  0
    0.7724   -1.3745   -0.1593 N   0  0  0  0  0  0  0  0  0  0  0  0
    0.0445   -1.9080   -1.3033 C   0  0  2  0  0  0  0  0  0  0  0  0
   -0.4824   -3.2533   -0.9035 C   0  0  0  0  0  0  0  0  0  0  0  0
   -1.6404   -3.5523   -1.1703 O   0  0  0  0  0  0  0  0  0  0  0  0
    1.0870   -2.0145   -2.4102 C   0  0  0  0  0  0  0  0  0  0  0  0
    2.1561   -0.9831   -2.0579 C   0  0  0  0  0  0  0  0  0  0  0  0
    2.1241   -0.9697   -0.5371 C   0  0  0  0  0  0  0  0  0  0  0  0
   -0.7993   -1.2634   -1.5672 H   0  0  0  0  0  0  0  0  0  0  0  0
    0.6392   -1.7440   -3.3739 H   0  0  0  0  0  0  0  0  0  0  0  0
    1.5306   -3.0109   -2.4992 H   0  0  0  0  0  0  0  0  0  0  0  0
    3.1374   -1.3126   -2.4184 H   0  0  0  0  0  0  0  0  0  0  0  0
    1.9428   -0.0023   -2.4924 H   0  0  0  0  0  0  0  0  0  0  0  0
    2.8607   -1.6455   -0.0941 H   0  0  0  0  0  0  0  0  0  0  0  0
    2.2846    0.0405   -0.1451 H   0  0  0  0  0  0  0  0  0  0  0  0
    0.0640   -4.1249   -0.3397 N   0  0  0  0  0  0  0  0  0  0  0  0
   -0.4445   -5.2828    0.3601 C   0  0  2  0  0  0  0  0  0  0  0  0
   -1.6789   -5.7767   -0.3828 C   0  0  0  0  0  0  0  0  0  0  0  0
   -2.3475   -5.0592   -1.1240 O   0  0  0  0  0  0  0  0  0  0  0  0
   -0.7766   -4.9533    1.8071 C   0  0  0  0  0  0  0  0  0  0  0  0
    1.0177   -4.1506   -0.6878 H   0  0  0  0  0  0  0  0  0  0  0  0
    0.3387   -6.0476    0.3170 H   0  0  0  0  0  0  0  0  0  0  0  0
   -1.5595   -4.1887    1.8704 H   0  0  0  0  0  0  0  0  0  0  0  0
   -1.1347   -5.8382    2.3434 H   0  0  0  0  0  0  0  0  0  0  0  0
    0.1053   -4.5701    2.3318 H   0  0  0  0  0  0  0  0  0  0  0  0
   -1.9710   -7.1008   -0.0871 N   0  0  0  0  0  0  0  0  0  0  0  0
   -3.1017   -7.7957   -0.6569 C   0  0  0  0  0  0  0  0  0  0  0  0
   -1.3511   -7.6249    0.5235 H   0  0  0  0  0  0  0  0  0  0  0  0
   -3.9669   -7.7030    0.0161 H   0  0  0  0  0  0  0  0  0  0  0  0
   -3.3485   -7.3549   -1.6340 H   0  0  0  0  0  0  0  0  0  0  0  0
   -2.8509   -8.8588   -0.7870 H   0  0  0  0  0  0  0  0  0  0  0  0
 18 19  1  0  0  0  0
 19 31  1  0  0  0  0
 19 20  2  0  0  0  0
  8  9  1  0  0  0  0
  9 17  1  0  0  0  0
  9 10  2  0  0  0  0
  1  3  1  0  0  0  0
  1  7  1  0  0  0  0
  1  2  2  0  0  0  0
 32 33  1  0  0  0  0
 33 41  1  0  0  0  0
 33 34  2  0  0  0  0
 21 22  1  0  0  0  0
 22 23  1  0  0  0  0
 18 21  1  0  0  0  0
 17 23  1  0  0  0  0
 17 18  1  0  0  0  0
  8 11  1  0  0  0  0
 32 35  1  0  0  0  0
 41 42  1  0  0  0  0
  7  8  1  0  0  0  0
 31 32  1  0  0  0  0
 22 27  1  0  0  0  0
 22 28  1  0  0  0  0
 21 25  1  0  0  0  0
 21 26  1  0  0  0  0
 23 29  1  0  0  0  0
 23 30  1  0  0  0  0
 18 24  1  0  0  0  0
  3  4  1  0  0  0  0
  3  5  1  0  0  0  0
  3  6  1  0  0  0  0
 11 14  1  0  0  0  0
 11 15  1  0  0  0  0
 11 16  1  0  0  0  0
 35 38  1  0  0  0  0
 35 39  1  0  0  0  0
 35 40  1  0  0  0  0
 42 44  1  0  0  0  0
 42 45  1  0  0  0  0
 42 46  1  0  0  0  0
  8 13  1  0  0  0  0
 32 37  1  0  0  0  0
 31 36  1  0  0  0  0
 41 43  1  0  0  0  0
  7 12  1  0  0  0  0
M  END
$$$$

  -OEChem-02062319033D

 46 46  0     1  0  0  0  0  0999 V2000
   -0.6012   -3.2995    3.8205 C   0  0  0  0  0  0  0  0  0  0  0  0
   -0.6574   -4.4683    3.4568 O   0  0  0  0  0  0  0  0  0  0  0  0
   -0.4935   -2.9859    5.2760 C   0  0  0  0  0  0  0  0  0  0  0  0
   -1.4789   -2.8689    5.7550 H   0  0  0  0  0  0  0  0  0  0  0  0
    0.0123   -3.7847    5.8419 H   0  0  0  0  0  0  0  0  0  0  0  0
    0.0585   -2.0642    5.5199 H   0  0  0  0  0  0  0  0  0  0  0  0
   -0.6261   -2.1849    2.9917 N   0  0  0  0  0  0  0  0  0  0  0  0
   -0.7237   -2.2601    1.5650 C   0  0  2  0  0  0  0  0  0  0  0  0
    0.1695   -1.1513    1.0687 C   0  0  0  0  0  0  0  0  0  0  0  0
    0.3193   -0.1267    1.7365 O   0  0  0  0  0  0  0  0  0  0  0  0
   -2.1397   -2.0663    1.0750 C   0  0  0  0  0  0  0  0  0  0  0  0
   -0.5717   -1.2606    3.4238 H   0  0  0  0  0  0  0  0  0  0  0  0
   -0.3076   -3.2111    1.2363 H   0  0  0  0  0  0  0  0  0  0  0  0
   -2.5584   -1.1089    1.4061 H   0  0  0  0  0  0  0  0  0  0  0  0
   -2.1682   -2.0790   -0.0197 H   0  0  0  0  0  0  0  0  0  0  0  0
   -2.7965   -2.8601    1.4459 H   0  0  0  0  0  0  0  0  0  0  0  0
    0.7724   -1.3745   -0.1593 N   0  0  0  0  0  0  0  0  0  0  0  0
    0.0063   -1.5984   -1.3783 C   0  0  2  0  0  0  0  0  0  0  0  0
   -0.8332   -2.8201   -1.1545 C   0  0  0  0  0  0  0  0  0  0  0  0
   -2.0125   -2.8121   -1.4875 O   0  0  0  0  0  0  0  0  0  0  0  0
    1.0564   -1.8237   -2.4599 C   0  0  0  0  0  0  0  0  0  0  0  0
    2.3108   -1.1122   -1.9585 C   0  0  0  0  0  0  0  0  0  0  0  0
    2.1993   -1.2556   -0.4482 C   0  0  0  0  0  0  0  0  0  0  0  0
   -0.6535   -0.7513   -1.5887 H   0  0  0  0  0  0  0  0  0  0  0  0
    0.7353   -1.3546   -3.3975 H   0  0  0  0  0  0  0  0  0  0  0  0
    1.2666   -2.8803   -2.6526 H   0  0  0  0  0  0  0  0  0  0  0  0
    3.2099   -1.6192   -2.3270 H   0  0  0  0  0  0  0  0  0  0  0  0
    2.3497   -0.0677   -2.2807 H   0  0  0  0  0  0  0  0  0  0  0  0
    2.7379   -2.1274   -0.0668 H   0  0  0  0  0  0  0  0  0  0  0  0
    2.5631   -0.3584    0.0642 H   0  0  0  0  0  0  0  0  0  0  0  0
   -0.5306   -3.8501   -0.6816 N   0  0  0  0  0  0  0  0  0  0  0  0
   -1.3262   -4.9271   -0.1375 C   0  0  2  0  0  0  0  0  0  0  0  0
   -2.5978   -5.0385   -0.9682 C   0  0  0  0  0  0  0  0  0  0  0  0
   -3.0445   -4.1102   -1.6387 O   0  0  0  0  0  0  0  0  0  0  0  0
   -1.6536   -4.6874    1.3281 C   0  0  0  0  0  0  0  0  0  0  0  0
    0.4100   -4.0584   -1.0029 H   0  0  0  0  0  0  0  0  0  0  0  0
   -0.7358   -5.8433   -0.2477 H   0  0  0  0  0  0  0  0  0  0  0  0
   -2.2449   -3.7737    1.4584 H   0  0  0  0  0  0  0  0  0  0  0  0
   -2.2320   -5.5178    1.7464 H   0  0  0  0  0  0  0  0  0  0  0  0
   -0.7379   -4.5778    1.9192 H   0  0  0  0  0  0  0  0  0  0  0  0
   -3.1986   -6.2829   -0.8384 N   0  0  0  0  0  0  0  0  0  0  0  0
   -4.4244   -6.6315   -1.5179 C   0  0  0  0  0  0  0  0  0  0  0  0
   -2.7482   -6.9990   -0.2762 H   0  0  0  0  0  0  0  0  0  0  0  0
   -5.2815   -6.4138   -0.8637 H   0  0  0  0  0  0  0  0  0  0  0  0
   -4.5108   -6.0428   -2.4432 H   0  0  0  0  0  0  0  0  0  0  0  0
   -4.4147   -7.7034   -1.7648 H   0  0  0  0  0  0  0  0  0  0  0  0
 18 19  1  0  0  0  0
 19 31  1  0  0  0  0
 19 20  2  0  0  0  0
  8  9  1  0  0  0  0
  9 17  1  0  0  0  0
  9 10  2  0  0  0  0
  1  3  1  0  0  0  0
  1  7  1  0  0  0  0
  1  2  2  0  0  0  0
 32 33  1  0  0  0  0
 33 41  1  0  0  0  0
 33 34  2  0  0  0  0
 21 22  1  0  0  0  0
 22 23  1  0  0  0  0
 18 21  1  0  0  0  0
 17 23  1  0  0  0  0
 17 18  1  0  0  0  0
  8 11  1  0  0  0  0
 32 35  1  0  0  0  0
 41 42  1  0  0  0  0
  7  8  1  0  0  0  0
 31 32  1  0  0  0  0
 22 27  1  0  0  0  0
 22 28  1  0  0  0  0
 21 25  1  0  0  0  0
 21 26  1  0  0  0  0
 23 29  1  0  0  0  0
 23 30  1  0  0  0  0
 18 24  1  0  0  0  0
  3  4  1  0  0  0  0
  3  5  1  0  0  0  0
  3  6  1  0  0  0  0
 11 14  1  0  0  0  0
 11 15  1  0  0  0  0
 11 16  1  0  0  0  0
 35 38  1  0  0  0  0
 35 39  1  0  0  0  0
 35 40  1  0  0  0  0
 42 44  1  0  0  0  0
 42 45  1  0  0  0  0
 42 46  1  0  0  0  0
  8 13  1  0  0  0  0
 32 37  1  0  0  0  0
 31 36  1  0  0  0  0
 41 43  1  0  0  0  0
  7 12  1  0  0  0  0
M  END
$$$$

  -OEChem-02062319033D

 46 46  0     1  0  0  0  0  0999 V2000
   -0.6012   -3.2995    3.8205 C   0  0  0  0  0  0  0  0  0  0  0  0
   -0.6574   -4.4683    3.4568 O   0  0  0  0  0  0  0  0  0  0  0  0
   -0.4935   -2.9859    5.2760 C   0  0  0  0  0  0  0  0  0  0  0  0
   -1.4789   -2.8689    5.7550 H   0  0  0  0  0  0  0  0  0  0  0  0
    0.0123   -3.7847    5.8419 H   0  0  0  0  0  0  0  0  0  0  0  0
    0.0585   -2.0642    5.5199 H   0  0  0  0  0  0  0  0  0  0  0  0
   -0.6261   -2.1849    2.9917 N   0  0  0  0  0  0  0  0  0  0  0  0
   -0.7237   -2.2601    1.5650 C   0  0  2  0  0  0  0  0  0  0  0  0
    0.1695   -1.1513    1.0687 C   0  0  0  0  0  0  0  0  0  0  0  0
    0.3193   -0.1267    1.7365 O   0  0  0  0  0  0  0  0  0  0  0  0
   -2.1397   -2.0663    1.0750 C   0  0  0  0  0  0  0  0  0  0  0  0
   -0.5717   -1.2606    3.4238 H   0  0  0  0  0  0  0  0  0  0  0  0
   -0.3076   -3.2111    1.2363 H   0  0  0  0  0  0  0  0  0  0  0  0
   -2.5584   -1.1089    1.4061 H   0  0  0  0  0  0  0  0  0  0  0  0
   -2.1682   -2.0790   -0.0197 H   0  0  0  0  0  0  0  0  0  0  0  0
   -2.7965   -2.8601    1.4459 H   0  0  0  0  0  0  0  0  0  0  0  0
    0.7724   -1.3745   -0.1593 N   0  0  0  0  0  0  0  0  0  0  0  0
    0.0435   -1.2822   -1.4175 C   0  0  2  0  0  0  0  0  0  0  0  0
   -1.0623   -2.2929   -1.3628 C   0  0  0  0  0  0  0  0  0  0  0  0
   -2.1890   -1.9761   -1.7261 O   0  0  0  0  0  0  0  0  0  0  0  0
    1.0728   -1.6268   -2.4877 C   0  0  0  0  0  0  0  0  0  0  0  0
    2.4264   -1.2835   -1.8706 C   0  0  0  0  0  0  0  0  0  0  0  0
    2.2027   -1.5590   -0.3914 C   0  0  0  0  0  0  0  0  0  0  0  0
   -0.3943   -0.2876   -1.5457 H   0  0  0  0  0  0  0  0  0  0  0  0
    0.9183   -0.9979   -3.3725 H   0  0  0  0  0  0  0  0  0  0  0  0
    1.0480   -2.6762   -2.7971 H   0  0  0  0  0  0  0  0  0  0  0  0
    3.2059   -1.9424   -2.2703 H   0  0  0  0  0  0  0  0  0  0  0  0
    2.7189   -0.2480   -2.0667 H   0  0  0  0  0  0  0  0  0  0  0  0
    2.5077   -2.5677   -0.0998 H   0  0  0  0  0  0  0  0  0  0  0  0
    2.7320   -0.8310    0.2330 H   0  0  0  0  0  0  0  0  0  0  0  0
   -1.0277   -3.4097   -1.0057 N   0  0  0  0  0  0  0  0  0  0  0  0
   -2.0755   -4.3253   -0.6148 C   0  0  2  0  0  0  0  0  0  0  0  0
   -3.2918   -4.0490   -1.4887 C   0  0  0  0  0  0  0  0  0  0  0  0
   -3.4787   -2.9757   -2.0581 O   0  0  0  0  0  0  0  0  0  0  0  0
   -2.4198   -4.1756    0.8589 C   0  0  0  0  0  0  0  0  0  0  0  0
   -0.1428   -3.7945   -1.3223 H   0  0  0  0  0  0  0  0  0  0  0  0
   -1.7033   -5.3360   -0.8149 H   0  0  0  0  0  0  0  0  0  0  0  0
   -2.7946   -3.1692    1.0787 H   0  0  0  0  0  0  0  0  0  0  0  0
   -3.1936   -4.8895    1.1601 H   0  0  0  0  0  0  0  0  0  0  0  0
   -1.5370   -4.3455    1.4846 H   0  0  0  0  0  0  0  0  0  0  0  0
   -4.1654   -5.1268   -1.5233 N   0  0  0  0  0  0  0  0  0  0  0  0
   -5.3993   -5.1066   -2.2737 C   0  0  0  0  0  0  0  0  0  0  0  0
   -3.9208   -5.9841   -1.0364 H   0  0  0  0  0  0  0  0  0  0  0  0
   -6.2192   -4.7681   -1.6232 H   0  0  0  0  0  0  0  0  0  0  0  0
   -5.2990   -4.4179   -3.1255 H   0  0  0  0  0  0  0  0  0  0  0  0
   -5.6194   -6.1186   -2.6444 H   0  0  0  0  0  0  0  0  0  0  0  0
 18 19  1  0  0  0  0
 19 31  1  0  0  0  0
 19 20  2  0  0  0  0
  8  9  1  0  0  0  0
  9 17  1  0  0  0  0
  9 10  2  0  0  0  0
  1  3  1  0  0  0  0
  1  7  1  0  0  0  0
  1  2  2  0  0  0  0
 32 33  1  0  0  0  0
 33 41  1  0  0  0  0
 33 34  2  0  0  0  0
 21 22  1  0  0  0  0
 22 23  1  0  0  0  0
 18 21  1  0  0  0  0
 17 23  1  0  0  0  0
 17 18  1  0  0  0  0
  8 11  1  0  0  0  0
 32 35  1  0  0  0  0
 41 42  1  0  0  0  0
  7  8  1  0  0  0  0
 31 32  1  0  0  0  0
 22 27  1  0  0  0  0
 22 28  1  0  0  0  0
 21 25  1  0  0  0  0
 21 26  1  0  0  0  0
 23 29  1  0  0  0  0
 23 30  1  0  0  0  0
 18 24  1  0  0  0  0
  3  4  1  0  0  0  0
  3  5  1  0  0  0  0
  3  6  1  0  0  0  0
 11 14  1  0  0  0  0
 11 15  1  0  0  0  0
 11 16  1  0  0  0  0
 35 38  1  0  0  0  0
 35 39  1  0  0  0  0
 35 40  1  0  0  0  0
 42 44  1  0  0  0  0
 42 45  1  0  0  0  0
 42 46  1  0  0  0  0
  8 13  1  0  0  0  0
 32 37  1  0  0  0  0
 31 36  1  0  0  0  0
 41 43  1  0  0  0  0
  7 12  1  0  0  0  0
M  END
$$$$

  -OEChem-02062319033D

 46 46  0     1  0  0  0  0  0999 V2000
   -0.6012   -3.2995    3.8205 C   0  0  0  0  0  0  0  0  0  0  0  0
   -0.6574   -4.4683    3.4568 O   0  0  0  0  0  0  0  0  0  0  0  0
   -0.4935   -2.9859    5.2760 C   0  0  0  0  0  0  0  0  0  0  0  0
   -1.4789   -2.8689    5.7550 H   0  0  0  0  0  0  0  0  0  0  0  0
    0.0123   -3.7847    5.8419 H   0  0  0  0  0  0  0  0  0  0  0  0
    0.0585   -2.0642    5.5199 H   0  0  0  0  0  0  0  0  0  0  0  0
   -0.6261   -2.1849    2.9917 N   0  0  0  0  0  0  0  0  0  0  0  0
   -0.7237   -2.2601    1.5650 C   0  0  2  0  0  0  0  0  0  0  0  0
    0.1695   -1.1513    1.0687 C   0  0  0  0  0  0  0  0  0  0  0  0
    0.3193   -0.1267    1.7365 O   0  0  0  0  0  0  0  0  0  0  0  0
   -2.1397   -2.0663    1.0750 C   0  0  0  0  0  0  0  0  0  0  0  0
   -0.5717   -1.2606    3.4238 H   0  0  0  0  0  0  0  0  0  0  0  0
   -0.3076   -3.2111    1.2363 H   0  0  0  0  0  0  0  0  0  0  0  0
   -2.5584   -1.1089    1.4061 H   0  0  0  0  0  0  0  0  0  0  0  0
   -2.1682   -2.0790   -0.0197 H   0  0  0  0  0  0  0  0  0  0  0  0
   -2.7965   -2.8601    1.4459 H   0  0  0  0  0  0  0  0  0  0  0  0
    0.7724   -1.3745   -0.1593 N   0  0  0  0  0  0  0  0  0  0  0  0
    0.1535   -0.9808   -1.4183 C   0  0  2  0  0  0  0  0  0  0  0  0
   -1.1541   -1.7077   -1.5142 C   0  0  0  0  0  0  0  0  0  0  0  0
   -2.1578   -1.1013   -1.8698 O   0  0  0  0  0  0  0  0  0  0  0  0
    1.1348   -1.4372   -2.4917 C   0  0  0  0  0  0  0  0  0  0  0  0
    2.4951   -1.4854   -1.8001 C   0  0  0  0  0  0  0  0  0  0  0  0
    2.1340   -1.8593   -0.3705 C   0  0  0  0  0  0  0  0  0  0  0  0
   -0.0395    0.0960   -1.4412 H   0  0  0  0  0  0  0  0  0  0  0  0
    1.1758   -0.6981   -3.3006 H   0  0  0  0  0  0  0  0  0  0  0  0
    0.8895   -2.4127   -2.9227 H   0  0  0  0  0  0  0  0  0  0  0  0
    3.1255   -2.2599   -2.2520 H   0  0  0  0  0  0  0  0  0  0  0  0
    3.0253   -0.5309   -1.8648 H   0  0  0  0  0  0  0  0  0  0  0  0
    2.1857   -2.9366   -0.1908 H   0  0  0  0  0  0  0  0  0  0  0  0
    2.7796   -1.3453    0.3499 H   0  0  0  0  0  0  0  0  0  0  0  0
   -1.3934   -2.8340   -1.2899 N   0  0  0  0  0  0  0  0  0  0  0  0
   -2.6415   -3.5185   -1.0393 C   0  0  2  0  0  0  0  0  0  0  0  0
   -3.7135   -2.8754   -1.9091 C   0  0  0  0  0  0  0  0  0  0  0  0
   -3.6205   -1.7331   -2.3536 O   0  0  0  0  0  0  0  0  0  0  0  0
   -3.0231   -3.4527    0.4314 C   0  0  0  0  0  0  0  0  0  0  0  0
   -0.6029   -3.3769   -1.6241 H   0  0  0  0  0  0  0  0  0  0  0  0
   -2.4979   -4.5603   -1.3460 H   0  0  0  0  0  0  0  0  0  0  0  0
   -3.1711   -2.4166    0.7570 H   0  0  0  0  0  0  0  0  0  0  0  0
   -3.9539   -3.9961    0.6244 H   0  0  0  0  0  0  0  0  0  0  0  0
   -2.2374   -3.8889    1.0577 H   0  0  0  0  0  0  0  0  0  0  0  0
   -4.8057   -3.7114   -2.0949 N   0  0  0  0  0  0  0  0  0  0  0  0
   -5.9597   -3.3251   -2.8727 C   0  0  0  0  0  0  0  0  0  0  0  0
   -4.7890   -4.6493   -1.7053 H   0  0  0  0  0  0  0  0  0  0  0  0
   -6.7158   -2.8780   -2.2106 H   0  0  0  0  0  0  0  0  0  0  0  0
   -5.6592   -2.5907   -3.6345 H   0  0  0  0  0  0  0  0  0  0  0  0
   -6.3831   -4.2126   -3.3658 H   0  0  0  0  0  0  0  0  0  0  0  0
 18 19  1  0  0  0  0
 19 31  1  0  0  0  0
 19 20  2  0  0  0  0
  8  9  1  0  0  0  0
  9 17  1  0  0  0  0
  9 10  2  0  0  0  0
  1  3  1  0  0  0  0
  1  7  1  0  0  0  0
  1  2  2  0  0  0  0
 32 33  1  0  0  0  0
 33 41  1  0  0  0  0
 33 34  2  0  0  0  0
 21 22  1  0  0  0  0
 22 23  1  0  0  0  0
 18 21  1  0  0  0  0
 17 23  1  0  0  0  0
 17 18  1  0  0  0  0
  8 11  1  0  0  0  0
 32 35  1  0  0  0  0
 41 42  1  0  0  0  0
  7  8  1  0  0  0  0
 31 32  1  0  0  0  0
 22 27  1  0  0  0  0
 22 28  1  0  0  0  0
 21 25  1  0  0  0  0
 21 26  1  0  0  0  0
 23 29  1  0  0  0  0
 23 30  1  0  0  0  0
 18 24  1  0  0  0  0
  3  4  1  0  0  0  0
  3  5  1  0  0  0  0
  3  6  1  0  0  0  0
 11 14  1  0  0  0  0
 11 15  1  0  0  0  0
 11 16  1  0  0  0  0
 35 38  1  0  0  0  0
 35 39  1  0  0  0  0
 35 40  1  0  0  0  0
 42 44  1  0  0  0  0
 42 45  1  0  0  0  0
 42 46  1  0  0  0  0
  8 13  1  0  0  0  0
 32 37  1  0  0  0  0
 31 36  1  0  0  0  0
 41 43  1  0  0  0  0
  7 12  1  0  0  0  0
M  END
$$$$

  -OEChem-02062319033D

 46 46  0     1  0  0  0  0  0999 V2000
   -0.6012   -3.2995    3.8205 C   0  0  0  0  0  0  0  0  0  0  0  0
   -0.6574   -4.4683    3.4568 O   0  0  0  0  0  0  0  0  0  0  0  0
   -0.4935   -2.9859    5.2760 C   0  0  0  0  0  0  0  0  0  0  0  0
   -1.4789   -2.8689    5.7550 H   0  0  0  0  0  0  0  0  0  0  0  0
    0.0123   -3.7847    5.8419 H   0  0  0  0  0  0  0  0  0  0  0  0
    0.0585   -2.0642    5.5199 H   0  0  0  0  0  0  0  0  0  0  0  0
   -0.6261   -2.1849    2.9917 N   0  0  0  0  0  0  0  0  0  0  0  0
   -0.7237   -2.2601    1.5650 C   0  0  2  0  0  0  0  0  0  0  0  0
    0.1695   -1.1513    1.0687 C   0  0  0  0  0  0  0  0  0  0  0  0
    0.3193   -0.1267    1.7365 O   0  0  0  0  0  0  0  0  0  0  0  0
   -2.1397   -2.0663    1.0750 C   0  0  0  0  0  0  0  0  0  0  0  0
   -0.5717   -1.2606    3.4238 H   0  0  0  0  0  0  0  0  0  0  0  0
   -0.3076   -3.2111    1.2363 H   0  0  0  0  0  0  0  0  0  0  0  0
   -2.5584   -1.1089    1.4061 H   0  0  0  0  0  0  0  0  0  0  0  0
   -2.1682   -2.0790   -0.0197 H   0  0  0  0  0  0  0  0  0  0  0  0
   -2.7965   -2.8601    1.4459 H   0  0  0  0  0  0  0  0  0  0  0  0
    0.7724   -1.3745   -0.1593 N   0  0  0  0  0  0  0  0  0  0  0  0
    0.3289   -0.7149   -1.3805 C   0  0  2  0  0  0  0  0  0  0  0  0
   -1.1022   -1.1044   -1.5984 C   0  0  0  0  0  0  0  0  0  0  0  0
   -1.9211   -0.2472   -1.9089 O   0  0  0  0  0  0  0  0  0  0  0  0
    1.2384   -1.2679   -2.4716 C   0  0  0  0  0  0  0  0  0  0  0  0
    2.5123   -1.7041   -1.7520 C   0  0  0  0  0  0  0  0  0  0  0  0
    1.9980   -2.1359   -0.3870 C   0  0  0  0  0  0  0  0  0  0  0  0
    0.3869    0.3733   -1.2823 H   0  0  0  0  0  0  0  0  0  0  0  0
    1.4904   -0.4756   -3.1866 H   0  0  0  0  0  0  0  0  0  0  0  0
    0.8022   -2.1077   -3.0211 H   0  0  0  0  0  0  0  0  0  0  0  0
    2.9743   -2.5503   -2.2735 H   0  0  0  0  0  0  0  0  0  0  0  0
    3.2479   -0.8972   -1.6889 H   0  0  0  0  0  0  0  0  0  0  0  0
    1.7939   -3.2088   -0.3337 H   0  0  0  0  0  0  0  0  0  0  0  0
    2.7029   -1.8662    0.4069 H   0  0  0  0  0  0  0  0  0  0  0  0
   -1.6028   -2.1620   -1.5148 N   0  0  0  0  0  0  0  0  0  0  0  0
   -2.9854   -2.5616   -1.3821 C   0  0  2  0  0  0  0  0  0  0  0  0
   -3.8342   -1.5978   -2.2006 C   0  0  0  0  0  0  0  0  0  0  0  0
   -3.4603   -0.4671   -2.5050 O   0  0  0  0  0  0  0  0  0  0  0  0
   -3.4221   -2.5680    0.0746 C   0  0  0  0  0  0  0  0  0  0  0  0
   -0.9390   -2.8340   -1.8877 H   0  0  0  0  0  0  0  0  0  0  0  0
   -3.0654   -3.5691   -1.8048 H   0  0  0  0  0  0  0  0  0  0  0  0
   -3.3489   -1.5671    0.5153 H   0  0  0  0  0  0  0  0  0  0  0  0
   -4.4612   -2.8984    0.1759 H   0  0  0  0  0  0  0  0  0  0  0  0
   -2.7915   -3.2392    0.6676 H   0  0  0  0  0  0  0  0  0  0  0  0
   -5.0757   -2.1330   -2.5144 N   0  0  0  0  0  0  0  0  0  0  0  0
   -6.0676   -1.4084   -3.2741 C   0  0  0  0  0  0  0  0  0  0  0  0
   -5.2937   -3.0856   -2.2373 H   0  0  0  0  0  0  0  0  0  0  0  0
   -6.7376   -0.8722   -2.5859 H   0  0  0  0  0  0  0  0  0  0  0  0
   -5.5670   -0.6859   -3.9355 H   0  0  0  0  0  0  0  0  0  0  0  0
   -6.6537   -2.1152   -3.8799 H   0  0  0  0  0  0  0  0  0  0  0  0
 18 19  1  0  0  0  0
 19 31  1  0  0  0  0
 19 20  2  0  0  0  0
  8  9  1  0  0  0  0
  9 17  1  0  0  0  0
  9 10  2  0  0  0  0
  1  3  1  0  0  0  0
  1  7  1  0  0  0  0
  1  2  2  0  0  0  0
 32 33  1  0  0  0  0
 33 41  1  0  0  0  0
 33 34  2  0  0  0  0
 21 22  1  0  0  0  0
 22 23  1  0  0  0  0
 18 21  1  0  0  0  0
 17 23  1  0  0  0  0
 17 18  1  0  0  0  0
  8 11  1  0  0  0  0
 32 35  1  0  0  0  0
 41 42  1  0  0  0  0
  7  8  1  0  0  0  0
 31 32  1  0  0  0  0
 22 27  1  0  0  0  0
 22 28  1  0  0  0  0
 21 25  1  0  0  0  0
 21 26  1  0  0  0  0
 23 29  1  0  0  0  0
 23 30  1  0  0  0  0
 18 24  1  0  0  0  0
  3  4  1  0  0  0  0
  3  5  1  0  0  0  0
  3  6  1  0  0  0  0
 11 14  1  0  0  0  0
 11 15  1  0  0  0  0
 11 16  1  0  0  0  0
 35 38  1  0  0  0  0
 35 39  1  0  0  0  0
 35 40  1  0  0  0  0
 42 44  1  0  0  0  0
 42 45  1  0  0  0  0
 42 46  1  0  0  0  0
  8 13  1  0  0  0  0
 32 37  1  0  0  0  0
 31 36  1  0  0  0  0
 41 43  1  0  0  0  0
  7 12  1  0  0  0  0
M  END
$$$$

  -OEChem-02062319033D

 46 46  0     1  0  0  0  0  0999 V2000
   -0.6012   -3.2995    3.8205 C   0  0  0  0  0  0  0  0  0  0  0  0
   -0.6574   -4.4683    3.4568 O   0  0  0  0  0  0  0  0  0  0  0  0
   -0.4935   -2.9859    5.2760 C   0  0  0  0  0  0  0  0  0  0  0  0
   -1.4789   -2.8689    5.7550 H   0  0  0  0  0  0  0  0  0  0  0  0
    0.0123   -3.7847    5.8419 H   0  0  0  0  0  0  0  0  0  0  0  0
    0.0585   -2.0642    5.5199 H   0  0  0  0  0  0  0  0  0  0  0  0
   -0.6261   -2.1849    2.9917 N   0  0  0  0  0  0  0  0  0  0  0  0
   -0.7237   -2.2601    1.5650 C   0  0  2  0  0  0  0  0  0  0  0  0
    0.1695   -1.1513    1.0687 C   0  0  0  0  0  0  0  0  0  0  0  0
    0.3193   -0.1267    1.7365 O   0  0  0  0  0  0  0  0  0  0  0  0
   -2.1397   -2.0663    1.0750 C   0  0  0  0  0  0  0  0  0  0  0  0
   -0.5717   -1.2606    3.4238 H   0  0  0  0  0  0  0  0  0  0  0  0
   -0.3076   -3.2111    1.2363 H   0  0  0  0  0  0  0  0  0  0  0  0
   -2.5584   -1.1089    1.4061 H   0  0  0  0  0  0  0  0  0  0  0  0
   -2.1682   -2.0790   -0.0197 H   0  0  0  0  0  0  0  0  0  0  0  0
   -2.7965   -2.8601    1.4459 H   0  0  0  0  0  0  0  0  0  0  0  0
    0.7724   -1.3745   -0.1593 N   0  0  0  0  0  0  0  0  0  0  0  0
    0.5578   -0.5025   -1.3067 C   0  0  2  0  0  0  0  0  0  0  0  0
   -0.9103   -0.5240   -1.6096 C   0  0  0  0  0  0  0  0  0  0  0  0
   -1.4950    0.5278   -1.8406 O   0  0  0  0  0  0  0  0  0  0  0  0
    1.3765   -1.1303   -2.4288 C   0  0  0  0  0  0  0  0  0  0  0  0
    2.4768   -1.9247   -1.7293 C   0  0  0  0  0  0  0  0  0  0  0  0
    1.8038   -2.3701   -0.4398 C   0  0  0  0  0  0  0  0  0  0  0  0
    0.8557    0.5256   -1.0798 H   0  0  0  0  0  0  0  0  0  0  0  0
    1.8404   -0.3457   -3.0383 H   0  0  0  0  0  0  0  0  0  0  0  0
    0.7918   -1.7821   -3.0854 H   0  0  0  0  0  0  0  0  0  0  0  0
    2.7625   -2.7937   -2.3332 H   0  0  0  0  0  0  0  0  0  0  0  0
    3.3717   -1.3218   -1.5510 H   0  0  0  0  0  0  0  0  0  0  0  0
    1.3591   -3.3658   -0.5186 H   0  0  0  0  0  0  0  0  0  0  0  0
    2.5069   -2.3581    0.4001 H   0  0  0  0  0  0  0  0  0  0  0  0
   -1.6416   -1.4395   -1.6652 N   0  0  0  0  0  0  0  0  0  0  0  0
   -3.0840   -1.5199   -1.6198 C   0  0  2  0  0  0  0  0  0  0  0  0
   -3.6458   -0.3032   -2.3434 C   0  0  0  0  0  0  0  0  0  0  0  0
   -3.0089    0.7361   -2.5021 O   0  0  0  0  0  0  0  0  0  0  0  0
   -3.5899   -1.5818   -0.1870 C   0  0  0  0  0  0  0  0  0  0  0  0
   -1.1281   -2.2029   -2.0953 H   0  0  0  0  0  0  0  0  0  0  0  0
   -3.3671   -2.4298   -2.1600 H   0  0  0  0  0  0  0  0  0  0  0  0
   -3.3157   -0.6785    0.3701 H   0  0  0  0  0  0  0  0  0  0  0  0
   -4.6808   -1.6714   -0.1550 H   0  0  0  0  0  0  0  0  0  0  0  0
   -3.1615   -2.4407    0.3408 H   0  0  0  0  0  0  0  0  0  0  0  0
   -4.9572   -0.4992   -2.7532 N   0  0  0  0  0  0  0  0  0  0  0  0
   -5.7156    0.5130   -3.4505 C   0  0  0  0  0  0  0  0  0  0  0  0
   -5.4005   -1.3996   -2.5962 H   0  0  0  0  0  0  0  0  0  0  0  0
   -6.2832    1.1124   -2.7235 H   0  0  0  0  0  0  0  0  0  0  0  0
   -5.0287    1.1667   -4.0079 H   0  0  0  0  0  0  0  0  0  0  0  0
   -6.4127    0.0307   -4.1516 H   0  0  0  0  0  0  0  0  0  0  0  0
 18 19  1  0  0  0  0
 19 31  1  0  0  0  0
 19 20  2  0  0  0  0
  8  9  1  0  0  0  0
  9 17  1  0  0  0  0
  9 10  2  0  0  0  0
  1  3  1  0  0  0  0
  1  7  1  0  0  0  0
  1  2  2  0  0  0  0
 32 33  1  0  0  0  0
 33 41  1  0  0  0  0
 33 34  2  0  0  0  0
 21 22  1  0  0  0  0
 22 23  1  0  0  0  0
 18 21  1  0  0  0  0
 17 23  1  0  0  0  0
 17 18  1  0  0  0  0
  8 11  1  0  0  0  0
 32 35  1  0  0  0  0
 41 42  1  0  0  0  0
  7  8  1  0  0  0  0
 31 32  1  0  0  0  0
 22 27  1  0  0  0  0
 22 28  1  0  0  0  0
 21 25  1  0  0  0  0
 21 26  1  0  0  0  0
 23 29  1  0  0  0  0
 23 30  1  0  0  0  0
 18 24  1  0  0  0  0
  3  4  1  0  0  0  0
  3  5  1  0  0  0  0
  3  6  1  0  0  0  0
 11 14  1  0  0  0  0
 11 15  1  0  0  0  0
 11 16  1  0  0  0  0
 35 38  1  0  0  0  0
 35 39  1  0  0  0  0
 35 40  1  0  0  0  0
 42 44  1  0  0  0  0
 42 45  1  0  0  0  0
 42 46  1  0  0  0  0
  8 13  1  0  0  0  0
 32 37  1  0  0  0  0
 31 36  1  0  0  0  0
 41 43  1  0  0  0  0
  7 12  1  0  0  0  0
M  END
$$$$

  -OEChem-02062319033D

 46 46  0     1  0  0  0  0  0999 V2000
   -0.6012   -3.2995    3.8205 C   0  0  0  0  0  0  0  0  0  0  0  0
   -0.6574   -4.4683    3.4568 O   0  0  0  0  0  0  0  0  0  0  0  0
   -0.4935   -2.9859    5.2760 C   0  0  0  0  0  0  0  0  0  0  0  0
   -1.4789   -2.8689    5.7550 H   0  0  0  0  0  0  0  0  0  0  0  0
    0.0123   -3.7847    5.8419 H   0  0  0  0  0  0  0  0  0  0  0  0
    0.0585   -2.0642    5.5199 H   0  0  0  0  0  0  0  0  0  0  0  0
   -0.6261   -2.1849    2.9917 N   0  0  0  0  0  0  0  0  0  0  0  0
   -0.7237   -2.2601    1.5650 C   0  0  2  0  0  0  0  0  0  0  0  0
    0.1695   -1.1513    1.0687 C   0  0  0  0  0  0  0  0  0  0  0  0
    0.3193   -0.1267    1.7365 O   0  0  0  0  0  0  0  0  0  0  0  0
   -2.1397   -2.0663    1.0750 C   0  0  0  0  0  0  0  0  0  0  0  0
   -0.5717   -1.2606    3.4238 H   0  0  0  0  0  0  0  0  0  0  0  0
   -0.3076   -3.2111    1.2363 H   0  0  0  0  0  0  0  0  0  0  0  0
   -2.5584   -1.1089    1.4061 H   0  0  0  0  0  0  0  0  0  0  0  0
   -2.1682   -2.0790   -0.0197 H   0  0  0  0  0  0  0  0  0  0  0  0
   -2.7965   -2.8601    1.4459 H   0  0  0  0  0  0  0  0  0  0  0  0
    0.7724   -1.3745   -0.1593 N   0  0  0  0  0  0  0  0  0  0  0  0
    0.8245   -0.3581   -1.2020 C   0  0  2  0  0  0  0  0  0  0  0  0
   -0.5913   -0.0062   -1.5472 C   0  0  0  0  0  0  0  0  0  0  0  0
   -0.9086    1.1711   -1.6696 O   0  0  0  0  0  0  0  0  0  0  0  0
    1.5396   -1.0339   -2.3663 C   0  0  0  0  0  0  0  0  0  0  0  0
    2.3909   -2.1322   -1.7338 C   0  0  0  0  0  0  0  0  0  0  0  0
    1.5648   -2.5458   -0.5252 C   0  0  0  0  0  0  0  0  0  0  0  0
    1.3350    0.5424   -0.8476 H   0  0  0  0  0  0  0  0  0  0  0  0
    2.2021   -0.3172   -2.8659 H   0  0  0  0  0  0  0  0  0  0  0  0
    0.8592   -1.4579   -3.1112 H   0  0  0  0  0  0  0  0  0  0  0  0
    2.5047   -2.9735   -2.4271 H   0  0  0  0  0  0  0  0  0  0  0  0
    3.3881   -1.7758   -1.4604 H   0  0  0  0  0  0  0  0  0  0  0  0
    0.9107   -3.3969   -0.7331 H   0  0  0  0  0  0  0  0  0  0  0  0
    2.2052   -2.7876    0.3300 H   0  0  0  0  0  0  0  0  0  0  0  0
   -1.5071   -0.7159   -1.7307 N   0  0  0  0  0  0  0  0  0  0  0  0
   -2.9304   -0.4643   -1.7363 C   0  0  2  0  0  0  0  0  0  0  0  0
   -3.1609    0.9201   -2.3277 C   0  0  0  0  0  0  0  0  0  0  0  0
   -2.2971    1.7945   -2.3450 O   0  0  0  0  0  0  0  0  0  0  0  0
   -3.5149   -0.5613   -0.3357 C   0  0  0  0  0  0  0  0  0  0  0  0
   -1.1575   -1.5265   -2.2327 H   0  0  0  0  0  0  0  0  0  0  0  0
   -3.3826   -1.2202   -2.3875 H   0  0  0  0  0  0  0  0  0  0  0  0
   -3.0738    0.1885    0.3312 H   0  0  0  0  0  0  0  0  0  0  0  0
   -4.5977   -0.3986   -0.3456 H   0  0  0  0  0  0  0  0  0  0  0  0
   -3.3222   -1.5477    0.0996 H   0  0  0  0  0  0  0  0  0  0  0  0
   -4.4581    1.0786   -2.7950 N   0  0  0  0  0  0  0  0  0  0  0  0
   -4.9277    2.3080   -3.3899 C   0  0  0  0  0  0  0  0  0  0  0  0
   -5.1021    0.2939   -2.7575 H   0  0  0  0  0  0  0  0  0  0  0  0
   -5.3834    2.9408   -2.6141 H   0  0  0  0  0  0  0  0  0  0  0  0
   -4.0808    2.8409   -3.8469 H   0  0  0  0  0  0  0  0  0  0  0  0
   -5.6765    2.0787   -4.1624 H   0  0  0  0  0  0  0  0  0  0  0  0
 18 19  1  0  0  0  0
 19 31  1  0  0  0  0
 19 20  2  0  0  0  0
  8  9  1  0  0  0  0
  9 17  1  0  0  0  0
  9 10  2  0  0  0  0
  1  3  1  0  0  0  0
  1  7  1  0  0  0  0
  1  2  2  0  0  0  0
 32 33  1  0  0  0  0
 33 41  1  0  0  0  0
 33 34  2  0  0  0  0
 21 22  1  0  0  0  0
 22 23  1  0  0  0  0
 18 21  1  0  0  0  0
 17 23  1  0  0  0  0
 17 18  1  0  0  0  0
  8 11  1  0  0  0  0
 32 35  1  0  0  0  0
 41 42  1  0  0  0  0
  7  8  1  0  0  0  0
 31 32  1  0  0  0  0
 22 27  1  0  0  0  0
 22 28  1  0  0  0  0
 21 25  1  0  0  0  0
 21 26  1  0  0  0  0
 23 29  1  0  0  0  0
 23 30  1  0  0  0  0
 18 24  1  0  0  0  0
  3  4  1  0  0  0  0
  3  5  1  0  0  0  0
  3  6  1  0  0  0  0
 11 14  1  0  0  0  0
 11 15  1  0  0  0  0
 11 16  1  0  0  0  0
 35 38  1  0  0  0  0
 35 39  1  0  0  0  0
 35 40  1  0  0  0  0
 42 44  1  0  0  0  0
 42 45  1  0  0  0  0
 42 46  1  0  0  0  0
  8 13  1  0  0  0  0
 32 37  1  0  0  0  0
 31 36  1  0  0  0  0
 41 43  1  0  0  0  0
  7 12  1  0  0  0  0
M  END
$$$$

  -OEChem-02062319033D

 46 46  0     1  0  0  0  0  0999 V2000
   -0.6012   -3.2995    3.8205 C   0  0  0  0  0  0  0  0  0  0  0  0
   -0.6574   -4.4683    3.4568 O   0  0  0  0  0  0  0  0  0  0  0  0
   -0.4935   -2.9859    5.2760 C   0  0  0  0  0  0  0  0  0  0  0  0
   -1.4789   -2.8689    5.7550 H   0  0  0  0  0  0  0  0  0  0  0  0
    0.0123   -3.7847    5.8419 H   0  0  0  0  0  0  0  0  0  0  0  0
    0.0585   -2.0642    5.5199 H   0  0  0  0  0  0  0  0  0  0  0  0
   -0.6261   -2.1849    2.9917 N   0  0  0  0  0  0  0  0  0  0  0  0
   -0.7237   -2.2601    1.5650 C   0  0  2  0  0  0  0  0  0  0  0  0
    0.1695   -1.1513    1.0687 C   0  0  0  0  0  0  0  0  0  0  0  0
    0.3193   -0.1267    1.7365 O   0  0  0  0  0  0  0  0  0  0  0  0
   -2.1397   -2.0663    1.0750 C   0  0  0  0  0  0  0  0  0  0  0  0
   -0.5717   -1.2606    3.4238 H   0  0  0  0  0  0  0  0  0  0  0  0
   -0.3076   -3.2111    1.2363 H   0  0  0  0  0  0  0  0  0  0  0  0
   -2.5584   -1.1089    1.4061 H   0  0  0  0  0  0  0  0  0  0  0  0
   -2.1682   -2.0790   -0.0197 H   0  0  0  0  0  0  0  0  0  0  0  0
   -2.7965   -2.8601    1.4459 H   0  0  0  0  0  0  0  0  0  0  0  0
    0.7724   -1.3745   -0.1593 N   0  0  0  0  0  0  0  0  0  0  0  0
    1.1108   -0.2916   -1.0736 C   0  0  2  0  0  0  0  0  0  0  0  0
   -0.1671    0.4138   -1.4152 C   0  0  0  0  0  0  0  0  0  0  0  0
   -0.2017    1.6388   -1.4075 O   0  0  0  0  0  0  0  0  0  0  0  0
    1.7166   -0.9852   -2.2882 C   0  0  0  0  0  0  0  0  0  0  0  0
    2.2605   -2.3124   -1.7650 C   0  0  0  0  0  0  0  0  0  0  0  0
    1.2972   -2.6510   -0.6375 C   0  0  0  0  0  0  0  0  0  0  0  0
    1.7921    0.4226   -0.6013 H   0  0  0  0  0  0  0  0  0  0  0  0
    2.5509   -0.3920   -2.6811 H   0  0  0  0  0  0  0  0  0  0  0  0
    0.9997   -1.1572   -3.0969 H   0  0  0  0  0  0  0  0  0  0  0  0
    2.2183   -3.0775   -2.5489 H   0  0  0  0  0  0  0  0  0  0  0  0
    3.2961   -2.2284   -1.4233 H   0  0  0  0  0  0  0  0  0  0  0  0
    0.4794   -3.3000   -0.9625 H   0  0  0  0  0  0  0  0  0  0  0  0
    1.8181   -3.1253    0.2014 H   0  0  0  0  0  0  0  0  0  0  0  0
   -1.2086   -0.0404   -1.7069 N   0  0  0  0  0  0  0  0  0  0  0  0
   -2.5351    0.5332   -1.7235 C   0  0  2  0  0  0  0  0  0  0  0  0
   -2.4127    1.9888   -2.1546 C   0  0  0  0  0  0  0  0  0  0  0  0
   -1.3734    2.6359   -2.0445 O   0  0  0  0  0  0  0  0  0  0  0  0
   -3.2023    0.4240   -0.3613 C   0  0  0  0  0  0  0  0  0  0  0  0
   -1.0250   -0.8510   -2.2904 H   0  0  0  0  0  0  0  0  0  0  0  0
   -3.1107   -0.0227   -2.4717 H   0  0  0  0  0  0  0  0  0  0  0  0
   -2.6398    0.9749    0.4014 H   0  0  0  0  0  0  0  0  0  0  0  0
   -4.2177    0.8332   -0.3829 H   0  0  0  0  0  0  0  0  0  0  0  0
   -3.2626   -0.6212   -0.0395 H   0  0  0  0  0  0  0  0  0  0  0  0
   -3.6125    2.4929   -2.6369 N   0  0  0  0  0  0  0  0  0  0  0  0
   -3.7576    3.8544   -3.0965 C   0  0  0  0  0  0  0  0  0  0  0  0
   -4.4188    1.8794   -2.7103 H   0  0  0  0  0  0  0  0  0  0  0  0
   -4.0996    4.4882   -2.2651 H   0  0  0  0  0  0  0  0  0  0  0  0
   -2.7881    4.2226   -3.4634 H   0  0  0  0  0  0  0  0  0  0  0  0
   -4.4954    3.8894   -3.9117 H   0  0  0  0  0  0  0  0  0  0  0  0
 18 19  1  0  0  0  0
 19 31  1  0  0  0  0
 19 20  2  0  0  0  0
  8  9  1  0  0  0  0
  9 17  1  0  0  0  0
  9 10  2  0  0  0  0
  1  3  1  0  0  0  0
  1  7  1  0  0  0  0
  1  2  2  0  0  0  0
 32 33  1  0  0  0  0
 33 41  1  0  0  0  0
 33 34  2  0  0  0  0
 21 22  1  0  0  0  0
 22 23  1  0  0  0  0
 18 21  1  0  0  0  0
 17 23  1  0  0  0  0
 17 18  1  0  0  0  0
  8 11  1  0  0  0  0
 32 35  1  0  0  0  0
 41 42  1  0  0  0  0
  7  8  1  0  0  0  0
 31 32  1  0  0  0  0
 22 27  1  0  0  0  0
 22 28  1  0  0  0  0
 21 25  1  0  0  0  0
 21 26  1  0  0  0  0
 23 29  1  0  0  0  0
 23 30  1  0  0  0  0
 18 24  1  0  0  0  0
  3  4  1  0  0  0  0
  3  5  1  0  0  0  0
  3  6  1  0  0  0  0
 11 14  1  0  0  0  0
 11 15  1  0  0  0  0
 11 16  1  0  0  0  0
 35 38  1  0  0  0  0
 35 39  1  0  0  0  0
 35 40  1  0  0  0  0
 42 44  1  0  0  0  0
 42 45  1  0  0  0  0
 42 46  1  0  0  0  0
  8 13  1  0  0  0  0
 32 37  1  0  0  0  0
 31 36  1  0  0  0  0
 41 43  1  0  0  0  0
  7 12  1  0  0  0  0
M  END
$$$$

  -OEChem-02062319033D

 46 46  0     1  0  0  0  0  0999 V2000
   -0.6012   -3.2995    3.8205 C   0  0  0  0  0  0  0  0  0  0  0  0
   -0.6574   -4.4683    3.4568 O   0  0  0  0  0  0  0  0  0  0  0  0
   -0.4935   -2.9859    5.2760 C   0  0  0  0  0  0  0  0  0  0  0  0
   -1.4789   -2.8689    5.7550 H   0  0  0  0  0  0  0  0  0  0  0  0
    0.0123   -3.7847    5.8419 H   0  0  0  0  0  0  0  0  0  0  0  0
    0.0585   -2.0642    5.5199 H   0  0  0  0  0  0  0  0  0  0  0  0
   -0.6261   -2.1849    2.9917 N   0  0  0  0  0  0  0  0  0  0  0  0
   -0.7237   -2.2601    1.5650 C   0  0  2  0  0  0  0  0  0  0  0  0
    0.1695   -1.1513    1.0687 C   0  0  0  0  0  0  0  0  0  0  0  0
    0.3193   -0.1267    1.7365 O   0  0  0  0  0  0  0  0  0  0  0  0
   -2.1397   -2.0663    1.0750 C   0  0  0  0  0  0  0  0  0  0  0  0
   -0.5717   -1.2606    3.4238 H   0  0  0  0  0  0  0  0  0  0  0  0
   -0.3076   -3.2111    1.2363 H   0  0  0  0  0  0  0  0  0  0  0  0
   -2.5584   -1.1089    1.4061 H   0  0  0  0  0  0  0  0  0  0  0  0
   -2.1682   -2.0790   -0.0197 H   0  0  0  0  0  0  0  0  0  0  0  0
   -2.7965   -2.8601    1.4459 H   0  0  0  0  0  0  0  0  0  0  0  0
    0.7724   -1.3745   -0.1593 N   0  0  0  0  0  0  0  0  0  0  0  0
    1.3973   -0.3075   -0.9300 C   0  0  2  0  0  0  0  0  0  0  0  0
    0.3335    0.7074   -1.2228 C   0  0  0  0  0  0  0  0  0  0  0  0
    0.5774    1.8989   -1.0723 O   0  0  0  0  0  0  0  0  0  0  0  0
    1.8955   -0.9876   -2.1999 C   0  0  0  0  0  0  0  0  0  0  0  0
    2.0946   -2.4531   -1.8209 C   0  0  0  0  0  0  0  0  0  0  0  0
    1.0192   -2.6788   -0.7689 C   0  0  0  0  0  0  0  0  0  0  0  0
    2.1959    0.1743   -0.3580 H   0  0  0  0  0  0  0  0  0  0  0  0
    2.8629   -0.5650   -2.4965 H   0  0  0  0  0  0  0  0  0  0  0  0
    1.2037   -0.9007   -3.0434 H   0  0  0  0  0  0  0  0  0  0  0  0
    1.9229   -3.0985   -2.6900 H   0  0  0  0  0  0  0  0  0  0  0  0
    3.1019   -2.6486   -1.4423 H   0  0  0  0  0  0  0  0  0  0  0  0
    0.0946   -3.0817   -1.1911 H   0  0  0  0  0  0  0  0  0  0  0  0
    1.3722   -3.3483    0.0230 H   0  0  0  0  0  0  0  0  0  0  0  0
   -0.7663    0.5410   -1.5954 N   0  0  0  0  0  0  0  0  0  0  0  0
   -1.9251    1.4047   -1.5825 C   0  0  2  0  0  0  0  0  0  0  0  0
   -1.4522    2.8300   -1.8360 C   0  0  0  0  0  0  0  0  0  0  0  0
   -0.3008    3.2030   -1.6210 O   0  0  0  0  0  0  0  0  0  0  0  0
   -2.6733    1.3070   -0.2621 C   0  0  0  0  0  0  0  0  0  0  0  0
   -0.7398   -0.2224   -2.2647 H   0  0  0  0  0  0  0  0  0  0  0  0
   -2.5699    1.0811   -2.4068 H   0  0  0  0  0  0  0  0  0  0  0  0
   -2.0432    1.6271    0.5757 H   0  0  0  0  0  0  0  0  0  0  0  0
   -3.5667    1.9401   -0.2645 H   0  0  0  0  0  0  0  0  0  0  0  0
   -2.9867    0.2757   -0.0671 H   0  0  0  0  0  0  0  0  0  0  0  0
   -2.4780    3.6473   -2.2897 N   0  0  0  0  0  0  0  0  0  0  0  0
   -2.2850    5.0467   -2.5903 C   0  0  0  0  0  0  0  0  0  0  0  0
   -3.3972    3.2489   -2.4576 H   0  0  0  0  0  0  0  0  0  0  0  0
   -2.5193    5.6492   -1.7003 H   0  0  0  0  0  0  0  0  0  0  0  0
   -1.2386    5.2177   -2.8835 H   0  0  0  0  0  0  0  0  0  0  0  0
   -2.9497    5.3393   -3.4164 H   0  0  0  0  0  0  0  0  0  0  0  0
 18 19  1  0  0  0  0
 19 31  1  0  0  0  0
 19 20  2  0  0  0  0
  8  9  1  0  0  0  0
  9 17  1  0  0  0  0
  9 10  2  0  0  0  0
  1  3  1  0  0  0  0
  1  7  1  0  0  0  0
  1  2  2  0  0  0  0
 32 33  1  0  0  0  0
 33 41  1  0  0  0  0
 33 34  2  0  0  0  0
 21 22  1  0  0  0  0
 22 23  1  0  0  0  0
 18 21  1  0  0  0  0
 17 23  1  0  0  0  0
 17 18  1  0  0  0  0
  8 11  1  0  0  0  0
 32 35  1  0  0  0  0
 41 42  1  0  0  0  0
  7  8  1  0  0  0  0
 31 32  1  0  0  0  0
 22 27  1  0  0  0  0
 22 28  1  0  0  0  0
 21 25  1  0  0  0  0
 21 26  1  0  0  0  0
 23 29  1  0  0  0  0
 23 30  1  0  0  0  0
 18 24  1  0  0  0  0
  3  4  1  0  0  0  0
  3  5  1  0  0  0  0
  3  6  1  0  0  0  0
 11 14  1  0  0  0  0
 11 15  1  0  0  0  0
 11 16  1  0  0  0  0
 35 38  1  0  0  0  0
 35 39  1  0  0  0  0
 35 40  1  0  0  0  0
 42 44  1  0  0  0  0
 42 45  1  0  0  0  0
 42 46  1  0  0  0  0
  8 13  1  0  0  0  0
 32 37  1  0  0  0  0
 31 36  1  0  0  0  0
 41 43  1  0  0  0  0
  7 12  1  0  0  0  0
M  END
$$$$
