@<TRIPOS>MOLECULE
default_name
   22    21     1     0     0
SMALL
No Charge or Current Charge


@<TRIPOS>ATOM
      1 H1          25.9500    25.1790    24.5820 H          1 ACE       0.112300
      2 CH3         25.9860    26.1760    24.1450 C.3        1 ACE      -0.366200
      3 H2          25.3320    26.8430    24.7030 H          1 ACE       0.112300
      4 H3          25.6730    26.1310    23.1040 H          1 ACE       0.112300
      5 C           27.4050    26.6910    24.2180 C.2        1 ACE       0.597200
      6 O           28.2850    25.9990    24.7130 O.2        1 ACE      -0.567900
      7 N           27.6210    27.9090    23.7280 N.am       2 ALA      -0.415700
      8 H           26.8380    28.4350    23.3700 H          2 ALA       0.271900
      9 CA          28.9160    28.5890    23.7300 C.3        2 ALA       0.033700
     10 HA          29.4710    28.2880    24.6200 H          2 ALA       0.082300
     11 CB          29.7100    28.1530    22.4890 C.3        2 ALA      -0.182500
     12 HB1         29.1720    28.4400    21.5840 H          2 ALA       0.060300
     13 HB2         30.6910    28.6270    22.4880 H          2 ALA       0.060300
     14 HB3         29.8440    27.0700    22.4990 H          2 ALA       0.060300
     15 C           28.7370    30.1190    23.7780 C.2        2 ALA       0.597300
     16 O           27.6750    30.6340    23.4290 O.2        2 ALA      -0.567900
     17 N           29.7840    30.8410    24.1970 N.am       3 NME      -0.415700
     18 H           30.6220    30.3480    24.4610 H          3 NME       0.271900
     19 CH3         29.7840    32.3000    24.2930 C.3        3 NME      -0.149000
     20 HH31        28.9510    32.6280    24.9180 H          3 NME       0.097600
     21 HH32        30.7200    32.6520    24.7290 H          3 NME       0.097600
     22 HH33        29.6630    32.7340    23.2990 H          3 NME       0.097600
@<TRIPOS>BOND
     1     5     6 2   
     2     5     7 am  
     3     2     3 1   
     4     2     4 1   
     5     2     5 1   
     6     1     2 1   
     7    15    16 2   
     8    15    17 am  
     9    11    12 1   
    10    11    13 1   
    11    11    14 1   
    12     9    10 1   
    13     9    11 1   
    14     9    15 1   
    15     7     8 1   
    16     7     9 1   
    17    19    20 1   
    18    19    21 1   
    19    19    22 1   
    20    17    18 1   
    21    17    19 1   
@<TRIPOS>SUBSTRUCTURE
     1 ACE         1 TEMP              0 ****  ****    0 ROOT
