
  -OEChem-05262214473D

 43 42  0     1  0  0  0  0  0999 V2000
    0.7424   -1.0926    4.5665 C   0  0  0  0  0  0  0  0  0  0  0  0
    0.1409   -0.5364    5.4779 O   0  0  0  0  0  0  0  0  0  0  0  0
    1.7940   -2.1023    4.8871 C   0  0  0  0  0  0  0  0  0  0  0  0
    2.7935   -1.6502    4.9904 H   0  0  0  0  0  0  0  0  0  0  0  0
    1.6064   -2.6156    5.8438 H   0  0  0  0  0  0  0  0  0  0  0  0
    1.9156   -2.9078    4.1453 H   0  0  0  0  0  0  0  0  0  0  0  0
    0.5488   -0.8838    3.2109 N   0  0  0  0  0  0  0  0  0  0  0  0
   -0.4159    0.0446    2.6829 C   0  0  2  0  0  0  0  0  0  0  0  0
   -0.7551   -0.3867    1.2623 C   0  0  0  0  0  0  0  0  0  0  0  0
   -0.0106   -1.0851    0.5774 O   0  0  0  0  0  0  0  0  0  0  0  0
    0.1168    1.4689    2.7060 C   0  0  0  0  0  0  0  0  0  0  0  0
    1.1183   -1.4145    2.5542 H   0  0  0  0  0  0  0  0  0  0  0  0
   -1.3088   -0.0350    3.3125 H   0  0  0  0  0  0  0  0  0  0  0  0
    1.0116    1.5681    2.0808 H   0  0  0  0  0  0  0  0  0  0  0  0
   -0.6289    2.1775    2.3307 H   0  0  0  0  0  0  0  0  0  0  0  0
    0.3882    1.7670    3.7245 H   0  0  0  0  0  0  0  0  0  0  0  0
   -1.9689    0.1350    0.8298 N   0  0  0  0  0  0  0  0  0  0  0  0
   -2.5039   -0.1183   -0.4830 C   0  0  2  0  0  0  0  0  0  0  0  0
   -3.8388    0.6088   -0.6025 C   0  0  0  0  0  0  0  0  0  0  0  0
   -4.3029    1.3090    0.2950 O   0  0  0  0  0  0  0  0  0  0  0  0
   -2.6413   -1.6124   -0.7579 C   0  0  0  0  0  0  0  0  0  0  0  0
   -3.6186   -2.1842    0.1041 O   0  0  0  0  0  0  0  0  0  0  0  0
   -2.5276    0.6894    1.4750 H   0  0  0  0  0  0  0  0  0  0  0  0
   -1.7959    0.3216   -1.1947 H   0  0  0  0  0  0  0  0  0  0  0  0
   -1.6930   -2.1324   -0.5878 H   0  0  0  0  0  0  0  0  0  0  0  0
   -2.9565   -1.7862   -1.7922 H   0  0  0  0  0  0  0  0  0  0  0  0
   -4.4542   -1.7266   -0.0803 H   0  0  0  0  0  0  0  0  0  0  0  0
   -4.4282    0.4178   -1.8442 N   0  0  0  0  0  0  0  0  0  0  0  0
   -5.6839    1.0272   -2.2163 C   0  0  2  0  0  0  0  0  0  0  0  0
   -5.7622    2.3913   -1.5435 C   0  0  0  0  0  0  0  0  0  0  0  0
   -5.1150    2.6824   -0.5398 O   0  0  0  0  0  0  0  0  0  0  0  0
   -6.8629    0.1546   -1.8147 C   0  0  0  0  0  0  0  0  0  0  0  0
   -3.9518   -0.1467   -2.5414 H   0  0  0  0  0  0  0  0  0  0  0  0
   -5.6627    1.1564   -3.3039 H   0  0  0  0  0  0  0  0  0  0  0  0
   -6.9006    0.0139   -0.7283 H   0  0  0  0  0  0  0  0  0  0  0  0
   -7.8125    0.6044   -2.1229 H   0  0  0  0  0  0  0  0  0  0  0  0
   -6.7893   -0.8362   -2.2759 H   0  0  0  0  0  0  0  0  0  0  0  0
   -6.6722    3.2309   -2.1705 N   0  0  0  0  0  0  0  0  0  0  0  0
   -6.9362    4.5752   -1.7130 C   0  0  0  0  0  0  0  0  0  0  0  0
   -7.1505    2.9129   -3.0083 H   0  0  0  0  0  0  0  0  0  0  0  0
   -7.7870    4.5653   -1.0158 H   0  0  0  0  0  0  0  0  0  0  0  0
   -6.0465    4.9691   -1.1999 H   0  0  0  0  0  0  0  0  0  0  0  0
   -7.1759    5.2152   -2.5748 H   0  0  0  0  0  0  0  0  0  0  0  0
  1  3  1  0  0  0  0
  1  7  1  0  0  0  0
  1  2  2  0  0  0  0
 29 30  1  0  0  0  0
 30 38  1  0  0  0  0
 30 31  2  0  0  0  0
  8  9  1  0  0  0  0
  9 17  1  0  0  0  0
  9 10  2  0  0  0  0
 18 19  1  0  0  0  0
 19 28  1  0  0  0  0
 19 20  2  0  0  0  0
 29 32  1  0  0  0  0
  8 11  1  0  0  0  0
 38 39  1  0  0  0  0
 18 21  1  0  0  0  0
 21 22  1  0  0  0  0
 28 29  1  0  0  0  0
  7  8  1  0  0  0  0
 17 18  1  0  0  0  0
  3  4  1  0  0  0  0
  3  5  1  0  0  0  0
  3  6  1  0  0  0  0
 32 35  1  0  0  0  0
 32 36  1  0  0  0  0
 32 37  1  0  0  0  0
 11 14  1  0  0  0  0
 11 15  1  0  0  0  0
 11 16  1  0  0  0  0
 39 41  1  0  0  0  0
 39 42  1  0  0  0  0
 39 43  1  0  0  0  0
 21 25  1  0  0  0  0
 21 26  1  0  0  0  0
 29 34  1  0  0  0  0
  8 13  1  0  0  0  0
 18 24  1  0  0  0  0
 38 40  1  0  0  0  0
  7 12  1  0  0  0  0
 28 33  1  0  0  0  0
 17 23  1  0  0  0  0
 22 27  1  0  0  0  0
M  END
$$$$

  -OEChem-05262214473D

 43 42  0     1  0  0  0  0  0999 V2000
    0.7424   -1.0926    4.5665 C   0  0  0  0  0  0  0  0  0  0  0  0
    0.1409   -0.5364    5.4779 O   0  0  0  0  0  0  0  0  0  0  0  0
    1.7940   -2.1023    4.8871 C   0  0  0  0  0  0  0  0  0  0  0  0
    2.7935   -1.6502    4.9904 H   0  0  0  0  0  0  0  0  0  0  0  0
    1.6064   -2.6156    5.8438 H   0  0  0  0  0  0  0  0  0  0  0  0
    1.9156   -2.9078    4.1453 H   0  0  0  0  0  0  0  0  0  0  0  0
    0.5488   -0.8838    3.2109 N   0  0  0  0  0  0  0  0  0  0  0  0
   -0.4159    0.0446    2.6829 C   0  0  2  0  0  0  0  0  0  0  0  0
   -0.7551   -0.3867    1.2623 C   0  0  0  0  0  0  0  0  0  0  0  0
   -0.0106   -1.0851    0.5774 O   0  0  0  0  0  0  0  0  0  0  0  0
    0.1168    1.4689    2.7060 C   0  0  0  0  0  0  0  0  0  0  0  0
    1.1183   -1.4145    2.5542 H   0  0  0  0  0  0  0  0  0  0  0  0
   -1.3088   -0.0350    3.3125 H   0  0  0  0  0  0  0  0  0  0  0  0
    1.0116    1.5681    2.0808 H   0  0  0  0  0  0  0  0  0  0  0  0
   -0.6289    2.1775    2.3307 H   0  0  0  0  0  0  0  0  0  0  0  0
    0.3882    1.7670    3.7245 H   0  0  0  0  0  0  0  0  0  0  0  0
   -1.9689    0.1350    0.8298 N   0  0  0  0  0  0  0  0  0  0  0  0
   -2.5039   -0.1183   -0.4830 C   0  0  2  0  0  0  0  0  0  0  0  0
   -3.8388    0.6088   -0.6025 C   0  0  0  0  0  0  0  0  0  0  0  0
   -4.1821    1.5088    0.1612 O   0  0  0  0  0  0  0  0  0  0  0  0
   -2.6413   -1.6124   -0.7579 C   0  0  0  0  0  0  0  0  0  0  0  0
   -3.6186   -2.1842    0.1041 O   0  0  0  0  0  0  0  0  0  0  0  0
   -2.5276    0.6894    1.4750 H   0  0  0  0  0  0  0  0  0  0  0  0
   -1.7959    0.3216   -1.1947 H   0  0  0  0  0  0  0  0  0  0  0  0
   -1.6930   -2.1324   -0.5878 H   0  0  0  0  0  0  0  0  0  0  0  0
   -2.9565   -1.7862   -1.7922 H   0  0  0  0  0  0  0  0  0  0  0  0
   -4.4542   -1.7266   -0.0803 H   0  0  0  0  0  0  0  0  0  0  0  0
   -4.5808    0.1634   -1.6873 N   0  0  0  0  0  0  0  0  0  0  0  0
   -5.8696    0.7162   -2.0336 C   0  0  2  0  0  0  0  0  0  0  0  0
   -5.8544    2.1987   -1.6850 C   0  0  0  0  0  0  0  0  0  0  0  0
   -5.0844    2.6859   -0.8599 O   0  0  0  0  0  0  0  0  0  0  0  0
   -6.9940   -0.0022   -1.3040 C   0  0  0  0  0  0  0  0  0  0  0  0
   -4.1993   -0.5598   -2.2900 H   0  0  0  0  0  0  0  0  0  0  0  0
   -5.9846    0.5962   -3.1163 H   0  0  0  0  0  0  0  0  0  0  0  0
   -6.8956    0.1068   -0.2178 H   0  0  0  0  0  0  0  0  0  0  0  0
   -7.9721    0.3990   -1.5892 H   0  0  0  0  0  0  0  0  0  0  0  0
   -6.9850   -1.0734   -1.5327 H   0  0  0  0  0  0  0  0  0  0  0  0
   -6.8310    2.9063   -2.3718 N   0  0  0  0  0  0  0  0  0  0  0  0
   -7.0272    4.3274   -2.2041 C   0  0  0  0  0  0  0  0  0  0  0  0
   -7.4127    2.4245   -3.0509 H   0  0  0  0  0  0  0  0  0  0  0  0
   -7.7836    4.5042   -1.4253 H   0  0  0  0  0  0  0  0  0  0  0  0
   -6.0776    4.7958   -1.9059 H   0  0  0  0  0  0  0  0  0  0  0  0
   -7.3695    4.7647   -3.1536 H   0  0  0  0  0  0  0  0  0  0  0  0
  1  3  1  0  0  0  0
  1  7  1  0  0  0  0
  1  2  2  0  0  0  0
 29 30  1  0  0  0  0
 30 38  1  0  0  0  0
 30 31  2  0  0  0  0
  8  9  1  0  0  0  0
  9 17  1  0  0  0  0
  9 10  2  0  0  0  0
 18 19  1  0  0  0  0
 19 28  1  0  0  0  0
 19 20  2  0  0  0  0
 29 32  1  0  0  0  0
  8 11  1  0  0  0  0
 38 39  1  0  0  0  0
 18 21  1  0  0  0  0
 21 22  1  0  0  0  0
 28 29  1  0  0  0  0
  7  8  1  0  0  0  0
 17 18  1  0  0  0  0
  3  4  1  0  0  0  0
  3  5  1  0  0  0  0
  3  6  1  0  0  0  0
 32 35  1  0  0  0  0
 32 36  1  0  0  0  0
 32 37  1  0  0  0  0
 11 14  1  0  0  0  0
 11 15  1  0  0  0  0
 11 16  1  0  0  0  0
 39 41  1  0  0  0  0
 39 42  1  0  0  0  0
 39 43  1  0  0  0  0
 21 25  1  0  0  0  0
 21 26  1  0  0  0  0
 29 34  1  0  0  0  0
  8 13  1  0  0  0  0
 18 24  1  0  0  0  0
 38 40  1  0  0  0  0
  7 12  1  0  0  0  0
 28 33  1  0  0  0  0
 17 23  1  0  0  0  0
 22 27  1  0  0  0  0
M  END
$$$$

  -OEChem-05262214473D

 43 42  0     1  0  0  0  0  0999 V2000
    0.7424   -1.0926    4.5665 C   0  0  0  0  0  0  0  0  0  0  0  0
    0.1409   -0.5364    5.4779 O   0  0  0  0  0  0  0  0  0  0  0  0
    1.7940   -2.1023    4.8871 C   0  0  0  0  0  0  0  0  0  0  0  0
    2.7935   -1.6502    4.9904 H   0  0  0  0  0  0  0  0  0  0  0  0
    1.6064   -2.6156    5.8438 H   0  0  0  0  0  0  0  0  0  0  0  0
    1.9156   -2.9078    4.1453 H   0  0  0  0  0  0  0  0  0  0  0  0
    0.5488   -0.8838    3.2109 N   0  0  0  0  0  0  0  0  0  0  0  0
   -0.4159    0.0446    2.6829 C   0  0  2  0  0  0  0  0  0  0  0  0
   -0.7551   -0.3867    1.2623 C   0  0  0  0  0  0  0  0  0  0  0  0
   -0.0106   -1.0851    0.5774 O   0  0  0  0  0  0  0  0  0  0  0  0
    0.1168    1.4689    2.7060 C   0  0  0  0  0  0  0  0  0  0  0  0
    1.1183   -1.4145    2.5542 H   0  0  0  0  0  0  0  0  0  0  0  0
   -1.3088   -0.0350    3.3125 H   0  0  0  0  0  0  0  0  0  0  0  0
    1.0116    1.5681    2.0808 H   0  0  0  0  0  0  0  0  0  0  0  0
   -0.6289    2.1775    2.3307 H   0  0  0  0  0  0  0  0  0  0  0  0
    0.3882    1.7670    3.7245 H   0  0  0  0  0  0  0  0  0  0  0  0
   -1.9689    0.1350    0.8298 N   0  0  0  0  0  0  0  0  0  0  0  0
   -2.5039   -0.1183   -0.4830 C   0  0  2  0  0  0  0  0  0  0  0  0
   -3.8388    0.6088   -0.6025 C   0  0  0  0  0  0  0  0  0  0  0  0
   -4.0779    1.6690   -0.0282 O   0  0  0  0  0  0  0  0  0  0  0  0
   -2.6413   -1.6124   -0.7579 C   0  0  0  0  0  0  0  0  0  0  0  0
   -3.6186   -2.1842    0.1041 O   0  0  0  0  0  0  0  0  0  0  0  0
   -2.5276    0.6894    1.4750 H   0  0  0  0  0  0  0  0  0  0  0  0
   -1.7959    0.3216   -1.1947 H   0  0  0  0  0  0  0  0  0  0  0  0
   -1.6930   -2.1324   -0.5878 H   0  0  0  0  0  0  0  0  0  0  0  0
   -2.9565   -1.7862   -1.7922 H   0  0  0  0  0  0  0  0  0  0  0  0
   -4.4542   -1.7266   -0.0803 H   0  0  0  0  0  0  0  0  0  0  0  0
   -4.7140   -0.0437   -1.4592 N   0  0  0  0  0  0  0  0  0  0  0  0
   -6.0328    0.4610   -1.7637 C   0  0  2  0  0  0  0  0  0  0  0  0
   -5.9649    1.9825   -1.7665 C   0  0  0  0  0  0  0  0  0  0  0  0
   -5.0943    2.6162   -1.1737 O   0  0  0  0  0  0  0  0  0  0  0  0
   -7.0608   -0.0354   -0.7590 C   0  0  0  0  0  0  0  0  0  0  0  0
   -4.4157   -0.8968   -1.9229 H   0  0  0  0  0  0  0  0  0  0  0  0
   -6.2837    0.1042   -2.7685 H   0  0  0  0  0  0  0  0  0  0  0  0
   -6.8260    0.3122    0.2537 H   0  0  0  0  0  0  0  0  0  0  0  0
   -8.0646    0.3248   -1.0076 H   0  0  0  0  0  0  0  0  0  0  0  0
   -7.0871   -1.1302   -0.7369 H   0  0  0  0  0  0  0  0  0  0  0  0
   -7.0158    2.5504   -2.4731 N   0  0  0  0  0  0  0  0  0  0  0  0
   -7.1807    3.9786   -2.6111 C   0  0  0  0  0  0  0  0  0  0  0  0
   -7.6812    1.9483   -2.9489 H   0  0  0  0  0  0  0  0  0  0  0  0
   -7.8321    4.3524   -1.8074 H   0  0  0  0  0  0  0  0  0  0  0  0
   -6.1984    4.4692   -2.5448 H   0  0  0  0  0  0  0  0  0  0  0  0
   -7.6371    4.2023   -3.5867 H   0  0  0  0  0  0  0  0  0  0  0  0
  1  3  1  0  0  0  0
  1  7  1  0  0  0  0
  1  2  2  0  0  0  0
 29 30  1  0  0  0  0
 30 38  1  0  0  0  0
 30 31  2  0  0  0  0
  8  9  1  0  0  0  0
  9 17  1  0  0  0  0
  9 10  2  0  0  0  0
 18 19  1  0  0  0  0
 19 28  1  0  0  0  0
 19 20  2  0  0  0  0
 29 32  1  0  0  0  0
  8 11  1  0  0  0  0
 38 39  1  0  0  0  0
 18 21  1  0  0  0  0
 21 22  1  0  0  0  0
 28 29  1  0  0  0  0
  7  8  1  0  0  0  0
 17 18  1  0  0  0  0
  3  4  1  0  0  0  0
  3  5  1  0  0  0  0
  3  6  1  0  0  0  0
 32 35  1  0  0  0  0
 32 36  1  0  0  0  0
 32 37  1  0  0  0  0
 11 14  1  0  0  0  0
 11 15  1  0  0  0  0
 11 16  1  0  0  0  0
 39 41  1  0  0  0  0
 39 42  1  0  0  0  0
 39 43  1  0  0  0  0
 21 25  1  0  0  0  0
 21 26  1  0  0  0  0
 29 34  1  0  0  0  0
  8 13  1  0  0  0  0
 18 24  1  0  0  0  0
 38 40  1  0  0  0  0
  7 12  1  0  0  0  0
 28 33  1  0  0  0  0
 17 23  1  0  0  0  0
 22 27  1  0  0  0  0
M  END
$$$$

  -OEChem-05262214473D

 43 42  0     1  0  0  0  0  0999 V2000
    0.7424   -1.0926    4.5665 C   0  0  0  0  0  0  0  0  0  0  0  0
    0.1409   -0.5364    5.4779 O   0  0  0  0  0  0  0  0  0  0  0  0
    1.7940   -2.1023    4.8871 C   0  0  0  0  0  0  0  0  0  0  0  0
    2.7935   -1.6502    4.9904 H   0  0  0  0  0  0  0  0  0  0  0  0
    1.6064   -2.6156    5.8438 H   0  0  0  0  0  0  0  0  0  0  0  0
    1.9156   -2.9078    4.1453 H   0  0  0  0  0  0  0  0  0  0  0  0
    0.5488   -0.8838    3.2109 N   0  0  0  0  0  0  0  0  0  0  0  0
   -0.4159    0.0446    2.6829 C   0  0  2  0  0  0  0  0  0  0  0  0
   -0.7551   -0.3867    1.2623 C   0  0  0  0  0  0  0  0  0  0  0  0
   -0.0106   -1.0851    0.5774 O   0  0  0  0  0  0  0  0  0  0  0  0
    0.1168    1.4689    2.7060 C   0  0  0  0  0  0  0  0  0  0  0  0
    1.1183   -1.4145    2.5542 H   0  0  0  0  0  0  0  0  0  0  0  0
   -1.3088   -0.0350    3.3125 H   0  0  0  0  0  0  0  0  0  0  0  0
    1.0116    1.5681    2.0808 H   0  0  0  0  0  0  0  0  0  0  0  0
   -0.6289    2.1775    2.3307 H   0  0  0  0  0  0  0  0  0  0  0  0
    0.3882    1.7670    3.7245 H   0  0  0  0  0  0  0  0  0  0  0  0
   -1.9689    0.1350    0.8298 N   0  0  0  0  0  0  0  0  0  0  0  0
   -2.5039   -0.1183   -0.4830 C   0  0  2  0  0  0  0  0  0  0  0  0
   -3.8388    0.6088   -0.6025 C   0  0  0  0  0  0  0  0  0  0  0  0
   -3.9974    1.7788   -0.2603 O   0  0  0  0  0  0  0  0  0  0  0  0
   -2.6413   -1.6124   -0.7579 C   0  0  0  0  0  0  0  0  0  0  0  0
   -3.6186   -2.1842    0.1041 O   0  0  0  0  0  0  0  0  0  0  0  0
   -2.5276    0.6894    1.4750 H   0  0  0  0  0  0  0  0  0  0  0  0
   -1.7959    0.3216   -1.1947 H   0  0  0  0  0  0  0  0  0  0  0  0
   -1.6930   -2.1324   -0.5878 H   0  0  0  0  0  0  0  0  0  0  0  0
   -2.9565   -1.7862   -1.7922 H   0  0  0  0  0  0  0  0  0  0  0  0
   -4.4542   -1.7266   -0.0803 H   0  0  0  0  0  0  0  0  0  0  0  0
   -4.8187   -0.1894   -1.1755 N   0  0  0  0  0  0  0  0  0  0  0  0
   -6.1622    0.2790   -1.4250 C   0  0  2  0  0  0  0  0  0  0  0  0
   -6.0861    1.7574   -1.7827 C   0  0  0  0  0  0  0  0  0  0  0  0
   -5.1440    2.4780   -1.4597 O   0  0  0  0  0  0  0  0  0  0  0  0
   -7.0588    0.0575   -0.2168 C   0  0  0  0  0  0  0  0  0  0  0  0
   -4.5863   -1.1347   -1.4653 H   0  0  0  0  0  0  0  0  0  0  0  0
   -6.5397   -0.2862   -2.2842 H   0  0  0  0  0  0  0  0  0  0  0  0
   -6.6963    0.6160    0.6540 H   0  0  0  0  0  0  0  0  0  0  0  0
   -8.0836    0.3868   -0.4175 H   0  0  0  0  0  0  0  0  0  0  0  0
   -7.0887   -1.0026    0.0572 H   0  0  0  0  0  0  0  0  0  0  0  0
   -7.2140    2.1875   -2.4675 N   0  0  0  0  0  0  0  0  0  0  0  0
   -7.3863    3.5526   -2.9063 C   0  0  0  0  0  0  0  0  0  0  0  0
   -7.9376    1.5169   -2.7094 H   0  0  0  0  0  0  0  0  0  0  0  0
   -7.9292    4.1201   -2.1361 H   0  0  0  0  0  0  0  0  0  0  0  0
   -6.4005    4.0113   -3.0729 H   0  0  0  0  0  0  0  0  0  0  0  0
   -7.9604    3.5664   -3.8446 H   0  0  0  0  0  0  0  0  0  0  0  0
  1  3  1  0  0  0  0
  1  7  1  0  0  0  0
  1  2  2  0  0  0  0
 29 30  1  0  0  0  0
 30 38  1  0  0  0  0
 30 31  2  0  0  0  0
  8  9  1  0  0  0  0
  9 17  1  0  0  0  0
  9 10  2  0  0  0  0
 18 19  1  0  0  0  0
 19 28  1  0  0  0  0
 19 20  2  0  0  0  0
 29 32  1  0  0  0  0
  8 11  1  0  0  0  0
 38 39  1  0  0  0  0
 18 21  1  0  0  0  0
 21 22  1  0  0  0  0
 28 29  1  0  0  0  0
  7  8  1  0  0  0  0
 17 18  1  0  0  0  0
  3  4  1  0  0  0  0
  3  5  1  0  0  0  0
  3  6  1  0  0  0  0
 32 35  1  0  0  0  0
 32 36  1  0  0  0  0
 32 37  1  0  0  0  0
 11 14  1  0  0  0  0
 11 15  1  0  0  0  0
 11 16  1  0  0  0  0
 39 41  1  0  0  0  0
 39 42  1  0  0  0  0
 39 43  1  0  0  0  0
 21 25  1  0  0  0  0
 21 26  1  0  0  0  0
 29 34  1  0  0  0  0
  8 13  1  0  0  0  0
 18 24  1  0  0  0  0
 38 40  1  0  0  0  0
  7 12  1  0  0  0  0
 28 33  1  0  0  0  0
 17 23  1  0  0  0  0
 22 27  1  0  0  0  0
M  END
$$$$

  -OEChem-05262214473D

 43 42  0     1  0  0  0  0  0999 V2000
    0.7424   -1.0926    4.5665 C   0  0  0  0  0  0  0  0  0  0  0  0
    0.1409   -0.5364    5.4779 O   0  0  0  0  0  0  0  0  0  0  0  0
    1.7940   -2.1023    4.8871 C   0  0  0  0  0  0  0  0  0  0  0  0
    2.7935   -1.6502    4.9904 H   0  0  0  0  0  0  0  0  0  0  0  0
    1.6064   -2.6156    5.8438 H   0  0  0  0  0  0  0  0  0  0  0  0
    1.9156   -2.9078    4.1453 H   0  0  0  0  0  0  0  0  0  0  0  0
    0.5488   -0.8838    3.2109 N   0  0  0  0  0  0  0  0  0  0  0  0
   -0.4159    0.0446    2.6829 C   0  0  2  0  0  0  0  0  0  0  0  0
   -0.7551   -0.3867    1.2623 C   0  0  0  0  0  0  0  0  0  0  0  0
   -0.0106   -1.0851    0.5774 O   0  0  0  0  0  0  0  0  0  0  0  0
    0.1168    1.4689    2.7060 C   0  0  0  0  0  0  0  0  0  0  0  0
    1.1183   -1.4145    2.5542 H   0  0  0  0  0  0  0  0  0  0  0  0
   -1.3088   -0.0350    3.3125 H   0  0  0  0  0  0  0  0  0  0  0  0
    1.0116    1.5681    2.0808 H   0  0  0  0  0  0  0  0  0  0  0  0
   -0.6289    2.1775    2.3307 H   0  0  0  0  0  0  0  0  0  0  0  0
    0.3882    1.7670    3.7245 H   0  0  0  0  0  0  0  0  0  0  0  0
   -1.9689    0.1350    0.8298 N   0  0  0  0  0  0  0  0  0  0  0  0
   -2.5039   -0.1183   -0.4830 C   0  0  2  0  0  0  0  0  0  0  0  0
   -3.8388    0.6088   -0.6025 C   0  0  0  0  0  0  0  0  0  0  0  0
   -3.9460    1.8306   -0.5193 O   0  0  0  0  0  0  0  0  0  0  0  0
   -2.6413   -1.6124   -0.7579 C   0  0  0  0  0  0  0  0  0  0  0  0
   -3.6186   -2.1842    0.1041 O   0  0  0  0  0  0  0  0  0  0  0  0
   -2.5276    0.6894    1.4750 H   0  0  0  0  0  0  0  0  0  0  0  0
   -1.7959    0.3216   -1.1947 H   0  0  0  0  0  0  0  0  0  0  0  0
   -1.6930   -2.1324   -0.5878 H   0  0  0  0  0  0  0  0  0  0  0  0
   -2.9565   -1.7862   -1.7922 H   0  0  0  0  0  0  0  0  0  0  0  0
   -4.4542   -1.7266   -0.0803 H   0  0  0  0  0  0  0  0  0  0  0  0
   -4.8878   -0.2637   -0.8556 N   0  0  0  0  0  0  0  0  0  0  0  0
   -6.2492    0.1825   -1.0407 C   0  0  2  0  0  0  0  0  0  0  0  0
   -6.2096    1.5388   -1.7323 C   0  0  0  0  0  0  0  0  0  0  0  0
   -5.2301    2.2807   -1.6986 O   0  0  0  0  0  0  0  0  0  0  0  0
   -6.9880    0.2700    0.2856 C   0  0  0  0  0  0  0  0  0  0  0  0
   -4.6994   -1.2575   -0.9482 H   0  0  0  0  0  0  0  0  0  0  0  0
   -6.7351   -0.5484   -1.6962 H   0  0  0  0  0  0  0  0  0  0  0  0
   -6.5155    0.9975    0.9558 H   0  0  0  0  0  0  0  0  0  0  0  0
   -8.0279    0.5808    0.1408 H   0  0  0  0  0  0  0  0  0  0  0  0
   -6.9896   -0.6994    0.7956 H   0  0  0  0  0  0  0  0  0  0  0  0
   -7.4121    1.8421   -2.3554 N   0  0  0  0  0  0  0  0  0  0  0  0
   -7.6300    3.0785   -3.0696 C   0  0  0  0  0  0  0  0  0  0  0  0
   -8.1644    1.1597   -2.3487 H   0  0  0  0  0  0  0  0  0  0  0  0
   -8.0683    3.8233   -2.3890 H   0  0  0  0  0  0  0  0  0  0  0  0
   -6.6702    3.4535   -3.4544 H   0  0  0  0  0  0  0  0  0  0  0  0
   -8.3174    2.9002   -3.9096 H   0  0  0  0  0  0  0  0  0  0  0  0
  1  3  1  0  0  0  0
  1  7  1  0  0  0  0
  1  2  2  0  0  0  0
 29 30  1  0  0  0  0
 30 38  1  0  0  0  0
 30 31  2  0  0  0  0
  8  9  1  0  0  0  0
  9 17  1  0  0  0  0
  9 10  2  0  0  0  0
 18 19  1  0  0  0  0
 19 28  1  0  0  0  0
 19 20  2  0  0  0  0
 29 32  1  0  0  0  0
  8 11  1  0  0  0  0
 38 39  1  0  0  0  0
 18 21  1  0  0  0  0
 21 22  1  0  0  0  0
 28 29  1  0  0  0  0
  7  8  1  0  0  0  0
 17 18  1  0  0  0  0
  3  4  1  0  0  0  0
  3  5  1  0  0  0  0
  3  6  1  0  0  0  0
 32 35  1  0  0  0  0
 32 36  1  0  0  0  0
 32 37  1  0  0  0  0
 11 14  1  0  0  0  0
 11 15  1  0  0  0  0
 11 16  1  0  0  0  0
 39 41  1  0  0  0  0
 39 42  1  0  0  0  0
 39 43  1  0  0  0  0
 21 25  1  0  0  0  0
 21 26  1  0  0  0  0
 29 34  1  0  0  0  0
  8 13  1  0  0  0  0
 18 24  1  0  0  0  0
 38 40  1  0  0  0  0
  7 12  1  0  0  0  0
 28 33  1  0  0  0  0
 17 23  1  0  0  0  0
 22 27  1  0  0  0  0
M  END
$$$$

  -OEChem-05262214473D

 43 42  0     1  0  0  0  0  0999 V2000
    0.7424   -1.0926    4.5665 C   0  0  0  0  0  0  0  0  0  0  0  0
    0.1409   -0.5364    5.4779 O   0  0  0  0  0  0  0  0  0  0  0  0
    1.7940   -2.1023    4.8871 C   0  0  0  0  0  0  0  0  0  0  0  0
    2.7935   -1.6502    4.9904 H   0  0  0  0  0  0  0  0  0  0  0  0
    1.6064   -2.6156    5.8438 H   0  0  0  0  0  0  0  0  0  0  0  0
    1.9156   -2.9078    4.1453 H   0  0  0  0  0  0  0  0  0  0  0  0
    0.5488   -0.8838    3.2109 N   0  0  0  0  0  0  0  0  0  0  0  0
   -0.4159    0.0446    2.6829 C   0  0  2  0  0  0  0  0  0  0  0  0
   -0.7551   -0.3867    1.2623 C   0  0  0  0  0  0  0  0  0  0  0  0
   -0.0106   -1.0851    0.5774 O   0  0  0  0  0  0  0  0  0  0  0  0
    0.1168    1.4689    2.7060 C   0  0  0  0  0  0  0  0  0  0  0  0
    1.1183   -1.4145    2.5542 H   0  0  0  0  0  0  0  0  0  0  0  0
   -1.3088   -0.0350    3.3125 H   0  0  0  0  0  0  0  0  0  0  0  0
    1.0116    1.5681    2.0808 H   0  0  0  0  0  0  0  0  0  0  0  0
   -0.6289    2.1775    2.3307 H   0  0  0  0  0  0  0  0  0  0  0  0
    0.3882    1.7670    3.7245 H   0  0  0  0  0  0  0  0  0  0  0  0
   -1.9689    0.1350    0.8298 N   0  0  0  0  0  0  0  0  0  0  0  0
   -2.5039   -0.1183   -0.4830 C   0  0  2  0  0  0  0  0  0  0  0  0
   -3.8388    0.6088   -0.6025 C   0  0  0  0  0  0  0  0  0  0  0  0
   -3.9273    1.8208   -0.7875 O   0  0  0  0  0  0  0  0  0  0  0  0
   -2.6413   -1.6124   -0.7579 C   0  0  0  0  0  0  0  0  0  0  0  0
   -3.6186   -2.1842    0.1041 O   0  0  0  0  0  0  0  0  0  0  0  0
   -2.5276    0.6894    1.4750 H   0  0  0  0  0  0  0  0  0  0  0  0
   -1.7959    0.3216   -1.1947 H   0  0  0  0  0  0  0  0  0  0  0  0
   -1.6930   -2.1324   -0.5878 H   0  0  0  0  0  0  0  0  0  0  0  0
   -2.9565   -1.7862   -1.7922 H   0  0  0  0  0  0  0  0  0  0  0  0
   -4.4542   -1.7266   -0.0803 H   0  0  0  0  0  0  0  0  0  0  0  0
   -4.9166   -0.2615   -0.5212 N   0  0  0  0  0  0  0  0  0  0  0  0
   -6.2877    0.1781   -0.6369 C   0  0  2  0  0  0  0  0  0  0  0  0
   -6.3272    1.3415   -1.6189 C   0  0  0  0  0  0  0  0  0  0  0  0
   -5.3467    2.0377   -1.8740 O   0  0  0  0  0  0  0  0  0  0  0  0
   -6.8533    0.5877    0.7141 C   0  0  0  0  0  0  0  0  0  0  0  0
   -4.7474   -1.2565   -0.4071 H   0  0  0  0  0  0  0  0  0  0  0  0
   -6.8567   -0.6644   -1.0448 H   0  0  0  0  0  0  0  0  0  0  0  0
   -6.2959    1.4307    1.1386 H   0  0  0  0  0  0  0  0  0  0  0  0
   -7.9013    0.8936    0.6292 H   0  0  0  0  0  0  0  0  0  0  0  0
   -6.7967   -0.2412    1.4278 H   0  0  0  0  0  0  0  0  0  0  0  0
   -7.5967    1.5380   -2.1444 N   0  0  0  0  0  0  0  0  0  0  0  0
   -7.8952    2.5884   -3.0897 C   0  0  0  0  0  0  0  0  0  0  0  0
   -8.3463    0.9010   -1.8914 H   0  0  0  0  0  0  0  0  0  0  0  0
   -8.2398    3.4821   -2.5489 H   0  0  0  0  0  0  0  0  0  0  0  0
   -6.9891    2.8337   -3.6632 H   0  0  0  0  0  0  0  0  0  0  0  0
   -8.6838    2.2493   -3.7775 H   0  0  0  0  0  0  0  0  0  0  0  0
  1  3  1  0  0  0  0
  1  7  1  0  0  0  0
  1  2  2  0  0  0  0
 29 30  1  0  0  0  0
 30 38  1  0  0  0  0
 30 31  2  0  0  0  0
  8  9  1  0  0  0  0
  9 17  1  0  0  0  0
  9 10  2  0  0  0  0
 18 19  1  0  0  0  0
 19 28  1  0  0  0  0
 19 20  2  0  0  0  0
 29 32  1  0  0  0  0
  8 11  1  0  0  0  0
 38 39  1  0  0  0  0
 18 21  1  0  0  0  0
 21 22  1  0  0  0  0
 28 29  1  0  0  0  0
  7  8  1  0  0  0  0
 17 18  1  0  0  0  0
  3  4  1  0  0  0  0
  3  5  1  0  0  0  0
  3  6  1  0  0  0  0
 32 35  1  0  0  0  0
 32 36  1  0  0  0  0
 32 37  1  0  0  0  0
 11 14  1  0  0  0  0
 11 15  1  0  0  0  0
 11 16  1  0  0  0  0
 39 41  1  0  0  0  0
 39 42  1  0  0  0  0
 39 43  1  0  0  0  0
 21 25  1  0  0  0  0
 21 26  1  0  0  0  0
 29 34  1  0  0  0  0
  8 13  1  0  0  0  0
 18 24  1  0  0  0  0
 38 40  1  0  0  0  0
  7 12  1  0  0  0  0
 28 33  1  0  0  0  0
 17 23  1  0  0  0  0
 22 27  1  0  0  0  0
M  END
$$$$

  -OEChem-05262214473D

 43 42  0     1  0  0  0  0  0999 V2000
    0.7424   -1.0926    4.5665 C   0  0  0  0  0  0  0  0  0  0  0  0
    0.1409   -0.5364    5.4779 O   0  0  0  0  0  0  0  0  0  0  0  0
    1.7940   -2.1023    4.8871 C   0  0  0  0  0  0  0  0  0  0  0  0
    2.7935   -1.6502    4.9904 H   0  0  0  0  0  0  0  0  0  0  0  0
    1.6064   -2.6156    5.8438 H   0  0  0  0  0  0  0  0  0  0  0  0
    1.9156   -2.9078    4.1453 H   0  0  0  0  0  0  0  0  0  0  0  0
    0.5488   -0.8838    3.2109 N   0  0  0  0  0  0  0  0  0  0  0  0
   -0.4159    0.0446    2.6829 C   0  0  2  0  0  0  0  0  0  0  0  0
   -0.7551   -0.3867    1.2623 C   0  0  0  0  0  0  0  0  0  0  0  0
   -0.0106   -1.0851    0.5774 O   0  0  0  0  0  0  0  0  0  0  0  0
    0.1168    1.4689    2.7060 C   0  0  0  0  0  0  0  0  0  0  0  0
    1.1183   -1.4145    2.5542 H   0  0  0  0  0  0  0  0  0  0  0  0
   -1.3088   -0.0350    3.3125 H   0  0  0  0  0  0  0  0  0  0  0  0
    1.0116    1.5681    2.0808 H   0  0  0  0  0  0  0  0  0  0  0  0
   -0.6289    2.1775    2.3307 H   0  0  0  0  0  0  0  0  0  0  0  0
    0.3882    1.7670    3.7245 H   0  0  0  0  0  0  0  0  0  0  0  0
   -1.9689    0.1350    0.8298 N   0  0  0  0  0  0  0  0  0  0  0  0
   -2.5039   -0.1183   -0.4830 C   0  0  2  0  0  0  0  0  0  0  0  0
   -3.8388    0.6088   -0.6025 C   0  0  0  0  0  0  0  0  0  0  0  0
   -3.9425    1.7503   -1.0467 O   0  0  0  0  0  0  0  0  0  0  0  0
   -2.6413   -1.6124   -0.7579 C   0  0  0  0  0  0  0  0  0  0  0  0
   -3.6186   -2.1842    0.1041 O   0  0  0  0  0  0  0  0  0  0  0  0
   -2.5276    0.6894    1.4750 H   0  0  0  0  0  0  0  0  0  0  0  0
   -1.7959    0.3216   -1.1947 H   0  0  0  0  0  0  0  0  0  0  0  0
   -1.6930   -2.1324   -0.5878 H   0  0  0  0  0  0  0  0  0  0  0  0
   -2.9565   -1.7862   -1.7922 H   0  0  0  0  0  0  0  0  0  0  0  0
   -4.4542   -1.7266   -0.0803 H   0  0  0  0  0  0  0  0  0  0  0  0
   -4.9031   -0.1831   -0.1951 N   0  0  0  0  0  0  0  0  0  0  0  0
   -6.2751    0.2662   -0.2411 C   0  0  2  0  0  0  0  0  0  0  0  0
   -6.4308    1.1791   -1.4502 C   0  0  0  0  0  0  0  0  0  0  0  0
   -5.4860    1.7656   -1.9739 O   0  0  0  0  0  0  0  0  0  0  0  0
   -6.6638    0.9889    1.0393 C   0  0  0  0  0  0  0  0  0  0  0  0
   -4.7269   -1.1321    0.1214 H   0  0  0  0  0  0  0  0  0  0  0  0
   -6.8960   -0.6264   -0.3743 H   0  0  0  0  0  0  0  0  0  0  0  0
   -6.0524    1.8861    1.1898 H   0  0  0  0  0  0  0  0  0  0  0  0
   -7.7123    1.3038    1.0145 H   0  0  0  0  0  0  0  0  0  0  0  0
   -6.5229    0.3407    1.9109 H   0  0  0  0  0  0  0  0  0  0  0  0
   -7.7550    1.2958   -1.8489 N   0  0  0  0  0  0  0  0  0  0  0  0
   -8.1637    2.1158   -2.9654 C   0  0  0  0  0  0  0  0  0  0  0  0
   -8.4707    0.7584   -1.3685 H   0  0  0  0  0  0  0  0  0  0  0  0
   -8.4322    3.1197   -2.6048 H   0  0  0  0  0  0  0  0  0  0  0  0
   -7.3355    2.1942   -3.6851 H   0  0  0  0  0  0  0  0  0  0  0  0
   -9.0346    1.6579   -3.4571 H   0  0  0  0  0  0  0  0  0  0  0  0
  1  3  1  0  0  0  0
  1  7  1  0  0  0  0
  1  2  2  0  0  0  0
 29 30  1  0  0  0  0
 30 38  1  0  0  0  0
 30 31  2  0  0  0  0
  8  9  1  0  0  0  0
  9 17  1  0  0  0  0
  9 10  2  0  0  0  0
 18 19  1  0  0  0  0
 19 28  1  0  0  0  0
 19 20  2  0  0  0  0
 29 32  1  0  0  0  0
  8 11  1  0  0  0  0
 38 39  1  0  0  0  0
 18 21  1  0  0  0  0
 21 22  1  0  0  0  0
 28 29  1  0  0  0  0
  7  8  1  0  0  0  0
 17 18  1  0  0  0  0
  3  4  1  0  0  0  0
  3  5  1  0  0  0  0
  3  6  1  0  0  0  0
 32 35  1  0  0  0  0
 32 36  1  0  0  0  0
 32 37  1  0  0  0  0
 11 14  1  0  0  0  0
 11 15  1  0  0  0  0
 11 16  1  0  0  0  0
 39 41  1  0  0  0  0
 39 42  1  0  0  0  0
 39 43  1  0  0  0  0
 21 25  1  0  0  0  0
 21 26  1  0  0  0  0
 29 34  1  0  0  0  0
  8 13  1  0  0  0  0
 18 24  1  0  0  0  0
 38 40  1  0  0  0  0
  7 12  1  0  0  0  0
 28 33  1  0  0  0  0
 17 23  1  0  0  0  0
 22 27  1  0  0  0  0
M  END
$$$$

  -OEChem-05262214473D

 43 42  0     1  0  0  0  0  0999 V2000
    0.7424   -1.0926    4.5665 C   0  0  0  0  0  0  0  0  0  0  0  0
    0.1409   -0.5364    5.4779 O   0  0  0  0  0  0  0  0  0  0  0  0
    1.7940   -2.1023    4.8871 C   0  0  0  0  0  0  0  0  0  0  0  0
    2.7935   -1.6502    4.9904 H   0  0  0  0  0  0  0  0  0  0  0  0
    1.6064   -2.6156    5.8438 H   0  0  0  0  0  0  0  0  0  0  0  0
    1.9156   -2.9078    4.1453 H   0  0  0  0  0  0  0  0  0  0  0  0
    0.5488   -0.8838    3.2109 N   0  0  0  0  0  0  0  0  0  0  0  0
   -0.4159    0.0446    2.6829 C   0  0  2  0  0  0  0  0  0  0  0  0
   -0.7551   -0.3867    1.2623 C   0  0  0  0  0  0  0  0  0  0  0  0
   -0.0106   -1.0851    0.5774 O   0  0  0  0  0  0  0  0  0  0  0  0
    0.1168    1.4689    2.7060 C   0  0  0  0  0  0  0  0  0  0  0  0
    1.1183   -1.4145    2.5542 H   0  0  0  0  0  0  0  0  0  0  0  0
   -1.3088   -0.0350    3.3125 H   0  0  0  0  0  0  0  0  0  0  0  0
    1.0116    1.5681    2.0808 H   0  0  0  0  0  0  0  0  0  0  0  0
   -0.6289    2.1775    2.3307 H   0  0  0  0  0  0  0  0  0  0  0  0
    0.3882    1.7670    3.7245 H   0  0  0  0  0  0  0  0  0  0  0  0
   -1.9689    0.1350    0.8298 N   0  0  0  0  0  0  0  0  0  0  0  0
   -2.5039   -0.1183   -0.4830 C   0  0  2  0  0  0  0  0  0  0  0  0
   -3.8388    0.6088   -0.6025 C   0  0  0  0  0  0  0  0  0  0  0  0
   -3.9906    1.6237   -1.2792 O   0  0  0  0  0  0  0  0  0  0  0  0
   -2.6413   -1.6124   -0.7579 C   0  0  0  0  0  0  0  0  0  0  0  0
   -3.6186   -2.1842    0.1041 O   0  0  0  0  0  0  0  0  0  0  0  0
   -2.5276    0.6894    1.4750 H   0  0  0  0  0  0  0  0  0  0  0  0
   -1.7959    0.3216   -1.1947 H   0  0  0  0  0  0  0  0  0  0  0  0
   -1.6930   -2.1324   -0.5878 H   0  0  0  0  0  0  0  0  0  0  0  0
   -2.9565   -1.7862   -1.7922 H   0  0  0  0  0  0  0  0  0  0  0  0
   -4.4542   -1.7266   -0.0803 H   0  0  0  0  0  0  0  0  0  0  0  0
   -4.8482   -0.0338    0.1004 N   0  0  0  0  0  0  0  0  0  0  0  0
   -6.2124    0.4407    0.1198 C   0  0  2  0  0  0  0  0  0  0  0  0
   -6.5134    1.0625   -1.2375 C   0  0  0  0  0  0  0  0  0  0  0  0
   -5.6383    1.4830   -1.9916 O   0  0  0  0  0  0  0  0  0  0  0  0
   -6.4326    1.4463    1.2391 C   0  0  0  0  0  0  0  0  0  0  0  0
   -4.6393   -0.8925    0.6010 H   0  0  0  0  0  0  0  0  0  0  0  0
   -6.8504   -0.4370    0.2696 H   0  0  0  0  0  0  0  0  0  0  0  0
   -5.8017    2.3327    1.1061 H   0  0  0  0  0  0  0  0  0  0  0  0
   -7.4739    1.7835    1.2704 H   0  0  0  0  0  0  0  0  0  0  0  0
   -6.1871    1.0066    2.2119 H   0  0  0  0  0  0  0  0  0  0  0  0
   -7.8765    1.1320   -1.4890 N   0  0  0  0  0  0  0  0  0  0  0  0
   -8.4173    1.6929   -2.7051 C   0  0  0  0  0  0  0  0  0  0  0  0
   -8.5293    0.7417   -0.8158 H   0  0  0  0  0  0  0  0  0  0  0  0
   -8.6323    2.7610   -2.5529 H   0  0  0  0  0  0  0  0  0  0  0  0
   -7.6857    1.5786   -3.5186 H   0  0  0  0  0  0  0  0  0  0  0  0
   -9.3459    1.1663   -2.9704 H   0  0  0  0  0  0  0  0  0  0  0  0
  1  3  1  0  0  0  0
  1  7  1  0  0  0  0
  1  2  2  0  0  0  0
 29 30  1  0  0  0  0
 30 38  1  0  0  0  0
 30 31  2  0  0  0  0
  8  9  1  0  0  0  0
  9 17  1  0  0  0  0
  9 10  2  0  0  0  0
 18 19  1  0  0  0  0
 19 28  1  0  0  0  0
 19 20  2  0  0  0  0
 29 32  1  0  0  0  0
  8 11  1  0  0  0  0
 38 39  1  0  0  0  0
 18 21  1  0  0  0  0
 21 22  1  0  0  0  0
 28 29  1  0  0  0  0
  7  8  1  0  0  0  0
 17 18  1  0  0  0  0
  3  4  1  0  0  0  0
  3  5  1  0  0  0  0
  3  6  1  0  0  0  0
 32 35  1  0  0  0  0
 32 36  1  0  0  0  0
 32 37  1  0  0  0  0
 11 14  1  0  0  0  0
 11 15  1  0  0  0  0
 11 16  1  0  0  0  0
 39 41  1  0  0  0  0
 39 42  1  0  0  0  0
 39 43  1  0  0  0  0
 21 25  1  0  0  0  0
 21 26  1  0  0  0  0
 29 34  1  0  0  0  0
  8 13  1  0  0  0  0
 18 24  1  0  0  0  0
 38 40  1  0  0  0  0
  7 12  1  0  0  0  0
 28 33  1  0  0  0  0
 17 23  1  0  0  0  0
 22 27  1  0  0  0  0
M  END
$$$$

  -OEChem-05262214473D

 43 42  0     1  0  0  0  0  0999 V2000
    0.7424   -1.0926    4.5665 C   0  0  0  0  0  0  0  0  0  0  0  0
    0.1409   -0.5364    5.4779 O   0  0  0  0  0  0  0  0  0  0  0  0
    1.7940   -2.1023    4.8871 C   0  0  0  0  0  0  0  0  0  0  0  0
    2.7935   -1.6502    4.9904 H   0  0  0  0  0  0  0  0  0  0  0  0
    1.6064   -2.6156    5.8438 H   0  0  0  0  0  0  0  0  0  0  0  0
    1.9156   -2.9078    4.1453 H   0  0  0  0  0  0  0  0  0  0  0  0
    0.5488   -0.8838    3.2109 N   0  0  0  0  0  0  0  0  0  0  0  0
   -0.4159    0.0446    2.6829 C   0  0  2  0  0  0  0  0  0  0  0  0
   -0.7551   -0.3867    1.2623 C   0  0  0  0  0  0  0  0  0  0  0  0
   -0.0106   -1.0851    0.5774 O   0  0  0  0  0  0  0  0  0  0  0  0
    0.1168    1.4689    2.7060 C   0  0  0  0  0  0  0  0  0  0  0  0
    1.1183   -1.4145    2.5542 H   0  0  0  0  0  0  0  0  0  0  0  0
   -1.3088   -0.0350    3.3125 H   0  0  0  0  0  0  0  0  0  0  0  0
    1.0116    1.5681    2.0808 H   0  0  0  0  0  0  0  0  0  0  0  0
   -0.6289    2.1775    2.3307 H   0  0  0  0  0  0  0  0  0  0  0  0
    0.3882    1.7670    3.7245 H   0  0  0  0  0  0  0  0  0  0  0  0
   -1.9689    0.1350    0.8298 N   0  0  0  0  0  0  0  0  0  0  0  0
   -2.5039   -0.1183   -0.4830 C   0  0  2  0  0  0  0  0  0  0  0  0
   -3.8388    0.6088   -0.6025 C   0  0  0  0  0  0  0  0  0  0  0  0
   -4.0684    1.4498   -1.4692 O   0  0  0  0  0  0  0  0  0  0  0  0
   -2.6413   -1.6124   -0.7579 C   0  0  0  0  0  0  0  0  0  0  0  0
   -3.6186   -2.1842    0.1041 O   0  0  0  0  0  0  0  0  0  0  0  0
   -2.5276    0.6894    1.4750 H   0  0  0  0  0  0  0  0  0  0  0  0
   -1.7959    0.3216   -1.1947 H   0  0  0  0  0  0  0  0  0  0  0  0
   -1.6930   -2.1324   -0.5878 H   0  0  0  0  0  0  0  0  0  0  0  0
   -2.9565   -1.7862   -1.7922 H   0  0  0  0  0  0  0  0  0  0  0  0
   -4.4542   -1.7266   -0.0803 H   0  0  0  0  0  0  0  0  0  0  0  0
   -4.7557    0.1763    0.3452 N   0  0  0  0  0  0  0  0  0  0  0  0
   -6.1037    0.6898    0.4210 C   0  0  2  0  0  0  0  0  0  0  0  0
   -6.5692    0.9998   -0.9956 C   0  0  0  0  0  0  0  0  0  0  0  0
   -5.7934    1.2090   -1.9259 O   0  0  0  0  0  0  0  0  0  0  0  0
   -6.1753    1.9287    1.3000 C   0  0  0  0  0  0  0  0  0  0  0  0
   -4.4907   -0.5542    0.9993 H   0  0  0  0  0  0  0  0  0  0  0  0
   -6.7231   -0.1091    0.8430 H   0  0  0  0  0  0  0  0  0  0  0  0
   -5.5608    2.7401    0.8931 H   0  0  0  0  0  0  0  0  0  0  0  0
   -7.2024    2.3000    1.3795 H   0  0  0  0  0  0  0  0  0  0  0  0
   -5.8121    1.7113    2.3103 H   0  0  0  0  0  0  0  0  0  0  0  0
   -7.9527    1.0578   -1.0893 N   0  0  0  0  0  0  0  0  0  0  0  0
   -8.6387    1.3486   -2.3266 C   0  0  0  0  0  0  0  0  0  0  0  0
   -8.5180    0.8520   -0.2709 H   0  0  0  0  0  0  0  0  0  0  0  0
   -8.8264    2.4302   -2.3969 H   0  0  0  0  0  0  0  0  0  0  0  0
   -8.0160    1.0287   -3.1750 H   0  0  0  0  0  0  0  0  0  0  0  0
   -9.5965    0.8081   -2.3504 H   0  0  0  0  0  0  0  0  0  0  0  0
  1  3  1  0  0  0  0
  1  7  1  0  0  0  0
  1  2  2  0  0  0  0
 29 30  1  0  0  0  0
 30 38  1  0  0  0  0
 30 31  2  0  0  0  0
  8  9  1  0  0  0  0
  9 17  1  0  0  0  0
  9 10  2  0  0  0  0
 18 19  1  0  0  0  0
 19 28  1  0  0  0  0
 19 20  2  0  0  0  0
 29 32  1  0  0  0  0
  8 11  1  0  0  0  0
 38 39  1  0  0  0  0
 18 21  1  0  0  0  0
 21 22  1  0  0  0  0
 28 29  1  0  0  0  0
  7  8  1  0  0  0  0
 17 18  1  0  0  0  0
  3  4  1  0  0  0  0
  3  5  1  0  0  0  0
  3  6  1  0  0  0  0
 32 35  1  0  0  0  0
 32 36  1  0  0  0  0
 32 37  1  0  0  0  0
 11 14  1  0  0  0  0
 11 15  1  0  0  0  0
 11 16  1  0  0  0  0
 39 41  1  0  0  0  0
 39 42  1  0  0  0  0
 39 43  1  0  0  0  0
 21 25  1  0  0  0  0
 21 26  1  0  0  0  0
 29 34  1  0  0  0  0
  8 13  1  0  0  0  0
 18 24  1  0  0  0  0
 38 40  1  0  0  0  0
  7 12  1  0  0  0  0
 28 33  1  0  0  0  0
 17 23  1  0  0  0  0
 22 27  1  0  0  0  0
M  END
$$$$

  -OEChem-05262214473D

 43 42  0     1  0  0  0  0  0999 V2000
    0.7424   -1.0926    4.5665 C   0  0  0  0  0  0  0  0  0  0  0  0
    0.1409   -0.5364    5.4779 O   0  0  0  0  0  0  0  0  0  0  0  0
    1.7940   -2.1023    4.8871 C   0  0  0  0  0  0  0  0  0  0  0  0
    2.7935   -1.6502    4.9904 H   0  0  0  0  0  0  0  0  0  0  0  0
    1.6064   -2.6156    5.8438 H   0  0  0  0  0  0  0  0  0  0  0  0
    1.9156   -2.9078    4.1453 H   0  0  0  0  0  0  0  0  0  0  0  0
    0.5488   -0.8838    3.2109 N   0  0  0  0  0  0  0  0  0  0  0  0
   -0.4159    0.0446    2.6829 C   0  0  2  0  0  0  0  0  0  0  0  0
   -0.7551   -0.3867    1.2623 C   0  0  0  0  0  0  0  0  0  0  0  0
   -0.0106   -1.0851    0.5774 O   0  0  0  0  0  0  0  0  0  0  0  0
    0.1168    1.4689    2.7060 C   0  0  0  0  0  0  0  0  0  0  0  0
    1.1183   -1.4145    2.5542 H   0  0  0  0  0  0  0  0  0  0  0  0
   -1.3088   -0.0350    3.3125 H   0  0  0  0  0  0  0  0  0  0  0  0
    1.0116    1.5681    2.0808 H   0  0  0  0  0  0  0  0  0  0  0  0
   -0.6289    2.1775    2.3307 H   0  0  0  0  0  0  0  0  0  0  0  0
    0.3882    1.7670    3.7245 H   0  0  0  0  0  0  0  0  0  0  0  0
   -1.9689    0.1350    0.8298 N   0  0  0  0  0  0  0  0  0  0  0  0
   -2.5039   -0.1183   -0.4830 C   0  0  2  0  0  0  0  0  0  0  0  0
   -3.8388    0.6088   -0.6025 C   0  0  0  0  0  0  0  0  0  0  0  0
   -4.1704    1.2403   -1.6037 O   0  0  0  0  0  0  0  0  0  0  0  0
   -2.6413   -1.6124   -0.7579 C   0  0  0  0  0  0  0  0  0  0  0  0
   -3.6186   -2.1842    0.1041 O   0  0  0  0  0  0  0  0  0  0  0  0
   -2.5276    0.6894    1.4750 H   0  0  0  0  0  0  0  0  0  0  0  0
   -1.7959    0.3216   -1.1947 H   0  0  0  0  0  0  0  0  0  0  0  0
   -1.6930   -2.1324   -0.5878 H   0  0  0  0  0  0  0  0  0  0  0  0
   -2.9565   -1.7862   -1.7922 H   0  0  0  0  0  0  0  0  0  0  0  0
   -4.4542   -1.7266   -0.0803 H   0  0  0  0  0  0  0  0  0  0  0  0
   -4.6318    0.4329    0.5227 N   0  0  0  0  0  0  0  0  0  0  0  0
   -5.9564    0.9964    0.6421 C   0  0  2  0  0  0  0  0  0  0  0  0
   -6.5945    0.9951   -0.7408 C   0  0  0  0  0  0  0  0  0  0  0  0
   -5.9407    0.9625   -1.7812 O   0  0  0  0  0  0  0  0  0  0  0  0
   -5.9094    2.4032    1.2177 C   0  0  0  0  0  0  0  0  0  0  0  0
   -4.2911   -0.1402    1.2890 H   0  0  0  0  0  0  0  0  0  0  0  0
   -6.5227    0.3350    1.3069 H   0  0  0  0  0  0  0  0  0  0  0  0
   -5.3461    3.0803    0.5653 H   0  0  0  0  0  0  0  0  0  0  0  0
   -6.9161    2.8181    1.3343 H   0  0  0  0  0  0  0  0  0  0  0  0
   -5.4234    2.4067    2.1993 H   0  0  0  0  0  0  0  0  0  0  0  0
   -7.9784    1.0782   -0.6770 N   0  0  0  0  0  0  0  0  0  0  0  0
   -8.8129    1.1063   -1.8556 C   0  0  0  0  0  0  0  0  0  0  0  0
   -8.4376    1.0817    0.2290 H   0  0  0  0  0  0  0  0  0  0  0  0
   -9.0013    2.1501   -2.1472 H   0  0  0  0  0  0  0  0  0  0  0  0
   -8.3037    0.5822   -2.6778 H   0  0  0  0  0  0  0  0  0  0  0  0
   -9.7693    0.6077   -1.6395 H   0  0  0  0  0  0  0  0  0  0  0  0
  1  3  1  0  0  0  0
  1  7  1  0  0  0  0
  1  2  2  0  0  0  0
 29 30  1  0  0  0  0
 30 38  1  0  0  0  0
 30 31  2  0  0  0  0
  8  9  1  0  0  0  0
  9 17  1  0  0  0  0
  9 10  2  0  0  0  0
 18 19  1  0  0  0  0
 19 28  1  0  0  0  0
 19 20  2  0  0  0  0
 29 32  1  0  0  0  0
  8 11  1  0  0  0  0
 38 39  1  0  0  0  0
 18 21  1  0  0  0  0
 21 22  1  0  0  0  0
 28 29  1  0  0  0  0
  7  8  1  0  0  0  0
 17 18  1  0  0  0  0
  3  4  1  0  0  0  0
  3  5  1  0  0  0  0
  3  6  1  0  0  0  0
 32 35  1  0  0  0  0
 32 36  1  0  0  0  0
 32 37  1  0  0  0  0
 11 14  1  0  0  0  0
 11 15  1  0  0  0  0
 11 16  1  0  0  0  0
 39 41  1  0  0  0  0
 39 42  1  0  0  0  0
 39 43  1  0  0  0  0
 21 25  1  0  0  0  0
 21 26  1  0  0  0  0
 29 34  1  0  0  0  0
  8 13  1  0  0  0  0
 18 24  1  0  0  0  0
 38 40  1  0  0  0  0
  7 12  1  0  0  0  0
 28 33  1  0  0  0  0
 17 23  1  0  0  0  0
 22 27  1  0  0  0  0
M  END
$$$$

  -OEChem-05262214473D

 43 42  0     1  0  0  0  0  0999 V2000
    0.7424   -1.0926    4.5665 C   0  0  0  0  0  0  0  0  0  0  0  0
    0.1409   -0.5364    5.4779 O   0  0  0  0  0  0  0  0  0  0  0  0
    1.7940   -2.1023    4.8871 C   0  0  0  0  0  0  0  0  0  0  0  0
    2.7935   -1.6502    4.9904 H   0  0  0  0  0  0  0  0  0  0  0  0
    1.6064   -2.6156    5.8438 H   0  0  0  0  0  0  0  0  0  0  0  0
    1.9156   -2.9078    4.1453 H   0  0  0  0  0  0  0  0  0  0  0  0
    0.5488   -0.8838    3.2109 N   0  0  0  0  0  0  0  0  0  0  0  0
   -0.4159    0.0446    2.6829 C   0  0  2  0  0  0  0  0  0  0  0  0
   -0.7551   -0.3867    1.2623 C   0  0  0  0  0  0  0  0  0  0  0  0
   -0.0106   -1.0851    0.5774 O   0  0  0  0  0  0  0  0  0  0  0  0
    0.1168    1.4689    2.7060 C   0  0  0  0  0  0  0  0  0  0  0  0
    1.1183   -1.4145    2.5542 H   0  0  0  0  0  0  0  0  0  0  0  0
   -1.3088   -0.0350    3.3125 H   0  0  0  0  0  0  0  0  0  0  0  0
    1.0116    1.5681    2.0808 H   0  0  0  0  0  0  0  0  0  0  0  0
   -0.6289    2.1775    2.3307 H   0  0  0  0  0  0  0  0  0  0  0  0
    0.3882    1.7670    3.7245 H   0  0  0  0  0  0  0  0  0  0  0  0
   -1.9689    0.1350    0.8298 N   0  0  0  0  0  0  0  0  0  0  0  0
   -2.5039   -0.1183   -0.4830 C   0  0  2  0  0  0  0  0  0  0  0  0
   -3.8388    0.6088   -0.6025 C   0  0  0  0  0  0  0  0  0  0  0  0
   -4.2899    1.0095   -1.6735 O   0  0  0  0  0  0  0  0  0  0  0  0
   -2.6413   -1.6124   -0.7579 C   0  0  0  0  0  0  0  0  0  0  0  0
   -3.6186   -2.1842    0.1041 O   0  0  0  0  0  0  0  0  0  0  0  0
   -2.5276    0.6894    1.4750 H   0  0  0  0  0  0  0  0  0  0  0  0
   -1.7959    0.3216   -1.1947 H   0  0  0  0  0  0  0  0  0  0  0  0
   -1.6930   -2.1324   -0.5878 H   0  0  0  0  0  0  0  0  0  0  0  0
   -2.9565   -1.7862   -1.7922 H   0  0  0  0  0  0  0  0  0  0  0  0
   -4.4542   -1.7266   -0.0803 H   0  0  0  0  0  0  0  0  0  0  0  0
   -4.4850    0.7184    0.6207 N   0  0  0  0  0  0  0  0  0  0  0  0
   -5.7807    1.3397    0.7681 C   0  0  2  0  0  0  0  0  0  0  0  0
   -6.5877    1.0489   -0.4904 C   0  0  0  0  0  0  0  0  0  0  0  0
   -6.0700    0.7601   -1.5674 O   0  0  0  0  0  0  0  0  0  0  0  0
   -5.6532    2.8376    0.9979 C   0  0  0  0  0  0  0  0  0  0  0  0
   -4.0541    0.3213    1.4503 H   0  0  0  0  0  0  0  0  0  0  0  0
   -6.2629    0.8651    1.6296 H   0  0  0  0  0  0  0  0  0  0  0  0
   -5.1723    3.3304    0.1451 H   0  0  0  0  0  0  0  0  0  0  0  0
   -6.6347    3.3025    1.1379 H   0  0  0  0  0  0  0  0  0  0  0  0
   -5.0476    3.0453    1.8867 H   0  0  0  0  0  0  0  0  0  0  0  0
   -7.9520    1.1919   -0.2802 N   0  0  0  0  0  0  0  0  0  0  0  0
   -8.9279    0.9825   -1.3242 C   0  0  0  0  0  0  0  0  0  0  0  0
   -8.2936    1.4153    0.6499 H   0  0  0  0  0  0  0  0  0  0  0  0
   -9.1452    1.9396   -1.8210 H   0  0  0  0  0  0  0  0  0  0  0  0
   -8.5293    0.2693   -2.0608 H   0  0  0  0  0  0  0  0  0  0  0  0
   -9.8525    0.5787   -0.8860 H   0  0  0  0  0  0  0  0  0  0  0  0
  1  3  1  0  0  0  0
  1  7  1  0  0  0  0
  1  2  2  0  0  0  0
 29 30  1  0  0  0  0
 30 38  1  0  0  0  0
 30 31  2  0  0  0  0
  8  9  1  0  0  0  0
  9 17  1  0  0  0  0
  9 10  2  0  0  0  0
 18 19  1  0  0  0  0
 19 28  1  0  0  0  0
 19 20  2  0  0  0  0
 29 32  1  0  0  0  0
  8 11  1  0  0  0  0
 38 39  1  0  0  0  0
 18 21  1  0  0  0  0
 21 22  1  0  0  0  0
 28 29  1  0  0  0  0
  7  8  1  0  0  0  0
 17 18  1  0  0  0  0
  3  4  1  0  0  0  0
  3  5  1  0  0  0  0
  3  6  1  0  0  0  0
 32 35  1  0  0  0  0
 32 36  1  0  0  0  0
 32 37  1  0  0  0  0
 11 14  1  0  0  0  0
 11 15  1  0  0  0  0
 11 16  1  0  0  0  0
 39 41  1  0  0  0  0
 39 42  1  0  0  0  0
 39 43  1  0  0  0  0
 21 25  1  0  0  0  0
 21 26  1  0  0  0  0
 29 34  1  0  0  0  0
  8 13  1  0  0  0  0
 18 24  1  0  0  0  0
 38 40  1  0  0  0  0
  7 12  1  0  0  0  0
 28 33  1  0  0  0  0
 17 23  1  0  0  0  0
 22 27  1  0  0  0  0
M  END
$$$$

  -OEChem-05262214473D

 43 42  0     1  0  0  0  0  0999 V2000
    0.7424   -1.0926    4.5665 C   0  0  0  0  0  0  0  0  0  0  0  0
    0.1409   -0.5364    5.4779 O   0  0  0  0  0  0  0  0  0  0  0  0
    1.7940   -2.1023    4.8871 C   0  0  0  0  0  0  0  0  0  0  0  0
    2.7935   -1.6502    4.9904 H   0  0  0  0  0  0  0  0  0  0  0  0
    1.6064   -2.6156    5.8438 H   0  0  0  0  0  0  0  0  0  0  0  0
    1.9156   -2.9078    4.1453 H   0  0  0  0  0  0  0  0  0  0  0  0
    0.5488   -0.8838    3.2109 N   0  0  0  0  0  0  0  0  0  0  0  0
   -0.4159    0.0446    2.6829 C   0  0  2  0  0  0  0  0  0  0  0  0
   -0.7551   -0.3867    1.2623 C   0  0  0  0  0  0  0  0  0  0  0  0
   -0.0106   -1.0851    0.5774 O   0  0  0  0  0  0  0  0  0  0  0  0
    0.1168    1.4689    2.7060 C   0  0  0  0  0  0  0  0  0  0  0  0
    1.1183   -1.4145    2.5542 H   0  0  0  0  0  0  0  0  0  0  0  0
   -1.3088   -0.0350    3.3125 H   0  0  0  0  0  0  0  0  0  0  0  0
    1.0116    1.5681    2.0808 H   0  0  0  0  0  0  0  0  0  0  0  0
   -0.6289    2.1775    2.3307 H   0  0  0  0  0  0  0  0  0  0  0  0
    0.3882    1.7670    3.7245 H   0  0  0  0  0  0  0  0  0  0  0  0
   -1.9689    0.1350    0.8298 N   0  0  0  0  0  0  0  0  0  0  0  0
   -2.5039   -0.1183   -0.4830 C   0  0  2  0  0  0  0  0  0  0  0  0
   -3.8388    0.6088   -0.6025 C   0  0  0  0  0  0  0  0  0  0  0  0
   -4.4186    0.7732   -1.6739 O   0  0  0  0  0  0  0  0  0  0  0  0
   -2.6413   -1.6124   -0.7579 C   0  0  0  0  0  0  0  0  0  0  0  0
   -3.6186   -2.1842    0.1041 O   0  0  0  0  0  0  0  0  0  0  0  0
   -2.5276    0.6894    1.4750 H   0  0  0  0  0  0  0  0  0  0  0  0
   -1.7959    0.3216   -1.1947 H   0  0  0  0  0  0  0  0  0  0  0  0
   -1.6930   -2.1324   -0.5878 H   0  0  0  0  0  0  0  0  0  0  0  0
   -2.9565   -1.7862   -1.7922 H   0  0  0  0  0  0  0  0  0  0  0  0
   -4.4542   -1.7266   -0.0803 H   0  0  0  0  0  0  0  0  0  0  0  0
   -4.3254    1.0134    0.6325 N   0  0  0  0  0  0  0  0  0  0  0  0
   -5.5885    1.6963    0.7902 C   0  0  2  0  0  0  0  0  0  0  0  0
   -6.5490    1.1574   -0.2617 C   0  0  0  0  0  0  0  0  0  0  0  0
   -6.1727    0.6157   -1.2990 O   0  0  0  0  0  0  0  0  0  0  0  0
   -5.4240    3.2021    0.6555 C   0  0  0  0  0  0  0  0  0  0  0  0
   -3.7960    0.7989    1.4724 H   0  0  0  0  0  0  0  0  0  0  0  0
   -5.9614    1.4449    1.7891 H   0  0  0  0  0  0  0  0  0  0  0  0
   -5.0512    3.4732   -0.3389 H   0  0  0  0  0  0  0  0  0  0  0  0
   -6.3773    3.7202    0.8037 H   0  0  0  0  0  0  0  0  0  0  0  0
   -4.7102    3.5837    1.3935 H   0  0  0  0  0  0  0  0  0  0  0  0
   -7.8752    1.3910    0.0740 N   0  0  0  0  0  0  0  0  0  0  0  0
   -8.9759    0.9856   -0.7687 C   0  0  0  0  0  0  0  0  0  0  0  0
   -8.0958    1.8300    0.9631 H   0  0  0  0  0  0  0  0  0  0  0  0
   -9.2481    1.8131   -1.4405 H   0  0  0  0  0  0  0  0  0  0  0  0
   -8.6774    0.1115   -1.3661 H   0  0  0  0  0  0  0  0  0  0  0  0
   -9.8405    0.7231   -0.1414 H   0  0  0  0  0  0  0  0  0  0  0  0
  1  3  1  0  0  0  0
  1  7  1  0  0  0  0
  1  2  2  0  0  0  0
 29 30  1  0  0  0  0
 30 38  1  0  0  0  0
 30 31  2  0  0  0  0
  8  9  1  0  0  0  0
  9 17  1  0  0  0  0
  9 10  2  0  0  0  0
 18 19  1  0  0  0  0
 19 28  1  0  0  0  0
 19 20  2  0  0  0  0
 29 32  1  0  0  0  0
  8 11  1  0  0  0  0
 38 39  1  0  0  0  0
 18 21  1  0  0  0  0
 21 22  1  0  0  0  0
 28 29  1  0  0  0  0
  7  8  1  0  0  0  0
 17 18  1  0  0  0  0
  3  4  1  0  0  0  0
  3  5  1  0  0  0  0
  3  6  1  0  0  0  0
 32 35  1  0  0  0  0
 32 36  1  0  0  0  0
 32 37  1  0  0  0  0
 11 14  1  0  0  0  0
 11 15  1  0  0  0  0
 11 16  1  0  0  0  0
 39 41  1  0  0  0  0
 39 42  1  0  0  0  0
 39 43  1  0  0  0  0
 21 25  1  0  0  0  0
 21 26  1  0  0  0  0
 29 34  1  0  0  0  0
  8 13  1  0  0  0  0
 18 24  1  0  0  0  0
 38 40  1  0  0  0  0
  7 12  1  0  0  0  0
 28 33  1  0  0  0  0
 17 23  1  0  0  0  0
 22 27  1  0  0  0  0
M  END
$$$$

  -OEChem-05262214473D

 43 42  0     1  0  0  0  0  0999 V2000
    0.7424   -1.0926    4.5665 C   0  0  0  0  0  0  0  0  0  0  0  0
    0.1409   -0.5364    5.4779 O   0  0  0  0  0  0  0  0  0  0  0  0
    1.7940   -2.1023    4.8871 C   0  0  0  0  0  0  0  0  0  0  0  0
    2.7935   -1.6502    4.9904 H   0  0  0  0  0  0  0  0  0  0  0  0
    1.6064   -2.6156    5.8438 H   0  0  0  0  0  0  0  0  0  0  0  0
    1.9156   -2.9078    4.1453 H   0  0  0  0  0  0  0  0  0  0  0  0
    0.5488   -0.8838    3.2109 N   0  0  0  0  0  0  0  0  0  0  0  0
   -0.4159    0.0446    2.6829 C   0  0  2  0  0  0  0  0  0  0  0  0
   -0.7551   -0.3867    1.2623 C   0  0  0  0  0  0  0  0  0  0  0  0
   -0.0106   -1.0851    0.5774 O   0  0  0  0  0  0  0  0  0  0  0  0
    0.1168    1.4689    2.7060 C   0  0  0  0  0  0  0  0  0  0  0  0
    1.1183   -1.4145    2.5542 H   0  0  0  0  0  0  0  0  0  0  0  0
   -1.3088   -0.0350    3.3125 H   0  0  0  0  0  0  0  0  0  0  0  0
    1.0116    1.5681    2.0808 H   0  0  0  0  0  0  0  0  0  0  0  0
   -0.6289    2.1775    2.3307 H   0  0  0  0  0  0  0  0  0  0  0  0
    0.3882    1.7670    3.7245 H   0  0  0  0  0  0  0  0  0  0  0  0
   -1.9689    0.1350    0.8298 N   0  0  0  0  0  0  0  0  0  0  0  0
   -2.5039   -0.1183   -0.4830 C   0  0  2  0  0  0  0  0  0  0  0  0
   -3.8388    0.6088   -0.6025 C   0  0  0  0  0  0  0  0  0  0  0  0
   -4.5477    0.5475   -1.6049 O   0  0  0  0  0  0  0  0  0  0  0  0
   -2.6413   -1.6124   -0.7579 C   0  0  0  0  0  0  0  0  0  0  0  0
   -3.6186   -2.1842    0.1041 O   0  0  0  0  0  0  0  0  0  0  0  0
   -2.5276    0.6894    1.4750 H   0  0  0  0  0  0  0  0  0  0  0  0
   -1.7959    0.3216   -1.1947 H   0  0  0  0  0  0  0  0  0  0  0  0
   -1.6930   -2.1324   -0.5878 H   0  0  0  0  0  0  0  0  0  0  0  0
   -2.9565   -1.7862   -1.7922 H   0  0  0  0  0  0  0  0  0  0  0  0
   -4.4542   -1.7266   -0.0803 H   0  0  0  0  0  0  0  0  0  0  0  0
   -4.1638    1.2978    0.5574 N   0  0  0  0  0  0  0  0  0  0  0  0
   -5.3928    2.0418    0.7071 C   0  0  2  0  0  0  0  0  0  0  0  0
   -6.4813    1.3132   -0.0700 C   0  0  0  0  0  0  0  0  0  0  0  0
   -6.2417    0.5391   -0.9944 O   0  0  0  0  0  0  0  0  0  0  0  0
   -5.2375    3.4720    0.2140 C   0  0  0  0  0  0  0  0  0  0  0  0
   -3.5343    1.2599    1.3536 H   0  0  0  0  0  0  0  0  0  0  0  0
   -5.6387    2.0350    1.7746 H   0  0  0  0  0  0  0  0  0  0  0  0
   -4.9910    3.4990   -0.8537 H   0  0  0  0  0  0  0  0  0  0  0  0
   -6.1614    4.0427    0.3544 H   0  0  0  0  0  0  0  0  0  0  0  0
   -4.4342    3.9852    0.7536 H   0  0  0  0  0  0  0  0  0  0  0  0
   -7.7533    1.6622    0.3616 N   0  0  0  0  0  0  0  0  0  0  0  0
   -8.9536    1.1155   -0.2269 C   0  0  0  0  0  0  0  0  0  0  0  0
   -7.8576    2.2975    1.1473 H   0  0  0  0  0  0  0  0  0  0  0  0
   -9.3032    1.7792   -1.0315 H   0  0  0  0  0  0  0  0  0  0  0  0
   -8.7380    0.1195   -0.6411 H   0  0  0  0  0  0  0  0  0  0  0  0
   -9.7341    1.0311    0.5436 H   0  0  0  0  0  0  0  0  0  0  0  0
  1  3  1  0  0  0  0
  1  7  1  0  0  0  0
  1  2  2  0  0  0  0
 29 30  1  0  0  0  0
 30 38  1  0  0  0  0
 30 31  2  0  0  0  0
  8  9  1  0  0  0  0
  9 17  1  0  0  0  0
  9 10  2  0  0  0  0
 18 19  1  0  0  0  0
 19 28  1  0  0  0  0
 19 20  2  0  0  0  0
 29 32  1  0  0  0  0
  8 11  1  0  0  0  0
 38 39  1  0  0  0  0
 18 21  1  0  0  0  0
 21 22  1  0  0  0  0
 28 29  1  0  0  0  0
  7  8  1  0  0  0  0
 17 18  1  0  0  0  0
  3  4  1  0  0  0  0
  3  5  1  0  0  0  0
  3  6  1  0  0  0  0
 32 35  1  0  0  0  0
 32 36  1  0  0  0  0
 32 37  1  0  0  0  0
 11 14  1  0  0  0  0
 11 15  1  0  0  0  0
 11 16  1  0  0  0  0
 39 41  1  0  0  0  0
 39 42  1  0  0  0  0
 39 43  1  0  0  0  0
 21 25  1  0  0  0  0
 21 26  1  0  0  0  0
 29 34  1  0  0  0  0
  8 13  1  0  0  0  0
 18 24  1  0  0  0  0
 38 40  1  0  0  0  0
  7 12  1  0  0  0  0
 28 33  1  0  0  0  0
 17 23  1  0  0  0  0
 22 27  1  0  0  0  0
M  END
$$$$

  -OEChem-05262214473D

 43 42  0     1  0  0  0  0  0999 V2000
    0.7424   -1.0926    4.5665 C   0  0  0  0  0  0  0  0  0  0  0  0
    0.1409   -0.5364    5.4779 O   0  0  0  0  0  0  0  0  0  0  0  0
    1.7940   -2.1023    4.8871 C   0  0  0  0  0  0  0  0  0  0  0  0
    2.7935   -1.6502    4.9904 H   0  0  0  0  0  0  0  0  0  0  0  0
    1.6064   -2.6156    5.8438 H   0  0  0  0  0  0  0  0  0  0  0  0
    1.9156   -2.9078    4.1453 H   0  0  0  0  0  0  0  0  0  0  0  0
    0.5488   -0.8838    3.2109 N   0  0  0  0  0  0  0  0  0  0  0  0
   -0.4159    0.0446    2.6829 C   0  0  2  0  0  0  0  0  0  0  0  0
   -0.7551   -0.3867    1.2623 C   0  0  0  0  0  0  0  0  0  0  0  0
   -0.0106   -1.0851    0.5774 O   0  0  0  0  0  0  0  0  0  0  0  0
    0.1168    1.4689    2.7060 C   0  0  0  0  0  0  0  0  0  0  0  0
    1.1183   -1.4145    2.5542 H   0  0  0  0  0  0  0  0  0  0  0  0
   -1.3088   -0.0350    3.3125 H   0  0  0  0  0  0  0  0  0  0  0  0
    1.0116    1.5681    2.0808 H   0  0  0  0  0  0  0  0  0  0  0  0
   -0.6289    2.1775    2.3307 H   0  0  0  0  0  0  0  0  0  0  0  0
    0.3882    1.7670    3.7245 H   0  0  0  0  0  0  0  0  0  0  0  0
   -1.9689    0.1350    0.8298 N   0  0  0  0  0  0  0  0  0  0  0  0
   -2.5039   -0.1183   -0.4830 C   0  0  2  0  0  0  0  0  0  0  0  0
   -3.8388    0.6088   -0.6025 C   0  0  0  0  0  0  0  0  0  0  0  0
   -4.6685    0.3477   -1.4711 O   0  0  0  0  0  0  0  0  0  0  0  0
   -2.6413   -1.6124   -0.7579 C   0  0  0  0  0  0  0  0  0  0  0  0
   -3.6186   -2.1842    0.1041 O   0  0  0  0  0  0  0  0  0  0  0  0
   -2.5276    0.6894    1.4750 H   0  0  0  0  0  0  0  0  0  0  0  0
   -1.7959    0.3216   -1.1947 H   0  0  0  0  0  0  0  0  0  0  0  0
   -1.6930   -2.1324   -0.5878 H   0  0  0  0  0  0  0  0  0  0  0  0
   -2.9565   -1.7862   -1.7922 H   0  0  0  0  0  0  0  0  0  0  0  0
   -4.4542   -1.7266   -0.0803 H   0  0  0  0  0  0  0  0  0  0  0  0
   -4.0112    1.5522    0.4005 N   0  0  0  0  0  0  0  0  0  0  0  0
   -5.2071    2.3528    0.5244 C   0  0  2  0  0  0  0  0  0  0  0  0
   -6.3890    1.5058    0.0714 C   0  0  0  0  0  0  0  0  0  0  0  0
   -6.2723    0.5356   -0.6743 O   0  0  0  0  0  0  0  0  0  0  0  0
   -5.1064    3.6288   -0.2967 C   0  0  0  0  0  0  0  0  0  0  0  0
   -3.2868    1.6730    1.1022 H   0  0  0  0  0  0  0  0  0  0  0  0
   -5.3168    2.5951    1.5871 H   0  0  0  0  0  0  0  0  0  0  0  0
   -4.9960    3.4061   -1.3643 H   0  0  0  0  0  0  0  0  0  0  0  0
   -6.0018    4.2480   -0.1792 H   0  0  0  0  0  0  0  0  0  0  0  0
   -4.2385    4.2224    0.0104 H   0  0  0  0  0  0  0  0  0  0  0  0
   -7.5945    1.9867    0.5629 N   0  0  0  0  0  0  0  0  0  0  0  0
   -8.8626    1.3633    0.2642 C   0  0  0  0  0  0  0  0  0  0  0  0
   -7.5954    2.7859    1.1899 H   0  0  0  0  0  0  0  0  0  0  0  0
   -9.3066    1.8402   -0.6220 H   0  0  0  0  0  0  0  0  0  0  0  0
   -8.7068    0.2927    0.0649 H   0  0  0  0  0  0  0  0  0  0  0  0
   -9.5405    1.4816    1.1224 H   0  0  0  0  0  0  0  0  0  0  0  0
  1  3  1  0  0  0  0
  1  7  1  0  0  0  0
  1  2  2  0  0  0  0
 29 30  1  0  0  0  0
 30 38  1  0  0  0  0
 30 31  2  0  0  0  0
  8  9  1  0  0  0  0
  9 17  1  0  0  0  0
  9 10  2  0  0  0  0
 18 19  1  0  0  0  0
 19 28  1  0  0  0  0
 19 20  2  0  0  0  0
 29 32  1  0  0  0  0
  8 11  1  0  0  0  0
 38 39  1  0  0  0  0
 18 21  1  0  0  0  0
 21 22  1  0  0  0  0
 28 29  1  0  0  0  0
  7  8  1  0  0  0  0
 17 18  1  0  0  0  0
  3  4  1  0  0  0  0
  3  5  1  0  0  0  0
  3  6  1  0  0  0  0
 32 35  1  0  0  0  0
 32 36  1  0  0  0  0
 32 37  1  0  0  0  0
 11 14  1  0  0  0  0
 11 15  1  0  0  0  0
 11 16  1  0  0  0  0
 39 41  1  0  0  0  0
 39 42  1  0  0  0  0
 39 43  1  0  0  0  0
 21 25  1  0  0  0  0
 21 26  1  0  0  0  0
 29 34  1  0  0  0  0
  8 13  1  0  0  0  0
 18 24  1  0  0  0  0
 38 40  1  0  0  0  0
  7 12  1  0  0  0  0
 28 33  1  0  0  0  0
 17 23  1  0  0  0  0
 22 27  1  0  0  0  0
M  END
$$$$

  -OEChem-05262214473D

 43 42  0     1  0  0  0  0  0999 V2000
    0.7424   -1.0926    4.5665 C   0  0  0  0  0  0  0  0  0  0  0  0
    0.1409   -0.5364    5.4779 O   0  0  0  0  0  0  0  0  0  0  0  0
    1.7940   -2.1023    4.8871 C   0  0  0  0  0  0  0  0  0  0  0  0
    2.7935   -1.6502    4.9904 H   0  0  0  0  0  0  0  0  0  0  0  0
    1.6064   -2.6156    5.8438 H   0  0  0  0  0  0  0  0  0  0  0  0
    1.9156   -2.9078    4.1453 H   0  0  0  0  0  0  0  0  0  0  0  0
    0.5488   -0.8838    3.2109 N   0  0  0  0  0  0  0  0  0  0  0  0
   -0.4159    0.0446    2.6829 C   0  0  2  0  0  0  0  0  0  0  0  0
   -0.7551   -0.3867    1.2623 C   0  0  0  0  0  0  0  0  0  0  0  0
   -0.0106   -1.0851    0.5774 O   0  0  0  0  0  0  0  0  0  0  0  0
    0.1168    1.4689    2.7060 C   0  0  0  0  0  0  0  0  0  0  0  0
    1.1183   -1.4145    2.5542 H   0  0  0  0  0  0  0  0  0  0  0  0
   -1.3088   -0.0350    3.3125 H   0  0  0  0  0  0  0  0  0  0  0  0
    1.0116    1.5681    2.0808 H   0  0  0  0  0  0  0  0  0  0  0  0
   -0.6289    2.1775    2.3307 H   0  0  0  0  0  0  0  0  0  0  0  0
    0.3882    1.7670    3.7245 H   0  0  0  0  0  0  0  0  0  0  0  0
   -1.9689    0.1350    0.8298 N   0  0  0  0  0  0  0  0  0  0  0  0
   -2.5039   -0.1183   -0.4830 C   0  0  2  0  0  0  0  0  0  0  0  0
   -3.8388    0.6088   -0.6025 C   0  0  0  0  0  0  0  0  0  0  0  0
   -4.7727    0.1874   -1.2818 O   0  0  0  0  0  0  0  0  0  0  0  0
   -2.6413   -1.6124   -0.7579 C   0  0  0  0  0  0  0  0  0  0  0  0
   -3.6186   -2.1842    0.1041 O   0  0  0  0  0  0  0  0  0  0  0  0
   -2.5276    0.6894    1.4750 H   0  0  0  0  0  0  0  0  0  0  0  0
   -1.7959    0.3216   -1.1947 H   0  0  0  0  0  0  0  0  0  0  0  0
   -1.6930   -2.1324   -0.5878 H   0  0  0  0  0  0  0  0  0  0  0  0
   -2.9565   -1.7862   -1.7922 H   0  0  0  0  0  0  0  0  0  0  0  0
   -4.4542   -1.7266   -0.0803 H   0  0  0  0  0  0  0  0  0  0  0  0
   -3.8779    1.7593    0.1724 N   0  0  0  0  0  0  0  0  0  0  0  0
   -5.0440    2.6080    0.2545 C   0  0  2  0  0  0  0  0  0  0  0  0
   -6.2786    1.7220    0.1529 C   0  0  0  0  0  0  0  0  0  0  0  0
   -6.2624    0.6053   -0.3605 O   0  0  0  0  0  0  0  0  0  0  0  0
   -5.0395    3.6619   -0.8418 C   0  0  0  0  0  0  0  0  0  0  0  0
   -3.0703    2.0100    0.7351 H   0  0  0  0  0  0  0  0  0  0  0  0
   -5.0176    3.0872    1.2393 H   0  0  0  0  0  0  0  0  0  0  0  0
   -5.0656    3.2007   -1.8358 H   0  0  0  0  0  0  0  0  0  0  0  0
   -5.9093    4.3222   -0.7609 H   0  0  0  0  0  0  0  0  0  0  0  0
   -4.1364    4.2791   -0.7854 H   0  0  0  0  0  0  0  0  0  0  0  0
   -7.4098    2.3426    0.6642 N   0  0  0  0  0  0  0  0  0  0  0  0
   -8.7091    1.7120    0.6712 C   0  0  0  0  0  0  0  0  0  0  0  0
   -7.3269    3.2621    1.0879 H   0  0  0  0  0  0  0  0  0  0  0  0
   -9.2581    1.9921   -0.2399 H   0  0  0  0  0  0  0  0  0  0  0  0
   -8.5861    0.6194    0.7038 H   0  0  0  0  0  0  0  0  0  0  0  0
   -9.2729    2.0440    1.5555 H   0  0  0  0  0  0  0  0  0  0  0  0
  1  3  1  0  0  0  0
  1  7  1  0  0  0  0
  1  2  2  0  0  0  0
 29 30  1  0  0  0  0
 30 38  1  0  0  0  0
 30 31  2  0  0  0  0
  8  9  1  0  0  0  0
  9 17  1  0  0  0  0
  9 10  2  0  0  0  0
 18 19  1  0  0  0  0
 19 28  1  0  0  0  0
 19 20  2  0  0  0  0
 29 32  1  0  0  0  0
  8 11  1  0  0  0  0
 38 39  1  0  0  0  0
 18 21  1  0  0  0  0
 21 22  1  0  0  0  0
 28 29  1  0  0  0  0
  7  8  1  0  0  0  0
 17 18  1  0  0  0  0
  3  4  1  0  0  0  0
  3  5  1  0  0  0  0
  3  6  1  0  0  0  0
 32 35  1  0  0  0  0
 32 36  1  0  0  0  0
 32 37  1  0  0  0  0
 11 14  1  0  0  0  0
 11 15  1  0  0  0  0
 11 16  1  0  0  0  0
 39 41  1  0  0  0  0
 39 42  1  0  0  0  0
 39 43  1  0  0  0  0
 21 25  1  0  0  0  0
 21 26  1  0  0  0  0
 29 34  1  0  0  0  0
  8 13  1  0  0  0  0
 18 24  1  0  0  0  0
 38 40  1  0  0  0  0
  7 12  1  0  0  0  0
 28 33  1  0  0  0  0
 17 23  1  0  0  0  0
 22 27  1  0  0  0  0
M  END
$$$$

  -OEChem-05262214473D

 43 42  0     1  0  0  0  0  0999 V2000
    0.7424   -1.0926    4.5665 C   0  0  0  0  0  0  0  0  0  0  0  0
    0.1409   -0.5364    5.4779 O   0  0  0  0  0  0  0  0  0  0  0  0
    1.7940   -2.1023    4.8871 C   0  0  0  0  0  0  0  0  0  0  0  0
    2.7935   -1.6502    4.9904 H   0  0  0  0  0  0  0  0  0  0  0  0
    1.6064   -2.6156    5.8438 H   0  0  0  0  0  0  0  0  0  0  0  0
    1.9156   -2.9078    4.1453 H   0  0  0  0  0  0  0  0  0  0  0  0
    0.5488   -0.8838    3.2109 N   0  0  0  0  0  0  0  0  0  0  0  0
   -0.4159    0.0446    2.6829 C   0  0  2  0  0  0  0  0  0  0  0  0
   -0.7551   -0.3867    1.2623 C   0  0  0  0  0  0  0  0  0  0  0  0
   -0.0106   -1.0851    0.5774 O   0  0  0  0  0  0  0  0  0  0  0  0
    0.1168    1.4689    2.7060 C   0  0  0  0  0  0  0  0  0  0  0  0
    1.1183   -1.4145    2.5542 H   0  0  0  0  0  0  0  0  0  0  0  0
   -1.3088   -0.0350    3.3125 H   0  0  0  0  0  0  0  0  0  0  0  0
    1.0116    1.5681    2.0808 H   0  0  0  0  0  0  0  0  0  0  0  0
   -0.6289    2.1775    2.3307 H   0  0  0  0  0  0  0  0  0  0  0  0
    0.3882    1.7670    3.7245 H   0  0  0  0  0  0  0  0  0  0  0  0
   -1.9689    0.1350    0.8298 N   0  0  0  0  0  0  0  0  0  0  0  0
   -2.5039   -0.1183   -0.4830 C   0  0  2  0  0  0  0  0  0  0  0  0
   -3.8388    0.6088   -0.6025 C   0  0  0  0  0  0  0  0  0  0  0  0
   -4.8533    0.0777   -1.0497 O   0  0  0  0  0  0  0  0  0  0  0  0
   -2.6413   -1.6124   -0.7579 C   0  0  0  0  0  0  0  0  0  0  0  0
   -3.6186   -2.1842    0.1041 O   0  0  0  0  0  0  0  0  0  0  0  0
   -2.5276    0.6894    1.4750 H   0  0  0  0  0  0  0  0  0  0  0  0
   -1.7959    0.3216   -1.1947 H   0  0  0  0  0  0  0  0  0  0  0  0
   -1.6930   -2.1324   -0.5878 H   0  0  0  0  0  0  0  0  0  0  0  0
   -2.9565   -1.7862   -1.7922 H   0  0  0  0  0  0  0  0  0  0  0  0
   -4.4542   -1.7266   -0.0803 H   0  0  0  0  0  0  0  0  0  0  0  0
   -3.7732    1.9050   -0.1112 N   0  0  0  0  0  0  0  0  0  0  0  0
   -4.9145    2.7900   -0.0841 C   0  0  2  0  0  0  0  0  0  0  0  0
   -6.1574    1.9471    0.1691 C   0  0  0  0  0  0  0  0  0  0  0  0
   -6.2127    0.7435   -0.0745 O   0  0  0  0  0  0  0  0  0  0  0  0
   -5.0416    3.5691   -1.3840 C   0  0  0  0  0  0  0  0  0  0  0  0
   -2.8998    2.2480    0.2774 H   0  0  0  0  0  0  0  0  0  0  0  0
   -4.7616    3.4776    0.7549 H   0  0  0  0  0  0  0  0  0  0  0  0
   -5.1953    2.8969   -2.2361 H   0  0  0  0  0  0  0  0  0  0  0  0
   -5.8903    4.2602   -1.3510 H   0  0  0  0  0  0  0  0  0  0  0  0
   -4.1348    4.1516   -1.5795 H   0  0  0  0  0  0  0  0  0  0  0  0
   -7.2115    2.7056    0.6587 N   0  0  0  0  0  0  0  0  0  0  0  0
   -8.5035    2.1380    0.9664 C   0  0  0  0  0  0  0  0  0  0  0  0
   -7.0705    3.6935    0.8484 H   0  0  0  0  0  0  0  0  0  0  0  0
   -9.1610    2.2243    0.0888 H   0  0  0  0  0  0  0  0  0  0  0  0
   -8.3839    1.0772    1.2319 H   0  0  0  0  0  0  0  0  0  0  0  0
   -8.9496    2.6800    1.8133 H   0  0  0  0  0  0  0  0  0  0  0  0
  1  3  1  0  0  0  0
  1  7  1  0  0  0  0
  1  2  2  0  0  0  0
 29 30  1  0  0  0  0
 30 38  1  0  0  0  0
 30 31  2  0  0  0  0
  8  9  1  0  0  0  0
  9 17  1  0  0  0  0
  9 10  2  0  0  0  0
 18 19  1  0  0  0  0
 19 28  1  0  0  0  0
 19 20  2  0  0  0  0
 29 32  1  0  0  0  0
  8 11  1  0  0  0  0
 38 39  1  0  0  0  0
 18 21  1  0  0  0  0
 21 22  1  0  0  0  0
 28 29  1  0  0  0  0
  7  8  1  0  0  0  0
 17 18  1  0  0  0  0
  3  4  1  0  0  0  0
  3  5  1  0  0  0  0
  3  6  1  0  0  0  0
 32 35  1  0  0  0  0
 32 36  1  0  0  0  0
 32 37  1  0  0  0  0
 11 14  1  0  0  0  0
 11 15  1  0  0  0  0
 11 16  1  0  0  0  0
 39 41  1  0  0  0  0
 39 42  1  0  0  0  0
 39 43  1  0  0  0  0
 21 25  1  0  0  0  0
 21 26  1  0  0  0  0
 29 34  1  0  0  0  0
  8 13  1  0  0  0  0
 18 24  1  0  0  0  0
 38 40  1  0  0  0  0
  7 12  1  0  0  0  0
 28 33  1  0  0  0  0
 17 23  1  0  0  0  0
 22 27  1  0  0  0  0
M  END
$$$$

  -OEChem-05262214473D

 43 42  0     1  0  0  0  0  0999 V2000
    0.7424   -1.0926    4.5665 C   0  0  0  0  0  0  0  0  0  0  0  0
    0.1409   -0.5364    5.4779 O   0  0  0  0  0  0  0  0  0  0  0  0
    1.7940   -2.1023    4.8871 C   0  0  0  0  0  0  0  0  0  0  0  0
    2.7935   -1.6502    4.9904 H   0  0  0  0  0  0  0  0  0  0  0  0
    1.6064   -2.6156    5.8438 H   0  0  0  0  0  0  0  0  0  0  0  0
    1.9156   -2.9078    4.1453 H   0  0  0  0  0  0  0  0  0  0  0  0
    0.5488   -0.8838    3.2109 N   0  0  0  0  0  0  0  0  0  0  0  0
   -0.4159    0.0446    2.6829 C   0  0  2  0  0  0  0  0  0  0  0  0
   -0.7551   -0.3867    1.2623 C   0  0  0  0  0  0  0  0  0  0  0  0
   -0.0106   -1.0851    0.5774 O   0  0  0  0  0  0  0  0  0  0  0  0
    0.1168    1.4689    2.7060 C   0  0  0  0  0  0  0  0  0  0  0  0
    1.1183   -1.4145    2.5542 H   0  0  0  0  0  0  0  0  0  0  0  0
   -1.3088   -0.0350    3.3125 H   0  0  0  0  0  0  0  0  0  0  0  0
    1.0116    1.5681    2.0808 H   0  0  0  0  0  0  0  0  0  0  0  0
   -0.6289    2.1775    2.3307 H   0  0  0  0  0  0  0  0  0  0  0  0
    0.3882    1.7670    3.7245 H   0  0  0  0  0  0  0  0  0  0  0  0
   -1.9689    0.1350    0.8298 N   0  0  0  0  0  0  0  0  0  0  0  0
   -2.5039   -0.1183   -0.4830 C   0  0  2  0  0  0  0  0  0  0  0  0
   -3.8388    0.6088   -0.6025 C   0  0  0  0  0  0  0  0  0  0  0  0
   -4.9046    0.0259   -0.7907 O   0  0  0  0  0  0  0  0  0  0  0  0
   -2.6413   -1.6124   -0.7579 C   0  0  0  0  0  0  0  0  0  0  0  0
   -3.6186   -2.1842    0.1041 O   0  0  0  0  0  0  0  0  0  0  0  0
   -2.5276    0.6894    1.4750 H   0  0  0  0  0  0  0  0  0  0  0  0
   -1.7959    0.3216   -1.1947 H   0  0  0  0  0  0  0  0  0  0  0  0
   -1.6930   -2.1324   -0.5878 H   0  0  0  0  0  0  0  0  0  0  0  0
   -2.9565   -1.7862   -1.7922 H   0  0  0  0  0  0  0  0  0  0  0  0
   -4.4542   -1.7266   -0.0803 H   0  0  0  0  0  0  0  0  0  0  0  0
   -3.7041    1.9793   -0.4312 N   0  0  0  0  0  0  0  0  0  0  0  0
   -4.8275    2.8865   -0.4684 C   0  0  2  0  0  0  0  0  0  0  0  0
   -6.0338    2.1657    0.1188 C   0  0  0  0  0  0  0  0  0  0  0  0
   -6.1266    0.9408    0.1644 O   0  0  0  0  0  0  0  0  0  0  0  0
   -5.1124    3.3566   -1.8864 C   0  0  0  0  0  0  0  0  0  0  0  0
   -2.7866    2.3707   -0.2396 H   0  0  0  0  0  0  0  0  0  0  0  0
   -4.5662    3.7398    0.1670 H   0  0  0  0  0  0  0  0  0  0  0  0
   -5.3761    2.5154   -2.5379 H   0  0  0  0  0  0  0  0  0  0  0  0
   -5.9460    4.0662   -1.9093 H   0  0  0  0  0  0  0  0  0  0  0  0
   -4.2339    3.8484   -2.3179 H   0  0  0  0  0  0  0  0  0  0  0  0
   -7.0134    3.0509    0.5465 N   0  0  0  0  0  0  0  0  0  0  0  0
   -8.2598    2.6122    1.1297 C   0  0  0  0  0  0  0  0  0  0  0  0
   -6.8436    4.0507    0.4877 H   0  0  0  0  0  0  0  0  0  0  0  0
   -9.0219    2.5212    0.3417 H   0  0  0  0  0  0  0  0  0  0  0  0
   -8.1143    1.6351    1.6134 H   0  0  0  0  0  0  0  0  0  0  0  0
   -8.5926    3.3461    1.8784 H   0  0  0  0  0  0  0  0  0  0  0  0
  1  3  1  0  0  0  0
  1  7  1  0  0  0  0
  1  2  2  0  0  0  0
 29 30  1  0  0  0  0
 30 38  1  0  0  0  0
 30 31  2  0  0  0  0
  8  9  1  0  0  0  0
  9 17  1  0  0  0  0
  9 10  2  0  0  0  0
 18 19  1  0  0  0  0
 19 28  1  0  0  0  0
 19 20  2  0  0  0  0
 29 32  1  0  0  0  0
  8 11  1  0  0  0  0
 38 39  1  0  0  0  0
 18 21  1  0  0  0  0
 21 22  1  0  0  0  0
 28 29  1  0  0  0  0
  7  8  1  0  0  0  0
 17 18  1  0  0  0  0
  3  4  1  0  0  0  0
  3  5  1  0  0  0  0
  3  6  1  0  0  0  0
 32 35  1  0  0  0  0
 32 36  1  0  0  0  0
 32 37  1  0  0  0  0
 11 14  1  0  0  0  0
 11 15  1  0  0  0  0
 11 16  1  0  0  0  0
 39 41  1  0  0  0  0
 39 42  1  0  0  0  0
 39 43  1  0  0  0  0
 21 25  1  0  0  0  0
 21 26  1  0  0  0  0
 29 34  1  0  0  0  0
  8 13  1  0  0  0  0
 18 24  1  0  0  0  0
 38 40  1  0  0  0  0
  7 12  1  0  0  0  0
 28 33  1  0  0  0  0
 17 23  1  0  0  0  0
 22 27  1  0  0  0  0
M  END
$$$$

  -OEChem-05262214473D

 43 42  0     1  0  0  0  0  0999 V2000
    0.7424   -1.0926    4.5665 C   0  0  0  0  0  0  0  0  0  0  0  0
    0.1409   -0.5364    5.4779 O   0  0  0  0  0  0  0  0  0  0  0  0
    1.7940   -2.1023    4.8871 C   0  0  0  0  0  0  0  0  0  0  0  0
    2.7935   -1.6502    4.9904 H   0  0  0  0  0  0  0  0  0  0  0  0
    1.6064   -2.6156    5.8438 H   0  0  0  0  0  0  0  0  0  0  0  0
    1.9156   -2.9078    4.1453 H   0  0  0  0  0  0  0  0  0  0  0  0
    0.5488   -0.8838    3.2109 N   0  0  0  0  0  0  0  0  0  0  0  0
   -0.4159    0.0446    2.6829 C   0  0  2  0  0  0  0  0  0  0  0  0
   -0.7551   -0.3867    1.2623 C   0  0  0  0  0  0  0  0  0  0  0  0
   -0.0106   -1.0851    0.5774 O   0  0  0  0  0  0  0  0  0  0  0  0
    0.1168    1.4689    2.7060 C   0  0  0  0  0  0  0  0  0  0  0  0
    1.1183   -1.4145    2.5542 H   0  0  0  0  0  0  0  0  0  0  0  0
   -1.3088   -0.0350    3.3125 H   0  0  0  0  0  0  0  0  0  0  0  0
    1.0116    1.5681    2.0808 H   0  0  0  0  0  0  0  0  0  0  0  0
   -0.6289    2.1775    2.3307 H   0  0  0  0  0  0  0  0  0  0  0  0
    0.3882    1.7670    3.7245 H   0  0  0  0  0  0  0  0  0  0  0  0
   -1.9689    0.1350    0.8298 N   0  0  0  0  0  0  0  0  0  0  0  0
   -2.5039   -0.1183   -0.4830 C   0  0  2  0  0  0  0  0  0  0  0  0
   -3.8388    0.6088   -0.6025 C   0  0  0  0  0  0  0  0  0  0  0  0
   -4.9234    0.0356   -0.5224 O   0  0  0  0  0  0  0  0  0  0  0  0
   -2.6413   -1.6124   -0.7579 C   0  0  0  0  0  0  0  0  0  0  0  0
   -3.6186   -2.1842    0.1041 O   0  0  0  0  0  0  0  0  0  0  0  0
   -2.5276    0.6894    1.4750 H   0  0  0  0  0  0  0  0  0  0  0  0
   -1.7959    0.3216   -1.1947 H   0  0  0  0  0  0  0  0  0  0  0  0
   -1.6930   -2.1324   -0.5878 H   0  0  0  0  0  0  0  0  0  0  0  0
   -2.9565   -1.7862   -1.7922 H   0  0  0  0  0  0  0  0  0  0  0  0
   -4.4542   -1.7266   -0.0803 H   0  0  0  0  0  0  0  0  0  0  0  0
   -3.6754    1.9771   -0.7656 N   0  0  0  0  0  0  0  0  0  0  0  0
   -4.7890    2.8909   -0.8723 C   0  0  2  0  0  0  0  0  0  0  0  0
   -5.9162    2.3630    0.0053 C   0  0  0  0  0  0  0  0  0  0  0  0
   -6.0099    1.1838    0.3398 O   0  0  0  0  0  0  0  0  0  0  0  0
   -5.2471    3.0389   -2.3148 C   0  0  0  0  0  0  0  0  0  0  0  0
   -2.7387    2.3698   -0.7807 H   0  0  0  0  0  0  0  0  0  0  0  0
   -4.4447    3.8558   -0.4844 H   0  0  0  0  0  0  0  0  0  0  0  0
   -5.5957    2.0822   -2.7207 H   0  0  0  0  0  0  0  0  0  0  0  0
   -6.0726    3.7535   -2.3977 H   0  0  0  0  0  0  0  0  0  0  0  0
   -4.4268    3.3902   -2.9501 H   0  0  0  0  0  0  0  0  0  0  0  0
   -6.8289    3.3551    0.3355 N   0  0  0  0  0  0  0  0  0  0  0  0
   -7.9947    3.1023    1.1498 C   0  0  0  0  0  0  0  0  0  0  0  0
   -6.6618    4.3094    0.0304 H   0  0  0  0  0  0  0  0  0  0  0  0
   -8.8503    2.8624    0.5015 H   0  0  0  0  0  0  0  0  0  0  0  0
   -7.7953    2.2549    1.8222 H   0  0  0  0  0  0  0  0  0  0  0  0
   -8.2262    3.9971    1.7463 H   0  0  0  0  0  0  0  0  0  0  0  0
  1  3  1  0  0  0  0
  1  7  1  0  0  0  0
  1  2  2  0  0  0  0
 29 30  1  0  0  0  0
 30 38  1  0  0  0  0
 30 31  2  0  0  0  0
  8  9  1  0  0  0  0
  9 17  1  0  0  0  0
  9 10  2  0  0  0  0
 18 19  1  0  0  0  0
 19 28  1  0  0  0  0
 19 20  2  0  0  0  0
 29 32  1  0  0  0  0
  8 11  1  0  0  0  0
 38 39  1  0  0  0  0
 18 21  1  0  0  0  0
 21 22  1  0  0  0  0
 28 29  1  0  0  0  0
  7  8  1  0  0  0  0
 17 18  1  0  0  0  0
  3  4  1  0  0  0  0
  3  5  1  0  0  0  0
  3  6  1  0  0  0  0
 32 35  1  0  0  0  0
 32 36  1  0  0  0  0
 32 37  1  0  0  0  0
 11 14  1  0  0  0  0
 11 15  1  0  0  0  0
 11 16  1  0  0  0  0
 39 41  1  0  0  0  0
 39 42  1  0  0  0  0
 39 43  1  0  0  0  0
 21 25  1  0  0  0  0
 21 26  1  0  0  0  0
 29 34  1  0  0  0  0
  8 13  1  0  0  0  0
 18 24  1  0  0  0  0
 38 40  1  0  0  0  0
  7 12  1  0  0  0  0
 28 33  1  0  0  0  0
 17 23  1  0  0  0  0
 22 27  1  0  0  0  0
M  END
$$$$

  -OEChem-05262214473D

 43 42  0     1  0  0  0  0  0999 V2000
    0.7424   -1.0926    4.5665 C   0  0  0  0  0  0  0  0  0  0  0  0
    0.1409   -0.5364    5.4779 O   0  0  0  0  0  0  0  0  0  0  0  0
    1.7940   -2.1023    4.8871 C   0  0  0  0  0  0  0  0  0  0  0  0
    2.7935   -1.6502    4.9904 H   0  0  0  0  0  0  0  0  0  0  0  0
    1.6064   -2.6156    5.8438 H   0  0  0  0  0  0  0  0  0  0  0  0
    1.9156   -2.9078    4.1453 H   0  0  0  0  0  0  0  0  0  0  0  0
    0.5488   -0.8838    3.2109 N   0  0  0  0  0  0  0  0  0  0  0  0
   -0.4159    0.0446    2.6829 C   0  0  2  0  0  0  0  0  0  0  0  0
   -0.7551   -0.3867    1.2623 C   0  0  0  0  0  0  0  0  0  0  0  0
   -0.0106   -1.0851    0.5774 O   0  0  0  0  0  0  0  0  0  0  0  0
    0.1168    1.4689    2.7060 C   0  0  0  0  0  0  0  0  0  0  0  0
    1.1183   -1.4145    2.5542 H   0  0  0  0  0  0  0  0  0  0  0  0
   -1.3088   -0.0350    3.3125 H   0  0  0  0  0  0  0  0  0  0  0  0
    1.0116    1.5681    2.0808 H   0  0  0  0  0  0  0  0  0  0  0  0
   -0.6289    2.1775    2.3307 H   0  0  0  0  0  0  0  0  0  0  0  0
    0.3882    1.7670    3.7245 H   0  0  0  0  0  0  0  0  0  0  0  0
   -1.9689    0.1350    0.8298 N   0  0  0  0  0  0  0  0  0  0  0  0
   -2.5039   -0.1183   -0.4830 C   0  0  2  0  0  0  0  0  0  0  0  0
   -3.8388    0.6088   -0.6025 C   0  0  0  0  0  0  0  0  0  0  0  0
   -4.9081    0.1062   -0.2632 O   0  0  0  0  0  0  0  0  0  0  0  0
   -2.6413   -1.6124   -0.7579 C   0  0  0  0  0  0  0  0  0  0  0  0
   -3.6186   -2.1842    0.1041 O   0  0  0  0  0  0  0  0  0  0  0  0
   -2.5276    0.6894    1.4750 H   0  0  0  0  0  0  0  0  0  0  0  0
   -1.7959    0.3216   -1.1947 H   0  0  0  0  0  0  0  0  0  0  0  0
   -1.6930   -2.1324   -0.5878 H   0  0  0  0  0  0  0  0  0  0  0  0
   -2.9565   -1.7862   -1.7922 H   0  0  0  0  0  0  0  0  0  0  0  0
   -4.4542   -1.7266   -0.0803 H   0  0  0  0  0  0  0  0  0  0  0  0
   -3.6889    1.8987   -1.0916 N   0  0  0  0  0  0  0  0  0  0  0  0
   -4.8016    2.8028   -1.2681 C   0  0  2  0  0  0  0  0  0  0  0  0
   -5.8126    2.5255   -0.1634 C   0  0  0  0  0  0  0  0  0  0  0  0
   -5.8707    1.4559    0.4397 O   0  0  0  0  0  0  0  0  0  0  0  0
   -5.4365    2.6377   -2.6401 C   0  0  0  0  0  0  0  0  0  0  0  0
   -2.7592    2.2453   -1.3092 H   0  0  0  0  0  0  0  0  0  0  0  0
   -4.4054    3.8178   -1.1550 H   0  0  0  0  0  0  0  0  0  0  0  0
   -5.8392    1.6267   -2.7719 H   0  0  0  0  0  0  0  0  0  0  0  0
   -6.2616    3.3433   -2.7830 H   0  0  0  0  0  0  0  0  0  0  0  0
   -4.7006    2.8083   -3.4332 H   0  0  0  0  0  0  0  0  0  0  0  0
   -6.6705    3.5973    0.0400 N   0  0  0  0  0  0  0  0  0  0  0  0
   -7.7261    3.5749    1.0255 C   0  0  0  0  0  0  0  0  0  0  0  0
   -6.5373    4.4520   -0.4925 H   0  0  0  0  0  0  0  0  0  0  0  0
   -8.6580    3.2248    0.5574 H   0  0  0  0  0  0  0  0  0  0  0  0
   -7.4490    2.8944    1.8441 H   0  0  0  0  0  0  0  0  0  0  0  0
   -7.8754    4.5885    1.4259 H   0  0  0  0  0  0  0  0  0  0  0  0
  1  3  1  0  0  0  0
  1  7  1  0  0  0  0
  1  2  2  0  0  0  0
 29 30  1  0  0  0  0
 30 38  1  0  0  0  0
 30 31  2  0  0  0  0
  8  9  1  0  0  0  0
  9 17  1  0  0  0  0
  9 10  2  0  0  0  0
 18 19  1  0  0  0  0
 19 28  1  0  0  0  0
 19 20  2  0  0  0  0
 29 32  1  0  0  0  0
  8 11  1  0  0  0  0
 38 39  1  0  0  0  0
 18 21  1  0  0  0  0
 21 22  1  0  0  0  0
 28 29  1  0  0  0  0
  7  8  1  0  0  0  0
 17 18  1  0  0  0  0
  3  4  1  0  0  0  0
  3  5  1  0  0  0  0
  3  6  1  0  0  0  0
 32 35  1  0  0  0  0
 32 36  1  0  0  0  0
 32 37  1  0  0  0  0
 11 14  1  0  0  0  0
 11 15  1  0  0  0  0
 11 16  1  0  0  0  0
 39 41  1  0  0  0  0
 39 42  1  0  0  0  0
 39 43  1  0  0  0  0
 21 25  1  0  0  0  0
 21 26  1  0  0  0  0
 29 34  1  0  0  0  0
  8 13  1  0  0  0  0
 18 24  1  0  0  0  0
 38 40  1  0  0  0  0
  7 12  1  0  0  0  0
 28 33  1  0  0  0  0
 17 23  1  0  0  0  0
 22 27  1  0  0  0  0
M  END
$$$$

  -OEChem-05262214473D

 43 42  0     1  0  0  0  0  0999 V2000
    0.7424   -1.0926    4.5665 C   0  0  0  0  0  0  0  0  0  0  0  0
    0.1409   -0.5364    5.4779 O   0  0  0  0  0  0  0  0  0  0  0  0
    1.7940   -2.1023    4.8871 C   0  0  0  0  0  0  0  0  0  0  0  0
    2.7935   -1.6502    4.9904 H   0  0  0  0  0  0  0  0  0  0  0  0
    1.6064   -2.6156    5.8438 H   0  0  0  0  0  0  0  0  0  0  0  0
    1.9156   -2.9078    4.1453 H   0  0  0  0  0  0  0  0  0  0  0  0
    0.5488   -0.8838    3.2109 N   0  0  0  0  0  0  0  0  0  0  0  0
   -0.4159    0.0446    2.6829 C   0  0  2  0  0  0  0  0  0  0  0  0
   -0.7551   -0.3867    1.2623 C   0  0  0  0  0  0  0  0  0  0  0  0
   -0.0106   -1.0851    0.5774 O   0  0  0  0  0  0  0  0  0  0  0  0
    0.1168    1.4689    2.7060 C   0  0  0  0  0  0  0  0  0  0  0  0
    1.1183   -1.4145    2.5542 H   0  0  0  0  0  0  0  0  0  0  0  0
   -1.3088   -0.0350    3.3125 H   0  0  0  0  0  0  0  0  0  0  0  0
    1.0116    1.5681    2.0808 H   0  0  0  0  0  0  0  0  0  0  0  0
   -0.6289    2.1775    2.3307 H   0  0  0  0  0  0  0  0  0  0  0  0
    0.3882    1.7670    3.7245 H   0  0  0  0  0  0  0  0  0  0  0  0
   -1.9689    0.1350    0.8298 N   0  0  0  0  0  0  0  0  0  0  0  0
   -2.5039   -0.1183   -0.4830 C   0  0  2  0  0  0  0  0  0  0  0  0
   -3.8388    0.6088   -0.6025 C   0  0  0  0  0  0  0  0  0  0  0  0
   -4.8600    0.2328   -0.0307 O   0  0  0  0  0  0  0  0  0  0  0  0
   -2.6413   -1.6124   -0.7579 C   0  0  0  0  0  0  0  0  0  0  0  0
   -3.6186   -2.1842    0.1041 O   0  0  0  0  0  0  0  0  0  0  0  0
   -2.5276    0.6894    1.4750 H   0  0  0  0  0  0  0  0  0  0  0  0
   -1.7959    0.3216   -1.1947 H   0  0  0  0  0  0  0  0  0  0  0  0
   -1.6930   -2.1324   -0.5878 H   0  0  0  0  0  0  0  0  0  0  0  0
   -2.9565   -1.7862   -1.7922 H   0  0  0  0  0  0  0  0  0  0  0  0
   -4.4542   -1.7266   -0.0803 H   0  0  0  0  0  0  0  0  0  0  0  0
   -3.7438    1.7494   -1.3872 N   0  0  0  0  0  0  0  0  0  0  0  0
   -4.8643    2.6283   -1.6289 C   0  0  2  0  0  0  0  0  0  0  0  0
   -5.7301    2.6420   -0.3760 C   0  0  0  0  0  0  0  0  0  0  0  0
   -5.7183    1.7385    0.4574 O   0  0  0  0  0  0  0  0  0  0  0  0
   -5.6678    2.1803   -2.8399 C   0  0  0  0  0  0  0  0  0  0  0  0
   -2.8468    2.0057   -1.7889 H   0  0  0  0  0  0  0  0  0  0  0  0
   -4.4509    3.6284   -1.7989 H   0  0  0  0  0  0  0  0  0  0  0  0
   -6.0899    1.1801   -2.6882 H   0  0  0  0  0  0  0  0  0  0  0  0
   -6.4999    2.8636   -3.0389 H   0  0  0  0  0  0  0  0  0  0  0  0
   -5.0364    2.1423   -3.7342 H   0  0  0  0  0  0  0  0  0  0  0  0
   -6.5491    3.7611   -0.3198 N   0  0  0  0  0  0  0  0  0  0  0  0
   -7.4725    3.9977    0.7652 C   0  0  0  0  0  0  0  0  0  0  0  0
   -6.4788    4.4687   -1.0452 H   0  0  0  0  0  0  0  0  0  0  0  0
   -8.4579    3.5835    0.5056 H   0  0  0  0  0  0  0  0  0  0  0  0
   -7.0987    3.5100    1.6776 H   0  0  0  0  0  0  0  0  0  0  0  0
   -7.5641    5.0800    0.9392 H   0  0  0  0  0  0  0  0  0  0  0  0
  1  3  1  0  0  0  0
  1  7  1  0  0  0  0
  1  2  2  0  0  0  0
 29 30  1  0  0  0  0
 30 38  1  0  0  0  0
 30 31  2  0  0  0  0
  8  9  1  0  0  0  0
  9 17  1  0  0  0  0
  9 10  2  0  0  0  0
 18 19  1  0  0  0  0
 19 28  1  0  0  0  0
 19 20  2  0  0  0  0
 29 32  1  0  0  0  0
  8 11  1  0  0  0  0
 38 39  1  0  0  0  0
 18 21  1  0  0  0  0
 21 22  1  0  0  0  0
 28 29  1  0  0  0  0
  7  8  1  0  0  0  0
 17 18  1  0  0  0  0
  3  4  1  0  0  0  0
  3  5  1  0  0  0  0
  3  6  1  0  0  0  0
 32 35  1  0  0  0  0
 32 36  1  0  0  0  0
 32 37  1  0  0  0  0
 11 14  1  0  0  0  0
 11 15  1  0  0  0  0
 11 16  1  0  0  0  0
 39 41  1  0  0  0  0
 39 42  1  0  0  0  0
 39 43  1  0  0  0  0
 21 25  1  0  0  0  0
 21 26  1  0  0  0  0
 29 34  1  0  0  0  0
  8 13  1  0  0  0  0
 18 24  1  0  0  0  0
 38 40  1  0  0  0  0
  7 12  1  0  0  0  0
 28 33  1  0  0  0  0
 17 23  1  0  0  0  0
 22 27  1  0  0  0  0
M  END
$$$$

  -OEChem-05262214473D

 43 42  0     1  0  0  0  0  0999 V2000
    0.7424   -1.0926    4.5665 C   0  0  0  0  0  0  0  0  0  0  0  0
    0.1409   -0.5364    5.4779 O   0  0  0  0  0  0  0  0  0  0  0  0
    1.7940   -2.1023    4.8871 C   0  0  0  0  0  0  0  0  0  0  0  0
    2.7935   -1.6502    4.9904 H   0  0  0  0  0  0  0  0  0  0  0  0
    1.6064   -2.6156    5.8438 H   0  0  0  0  0  0  0  0  0  0  0  0
    1.9156   -2.9078    4.1453 H   0  0  0  0  0  0  0  0  0  0  0  0
    0.5488   -0.8838    3.2109 N   0  0  0  0  0  0  0  0  0  0  0  0
   -0.4159    0.0446    2.6829 C   0  0  2  0  0  0  0  0  0  0  0  0
   -0.7551   -0.3867    1.2623 C   0  0  0  0  0  0  0  0  0  0  0  0
   -0.0106   -1.0851    0.5774 O   0  0  0  0  0  0  0  0  0  0  0  0
    0.1168    1.4689    2.7060 C   0  0  0  0  0  0  0  0  0  0  0  0
    1.1183   -1.4145    2.5542 H   0  0  0  0  0  0  0  0  0  0  0  0
   -1.3088   -0.0350    3.3125 H   0  0  0  0  0  0  0  0  0  0  0  0
    1.0116    1.5681    2.0808 H   0  0  0  0  0  0  0  0  0  0  0  0
   -0.6289    2.1775    2.3307 H   0  0  0  0  0  0  0  0  0  0  0  0
    0.3882    1.7670    3.7245 H   0  0  0  0  0  0  0  0  0  0  0  0
   -1.9689    0.1350    0.8298 N   0  0  0  0  0  0  0  0  0  0  0  0
   -2.5039   -0.1183   -0.4830 C   0  0  2  0  0  0  0  0  0  0  0  0
   -3.8388    0.6088   -0.6025 C   0  0  0  0  0  0  0  0  0  0  0  0
   -4.7822    0.4067    0.1592 O   0  0  0  0  0  0  0  0  0  0  0  0
   -2.6413   -1.6124   -0.7579 C   0  0  0  0  0  0  0  0  0  0  0  0
   -3.6186   -2.1842    0.1041 O   0  0  0  0  0  0  0  0  0  0  0  0
   -2.5276    0.6894    1.4750 H   0  0  0  0  0  0  0  0  0  0  0  0
   -1.7959    0.3216   -1.1947 H   0  0  0  0  0  0  0  0  0  0  0  0
   -1.6930   -2.1324   -0.5878 H   0  0  0  0  0  0  0  0  0  0  0  0
   -2.9565   -1.7862   -1.7922 H   0  0  0  0  0  0  0  0  0  0  0  0
   -4.4542   -1.7266   -0.0803 H   0  0  0  0  0  0  0  0  0  0  0  0
   -3.8363    1.5393   -1.6320 N   0  0  0  0  0  0  0  0  0  0  0  0
   -4.9730    2.3792   -1.9302 C   0  0  2  0  0  0  0  0  0  0  0  0
   -5.6743    2.7048   -0.6180 C   0  0  0  0  0  0  0  0  0  0  0  0
   -5.5632    2.0125    0.3917 O   0  0  0  0  0  0  0  0  0  0  0  0
   -5.9251    1.6979   -2.9008 C   0  0  0  0  0  0  0  0  0  0  0  0
   -2.9954    1.6674   -2.1871 H   0  0  0  0  0  0  0  0  0  0  0  0
   -4.5782    3.3005   -2.3723 H   0  0  0  0  0  0  0  0  0  0  0  0
   -6.3308    0.7728   -2.4752 H   0  0  0  0  0  0  0  0  0  0  0  0
   -6.7715    2.3471   -3.1479 H   0  0  0  0  0  0  0  0  0  0  0  0
   -5.4114    1.4377   -3.8326 H   0  0  0  0  0  0  0  0  0  0  0  0
   -6.4729    3.8353   -0.7195 N   0  0  0  0  0  0  0  0  0  0  0  0
   -7.2511    4.3420    0.3866 C   0  0  0  0  0  0  0  0  0  0  0  0
   -6.4901    4.3584   -1.5901 H   0  0  0  0  0  0  0  0  0  0  0  0
   -8.2638    3.9143    0.3495 H   0  0  0  0  0  0  0  0  0  0  0  0
   -6.7685    4.0598    1.3340 H   0  0  0  0  0  0  0  0  0  0  0  0
   -7.3135    5.4382    0.3192 H   0  0  0  0  0  0  0  0  0  0  0  0
  1  3  1  0  0  0  0
  1  7  1  0  0  0  0
  1  2  2  0  0  0  0
 29 30  1  0  0  0  0
 30 38  1  0  0  0  0
 30 31  2  0  0  0  0
  8  9  1  0  0  0  0
  9 17  1  0  0  0  0
  9 10  2  0  0  0  0
 18 19  1  0  0  0  0
 19 28  1  0  0  0  0
 19 20  2  0  0  0  0
 29 32  1  0  0  0  0
  8 11  1  0  0  0  0
 38 39  1  0  0  0  0
 18 21  1  0  0  0  0
 21 22  1  0  0  0  0
 28 29  1  0  0  0  0
  7  8  1  0  0  0  0
 17 18  1  0  0  0  0
  3  4  1  0  0  0  0
  3  5  1  0  0  0  0
  3  6  1  0  0  0  0
 32 35  1  0  0  0  0
 32 36  1  0  0  0  0
 32 37  1  0  0  0  0
 11 14  1  0  0  0  0
 11 15  1  0  0  0  0
 11 16  1  0  0  0  0
 39 41  1  0  0  0  0
 39 42  1  0  0  0  0
 39 43  1  0  0  0  0
 21 25  1  0  0  0  0
 21 26  1  0  0  0  0
 29 34  1  0  0  0  0
  8 13  1  0  0  0  0
 18 24  1  0  0  0  0
 38 40  1  0  0  0  0
  7 12  1  0  0  0  0
 28 33  1  0  0  0  0
 17 23  1  0  0  0  0
 22 27  1  0  0  0  0
M  END
$$$$

  -OEChem-05262214473D

 43 42  0     1  0  0  0  0  0999 V2000
    0.7424   -1.0926    4.5665 C   0  0  0  0  0  0  0  0  0  0  0  0
    0.1409   -0.5364    5.4779 O   0  0  0  0  0  0  0  0  0  0  0  0
    1.7940   -2.1023    4.8871 C   0  0  0  0  0  0  0  0  0  0  0  0
    2.7935   -1.6502    4.9904 H   0  0  0  0  0  0  0  0  0  0  0  0
    1.6064   -2.6156    5.8438 H   0  0  0  0  0  0  0  0  0  0  0  0
    1.9156   -2.9078    4.1453 H   0  0  0  0  0  0  0  0  0  0  0  0
    0.5488   -0.8838    3.2109 N   0  0  0  0  0  0  0  0  0  0  0  0
   -0.4159    0.0446    2.6829 C   0  0  2  0  0  0  0  0  0  0  0  0
   -0.7551   -0.3867    1.2623 C   0  0  0  0  0  0  0  0  0  0  0  0
   -0.0106   -1.0851    0.5774 O   0  0  0  0  0  0  0  0  0  0  0  0
    0.1168    1.4689    2.7060 C   0  0  0  0  0  0  0  0  0  0  0  0
    1.1183   -1.4145    2.5542 H   0  0  0  0  0  0  0  0  0  0  0  0
   -1.3088   -0.0350    3.3125 H   0  0  0  0  0  0  0  0  0  0  0  0
    1.0116    1.5681    2.0808 H   0  0  0  0  0  0  0  0  0  0  0  0
   -0.6289    2.1775    2.3307 H   0  0  0  0  0  0  0  0  0  0  0  0
    0.3882    1.7670    3.7245 H   0  0  0  0  0  0  0  0  0  0  0  0
   -1.9689    0.1350    0.8298 N   0  0  0  0  0  0  0  0  0  0  0  0
   -2.5039   -0.1183   -0.4830 C   0  0  2  0  0  0  0  0  0  0  0  0
   -3.8388    0.6088   -0.6025 C   0  0  0  0  0  0  0  0  0  0  0  0
   -4.6802    0.6162    0.2937 O   0  0  0  0  0  0  0  0  0  0  0  0
   -2.6413   -1.6124   -0.7579 C   0  0  0  0  0  0  0  0  0  0  0  0
   -3.6186   -2.1842    0.1041 O   0  0  0  0  0  0  0  0  0  0  0  0
   -2.5276    0.6894    1.4750 H   0  0  0  0  0  0  0  0  0  0  0  0
   -1.7959    0.3216   -1.1947 H   0  0  0  0  0  0  0  0  0  0  0  0
   -1.6930   -2.1324   -0.5878 H   0  0  0  0  0  0  0  0  0  0  0  0
   -2.9565   -1.7862   -1.7922 H   0  0  0  0  0  0  0  0  0  0  0  0
   -4.4542   -1.7266   -0.0803 H   0  0  0  0  0  0  0  0  0  0  0  0
   -3.9602    1.2827   -1.8095 N   0  0  0  0  0  0  0  0  0  0  0  0
   -5.1203    2.0726   -2.1513 C   0  0  2  0  0  0  0  0  0  0  0  0
   -5.6489    2.7094   -0.8728 C   0  0  0  0  0  0  0  0  0  0  0  0
   -5.4160    2.2590    0.2470 O   0  0  0  0  0  0  0  0  0  0  0  0
   -6.1909    1.2233   -2.8185 C   0  0  0  0  0  0  0  0  0  0  0  0
   -3.1950    1.2534   -2.4768 H   0  0  0  0  0  0  0  0  0  0  0  0
   -4.7786    2.8563   -2.8362 H   0  0  0  0  0  0  0  0  0  0  0  0
   -6.5455    0.4325   -2.1474 H   0  0  0  0  0  0  0  0  0  0  0  0
   -7.0578    1.8290   -3.1027 H   0  0  0  0  0  0  0  0  0  0  0  0
   -5.8001    0.7423   -3.7216 H   0  0  0  0  0  0  0  0  0  0  0  0
   -6.4471    3.8149   -1.1318 N   0  0  0  0  0  0  0  0  0  0  0  0
   -7.0769    4.5844   -0.0844 C   0  0  0  0  0  0  0  0  0  0  0  0
   -6.5705    4.1286   -2.0900 H   0  0  0  0  0  0  0  0  0  0  0  0
   -8.0889    4.1944    0.0999 H   0  0  0  0  0  0  0  0  0  0  0  0
   -6.4808    4.5064    0.8368 H   0  0  0  0  0  0  0  0  0  0  0  0
   -7.1407    5.6386   -0.3917 H   0  0  0  0  0  0  0  0  0  0  0  0
  1  3  1  0  0  0  0
  1  7  1  0  0  0  0
  1  2  2  0  0  0  0
 29 30  1  0  0  0  0
 30 38  1  0  0  0  0
 30 31  2  0  0  0  0
  8  9  1  0  0  0  0
  9 17  1  0  0  0  0
  9 10  2  0  0  0  0
 18 19  1  0  0  0  0
 19 28  1  0  0  0  0
 19 20  2  0  0  0  0
 29 32  1  0  0  0  0
  8 11  1  0  0  0  0
 38 39  1  0  0  0  0
 18 21  1  0  0  0  0
 21 22  1  0  0  0  0
 28 29  1  0  0  0  0
  7  8  1  0  0  0  0
 17 18  1  0  0  0  0
  3  4  1  0  0  0  0
  3  5  1  0  0  0  0
  3  6  1  0  0  0  0
 32 35  1  0  0  0  0
 32 36  1  0  0  0  0
 32 37  1  0  0  0  0
 11 14  1  0  0  0  0
 11 15  1  0  0  0  0
 11 16  1  0  0  0  0
 39 41  1  0  0  0  0
 39 42  1  0  0  0  0
 39 43  1  0  0  0  0
 21 25  1  0  0  0  0
 21 26  1  0  0  0  0
 29 34  1  0  0  0  0
  8 13  1  0  0  0  0
 18 24  1  0  0  0  0
 38 40  1  0  0  0  0
  7 12  1  0  0  0  0
 28 33  1  0  0  0  0
 17 23  1  0  0  0  0
 22 27  1  0  0  0  0
M  END
$$$$

  -OEChem-05262214473D

 43 42  0     1  0  0  0  0  0999 V2000
    0.7424   -1.0926    4.5665 C   0  0  0  0  0  0  0  0  0  0  0  0
    0.1409   -0.5364    5.4779 O   0  0  0  0  0  0  0  0  0  0  0  0
    1.7940   -2.1023    4.8871 C   0  0  0  0  0  0  0  0  0  0  0  0
    2.7935   -1.6502    4.9904 H   0  0  0  0  0  0  0  0  0  0  0  0
    1.6064   -2.6156    5.8438 H   0  0  0  0  0  0  0  0  0  0  0  0
    1.9156   -2.9078    4.1453 H   0  0  0  0  0  0  0  0  0  0  0  0
    0.5488   -0.8838    3.2109 N   0  0  0  0  0  0  0  0  0  0  0  0
   -0.4159    0.0446    2.6829 C   0  0  2  0  0  0  0  0  0  0  0  0
   -0.7551   -0.3867    1.2623 C   0  0  0  0  0  0  0  0  0  0  0  0
   -0.0106   -1.0851    0.5774 O   0  0  0  0  0  0  0  0  0  0  0  0
    0.1168    1.4689    2.7060 C   0  0  0  0  0  0  0  0  0  0  0  0
    1.1183   -1.4145    2.5542 H   0  0  0  0  0  0  0  0  0  0  0  0
   -1.3088   -0.0350    3.3125 H   0  0  0  0  0  0  0  0  0  0  0  0
    1.0116    1.5681    2.0808 H   0  0  0  0  0  0  0  0  0  0  0  0
   -0.6289    2.1775    2.3307 H   0  0  0  0  0  0  0  0  0  0  0  0
    0.3882    1.7670    3.7245 H   0  0  0  0  0  0  0  0  0  0  0  0
   -1.9689    0.1350    0.8298 N   0  0  0  0  0  0  0  0  0  0  0  0
   -2.5039   -0.1183   -0.4830 C   0  0  2  0  0  0  0  0  0  0  0  0
   -3.8388    0.6088   -0.6025 C   0  0  0  0  0  0  0  0  0  0  0  0
   -4.5607    0.8470    0.3636 O   0  0  0  0  0  0  0  0  0  0  0  0
   -2.6413   -1.6124   -0.7579 C   0  0  0  0  0  0  0  0  0  0  0  0
   -3.6186   -2.1842    0.1041 O   0  0  0  0  0  0  0  0  0  0  0  0
   -2.5276    0.6894    1.4750 H   0  0  0  0  0  0  0  0  0  0  0  0
   -1.7959    0.3216   -1.1947 H   0  0  0  0  0  0  0  0  0  0  0  0
   -1.6930   -2.1324   -0.5878 H   0  0  0  0  0  0  0  0  0  0  0  0
   -2.9565   -1.7862   -1.7922 H   0  0  0  0  0  0  0  0  0  0  0  0
   -4.4542   -1.7266   -0.0803 H   0  0  0  0  0  0  0  0  0  0  0  0
   -4.1069    0.9972   -1.9075 N   0  0  0  0  0  0  0  0  0  0  0  0
   -5.2960    1.7293   -2.2772 C   0  0  2  0  0  0  0  0  0  0  0  0
   -5.6558    2.6557   -1.1232 C   0  0  0  0  0  0  0  0  0  0  0  0
   -5.2866    2.4614    0.0331 O   0  0  0  0  0  0  0  0  0  0  0  0
   -6.4471    0.7890   -2.5987 C   0  0  0  0  0  0  0  0  0  0  0  0
   -3.4319    0.7919   -2.6382 H   0  0  0  0  0  0  0  0  0  0  0  0
   -5.0384    2.3263   -3.1589 H   0  0  0  0  0  0  0  0  0  0  0  0
   -6.7193    0.1825   -1.7272 H   0  0  0  0  0  0  0  0  0  0  0  0
   -7.3392    1.3446   -2.9063 H   0  0  0  0  0  0  0  0  0  0  0  0
   -6.1759    0.1037   -3.4090 H   0  0  0  0  0  0  0  0  0  0  0  0
   -6.4735    3.7012   -1.5286 N   0  0  0  0  0  0  0  0  0  0  0  0
   -6.9619    4.7082   -0.6157 C   0  0  0  0  0  0  0  0  0  0  0  0
   -6.7145    3.7951   -2.5109 H   0  0  0  0  0  0  0  0  0  0  0  0
   -7.9450    4.4049   -0.2263 H   0  0  0  0  0  0  0  0  0  0  0  0
   -6.2551    4.8192    0.2198 H   0  0  0  0  0  0  0  0  0  0  0  0
   -7.0575    5.6676   -1.1452 H   0  0  0  0  0  0  0  0  0  0  0  0
  1  3  1  0  0  0  0
  1  7  1  0  0  0  0
  1  2  2  0  0  0  0
 29 30  1  0  0  0  0
 30 38  1  0  0  0  0
 30 31  2  0  0  0  0
  8  9  1  0  0  0  0
  9 17  1  0  0  0  0
  9 10  2  0  0  0  0
 18 19  1  0  0  0  0
 19 28  1  0  0  0  0
 19 20  2  0  0  0  0
 29 32  1  0  0  0  0
  8 11  1  0  0  0  0
 38 39  1  0  0  0  0
 18 21  1  0  0  0  0
 21 22  1  0  0  0  0
 28 29  1  0  0  0  0
  7  8  1  0  0  0  0
 17 18  1  0  0  0  0
  3  4  1  0  0  0  0
  3  5  1  0  0  0  0
  3  6  1  0  0  0  0
 32 35  1  0  0  0  0
 32 36  1  0  0  0  0
 32 37  1  0  0  0  0
 11 14  1  0  0  0  0
 11 15  1  0  0  0  0
 11 16  1  0  0  0  0
 39 41  1  0  0  0  0
 39 42  1  0  0  0  0
 39 43  1  0  0  0  0
 21 25  1  0  0  0  0
 21 26  1  0  0  0  0
 29 34  1  0  0  0  0
  8 13  1  0  0  0  0
 18 24  1  0  0  0  0
 38 40  1  0  0  0  0
  7 12  1  0  0  0  0
 28 33  1  0  0  0  0
 17 23  1  0  0  0  0
 22 27  1  0  0  0  0
M  END
$$$$

  -OEChem-05262214473D

 43 42  0     1  0  0  0  0  0999 V2000
    0.7424   -1.0926    4.5665 C   0  0  0  0  0  0  0  0  0  0  0  0
    0.1409   -0.5364    5.4779 O   0  0  0  0  0  0  0  0  0  0  0  0
    1.7940   -2.1023    4.8871 C   0  0  0  0  0  0  0  0  0  0  0  0
    2.7935   -1.6502    4.9904 H   0  0  0  0  0  0  0  0  0  0  0  0
    1.6064   -2.6156    5.8438 H   0  0  0  0  0  0  0  0  0  0  0  0
    1.9156   -2.9078    4.1453 H   0  0  0  0  0  0  0  0  0  0  0  0
    0.5488   -0.8838    3.2109 N   0  0  0  0  0  0  0  0  0  0  0  0
   -0.4159    0.0446    2.6829 C   0  0  2  0  0  0  0  0  0  0  0  0
   -0.7551   -0.3867    1.2623 C   0  0  0  0  0  0  0  0  0  0  0  0
   -0.0106   -1.0851    0.5774 O   0  0  0  0  0  0  0  0  0  0  0  0
    0.1168    1.4689    2.7060 C   0  0  0  0  0  0  0  0  0  0  0  0
    1.1183   -1.4145    2.5542 H   0  0  0  0  0  0  0  0  0  0  0  0
   -1.3088   -0.0350    3.3125 H   0  0  0  0  0  0  0  0  0  0  0  0
    1.0116    1.5681    2.0808 H   0  0  0  0  0  0  0  0  0  0  0  0
   -0.6289    2.1775    2.3307 H   0  0  0  0  0  0  0  0  0  0  0  0
    0.3882    1.7670    3.7245 H   0  0  0  0  0  0  0  0  0  0  0  0
   -1.9689    0.1350    0.8298 N   0  0  0  0  0  0  0  0  0  0  0  0
   -2.5039   -0.1183   -0.4830 C   0  0  2  0  0  0  0  0  0  0  0  0
   -3.8388    0.6088   -0.6025 C   0  0  0  0  0  0  0  0  0  0  0  0
   -4.4320    1.0833    0.3640 O   0  0  0  0  0  0  0  0  0  0  0  0
   -2.6413   -1.6124   -0.7579 C   0  0  0  0  0  0  0  0  0  0  0  0
   -3.6186   -2.1842    0.1041 O   0  0  0  0  0  0  0  0  0  0  0  0
   -2.5276    0.6894    1.4750 H   0  0  0  0  0  0  0  0  0  0  0  0
   -1.7959    0.3216   -1.1947 H   0  0  0  0  0  0  0  0  0  0  0  0
   -1.6930   -2.1324   -0.5878 H   0  0  0  0  0  0  0  0  0  0  0  0
   -2.9565   -1.7862   -1.7922 H   0  0  0  0  0  0  0  0  0  0  0  0
   -4.4542   -1.7266   -0.0803 H   0  0  0  0  0  0  0  0  0  0  0  0
   -4.2665    0.7022   -1.9193 N   0  0  0  0  0  0  0  0  0  0  0  0
   -5.4882    1.3727   -2.2994 C   0  0  2  0  0  0  0  0  0  0  0  0
   -5.6944    2.5472   -1.3519 C   0  0  0  0  0  0  0  0  0  0  0  0
   -5.1839    2.6058   -0.2352 O   0  0  0  0  0  0  0  0  0  0  0  0
   -6.6763    0.4245   -2.2563 C   0  0  0  0  0  0  0  0  0  0  0  0
   -3.6901    0.3144   -2.6602 H   0  0  0  0  0  0  0  0  0  0  0  0
   -5.3400    1.7465   -3.3184 H   0  0  0  0  0  0  0  0  0  0  0  0
   -6.8404    0.0397   -1.2432 H   0  0  0  0  0  0  0  0  0  0  0  0
   -7.5966    0.9269   -2.5721 H   0  0  0  0  0  0  0  0  0  0  0  0
   -6.5133   -0.4347   -2.9158 H   0  0  0  0  0  0  0  0  0  0  0  0
   -6.5503    3.5020   -1.8829 N   0  0  0  0  0  0  0  0  0  0  0  0
   -6.9139    4.7050   -1.1712 C   0  0  0  0  0  0  0  0  0  0  0  0
   -6.9123    3.3804   -2.8241 H   0  0  0  0  0  0  0  0  0  0  0  0
   -7.8421    4.5314   -0.6069 H   0  0  0  0  0  0  0  0  0  0  0  0
   -6.1070    4.9771   -0.4749 H   0  0  0  0  0  0  0  0  0  0  0  0
   -7.0695    5.5232   -1.8898 H   0  0  0  0  0  0  0  0  0  0  0  0
  1  3  1  0  0  0  0
  1  7  1  0  0  0  0
  1  2  2  0  0  0  0
 29 30  1  0  0  0  0
 30 38  1  0  0  0  0
 30 31  2  0  0  0  0
  8  9  1  0  0  0  0
  9 17  1  0  0  0  0
  9 10  2  0  0  0  0
 18 19  1  0  0  0  0
 19 28  1  0  0  0  0
 19 20  2  0  0  0  0
 29 32  1  0  0  0  0
  8 11  1  0  0  0  0
 38 39  1  0  0  0  0
 18 21  1  0  0  0  0
 21 22  1  0  0  0  0
 28 29  1  0  0  0  0
  7  8  1  0  0  0  0
 17 18  1  0  0  0  0
  3  4  1  0  0  0  0
  3  5  1  0  0  0  0
  3  6  1  0  0  0  0
 32 35  1  0  0  0  0
 32 36  1  0  0  0  0
 32 37  1  0  0  0  0
 11 14  1  0  0  0  0
 11 15  1  0  0  0  0
 11 16  1  0  0  0  0
 39 41  1  0  0  0  0
 39 42  1  0  0  0  0
 39 43  1  0  0  0  0
 21 25  1  0  0  0  0
 21 26  1  0  0  0  0
 29 34  1  0  0  0  0
  8 13  1  0  0  0  0
 18 24  1  0  0  0  0
 38 40  1  0  0  0  0
  7 12  1  0  0  0  0
 28 33  1  0  0  0  0
 17 23  1  0  0  0  0
 22 27  1  0  0  0  0
M  END
$$$$

  -OEChem-05262214473D

 43 42  0     1  0  0  0  0  0999 V2000
    0.7424   -1.0926    4.5665 C   0  0  0  0  0  0  0  0  0  0  0  0
    0.1409   -0.5364    5.4779 O   0  0  0  0  0  0  0  0  0  0  0  0
    1.7940   -2.1023    4.8871 C   0  0  0  0  0  0  0  0  0  0  0  0
    2.7935   -1.6502    4.9904 H   0  0  0  0  0  0  0  0  0  0  0  0
    1.6064   -2.6156    5.8438 H   0  0  0  0  0  0  0  0  0  0  0  0
    1.9156   -2.9078    4.1453 H   0  0  0  0  0  0  0  0  0  0  0  0
    0.5488   -0.8838    3.2109 N   0  0  0  0  0  0  0  0  0  0  0  0
   -0.4159    0.0446    2.6829 C   0  0  2  0  0  0  0  0  0  0  0  0
   -0.7551   -0.3867    1.2623 C   0  0  0  0  0  0  0  0  0  0  0  0
   -0.0106   -1.0851    0.5774 O   0  0  0  0  0  0  0  0  0  0  0  0
    0.1168    1.4689    2.7060 C   0  0  0  0  0  0  0  0  0  0  0  0
    1.1183   -1.4145    2.5542 H   0  0  0  0  0  0  0  0  0  0  0  0
   -1.3088   -0.0350    3.3125 H   0  0  0  0  0  0  0  0  0  0  0  0
    1.0116    1.5681    2.0808 H   0  0  0  0  0  0  0  0  0  0  0  0
   -0.6289    2.1775    2.3307 H   0  0  0  0  0  0  0  0  0  0  0  0
    0.3882    1.7670    3.7245 H   0  0  0  0  0  0  0  0  0  0  0  0
   -1.9689    0.1350    0.8298 N   0  0  0  0  0  0  0  0  0  0  0  0
   -2.5039   -0.1183   -0.4830 C   0  0  2  0  0  0  0  0  0  0  0  0
   -3.6224    0.8846   -0.7439 C   0  0  0  0  0  0  0  0  0  0  0  0
   -3.9366    1.7614    0.0584 O   0  0  0  0  0  0  0  0  0  0  0  0
   -2.9837   -1.5589   -0.6286 C   0  0  0  0  0  0  0  0  0  0  0  0
   -4.0979   -1.7958    0.2245 O   0  0  0  0  0  0  0  0  0  0  0  0
   -2.5276    0.6894    1.4750 H   0  0  0  0  0  0  0  0  0  0  0  0
   -1.6877    0.0693   -1.1901 H   0  0  0  0  0  0  0  0  0  0  0  0
   -2.1930   -2.2660   -0.3583 H   0  0  0  0  0  0  0  0  0  0  0  0
   -3.2959   -1.7584   -1.6593 H   0  0  0  0  0  0  0  0  0  0  0  0
   -4.7937   -1.1768   -0.0481 H   0  0  0  0  0  0  0  0  0  0  0  0
   -4.1977    0.7115   -1.9948 N   0  0  0  0  0  0  0  0  0  0  0  0
   -5.2587    1.5565   -2.4917 C   0  0  2  0  0  0  0  0  0  0  0  0
   -5.0327    2.9622   -1.9510 C   0  0  0  0  0  0  0  0  0  0  0  0
   -4.3693    3.1944   -0.9425 O   0  0  0  0  0  0  0  0  0  0  0  0
   -6.6246    1.0290   -2.0806 C   0  0  0  0  0  0  0  0  0  0  0  0
   -3.8461   -0.0165   -2.6097 H   0  0  0  0  0  0  0  0  0  0  0  0
   -5.1704    1.5659   -3.5835 H   0  0  0  0  0  0  0  0  0  0  0  0
   -6.7316    1.0122   -0.9898 H   0  0  0  0  0  0  0  0  0  0  0  0
   -7.4287    1.6546   -2.4819 H   0  0  0  0  0  0  0  0  0  0  0  0
   -6.7735    0.0069   -2.4450 H   0  0  0  0  0  0  0  0  0  0  0  0
   -5.6947    3.9231   -2.7024 N   0  0  0  0  0  0  0  0  0  0  0  0
   -5.6464    5.3311   -2.3845 C   0  0  0  0  0  0  0  0  0  0  0  0
   -6.2062    3.6422   -3.5338 H   0  0  0  0  0  0  0  0  0  0  0  0
   -6.4982    5.5913   -1.7390 H   0  0  0  0  0  0  0  0  0  0  0  0
   -4.7064    5.5562   -1.8593 H   0  0  0  0  0  0  0  0  0  0  0  0
   -5.6973    5.9185   -3.3131 H   0  0  0  0  0  0  0  0  0  0  0  0
  1  3  1  0  0  0  0
  1  7  1  0  0  0  0
  1  2  2  0  0  0  0
 29 30  1  0  0  0  0
 30 38  1  0  0  0  0
 30 31  2  0  0  0  0
  8  9  1  0  0  0  0
  9 17  1  0  0  0  0
  9 10  2  0  0  0  0
 18 19  1  0  0  0  0
 19 28  1  0  0  0  0
 19 20  2  0  0  0  0
 29 32  1  0  0  0  0
  8 11  1  0  0  0  0
 38 39  1  0  0  0  0
 18 21  1  0  0  0  0
 21 22  1  0  0  0  0
 28 29  1  0  0  0  0
  7  8  1  0  0  0  0
 17 18  1  0  0  0  0
  3  4  1  0  0  0  0
  3  5  1  0  0  0  0
  3  6  1  0  0  0  0
 32 35  1  0  0  0  0
 32 36  1  0  0  0  0
 32 37  1  0  0  0  0
 11 14  1  0  0  0  0
 11 15  1  0  0  0  0
 11 16  1  0  0  0  0
 39 41  1  0  0  0  0
 39 42  1  0  0  0  0
 39 43  1  0  0  0  0
 21 25  1  0  0  0  0
 21 26  1  0  0  0  0
 29 34  1  0  0  0  0
  8 13  1  0  0  0  0
 18 24  1  0  0  0  0
 38 40  1  0  0  0  0
  7 12  1  0  0  0  0
 28 33  1  0  0  0  0
 17 23  1  0  0  0  0
 22 27  1  0  0  0  0
M  END
$$$$

  -OEChem-05262214473D

 43 42  0     1  0  0  0  0  0999 V2000
    0.7424   -1.0926    4.5665 C   0  0  0  0  0  0  0  0  0  0  0  0
    0.1409   -0.5364    5.4779 O   0  0  0  0  0  0  0  0  0  0  0  0
    1.7940   -2.1023    4.8871 C   0  0  0  0  0  0  0  0  0  0  0  0
    2.7935   -1.6502    4.9904 H   0  0  0  0  0  0  0  0  0  0  0  0
    1.6064   -2.6156    5.8438 H   0  0  0  0  0  0  0  0  0  0  0  0
    1.9156   -2.9078    4.1453 H   0  0  0  0  0  0  0  0  0  0  0  0
    0.5488   -0.8838    3.2109 N   0  0  0  0  0  0  0  0  0  0  0  0
   -0.4159    0.0446    2.6829 C   0  0  2  0  0  0  0  0  0  0  0  0
   -0.7551   -0.3867    1.2623 C   0  0  0  0  0  0  0  0  0  0  0  0
   -0.0106   -1.0851    0.5774 O   0  0  0  0  0  0  0  0  0  0  0  0
    0.1168    1.4689    2.7060 C   0  0  0  0  0  0  0  0  0  0  0  0
    1.1183   -1.4145    2.5542 H   0  0  0  0  0  0  0  0  0  0  0  0
   -1.3088   -0.0350    3.3125 H   0  0  0  0  0  0  0  0  0  0  0  0
    1.0116    1.5681    2.0808 H   0  0  0  0  0  0  0  0  0  0  0  0
   -0.6289    2.1775    2.3307 H   0  0  0  0  0  0  0  0  0  0  0  0
    0.3882    1.7670    3.7245 H   0  0  0  0  0  0  0  0  0  0  0  0
   -1.9689    0.1350    0.8298 N   0  0  0  0  0  0  0  0  0  0  0  0
   -2.5039   -0.1183   -0.4830 C   0  0  2  0  0  0  0  0  0  0  0  0
   -3.6224    0.8846   -0.7439 C   0  0  0  0  0  0  0  0  0  0  0  0
   -3.7672    1.9128   -0.0858 O   0  0  0  0  0  0  0  0  0  0  0  0
   -2.9837   -1.5589   -0.6286 C   0  0  0  0  0  0  0  0  0  0  0  0
   -4.0979   -1.7958    0.2245 O   0  0  0  0  0  0  0  0  0  0  0  0
   -2.5276    0.6894    1.4750 H   0  0  0  0  0  0  0  0  0  0  0  0
   -1.6877    0.0693   -1.1901 H   0  0  0  0  0  0  0  0  0  0  0  0
   -2.1930   -2.2660   -0.3583 H   0  0  0  0  0  0  0  0  0  0  0  0
   -3.2959   -1.7584   -1.6593 H   0  0  0  0  0  0  0  0  0  0  0  0
   -4.7937   -1.1768   -0.0481 H   0  0  0  0  0  0  0  0  0  0  0  0
   -4.4118    0.5171   -1.8244 N   0  0  0  0  0  0  0  0  0  0  0  0
   -5.5193    1.3177   -2.2924 C   0  0  2  0  0  0  0  0  0  0  0  0
   -5.1633    2.7831   -2.0794 C   0  0  0  0  0  0  0  0  0  0  0  0
   -4.3279    3.1581   -1.2593 O   0  0  0  0  0  0  0  0  0  0  0  0
   -6.8066    0.9599   -1.5661 C   0  0  0  0  0  0  0  0  0  0  0  0
   -4.1933   -0.3325   -2.3363 H   0  0  0  0  0  0  0  0  0  0  0  0
   -5.6227    1.1186   -3.3646 H   0  0  0  0  0  0  0  0  0  0  0  0
   -6.7220    1.1528   -0.4904 H   0  0  0  0  0  0  0  0  0  0  0  0
   -7.6507    1.5475   -1.9418 H   0  0  0  0  0  0  0  0  0  0  0  0
   -7.0452   -0.1012   -1.6957 H   0  0  0  0  0  0  0  0  0  0  0  0
   -5.9193    3.6259   -2.8822 N   0  0  0  0  0  0  0  0  0  0  0  0
   -5.7770    5.0629   -2.8555 C   0  0  0  0  0  0  0  0  0  0  0  0
   -6.5756    3.2268   -3.5468 H   0  0  0  0  0  0  0  0  0  0  0  0
   -6.4956    5.4898   -2.1404 H   0  0  0  0  0  0  0  0  0  0  0  0
   -4.7539    5.3242   -2.5473 H   0  0  0  0  0  0  0  0  0  0  0  0
   -5.9728    5.4693   -3.8587 H   0  0  0  0  0  0  0  0  0  0  0  0
  1  3  1  0  0  0  0
  1  7  1  0  0  0  0
  1  2  2  0  0  0  0
 29 30  1  0  0  0  0
 30 38  1  0  0  0  0
 30 31  2  0  0  0  0
  8  9  1  0  0  0  0
  9 17  1  0  0  0  0
  9 10  2  0  0  0  0
 18 19  1  0  0  0  0
 19 28  1  0  0  0  0
 19 20  2  0  0  0  0
 29 32  1  0  0  0  0
  8 11  1  0  0  0  0
 38 39  1  0  0  0  0
 18 21  1  0  0  0  0
 21 22  1  0  0  0  0
 28 29  1  0  0  0  0
  7  8  1  0  0  0  0
 17 18  1  0  0  0  0
  3  4  1  0  0  0  0
  3  5  1  0  0  0  0
  3  6  1  0  0  0  0
 32 35  1  0  0  0  0
 32 36  1  0  0  0  0
 32 37  1  0  0  0  0
 11 14  1  0  0  0  0
 11 15  1  0  0  0  0
 11 16  1  0  0  0  0
 39 41  1  0  0  0  0
 39 42  1  0  0  0  0
 39 43  1  0  0  0  0
 21 25  1  0  0  0  0
 21 26  1  0  0  0  0
 29 34  1  0  0  0  0
  8 13  1  0  0  0  0
 18 24  1  0  0  0  0
 38 40  1  0  0  0  0
  7 12  1  0  0  0  0
 28 33  1  0  0  0  0
 17 23  1  0  0  0  0
 22 27  1  0  0  0  0
M  END
$$$$

  -OEChem-05262214473D

 43 42  0     1  0  0  0  0  0999 V2000
    0.7424   -1.0926    4.5665 C   0  0  0  0  0  0  0  0  0  0  0  0
    0.1409   -0.5364    5.4779 O   0  0  0  0  0  0  0  0  0  0  0  0
    1.7940   -2.1023    4.8871 C   0  0  0  0  0  0  0  0  0  0  0  0
    2.7935   -1.6502    4.9904 H   0  0  0  0  0  0  0  0  0  0  0  0
    1.6064   -2.6156    5.8438 H   0  0  0  0  0  0  0  0  0  0  0  0
    1.9156   -2.9078    4.1453 H   0  0  0  0  0  0  0  0  0  0  0  0
    0.5488   -0.8838    3.2109 N   0  0  0  0  0  0  0  0  0  0  0  0
   -0.4159    0.0446    2.6829 C   0  0  2  0  0  0  0  0  0  0  0  0
   -0.7551   -0.3867    1.2623 C   0  0  0  0  0  0  0  0  0  0  0  0
   -0.0106   -1.0851    0.5774 O   0  0  0  0  0  0  0  0  0  0  0  0
    0.1168    1.4689    2.7060 C   0  0  0  0  0  0  0  0  0  0  0  0
    1.1183   -1.4145    2.5542 H   0  0  0  0  0  0  0  0  0  0  0  0
   -1.3088   -0.0350    3.3125 H   0  0  0  0  0  0  0  0  0  0  0  0
    1.0116    1.5681    2.0808 H   0  0  0  0  0  0  0  0  0  0  0  0
   -0.6289    2.1775    2.3307 H   0  0  0  0  0  0  0  0  0  0  0  0
    0.3882    1.7670    3.7245 H   0  0  0  0  0  0  0  0  0  0  0  0
   -1.9689    0.1350    0.8298 N   0  0  0  0  0  0  0  0  0  0  0  0
   -2.5039   -0.1183   -0.4830 C   0  0  2  0  0  0  0  0  0  0  0  0
   -3.6224    0.8846   -0.7439 C   0  0  0  0  0  0  0  0  0  0  0  0
   -3.6214    2.0241   -0.2827 O   0  0  0  0  0  0  0  0  0  0  0  0
   -2.9837   -1.5589   -0.6286 C   0  0  0  0  0  0  0  0  0  0  0  0
   -4.0979   -1.7958    0.2245 O   0  0  0  0  0  0  0  0  0  0  0  0
   -2.5276    0.6894    1.4750 H   0  0  0  0  0  0  0  0  0  0  0  0
   -1.6877    0.0693   -1.1901 H   0  0  0  0  0  0  0  0  0  0  0  0
   -2.1930   -2.2660   -0.3583 H   0  0  0  0  0  0  0  0  0  0  0  0
   -3.2959   -1.7584   -1.6593 H   0  0  0  0  0  0  0  0  0  0  0  0
   -4.7937   -1.1768   -0.0481 H   0  0  0  0  0  0  0  0  0  0  0  0
   -4.5982    0.3712   -1.5865 N   0  0  0  0  0  0  0  0  0  0  0  0
   -5.7476    1.1365   -2.0102 C   0  0  2  0  0  0  0  0  0  0  0  0
   -5.3193    2.5916   -2.1472 C   0  0  0  0  0  0  0  0  0  0  0  0
   -4.3434    3.0612   -1.5655 O   0  0  0  0  0  0  0  0  0  0  0  0
   -6.8978    0.9989   -1.0250 C   0  0  0  0  0  0  0  0  0  0  0  0
   -4.4961   -0.5706   -1.9531 H   0  0  0  0  0  0  0  0  0  0  0  0
   -6.0420    0.7480   -2.9913 H   0  0  0  0  0  0  0  0  0  0  0  0
   -6.6215    1.3830   -0.0362 H   0  0  0  0  0  0  0  0  0  0  0  0
   -7.7779    1.5565   -1.3621 H   0  0  0  0  0  0  0  0  0  0  0  0
   -7.1849   -0.0514   -0.9052 H   0  0  0  0  0  0  0  0  0  0  0  0
   -6.1800    3.3146   -2.9612 N   0  0  0  0  0  0  0  0  0  0  0  0
   -5.9953    4.7202   -3.2373 C   0  0  0  0  0  0  0  0  0  0  0  0
   -6.9531    2.8395   -3.4176 H   0  0  0  0  0  0  0  0  0  0  0  0
   -6.5658    5.3155   -2.5093 H   0  0  0  0  0  0  0  0  0  0  0  0
   -4.9272    4.9717   -3.1598 H   0  0  0  0  0  0  0  0  0  0  0  0
   -6.3518    4.9440   -4.2536 H   0  0  0  0  0  0  0  0  0  0  0  0
  1  3  1  0  0  0  0
  1  7  1  0  0  0  0
  1  2  2  0  0  0  0
 29 30  1  0  0  0  0
 30 38  1  0  0  0  0
 30 31  2  0  0  0  0
  8  9  1  0  0  0  0
  9 17  1  0  0  0  0
  9 10  2  0  0  0  0
 18 19  1  0  0  0  0
 19 28  1  0  0  0  0
 19 20  2  0  0  0  0
 29 32  1  0  0  0  0
  8 11  1  0  0  0  0
 38 39  1  0  0  0  0
 18 21  1  0  0  0  0
 21 22  1  0  0  0  0
 28 29  1  0  0  0  0
  7  8  1  0  0  0  0
 17 18  1  0  0  0  0
  3  4  1  0  0  0  0
  3  5  1  0  0  0  0
  3  6  1  0  0  0  0
 32 35  1  0  0  0  0
 32 36  1  0  0  0  0
 32 37  1  0  0  0  0
 11 14  1  0  0  0  0
 11 15  1  0  0  0  0
 11 16  1  0  0  0  0
 39 41  1  0  0  0  0
 39 42  1  0  0  0  0
 39 43  1  0  0  0  0
 21 25  1  0  0  0  0
 21 26  1  0  0  0  0
 29 34  1  0  0  0  0
  8 13  1  0  0  0  0
 18 24  1  0  0  0  0
 38 40  1  0  0  0  0
  7 12  1  0  0  0  0
 28 33  1  0  0  0  0
 17 23  1  0  0  0  0
 22 27  1  0  0  0  0
M  END
$$$$

  -OEChem-05262214473D

 43 42  0     1  0  0  0  0  0999 V2000
    0.7424   -1.0926    4.5665 C   0  0  0  0  0  0  0  0  0  0  0  0
    0.1409   -0.5364    5.4779 O   0  0  0  0  0  0  0  0  0  0  0  0
    1.7940   -2.1023    4.8871 C   0  0  0  0  0  0  0  0  0  0  0  0
    2.7935   -1.6502    4.9904 H   0  0  0  0  0  0  0  0  0  0  0  0
    1.6064   -2.6156    5.8438 H   0  0  0  0  0  0  0  0  0  0  0  0
    1.9156   -2.9078    4.1453 H   0  0  0  0  0  0  0  0  0  0  0  0
    0.5488   -0.8838    3.2109 N   0  0  0  0  0  0  0  0  0  0  0  0
   -0.4159    0.0446    2.6829 C   0  0  2  0  0  0  0  0  0  0  0  0
   -0.7551   -0.3867    1.2623 C   0  0  0  0  0  0  0  0  0  0  0  0
   -0.0106   -1.0851    0.5774 O   0  0  0  0  0  0  0  0  0  0  0  0
    0.1168    1.4689    2.7060 C   0  0  0  0  0  0  0  0  0  0  0  0
    1.1183   -1.4145    2.5542 H   0  0  0  0  0  0  0  0  0  0  0  0
   -1.3088   -0.0350    3.3125 H   0  0  0  0  0  0  0  0  0  0  0  0
    1.0116    1.5681    2.0808 H   0  0  0  0  0  0  0  0  0  0  0  0
   -0.6289    2.1775    2.3307 H   0  0  0  0  0  0  0  0  0  0  0  0
    0.3882    1.7670    3.7245 H   0  0  0  0  0  0  0  0  0  0  0  0
   -1.9689    0.1350    0.8298 N   0  0  0  0  0  0  0  0  0  0  0  0
   -2.5039   -0.1183   -0.4830 C   0  0  2  0  0  0  0  0  0  0  0  0
   -3.6224    0.8846   -0.7439 C   0  0  0  0  0  0  0  0  0  0  0  0
   -3.5092    2.0878   -0.5188 O   0  0  0  0  0  0  0  0  0  0  0  0
   -2.9837   -1.5589   -0.6286 C   0  0  0  0  0  0  0  0  0  0  0  0
   -4.0979   -1.7958    0.2245 O   0  0  0  0  0  0  0  0  0  0  0  0
   -2.5276    0.6894    1.4750 H   0  0  0  0  0  0  0  0  0  0  0  0
   -1.6877    0.0693   -1.1901 H   0  0  0  0  0  0  0  0  0  0  0  0
   -2.1930   -2.2660   -0.3583 H   0  0  0  0  0  0  0  0  0  0  0  0
   -3.2959   -1.7584   -1.6593 H   0  0  0  0  0  0  0  0  0  0  0  0
   -4.7937   -1.1768   -0.0481 H   0  0  0  0  0  0  0  0  0  0  0  0
   -4.7441    0.2836   -1.2972 N   0  0  0  0  0  0  0  0  0  0  0  0
   -5.9281    1.0251   -1.6644 C   0  0  2  0  0  0  0  0  0  0  0  0
   -5.4899    2.4006   -2.1497 C   0  0  0  0  0  0  0  0  0  0  0  0
   -4.4149    2.9100   -1.8402 O   0  0  0  0  0  0  0  0  0  0  0  0
   -6.8921    1.1433   -0.4942 C   0  0  0  0  0  0  0  0  0  0  0  0
   -4.7339   -0.7143   -1.4863 H   0  0  0  0  0  0  0  0  0  0  0  0
   -6.4000    0.4796   -2.4889 H   0  0  0  0  0  0  0  0  0  0  0  0
   -6.4370    1.6871    0.3416 H   0  0  0  0  0  0  0  0  0  0  0  0
   -7.8016    1.6809   -0.7821 H   0  0  0  0  0  0  0  0  0  0  0  0
   -7.1830    0.1530   -0.1273 H   0  0  0  0  0  0  0  0  0  0  0  0
   -6.4590    3.0105   -2.9340 N   0  0  0  0  0  0  0  0  0  0  0  0
   -6.2863    4.3263   -3.5039 C   0  0  0  0  0  0  0  0  0  0  0  0
   -7.3129    2.5066   -3.1550 H   0  0  0  0  0  0  0  0  0  0  0  0
   -6.7042    5.0802   -2.8206 H   0  0  0  0  0  0  0  0  0  0  0  0
   -5.2145    4.5225   -3.6549 H   0  0  0  0  0  0  0  0  0  0  0  0
   -6.8083    4.3784   -4.4707 H   0  0  0  0  0  0  0  0  0  0  0  0
  1  3  1  0  0  0  0
  1  7  1  0  0  0  0
  1  2  2  0  0  0  0
 29 30  1  0  0  0  0
 30 38  1  0  0  0  0
 30 31  2  0  0  0  0
  8  9  1  0  0  0  0
  9 17  1  0  0  0  0
  9 10  2  0  0  0  0
 18 19  1  0  0  0  0
 19 28  1  0  0  0  0
 19 20  2  0  0  0  0
 29 32  1  0  0  0  0
  8 11  1  0  0  0  0
 38 39  1  0  0  0  0
 18 21  1  0  0  0  0
 21 22  1  0  0  0  0
 28 29  1  0  0  0  0
  7  8  1  0  0  0  0
 17 18  1  0  0  0  0
  3  4  1  0  0  0  0
  3  5  1  0  0  0  0
  3  6  1  0  0  0  0
 32 35  1  0  0  0  0
 32 36  1  0  0  0  0
 32 37  1  0  0  0  0
 11 14  1  0  0  0  0
 11 15  1  0  0  0  0
 11 16  1  0  0  0  0
 39 41  1  0  0  0  0
 39 42  1  0  0  0  0
 39 43  1  0  0  0  0
 21 25  1  0  0  0  0
 21 26  1  0  0  0  0
 29 34  1  0  0  0  0
  8 13  1  0  0  0  0
 18 24  1  0  0  0  0
 38 40  1  0  0  0  0
  7 12  1  0  0  0  0
 28 33  1  0  0  0  0
 17 23  1  0  0  0  0
 22 27  1  0  0  0  0
M  END
$$$$

  -OEChem-05262214473D

 43 42  0     1  0  0  0  0  0999 V2000
    0.7424   -1.0926    4.5665 C   0  0  0  0  0  0  0  0  0  0  0  0
    0.1409   -0.5364    5.4779 O   0  0  0  0  0  0  0  0  0  0  0  0
    1.7940   -2.1023    4.8871 C   0  0  0  0  0  0  0  0  0  0  0  0
    2.7935   -1.6502    4.9904 H   0  0  0  0  0  0  0  0  0  0  0  0
    1.6064   -2.6156    5.8438 H   0  0  0  0  0  0  0  0  0  0  0  0
    1.9156   -2.9078    4.1453 H   0  0  0  0  0  0  0  0  0  0  0  0
    0.5488   -0.8838    3.2109 N   0  0  0  0  0  0  0  0  0  0  0  0
   -0.4159    0.0446    2.6829 C   0  0  2  0  0  0  0  0  0  0  0  0
   -0.7551   -0.3867    1.2623 C   0  0  0  0  0  0  0  0  0  0  0  0
   -0.0106   -1.0851    0.5774 O   0  0  0  0  0  0  0  0  0  0  0  0
    0.1168    1.4689    2.7060 C   0  0  0  0  0  0  0  0  0  0  0  0
    1.1183   -1.4145    2.5542 H   0  0  0  0  0  0  0  0  0  0  0  0
   -1.3088   -0.0350    3.3125 H   0  0  0  0  0  0  0  0  0  0  0  0
    1.0116    1.5681    2.0808 H   0  0  0  0  0  0  0  0  0  0  0  0
   -0.6289    2.1775    2.3307 H   0  0  0  0  0  0  0  0  0  0  0  0
    0.3882    1.7670    3.7245 H   0  0  0  0  0  0  0  0  0  0  0  0
   -1.9689    0.1350    0.8298 N   0  0  0  0  0  0  0  0  0  0  0  0
   -2.5039   -0.1183   -0.4830 C   0  0  2  0  0  0  0  0  0  0  0  0
   -3.6224    0.8846   -0.7439 C   0  0  0  0  0  0  0  0  0  0  0  0
   -3.4382    2.0996   -0.7781 O   0  0  0  0  0  0  0  0  0  0  0  0
   -2.9837   -1.5589   -0.6286 C   0  0  0  0  0  0  0  0  0  0  0  0
   -4.0979   -1.7958    0.2245 O   0  0  0  0  0  0  0  0  0  0  0  0
   -2.5276    0.6894    1.4750 H   0  0  0  0  0  0  0  0  0  0  0  0
   -1.6877    0.0693   -1.1901 H   0  0  0  0  0  0  0  0  0  0  0  0
   -2.1930   -2.2660   -0.3583 H   0  0  0  0  0  0  0  0  0  0  0  0
   -3.2959   -1.7584   -1.6593 H   0  0  0  0  0  0  0  0  0  0  0  0
   -4.7937   -1.1768   -0.0481 H   0  0  0  0  0  0  0  0  0  0  0  0
   -4.8398    0.2604   -0.9763 N   0  0  0  0  0  0  0  0  0  0  0  0
   -6.0486    0.9912   -1.2785 C   0  0  2  0  0  0  0  0  0  0  0  0
   -5.6637    2.2232   -2.0869 C   0  0  0  0  0  0  0  0  0  0  0  0
   -4.5373    2.7151   -2.0647 O   0  0  0  0  0  0  0  0  0  0  0  0
   -6.7899    1.3833   -0.0099 C   0  0  0  0  0  0  0  0  0  0  0  0
   -4.8904   -0.7540   -0.9676 H   0  0  0  0  0  0  0  0  0  0  0  0
   -6.6721    0.3315   -1.8917 H   0  0  0  0  0  0  0  0  0  0  0  0
   -6.1809    2.0444    0.6174 H   0  0  0  0  0  0  0  0  0  0  0  0
   -7.7203    1.9122   -0.2414 H   0  0  0  0  0  0  0  0  0  0  0  0
   -7.0397    0.4981    0.5849 H   0  0  0  0  0  0  0  0  0  0  0  0
   -6.7374    2.7343   -2.8025 N   0  0  0  0  0  0  0  0  0  0  0  0
   -6.6302    3.9081   -3.6371 C   0  0  0  0  0  0  0  0  0  0  0  0
   -7.6304    2.2509   -2.7769 H   0  0  0  0  0  0  0  0  0  0  0  0
   -6.9013    4.8000   -3.0530 H   0  0  0  0  0  0  0  0  0  0  0  0
   -5.5961    4.0074   -3.9990 H   0  0  0  0  0  0  0  0  0  0  0  0
   -7.3113    3.8111   -4.4954 H   0  0  0  0  0  0  0  0  0  0  0  0
  1  3  1  0  0  0  0
  1  7  1  0  0  0  0
  1  2  2  0  0  0  0
 29 30  1  0  0  0  0
 30 38  1  0  0  0  0
 30 31  2  0  0  0  0
  8  9  1  0  0  0  0
  9 17  1  0  0  0  0
  9 10  2  0  0  0  0
 18 19  1  0  0  0  0
 19 28  1  0  0  0  0
 19 20  2  0  0  0  0
 29 32  1  0  0  0  0
  8 11  1  0  0  0  0
 38 39  1  0  0  0  0
 18 21  1  0  0  0  0
 21 22  1  0  0  0  0
 28 29  1  0  0  0  0
  7  8  1  0  0  0  0
 17 18  1  0  0  0  0
  3  4  1  0  0  0  0
  3  5  1  0  0  0  0
  3  6  1  0  0  0  0
 32 35  1  0  0  0  0
 32 36  1  0  0  0  0
 32 37  1  0  0  0  0
 11 14  1  0  0  0  0
 11 15  1  0  0  0  0
 11 16  1  0  0  0  0
 39 41  1  0  0  0  0
 39 42  1  0  0  0  0
 39 43  1  0  0  0  0
 21 25  1  0  0  0  0
 21 26  1  0  0  0  0
 29 34  1  0  0  0  0
  8 13  1  0  0  0  0
 18 24  1  0  0  0  0
 38 40  1  0  0  0  0
  7 12  1  0  0  0  0
 28 33  1  0  0  0  0
 17 23  1  0  0  0  0
 22 27  1  0  0  0  0
M  END
$$$$

  -OEChem-05262214473D

 43 42  0     1  0  0  0  0  0999 V2000
    0.7424   -1.0926    4.5665 C   0  0  0  0  0  0  0  0  0  0  0  0
    0.1409   -0.5364    5.4779 O   0  0  0  0  0  0  0  0  0  0  0  0
    1.7940   -2.1023    4.8871 C   0  0  0  0  0  0  0  0  0  0  0  0
    2.7935   -1.6502    4.9904 H   0  0  0  0  0  0  0  0  0  0  0  0
    1.6064   -2.6156    5.8438 H   0  0  0  0  0  0  0  0  0  0  0  0
    1.9156   -2.9078    4.1453 H   0  0  0  0  0  0  0  0  0  0  0  0
    0.5488   -0.8838    3.2109 N   0  0  0  0  0  0  0  0  0  0  0  0
   -0.4159    0.0446    2.6829 C   0  0  2  0  0  0  0  0  0  0  0  0
   -0.7551   -0.3867    1.2623 C   0  0  0  0  0  0  0  0  0  0  0  0
   -0.0106   -1.0851    0.5774 O   0  0  0  0  0  0  0  0  0  0  0  0
    0.1168    1.4689    2.7060 C   0  0  0  0  0  0  0  0  0  0  0  0
    1.1183   -1.4145    2.5542 H   0  0  0  0  0  0  0  0  0  0  0  0
   -1.3088   -0.0350    3.3125 H   0  0  0  0  0  0  0  0  0  0  0  0
    1.0116    1.5681    2.0808 H   0  0  0  0  0  0  0  0  0  0  0  0
   -0.6289    2.1775    2.3307 H   0  0  0  0  0  0  0  0  0  0  0  0
    0.3882    1.7670    3.7245 H   0  0  0  0  0  0  0  0  0  0  0  0
   -1.9689    0.1350    0.8298 N   0  0  0  0  0  0  0  0  0  0  0  0
   -2.5039   -0.1183   -0.4830 C   0  0  2  0  0  0  0  0  0  0  0  0
   -3.6224    0.8846   -0.7439 C   0  0  0  0  0  0  0  0  0  0  0  0
   -3.4133    2.0585   -1.0428 O   0  0  0  0  0  0  0  0  0  0  0  0
   -2.9837   -1.5589   -0.6286 C   0  0  0  0  0  0  0  0  0  0  0  0
   -4.0979   -1.7958    0.2245 O   0  0  0  0  0  0  0  0  0  0  0  0
   -2.5276    0.6894    1.4750 H   0  0  0  0  0  0  0  0  0  0  0  0
   -1.6877    0.0693   -1.1901 H   0  0  0  0  0  0  0  0  0  0  0  0
   -2.1930   -2.2660   -0.3583 H   0  0  0  0  0  0  0  0  0  0  0  0
   -3.2959   -1.7584   -1.6593 H   0  0  0  0  0  0  0  0  0  0  0  0
   -4.7937   -1.1768   -0.0481 H   0  0  0  0  0  0  0  0  0  0  0  0
   -4.8786    0.3032   -0.6457 N   0  0  0  0  0  0  0  0  0  0  0  0
   -6.1007    1.0370   -0.8788 C   0  0  2  0  0  0  0  0  0  0  0  0
   -5.8286    2.0715   -1.9630 C   0  0  0  0  0  0  0  0  0  0  0  0
   -4.7025    2.4896   -2.2237 O   0  0  0  0  0  0  0  0  0  0  0  0
   -6.5980    1.7026    0.3950 C   0  0  0  0  0  0  0  0  0  0  0  0
   -4.9551   -0.6869   -0.4323 H   0  0  0  0  0  0  0  0  0  0  0  0
   -6.8398    0.3138   -1.2405 H   0  0  0  0  0  0  0  0  0  0  0  0
   -5.8707    2.4306    0.7724 H   0  0  0  0  0  0  0  0  0  0  0  0
   -7.5395    2.2347    0.2231 H   0  0  0  0  0  0  0  0  0  0  0  0
   -6.7648    0.9603    1.1830 H   0  0  0  0  0  0  0  0  0  0  0  0
   -6.9961    2.5048   -2.5757 N   0  0  0  0  0  0  0  0  0  0  0  0
   -7.0036    3.4941   -3.6278 C   0  0  0  0  0  0  0  0  0  0  0  0
   -7.8841    2.0897   -2.3091 H   0  0  0  0  0  0  0  0  0  0  0  0
   -7.1436    4.4938   -3.1908 H   0  0  0  0  0  0  0  0  0  0  0  0
   -6.0462    3.4614   -4.1686 H   0  0  0  0  0  0  0  0  0  0  0  0
   -7.8264    3.2807   -4.3259 H   0  0  0  0  0  0  0  0  0  0  0  0
  1  3  1  0  0  0  0
  1  7  1  0  0  0  0
  1  2  2  0  0  0  0
 29 30  1  0  0  0  0
 30 38  1  0  0  0  0
 30 31  2  0  0  0  0
  8  9  1  0  0  0  0
  9 17  1  0  0  0  0
  9 10  2  0  0  0  0
 18 19  1  0  0  0  0
 19 28  1  0  0  0  0
 19 20  2  0  0  0  0
 29 32  1  0  0  0  0
  8 11  1  0  0  0  0
 38 39  1  0  0  0  0
 18 21  1  0  0  0  0
 21 22  1  0  0  0  0
 28 29  1  0  0  0  0
  7  8  1  0  0  0  0
 17 18  1  0  0  0  0
  3  4  1  0  0  0  0
  3  5  1  0  0  0  0
  3  6  1  0  0  0  0
 32 35  1  0  0  0  0
 32 36  1  0  0  0  0
 32 37  1  0  0  0  0
 11 14  1  0  0  0  0
 11 15  1  0  0  0  0
 11 16  1  0  0  0  0
 39 41  1  0  0  0  0
 39 42  1  0  0  0  0
 39 43  1  0  0  0  0
 21 25  1  0  0  0  0
 21 26  1  0  0  0  0
 29 34  1  0  0  0  0
  8 13  1  0  0  0  0
 18 24  1  0  0  0  0
 38 40  1  0  0  0  0
  7 12  1  0  0  0  0
 28 33  1  0  0  0  0
 17 23  1  0  0  0  0
 22 27  1  0  0  0  0
M  END
$$$$

  -OEChem-05262214473D

 43 42  0     1  0  0  0  0  0999 V2000
    0.7424   -1.0926    4.5665 C   0  0  0  0  0  0  0  0  0  0  0  0
    0.1409   -0.5364    5.4779 O   0  0  0  0  0  0  0  0  0  0  0  0
    1.7940   -2.1023    4.8871 C   0  0  0  0  0  0  0  0  0  0  0  0
    2.7935   -1.6502    4.9904 H   0  0  0  0  0  0  0  0  0  0  0  0
    1.6064   -2.6156    5.8438 H   0  0  0  0  0  0  0  0  0  0  0  0
    1.9156   -2.9078    4.1453 H   0  0  0  0  0  0  0  0  0  0  0  0
    0.5488   -0.8838    3.2109 N   0  0  0  0  0  0  0  0  0  0  0  0
   -0.4159    0.0446    2.6829 C   0  0  2  0  0  0  0  0  0  0  0  0
   -0.7551   -0.3867    1.2623 C   0  0  0  0  0  0  0  0  0  0  0  0
   -0.0106   -1.0851    0.5774 O   0  0  0  0  0  0  0  0  0  0  0  0
    0.1168    1.4689    2.7060 C   0  0  0  0  0  0  0  0  0  0  0  0
    1.1183   -1.4145    2.5542 H   0  0  0  0  0  0  0  0  0  0  0  0
   -1.3088   -0.0350    3.3125 H   0  0  0  0  0  0  0  0  0  0  0  0
    1.0116    1.5681    2.0808 H   0  0  0  0  0  0  0  0  0  0  0  0
   -0.6289    2.1775    2.3307 H   0  0  0  0  0  0  0  0  0  0  0  0
    0.3882    1.7670    3.7245 H   0  0  0  0  0  0  0  0  0  0  0  0
   -1.9689    0.1350    0.8298 N   0  0  0  0  0  0  0  0  0  0  0  0
   -2.5039   -0.1183   -0.4830 C   0  0  2  0  0  0  0  0  0  0  0  0
   -3.6224    0.8846   -0.7439 C   0  0  0  0  0  0  0  0  0  0  0  0
   -3.4360    1.9675   -1.2950 O   0  0  0  0  0  0  0  0  0  0  0  0
   -2.9837   -1.5589   -0.6286 C   0  0  0  0  0  0  0  0  0  0  0  0
   -4.0979   -1.7958    0.2245 O   0  0  0  0  0  0  0  0  0  0  0  0
   -2.5276    0.6894    1.4750 H   0  0  0  0  0  0  0  0  0  0  0  0
   -1.6877    0.0693   -1.1901 H   0  0  0  0  0  0  0  0  0  0  0  0
   -2.1930   -2.2660   -0.3583 H   0  0  0  0  0  0  0  0  0  0  0  0
   -3.2959   -1.7584   -1.6593 H   0  0  0  0  0  0  0  0  0  0  0  0
   -4.7937   -1.1768   -0.0481 H   0  0  0  0  0  0  0  0  0  0  0  0
   -4.8578    0.4090   -0.3278 N   0  0  0  0  0  0  0  0  0  0  0  0
   -6.0810    1.1595   -0.4925 C   0  0  2  0  0  0  0  0  0  0  0  0
   -5.9736    1.9558   -1.7863 C   0  0  0  0  0  0  0  0  0  0  0  0
   -4.8990    2.2488   -2.3064 O   0  0  0  0  0  0  0  0  0  0  0  0
   -6.3297    2.0793    0.6927 C   0  0  0  0  0  0  0  0  0  0  0  0
   -4.9235   -0.5176    0.0830 H   0  0  0  0  0  0  0  0  0  0  0  0
   -6.8917    0.4279   -0.5795 H   0  0  0  0  0  0  0  0  0  0  0  0
   -5.5277    2.8193    0.7959 H   0  0  0  0  0  0  0  0  0  0  0  0
   -7.2715    2.6263    0.5797 H   0  0  0  0  0  0  0  0  0  0  0  0
   -6.3769    1.5081    1.6261 H   0  0  0  0  0  0  0  0  0  0  0  0
   -7.2176    2.3376   -2.2690 N   0  0  0  0  0  0  0  0  0  0  0  0
   -7.3810    3.1126   -3.4767 C   0  0  0  0  0  0  0  0  0  0  0  0
   -8.0566    2.0341   -1.7834 H   0  0  0  0  0  0  0  0  0  0  0  0
   -7.4148    4.1827   -3.2245 H   0  0  0  0  0  0  0  0  0  0  0  0
   -6.5340    2.9217   -4.1521 H   0  0  0  0  0  0  0  0  0  0  0  0
   -8.3187    2.8234   -3.9738 H   0  0  0  0  0  0  0  0  0  0  0  0
  1  3  1  0  0  0  0
  1  7  1  0  0  0  0
  1  2  2  0  0  0  0
 29 30  1  0  0  0  0
 30 38  1  0  0  0  0
 30 31  2  0  0  0  0
  8  9  1  0  0  0  0
  9 17  1  0  0  0  0
  9 10  2  0  0  0  0
 18 19  1  0  0  0  0
 19 28  1  0  0  0  0
 19 20  2  0  0  0  0
 29 32  1  0  0  0  0
  8 11  1  0  0  0  0
 38 39  1  0  0  0  0
 18 21  1  0  0  0  0
 21 22  1  0  0  0  0
 28 29  1  0  0  0  0
  7  8  1  0  0  0  0
 17 18  1  0  0  0  0
  3  4  1  0  0  0  0
  3  5  1  0  0  0  0
  3  6  1  0  0  0  0
 32 35  1  0  0  0  0
 32 36  1  0  0  0  0
 32 37  1  0  0  0  0
 11 14  1  0  0  0  0
 11 15  1  0  0  0  0
 11 16  1  0  0  0  0
 39 41  1  0  0  0  0
 39 42  1  0  0  0  0
 39 43  1  0  0  0  0
 21 25  1  0  0  0  0
 21 26  1  0  0  0  0
 29 34  1  0  0  0  0
  8 13  1  0  0  0  0
 18 24  1  0  0  0  0
 38 40  1  0  0  0  0
  7 12  1  0  0  0  0
 28 33  1  0  0  0  0
 17 23  1  0  0  0  0
 22 27  1  0  0  0  0
M  END
$$$$

  -OEChem-05262214473D

 43 42  0     1  0  0  0  0  0999 V2000
    0.7424   -1.0926    4.5665 C   0  0  0  0  0  0  0  0  0  0  0  0
    0.1409   -0.5364    5.4779 O   0  0  0  0  0  0  0  0  0  0  0  0
    1.7940   -2.1023    4.8871 C   0  0  0  0  0  0  0  0  0  0  0  0
    2.7935   -1.6502    4.9904 H   0  0  0  0  0  0  0  0  0  0  0  0
    1.6064   -2.6156    5.8438 H   0  0  0  0  0  0  0  0  0  0  0  0
    1.9156   -2.9078    4.1453 H   0  0  0  0  0  0  0  0  0  0  0  0
    0.5488   -0.8838    3.2109 N   0  0  0  0  0  0  0  0  0  0  0  0
   -0.4159    0.0446    2.6829 C   0  0  2  0  0  0  0  0  0  0  0  0
   -0.7551   -0.3867    1.2623 C   0  0  0  0  0  0  0  0  0  0  0  0
   -0.0106   -1.0851    0.5774 O   0  0  0  0  0  0  0  0  0  0  0  0
    0.1168    1.4689    2.7060 C   0  0  0  0  0  0  0  0  0  0  0  0
    1.1183   -1.4145    2.5542 H   0  0  0  0  0  0  0  0  0  0  0  0
   -1.3088   -0.0350    3.3125 H   0  0  0  0  0  0  0  0  0  0  0  0
    1.0116    1.5681    2.0808 H   0  0  0  0  0  0  0  0  0  0  0  0
   -0.6289    2.1775    2.3307 H   0  0  0  0  0  0  0  0  0  0  0  0
    0.3882    1.7670    3.7245 H   0  0  0  0  0  0  0  0  0  0  0  0
   -1.9689    0.1350    0.8298 N   0  0  0  0  0  0  0  0  0  0  0  0
   -2.5039   -0.1183   -0.4830 C   0  0  2  0  0  0  0  0  0  0  0  0
   -3.6224    0.8846   -0.7439 C   0  0  0  0  0  0  0  0  0  0  0  0
   -3.5050    1.8328   -1.5175 O   0  0  0  0  0  0  0  0  0  0  0  0
   -2.9837   -1.5589   -0.6286 C   0  0  0  0  0  0  0  0  0  0  0  0
   -4.0979   -1.7958    0.2245 O   0  0  0  0  0  0  0  0  0  0  0  0
   -2.5276    0.6894    1.4750 H   0  0  0  0  0  0  0  0  0  0  0  0
   -1.6877    0.0693   -1.1901 H   0  0  0  0  0  0  0  0  0  0  0  0
   -2.1930   -2.2660   -0.3583 H   0  0  0  0  0  0  0  0  0  0  0  0
   -3.2959   -1.7584   -1.6593 H   0  0  0  0  0  0  0  0  0  0  0  0
   -4.7937   -1.1768   -0.0481 H   0  0  0  0  0  0  0  0  0  0  0  0
   -4.7790    0.5706   -0.0444 N   0  0  0  0  0  0  0  0  0  0  0  0
   -5.9908    1.3503   -0.1460 C   0  0  2  0  0  0  0  0  0  0  0  0
   -6.0887    1.8839   -1.5691 C   0  0  0  0  0  0  0  0  0  0  0  0
   -5.1136    2.0094   -2.3070 O   0  0  0  0  0  0  0  0  0  0  0  0
   -6.0031    2.4878    0.8631 C   0  0  0  0  0  0  0  0  0  0  0  0
   -4.7978   -0.2577    0.5431 H   0  0  0  0  0  0  0  0  0  0  0  0
   -6.8243    0.6658    0.0461 H   0  0  0  0  0  0  0  0  0  0  0  0
   -5.1751    3.1840    0.6865 H   0  0  0  0  0  0  0  0  0  0  0  0
   -6.9346    3.0604    0.8042 H   0  0  0  0  0  0  0  0  0  0  0  0
   -5.9026    2.1042    1.8842 H   0  0  0  0  0  0  0  0  0  0  0  0
   -7.3867    2.2441   -1.9032 N   0  0  0  0  0  0  0  0  0  0  0  0
   -7.7367    2.7894   -3.1940 C   0  0  0  0  0  0  0  0  0  0  0  0
   -8.1362    2.0877   -1.2357 H   0  0  0  0  0  0  0  0  0  0  0  0
   -7.6961    3.8879   -3.1519 H   0  0  0  0  0  0  0  0  0  0  0  0
   -7.0262    2.4252   -3.9507 H   0  0  0  0  0  0  0  0  0  0  0  0
   -8.7544    2.4703   -3.4630 H   0  0  0  0  0  0  0  0  0  0  0  0
  1  3  1  0  0  0  0
  1  7  1  0  0  0  0
  1  2  2  0  0  0  0
 29 30  1  0  0  0  0
 30 38  1  0  0  0  0
 30 31  2  0  0  0  0
  8  9  1  0  0  0  0
  9 17  1  0  0  0  0
  9 10  2  0  0  0  0
 18 19  1  0  0  0  0
 19 28  1  0  0  0  0
 19 20  2  0  0  0  0
 29 32  1  0  0  0  0
  8 11  1  0  0  0  0
 38 39  1  0  0  0  0
 18 21  1  0  0  0  0
 21 22  1  0  0  0  0
 28 29  1  0  0  0  0
  7  8  1  0  0  0  0
 17 18  1  0  0  0  0
  3  4  1  0  0  0  0
  3  5  1  0  0  0  0
  3  6  1  0  0  0  0
 32 35  1  0  0  0  0
 32 36  1  0  0  0  0
 32 37  1  0  0  0  0
 11 14  1  0  0  0  0
 11 15  1  0  0  0  0
 11 16  1  0  0  0  0
 39 41  1  0  0  0  0
 39 42  1  0  0  0  0
 39 43  1  0  0  0  0
 21 25  1  0  0  0  0
 21 26  1  0  0  0  0
 29 34  1  0  0  0  0
  8 13  1  0  0  0  0
 18 24  1  0  0  0  0
 38 40  1  0  0  0  0
  7 12  1  0  0  0  0
 28 33  1  0  0  0  0
 17 23  1  0  0  0  0
 22 27  1  0  0  0  0
M  END
$$$$

  -OEChem-05262214473D

 43 42  0     1  0  0  0  0  0999 V2000
    0.7424   -1.0926    4.5665 C   0  0  0  0  0  0  0  0  0  0  0  0
    0.1409   -0.5364    5.4779 O   0  0  0  0  0  0  0  0  0  0  0  0
    1.7940   -2.1023    4.8871 C   0  0  0  0  0  0  0  0  0  0  0  0
    2.7935   -1.6502    4.9904 H   0  0  0  0  0  0  0  0  0  0  0  0
    1.6064   -2.6156    5.8438 H   0  0  0  0  0  0  0  0  0  0  0  0
    1.9156   -2.9078    4.1453 H   0  0  0  0  0  0  0  0  0  0  0  0
    0.5488   -0.8838    3.2109 N   0  0  0  0  0  0  0  0  0  0  0  0
   -0.4159    0.0446    2.6829 C   0  0  2  0  0  0  0  0  0  0  0  0
   -0.7551   -0.3867    1.2623 C   0  0  0  0  0  0  0  0  0  0  0  0
   -0.0106   -1.0851    0.5774 O   0  0  0  0  0  0  0  0  0  0  0  0
    0.1168    1.4689    2.7060 C   0  0  0  0  0  0  0  0  0  0  0  0
    1.1183   -1.4145    2.5542 H   0  0  0  0  0  0  0  0  0  0  0  0
   -1.3088   -0.0350    3.3125 H   0  0  0  0  0  0  0  0  0  0  0  0
    1.0116    1.5681    2.0808 H   0  0  0  0  0  0  0  0  0  0  0  0
   -0.6289    2.1775    2.3307 H   0  0  0  0  0  0  0  0  0  0  0  0
    0.3882    1.7670    3.7245 H   0  0  0  0  0  0  0  0  0  0  0  0
   -1.9689    0.1350    0.8298 N   0  0  0  0  0  0  0  0  0  0  0  0
   -2.5039   -0.1183   -0.4830 C   0  0  2  0  0  0  0  0  0  0  0  0
   -3.6224    0.8846   -0.7439 C   0  0  0  0  0  0  0  0  0  0  0  0
   -3.6154    1.6634   -1.6950 O   0  0  0  0  0  0  0  0  0  0  0  0
   -2.9837   -1.5589   -0.6286 C   0  0  0  0  0  0  0  0  0  0  0  0
   -4.0979   -1.7958    0.2245 O   0  0  0  0  0  0  0  0  0  0  0  0
   -2.5276    0.6894    1.4750 H   0  0  0  0  0  0  0  0  0  0  0  0
   -1.6877    0.0693   -1.1901 H   0  0  0  0  0  0  0  0  0  0  0  0
   -2.1930   -2.2660   -0.3583 H   0  0  0  0  0  0  0  0  0  0  0  0
   -3.2959   -1.7584   -1.6593 H   0  0  0  0  0  0  0  0  0  0  0  0
   -4.7937   -1.1768   -0.0481 H   0  0  0  0  0  0  0  0  0  0  0  0
   -4.6475    0.7770    0.1852 N   0  0  0  0  0  0  0  0  0  0  0  0
   -5.8362    1.5963    0.1371 C   0  0  2  0  0  0  0  0  0  0  0  0
   -6.1661    1.8609   -1.3260 C   0  0  0  0  0  0  0  0  0  0  0  0
   -5.3316    1.7874   -2.2257 O   0  0  0  0  0  0  0  0  0  0  0  0
   -5.6405    2.9004    0.8946 C   0  0  0  0  0  0  0  0  0  0  0  0
   -4.5865    0.0752    0.9169 H   0  0  0  0  0  0  0  0  0  0  0  0
   -6.6421    1.0115    0.5938 H   0  0  0  0  0  0  0  0  0  0  0  0
   -4.8370    3.4999    0.4515 H   0  0  0  0  0  0  0  0  0  0  0  0
   -6.5517    3.5075    0.8813 H   0  0  0  0  0  0  0  0  0  0  0  0
   -5.3741    2.7079    1.9395 H   0  0  0  0  0  0  0  0  0  0  0  0
   -7.4919    2.2308   -1.5035 N   0  0  0  0  0  0  0  0  0  0  0  0
   -8.0465    2.5467   -2.7991 C   0  0  0  0  0  0  0  0  0  0  0  0
   -8.1175    2.2471   -0.7034 H   0  0  0  0  0  0  0  0  0  0  0  0
   -7.9686    3.6293   -2.9778 H   0  0  0  0  0  0  0  0  0  0  0  0
   -7.4894    2.0056   -3.5781 H   0  0  0  0  0  0  0  0  0  0  0  0
   -9.1040    2.2455   -2.8284 H   0  0  0  0  0  0  0  0  0  0  0  0
  1  3  1  0  0  0  0
  1  7  1  0  0  0  0
  1  2  2  0  0  0  0
 29 30  1  0  0  0  0
 30 38  1  0  0  0  0
 30 31  2  0  0  0  0
  8  9  1  0  0  0  0
  9 17  1  0  0  0  0
  9 10  2  0  0  0  0
 18 19  1  0  0  0  0
 19 28  1  0  0  0  0
 19 20  2  0  0  0  0
 29 32  1  0  0  0  0
  8 11  1  0  0  0  0
 38 39  1  0  0  0  0
 18 21  1  0  0  0  0
 21 22  1  0  0  0  0
 28 29  1  0  0  0  0
  7  8  1  0  0  0  0
 17 18  1  0  0  0  0
  3  4  1  0  0  0  0
  3  5  1  0  0  0  0
  3  6  1  0  0  0  0
 32 35  1  0  0  0  0
 32 36  1  0  0  0  0
 32 37  1  0  0  0  0
 11 14  1  0  0  0  0
 11 15  1  0  0  0  0
 11 16  1  0  0  0  0
 39 41  1  0  0  0  0
 39 42  1  0  0  0  0
 39 43  1  0  0  0  0
 21 25  1  0  0  0  0
 21 26  1  0  0  0  0
 29 34  1  0  0  0  0
  8 13  1  0  0  0  0
 18 24  1  0  0  0  0
 38 40  1  0  0  0  0
  7 12  1  0  0  0  0
 28 33  1  0  0  0  0
 17 23  1  0  0  0  0
 22 27  1  0  0  0  0
M  END
$$$$

  -OEChem-05262214473D

 43 42  0     1  0  0  0  0  0999 V2000
    0.7424   -1.0926    4.5665 C   0  0  0  0  0  0  0  0  0  0  0  0
    0.1409   -0.5364    5.4779 O   0  0  0  0  0  0  0  0  0  0  0  0
    1.7940   -2.1023    4.8871 C   0  0  0  0  0  0  0  0  0  0  0  0
    2.7935   -1.6502    4.9904 H   0  0  0  0  0  0  0  0  0  0  0  0
    1.6064   -2.6156    5.8438 H   0  0  0  0  0  0  0  0  0  0  0  0
    1.9156   -2.9078    4.1453 H   0  0  0  0  0  0  0  0  0  0  0  0
    0.5488   -0.8838    3.2109 N   0  0  0  0  0  0  0  0  0  0  0  0
   -0.4159    0.0446    2.6829 C   0  0  2  0  0  0  0  0  0  0  0  0
   -0.7551   -0.3867    1.2623 C   0  0  0  0  0  0  0  0  0  0  0  0
   -0.0106   -1.0851    0.5774 O   0  0  0  0  0  0  0  0  0  0  0  0
    0.1168    1.4689    2.7060 C   0  0  0  0  0  0  0  0  0  0  0  0
    1.1183   -1.4145    2.5542 H   0  0  0  0  0  0  0  0  0  0  0  0
   -1.3088   -0.0350    3.3125 H   0  0  0  0  0  0  0  0  0  0  0  0
    1.0116    1.5681    2.0808 H   0  0  0  0  0  0  0  0  0  0  0  0
   -0.6289    2.1775    2.3307 H   0  0  0  0  0  0  0  0  0  0  0  0
    0.3882    1.7670    3.7245 H   0  0  0  0  0  0  0  0  0  0  0  0
   -1.9689    0.1350    0.8298 N   0  0  0  0  0  0  0  0  0  0  0  0
   -2.5039   -0.1183   -0.4830 C   0  0  2  0  0  0  0  0  0  0  0  0
   -3.6224    0.8846   -0.7439 C   0  0  0  0  0  0  0  0  0  0  0  0
   -3.7598    1.4710   -1.8155 O   0  0  0  0  0  0  0  0  0  0  0  0
   -2.9837   -1.5589   -0.6286 C   0  0  0  0  0  0  0  0  0  0  0  0
   -4.0979   -1.7958    0.2245 O   0  0  0  0  0  0  0  0  0  0  0  0
   -2.5276    0.6894    1.4750 H   0  0  0  0  0  0  0  0  0  0  0  0
   -1.6877    0.0693   -1.1901 H   0  0  0  0  0  0  0  0  0  0  0  0
   -2.1930   -2.2660   -0.3583 H   0  0  0  0  0  0  0  0  0  0  0  0
   -3.2959   -1.7584   -1.6593 H   0  0  0  0  0  0  0  0  0  0  0  0
   -4.7937   -1.1768   -0.0481 H   0  0  0  0  0  0  0  0  0  0  0  0
   -4.4722    1.0142    0.3455 N   0  0  0  0  0  0  0  0  0  0  0  0
   -5.6278    1.8809    0.3375 C   0  0  2  0  0  0  0  0  0  0  0  0
   -6.2004    1.8882   -1.0737 C   0  0  0  0  0  0  0  0  0  0  0  0
   -5.5382    1.5981   -2.0678 O   0  0  0  0  0  0  0  0  0  0  0  0
   -5.2667    3.2887    0.7849 C   0  0  0  0  0  0  0  0  0  0  0  0
   -4.3040    0.4583    1.1788 H   0  0  0  0  0  0  0  0  0  0  0  0
   -6.3576    1.4412    1.0261 H   0  0  0  0  0  0  0  0  0  0  0  0
   -4.5364    3.7455    0.1070 H   0  0  0  0  0  0  0  0  0  0  0  0
   -6.1489    3.9370    0.8057 H   0  0  0  0  0  0  0  0  0  0  0  0
   -4.8275    3.2782    1.7883 H   0  0  0  0  0  0  0  0  0  0  0  0
   -7.5261    2.2985   -1.0968 N   0  0  0  0  0  0  0  0  0  0  0  0
   -8.2892    2.4009   -2.3187 C   0  0  0  0  0  0  0  0  0  0  0  0
   -8.0017    2.5013   -0.2226 H   0  0  0  0  0  0  0  0  0  0  0  0
   -8.2136    3.4246   -2.7141 H   0  0  0  0  0  0  0  0  0  0  0  0
   -7.8919    1.6915   -3.0596 H   0  0  0  0  0  0  0  0  0  0  0  0
   -9.3437    2.1643   -2.1133 H   0  0  0  0  0  0  0  0  0  0  0  0
  1  3  1  0  0  0  0
  1  7  1  0  0  0  0
  1  2  2  0  0  0  0
 29 30  1  0  0  0  0
 30 38  1  0  0  0  0
 30 31  2  0  0  0  0
  8  9  1  0  0  0  0
  9 17  1  0  0  0  0
  9 10  2  0  0  0  0
 18 19  1  0  0  0  0
 19 28  1  0  0  0  0
 19 20  2  0  0  0  0
 29 32  1  0  0  0  0
  8 11  1  0  0  0  0
 38 39  1  0  0  0  0
 18 21  1  0  0  0  0
 21 22  1  0  0  0  0
 28 29  1  0  0  0  0
  7  8  1  0  0  0  0
 17 18  1  0  0  0  0
  3  4  1  0  0  0  0
  3  5  1  0  0  0  0
  3  6  1  0  0  0  0
 32 35  1  0  0  0  0
 32 36  1  0  0  0  0
 32 37  1  0  0  0  0
 11 14  1  0  0  0  0
 11 15  1  0  0  0  0
 11 16  1  0  0  0  0
 39 41  1  0  0  0  0
 39 42  1  0  0  0  0
 39 43  1  0  0  0  0
 21 25  1  0  0  0  0
 21 26  1  0  0  0  0
 29 34  1  0  0  0  0
  8 13  1  0  0  0  0
 18 24  1  0  0  0  0
 38 40  1  0  0  0  0
  7 12  1  0  0  0  0
 28 33  1  0  0  0  0
 17 23  1  0  0  0  0
 22 27  1  0  0  0  0
M  END
$$$$

  -OEChem-05262214473D

 43 42  0     1  0  0  0  0  0999 V2000
    0.7424   -1.0926    4.5665 C   0  0  0  0  0  0  0  0  0  0  0  0
    0.1409   -0.5364    5.4779 O   0  0  0  0  0  0  0  0  0  0  0  0
    1.7940   -2.1023    4.8871 C   0  0  0  0  0  0  0  0  0  0  0  0
    2.7935   -1.6502    4.9904 H   0  0  0  0  0  0  0  0  0  0  0  0
    1.6064   -2.6156    5.8438 H   0  0  0  0  0  0  0  0  0  0  0  0
    1.9156   -2.9078    4.1453 H   0  0  0  0  0  0  0  0  0  0  0  0
    0.5488   -0.8838    3.2109 N   0  0  0  0  0  0  0  0  0  0  0  0
   -0.4159    0.0446    2.6829 C   0  0  2  0  0  0  0  0  0  0  0  0
   -0.7551   -0.3867    1.2623 C   0  0  0  0  0  0  0  0  0  0  0  0
   -0.0106   -1.0851    0.5774 O   0  0  0  0  0  0  0  0  0  0  0  0
    0.1168    1.4689    2.7060 C   0  0  0  0  0  0  0  0  0  0  0  0
    1.1183   -1.4145    2.5542 H   0  0  0  0  0  0  0  0  0  0  0  0
   -1.3088   -0.0350    3.3125 H   0  0  0  0  0  0  0  0  0  0  0  0
    1.0116    1.5681    2.0808 H   0  0  0  0  0  0  0  0  0  0  0  0
   -0.6289    2.1775    2.3307 H   0  0  0  0  0  0  0  0  0  0  0  0
    0.3882    1.7670    3.7245 H   0  0  0  0  0  0  0  0  0  0  0  0
   -1.9689    0.1350    0.8298 N   0  0  0  0  0  0  0  0  0  0  0  0
   -2.5039   -0.1183   -0.4830 C   0  0  2  0  0  0  0  0  0  0  0  0
   -3.6224    0.8846   -0.7439 C   0  0  0  0  0  0  0  0  0  0  0  0
   -3.9284    1.2687   -1.8708 O   0  0  0  0  0  0  0  0  0  0  0  0
   -2.9837   -1.5589   -0.6286 C   0  0  0  0  0  0  0  0  0  0  0  0
   -4.0979   -1.7958    0.2245 O   0  0  0  0  0  0  0  0  0  0  0  0
   -2.5276    0.6894    1.4750 H   0  0  0  0  0  0  0  0  0  0  0  0
   -1.6877    0.0693   -1.1901 H   0  0  0  0  0  0  0  0  0  0  0  0
   -2.1930   -2.2660   -0.3583 H   0  0  0  0  0  0  0  0  0  0  0  0
   -3.2959   -1.7584   -1.6593 H   0  0  0  0  0  0  0  0  0  0  0  0
   -4.7937   -1.1768   -0.0481 H   0  0  0  0  0  0  0  0  0  0  0  0
   -4.2651    1.2659    0.4254 N   0  0  0  0  0  0  0  0  0  0  0  0
   -5.3797    2.1845    0.4416 C   0  0  2  0  0  0  0  0  0  0  0  0
   -6.1895    1.9640   -0.8293 C   0  0  0  0  0  0  0  0  0  0  0  0
   -5.7192    1.4544   -1.8443 O   0  0  0  0  0  0  0  0  0  0  0  0
   -4.9070    3.6265    0.5416 C   0  0  0  0  0  0  0  0  0  0  0  0
   -3.9696    0.8656    1.3109 H   0  0  0  0  0  0  0  0  0  0  0  0
   -5.9901    1.9258    1.3137 H   0  0  0  0  0  0  0  0  0  0  0  0
   -4.2939    3.9040   -0.3235 H   0  0  0  0  0  0  0  0  0  0  0  0
   -5.7537    4.3197    0.5826 H   0  0  0  0  0  0  0  0  0  0  0  0
   -4.2999    3.7761    1.4410 H   0  0  0  0  0  0  0  0  0  0  0  0
   -7.4869    2.4425   -0.7111 N   0  0  0  0  0  0  0  0  0  0  0  0
   -8.4484    2.3621   -1.7858 C   0  0  0  0  0  0  0  0  0  0  0  0
   -7.7968    2.8329    0.1739 H   0  0  0  0  0  0  0  0  0  0  0  0
   -8.4145    3.2878   -2.3789 H   0  0  0  0  0  0  0  0  0  0  0  0
   -8.2064    1.5045   -2.4307 H   0  0  0  0  0  0  0  0  0  0  0  0
   -9.4570    2.2323   -1.3663 H   0  0  0  0  0  0  0  0  0  0  0  0
  1  3  1  0  0  0  0
  1  7  1  0  0  0  0
  1  2  2  0  0  0  0
 29 30  1  0  0  0  0
 30 38  1  0  0  0  0
 30 31  2  0  0  0  0
  8  9  1  0  0  0  0
  9 17  1  0  0  0  0
  9 10  2  0  0  0  0
 18 19  1  0  0  0  0
 19 28  1  0  0  0  0
 19 20  2  0  0  0  0
 29 32  1  0  0  0  0
  8 11  1  0  0  0  0
 38 39  1  0  0  0  0
 18 21  1  0  0  0  0
 21 22  1  0  0  0  0
 28 29  1  0  0  0  0
  7  8  1  0  0  0  0
 17 18  1  0  0  0  0
  3  4  1  0  0  0  0
  3  5  1  0  0  0  0
  3  6  1  0  0  0  0
 32 35  1  0  0  0  0
 32 36  1  0  0  0  0
 32 37  1  0  0  0  0
 11 14  1  0  0  0  0
 11 15  1  0  0  0  0
 11 16  1  0  0  0  0
 39 41  1  0  0  0  0
 39 42  1  0  0  0  0
 39 43  1  0  0  0  0
 21 25  1  0  0  0  0
 21 26  1  0  0  0  0
 29 34  1  0  0  0  0
  8 13  1  0  0  0  0
 18 24  1  0  0  0  0
 38 40  1  0  0  0  0
  7 12  1  0  0  0  0
 28 33  1  0  0  0  0
 17 23  1  0  0  0  0
 22 27  1  0  0  0  0
M  END
$$$$

  -OEChem-05262214473D

 43 42  0     1  0  0  0  0  0999 V2000
    0.7424   -1.0926    4.5665 C   0  0  0  0  0  0  0  0  0  0  0  0
    0.1409   -0.5364    5.4779 O   0  0  0  0  0  0  0  0  0  0  0  0
    1.7940   -2.1023    4.8871 C   0  0  0  0  0  0  0  0  0  0  0  0
    2.7935   -1.6502    4.9904 H   0  0  0  0  0  0  0  0  0  0  0  0
    1.6064   -2.6156    5.8438 H   0  0  0  0  0  0  0  0  0  0  0  0
    1.9156   -2.9078    4.1453 H   0  0  0  0  0  0  0  0  0  0  0  0
    0.5488   -0.8838    3.2109 N   0  0  0  0  0  0  0  0  0  0  0  0
   -0.4159    0.0446    2.6829 C   0  0  2  0  0  0  0  0  0  0  0  0
   -0.7551   -0.3867    1.2623 C   0  0  0  0  0  0  0  0  0  0  0  0
   -0.0106   -1.0851    0.5774 O   0  0  0  0  0  0  0  0  0  0  0  0
    0.1168    1.4689    2.7060 C   0  0  0  0  0  0  0  0  0  0  0  0
    1.1183   -1.4145    2.5542 H   0  0  0  0  0  0  0  0  0  0  0  0
   -1.3088   -0.0350    3.3125 H   0  0  0  0  0  0  0  0  0  0  0  0
    1.0116    1.5681    2.0808 H   0  0  0  0  0  0  0  0  0  0  0  0
   -0.6289    2.1775    2.3307 H   0  0  0  0  0  0  0  0  0  0  0  0
    0.3882    1.7670    3.7245 H   0  0  0  0  0  0  0  0  0  0  0  0
   -1.9689    0.1350    0.8298 N   0  0  0  0  0  0  0  0  0  0  0  0
   -2.5039   -0.1183   -0.4830 C   0  0  2  0  0  0  0  0  0  0  0  0
   -3.6224    0.8846   -0.7439 C   0  0  0  0  0  0  0  0  0  0  0  0
   -4.1095    1.0702   -1.8572 O   0  0  0  0  0  0  0  0  0  0  0  0
   -2.9837   -1.5589   -0.6286 C   0  0  0  0  0  0  0  0  0  0  0  0
   -4.0979   -1.7958    0.2245 O   0  0  0  0  0  0  0  0  0  0  0  0
   -2.5276    0.6894    1.4750 H   0  0  0  0  0  0  0  0  0  0  0  0
   -1.6877    0.0693   -1.1901 H   0  0  0  0  0  0  0  0  0  0  0  0
   -2.1930   -2.2660   -0.3583 H   0  0  0  0  0  0  0  0  0  0  0  0
   -3.2959   -1.7584   -1.6593 H   0  0  0  0  0  0  0  0  0  0  0  0
   -4.7937   -1.1768   -0.0481 H   0  0  0  0  0  0  0  0  0  0  0  0
   -4.0403    1.5151    0.4195 N   0  0  0  0  0  0  0  0  0  0  0  0
   -5.1090    2.4867    0.4423 C   0  0  2  0  0  0  0  0  0  0  0  0
   -6.1339    2.0832   -0.6095 C   0  0  0  0  0  0  0  0  0  0  0  0
   -5.8624    1.3660   -1.5702 O   0  0  0  0  0  0  0  0  0  0  0  0
   -4.5861    3.8906    0.1812 C   0  0  0  0  0  0  0  0  0  0  0  0
   -3.6061    1.2693    1.3042 H   0  0  0  0  0  0  0  0  0  0  0  0
   -5.5647    2.4322    1.4370 H   0  0  0  0  0  0  0  0  0  0  0  0
   -4.1258    3.9646   -0.8108 H   0  0  0  0  0  0  0  0  0  0  0  0
   -5.3930    4.6294    0.2271 H   0  0  0  0  0  0  0  0  0  0  0  0
   -3.8274    4.1678    0.9211 H   0  0  0  0  0  0  0  0  0  0  0  0
   -7.3769    2.6532   -0.3726 N   0  0  0  0  0  0  0  0  0  0  0  0
   -8.5131    2.4328   -1.2365 C   0  0  0  0  0  0  0  0  0  0  0  0
   -7.5166    3.2195    0.4590 H   0  0  0  0  0  0  0  0  0  0  0  0
   -8.5575    3.2282   -1.9950 H   0  0  0  0  0  0  0  0  0  0  0  0
   -8.4114    1.4571   -1.7342 H   0  0  0  0  0  0  0  0  0  0  0  0
   -9.4362    2.4448   -0.6384 H   0  0  0  0  0  0  0  0  0  0  0  0
  1  3  1  0  0  0  0
  1  7  1  0  0  0  0
  1  2  2  0  0  0  0
 29 30  1  0  0  0  0
 30 38  1  0  0  0  0
 30 31  2  0  0  0  0
  8  9  1  0  0  0  0
  9 17  1  0  0  0  0
  9 10  2  0  0  0  0
 18 19  1  0  0  0  0
 19 28  1  0  0  0  0
 19 20  2  0  0  0  0
 29 32  1  0  0  0  0
  8 11  1  0  0  0  0
 38 39  1  0  0  0  0
 18 21  1  0  0  0  0
 21 22  1  0  0  0  0
 28 29  1  0  0  0  0
  7  8  1  0  0  0  0
 17 18  1  0  0  0  0
  3  4  1  0  0  0  0
  3  5  1  0  0  0  0
  3  6  1  0  0  0  0
 32 35  1  0  0  0  0
 32 36  1  0  0  0  0
 32 37  1  0  0  0  0
 11 14  1  0  0  0  0
 11 15  1  0  0  0  0
 11 16  1  0  0  0  0
 39 41  1  0  0  0  0
 39 42  1  0  0  0  0
 39 43  1  0  0  0  0
 21 25  1  0  0  0  0
 21 26  1  0  0  0  0
 29 34  1  0  0  0  0
  8 13  1  0  0  0  0
 18 24  1  0  0  0  0
 38 40  1  0  0  0  0
  7 12  1  0  0  0  0
 28 33  1  0  0  0  0
 17 23  1  0  0  0  0
 22 27  1  0  0  0  0
M  END
$$$$

  -OEChem-05262214473D

 43 42  0     1  0  0  0  0  0999 V2000
    0.7424   -1.0926    4.5665 C   0  0  0  0  0  0  0  0  0  0  0  0
    0.1409   -0.5364    5.4779 O   0  0  0  0  0  0  0  0  0  0  0  0
    1.7940   -2.1023    4.8871 C   0  0  0  0  0  0  0  0  0  0  0  0
    2.7935   -1.6502    4.9904 H   0  0  0  0  0  0  0  0  0  0  0  0
    1.6064   -2.6156    5.8438 H   0  0  0  0  0  0  0  0  0  0  0  0
    1.9156   -2.9078    4.1453 H   0  0  0  0  0  0  0  0  0  0  0  0
    0.5488   -0.8838    3.2109 N   0  0  0  0  0  0  0  0  0  0  0  0
   -0.4159    0.0446    2.6829 C   0  0  2  0  0  0  0  0  0  0  0  0
   -0.7551   -0.3867    1.2623 C   0  0  0  0  0  0  0  0  0  0  0  0
   -0.0106   -1.0851    0.5774 O   0  0  0  0  0  0  0  0  0  0  0  0
    0.1168    1.4689    2.7060 C   0  0  0  0  0  0  0  0  0  0  0  0
    1.1183   -1.4145    2.5542 H   0  0  0  0  0  0  0  0  0  0  0  0
   -1.3088   -0.0350    3.3125 H   0  0  0  0  0  0  0  0  0  0  0  0
    1.0116    1.5681    2.0808 H   0  0  0  0  0  0  0  0  0  0  0  0
   -0.6289    2.1775    2.3307 H   0  0  0  0  0  0  0  0  0  0  0  0
    0.3882    1.7670    3.7245 H   0  0  0  0  0  0  0  0  0  0  0  0
   -1.9689    0.1350    0.8298 N   0  0  0  0  0  0  0  0  0  0  0  0
   -2.5039   -0.1183   -0.4830 C   0  0  2  0  0  0  0  0  0  0  0  0
   -3.6224    0.8846   -0.7439 C   0  0  0  0  0  0  0  0  0  0  0  0
   -4.2910    0.8891   -1.7754 O   0  0  0  0  0  0  0  0  0  0  0  0
   -2.9837   -1.5589   -0.6286 C   0  0  0  0  0  0  0  0  0  0  0  0
   -4.0979   -1.7958    0.2245 O   0  0  0  0  0  0  0  0  0  0  0  0
   -2.5276    0.6894    1.4750 H   0  0  0  0  0  0  0  0  0  0  0  0
   -1.6877    0.0693   -1.1901 H   0  0  0  0  0  0  0  0  0  0  0  0
   -2.1930   -2.2660   -0.3583 H   0  0  0  0  0  0  0  0  0  0  0  0
   -3.2959   -1.7584   -1.6593 H   0  0  0  0  0  0  0  0  0  0  0  0
   -4.7937   -1.1768   -0.0481 H   0  0  0  0  0  0  0  0  0  0  0  0
   -3.8131    1.7447    0.3283 N   0  0  0  0  0  0  0  0  0  0  0  0
   -4.8340    2.7666    0.3395 C   0  0  2  0  0  0  0  0  0  0  0  0
   -6.0375    2.2375   -0.4292 C   0  0  0  0  0  0  0  0  0  0  0  0
   -5.9579    1.3390   -1.2644 O   0  0  0  0  0  0  0  0  0  0  0  0
   -4.3258    4.0631   -0.2716 C   0  0  0  0  0  0  0  0  0  0  0  0
   -3.2382    1.6418    1.1593 H   0  0  0  0  0  0  0  0  0  0  0  0
   -5.1105    2.9259    1.3875 H   0  0  0  0  0  0  0  0  0  0  0  0
   -4.0438    3.9232   -1.3216 H   0  0  0  0  0  0  0  0  0  0  0  0
   -5.0914    4.8452   -0.2364 H   0  0  0  0  0  0  0  0  0  0  0  0
   -3.4422    4.4265    0.2641 H   0  0  0  0  0  0  0  0  0  0  0  0
   -7.2038    2.9161   -0.1043 N   0  0  0  0  0  0  0  0  0  0  0  0
   -8.4790    2.6082   -0.7084 C   0  0  0  0  0  0  0  0  0  0  0  0
   -7.1804    3.6346    0.6133 H   0  0  0  0  0  0  0  0  0  0  0  0
   -8.6329    3.2499   -1.5885 H   0  0  0  0  0  0  0  0  0  0  0  0
   -8.4929    1.5526   -1.0175 H   0  0  0  0  0  0  0  0  0  0  0  0
   -9.2828    2.7873    0.0209 H   0  0  0  0  0  0  0  0  0  0  0  0
  1  3  1  0  0  0  0
  1  7  1  0  0  0  0
  1  2  2  0  0  0  0
 29 30  1  0  0  0  0
 30 38  1  0  0  0  0
 30 31  2  0  0  0  0
  8  9  1  0  0  0  0
  9 17  1  0  0  0  0
  9 10  2  0  0  0  0
 18 19  1  0  0  0  0
 19 28  1  0  0  0  0
 19 20  2  0  0  0  0
 29 32  1  0  0  0  0
  8 11  1  0  0  0  0
 38 39  1  0  0  0  0
 18 21  1  0  0  0  0
 21 22  1  0  0  0  0
 28 29  1  0  0  0  0
  7  8  1  0  0  0  0
 17 18  1  0  0  0  0
  3  4  1  0  0  0  0
  3  5  1  0  0  0  0
  3  6  1  0  0  0  0
 32 35  1  0  0  0  0
 32 36  1  0  0  0  0
 32 37  1  0  0  0  0
 11 14  1  0  0  0  0
 11 15  1  0  0  0  0
 11 16  1  0  0  0  0
 39 41  1  0  0  0  0
 39 42  1  0  0  0  0
 39 43  1  0  0  0  0
 21 25  1  0  0  0  0
 21 26  1  0  0  0  0
 29 34  1  0  0  0  0
  8 13  1  0  0  0  0
 18 24  1  0  0  0  0
 38 40  1  0  0  0  0
  7 12  1  0  0  0  0
 28 33  1  0  0  0  0
 17 23  1  0  0  0  0
 22 27  1  0  0  0  0
M  END
$$$$

  -OEChem-05262214473D

 43 42  0     1  0  0  0  0  0999 V2000
    0.7424   -1.0926    4.5665 C   0  0  0  0  0  0  0  0  0  0  0  0
    0.1409   -0.5364    5.4779 O   0  0  0  0  0  0  0  0  0  0  0  0
    1.7940   -2.1023    4.8871 C   0  0  0  0  0  0  0  0  0  0  0  0
    2.7935   -1.6502    4.9904 H   0  0  0  0  0  0  0  0  0  0  0  0
    1.6064   -2.6156    5.8438 H   0  0  0  0  0  0  0  0  0  0  0  0
    1.9156   -2.9078    4.1453 H   0  0  0  0  0  0  0  0  0  0  0  0
    0.5488   -0.8838    3.2109 N   0  0  0  0  0  0  0  0  0  0  0  0
   -0.4159    0.0446    2.6829 C   0  0  2  0  0  0  0  0  0  0  0  0
   -0.7551   -0.3867    1.2623 C   0  0  0  0  0  0  0  0  0  0  0  0
   -0.0106   -1.0851    0.5774 O   0  0  0  0  0  0  0  0  0  0  0  0
    0.1168    1.4689    2.7060 C   0  0  0  0  0  0  0  0  0  0  0  0
    1.1183   -1.4145    2.5542 H   0  0  0  0  0  0  0  0  0  0  0  0
   -1.3088   -0.0350    3.3125 H   0  0  0  0  0  0  0  0  0  0  0  0
    1.0116    1.5681    2.0808 H   0  0  0  0  0  0  0  0  0  0  0  0
   -0.6289    2.1775    2.3307 H   0  0  0  0  0  0  0  0  0  0  0  0
    0.3882    1.7670    3.7245 H   0  0  0  0  0  0  0  0  0  0  0  0
   -1.9689    0.1350    0.8298 N   0  0  0  0  0  0  0  0  0  0  0  0
   -2.5039   -0.1183   -0.4830 C   0  0  2  0  0  0  0  0  0  0  0  0
   -3.6224    0.8846   -0.7439 C   0  0  0  0  0  0  0  0  0  0  0  0
   -4.4603    0.7378   -1.6312 O   0  0  0  0  0  0  0  0  0  0  0  0
   -2.9837   -1.5589   -0.6286 C   0  0  0  0  0  0  0  0  0  0  0  0
   -4.0979   -1.7958    0.2245 O   0  0  0  0  0  0  0  0  0  0  0  0
   -2.5276    0.6894    1.4750 H   0  0  0  0  0  0  0  0  0  0  0  0
   -1.6877    0.0693   -1.1901 H   0  0  0  0  0  0  0  0  0  0  0  0
   -2.1930   -2.2660   -0.3583 H   0  0  0  0  0  0  0  0  0  0  0  0
   -3.2959   -1.7584   -1.6593 H   0  0  0  0  0  0  0  0  0  0  0  0
   -4.7937   -1.1768   -0.0481 H   0  0  0  0  0  0  0  0  0  0  0  0
   -3.5990    1.9391    0.1579 N   0  0  0  0  0  0  0  0  0  0  0  0
   -4.5734    3.0053    0.1403 C   0  0  2  0  0  0  0  0  0  0  0  0
   -5.9069    2.4166   -0.3008 C   0  0  0  0  0  0  0  0  0  0  0  0
   -5.9993    1.3753   -0.9475 O   0  0  0  0  0  0  0  0  0  0  0  0
   -4.1438    4.1323   -0.7861 C   0  0  0  0  0  0  0  0  0  0  0  0
   -2.8910    1.9579    0.8859 H   0  0  0  0  0  0  0  0  0  0  0  0
   -4.6582    3.3733    1.1686 H   0  0  0  0  0  0  0  0  0  0  0  0
   -4.0534    3.7826   -1.8211 H   0  0  0  0  0  0  0  0  0  0  0  0
   -4.8694    4.9522   -0.7765 H   0  0  0  0  0  0  0  0  0  0  0  0
   -3.1705    4.5346   -0.4851 H   0  0  0  0  0  0  0  0  0  0  0  0
   -6.9792    3.2133    0.0755 N   0  0  0  0  0  0  0  0  0  0  0  0
   -8.3484    2.8764   -0.2373 C   0  0  0  0  0  0  0  0  0  0  0  0
   -6.8110    4.0500    0.6263 H   0  0  0  0  0  0  0  0  0  0  0  0
   -8.6356    3.3513   -1.1871 H   0  0  0  0  0  0  0  0  0  0  0  0
   -8.4453    1.7846   -0.3295 H   0  0  0  0  0  0  0  0  0  0  0  0
   -9.0073    3.2365    0.5665 H   0  0  0  0  0  0  0  0  0  0  0  0
  1  3  1  0  0  0  0
  1  7  1  0  0  0  0
  1  2  2  0  0  0  0
 29 30  1  0  0  0  0
 30 38  1  0  0  0  0
 30 31  2  0  0  0  0
  8  9  1  0  0  0  0
  9 17  1  0  0  0  0
  9 10  2  0  0  0  0
 18 19  1  0  0  0  0
 19 28  1  0  0  0  0
 19 20  2  0  0  0  0
 29 32  1  0  0  0  0
  8 11  1  0  0  0  0
 38 39  1  0  0  0  0
 18 21  1  0  0  0  0
 21 22  1  0  0  0  0
 28 29  1  0  0  0  0
  7  8  1  0  0  0  0
 17 18  1  0  0  0  0
  3  4  1  0  0  0  0
  3  5  1  0  0  0  0
  3  6  1  0  0  0  0
 32 35  1  0  0  0  0
 32 36  1  0  0  0  0
 32 37  1  0  0  0  0
 11 14  1  0  0  0  0
 11 15  1  0  0  0  0
 11 16  1  0  0  0  0
 39 41  1  0  0  0  0
 39 42  1  0  0  0  0
 39 43  1  0  0  0  0
 21 25  1  0  0  0  0
 21 26  1  0  0  0  0
 29 34  1  0  0  0  0
  8 13  1  0  0  0  0
 18 24  1  0  0  0  0
 38 40  1  0  0  0  0
  7 12  1  0  0  0  0
 28 33  1  0  0  0  0
 17 23  1  0  0  0  0
 22 27  1  0  0  0  0
M  END
$$$$

  -OEChem-05262214473D

 43 42  0     1  0  0  0  0  0999 V2000
    0.7424   -1.0926    4.5665 C   0  0  0  0  0  0  0  0  0  0  0  0
    0.1409   -0.5364    5.4779 O   0  0  0  0  0  0  0  0  0  0  0  0
    1.7940   -2.1023    4.8871 C   0  0  0  0  0  0  0  0  0  0  0  0
    2.7935   -1.6502    4.9904 H   0  0  0  0  0  0  0  0  0  0  0  0
    1.6064   -2.6156    5.8438 H   0  0  0  0  0  0  0  0  0  0  0  0
    1.9156   -2.9078    4.1453 H   0  0  0  0  0  0  0  0  0  0  0  0
    0.5488   -0.8838    3.2109 N   0  0  0  0  0  0  0  0  0  0  0  0
   -0.4159    0.0446    2.6829 C   0  0  2  0  0  0  0  0  0  0  0  0
   -0.7551   -0.3867    1.2623 C   0  0  0  0  0  0  0  0  0  0  0  0
   -0.0106   -1.0851    0.5774 O   0  0  0  0  0  0  0  0  0  0  0  0
    0.1168    1.4689    2.7060 C   0  0  0  0  0  0  0  0  0  0  0  0
    1.1183   -1.4145    2.5542 H   0  0  0  0  0  0  0  0  0  0  0  0
   -1.3088   -0.0350    3.3125 H   0  0  0  0  0  0  0  0  0  0  0  0
    1.0116    1.5681    2.0808 H   0  0  0  0  0  0  0  0  0  0  0  0
   -0.6289    2.1775    2.3307 H   0  0  0  0  0  0  0  0  0  0  0  0
    0.3882    1.7670    3.7245 H   0  0  0  0  0  0  0  0  0  0  0  0
   -1.9689    0.1350    0.8298 N   0  0  0  0  0  0  0  0  0  0  0  0
   -2.5039   -0.1183   -0.4830 C   0  0  2  0  0  0  0  0  0  0  0  0
   -3.6224    0.8846   -0.7439 C   0  0  0  0  0  0  0  0  0  0  0  0
   -4.6061    0.6264   -1.4344 O   0  0  0  0  0  0  0  0  0  0  0  0
   -2.9837   -1.5589   -0.6286 C   0  0  0  0  0  0  0  0  0  0  0  0
   -4.0979   -1.7958    0.2245 O   0  0  0  0  0  0  0  0  0  0  0  0
   -2.5276    0.6894    1.4750 H   0  0  0  0  0  0  0  0  0  0  0  0
   -1.6877    0.0693   -1.1901 H   0  0  0  0  0  0  0  0  0  0  0  0
   -2.1930   -2.2660   -0.3583 H   0  0  0  0  0  0  0  0  0  0  0  0
   -3.2959   -1.7584   -1.6593 H   0  0  0  0  0  0  0  0  0  0  0  0
   -4.7937   -1.1768   -0.0481 H   0  0  0  0  0  0  0  0  0  0  0  0
   -3.4127    2.0851   -0.0800 N   0  0  0  0  0  0  0  0  0  0  0  0
   -4.3451    3.1866   -0.1419 C   0  0  2  0  0  0  0  0  0  0  0  0
   -5.7510    2.6081   -0.2330 C   0  0  0  0  0  0  0  0  0  0  0  0
   -5.9838    1.4723   -0.6413 O   0  0  0  0  0  0  0  0  0  0  0  0
   -4.0525    4.0933   -1.3272 C   0  0  0  0  0  0  0  0  0  0  0  0
   -2.5882    2.1959    0.5027 H   0  0  0  0  0  0  0  0  0  0  0  0
   -4.2389    3.7439    0.7952 H   0  0  0  0  0  0  0  0  0  0  0  0
   -4.1539    3.5524   -2.2752 H   0  0  0  0  0  0  0  0  0  0  0  0
   -4.7422    4.9433   -1.3563 H   0  0  0  0  0  0  0  0  0  0  0  0
   -3.0308    4.4848   -1.2756 H   0  0  0  0  0  0  0  0  0  0  0  0
   -6.7185    3.5245    0.1545 N   0  0  0  0  0  0  0  0  0  0  0  0
   -8.1301    3.2191    0.1445 C   0  0  0  0  0  0  0  0  0  0  0  0
   -6.4335    4.4373    0.4971 H   0  0  0  0  0  0  0  0  0  0  0  0
   -8.5653    3.5257   -0.8181 H   0  0  0  0  0  0  0  0  0  0  0  0
   -8.2720    2.1371    0.2830 H   0  0  0  0  0  0  0  0  0  0  0  0
   -8.6284    3.7618    0.9614 H   0  0  0  0  0  0  0  0  0  0  0  0
  1  3  1  0  0  0  0
  1  7  1  0  0  0  0
  1  2  2  0  0  0  0
 29 30  1  0  0  0  0
 30 38  1  0  0  0  0
 30 31  2  0  0  0  0
  8  9  1  0  0  0  0
  9 17  1  0  0  0  0
  9 10  2  0  0  0  0
 18 19  1  0  0  0  0
 19 28  1  0  0  0  0
 19 20  2  0  0  0  0
 29 32  1  0  0  0  0
  8 11  1  0  0  0  0
 38 39  1  0  0  0  0
 18 21  1  0  0  0  0
 21 22  1  0  0  0  0
 28 29  1  0  0  0  0
  7  8  1  0  0  0  0
 17 18  1  0  0  0  0
  3  4  1  0  0  0  0
  3  5  1  0  0  0  0
  3  6  1  0  0  0  0
 32 35  1  0  0  0  0
 32 36  1  0  0  0  0
 32 37  1  0  0  0  0
 11 14  1  0  0  0  0
 11 15  1  0  0  0  0
 11 16  1  0  0  0  0
 39 41  1  0  0  0  0
 39 42  1  0  0  0  0
 39 43  1  0  0  0  0
 21 25  1  0  0  0  0
 21 26  1  0  0  0  0
 29 34  1  0  0  0  0
  8 13  1  0  0  0  0
 18 24  1  0  0  0  0
 38 40  1  0  0  0  0
  7 12  1  0  0  0  0
 28 33  1  0  0  0  0
 17 23  1  0  0  0  0
 22 27  1  0  0  0  0
M  END
$$$$

  -OEChem-05262214473D

 43 42  0     1  0  0  0  0  0999 V2000
    0.7424   -1.0926    4.5665 C   0  0  0  0  0  0  0  0  0  0  0  0
    0.1409   -0.5364    5.4779 O   0  0  0  0  0  0  0  0  0  0  0  0
    1.7940   -2.1023    4.8871 C   0  0  0  0  0  0  0  0  0  0  0  0
    2.7935   -1.6502    4.9904 H   0  0  0  0  0  0  0  0  0  0  0  0
    1.6064   -2.6156    5.8438 H   0  0  0  0  0  0  0  0  0  0  0  0
    1.9156   -2.9078    4.1453 H   0  0  0  0  0  0  0  0  0  0  0  0
    0.5488   -0.8838    3.2109 N   0  0  0  0  0  0  0  0  0  0  0  0
   -0.4159    0.0446    2.6829 C   0  0  2  0  0  0  0  0  0  0  0  0
   -0.7551   -0.3867    1.2623 C   0  0  0  0  0  0  0  0  0  0  0  0
   -0.0106   -1.0851    0.5774 O   0  0  0  0  0  0  0  0  0  0  0  0
    0.1168    1.4689    2.7060 C   0  0  0  0  0  0  0  0  0  0  0  0
    1.1183   -1.4145    2.5542 H   0  0  0  0  0  0  0  0  0  0  0  0
   -1.3088   -0.0350    3.3125 H   0  0  0  0  0  0  0  0  0  0  0  0
    1.0116    1.5681    2.0808 H   0  0  0  0  0  0  0  0  0  0  0  0
   -0.6289    2.1775    2.3307 H   0  0  0  0  0  0  0  0  0  0  0  0
    0.3882    1.7670    3.7245 H   0  0  0  0  0  0  0  0  0  0  0  0
   -1.9689    0.1350    0.8298 N   0  0  0  0  0  0  0  0  0  0  0  0
   -2.5039   -0.1183   -0.4830 C   0  0  2  0  0  0  0  0  0  0  0  0
   -3.6224    0.8846   -0.7439 C   0  0  0  0  0  0  0  0  0  0  0  0
   -4.7183    0.5627   -1.1983 O   0  0  0  0  0  0  0  0  0  0  0  0
   -2.9837   -1.5589   -0.6286 C   0  0  0  0  0  0  0  0  0  0  0  0
   -4.0979   -1.7958    0.2245 O   0  0  0  0  0  0  0  0  0  0  0  0
   -2.5276    0.6894    1.4750 H   0  0  0  0  0  0  0  0  0  0  0  0
   -1.6877    0.0693   -1.1901 H   0  0  0  0  0  0  0  0  0  0  0  0
   -2.1930   -2.2660   -0.3583 H   0  0  0  0  0  0  0  0  0  0  0  0
   -3.2959   -1.7584   -1.6593 H   0  0  0  0  0  0  0  0  0  0  0  0
   -4.7937   -1.1768   -0.0481 H   0  0  0  0  0  0  0  0  0  0  0  0
   -3.2667    2.1726   -0.3693 N   0  0  0  0  0  0  0  0  0  0  0  0
   -4.1645    3.2979   -0.4877 C   0  0  2  0  0  0  0  0  0  0  0  0
   -5.5803    2.7991   -0.2305 C   0  0  0  0  0  0  0  0  0  0  0  0
   -5.9124    1.6234   -0.3666 O   0  0  0  0  0  0  0  0  0  0  0  0
   -4.0582    3.9489   -1.8580 C   0  0  0  0  0  0  0  0  0  0  0  0
   -2.3504    2.3396    0.0359 H   0  0  0  0  0  0  0  0  0  0  0  0
   -3.8809    4.0123    0.2928 H   0  0  0  0  0  0  0  0  0  0  0  0
   -4.3385    3.2482   -2.6530 H   0  0  0  0  0  0  0  0  0  0  0  0
   -4.7185    4.8189   -1.9363 H   0  0  0  0  0  0  0  0  0  0  0  0
   -3.0327    4.2803   -2.0535 H   0  0  0  0  0  0  0  0  0  0  0  0
   -6.4395    3.8286    0.1273 N   0  0  0  0  0  0  0  0  0  0  0  0
   -7.8391    3.6130    0.4111 C   0  0  0  0  0  0  0  0  0  0  0  0
   -6.0738    4.7702    0.2345 H   0  0  0  0  0  0  0  0  0  0  0  0
   -8.4269    3.7610   -0.5069 H   0  0  0  0  0  0  0  0  0  0  0  0
   -7.9848    2.5863    0.7781 H   0  0  0  0  0  0  0  0  0  0  0  0
   -8.1718    4.3274    1.1785 H   0  0  0  0  0  0  0  0  0  0  0  0
  1  3  1  0  0  0  0
  1  7  1  0  0  0  0
  1  2  2  0  0  0  0
 29 30  1  0  0  0  0
 30 38  1  0  0  0  0
 30 31  2  0  0  0  0
  8  9  1  0  0  0  0
  9 17  1  0  0  0  0
  9 10  2  0  0  0  0
 18 19  1  0  0  0  0
 19 28  1  0  0  0  0
 19 20  2  0  0  0  0
 29 32  1  0  0  0  0
  8 11  1  0  0  0  0
 38 39  1  0  0  0  0
 18 21  1  0  0  0  0
 21 22  1  0  0  0  0
 28 29  1  0  0  0  0
  7  8  1  0  0  0  0
 17 18  1  0  0  0  0
  3  4  1  0  0  0  0
  3  5  1  0  0  0  0
  3  6  1  0  0  0  0
 32 35  1  0  0  0  0
 32 36  1  0  0  0  0
 32 37  1  0  0  0  0
 11 14  1  0  0  0  0
 11 15  1  0  0  0  0
 11 16  1  0  0  0  0
 39 41  1  0  0  0  0
 39 42  1  0  0  0  0
 39 43  1  0  0  0  0
 21 25  1  0  0  0  0
 21 26  1  0  0  0  0
 29 34  1  0  0  0  0
  8 13  1  0  0  0  0
 18 24  1  0  0  0  0
 38 40  1  0  0  0  0
  7 12  1  0  0  0  0
 28 33  1  0  0  0  0
 17 23  1  0  0  0  0
 22 27  1  0  0  0  0
M  END
$$$$

  -OEChem-05262214473D

 43 42  0     1  0  0  0  0  0999 V2000
    0.7424   -1.0926    4.5665 C   0  0  0  0  0  0  0  0  0  0  0  0
    0.1409   -0.5364    5.4779 O   0  0  0  0  0  0  0  0  0  0  0  0
    1.7940   -2.1023    4.8871 C   0  0  0  0  0  0  0  0  0  0  0  0
    2.7935   -1.6502    4.9904 H   0  0  0  0  0  0  0  0  0  0  0  0
    1.6064   -2.6156    5.8438 H   0  0  0  0  0  0  0  0  0  0  0  0
    1.9156   -2.9078    4.1453 H   0  0  0  0  0  0  0  0  0  0  0  0
    0.5488   -0.8838    3.2109 N   0  0  0  0  0  0  0  0  0  0  0  0
   -0.4159    0.0446    2.6829 C   0  0  2  0  0  0  0  0  0  0  0  0
   -0.7551   -0.3867    1.2623 C   0  0  0  0  0  0  0  0  0  0  0  0
   -0.0106   -1.0851    0.5774 O   0  0  0  0  0  0  0  0  0  0  0  0
    0.1168    1.4689    2.7060 C   0  0  0  0  0  0  0  0  0  0  0  0
    1.1183   -1.4145    2.5542 H   0  0  0  0  0  0  0  0  0  0  0  0
   -1.3088   -0.0350    3.3125 H   0  0  0  0  0  0  0  0  0  0  0  0
    1.0116    1.5681    2.0808 H   0  0  0  0  0  0  0  0  0  0  0  0
   -0.6289    2.1775    2.3307 H   0  0  0  0  0  0  0  0  0  0  0  0
    0.3882    1.7670    3.7245 H   0  0  0  0  0  0  0  0  0  0  0  0
   -1.9689    0.1350    0.8298 N   0  0  0  0  0  0  0  0  0  0  0  0
   -2.5039   -0.1183   -0.4830 C   0  0  2  0  0  0  0  0  0  0  0  0
   -3.6224    0.8846   -0.7439 C   0  0  0  0  0  0  0  0  0  0  0  0
   -4.7893    0.5510   -0.9390 O   0  0  0  0  0  0  0  0  0  0  0  0
   -2.9837   -1.5589   -0.6286 C   0  0  0  0  0  0  0  0  0  0  0  0
   -4.0979   -1.7958    0.2245 O   0  0  0  0  0  0  0  0  0  0  0  0
   -2.5276    0.6894    1.4750 H   0  0  0  0  0  0  0  0  0  0  0  0
   -1.6877    0.0693   -1.1901 H   0  0  0  0  0  0  0  0  0  0  0  0
   -2.1930   -2.2660   -0.3583 H   0  0  0  0  0  0  0  0  0  0  0  0
   -3.2959   -1.7584   -1.6593 H   0  0  0  0  0  0  0  0  0  0  0  0
   -4.7937   -1.1768   -0.0481 H   0  0  0  0  0  0  0  0  0  0  0  0
   -3.1710    2.1958   -0.6902 N   0  0  0  0  0  0  0  0  0  0  0  0
   -4.0441    3.3319   -0.8736 C   0  0  2  0  0  0  0  0  0  0  0  0
   -5.4066    2.9765   -0.2933 C   0  0  0  0  0  0  0  0  0  0  0  0
   -5.7899    1.8183   -0.1421 O   0  0  0  0  0  0  0  0  0  0  0  0
   -4.1605    3.7089   -2.3423 C   0  0  0  0  0  0  0  0  0  0  0  0
   -2.1938    2.3793   -0.4828 H   0  0  0  0  0  0  0  0  0  0  0  0
   -3.6088    4.1604   -0.3043 H   0  0  0  0  0  0  0  0  0  0  0  0
   -4.5946    2.8909   -2.9288 H   0  0  0  0  0  0  0  0  0  0  0  0
   -4.7998    4.5876   -2.4770 H   0  0  0  0  0  0  0  0  0  0  0  0
   -3.1759    3.9353   -2.7657 H   0  0  0  0  0  0  0  0  0  0  0  0
   -6.1611    4.1049   -0.0041 N   0  0  0  0  0  0  0  0  0  0  0  0
   -7.4952    4.0312    0.5443 C   0  0  0  0  0  0  0  0  0  0  0  0
   -5.7562    5.0259   -0.1436 H   0  0  0  0  0  0  0  0  0  0  0  0
   -8.2298    4.0412   -0.2744 H   0  0  0  0  0  0  0  0  0  0  0  0
   -7.6031    3.1014    1.1222 H   0  0  0  0  0  0  0  0  0  0  0  0
   -7.6689    4.8947    1.2032 H   0  0  0  0  0  0  0  0  0  0  0  0
  1  3  1  0  0  0  0
  1  7  1  0  0  0  0
  1  2  2  0  0  0  0
 29 30  1  0  0  0  0
 30 38  1  0  0  0  0
 30 31  2  0  0  0  0
  8  9  1  0  0  0  0
  9 17  1  0  0  0  0
  9 10  2  0  0  0  0
 18 19  1  0  0  0  0
 19 28  1  0  0  0  0
 19 20  2  0  0  0  0
 29 32  1  0  0  0  0
  8 11  1  0  0  0  0
 38 39  1  0  0  0  0
 18 21  1  0  0  0  0
 21 22  1  0  0  0  0
 28 29  1  0  0  0  0
  7  8  1  0  0  0  0
 17 18  1  0  0  0  0
  3  4  1  0  0  0  0
  3  5  1  0  0  0  0
  3  6  1  0  0  0  0
 32 35  1  0  0  0  0
 32 36  1  0  0  0  0
 32 37  1  0  0  0  0
 11 14  1  0  0  0  0
 11 15  1  0  0  0  0
 11 16  1  0  0  0  0
 39 41  1  0  0  0  0
 39 42  1  0  0  0  0
 39 43  1  0  0  0  0
 21 25  1  0  0  0  0
 21 26  1  0  0  0  0
 29 34  1  0  0  0  0
  8 13  1  0  0  0  0
 18 24  1  0  0  0  0
 38 40  1  0  0  0  0
  7 12  1  0  0  0  0
 28 33  1  0  0  0  0
 17 23  1  0  0  0  0
 22 27  1  0  0  0  0
M  END
$$$$

  -OEChem-05262214473D

 43 42  0     1  0  0  0  0  0999 V2000
    0.7424   -1.0926    4.5665 C   0  0  0  0  0  0  0  0  0  0  0  0
    0.1409   -0.5364    5.4779 O   0  0  0  0  0  0  0  0  0  0  0  0
    1.7940   -2.1023    4.8871 C   0  0  0  0  0  0  0  0  0  0  0  0
    2.7935   -1.6502    4.9904 H   0  0  0  0  0  0  0  0  0  0  0  0
    1.6064   -2.6156    5.8438 H   0  0  0  0  0  0  0  0  0  0  0  0
    1.9156   -2.9078    4.1453 H   0  0  0  0  0  0  0  0  0  0  0  0
    0.5488   -0.8838    3.2109 N   0  0  0  0  0  0  0  0  0  0  0  0
   -0.4159    0.0446    2.6829 C   0  0  2  0  0  0  0  0  0  0  0  0
   -0.7551   -0.3867    1.2623 C   0  0  0  0  0  0  0  0  0  0  0  0
   -0.0106   -1.0851    0.5774 O   0  0  0  0  0  0  0  0  0  0  0  0
    0.1168    1.4689    2.7060 C   0  0  0  0  0  0  0  0  0  0  0  0
    1.1183   -1.4145    2.5542 H   0  0  0  0  0  0  0  0  0  0  0  0
   -1.3088   -0.0350    3.3125 H   0  0  0  0  0  0  0  0  0  0  0  0
    1.0116    1.5681    2.0808 H   0  0  0  0  0  0  0  0  0  0  0  0
   -0.6289    2.1775    2.3307 H   0  0  0  0  0  0  0  0  0  0  0  0
    0.3882    1.7670    3.7245 H   0  0  0  0  0  0  0  0  0  0  0  0
   -1.9689    0.1350    0.8298 N   0  0  0  0  0  0  0  0  0  0  0  0
   -2.5039   -0.1183   -0.4830 C   0  0  2  0  0  0  0  0  0  0  0  0
   -3.6224    0.8846   -0.7439 C   0  0  0  0  0  0  0  0  0  0  0  0
   -4.8143    0.5920   -0.6742 O   0  0  0  0  0  0  0  0  0  0  0  0
   -2.9837   -1.5589   -0.6286 C   0  0  0  0  0  0  0  0  0  0  0  0
   -4.0979   -1.7958    0.2245 O   0  0  0  0  0  0  0  0  0  0  0  0
   -2.5276    0.6894    1.4750 H   0  0  0  0  0  0  0  0  0  0  0  0
   -1.6877    0.0693   -1.1901 H   0  0  0  0  0  0  0  0  0  0  0  0
   -2.1930   -2.2660   -0.3583 H   0  0  0  0  0  0  0  0  0  0  0  0
   -3.2959   -1.7584   -1.6593 H   0  0  0  0  0  0  0  0  0  0  0  0
   -4.7937   -1.1768   -0.0481 H   0  0  0  0  0  0  0  0  0  0  0  0
   -3.1323    2.1530   -1.0208 N   0  0  0  0  0  0  0  0  0  0  0  0
   -3.9920    3.2860   -1.2733 C   0  0  2  0  0  0  0  0  0  0  0  0
   -5.2416    3.1282   -0.4172 C   0  0  0  0  0  0  0  0  0  0  0  0
   -5.6248    2.0439    0.0169 O   0  0  0  0  0  0  0  0  0  0  0  0
   -4.3523    3.3896   -2.7472 C   0  0  0  0  0  0  0  0  0  0  0  0
   -2.1291    2.3122   -1.0181 H   0  0  0  0  0  0  0  0  0  0  0  0
   -3.4411    4.1780   -0.9556 H   0  0  0  0  0  0  0  0  0  0  0  0
   -4.9047    2.5047   -3.0838 H   0  0  0  0  0  0  0  0  0  0  0  0
   -4.9806    4.2651   -2.9414 H   0  0  0  0  0  0  0  0  0  0  0  0
   -3.4509    3.4731   -3.3638 H   0  0  0  0  0  0  0  0  0  0  0  0
   -5.9024    4.3344   -0.2310 N   0  0  0  0  0  0  0  0  0  0  0  0
   -7.1218    4.4451    0.5350 C   0  0  0  0  0  0  0  0  0  0  0  0
   -5.5026    5.1871   -0.6114 H   0  0  0  0  0  0  0  0  0  0  0  0
   -7.9875    4.3473   -0.1366 H   0  0  0  0  0  0  0  0  0  0  0  0
   -7.1531    3.6474    1.2918 H   0  0  0  0  0  0  0  0  0  0  0  0
   -7.1537    5.4251    1.0337 H   0  0  0  0  0  0  0  0  0  0  0  0
  1  3  1  0  0  0  0
  1  7  1  0  0  0  0
  1  2  2  0  0  0  0
 29 30  1  0  0  0  0
 30 38  1  0  0  0  0
 30 31  2  0  0  0  0
  8  9  1  0  0  0  0
  9 17  1  0  0  0  0
  9 10  2  0  0  0  0
 18 19  1  0  0  0  0
 19 28  1  0  0  0  0
 19 20  2  0  0  0  0
 29 32  1  0  0  0  0
  8 11  1  0  0  0  0
 38 39  1  0  0  0  0
 18 21  1  0  0  0  0
 21 22  1  0  0  0  0
 28 29  1  0  0  0  0
  7  8  1  0  0  0  0
 17 18  1  0  0  0  0
  3  4  1  0  0  0  0
  3  5  1  0  0  0  0
  3  6  1  0  0  0  0
 32 35  1  0  0  0  0
 32 36  1  0  0  0  0
 32 37  1  0  0  0  0
 11 14  1  0  0  0  0
 11 15  1  0  0  0  0
 11 16  1  0  0  0  0
 39 41  1  0  0  0  0
 39 42  1  0  0  0  0
 39 43  1  0  0  0  0
 21 25  1  0  0  0  0
 21 26  1  0  0  0  0
 29 34  1  0  0  0  0
  8 13  1  0  0  0  0
 18 24  1  0  0  0  0
 38 40  1  0  0  0  0
  7 12  1  0  0  0  0
 28 33  1  0  0  0  0
 17 23  1  0  0  0  0
 22 27  1  0  0  0  0
M  END
$$$$

  -OEChem-05262214473D

 43 42  0     1  0  0  0  0  0999 V2000
    0.7424   -1.0926    4.5665 C   0  0  0  0  0  0  0  0  0  0  0  0
    0.1409   -0.5364    5.4779 O   0  0  0  0  0  0  0  0  0  0  0  0
    1.7940   -2.1023    4.8871 C   0  0  0  0  0  0  0  0  0  0  0  0
    2.7935   -1.6502    4.9904 H   0  0  0  0  0  0  0  0  0  0  0  0
    1.6064   -2.6156    5.8438 H   0  0  0  0  0  0  0  0  0  0  0  0
    1.9156   -2.9078    4.1453 H   0  0  0  0  0  0  0  0  0  0  0  0
    0.5488   -0.8838    3.2109 N   0  0  0  0  0  0  0  0  0  0  0  0
   -0.4159    0.0446    2.6829 C   0  0  2  0  0  0  0  0  0  0  0  0
   -0.7551   -0.3867    1.2623 C   0  0  0  0  0  0  0  0  0  0  0  0
   -0.0106   -1.0851    0.5774 O   0  0  0  0  0  0  0  0  0  0  0  0
    0.1168    1.4689    2.7060 C   0  0  0  0  0  0  0  0  0  0  0  0
    1.1183   -1.4145    2.5542 H   0  0  0  0  0  0  0  0  0  0  0  0
   -1.3088   -0.0350    3.3125 H   0  0  0  0  0  0  0  0  0  0  0  0
    1.0116    1.5681    2.0808 H   0  0  0  0  0  0  0  0  0  0  0  0
   -0.6289    2.1775    2.3307 H   0  0  0  0  0  0  0  0  0  0  0  0
    0.3882    1.7670    3.7245 H   0  0  0  0  0  0  0  0  0  0  0  0
   -1.9689    0.1350    0.8298 N   0  0  0  0  0  0  0  0  0  0  0  0
   -2.5039   -0.1183   -0.4830 C   0  0  2  0  0  0  0  0  0  0  0  0
   -3.6224    0.8846   -0.7439 C   0  0  0  0  0  0  0  0  0  0  0  0
   -4.7915    0.6830   -0.4221 O   0  0  0  0  0  0  0  0  0  0  0  0
   -2.9837   -1.5589   -0.6286 C   0  0  0  0  0  0  0  0  0  0  0  0
   -4.0979   -1.7958    0.2245 O   0  0  0  0  0  0  0  0  0  0  0  0
   -2.5276    0.6894    1.4750 H   0  0  0  0  0  0  0  0  0  0  0  0
   -1.6877    0.0693   -1.1901 H   0  0  0  0  0  0  0  0  0  0  0  0
   -2.1930   -2.2660   -0.3583 H   0  0  0  0  0  0  0  0  0  0  0  0
   -3.2959   -1.7584   -1.6593 H   0  0  0  0  0  0  0  0  0  0  0  0
   -4.7937   -1.1768   -0.0481 H   0  0  0  0  0  0  0  0  0  0  0  0
   -3.1530    2.0472   -1.3387 N   0  0  0  0  0  0  0  0  0  0  0  0
   -4.0117    3.1636   -1.6596 C   0  0  2  0  0  0  0  0  0  0  0  0
   -5.0966    3.2439   -0.5938 C   0  0  0  0  0  0  0  0  0  0  0  0
   -5.4282    2.2846    0.0995 O   0  0  0  0  0  0  0  0  0  0  0  0
   -4.6207    3.0129   -3.0449 C   0  0  0  0  0  0  0  0  0  0  0  0
   -2.1607    2.1430   -1.5333 H   0  0  0  0  0  0  0  0  0  0  0  0
   -3.3892    4.0640   -1.6165 H   0  0  0  0  0  0  0  0  0  0  0  0
   -5.2478    2.1160   -3.1073 H   0  0  0  0  0  0  0  0  0  0  0  0
   -5.2486    3.8735   -3.2981 H   0  0  0  0  0  0  0  0  0  0  0  0
   -3.8387    2.9253   -3.8070 H   0  0  0  0  0  0  0  0  0  0  0  0
   -5.6809    4.5016   -0.5377 N   0  0  0  0  0  0  0  0  0  0  0  0
   -6.7444    4.8267    0.3839 C   0  0  0  0  0  0  0  0  0  0  0  0
   -5.3300    5.2428   -1.1371 H   0  0  0  0  0  0  0  0  0  0  0  0
   -7.7164    4.6584   -0.1029 H   0  0  0  0  0  0  0  0  0  0  0  0
   -6.6653    4.1871    1.2753 H   0  0  0  0  0  0  0  0  0  0  0  0
   -6.6615    5.8824    0.6815 H   0  0  0  0  0  0  0  0  0  0  0  0
  1  3  1  0  0  0  0
  1  7  1  0  0  0  0
  1  2  2  0  0  0  0
 29 30  1  0  0  0  0
 30 38  1  0  0  0  0
 30 31  2  0  0  0  0
  8  9  1  0  0  0  0
  9 17  1  0  0  0  0
  9 10  2  0  0  0  0
 18 19  1  0  0  0  0
 19 28  1  0  0  0  0
 19 20  2  0  0  0  0
 29 32  1  0  0  0  0
  8 11  1  0  0  0  0
 38 39  1  0  0  0  0
 18 21  1  0  0  0  0
 21 22  1  0  0  0  0
 28 29  1  0  0  0  0
  7  8  1  0  0  0  0
 17 18  1  0  0  0  0
  3  4  1  0  0  0  0
  3  5  1  0  0  0  0
  3  6  1  0  0  0  0
 32 35  1  0  0  0  0
 32 36  1  0  0  0  0
 32 37  1  0  0  0  0
 11 14  1  0  0  0  0
 11 15  1  0  0  0  0
 11 16  1  0  0  0  0
 39 41  1  0  0  0  0
 39 42  1  0  0  0  0
 39 43  1  0  0  0  0
 21 25  1  0  0  0  0
 21 26  1  0  0  0  0
 29 34  1  0  0  0  0
  8 13  1  0  0  0  0
 18 24  1  0  0  0  0
 38 40  1  0  0  0  0
  7 12  1  0  0  0  0
 28 33  1  0  0  0  0
 17 23  1  0  0  0  0
 22 27  1  0  0  0  0
M  END
$$$$

  -OEChem-05262214473D

 43 42  0     1  0  0  0  0  0999 V2000
    0.7424   -1.0926    4.5665 C   0  0  0  0  0  0  0  0  0  0  0  0
    0.1409   -0.5364    5.4779 O   0  0  0  0  0  0  0  0  0  0  0  0
    1.7940   -2.1023    4.8871 C   0  0  0  0  0  0  0  0  0  0  0  0
    2.7935   -1.6502    4.9904 H   0  0  0  0  0  0  0  0  0  0  0  0
    1.6064   -2.6156    5.8438 H   0  0  0  0  0  0  0  0  0  0  0  0
    1.9156   -2.9078    4.1453 H   0  0  0  0  0  0  0  0  0  0  0  0
    0.5488   -0.8838    3.2109 N   0  0  0  0  0  0  0  0  0  0  0  0
   -0.4159    0.0446    2.6829 C   0  0  2  0  0  0  0  0  0  0  0  0
   -0.7551   -0.3867    1.2623 C   0  0  0  0  0  0  0  0  0  0  0  0
   -0.0106   -1.0851    0.5774 O   0  0  0  0  0  0  0  0  0  0  0  0
    0.1168    1.4689    2.7060 C   0  0  0  0  0  0  0  0  0  0  0  0
    1.1183   -1.4145    2.5542 H   0  0  0  0  0  0  0  0  0  0  0  0
   -1.3088   -0.0350    3.3125 H   0  0  0  0  0  0  0  0  0  0  0  0
    1.0116    1.5681    2.0808 H   0  0  0  0  0  0  0  0  0  0  0  0
   -0.6289    2.1775    2.3307 H   0  0  0  0  0  0  0  0  0  0  0  0
    0.3882    1.7670    3.7245 H   0  0  0  0  0  0  0  0  0  0  0  0
   -1.9689    0.1350    0.8298 N   0  0  0  0  0  0  0  0  0  0  0  0
   -2.5039   -0.1183   -0.4830 C   0  0  2  0  0  0  0  0  0  0  0  0
   -3.6224    0.8846   -0.7439 C   0  0  0  0  0  0  0  0  0  0  0  0
   -4.7226    0.8178   -0.1996 O   0  0  0  0  0  0  0  0  0  0  0  0
   -2.9837   -1.5589   -0.6286 C   0  0  0  0  0  0  0  0  0  0  0  0
   -4.0979   -1.7958    0.2245 O   0  0  0  0  0  0  0  0  0  0  0  0
   -2.5276    0.6894    1.4750 H   0  0  0  0  0  0  0  0  0  0  0  0
   -1.6877    0.0693   -1.1901 H   0  0  0  0  0  0  0  0  0  0  0  0
   -2.1930   -2.2660   -0.3583 H   0  0  0  0  0  0  0  0  0  0  0  0
   -3.2959   -1.7584   -1.6593 H   0  0  0  0  0  0  0  0  0  0  0  0
   -4.7937   -1.1768   -0.0481 H   0  0  0  0  0  0  0  0  0  0  0  0
   -3.2318    1.8856   -1.6221 N   0  0  0  0  0  0  0  0  0  0  0  0
   -4.1019    2.9728   -2.0061 C   0  0  2  0  0  0  0  0  0  0  0  0
   -4.9816    3.3158   -0.8111 C   0  0  0  0  0  0  0  0  0  0  0  0
   -5.2136    2.5240    0.1002 O   0  0  0  0  0  0  0  0  0  0  0  0
   -4.9473    2.6043   -3.2153 C   0  0  0  0  0  0  0  0  0  0  0  0
   -2.2864    1.8830   -1.9935 H   0  0  0  0  0  0  0  0  0  0  0  0
   -3.4567    3.8260   -2.2422 H   0  0  0  0  0  0  0  0  0  0  0  0
   -5.6004    1.7513   -2.9979 H   0  0  0  0  0  0  0  0  0  0  0  0
   -5.5855    3.4393   -3.5226 H   0  0  0  0  0  0  0  0  0  0  0  0
   -4.3131    2.3292   -4.0650 H   0  0  0  0  0  0  0  0  0  0  0  0
   -5.5118    4.5950   -0.9034 N   0  0  0  0  0  0  0  0  0  0  0  0
   -6.3887    5.1499    0.1012 C   0  0  0  0  0  0  0  0  0  0  0  0
   -5.2504    5.1891   -1.6848 H   0  0  0  0  0  0  0  0  0  0  0  0
   -7.4350    4.9533   -0.1756 H   0  0  0  0  0  0  0  0  0  0  0  0
   -6.1730    4.6836    1.0739 H   0  0  0  0  0  0  0  0  0  0  0  0
   -6.2257    6.2355    0.1708 H   0  0  0  0  0  0  0  0  0  0  0  0
  1  3  1  0  0  0  0
  1  7  1  0  0  0  0
  1  2  2  0  0  0  0
 29 30  1  0  0  0  0
 30 38  1  0  0  0  0
 30 31  2  0  0  0  0
  8  9  1  0  0  0  0
  9 17  1  0  0  0  0
  9 10  2  0  0  0  0
 18 19  1  0  0  0  0
 19 28  1  0  0  0  0
 19 20  2  0  0  0  0
 29 32  1  0  0  0  0
  8 11  1  0  0  0  0
 38 39  1  0  0  0  0
 18 21  1  0  0  0  0
 21 22  1  0  0  0  0
 28 29  1  0  0  0  0
  7  8  1  0  0  0  0
 17 18  1  0  0  0  0
  3  4  1  0  0  0  0
  3  5  1  0  0  0  0
  3  6  1  0  0  0  0
 32 35  1  0  0  0  0
 32 36  1  0  0  0  0
 32 37  1  0  0  0  0
 11 14  1  0  0  0  0
 11 15  1  0  0  0  0
 11 16  1  0  0  0  0
 39 41  1  0  0  0  0
 39 42  1  0  0  0  0
 39 43  1  0  0  0  0
 21 25  1  0  0  0  0
 21 26  1  0  0  0  0
 29 34  1  0  0  0  0
  8 13  1  0  0  0  0
 18 24  1  0  0  0  0
 38 40  1  0  0  0  0
  7 12  1  0  0  0  0
 28 33  1  0  0  0  0
 17 23  1  0  0  0  0
 22 27  1  0  0  0  0
M  END
$$$$

  -OEChem-05262214473D

 43 42  0     1  0  0  0  0  0999 V2000
    0.7424   -1.0926    4.5665 C   0  0  0  0  0  0  0  0  0  0  0  0
    0.1409   -0.5364    5.4779 O   0  0  0  0  0  0  0  0  0  0  0  0
    1.7940   -2.1023    4.8871 C   0  0  0  0  0  0  0  0  0  0  0  0
    2.7935   -1.6502    4.9904 H   0  0  0  0  0  0  0  0  0  0  0  0
    1.6064   -2.6156    5.8438 H   0  0  0  0  0  0  0  0  0  0  0  0
    1.9156   -2.9078    4.1453 H   0  0  0  0  0  0  0  0  0  0  0  0
    0.5488   -0.8838    3.2109 N   0  0  0  0  0  0  0  0  0  0  0  0
   -0.4159    0.0446    2.6829 C   0  0  2  0  0  0  0  0  0  0  0  0
   -0.7551   -0.3867    1.2623 C   0  0  0  0  0  0  0  0  0  0  0  0
   -0.0106   -1.0851    0.5774 O   0  0  0  0  0  0  0  0  0  0  0  0
    0.1168    1.4689    2.7060 C   0  0  0  0  0  0  0  0  0  0  0  0
    1.1183   -1.4145    2.5542 H   0  0  0  0  0  0  0  0  0  0  0  0
   -1.3088   -0.0350    3.3125 H   0  0  0  0  0  0  0  0  0  0  0  0
    1.0116    1.5681    2.0808 H   0  0  0  0  0  0  0  0  0  0  0  0
   -0.6289    2.1775    2.3307 H   0  0  0  0  0  0  0  0  0  0  0  0
    0.3882    1.7670    3.7245 H   0  0  0  0  0  0  0  0  0  0  0  0
   -1.9689    0.1350    0.8298 N   0  0  0  0  0  0  0  0  0  0  0  0
   -2.5039   -0.1183   -0.4830 C   0  0  2  0  0  0  0  0  0  0  0  0
   -3.6224    0.8846   -0.7439 C   0  0  0  0  0  0  0  0  0  0  0  0
   -4.6121    0.9871   -0.0221 O   0  0  0  0  0  0  0  0  0  0  0  0
   -2.9837   -1.5589   -0.6286 C   0  0  0  0  0  0  0  0  0  0  0  0
   -4.0979   -1.7958    0.2245 O   0  0  0  0  0  0  0  0  0  0  0  0
   -2.5276    0.6894    1.4750 H   0  0  0  0  0  0  0  0  0  0  0  0
   -1.6877    0.0693   -1.1901 H   0  0  0  0  0  0  0  0  0  0  0  0
   -2.1930   -2.2660   -0.3583 H   0  0  0  0  0  0  0  0  0  0  0  0
   -3.2959   -1.7584   -1.6593 H   0  0  0  0  0  0  0  0  0  0  0  0
   -4.7937   -1.1768   -0.0481 H   0  0  0  0  0  0  0  0  0  0  0  0
   -3.3633    1.6792   -1.8517 N   0  0  0  0  0  0  0  0  0  0  0  0
   -4.2565    2.7268   -2.2892 C   0  0  2  0  0  0  0  0  0  0  0  0
   -4.9042    3.3388   -1.0542 C   0  0  0  0  0  0  0  0  0  0  0  0
   -4.9956    2.7460    0.0188 O   0  0  0  0  0  0  0  0  0  0  0  0
   -5.3098    2.1918   -3.2468 C   0  0  0  0  0  0  0  0  0  0  0  0
   -2.4978    1.5502   -2.3673 H   0  0  0  0  0  0  0  0  0  0  0  0
   -3.6388    3.4804   -2.7898 H   0  0  0  0  0  0  0  0  0  0  0  0
   -5.9385    1.4354   -2.7629 H   0  0  0  0  0  0  0  0  0  0  0  0
   -5.9684    2.9923   -3.5997 H   0  0  0  0  0  0  0  0  0  0  0  0
   -4.8416    1.7255   -4.1203 H   0  0  0  0  0  0  0  0  0  0  0  0
   -5.4066    4.6084   -1.3032 N   0  0  0  0  0  0  0  0  0  0  0  0
   -6.0789    5.3926   -0.2938 C   0  0  0  0  0  0  0  0  0  0  0  0
   -5.2691    5.0297   -2.2171 H   0  0  0  0  0  0  0  0  0  0  0  0
   -7.1625    5.2119   -0.3497 H   0  0  0  0  0  0  0  0  0  0  0  0
   -5.7099    5.1032    0.7013 H   0  0  0  0  0  0  0  0  0  0  0  0
   -5.8761    6.4603   -0.4638 H   0  0  0  0  0  0  0  0  0  0  0  0
  1  3  1  0  0  0  0
  1  7  1  0  0  0  0
  1  2  2  0  0  0  0
 29 30  1  0  0  0  0
 30 38  1  0  0  0  0
 30 31  2  0  0  0  0
  8  9  1  0  0  0  0
  9 17  1  0  0  0  0
  9 10  2  0  0  0  0
 18 19  1  0  0  0  0
 19 28  1  0  0  0  0
 19 20  2  0  0  0  0
 29 32  1  0  0  0  0
  8 11  1  0  0  0  0
 38 39  1  0  0  0  0
 18 21  1  0  0  0  0
 21 22  1  0  0  0  0
 28 29  1  0  0  0  0
  7  8  1  0  0  0  0
 17 18  1  0  0  0  0
  3  4  1  0  0  0  0
  3  5  1  0  0  0  0
  3  6  1  0  0  0  0
 32 35  1  0  0  0  0
 32 36  1  0  0  0  0
 32 37  1  0  0  0  0
 11 14  1  0  0  0  0
 11 15  1  0  0  0  0
 11 16  1  0  0  0  0
 39 41  1  0  0  0  0
 39 42  1  0  0  0  0
 39 43  1  0  0  0  0
 21 25  1  0  0  0  0
 21 26  1  0  0  0  0
 29 34  1  0  0  0  0
  8 13  1  0  0  0  0
 18 24  1  0  0  0  0
 38 40  1  0  0  0  0
  7 12  1  0  0  0  0
 28 33  1  0  0  0  0
 17 23  1  0  0  0  0
 22 27  1  0  0  0  0
M  END
$$$$

  -OEChem-05262214473D

 43 42  0     1  0  0  0  0  0999 V2000
    0.7424   -1.0926    4.5665 C   0  0  0  0  0  0  0  0  0  0  0  0
    0.1409   -0.5364    5.4779 O   0  0  0  0  0  0  0  0  0  0  0  0
    1.7940   -2.1023    4.8871 C   0  0  0  0  0  0  0  0  0  0  0  0
    2.7935   -1.6502    4.9904 H   0  0  0  0  0  0  0  0  0  0  0  0
    1.6064   -2.6156    5.8438 H   0  0  0  0  0  0  0  0  0  0  0  0
    1.9156   -2.9078    4.1453 H   0  0  0  0  0  0  0  0  0  0  0  0
    0.5488   -0.8838    3.2109 N   0  0  0  0  0  0  0  0  0  0  0  0
   -0.4159    0.0446    2.6829 C   0  0  2  0  0  0  0  0  0  0  0  0
   -0.7551   -0.3867    1.2623 C   0  0  0  0  0  0  0  0  0  0  0  0
   -0.0106   -1.0851    0.5774 O   0  0  0  0  0  0  0  0  0  0  0  0
    0.1168    1.4689    2.7060 C   0  0  0  0  0  0  0  0  0  0  0  0
    1.1183   -1.4145    2.5542 H   0  0  0  0  0  0  0  0  0  0  0  0
   -1.3088   -0.0350    3.3125 H   0  0  0  0  0  0  0  0  0  0  0  0
    1.0116    1.5681    2.0808 H   0  0  0  0  0  0  0  0  0  0  0  0
   -0.6289    2.1775    2.3307 H   0  0  0  0  0  0  0  0  0  0  0  0
    0.3882    1.7670    3.7245 H   0  0  0  0  0  0  0  0  0  0  0  0
   -1.9689    0.1350    0.8298 N   0  0  0  0  0  0  0  0  0  0  0  0
   -2.5039   -0.1183   -0.4830 C   0  0  2  0  0  0  0  0  0  0  0  0
   -3.6224    0.8846   -0.7439 C   0  0  0  0  0  0  0  0  0  0  0  0
   -4.4677    1.1795    0.0985 O   0  0  0  0  0  0  0  0  0  0  0  0
   -2.9837   -1.5589   -0.6286 C   0  0  0  0  0  0  0  0  0  0  0  0
   -4.0979   -1.7958    0.2245 O   0  0  0  0  0  0  0  0  0  0  0  0
   -2.5276    0.6894    1.4750 H   0  0  0  0  0  0  0  0  0  0  0  0
   -1.6877    0.0693   -1.1901 H   0  0  0  0  0  0  0  0  0  0  0  0
   -2.1930   -2.2660   -0.3583 H   0  0  0  0  0  0  0  0  0  0  0  0
   -3.2959   -1.7584   -1.6593 H   0  0  0  0  0  0  0  0  0  0  0  0
   -4.7937   -1.1768   -0.0481 H   0  0  0  0  0  0  0  0  0  0  0  0
   -3.5386    1.4420   -2.0120 N   0  0  0  0  0  0  0  0  0  0  0  0
   -4.4649    2.4422   -2.4897 C   0  0  2  0  0  0  0  0  0  0  0  0
   -4.8698    3.3115   -1.3065 C   0  0  0  0  0  0  0  0  0  0  0  0
   -4.7890    2.9353   -0.1390 O   0  0  0  0  0  0  0  0  0  0  0  0
   -5.6837    1.8034   -3.1371 C   0  0  0  0  0  0  0  0  0  0  0  0
   -2.7802    1.1670   -2.6291 H   0  0  0  0  0  0  0  0  0  0  0  0
   -3.9233    3.0507   -3.2222 H   0  0  0  0  0  0  0  0  0  0  0  0
   -6.2391    1.1898   -2.4184 H   0  0  0  0  0  0  0  0  0  0  0  0
   -6.3712    2.5628   -3.5241 H   0  0  0  0  0  0  0  0  0  0  0  0
   -5.3882    1.1552   -3.9691 H   0  0  0  0  0  0  0  0  0  0  0  0
   -5.3724    4.5407   -1.7098 N   0  0  0  0  0  0  0  0  0  0  0  0
   -5.8361    5.5384   -0.7741 C   0  0  0  0  0  0  0  0  0  0  0  0
   -5.3849    4.7755   -2.6980 H   0  0  0  0  0  0  0  0  0  0  0  0
   -6.9175    5.4166   -0.6133 H   0  0  0  0  0  0  0  0  0  0  0  0
   -5.3073    5.4173    0.1828 H   0  0  0  0  0  0  0  0  0  0  0  0
   -5.6365    6.5415   -1.1789 H   0  0  0  0  0  0  0  0  0  0  0  0
  1  3  1  0  0  0  0
  1  7  1  0  0  0  0
  1  2  2  0  0  0  0
 29 30  1  0  0  0  0
 30 38  1  0  0  0  0
 30 31  2  0  0  0  0
  8  9  1  0  0  0  0
  9 17  1  0  0  0  0
  9 10  2  0  0  0  0
 18 19  1  0  0  0  0
 19 28  1  0  0  0  0
 19 20  2  0  0  0  0
 29 32  1  0  0  0  0
  8 11  1  0  0  0  0
 38 39  1  0  0  0  0
 18 21  1  0  0  0  0
 21 22  1  0  0  0  0
 28 29  1  0  0  0  0
  7  8  1  0  0  0  0
 17 18  1  0  0  0  0
  3  4  1  0  0  0  0
  3  5  1  0  0  0  0
  3  6  1  0  0  0  0
 32 35  1  0  0  0  0
 32 36  1  0  0  0  0
 32 37  1  0  0  0  0
 11 14  1  0  0  0  0
 11 15  1  0  0  0  0
 11 16  1  0  0  0  0
 39 41  1  0  0  0  0
 39 42  1  0  0  0  0
 39 43  1  0  0  0  0
 21 25  1  0  0  0  0
 21 26  1  0  0  0  0
 29 34  1  0  0  0  0
  8 13  1  0  0  0  0
 18 24  1  0  0  0  0
 38 40  1  0  0  0  0
  7 12  1  0  0  0  0
 28 33  1  0  0  0  0
 17 23  1  0  0  0  0
 22 27  1  0  0  0  0
M  END
$$$$

  -OEChem-05262214473D

 43 42  0     1  0  0  0  0  0999 V2000
    0.7424   -1.0926    4.5665 C   0  0  0  0  0  0  0  0  0  0  0  0
    0.1409   -0.5364    5.4779 O   0  0  0  0  0  0  0  0  0  0  0  0
    1.7940   -2.1023    4.8871 C   0  0  0  0  0  0  0  0  0  0  0  0
    2.7935   -1.6502    4.9904 H   0  0  0  0  0  0  0  0  0  0  0  0
    1.6064   -2.6156    5.8438 H   0  0  0  0  0  0  0  0  0  0  0  0
    1.9156   -2.9078    4.1453 H   0  0  0  0  0  0  0  0  0  0  0  0
    0.5488   -0.8838    3.2109 N   0  0  0  0  0  0  0  0  0  0  0  0
   -0.4159    0.0446    2.6829 C   0  0  2  0  0  0  0  0  0  0  0  0
   -0.7551   -0.3867    1.2623 C   0  0  0  0  0  0  0  0  0  0  0  0
   -0.0106   -1.0851    0.5774 O   0  0  0  0  0  0  0  0  0  0  0  0
    0.1168    1.4689    2.7060 C   0  0  0  0  0  0  0  0  0  0  0  0
    1.1183   -1.4145    2.5542 H   0  0  0  0  0  0  0  0  0  0  0  0
   -1.3088   -0.0350    3.3125 H   0  0  0  0  0  0  0  0  0  0  0  0
    1.0116    1.5681    2.0808 H   0  0  0  0  0  0  0  0  0  0  0  0
   -0.6289    2.1775    2.3307 H   0  0  0  0  0  0  0  0  0  0  0  0
    0.3882    1.7670    3.7245 H   0  0  0  0  0  0  0  0  0  0  0  0
   -1.9689    0.1350    0.8298 N   0  0  0  0  0  0  0  0  0  0  0  0
   -2.5039   -0.1183   -0.4830 C   0  0  2  0  0  0  0  0  0  0  0  0
   -3.6224    0.8846   -0.7439 C   0  0  0  0  0  0  0  0  0  0  0  0
   -4.2992    1.3819    0.1538 O   0  0  0  0  0  0  0  0  0  0  0  0
   -2.9837   -1.5589   -0.6286 C   0  0  0  0  0  0  0  0  0  0  0  0
   -4.0979   -1.7958    0.2245 O   0  0  0  0  0  0  0  0  0  0  0  0
   -2.5276    0.6894    1.4750 H   0  0  0  0  0  0  0  0  0  0  0  0
   -1.6877    0.0693   -1.1901 H   0  0  0  0  0  0  0  0  0  0  0  0
   -2.1930   -2.2660   -0.3583 H   0  0  0  0  0  0  0  0  0  0  0  0
   -3.2959   -1.7584   -1.6593 H   0  0  0  0  0  0  0  0  0  0  0  0
   -4.7937   -1.1768   -0.0481 H   0  0  0  0  0  0  0  0  0  0  0  0
   -3.7457    1.1903   -2.0919 N   0  0  0  0  0  0  0  0  0  0  0  0
   -4.7129    2.1385   -2.5938 C   0  0  2  0  0  0  0  0  0  0  0  0
   -4.8808    3.2357   -1.5509 C   0  0  0  0  0  0  0  0  0  0  0  0
   -4.6080    3.0790   -0.3626 O   0  0  0  0  0  0  0  0  0  0  0  0
   -6.0433    1.4657   -2.8938 C   0  0  0  0  0  0  0  0  0  0  0  0
   -3.1146    0.7597   -2.7613 H   0  0  0  0  0  0  0  0  0  0  0  0
   -4.2908    2.5661   -3.5098 H   0  0  0  0  0  0  0  0  0  0  0  0
   -6.4816    1.0313   -1.9879 H   0  0  0  0  0  0  0  0  0  0  0  0
   -6.7664    2.1801   -3.3010 H   0  0  0  0  0  0  0  0  0  0  0  0
   -5.9158    0.6572   -3.6218 H   0  0  0  0  0  0  0  0  0  0  0  0
   -5.4117    4.3966   -2.0955 N   0  0  0  0  0  0  0  0  0  0  0  0
   -5.6770    5.5772   -1.3070 C   0  0  0  0  0  0  0  0  0  0  0  0
   -5.5898    4.4439   -3.0944 H   0  0  0  0  0  0  0  0  0  0  0  0
   -6.7166    5.5533   -0.9485 H   0  0  0  0  0  0  0  0  0  0  0  0
   -4.9929    5.6044   -0.4461 H   0  0  0  0  0  0  0  0  0  0  0  0
   -5.5232    6.4735   -1.9259 H   0  0  0  0  0  0  0  0  0  0  0  0
  1  3  1  0  0  0  0
  1  7  1  0  0  0  0
  1  2  2  0  0  0  0
 29 30  1  0  0  0  0
 30 38  1  0  0  0  0
 30 31  2  0  0  0  0
  8  9  1  0  0  0  0
  9 17  1  0  0  0  0
  9 10  2  0  0  0  0
 18 19  1  0  0  0  0
 19 28  1  0  0  0  0
 19 20  2  0  0  0  0
 29 32  1  0  0  0  0
  8 11  1  0  0  0  0
 38 39  1  0  0  0  0
 18 21  1  0  0  0  0
 21 22  1  0  0  0  0
 28 29  1  0  0  0  0
  7  8  1  0  0  0  0
 17 18  1  0  0  0  0
  3  4  1  0  0  0  0
  3  5  1  0  0  0  0
  3  6  1  0  0  0  0
 32 35  1  0  0  0  0
 32 36  1  0  0  0  0
 32 37  1  0  0  0  0
 11 14  1  0  0  0  0
 11 15  1  0  0  0  0
 11 16  1  0  0  0  0
 39 41  1  0  0  0  0
 39 42  1  0  0  0  0
 39 43  1  0  0  0  0
 21 25  1  0  0  0  0
 21 26  1  0  0  0  0
 29 34  1  0  0  0  0
  8 13  1  0  0  0  0
 18 24  1  0  0  0  0
 38 40  1  0  0  0  0
  7 12  1  0  0  0  0
 28 33  1  0  0  0  0
 17 23  1  0  0  0  0
 22 27  1  0  0  0  0
M  END
$$$$

  -OEChem-05262214473D

 43 42  0     1  0  0  0  0  0999 V2000
    0.7424   -1.0926    4.5665 C   0  0  0  0  0  0  0  0  0  0  0  0
    0.1409   -0.5364    5.4779 O   0  0  0  0  0  0  0  0  0  0  0  0
    1.7940   -2.1023    4.8871 C   0  0  0  0  0  0  0  0  0  0  0  0
    2.7935   -1.6502    4.9904 H   0  0  0  0  0  0  0  0  0  0  0  0
    1.6064   -2.6156    5.8438 H   0  0  0  0  0  0  0  0  0  0  0  0
    1.9156   -2.9078    4.1453 H   0  0  0  0  0  0  0  0  0  0  0  0
    0.5488   -0.8838    3.2109 N   0  0  0  0  0  0  0  0  0  0  0  0
   -0.4159    0.0446    2.6829 C   0  0  2  0  0  0  0  0  0  0  0  0
   -0.7551   -0.3867    1.2623 C   0  0  0  0  0  0  0  0  0  0  0  0
   -0.0106   -1.0851    0.5774 O   0  0  0  0  0  0  0  0  0  0  0  0
    0.1168    1.4689    2.7060 C   0  0  0  0  0  0  0  0  0  0  0  0
    1.1183   -1.4145    2.5542 H   0  0  0  0  0  0  0  0  0  0  0  0
   -1.3088   -0.0350    3.3125 H   0  0  0  0  0  0  0  0  0  0  0  0
    1.0116    1.5681    2.0808 H   0  0  0  0  0  0  0  0  0  0  0  0
   -0.6289    2.1775    2.3307 H   0  0  0  0  0  0  0  0  0  0  0  0
    0.3882    1.7670    3.7245 H   0  0  0  0  0  0  0  0  0  0  0  0
   -1.9689    0.1350    0.8298 N   0  0  0  0  0  0  0  0  0  0  0  0
   -2.5039   -0.1183   -0.4830 C   0  0  2  0  0  0  0  0  0  0  0  0
   -3.6224    0.8846   -0.7439 C   0  0  0  0  0  0  0  0  0  0  0  0
   -4.1180    1.5803    0.1401 O   0  0  0  0  0  0  0  0  0  0  0  0
   -2.9837   -1.5589   -0.6286 C   0  0  0  0  0  0  0  0  0  0  0  0
   -4.0979   -1.7958    0.2245 O   0  0  0  0  0  0  0  0  0  0  0  0
   -2.5276    0.6894    1.4750 H   0  0  0  0  0  0  0  0  0  0  0  0
   -1.6877    0.0693   -1.1901 H   0  0  0  0  0  0  0  0  0  0  0  0
   -2.1930   -2.2660   -0.3583 H   0  0  0  0  0  0  0  0  0  0  0  0
   -3.2959   -1.7584   -1.6593 H   0  0  0  0  0  0  0  0  0  0  0  0
   -4.7937   -1.1768   -0.0481 H   0  0  0  0  0  0  0  0  0  0  0  0
   -3.9705    0.9411   -2.0860 N   0  0  0  0  0  0  0  0  0  0  0  0
   -4.9837    1.8364   -2.5945 C   0  0  2  0  0  0  0  0  0  0  0  0
   -4.9364    3.1165   -1.7707 C   0  0  0  0  0  0  0  0  0  0  0  0
   -4.4648    3.1674   -0.6366 O   0  0  0  0  0  0  0  0  0  0  0  0
   -6.3642    1.2015   -2.5334 C   0  0  0  0  0  0  0  0  0  0  0  0
   -3.4782    0.3561   -2.7546 H   0  0  0  0  0  0  0  0  0  0  0  0
   -4.7162    2.0596   -3.6330 H   0  0  0  0  0  0  0  0  0  0  0  0
   -6.6496    0.9707   -1.5006 H   0  0  0  0  0  0  0  0  0  0  0  0
   -7.1271    1.8703   -2.9455 H   0  0  0  0  0  0  0  0  0  0  0  0
   -6.3882    0.2656   -3.1019 H   0  0  0  0  0  0  0  0  0  0  0  0
   -5.5216    4.1859   -2.4341 N   0  0  0  0  0  0  0  0  0  0  0  0
   -5.6122    5.5065   -1.8563 C   0  0  0  0  0  0  0  0  0  0  0  0
   -5.8700    4.0573   -3.3795 H   0  0  0  0  0  0  0  0  0  0  0  0
   -6.5736    5.6129   -1.3325 H   0  0  0  0  0  0  0  0  0  0  0  0
   -4.7879    5.6517   -1.1426 H   0  0  0  0  0  0  0  0  0  0  0  0
   -5.5439    6.2610   -2.6539 H   0  0  0  0  0  0  0  0  0  0  0  0
  1  3  1  0  0  0  0
  1  7  1  0  0  0  0
  1  2  2  0  0  0  0
 29 30  1  0  0  0  0
 30 38  1  0  0  0  0
 30 31  2  0  0  0  0
  8  9  1  0  0  0  0
  9 17  1  0  0  0  0
  9 10  2  0  0  0  0
 18 19  1  0  0  0  0
 19 28  1  0  0  0  0
 19 20  2  0  0  0  0
 29 32  1  0  0  0  0
  8 11  1  0  0  0  0
 38 39  1  0  0  0  0
 18 21  1  0  0  0  0
 21 22  1  0  0  0  0
 28 29  1  0  0  0  0
  7  8  1  0  0  0  0
 17 18  1  0  0  0  0
  3  4  1  0  0  0  0
  3  5  1  0  0  0  0
  3  6  1  0  0  0  0
 32 35  1  0  0  0  0
 32 36  1  0  0  0  0
 32 37  1  0  0  0  0
 11 14  1  0  0  0  0
 11 15  1  0  0  0  0
 11 16  1  0  0  0  0
 39 41  1  0  0  0  0
 39 42  1  0  0  0  0
 39 43  1  0  0  0  0
 21 25  1  0  0  0  0
 21 26  1  0  0  0  0
 29 34  1  0  0  0  0
  8 13  1  0  0  0  0
 18 24  1  0  0  0  0
 38 40  1  0  0  0  0
  7 12  1  0  0  0  0
 28 33  1  0  0  0  0
 17 23  1  0  0  0  0
 22 27  1  0  0  0  0
M  END
$$$$

  -OEChem-05262214473D

 43 42  0     1  0  0  0  0  0999 V2000
    0.7424   -1.0926    4.5665 C   0  0  0  0  0  0  0  0  0  0  0  0
    0.1409   -0.5364    5.4779 O   0  0  0  0  0  0  0  0  0  0  0  0
    1.7940   -2.1023    4.8871 C   0  0  0  0  0  0  0  0  0  0  0  0
    2.7935   -1.6502    4.9904 H   0  0  0  0  0  0  0  0  0  0  0  0
    1.6064   -2.6156    5.8438 H   0  0  0  0  0  0  0  0  0  0  0  0
    1.9156   -2.9078    4.1453 H   0  0  0  0  0  0  0  0  0  0  0  0
    0.5488   -0.8838    3.2109 N   0  0  0  0  0  0  0  0  0  0  0  0
   -0.4159    0.0446    2.6829 C   0  0  2  0  0  0  0  0  0  0  0  0
   -0.7551   -0.3867    1.2623 C   0  0  0  0  0  0  0  0  0  0  0  0
   -0.0106   -1.0851    0.5774 O   0  0  0  0  0  0  0  0  0  0  0  0
    0.1168    1.4689    2.7060 C   0  0  0  0  0  0  0  0  0  0  0  0
    1.1183   -1.4145    2.5542 H   0  0  0  0  0  0  0  0  0  0  0  0
   -1.3088   -0.0350    3.3125 H   0  0  0  0  0  0  0  0  0  0  0  0
    1.0116    1.5681    2.0808 H   0  0  0  0  0  0  0  0  0  0  0  0
   -0.6289    2.1775    2.3307 H   0  0  0  0  0  0  0  0  0  0  0  0
    0.3882    1.7670    3.7245 H   0  0  0  0  0  0  0  0  0  0  0  0
   -1.9689    0.1350    0.8298 N   0  0  0  0  0  0  0  0  0  0  0  0
   -2.5039   -0.1183   -0.4830 C   0  0  2  0  0  0  0  0  0  0  0  0
   -3.3418    1.0864   -0.8972 C   0  0  0  0  0  0  0  0  0  0  0  0
   -3.4652    2.0892   -0.1970 O   0  0  0  0  0  0  0  0  0  0  0  0
   -3.3078   -1.4140   -0.5245 C   0  0  0  0  0  0  0  0  0  0  0  0
   -4.4746   -1.2960    0.2816 O   0  0  0  0  0  0  0  0  0  0  0  0
   -2.5276    0.6894    1.4750 H   0  0  0  0  0  0  0  0  0  0  0  0
   -1.6429   -0.1995   -1.1565 H   0  0  0  0  0  0  0  0  0  0  0  0
   -2.7178   -2.2551   -0.1465 H   0  0  0  0  0  0  0  0  0  0  0  0
   -3.6233   -1.6387   -1.5489 H   0  0  0  0  0  0  0  0  0  0  0  0
   -4.9933   -0.5625   -0.0853 H   0  0  0  0  0  0  0  0  0  0  0  0
   -3.8989    0.9264   -2.1580 N   0  0  0  0  0  0  0  0  0  0  0  0
   -4.7106    1.9409   -2.7892 C   0  0  2  0  0  0  0  0  0  0  0  0
   -4.1749    3.3023   -2.3662 C   0  0  0  0  0  0  0  0  0  0  0  0
   -3.5099    3.4743   -1.3467 O   0  0  0  0  0  0  0  0  0  0  0  0
   -6.1760    1.7919   -2.4106 C   0  0  0  0  0  0  0  0  0  0  0  0
   -3.7101    0.0777   -2.6832 H   0  0  0  0  0  0  0  0  0  0  0  0
   -4.5856    1.8185   -3.8706 H   0  0  0  0  0  0  0  0  0  0  0  0
   -6.3210    1.9114   -1.3307 H   0  0  0  0  0  0  0  0  0  0  0  0
   -6.7939    2.5439   -2.9122 H   0  0  0  0  0  0  0  0  0  0  0  0
   -6.5516    0.8012   -2.6887 H   0  0  0  0  0  0  0  0  0  0  0  0
   -4.5630    4.3098   -3.2382 N   0  0  0  0  0  0  0  0  0  0  0  0
   -4.1915    5.6924   -3.0470 C   0  0  0  0  0  0  0  0  0  0  0  0
   -5.0981    4.0733   -4.0686 H   0  0  0  0  0  0  0  0  0  0  0  0
   -4.9784    6.2087   -2.4775 H   0  0  0  0  0  0  0  0  0  0  0  0
   -3.2434    5.7437   -2.4917 H   0  0  0  0  0  0  0  0  0  0  0  0
   -4.0695    6.1779   -4.0265 H   0  0  0  0  0  0  0  0  0  0  0  0
  1  3  1  0  0  0  0
  1  7  1  0  0  0  0
  1  2  2  0  0  0  0
 29 30  1  0  0  0  0
 30 38  1  0  0  0  0
 30 31  2  0  0  0  0
  8  9  1  0  0  0  0
  9 17  1  0  0  0  0
  9 10  2  0  0  0  0
 18 19  1  0  0  0  0
 19 28  1  0  0  0  0
 19 20  2  0  0  0  0
 29 32  1  0  0  0  0
  8 11  1  0  0  0  0
 38 39  1  0  0  0  0
 18 21  1  0  0  0  0
 21 22  1  0  0  0  0
 28 29  1  0  0  0  0
  7  8  1  0  0  0  0
 17 18  1  0  0  0  0
  3  4  1  0  0  0  0
  3  5  1  0  0  0  0
  3  6  1  0  0  0  0
 32 35  1  0  0  0  0
 32 36  1  0  0  0  0
 32 37  1  0  0  0  0
 11 14  1  0  0  0  0
 11 15  1  0  0  0  0
 11 16  1  0  0  0  0
 39 41  1  0  0  0  0
 39 42  1  0  0  0  0
 39 43  1  0  0  0  0
 21 25  1  0  0  0  0
 21 26  1  0  0  0  0
 29 34  1  0  0  0  0
  8 13  1  0  0  0  0
 18 24  1  0  0  0  0
 38 40  1  0  0  0  0
  7 12  1  0  0  0  0
 28 33  1  0  0  0  0
 17 23  1  0  0  0  0
 22 27  1  0  0  0  0
M  END
$$$$

  -OEChem-05262214473D

 43 42  0     1  0  0  0  0  0999 V2000
    0.7424   -1.0926    4.5665 C   0  0  0  0  0  0  0  0  0  0  0  0
    0.1409   -0.5364    5.4779 O   0  0  0  0  0  0  0  0  0  0  0  0
    1.7940   -2.1023    4.8871 C   0  0  0  0  0  0  0  0  0  0  0  0
    2.7935   -1.6502    4.9904 H   0  0  0  0  0  0  0  0  0  0  0  0
    1.6064   -2.6156    5.8438 H   0  0  0  0  0  0  0  0  0  0  0  0
    1.9156   -2.9078    4.1453 H   0  0  0  0  0  0  0  0  0  0  0  0
    0.5488   -0.8838    3.2109 N   0  0  0  0  0  0  0  0  0  0  0  0
   -0.4159    0.0446    2.6829 C   0  0  2  0  0  0  0  0  0  0  0  0
   -0.7551   -0.3867    1.2623 C   0  0  0  0  0  0  0  0  0  0  0  0
   -0.0106   -1.0851    0.5774 O   0  0  0  0  0  0  0  0  0  0  0  0
    0.1168    1.4689    2.7060 C   0  0  0  0  0  0  0  0  0  0  0  0
    1.1183   -1.4145    2.5542 H   0  0  0  0  0  0  0  0  0  0  0  0
   -1.3088   -0.0350    3.3125 H   0  0  0  0  0  0  0  0  0  0  0  0
    1.0116    1.5681    2.0808 H   0  0  0  0  0  0  0  0  0  0  0  0
   -0.6289    2.1775    2.3307 H   0  0  0  0  0  0  0  0  0  0  0  0
    0.3882    1.7670    3.7245 H   0  0  0  0  0  0  0  0  0  0  0  0
   -1.9689    0.1350    0.8298 N   0  0  0  0  0  0  0  0  0  0  0  0
   -2.5039   -0.1183   -0.4830 C   0  0  2  0  0  0  0  0  0  0  0  0
   -3.3418    1.0864   -0.8972 C   0  0  0  0  0  0  0  0  0  0  0  0
   -3.2598    2.1813   -0.3444 O   0  0  0  0  0  0  0  0  0  0  0  0
   -3.3078   -1.4140   -0.5245 C   0  0  0  0  0  0  0  0  0  0  0  0
   -4.4746   -1.2960    0.2816 O   0  0  0  0  0  0  0  0  0  0  0  0
   -2.5276    0.6894    1.4750 H   0  0  0  0  0  0  0  0  0  0  0  0
   -1.6429   -0.1995   -1.1565 H   0  0  0  0  0  0  0  0  0  0  0  0
   -2.7178   -2.2551   -0.1465 H   0  0  0  0  0  0  0  0  0  0  0  0
   -3.6233   -1.6387   -1.5489 H   0  0  0  0  0  0  0  0  0  0  0  0
   -4.9933   -0.5625   -0.0853 H   0  0  0  0  0  0  0  0  0  0  0  0
   -4.1588    0.8057   -1.9832 N   0  0  0  0  0  0  0  0  0  0  0  0
   -5.0272    1.7912   -2.5843 C   0  0  2  0  0  0  0  0  0  0  0  0
   -4.3399    3.1467   -2.4851 C   0  0  0  0  0  0  0  0  0  0  0  0
   -3.4676    3.3974   -1.6561 O   0  0  0  0  0  0  0  0  0  0  0  0
   -6.3866    1.8199   -1.9031 C   0  0  0  0  0  0  0  0  0  0  0  0
   -4.1317   -0.1190   -2.4026 H   0  0  0  0  0  0  0  0  0  0  0  0
   -5.1385    1.5138   -3.6382 H   0  0  0  0  0  0  0  0  0  0  0  0
   -6.2952    2.0959   -0.8463 H   0  0  0  0  0  0  0  0  0  0  0  0
   -7.0531    2.5472   -2.3782 H   0  0  0  0  0  0  0  0  0  0  0  0
   -6.8665    0.8363   -1.9495 H   0  0  0  0  0  0  0  0  0  0  0  0
   -4.8457    4.0567   -3.4028 N   0  0  0  0  0  0  0  0  0  0  0  0
   -4.3662    5.4157   -3.4985 C   0  0  0  0  0  0  0  0  0  0  0  0
   -5.5552    3.7567   -4.0649 H   0  0  0  0  0  0  0  0  0  0  0  0
   -4.9863    6.0692   -2.8672 H   0  0  0  0  0  0  0  0  0  0  0  0
   -3.3214    5.4606   -3.1574 H   0  0  0  0  0  0  0  0  0  0  0  0
   -4.4254    5.7525   -4.5440 H   0  0  0  0  0  0  0  0  0  0  0  0
  1  3  1  0  0  0  0
  1  7  1  0  0  0  0
  1  2  2  0  0  0  0
 29 30  1  0  0  0  0
 30 38  1  0  0  0  0
 30 31  2  0  0  0  0
  8  9  1  0  0  0  0
  9 17  1  0  0  0  0
  9 10  2  0  0  0  0
 18 19  1  0  0  0  0
 19 28  1  0  0  0  0
 19 20  2  0  0  0  0
 29 32  1  0  0  0  0
  8 11  1  0  0  0  0
 38 39  1  0  0  0  0
 18 21  1  0  0  0  0
 21 22  1  0  0  0  0
 28 29  1  0  0  0  0
  7  8  1  0  0  0  0
 17 18  1  0  0  0  0
  3  4  1  0  0  0  0
  3  5  1  0  0  0  0
  3  6  1  0  0  0  0
 32 35  1  0  0  0  0
 32 36  1  0  0  0  0
 32 37  1  0  0  0  0
 11 14  1  0  0  0  0
 11 15  1  0  0  0  0
 11 16  1  0  0  0  0
 39 41  1  0  0  0  0
 39 42  1  0  0  0  0
 39 43  1  0  0  0  0
 21 25  1  0  0  0  0
 21 26  1  0  0  0  0
 29 34  1  0  0  0  0
  8 13  1  0  0  0  0
 18 24  1  0  0  0  0
 38 40  1  0  0  0  0
  7 12  1  0  0  0  0
 28 33  1  0  0  0  0
 17 23  1  0  0  0  0
 22 27  1  0  0  0  0
M  END
$$$$

  -OEChem-05262214473D

 43 42  0     1  0  0  0  0  0999 V2000
    0.7424   -1.0926    4.5665 C   0  0  0  0  0  0  0  0  0  0  0  0
    0.1409   -0.5364    5.4779 O   0  0  0  0  0  0  0  0  0  0  0  0
    1.7940   -2.1023    4.8871 C   0  0  0  0  0  0  0  0  0  0  0  0
    2.7935   -1.6502    4.9904 H   0  0  0  0  0  0  0  0  0  0  0  0
    1.6064   -2.6156    5.8438 H   0  0  0  0  0  0  0  0  0  0  0  0
    1.9156   -2.9078    4.1453 H   0  0  0  0  0  0  0  0  0  0  0  0
    0.5488   -0.8838    3.2109 N   0  0  0  0  0  0  0  0  0  0  0  0
   -0.4159    0.0446    2.6829 C   0  0  2  0  0  0  0  0  0  0  0  0
   -0.7551   -0.3867    1.2623 C   0  0  0  0  0  0  0  0  0  0  0  0
   -0.0106   -1.0851    0.5774 O   0  0  0  0  0  0  0  0  0  0  0  0
    0.1168    1.4689    2.7060 C   0  0  0  0  0  0  0  0  0  0  0  0
    1.1183   -1.4145    2.5542 H   0  0  0  0  0  0  0  0  0  0  0  0
   -1.3088   -0.0350    3.3125 H   0  0  0  0  0  0  0  0  0  0  0  0
    1.0116    1.5681    2.0808 H   0  0  0  0  0  0  0  0  0  0  0  0
   -0.6289    2.1775    2.3307 H   0  0  0  0  0  0  0  0  0  0  0  0
    0.3882    1.7670    3.7245 H   0  0  0  0  0  0  0  0  0  0  0  0
   -1.9689    0.1350    0.8298 N   0  0  0  0  0  0  0  0  0  0  0  0
   -2.5039   -0.1183   -0.4830 C   0  0  2  0  0  0  0  0  0  0  0  0
   -3.3418    1.0864   -0.8972 C   0  0  0  0  0  0  0  0  0  0  0  0
   -3.0851    2.2349   -0.5419 O   0  0  0  0  0  0  0  0  0  0  0  0
   -3.3078   -1.4140   -0.5245 C   0  0  0  0  0  0  0  0  0  0  0  0
   -4.4746   -1.2960    0.2816 O   0  0  0  0  0  0  0  0  0  0  0  0
   -2.5276    0.6894    1.4750 H   0  0  0  0  0  0  0  0  0  0  0  0
   -1.6429   -0.1995   -1.1565 H   0  0  0  0  0  0  0  0  0  0  0  0
   -2.7178   -2.2551   -0.1465 H   0  0  0  0  0  0  0  0  0  0  0  0
   -3.6233   -1.6387   -1.5489 H   0  0  0  0  0  0  0  0  0  0  0  0
   -4.9933   -0.5625   -0.0853 H   0  0  0  0  0  0  0  0  0  0  0  0
   -4.3826    0.7323   -1.7440 N   0  0  0  0  0  0  0  0  0  0  0  0
   -5.3016    1.6980   -2.3004 C   0  0  2  0  0  0  0  0  0  0  0  0
   -4.5346    2.9910   -2.5440 C   0  0  0  0  0  0  0  0  0  0  0  0
   -3.4953    3.2761   -1.9526 O   0  0  0  0  0  0  0  0  0  0  0  0
   -6.4843    1.9339   -1.3739 C   0  0  0  0  0  0  0  0  0  0  0  0
   -4.4953   -0.2394   -2.0173 H   0  0  0  0  0  0  0  0  0  0  0  0
   -5.6465    1.2915   -3.2573 H   0  0  0  0  0  0  0  0  0  0  0  0
   -6.1582    2.3412   -0.4099 H   0  0  0  0  0  0  0  0  0  0  0  0
   -7.1942    2.6445   -1.8099 H   0  0  0  0  0  0  0  0  0  0  0  0
   -7.0171    0.9975   -1.1760 H   0  0  0  0  0  0  0  0  0  0  0  0
   -5.1702    3.8086   -3.4680 N   0  0  0  0  0  0  0  0  0  0  0  0
   -4.6467    5.0965   -3.8595 C   0  0  0  0  0  0  0  0  0  0  0  0
   -6.0182    3.4835   -3.9228 H   0  0  0  0  0  0  0  0  0  0  0  0
   -5.0835    5.8795   -3.2222 H   0  0  0  0  0  0  0  0  0  0  0  0
   -3.5528    5.0980   -3.7442 H   0  0  0  0  0  0  0  0  0  0  0  0
   -4.9049    5.2930   -4.9105 H   0  0  0  0  0  0  0  0  0  0  0  0
  1  3  1  0  0  0  0
  1  7  1  0  0  0  0
  1  2  2  0  0  0  0
 29 30  1  0  0  0  0
 30 38  1  0  0  0  0
 30 31  2  0  0  0  0
  8  9  1  0  0  0  0
  9 17  1  0  0  0  0
  9 10  2  0  0  0  0
 18 19  1  0  0  0  0
 19 28  1  0  0  0  0
 19 20  2  0  0  0  0
 29 32  1  0  0  0  0
  8 11  1  0  0  0  0
 38 39  1  0  0  0  0
 18 21  1  0  0  0  0
 21 22  1  0  0  0  0
 28 29  1  0  0  0  0
  7  8  1  0  0  0  0
 17 18  1  0  0  0  0
  3  4  1  0  0  0  0
  3  5  1  0  0  0  0
  3  6  1  0  0  0  0
 32 35  1  0  0  0  0
 32 36  1  0  0  0  0
 32 37  1  0  0  0  0
 11 14  1  0  0  0  0
 11 15  1  0  0  0  0
 11 16  1  0  0  0  0
 39 41  1  0  0  0  0
 39 42  1  0  0  0  0
 39 43  1  0  0  0  0
 21 25  1  0  0  0  0
 21 26  1  0  0  0  0
 29 34  1  0  0  0  0
  8 13  1  0  0  0  0
 18 24  1  0  0  0  0
 38 40  1  0  0  0  0
  7 12  1  0  0  0  0
 28 33  1  0  0  0  0
 17 23  1  0  0  0  0
 22 27  1  0  0  0  0
M  END
$$$$

  -OEChem-05262214473D

 43 42  0     1  0  0  0  0  0999 V2000
    0.7424   -1.0926    4.5665 C   0  0  0  0  0  0  0  0  0  0  0  0
    0.1409   -0.5364    5.4779 O   0  0  0  0  0  0  0  0  0  0  0  0
    1.7940   -2.1023    4.8871 C   0  0  0  0  0  0  0  0  0  0  0  0
    2.7935   -1.6502    4.9904 H   0  0  0  0  0  0  0  0  0  0  0  0
    1.6064   -2.6156    5.8438 H   0  0  0  0  0  0  0  0  0  0  0  0
    1.9156   -2.9078    4.1453 H   0  0  0  0  0  0  0  0  0  0  0  0
    0.5488   -0.8838    3.2109 N   0  0  0  0  0  0  0  0  0  0  0  0
   -0.4159    0.0446    2.6829 C   0  0  2  0  0  0  0  0  0  0  0  0
   -0.7551   -0.3867    1.2623 C   0  0  0  0  0  0  0  0  0  0  0  0
   -0.0106   -1.0851    0.5774 O   0  0  0  0  0  0  0  0  0  0  0  0
    0.1168    1.4689    2.7060 C   0  0  0  0  0  0  0  0  0  0  0  0
    1.1183   -1.4145    2.5542 H   0  0  0  0  0  0  0  0  0  0  0  0
   -1.3088   -0.0350    3.3125 H   0  0  0  0  0  0  0  0  0  0  0  0
    1.0116    1.5681    2.0808 H   0  0  0  0  0  0  0  0  0  0  0  0
   -0.6289    2.1775    2.3307 H   0  0  0  0  0  0  0  0  0  0  0  0
    0.3882    1.7670    3.7245 H   0  0  0  0  0  0  0  0  0  0  0  0
   -1.9689    0.1350    0.8298 N   0  0  0  0  0  0  0  0  0  0  0  0
   -2.5039   -0.1183   -0.4830 C   0  0  2  0  0  0  0  0  0  0  0  0
   -3.3418    1.0864   -0.8972 C   0  0  0  0  0  0  0  0  0  0  0  0
   -2.9530    2.2463   -0.7760 O   0  0  0  0  0  0  0  0  0  0  0  0
   -3.3078   -1.4140   -0.5245 C   0  0  0  0  0  0  0  0  0  0  0  0
   -4.4746   -1.2960    0.2816 O   0  0  0  0  0  0  0  0  0  0  0  0
   -2.5276    0.6894    1.4750 H   0  0  0  0  0  0  0  0  0  0  0  0
   -1.6429   -0.1995   -1.1565 H   0  0  0  0  0  0  0  0  0  0  0  0
   -2.7178   -2.2551   -0.1465 H   0  0  0  0  0  0  0  0  0  0  0  0
   -3.6233   -1.6387   -1.5489 H   0  0  0  0  0  0  0  0  0  0  0  0
   -4.9933   -0.5625   -0.0853 H   0  0  0  0  0  0  0  0  0  0  0  0
   -4.5549    0.7112   -1.4568 N   0  0  0  0  0  0  0  0  0  0  0  0
   -5.5151    1.6676   -1.9567 C   0  0  2  0  0  0  0  0  0  0  0  0
   -4.7456    2.8460   -2.5390 C   0  0  0  0  0  0  0  0  0  0  0  0
   -3.5913    3.1187   -2.2161 O   0  0  0  0  0  0  0  0  0  0  0  0
   -6.4624    2.1261   -0.8590 C   0  0  0  0  0  0  0  0  0  0  0  0
   -4.7762   -0.2754   -1.5537 H   0  0  0  0  0  0  0  0  0  0  0  0
   -6.0750    1.1666   -2.7539 H   0  0  0  0  0  0  0  0  0  0  0  0
   -5.9195    2.6305   -0.0513 H   0  0  0  0  0  0  0  0  0  0  0  0
   -7.2073    2.8293   -1.2458 H   0  0  0  0  0  0  0  0  0  0  0  0
   -6.9930    1.2738   -0.4210 H   0  0  0  0  0  0  0  0  0  0  0  0
   -5.5144    3.5825   -3.4293 N   0  0  0  0  0  0  0  0  0  0  0  0
   -5.0139    4.7566   -4.1054 C   0  0  0  0  0  0  0  0  0  0  0  0
   -6.4556    3.2724   -3.6521 H   0  0  0  0  0  0  0  0  0  0  0  0
   -5.2632    5.6527   -3.5183 H   0  0  0  0  0  0  0  0  0  0  0  0
   -3.9217    4.6805   -4.2122 H   0  0  0  0  0  0  0  0  0  0  0  0
   -5.4754    4.8307   -5.1012 H   0  0  0  0  0  0  0  0  0  0  0  0
  1  3  1  0  0  0  0
  1  7  1  0  0  0  0
  1  2  2  0  0  0  0
 29 30  1  0  0  0  0
 30 38  1  0  0  0  0
 30 31  2  0  0  0  0
  8  9  1  0  0  0  0
  9 17  1  0  0  0  0
  9 10  2  0  0  0  0
 18 19  1  0  0  0  0
 19 28  1  0  0  0  0
 19 20  2  0  0  0  0
 29 32  1  0  0  0  0
  8 11  1  0  0  0  0
 38 39  1  0  0  0  0
 18 21  1  0  0  0  0
 21 22  1  0  0  0  0
 28 29  1  0  0  0  0
  7  8  1  0  0  0  0
 17 18  1  0  0  0  0
  3  4  1  0  0  0  0
  3  5  1  0  0  0  0
  3  6  1  0  0  0  0
 32 35  1  0  0  0  0
 32 36  1  0  0  0  0
 32 37  1  0  0  0  0
 11 14  1  0  0  0  0
 11 15  1  0  0  0  0
 11 16  1  0  0  0  0
 39 41  1  0  0  0  0
 39 42  1  0  0  0  0
 39 43  1  0  0  0  0
 21 25  1  0  0  0  0
 21 26  1  0  0  0  0
 29 34  1  0  0  0  0
  8 13  1  0  0  0  0
 18 24  1  0  0  0  0
 38 40  1  0  0  0  0
  7 12  1  0  0  0  0
 28 33  1  0  0  0  0
 17 23  1  0  0  0  0
 22 27  1  0  0  0  0
M  END
$$$$

  -OEChem-05262214473D

 43 42  0     1  0  0  0  0  0999 V2000
    0.7424   -1.0926    4.5665 C   0  0  0  0  0  0  0  0  0  0  0  0
    0.1409   -0.5364    5.4779 O   0  0  0  0  0  0  0  0  0  0  0  0
    1.7940   -2.1023    4.8871 C   0  0  0  0  0  0  0  0  0  0  0  0
    2.7935   -1.6502    4.9904 H   0  0  0  0  0  0  0  0  0  0  0  0
    1.6064   -2.6156    5.8438 H   0  0  0  0  0  0  0  0  0  0  0  0
    1.9156   -2.9078    4.1453 H   0  0  0  0  0  0  0  0  0  0  0  0
    0.5488   -0.8838    3.2109 N   0  0  0  0  0  0  0  0  0  0  0  0
   -0.4159    0.0446    2.6829 C   0  0  2  0  0  0  0  0  0  0  0  0
   -0.7551   -0.3867    1.2623 C   0  0  0  0  0  0  0  0  0  0  0  0
   -0.0106   -1.0851    0.5774 O   0  0  0  0  0  0  0  0  0  0  0  0
    0.1168    1.4689    2.7060 C   0  0  0  0  0  0  0  0  0  0  0  0
    1.1183   -1.4145    2.5542 H   0  0  0  0  0  0  0  0  0  0  0  0
   -1.3088   -0.0350    3.3125 H   0  0  0  0  0  0  0  0  0  0  0  0
    1.0116    1.5681    2.0808 H   0  0  0  0  0  0  0  0  0  0  0  0
   -0.6289    2.1775    2.3307 H   0  0  0  0  0  0  0  0  0  0  0  0
    0.3882    1.7670    3.7245 H   0  0  0  0  0  0  0  0  0  0  0  0
   -1.9689    0.1350    0.8298 N   0  0  0  0  0  0  0  0  0  0  0  0
   -2.5039   -0.1183   -0.4830 C   0  0  2  0  0  0  0  0  0  0  0  0
   -3.3418    1.0864   -0.8972 C   0  0  0  0  0  0  0  0  0  0  0  0
   -2.8725    2.2147   -1.0308 O   0  0  0  0  0  0  0  0  0  0  0  0
   -3.3078   -1.4140   -0.5245 C   0  0  0  0  0  0  0  0  0  0  0  0
   -4.4746   -1.2960    0.2816 O   0  0  0  0  0  0  0  0  0  0  0  0
   -2.5276    0.6894    1.4750 H   0  0  0  0  0  0  0  0  0  0  0  0
   -1.6429   -0.1995   -1.1565 H   0  0  0  0  0  0  0  0  0  0  0  0
   -2.7178   -2.2551   -0.1465 H   0  0  0  0  0  0  0  0  0  0  0  0
   -3.6233   -1.6387   -1.5489 H   0  0  0  0  0  0  0  0  0  0  0  0
   -4.9933   -0.5625   -0.0853 H   0  0  0  0  0  0  0  0  0  0  0  0
   -4.6642    0.7437   -1.1411 N   0  0  0  0  0  0  0  0  0  0  0  0
   -5.6532    1.7022   -1.5768 C   0  0  2  0  0  0  0  0  0  0  0  0
   -4.9587    2.7214   -2.4703 C   0  0  0  0  0  0  0  0  0  0  0  0
   -3.7490    2.9360   -2.4286 O   0  0  0  0  0  0  0  0  0  0  0  0
   -6.3224    2.3835   -0.3934 C   0  0  0  0  0  0  0  0  0  0  0  0
   -4.9553   -0.2244   -1.0433 H   0  0  0  0  0  0  0  0  0  0  0  0
   -6.3946    1.1476   -2.1623 H   0  0  0  0  0  0  0  0  0  0  0  0
   -5.5952    2.9442    0.2051 H   0  0  0  0  0  0  0  0  0  0  0  0
   -7.0917    3.0889   -0.7246 H   0  0  0  0  0  0  0  0  0  0  0  0
   -6.7960    1.6464    0.2640 H   0  0  0  0  0  0  0  0  0  0  0  0
   -5.8548    3.3938   -3.2894 N   0  0  0  0  0  0  0  0  0  0  0  0
   -5.4428    4.4191   -4.2196 C   0  0  0  0  0  0  0  0  0  0  0  0
   -6.8376    3.1377   -3.2711 H   0  0  0  0  0  0  0  0  0  0  0  0
   -5.5134    5.4041   -3.7352 H   0  0  0  0  0  0  0  0  0  0  0  0
   -4.4032    4.2366   -4.5293 H   0  0  0  0  0  0  0  0  0  0  0  0
   -6.0978    4.3972   -5.1030 H   0  0  0  0  0  0  0  0  0  0  0  0
  1  3  1  0  0  0  0
  1  7  1  0  0  0  0
  1  2  2  0  0  0  0
 29 30  1  0  0  0  0
 30 38  1  0  0  0  0
 30 31  2  0  0  0  0
  8  9  1  0  0  0  0
  9 17  1  0  0  0  0
  9 10  2  0  0  0  0
 18 19  1  0  0  0  0
 19 28  1  0  0  0  0
 19 20  2  0  0  0  0
 29 32  1  0  0  0  0
  8 11  1  0  0  0  0
 38 39  1  0  0  0  0
 18 21  1  0  0  0  0
 21 22  1  0  0  0  0
 28 29  1  0  0  0  0
  7  8  1  0  0  0  0
 17 18  1  0  0  0  0
  3  4  1  0  0  0  0
  3  5  1  0  0  0  0
  3  6  1  0  0  0  0
 32 35  1  0  0  0  0
 32 36  1  0  0  0  0
 32 37  1  0  0  0  0
 11 14  1  0  0  0  0
 11 15  1  0  0  0  0
 11 16  1  0  0  0  0
 39 41  1  0  0  0  0
 39 42  1  0  0  0  0
 39 43  1  0  0  0  0
 21 25  1  0  0  0  0
 21 26  1  0  0  0  0
 29 34  1  0  0  0  0
  8 13  1  0  0  0  0
 18 24  1  0  0  0  0
 38 40  1  0  0  0  0
  7 12  1  0  0  0  0
 28 33  1  0  0  0  0
 17 23  1  0  0  0  0
 22 27  1  0  0  0  0
M  END
$$$$

  -OEChem-05262214473D

 43 42  0     1  0  0  0  0  0999 V2000
    0.7424   -1.0926    4.5665 C   0  0  0  0  0  0  0  0  0  0  0  0
    0.1409   -0.5364    5.4779 O   0  0  0  0  0  0  0  0  0  0  0  0
    1.7940   -2.1023    4.8871 C   0  0  0  0  0  0  0  0  0  0  0  0
    2.7935   -1.6502    4.9904 H   0  0  0  0  0  0  0  0  0  0  0  0
    1.6064   -2.6156    5.8438 H   0  0  0  0  0  0  0  0  0  0  0  0
    1.9156   -2.9078    4.1453 H   0  0  0  0  0  0  0  0  0  0  0  0
    0.5488   -0.8838    3.2109 N   0  0  0  0  0  0  0  0  0  0  0  0
   -0.4159    0.0446    2.6829 C   0  0  2  0  0  0  0  0  0  0  0  0
   -0.7551   -0.3867    1.2623 C   0  0  0  0  0  0  0  0  0  0  0  0
   -0.0106   -1.0851    0.5774 O   0  0  0  0  0  0  0  0  0  0  0  0
    0.1168    1.4689    2.7060 C   0  0  0  0  0  0  0  0  0  0  0  0
    1.1183   -1.4145    2.5542 H   0  0  0  0  0  0  0  0  0  0  0  0
   -1.3088   -0.0350    3.3125 H   0  0  0  0  0  0  0  0  0  0  0  0
    1.0116    1.5681    2.0808 H   0  0  0  0  0  0  0  0  0  0  0  0
   -0.6289    2.1775    2.3307 H   0  0  0  0  0  0  0  0  0  0  0  0
    0.3882    1.7670    3.7245 H   0  0  0  0  0  0  0  0  0  0  0  0
   -1.9689    0.1350    0.8298 N   0  0  0  0  0  0  0  0  0  0  0  0
   -2.5039   -0.1183   -0.4830 C   0  0  2  0  0  0  0  0  0  0  0  0
   -3.3418    1.0864   -0.8972 C   0  0  0  0  0  0  0  0  0  0  0  0
   -2.8491    2.1423   -1.2889 O   0  0  0  0  0  0  0  0  0  0  0  0
   -3.3078   -1.4140   -0.5245 C   0  0  0  0  0  0  0  0  0  0  0  0
   -4.4746   -1.2960    0.2816 O   0  0  0  0  0  0  0  0  0  0  0  0
   -2.5276    0.6894    1.4750 H   0  0  0  0  0  0  0  0  0  0  0  0
   -1.6429   -0.1995   -1.1565 H   0  0  0  0  0  0  0  0  0  0  0  0
   -2.7178   -2.2551   -0.1465 H   0  0  0  0  0  0  0  0  0  0  0  0
   -3.6233   -1.6387   -1.5489 H   0  0  0  0  0  0  0  0  0  0  0  0
   -4.9933   -0.5625   -0.0853 H   0  0  0  0  0  0  0  0  0  0  0  0
   -4.7029    0.8278   -0.8185 N   0  0  0  0  0  0  0  0  0  0  0  0
   -5.7064    1.7993   -1.1866 C   0  0  2  0  0  0  0  0  0  0  0  0
   -5.1591    2.6258   -2.3428 C   0  0  0  0  0  0  0  0  0  0  0  0
   -3.9576    2.7404   -2.5757 O   0  0  0  0  0  0  0  0  0  0  0  0
   -6.0740    2.6885   -0.0089 C   0  0  0  0  0  0  0  0  0  0  0  0
   -5.0203   -0.0901   -0.5209 H   0  0  0  0  0  0  0  0  0  0  0  0
   -6.5838    1.2360   -1.5227 H   0  0  0  0  0  0  0  0  0  0  0  0
   -5.2074    3.2609    0.3418 H   0  0  0  0  0  0  0  0  0  0  0  0
   -6.8552    3.4056   -0.2818 H   0  0  0  0  0  0  0  0  0  0  0  0
   -6.4394    2.0898    0.8324 H   0  0  0  0  0  0  0  0  0  0  0  0
   -6.1683    3.2554   -3.0579 N   0  0  0  0  0  0  0  0  0  0  0  0
   -5.9041    4.1070   -4.1941 C   0  0  0  0  0  0  0  0  0  0  0  0
   -7.1381    3.0887   -2.8059 H   0  0  0  0  0  0  0  0  0  0  0  0
   -5.8169    5.1508   -3.8583 H   0  0  0  0  0  0  0  0  0  0  0  0
   -4.9643    3.7966   -4.6741 H   0  0  0  0  0  0  0  0  0  0  0  0
   -6.7300    4.0219   -4.9158 H   0  0  0  0  0  0  0  0  0  0  0  0
  1  3  1  0  0  0  0
  1  7  1  0  0  0  0
  1  2  2  0  0  0  0
 29 30  1  0  0  0  0
 30 38  1  0  0  0  0
 30 31  2  0  0  0  0
  8  9  1  0  0  0  0
  9 17  1  0  0  0  0
  9 10  2  0  0  0  0
 18 19  1  0  0  0  0
 19 28  1  0  0  0  0
 19 20  2  0  0  0  0
 29 32  1  0  0  0  0
  8 11  1  0  0  0  0
 38 39  1  0  0  0  0
 18 21  1  0  0  0  0
 21 22  1  0  0  0  0
 28 29  1  0  0  0  0
  7  8  1  0  0  0  0
 17 18  1  0  0  0  0
  3  4  1  0  0  0  0
  3  5  1  0  0  0  0
  3  6  1  0  0  0  0
 32 35  1  0  0  0  0
 32 36  1  0  0  0  0
 32 37  1  0  0  0  0
 11 14  1  0  0  0  0
 11 15  1  0  0  0  0
 11 16  1  0  0  0  0
 39 41  1  0  0  0  0
 39 42  1  0  0  0  0
 39 43  1  0  0  0  0
 21 25  1  0  0  0  0
 21 26  1  0  0  0  0
 29 34  1  0  0  0  0
  8 13  1  0  0  0  0
 18 24  1  0  0  0  0
 38 40  1  0  0  0  0
  7 12  1  0  0  0  0
 28 33  1  0  0  0  0
 17 23  1  0  0  0  0
 22 27  1  0  0  0  0
M  END
$$$$

  -OEChem-05262214473D

 43 42  0     1  0  0  0  0  0999 V2000
    0.7424   -1.0926    4.5665 C   0  0  0  0  0  0  0  0  0  0  0  0
    0.1409   -0.5364    5.4779 O   0  0  0  0  0  0  0  0  0  0  0  0
    1.7940   -2.1023    4.8871 C   0  0  0  0  0  0  0  0  0  0  0  0
    2.7935   -1.6502    4.9904 H   0  0  0  0  0  0  0  0  0  0  0  0
    1.6064   -2.6156    5.8438 H   0  0  0  0  0  0  0  0  0  0  0  0
    1.9156   -2.9078    4.1453 H   0  0  0  0  0  0  0  0  0  0  0  0
    0.5488   -0.8838    3.2109 N   0  0  0  0  0  0  0  0  0  0  0  0
   -0.4159    0.0446    2.6829 C   0  0  2  0  0  0  0  0  0  0  0  0
   -0.7551   -0.3867    1.2623 C   0  0  0  0  0  0  0  0  0  0  0  0
   -0.0106   -1.0851    0.5774 O   0  0  0  0  0  0  0  0  0  0  0  0
    0.1168    1.4689    2.7060 C   0  0  0  0  0  0  0  0  0  0  0  0
    1.1183   -1.4145    2.5542 H   0  0  0  0  0  0  0  0  0  0  0  0
   -1.3088   -0.0350    3.3125 H   0  0  0  0  0  0  0  0  0  0  0  0
    1.0116    1.5681    2.0808 H   0  0  0  0  0  0  0  0  0  0  0  0
   -0.6289    2.1775    2.3307 H   0  0  0  0  0  0  0  0  0  0  0  0
    0.3882    1.7670    3.7245 H   0  0  0  0  0  0  0  0  0  0  0  0
   -1.9689    0.1350    0.8298 N   0  0  0  0  0  0  0  0  0  0  0  0
   -2.5039   -0.1183   -0.4830 C   0  0  2  0  0  0  0  0  0  0  0  0
   -3.3418    1.0864   -0.8972 C   0  0  0  0  0  0  0  0  0  0  0  0
   -2.8843    2.0340   -1.5327 O   0  0  0  0  0  0  0  0  0  0  0  0
   -3.3078   -1.4140   -0.5245 C   0  0  0  0  0  0  0  0  0  0  0  0
   -4.4746   -1.2960    0.2816 O   0  0  0  0  0  0  0  0  0  0  0  0
   -2.5276    0.6894    1.4750 H   0  0  0  0  0  0  0  0  0  0  0  0
   -1.6429   -0.1995   -1.1565 H   0  0  0  0  0  0  0  0  0  0  0  0
   -2.7178   -2.2551   -0.1465 H   0  0  0  0  0  0  0  0  0  0  0  0
   -3.6233   -1.6387   -1.5489 H   0  0  0  0  0  0  0  0  0  0  0  0
   -4.9933   -0.5625   -0.0853 H   0  0  0  0  0  0  0  0  0  0  0  0
   -4.6684    0.9575   -0.5109 N   0  0  0  0  0  0  0  0  0  0  0  0
   -5.6713    1.9524   -0.8125 C   0  0  2  0  0  0  0  0  0  0  0  0
   -5.3334    2.5658   -2.1649 C   0  0  0  0  0  0  0  0  0  0  0  0
   -4.2029    2.5452   -2.6472 O   0  0  0  0  0  0  0  0  0  0  0  0
   -5.7339    3.0204    0.2683 C   0  0  0  0  0  0  0  0  0  0  0  0
   -4.9668    0.1186   -0.0222 H   0  0  0  0  0  0  0  0  0  0  0  0
   -6.6294    1.4256   -0.8789 H   0  0  0  0  0  0  0  0  0  0  0  0
   -4.7827    3.5590    0.3496 H   0  0  0  0  0  0  0  0  0  0  0  0
   -6.5139    3.7579    0.0526 H   0  0  0  0  0  0  0  0  0  0  0  0
   -5.9475    2.5739    1.2455 H   0  0  0  0  0  0  0  0  0  0  0  0
   -6.4335    3.1767   -2.7504 N   0  0  0  0  0  0  0  0  0  0  0  0
   -6.3665    3.8415   -4.0308 C   0  0  0  0  0  0  0  0  0  0  0  0
   -7.3367    3.1286   -2.2880 H   0  0  0  0  0  0  0  0  0  0  0  0
   -6.1530    4.9099   -3.8790 H   0  0  0  0  0  0  0  0  0  0  0  0
   -5.5668    3.3904   -4.6366 H   0  0  0  0  0  0  0  0  0  0  0  0
   -7.3286    3.7305   -4.5523 H   0  0  0  0  0  0  0  0  0  0  0  0
  1  3  1  0  0  0  0
  1  7  1  0  0  0  0
  1  2  2  0  0  0  0
 29 30  1  0  0  0  0
 30 38  1  0  0  0  0
 30 31  2  0  0  0  0
  8  9  1  0  0  0  0
  9 17  1  0  0  0  0
  9 10  2  0  0  0  0
 18 19  1  0  0  0  0
 19 28  1  0  0  0  0
 19 20  2  0  0  0  0
 29 32  1  0  0  0  0
  8 11  1  0  0  0  0
 38 39  1  0  0  0  0
 18 21  1  0  0  0  0
 21 22  1  0  0  0  0
 28 29  1  0  0  0  0
  7  8  1  0  0  0  0
 17 18  1  0  0  0  0
  3  4  1  0  0  0  0
  3  5  1  0  0  0  0
  3  6  1  0  0  0  0
 32 35  1  0  0  0  0
 32 36  1  0  0  0  0
 32 37  1  0  0  0  0
 11 14  1  0  0  0  0
 11 15  1  0  0  0  0
 11 16  1  0  0  0  0
 39 41  1  0  0  0  0
 39 42  1  0  0  0  0
 39 43  1  0  0  0  0
 21 25  1  0  0  0  0
 21 26  1  0  0  0  0
 29 34  1  0  0  0  0
  8 13  1  0  0  0  0
 18 24  1  0  0  0  0
 38 40  1  0  0  0  0
  7 12  1  0  0  0  0
 28 33  1  0  0  0  0
 17 23  1  0  0  0  0
 22 27  1  0  0  0  0
M  END
$$$$

  -OEChem-05262214473D

 43 42  0     1  0  0  0  0  0999 V2000
    0.7424   -1.0926    4.5665 C   0  0  0  0  0  0  0  0  0  0  0  0
    0.1409   -0.5364    5.4779 O   0  0  0  0  0  0  0  0  0  0  0  0
    1.7940   -2.1023    4.8871 C   0  0  0  0  0  0  0  0  0  0  0  0
    2.7935   -1.6502    4.9904 H   0  0  0  0  0  0  0  0  0  0  0  0
    1.6064   -2.6156    5.8438 H   0  0  0  0  0  0  0  0  0  0  0  0
    1.9156   -2.9078    4.1453 H   0  0  0  0  0  0  0  0  0  0  0  0
    0.5488   -0.8838    3.2109 N   0  0  0  0  0  0  0  0  0  0  0  0
   -0.4159    0.0446    2.6829 C   0  0  2  0  0  0  0  0  0  0  0  0
   -0.7551   -0.3867    1.2623 C   0  0  0  0  0  0  0  0  0  0  0  0
   -0.0106   -1.0851    0.5774 O   0  0  0  0  0  0  0  0  0  0  0  0
    0.1168    1.4689    2.7060 C   0  0  0  0  0  0  0  0  0  0  0  0
    1.1183   -1.4145    2.5542 H   0  0  0  0  0  0  0  0  0  0  0  0
   -1.3088   -0.0350    3.3125 H   0  0  0  0  0  0  0  0  0  0  0  0
    1.0116    1.5681    2.0808 H   0  0  0  0  0  0  0  0  0  0  0  0
   -0.6289    2.1775    2.3307 H   0  0  0  0  0  0  0  0  0  0  0  0
    0.3882    1.7670    3.7245 H   0  0  0  0  0  0  0  0  0  0  0  0
   -1.9689    0.1350    0.8298 N   0  0  0  0  0  0  0  0  0  0  0  0
   -2.5039   -0.1183   -0.4830 C   0  0  2  0  0  0  0  0  0  0  0  0
   -3.3418    1.0864   -0.8972 C   0  0  0  0  0  0  0  0  0  0  0  0
   -2.9757    1.8972   -1.7456 O   0  0  0  0  0  0  0  0  0  0  0  0
   -3.3078   -1.4140   -0.5245 C   0  0  0  0  0  0  0  0  0  0  0  0
   -4.4746   -1.2960    0.2816 O   0  0  0  0  0  0  0  0  0  0  0  0
   -2.5276    0.6894    1.4750 H   0  0  0  0  0  0  0  0  0  0  0  0
   -1.6429   -0.1995   -1.1565 H   0  0  0  0  0  0  0  0  0  0  0  0
   -2.7178   -2.2551   -0.1465 H   0  0  0  0  0  0  0  0  0  0  0  0
   -3.6233   -1.6387   -1.5489 H   0  0  0  0  0  0  0  0  0  0  0  0
   -4.9933   -0.5625   -0.0853 H   0  0  0  0  0  0  0  0  0  0  0  0
   -4.5630    1.1242   -0.2393 N   0  0  0  0  0  0  0  0  0  0  0  0
   -5.5500    2.1510   -0.4801 C   0  0  2  0  0  0  0  0  0  0  0  0
   -5.4696    2.5453   -1.9490 C   0  0  0  0  0  0  0  0  0  0  0  0
   -4.4682    2.3637   -2.6384 O   0  0  0  0  0  0  0  0  0  0  0  0
   -5.3253    3.3564    0.4194 C   0  0  0  0  0  0  0  0  0  0  0  0
   -4.7985    0.3873    0.4190 H   0  0  0  0  0  0  0  0  0  0  0  0
   -6.5286    1.7035   -0.2746 H   0  0  0  0  0  0  0  0  0  0  0  0
   -4.3498    3.8181    0.2278 H   0  0  0  0  0  0  0  0  0  0  0  0
   -6.0911    4.1218    0.2557 H   0  0  0  0  0  0  0  0  0  0  0  0
   -5.3539    3.0657    1.4750 H   0  0  0  0  0  0  0  0  0  0  0  0
   -6.6323    3.1630   -2.3879 N   0  0  0  0  0  0  0  0  0  0  0  0
   -6.7983    3.6409   -3.7407 C   0  0  0  0  0  0  0  0  0  0  0  0
   -7.4198    3.2548   -1.7529 H   0  0  0  0  0  0  0  0  0  0  0  0
   -6.4988    4.6979   -3.7961 H   0  0  0  0  0  0  0  0  0  0  0  0
   -6.1697    3.0458   -4.4195 H   0  0  0  0  0  0  0  0  0  0  0  0
   -7.8530    3.5428   -4.0373 H   0  0  0  0  0  0  0  0  0  0  0  0
  1  3  1  0  0  0  0
  1  7  1  0  0  0  0
  1  2  2  0  0  0  0
 29 30  1  0  0  0  0
 30 38  1  0  0  0  0
 30 31  2  0  0  0  0
  8  9  1  0  0  0  0
  9 17  1  0  0  0  0
  9 10  2  0  0  0  0
 18 19  1  0  0  0  0
 19 28  1  0  0  0  0
 19 20  2  0  0  0  0
 29 32  1  0  0  0  0
  8 11  1  0  0  0  0
 38 39  1  0  0  0  0
 18 21  1  0  0  0  0
 21 22  1  0  0  0  0
 28 29  1  0  0  0  0
  7  8  1  0  0  0  0
 17 18  1  0  0  0  0
  3  4  1  0  0  0  0
  3  5  1  0  0  0  0
  3  6  1  0  0  0  0
 32 35  1  0  0  0  0
 32 36  1  0  0  0  0
 32 37  1  0  0  0  0
 11 14  1  0  0  0  0
 11 15  1  0  0  0  0
 11 16  1  0  0  0  0
 39 41  1  0  0  0  0
 39 42  1  0  0  0  0
 39 43  1  0  0  0  0
 21 25  1  0  0  0  0
 21 26  1  0  0  0  0
 29 34  1  0  0  0  0
  8 13  1  0  0  0  0
 18 24  1  0  0  0  0
 38 40  1  0  0  0  0
  7 12  1  0  0  0  0
 28 33  1  0  0  0  0
 17 23  1  0  0  0  0
 22 27  1  0  0  0  0
M  END
$$$$

  -OEChem-05262214473D

 43 42  0     1  0  0  0  0  0999 V2000
    0.7424   -1.0926    4.5665 C   0  0  0  0  0  0  0  0  0  0  0  0
    0.1409   -0.5364    5.4779 O   0  0  0  0  0  0  0  0  0  0  0  0
    1.7940   -2.1023    4.8871 C   0  0  0  0  0  0  0  0  0  0  0  0
    2.7935   -1.6502    4.9904 H   0  0  0  0  0  0  0  0  0  0  0  0
    1.6064   -2.6156    5.8438 H   0  0  0  0  0  0  0  0  0  0  0  0
    1.9156   -2.9078    4.1453 H   0  0  0  0  0  0  0  0  0  0  0  0
    0.5488   -0.8838    3.2109 N   0  0  0  0  0  0  0  0  0  0  0  0
   -0.4159    0.0446    2.6829 C   0  0  2  0  0  0  0  0  0  0  0  0
   -0.7551   -0.3867    1.2623 C   0  0  0  0  0  0  0  0  0  0  0  0
   -0.0106   -1.0851    0.5774 O   0  0  0  0  0  0  0  0  0  0  0  0
    0.1168    1.4689    2.7060 C   0  0  0  0  0  0  0  0  0  0  0  0
    1.1183   -1.4145    2.5542 H   0  0  0  0  0  0  0  0  0  0  0  0
   -1.3088   -0.0350    3.3125 H   0  0  0  0  0  0  0  0  0  0  0  0
    1.0116    1.5681    2.0808 H   0  0  0  0  0  0  0  0  0  0  0  0
   -0.6289    2.1775    2.3307 H   0  0  0  0  0  0  0  0  0  0  0  0
    0.3882    1.7670    3.7245 H   0  0  0  0  0  0  0  0  0  0  0  0
   -1.9689    0.1350    0.8298 N   0  0  0  0  0  0  0  0  0  0  0  0
   -2.5039   -0.1183   -0.4830 C   0  0  2  0  0  0  0  0  0  0  0  0
   -3.3418    1.0864   -0.8972 C   0  0  0  0  0  0  0  0  0  0  0  0
   -3.1172    1.7412   -1.9130 O   0  0  0  0  0  0  0  0  0  0  0  0
   -3.3078   -1.4140   -0.5245 C   0  0  0  0  0  0  0  0  0  0  0  0
   -4.4746   -1.2960    0.2816 O   0  0  0  0  0  0  0  0  0  0  0  0
   -2.5276    0.6894    1.4750 H   0  0  0  0  0  0  0  0  0  0  0  0
   -1.6429   -0.1995   -1.1565 H   0  0  0  0  0  0  0  0  0  0  0  0
   -2.7178   -2.2551   -0.1465 H   0  0  0  0  0  0  0  0  0  0  0  0
   -3.6233   -1.6387   -1.5489 H   0  0  0  0  0  0  0  0  0  0  0  0
   -4.9933   -0.5625   -0.0853 H   0  0  0  0  0  0  0  0  0  0  0  0
   -4.3940    1.3164   -0.0221 N   0  0  0  0  0  0  0  0  0  0  0  0
   -5.3510    2.3815   -0.2121 C   0  0  2  0  0  0  0  0  0  0  0  0
   -5.5585    2.5658   -1.7096 C   0  0  0  0  0  0  0  0  0  0  0  0
   -4.7355    2.2083   -2.5498 O   0  0  0  0  0  0  0  0  0  0  0  0
   -4.8762    3.6737    0.4339 C   0  0  0  0  0  0  0  0  0  0  0  0
   -4.5268    0.6978    0.7725 H   0  0  0  0  0  0  0  0  0  0  0  0
   -6.2880    2.0507    0.2490 H   0  0  0  0  0  0  0  0  0  0  0  0
   -3.9384    4.0207   -0.0151 H   0  0  0  0  0  0  0  0  0  0  0  0
   -5.6156    4.4724    0.3137 H   0  0  0  0  0  0  0  0  0  0  0  0
   -4.6990    3.5316    1.5054 H   0  0  0  0  0  0  0  0  0  0  0  0
   -6.7512    3.2153   -1.9953 N   0  0  0  0  0  0  0  0  0  0  0  0
   -7.1703    3.5187   -3.3437 C   0  0  0  0  0  0  0  0  0  0  0  0
   -7.3817    3.4586   -1.2370 H   0  0  0  0  0  0  0  0  0  0  0  0
   -6.8308    4.5292   -3.6151 H   0  0  0  0  0  0  0  0  0  0  0  0
   -6.7319    2.7861   -4.0374 H   0  0  0  0  0  0  0  0  0  0  0  0
   -8.2675    3.4717   -3.4059 H   0  0  0  0  0  0  0  0  0  0  0  0
  1  3  1  0  0  0  0
  1  7  1  0  0  0  0
  1  2  2  0  0  0  0
 29 30  1  0  0  0  0
 30 38  1  0  0  0  0
 30 31  2  0  0  0  0
  8  9  1  0  0  0  0
  9 17  1  0  0  0  0
  9 10  2  0  0  0  0
 18 19  1  0  0  0  0
 19 28  1  0  0  0  0
 19 20  2  0  0  0  0
 29 32  1  0  0  0  0
  8 11  1  0  0  0  0
 38 39  1  0  0  0  0
 18 21  1  0  0  0  0
 21 22  1  0  0  0  0
 28 29  1  0  0  0  0
  7  8  1  0  0  0  0
 17 18  1  0  0  0  0
  3  4  1  0  0  0  0
  3  5  1  0  0  0  0
  3  6  1  0  0  0  0
 32 35  1  0  0  0  0
 32 36  1  0  0  0  0
 32 37  1  0  0  0  0
 11 14  1  0  0  0  0
 11 15  1  0  0  0  0
 11 16  1  0  0  0  0
 39 41  1  0  0  0  0
 39 42  1  0  0  0  0
 39 43  1  0  0  0  0
 21 25  1  0  0  0  0
 21 26  1  0  0  0  0
 29 34  1  0  0  0  0
  8 13  1  0  0  0  0
 18 24  1  0  0  0  0
 38 40  1  0  0  0  0
  7 12  1  0  0  0  0
 28 33  1  0  0  0  0
 17 23  1  0  0  0  0
 22 27  1  0  0  0  0
M  END
$$$$

  -OEChem-05262214473D

 43 42  0     1  0  0  0  0  0999 V2000
    0.7424   -1.0926    4.5665 C   0  0  0  0  0  0  0  0  0  0  0  0
    0.1409   -0.5364    5.4779 O   0  0  0  0  0  0  0  0  0  0  0  0
    1.7940   -2.1023    4.8871 C   0  0  0  0  0  0  0  0  0  0  0  0
    2.7935   -1.6502    4.9904 H   0  0  0  0  0  0  0  0  0  0  0  0
    1.6064   -2.6156    5.8438 H   0  0  0  0  0  0  0  0  0  0  0  0
    1.9156   -2.9078    4.1453 H   0  0  0  0  0  0  0  0  0  0  0  0
    0.5488   -0.8838    3.2109 N   0  0  0  0  0  0  0  0  0  0  0  0
   -0.4159    0.0446    2.6829 C   0  0  2  0  0  0  0  0  0  0  0  0
   -0.7551   -0.3867    1.2623 C   0  0  0  0  0  0  0  0  0  0  0  0
   -0.0106   -1.0851    0.5774 O   0  0  0  0  0  0  0  0  0  0  0  0
    0.1168    1.4689    2.7060 C   0  0  0  0  0  0  0  0  0  0  0  0
    1.1183   -1.4145    2.5542 H   0  0  0  0  0  0  0  0  0  0  0  0
   -1.3088   -0.0350    3.3125 H   0  0  0  0  0  0  0  0  0  0  0  0
    1.0116    1.5681    2.0808 H   0  0  0  0  0  0  0  0  0  0  0  0
   -0.6289    2.1775    2.3307 H   0  0  0  0  0  0  0  0  0  0  0  0
    0.3882    1.7670    3.7245 H   0  0  0  0  0  0  0  0  0  0  0  0
   -1.9689    0.1350    0.8298 N   0  0  0  0  0  0  0  0  0  0  0  0
   -2.5039   -0.1183   -0.4830 C   0  0  2  0  0  0  0  0  0  0  0  0
   -3.3418    1.0864   -0.8972 C   0  0  0  0  0  0  0  0  0  0  0  0
   -3.2991    1.5767   -2.0237 O   0  0  0  0  0  0  0  0  0  0  0  0
   -3.3078   -1.4140   -0.5245 C   0  0  0  0  0  0  0  0  0  0  0  0
   -4.4746   -1.2960    0.2816 O   0  0  0  0  0  0  0  0  0  0  0  0
   -2.5276    0.6894    1.4750 H   0  0  0  0  0  0  0  0  0  0  0  0
   -1.6429   -0.1995   -1.1565 H   0  0  0  0  0  0  0  0  0  0  0  0
   -2.7178   -2.2551   -0.1465 H   0  0  0  0  0  0  0  0  0  0  0  0
   -3.6233   -1.6387   -1.5489 H   0  0  0  0  0  0  0  0  0  0  0  0
   -4.9933   -0.5625   -0.0853 H   0  0  0  0  0  0  0  0  0  0  0  0
   -4.1728    1.5210    0.1257 N   0  0  0  0  0  0  0  0  0  0  0  0
   -5.0878    2.6283   -0.0268 C   0  0  2  0  0  0  0  0  0  0  0  0
   -5.5939    2.6259   -1.4632 C   0  0  0  0  0  0  0  0  0  0  0  0
   -4.9864    2.0896   -2.3875 O   0  0  0  0  0  0  0  0  0  0  0  0
   -4.4171    3.9508    0.3110 C   0  0  0  0  0  0  0  0  0  0  0  0
   -4.1703    1.0289    1.0142 H   0  0  0  0  0  0  0  0  0  0  0  0
   -5.9242    2.4437    0.6561 H   0  0  0  0  0  0  0  0  0  0  0  0
   -3.5765    4.1529   -0.3628 H   0  0  0  0  0  0  0  0  0  0  0  0
   -5.1198    4.7859    0.2225 H   0  0  0  0  0  0  0  0  0  0  0  0
   -4.0275    3.9399    1.3346 H   0  0  0  0  0  0  0  0  0  0  0  0
   -6.7821    3.3301   -1.5991 N   0  0  0  0  0  0  0  0  0  0  0  0
   -7.4569    3.4833   -2.8668 C   0  0  0  0  0  0  0  0  0  0  0  0
   -7.2252    3.7262   -0.7754 H   0  0  0  0  0  0  0  0  0  0  0  0
   -7.1263    4.4154   -3.3484 H   0  0  0  0  0  0  0  0  0  0  0  0
   -7.2150    2.6292   -3.5164 H   0  0  0  0  0  0  0  0  0  0  0  0
   -8.5437    3.5218   -2.7012 H   0  0  0  0  0  0  0  0  0  0  0  0
  1  3  1  0  0  0  0
  1  7  1  0  0  0  0
  1  2  2  0  0  0  0
 29 30  1  0  0  0  0
 30 38  1  0  0  0  0
 30 31  2  0  0  0  0
  8  9  1  0  0  0  0
  9 17  1  0  0  0  0
  9 10  2  0  0  0  0
 18 19  1  0  0  0  0
 19 28  1  0  0  0  0
 19 20  2  0  0  0  0
 29 32  1  0  0  0  0
  8 11  1  0  0  0  0
 38 39  1  0  0  0  0
 18 21  1  0  0  0  0
 21 22  1  0  0  0  0
 28 29  1  0  0  0  0
  7  8  1  0  0  0  0
 17 18  1  0  0  0  0
  3  4  1  0  0  0  0
  3  5  1  0  0  0  0
  3  6  1  0  0  0  0
 32 35  1  0  0  0  0
 32 36  1  0  0  0  0
 32 37  1  0  0  0  0
 11 14  1  0  0  0  0
 11 15  1  0  0  0  0
 11 16  1  0  0  0  0
 39 41  1  0  0  0  0
 39 42  1  0  0  0  0
 39 43  1  0  0  0  0
 21 25  1  0  0  0  0
 21 26  1  0  0  0  0
 29 34  1  0  0  0  0
  8 13  1  0  0  0  0
 18 24  1  0  0  0  0
 38 40  1  0  0  0  0
  7 12  1  0  0  0  0
 28 33  1  0  0  0  0
 17 23  1  0  0  0  0
 22 27  1  0  0  0  0
M  END
$$$$

  -OEChem-05262214473D

 43 42  0     1  0  0  0  0  0999 V2000
    0.7424   -1.0926    4.5665 C   0  0  0  0  0  0  0  0  0  0  0  0
    0.1409   -0.5364    5.4779 O   0  0  0  0  0  0  0  0  0  0  0  0
    1.7940   -2.1023    4.8871 C   0  0  0  0  0  0  0  0  0  0  0  0
    2.7935   -1.6502    4.9904 H   0  0  0  0  0  0  0  0  0  0  0  0
    1.6064   -2.6156    5.8438 H   0  0  0  0  0  0  0  0  0  0  0  0
    1.9156   -2.9078    4.1453 H   0  0  0  0  0  0  0  0  0  0  0  0
    0.5488   -0.8838    3.2109 N   0  0  0  0  0  0  0  0  0  0  0  0
   -0.4159    0.0446    2.6829 C   0  0  2  0  0  0  0  0  0  0  0  0
   -0.7551   -0.3867    1.2623 C   0  0  0  0  0  0  0  0  0  0  0  0
   -0.0106   -1.0851    0.5774 O   0  0  0  0  0  0  0  0  0  0  0  0
    0.1168    1.4689    2.7060 C   0  0  0  0  0  0  0  0  0  0  0  0
    1.1183   -1.4145    2.5542 H   0  0  0  0  0  0  0  0  0  0  0  0
   -1.3088   -0.0350    3.3125 H   0  0  0  0  0  0  0  0  0  0  0  0
    1.0116    1.5681    2.0808 H   0  0  0  0  0  0  0  0  0  0  0  0
   -0.6289    2.1775    2.3307 H   0  0  0  0  0  0  0  0  0  0  0  0
    0.3882    1.7670    3.7245 H   0  0  0  0  0  0  0  0  0  0  0  0
   -1.9689    0.1350    0.8298 N   0  0  0  0  0  0  0  0  0  0  0  0
   -2.5039   -0.1183   -0.4830 C   0  0  2  0  0  0  0  0  0  0  0  0
   -3.3418    1.0864   -0.8972 C   0  0  0  0  0  0  0  0  0  0  0  0
   -3.5090    1.4148   -2.0699 O   0  0  0  0  0  0  0  0  0  0  0  0
   -3.3078   -1.4140   -0.5245 C   0  0  0  0  0  0  0  0  0  0  0  0
   -4.4746   -1.2960    0.2816 O   0  0  0  0  0  0  0  0  0  0  0  0
   -2.5276    0.6894    1.4750 H   0  0  0  0  0  0  0  0  0  0  0  0
   -1.6429   -0.1995   -1.1565 H   0  0  0  0  0  0  0  0  0  0  0  0
   -2.7178   -2.2551   -0.1465 H   0  0  0  0  0  0  0  0  0  0  0  0
   -3.6233   -1.6387   -1.5489 H   0  0  0  0  0  0  0  0  0  0  0  0
   -4.9933   -0.5625   -0.0853 H   0  0  0  0  0  0  0  0  0  0  0  0
   -3.9145    1.7242    0.1941 N   0  0  0  0  0  0  0  0  0  0  0  0
   -4.7782    2.8746    0.0634 C   0  0  2  0  0  0  0  0  0  0  0  0
   -5.5735    2.7214   -1.2264 C   0  0  0  0  0  0  0  0  0  0  0  0
   -5.2039    2.0156   -2.1626 O   0  0  0  0  0  0  0  0  0  0  0  0
   -3.9794    4.1686    0.0590 C   0  0  0  0  0  0  0  0  0  0  0  0
   -3.7532    1.3580    1.1277 H   0  0  0  0  0  0  0  0  0  0  0  0
   -5.4619    2.8557    0.9191 H   0  0  0  0  0  0  0  0  0  0  0  0
   -3.2887    4.2057   -0.7914 H   0  0  0  0  0  0  0  0  0  0  0  0
   -4.6375    5.0409   -0.0115 H   0  0  0  0  0  0  0  0  0  0  0  0
   -3.3850    4.2628    0.9742 H   0  0  0  0  0  0  0  0  0  0  0  0
   -6.7228    3.4994   -1.2264 N   0  0  0  0  0  0  0  0  0  0  0  0
   -7.6388    3.5371   -2.3425 C   0  0  0  0  0  0  0  0  0  0  0  0
   -6.9607    4.0393   -0.3996 H   0  0  0  0  0  0  0  0  0  0  0  0
   -7.3652    4.3641   -3.0142 H   0  0  0  0  0  0  0  0  0  0  0  0
   -7.5862    2.5857   -2.8921 H   0  0  0  0  0  0  0  0  0  0  0  0
   -8.6629    3.6899   -1.9712 H   0  0  0  0  0  0  0  0  0  0  0  0
  1  3  1  0  0  0  0
  1  7  1  0  0  0  0
  1  2  2  0  0  0  0
 29 30  1  0  0  0  0
 30 38  1  0  0  0  0
 30 31  2  0  0  0  0
  8  9  1  0  0  0  0
  9 17  1  0  0  0  0
  9 10  2  0  0  0  0
 18 19  1  0  0  0  0
 19 28  1  0  0  0  0
 19 20  2  0  0  0  0
 29 32  1  0  0  0  0
  8 11  1  0  0  0  0
 38 39  1  0  0  0  0
 18 21  1  0  0  0  0
 21 22  1  0  0  0  0
 28 29  1  0  0  0  0
  7  8  1  0  0  0  0
 17 18  1  0  0  0  0
  3  4  1  0  0  0  0
  3  5  1  0  0  0  0
  3  6  1  0  0  0  0
 32 35  1  0  0  0  0
 32 36  1  0  0  0  0
 32 37  1  0  0  0  0
 11 14  1  0  0  0  0
 11 15  1  0  0  0  0
 11 16  1  0  0  0  0
 39 41  1  0  0  0  0
 39 42  1  0  0  0  0
 39 43  1  0  0  0  0
 21 25  1  0  0  0  0
 21 26  1  0  0  0  0
 29 34  1  0  0  0  0
  8 13  1  0  0  0  0
 18 24  1  0  0  0  0
 38 40  1  0  0  0  0
  7 12  1  0  0  0  0
 28 33  1  0  0  0  0
 17 23  1  0  0  0  0
 22 27  1  0  0  0  0
M  END
$$$$

  -OEChem-05262214473D

 43 42  0     1  0  0  0  0  0999 V2000
    0.7424   -1.0926    4.5665 C   0  0  0  0  0  0  0  0  0  0  0  0
    0.1409   -0.5364    5.4779 O   0  0  0  0  0  0  0  0  0  0  0  0
    1.7940   -2.1023    4.8871 C   0  0  0  0  0  0  0  0  0  0  0  0
    2.7935   -1.6502    4.9904 H   0  0  0  0  0  0  0  0  0  0  0  0
    1.6064   -2.6156    5.8438 H   0  0  0  0  0  0  0  0  0  0  0  0
    1.9156   -2.9078    4.1453 H   0  0  0  0  0  0  0  0  0  0  0  0
    0.5488   -0.8838    3.2109 N   0  0  0  0  0  0  0  0  0  0  0  0
   -0.4159    0.0446    2.6829 C   0  0  2  0  0  0  0  0  0  0  0  0
   -0.7551   -0.3867    1.2623 C   0  0  0  0  0  0  0  0  0  0  0  0
   -0.0106   -1.0851    0.5774 O   0  0  0  0  0  0  0  0  0  0  0  0
    0.1168    1.4689    2.7060 C   0  0  0  0  0  0  0  0  0  0  0  0
    1.1183   -1.4145    2.5542 H   0  0  0  0  0  0  0  0  0  0  0  0
   -1.3088   -0.0350    3.3125 H   0  0  0  0  0  0  0  0  0  0  0  0
    1.0116    1.5681    2.0808 H   0  0  0  0  0  0  0  0  0  0  0  0
   -0.6289    2.1775    2.3307 H   0  0  0  0  0  0  0  0  0  0  0  0
    0.3882    1.7670    3.7245 H   0  0  0  0  0  0  0  0  0  0  0  0
   -1.9689    0.1350    0.8298 N   0  0  0  0  0  0  0  0  0  0  0  0
   -2.5039   -0.1183   -0.4830 C   0  0  2  0  0  0  0  0  0  0  0  0
   -3.3418    1.0864   -0.8972 C   0  0  0  0  0  0  0  0  0  0  0  0
   -3.7326    1.2666   -2.0487 O   0  0  0  0  0  0  0  0  0  0  0  0
   -3.3078   -1.4140   -0.5245 C   0  0  0  0  0  0  0  0  0  0  0  0
   -4.4746   -1.2960    0.2816 O   0  0  0  0  0  0  0  0  0  0  0  0
   -2.5276    0.6894    1.4750 H   0  0  0  0  0  0  0  0  0  0  0  0
   -1.6429   -0.1995   -1.1565 H   0  0  0  0  0  0  0  0  0  0  0  0
   -2.7178   -2.2551   -0.1465 H   0  0  0  0  0  0  0  0  0  0  0  0
   -3.6233   -1.6387   -1.5489 H   0  0  0  0  0  0  0  0  0  0  0  0
   -4.9933   -0.5625   -0.0853 H   0  0  0  0  0  0  0  0  0  0  0  0
   -3.6368    1.9120    0.1785 N   0  0  0  0  0  0  0  0  0  0  0  0
   -4.4435    3.1035    0.0521 C   0  0  2  0  0  0  0  0  0  0  0  0
   -5.4987    2.8460   -1.0155 C   0  0  0  0  0  0  0  0  0  0  0  0
   -5.3733    1.9915   -1.8902 O   0  0  0  0  0  0  0  0  0  0  0  0
   -3.5927    4.3124   -0.3050 C   0  0  0  0  0  0  0  0  0  0  0  0
   -3.3040    1.6627    1.1052 H   0  0  0  0  0  0  0  0  0  0  0  0
   -4.9326    3.2585    1.0200 H   0  0  0  0  0  0  0  0  0  0  0  0
   -3.0946    4.1755   -1.2718 H   0  0  0  0  0  0  0  0  0  0  0  0
   -4.2015    5.2201   -0.3724 H   0  0  0  0  0  0  0  0  0  0  0  0
   -2.8155    4.4783    0.4488 H   0  0  0  0  0  0  0  0  0  0  0  0
   -6.5775    3.7118   -0.9026 N   0  0  0  0  0  0  0  0  0  0  0  0
   -7.7034    3.6764   -1.8065 C   0  0  0  0  0  0  0  0  0  0  0  0
   -6.6065    4.3766   -0.1352 H   0  0  0  0  0  0  0  0  0  0  0  0
   -7.5313    4.3789   -2.6352 H   0  0  0  0  0  0  0  0  0  0  0  0
   -7.8201    2.6586   -2.2070 H   0  0  0  0  0  0  0  0  0  0  0  0
   -8.6169    3.9645   -1.2655 H   0  0  0  0  0  0  0  0  0  0  0  0
  1  3  1  0  0  0  0
  1  7  1  0  0  0  0
  1  2  2  0  0  0  0
 29 30  1  0  0  0  0
 30 38  1  0  0  0  0
 30 31  2  0  0  0  0
  8  9  1  0  0  0  0
  9 17  1  0  0  0  0
  9 10  2  0  0  0  0
 18 19  1  0  0  0  0
 19 28  1  0  0  0  0
 19 20  2  0  0  0  0
 29 32  1  0  0  0  0
  8 11  1  0  0  0  0
 38 39  1  0  0  0  0
 18 21  1  0  0  0  0
 21 22  1  0  0  0  0
 28 29  1  0  0  0  0
  7  8  1  0  0  0  0
 17 18  1  0  0  0  0
  3  4  1  0  0  0  0
  3  5  1  0  0  0  0
  3  6  1  0  0  0  0
 32 35  1  0  0  0  0
 32 36  1  0  0  0  0
 32 37  1  0  0  0  0
 11 14  1  0  0  0  0
 11 15  1  0  0  0  0
 11 16  1  0  0  0  0
 39 41  1  0  0  0  0
 39 42  1  0  0  0  0
 39 43  1  0  0  0  0
 21 25  1  0  0  0  0
 21 26  1  0  0  0  0
 29 34  1  0  0  0  0
  8 13  1  0  0  0  0
 18 24  1  0  0  0  0
 38 40  1  0  0  0  0
  7 12  1  0  0  0  0
 28 33  1  0  0  0  0
 17 23  1  0  0  0  0
 22 27  1  0  0  0  0
M  END
$$$$

  -OEChem-05262214473D

 43 42  0     1  0  0  0  0  0999 V2000
    0.7424   -1.0926    4.5665 C   0  0  0  0  0  0  0  0  0  0  0  0
    0.1409   -0.5364    5.4779 O   0  0  0  0  0  0  0  0  0  0  0  0
    1.7940   -2.1023    4.8871 C   0  0  0  0  0  0  0  0  0  0  0  0
    2.7935   -1.6502    4.9904 H   0  0  0  0  0  0  0  0  0  0  0  0
    1.6064   -2.6156    5.8438 H   0  0  0  0  0  0  0  0  0  0  0  0
    1.9156   -2.9078    4.1453 H   0  0  0  0  0  0  0  0  0  0  0  0
    0.5488   -0.8838    3.2109 N   0  0  0  0  0  0  0  0  0  0  0  0
   -0.4159    0.0446    2.6829 C   0  0  2  0  0  0  0  0  0  0  0  0
   -0.7551   -0.3867    1.2623 C   0  0  0  0  0  0  0  0  0  0  0  0
   -0.0106   -1.0851    0.5774 O   0  0  0  0  0  0  0  0  0  0  0  0
    0.1168    1.4689    2.7060 C   0  0  0  0  0  0  0  0  0  0  0  0
    1.1183   -1.4145    2.5542 H   0  0  0  0  0  0  0  0  0  0  0  0
   -1.3088   -0.0350    3.3125 H   0  0  0  0  0  0  0  0  0  0  0  0
    1.0116    1.5681    2.0808 H   0  0  0  0  0  0  0  0  0  0  0  0
   -0.6289    2.1775    2.3307 H   0  0  0  0  0  0  0  0  0  0  0  0
    0.3882    1.7670    3.7245 H   0  0  0  0  0  0  0  0  0  0  0  0
   -1.9689    0.1350    0.8298 N   0  0  0  0  0  0  0  0  0  0  0  0
   -2.5039   -0.1183   -0.4830 C   0  0  2  0  0  0  0  0  0  0  0  0
   -3.3418    1.0864   -0.8972 C   0  0  0  0  0  0  0  0  0  0  0  0
   -3.9546    1.1422   -1.9614 O   0  0  0  0  0  0  0  0  0  0  0  0
   -3.3078   -1.4140   -0.5245 C   0  0  0  0  0  0  0  0  0  0  0  0
   -4.4746   -1.2960    0.2816 O   0  0  0  0  0  0  0  0  0  0  0  0
   -2.5276    0.6894    1.4750 H   0  0  0  0  0  0  0  0  0  0  0  0
   -1.6429   -0.1995   -1.1565 H   0  0  0  0  0  0  0  0  0  0  0  0
   -2.7178   -2.2551   -0.1465 H   0  0  0  0  0  0  0  0  0  0  0  0
   -3.6233   -1.6387   -1.5489 H   0  0  0  0  0  0  0  0  0  0  0  0
   -4.9933   -0.5625   -0.0853 H   0  0  0  0  0  0  0  0  0  0  0  0
   -3.3585    2.0716    0.0800 N   0  0  0  0  0  0  0  0  0  0  0  0
   -4.1064    3.2995   -0.0598 C   0  0  2  0  0  0  0  0  0  0  0  0
   -5.3745    2.9911   -0.8448 C   0  0  0  0  0  0  0  0  0  0  0  0
   -5.4828    2.0188   -1.5891 O   0  0  0  0  0  0  0  0  0  0  0  0
   -3.2836    4.3723   -0.7560 C   0  0  0  0  0  0  0  0  0  0  0  0
   -2.8532    1.9222    0.9483 H   0  0  0  0  0  0  0  0  0  0  0  0
   -4.3724    3.6247    0.9519 H   0  0  0  0  0  0  0  0  0  0  0  0
   -3.0075    4.0644   -1.7711 H   0  0  0  0  0  0  0  0  0  0  0  0
   -3.8416    5.3111   -0.8356 H   0  0  0  0  0  0  0  0  0  0  0  0
   -2.3576    4.5717   -0.2059 H   0  0  0  0  0  0  0  0  0  0  0  0
   -6.3559    3.9528   -0.6498 N   0  0  0  0  0  0  0  0  0  0  0  0
   -7.6465    3.8918   -1.2953 C   0  0  0  0  0  0  0  0  0  0  0  0
   -6.1865    4.7151   -0.0002 H   0  0  0  0  0  0  0  0  0  0  0  0
   -7.6131    4.4588   -2.2373 H   0  0  0  0  0  0  0  0  0  0  0  0
   -7.9008    2.8429   -1.5077 H   0  0  0  0  0  0  0  0  0  0  0  0
   -8.4088    4.3269   -0.6324 H   0  0  0  0  0  0  0  0  0  0  0  0
  1  3  1  0  0  0  0
  1  7  1  0  0  0  0
  1  2  2  0  0  0  0
 29 30  1  0  0  0  0
 30 38  1  0  0  0  0
 30 31  2  0  0  0  0
  8  9  1  0  0  0  0
  9 17  1  0  0  0  0
  9 10  2  0  0  0  0
 18 19  1  0  0  0  0
 19 28  1  0  0  0  0
 19 20  2  0  0  0  0
 29 32  1  0  0  0  0
  8 11  1  0  0  0  0
 38 39  1  0  0  0  0
 18 21  1  0  0  0  0
 21 22  1  0  0  0  0
 28 29  1  0  0  0  0
  7  8  1  0  0  0  0
 17 18  1  0  0  0  0
  3  4  1  0  0  0  0
  3  5  1  0  0  0  0
  3  6  1  0  0  0  0
 32 35  1  0  0  0  0
 32 36  1  0  0  0  0
 32 37  1  0  0  0  0
 11 14  1  0  0  0  0
 11 15  1  0  0  0  0
 11 16  1  0  0  0  0
 39 41  1  0  0  0  0
 39 42  1  0  0  0  0
 39 43  1  0  0  0  0
 21 25  1  0  0  0  0
 21 26  1  0  0  0  0
 29 34  1  0  0  0  0
  8 13  1  0  0  0  0
 18 24  1  0  0  0  0
 38 40  1  0  0  0  0
  7 12  1  0  0  0  0
 28 33  1  0  0  0  0
 17 23  1  0  0  0  0
 22 27  1  0  0  0  0
M  END
$$$$

  -OEChem-05262214473D

 43 42  0     1  0  0  0  0  0999 V2000
    0.7424   -1.0926    4.5665 C   0  0  0  0  0  0  0  0  0  0  0  0
    0.1409   -0.5364    5.4779 O   0  0  0  0  0  0  0  0  0  0  0  0
    1.7940   -2.1023    4.8871 C   0  0  0  0  0  0  0  0  0  0  0  0
    2.7935   -1.6502    4.9904 H   0  0  0  0  0  0  0  0  0  0  0  0
    1.6064   -2.6156    5.8438 H   0  0  0  0  0  0  0  0  0  0  0  0
    1.9156   -2.9078    4.1453 H   0  0  0  0  0  0  0  0  0  0  0  0
    0.5488   -0.8838    3.2109 N   0  0  0  0  0  0  0  0  0  0  0  0
   -0.4159    0.0446    2.6829 C   0  0  2  0  0  0  0  0  0  0  0  0
   -0.7551   -0.3867    1.2623 C   0  0  0  0  0  0  0  0  0  0  0  0
   -0.0106   -1.0851    0.5774 O   0  0  0  0  0  0  0  0  0  0  0  0
    0.1168    1.4689    2.7060 C   0  0  0  0  0  0  0  0  0  0  0  0
    1.1183   -1.4145    2.5542 H   0  0  0  0  0  0  0  0  0  0  0  0
   -1.3088   -0.0350    3.3125 H   0  0  0  0  0  0  0  0  0  0  0  0
    1.0116    1.5681    2.0808 H   0  0  0  0  0  0  0  0  0  0  0  0
   -0.6289    2.1775    2.3307 H   0  0  0  0  0  0  0  0  0  0  0  0
    0.3882    1.7670    3.7245 H   0  0  0  0  0  0  0  0  0  0  0  0
   -1.9689    0.1350    0.8298 N   0  0  0  0  0  0  0  0  0  0  0  0
   -2.5039   -0.1183   -0.4830 C   0  0  2  0  0  0  0  0  0  0  0  0
   -3.3418    1.0864   -0.8972 C   0  0  0  0  0  0  0  0  0  0  0  0
   -4.1600    1.0501   -1.8139 O   0  0  0  0  0  0  0  0  0  0  0  0
   -3.3078   -1.4140   -0.5245 C   0  0  0  0  0  0  0  0  0  0  0  0
   -4.4746   -1.2960    0.2816 O   0  0  0  0  0  0  0  0  0  0  0  0
   -2.5276    0.6894    1.4750 H   0  0  0  0  0  0  0  0  0  0  0  0
   -1.6429   -0.1995   -1.1565 H   0  0  0  0  0  0  0  0  0  0  0  0
   -2.7178   -2.2551   -0.1465 H   0  0  0  0  0  0  0  0  0  0  0  0
   -3.6233   -1.6387   -1.5489 H   0  0  0  0  0  0  0  0  0  0  0  0
   -4.9933   -0.5625   -0.0853 H   0  0  0  0  0  0  0  0  0  0  0  0
   -3.0986    2.1923   -0.0949 N   0  0  0  0  0  0  0  0  0  0  0  0
   -3.7898    3.4492   -0.2647 C   0  0  2  0  0  0  0  0  0  0  0  0
   -5.2094    3.1467   -0.7259 C   0  0  0  0  0  0  0  0  0  0  0  0
   -5.5252    2.0957   -1.2798 O   0  0  0  0  0  0  0  0  0  0  0  0
   -3.0730    4.3444   -1.2635 C   0  0  0  0  0  0  0  0  0  0  0  0
   -2.4317    2.1189    0.6676 H   0  0  0  0  0  0  0  0  0  0  0  0
   -3.8195    3.9293    0.7195 H   0  0  0  0  0  0  0  0  0  0  0  0
   -3.0333    3.8800   -2.2555 H   0  0  0  0  0  0  0  0  0  0  0  0
   -3.5823    5.3079   -1.3697 H   0  0  0  0  0  0  0  0  0  0  0  0
   -2.0427    4.5366   -0.9451 H   0  0  0  0  0  0  0  0  0  0  0  0
   -6.0733    4.2060   -0.4852 N   0  0  0  0  0  0  0  0  0  0  0  0
   -7.4718    4.1684   -0.8439 C   0  0  0  0  0  0  0  0  0  0  0  0
   -5.7294    5.0317   -0.0039 H   0  0  0  0  0  0  0  0  0  0  0  0
   -7.6052    4.5983   -1.8476 H   0  0  0  0  0  0  0  0  0  0  0  0
   -7.8228    3.1260   -0.8420 H   0  0  0  0  0  0  0  0  0  0  0  0
   -8.0529    4.7523   -0.1149 H   0  0  0  0  0  0  0  0  0  0  0  0
  1  3  1  0  0  0  0
  1  7  1  0  0  0  0
  1  2  2  0  0  0  0
 29 30  1  0  0  0  0
 30 38  1  0  0  0  0
 30 31  2  0  0  0  0
  8  9  1  0  0  0  0
  9 17  1  0  0  0  0
  9 10  2  0  0  0  0
 18 19  1  0  0  0  0
 19 28  1  0  0  0  0
 19 20  2  0  0  0  0
 29 32  1  0  0  0  0
  8 11  1  0  0  0  0
 38 39  1  0  0  0  0
 18 21  1  0  0  0  0
 21 22  1  0  0  0  0
 28 29  1  0  0  0  0
  7  8  1  0  0  0  0
 17 18  1  0  0  0  0
  3  4  1  0  0  0  0
  3  5  1  0  0  0  0
  3  6  1  0  0  0  0
 32 35  1  0  0  0  0
 32 36  1  0  0  0  0
 32 37  1  0  0  0  0
 11 14  1  0  0  0  0
 11 15  1  0  0  0  0
 11 16  1  0  0  0  0
 39 41  1  0  0  0  0
 39 42  1  0  0  0  0
 39 43  1  0  0  0  0
 21 25  1  0  0  0  0
 21 26  1  0  0  0  0
 29 34  1  0  0  0  0
  8 13  1  0  0  0  0
 18 24  1  0  0  0  0
 38 40  1  0  0  0  0
  7 12  1  0  0  0  0
 28 33  1  0  0  0  0
 17 23  1  0  0  0  0
 22 27  1  0  0  0  0
M  END
$$$$

  -OEChem-05262214473D

 43 42  0     1  0  0  0  0  0999 V2000
    0.7424   -1.0926    4.5665 C   0  0  0  0  0  0  0  0  0  0  0  0
    0.1409   -0.5364    5.4779 O   0  0  0  0  0  0  0  0  0  0  0  0
    1.7940   -2.1023    4.8871 C   0  0  0  0  0  0  0  0  0  0  0  0
    2.7935   -1.6502    4.9904 H   0  0  0  0  0  0  0  0  0  0  0  0
    1.6064   -2.6156    5.8438 H   0  0  0  0  0  0  0  0  0  0  0  0
    1.9156   -2.9078    4.1453 H   0  0  0  0  0  0  0  0  0  0  0  0
    0.5488   -0.8838    3.2109 N   0  0  0  0  0  0  0  0  0  0  0  0
   -0.4159    0.0446    2.6829 C   0  0  2  0  0  0  0  0  0  0  0  0
   -0.7551   -0.3867    1.2623 C   0  0  0  0  0  0  0  0  0  0  0  0
   -0.0106   -1.0851    0.5774 O   0  0  0  0  0  0  0  0  0  0  0  0
    0.1168    1.4689    2.7060 C   0  0  0  0  0  0  0  0  0  0  0  0
    1.1183   -1.4145    2.5542 H   0  0  0  0  0  0  0  0  0  0  0  0
   -1.3088   -0.0350    3.3125 H   0  0  0  0  0  0  0  0  0  0  0  0
    1.0116    1.5681    2.0808 H   0  0  0  0  0  0  0  0  0  0  0  0
   -0.6289    2.1775    2.3307 H   0  0  0  0  0  0  0  0  0  0  0  0
    0.3882    1.7670    3.7245 H   0  0  0  0  0  0  0  0  0  0  0  0
   -1.9689    0.1350    0.8298 N   0  0  0  0  0  0  0  0  0  0  0  0
   -2.5039   -0.1183   -0.4830 C   0  0  2  0  0  0  0  0  0  0  0  0
   -3.3418    1.0864   -0.8972 C   0  0  0  0  0  0  0  0  0  0  0  0
   -4.3346    0.9965   -1.6164 O   0  0  0  0  0  0  0  0  0  0  0  0
   -3.3078   -1.4140   -0.5245 C   0  0  0  0  0  0  0  0  0  0  0  0
   -4.4746   -1.2960    0.2816 O   0  0  0  0  0  0  0  0  0  0  0  0
   -2.5276    0.6894    1.4750 H   0  0  0  0  0  0  0  0  0  0  0  0
   -1.6429   -0.1995   -1.1565 H   0  0  0  0  0  0  0  0  0  0  0  0
   -2.7178   -2.2551   -0.1465 H   0  0  0  0  0  0  0  0  0  0  0  0
   -3.6233   -1.6387   -1.5489 H   0  0  0  0  0  0  0  0  0  0  0  0
   -4.9933   -0.5625   -0.0853 H   0  0  0  0  0  0  0  0  0  0  0  0
   -2.8749    2.2657   -0.3340 N   0  0  0  0  0  0  0  0  0  0  0  0
   -3.5155    3.5424   -0.5486 C   0  0  2  0  0  0  0  0  0  0  0  0
   -5.0148    3.3024   -0.6670 C   0  0  0  0  0  0  0  0  0  0  0  0
   -5.4974    2.2170   -0.9833 O   0  0  0  0  0  0  0  0  0  0  0  0
   -2.9753    4.2304   -1.7927 C   0  0  0  0  0  0  0  0  0  0  0  0
   -2.0680    2.2393    0.2824 H   0  0  0  0  0  0  0  0  0  0  0  0
   -3.3115    4.1517    0.3386 H   0  0  0  0  0  0  0  0  0  0  0  0
   -3.1703    3.6347   -2.6919 H   0  0  0  0  0  0  0  0  0  0  0  0
   -3.4413    5.2105   -1.9380 H   0  0  0  0  0  0  0  0  0  0  0  0
   -1.8921    4.3754   -1.7186 H   0  0  0  0  0  0  0  0  0  0  0  0
   -5.7488    4.4541   -0.4200 N   0  0  0  0  0  0  0  0  0  0  0  0
   -7.1913    4.4876   -0.4829 C   0  0  0  0  0  0  0  0  0  0  0  0
   -5.2664    5.3049   -0.1459 H   0  0  0  0  0  0  0  0  0  0  0  0
   -7.5080    4.7879   -1.4926 H   0  0  0  0  0  0  0  0  0  0  0  0
   -7.5915    3.4886   -0.2552 H   0  0  0  0  0  0  0  0  0  0  0  0
   -7.5734    5.2118    0.2517 H   0  0  0  0  0  0  0  0  0  0  0  0
  1  3  1  0  0  0  0
  1  7  1  0  0  0  0
  1  2  2  0  0  0  0
 29 30  1  0  0  0  0
 30 38  1  0  0  0  0
 30 31  2  0  0  0  0
  8  9  1  0  0  0  0
  9 17  1  0  0  0  0
  9 10  2  0  0  0  0
 18 19  1  0  0  0  0
 19 28  1  0  0  0  0
 19 20  2  0  0  0  0
 29 32  1  0  0  0  0
  8 11  1  0  0  0  0
 38 39  1  0  0  0  0
 18 21  1  0  0  0  0
 21 22  1  0  0  0  0
 28 29  1  0  0  0  0
  7  8  1  0  0  0  0
 17 18  1  0  0  0  0
  3  4  1  0  0  0  0
  3  5  1  0  0  0  0
  3  6  1  0  0  0  0
 32 35  1  0  0  0  0
 32 36  1  0  0  0  0
 32 37  1  0  0  0  0
 11 14  1  0  0  0  0
 11 15  1  0  0  0  0
 11 16  1  0  0  0  0
 39 41  1  0  0  0  0
 39 42  1  0  0  0  0
 39 43  1  0  0  0  0
 21 25  1  0  0  0  0
 21 26  1  0  0  0  0
 29 34  1  0  0  0  0
  8 13  1  0  0  0  0
 18 24  1  0  0  0  0
 38 40  1  0  0  0  0
  7 12  1  0  0  0  0
 28 33  1  0  0  0  0
 17 23  1  0  0  0  0
 22 27  1  0  0  0  0
M  END
$$$$

  -OEChem-05262214473D

 43 42  0     1  0  0  0  0  0999 V2000
    0.7424   -1.0926    4.5665 C   0  0  0  0  0  0  0  0  0  0  0  0
    0.1409   -0.5364    5.4779 O   0  0  0  0  0  0  0  0  0  0  0  0
    1.7940   -2.1023    4.8871 C   0  0  0  0  0  0  0  0  0  0  0  0
    2.7935   -1.6502    4.9904 H   0  0  0  0  0  0  0  0  0  0  0  0
    1.6064   -2.6156    5.8438 H   0  0  0  0  0  0  0  0  0  0  0  0
    1.9156   -2.9078    4.1453 H   0  0  0  0  0  0  0  0  0  0  0  0
    0.5488   -0.8838    3.2109 N   0  0  0  0  0  0  0  0  0  0  0  0
   -0.4159    0.0446    2.6829 C   0  0  2  0  0  0  0  0  0  0  0  0
   -0.7551   -0.3867    1.2623 C   0  0  0  0  0  0  0  0  0  0  0  0
   -0.0106   -1.0851    0.5774 O   0  0  0  0  0  0  0  0  0  0  0  0
    0.1168    1.4689    2.7060 C   0  0  0  0  0  0  0  0  0  0  0  0
    1.1183   -1.4145    2.5542 H   0  0  0  0  0  0  0  0  0  0  0  0
   -1.3088   -0.0350    3.3125 H   0  0  0  0  0  0  0  0  0  0  0  0
    1.0116    1.5681    2.0808 H   0  0  0  0  0  0  0  0  0  0  0  0
   -0.6289    2.1775    2.3307 H   0  0  0  0  0  0  0  0  0  0  0  0
    0.3882    1.7670    3.7245 H   0  0  0  0  0  0  0  0  0  0  0  0
   -1.9689    0.1350    0.8298 N   0  0  0  0  0  0  0  0  0  0  0  0
   -2.5039   -0.1183   -0.4830 C   0  0  2  0  0  0  0  0  0  0  0  0
   -3.3418    1.0864   -0.8972 C   0  0  0  0  0  0  0  0  0  0  0  0
   -4.4667    0.9851   -1.3823 O   0  0  0  0  0  0  0  0  0  0  0  0
   -3.3078   -1.4140   -0.5245 C   0  0  0  0  0  0  0  0  0  0  0  0
   -4.4746   -1.2960    0.2816 O   0  0  0  0  0  0  0  0  0  0  0  0
   -2.5276    0.6894    1.4750 H   0  0  0  0  0  0  0  0  0  0  0  0
   -1.6429   -0.1995   -1.1565 H   0  0  0  0  0  0  0  0  0  0  0  0
   -2.7178   -2.2551   -0.1465 H   0  0  0  0  0  0  0  0  0  0  0  0
   -3.6233   -1.6387   -1.5489 H   0  0  0  0  0  0  0  0  0  0  0  0
   -4.9933   -0.5625   -0.0853 H   0  0  0  0  0  0  0  0  0  0  0  0
   -2.7025    2.2868   -0.6213 N   0  0  0  0  0  0  0  0  0  0  0  0
   -3.3020    3.5728   -0.8923 C   0  0  2  0  0  0  0  0  0  0  0  0
   -4.8037    3.4474   -0.6720 C   0  0  0  0  0  0  0  0  0  0  0  0
   -5.4014    2.3743   -0.7198 O   0  0  0  0  0  0  0  0  0  0  0  0
   -2.9971    4.0381   -2.3076 C   0  0  0  0  0  0  0  0  0  0  0  0
   -1.7871    2.2753   -0.1812 H   0  0  0  0  0  0  0  0  0  0  0  0
   -2.8831    4.2766   -0.1648 H   0  0  0  0  0  0  0  0  0  0  0  0
   -3.4090    3.3454   -3.0505 H   0  0  0  0  0  0  0  0  0  0  0  0
   -3.4281    5.0258   -2.5021 H   0  0  0  0  0  0  0  0  0  0  0  0
   -1.9161    4.0991   -2.4735 H   0  0  0  0  0  0  0  0  0  0  0  0
   -5.4046    4.6801   -0.4587 N   0  0  0  0  0  0  0  0  0  0  0  0
   -6.8241    4.8276   -0.2369 C   0  0  0  0  0  0  0  0  0  0  0  0
   -4.8290    5.5160   -0.4167 H   0  0  0  0  0  0  0  0  0  0  0  0
   -7.3282    5.0148   -1.1965 H   0  0  0  0  0  0  0  0  0  0  0  0
   -7.2225    3.9061    0.2128 H   0  0  0  0  0  0  0  0  0  0  0  0
   -7.0030    5.6741    0.4423 H   0  0  0  0  0  0  0  0  0  0  0  0
  1  3  1  0  0  0  0
  1  7  1  0  0  0  0
  1  2  2  0  0  0  0
 29 30  1  0  0  0  0
 30 38  1  0  0  0  0
 30 31  2  0  0  0  0
  8  9  1  0  0  0  0
  9 17  1  0  0  0  0
  9 10  2  0  0  0  0
 18 19  1  0  0  0  0
 19 28  1  0  0  0  0
 19 20  2  0  0  0  0
 29 32  1  0  0  0  0
  8 11  1  0  0  0  0
 38 39  1  0  0  0  0
 18 21  1  0  0  0  0
 21 22  1  0  0  0  0
 28 29  1  0  0  0  0
  7  8  1  0  0  0  0
 17 18  1  0  0  0  0
  3  4  1  0  0  0  0
  3  5  1  0  0  0  0
  3  6  1  0  0  0  0
 32 35  1  0  0  0  0
 32 36  1  0  0  0  0
 32 37  1  0  0  0  0
 11 14  1  0  0  0  0
 11 15  1  0  0  0  0
 11 16  1  0  0  0  0
 39 41  1  0  0  0  0
 39 42  1  0  0  0  0
 39 43  1  0  0  0  0
 21 25  1  0  0  0  0
 21 26  1  0  0  0  0
 29 34  1  0  0  0  0
  8 13  1  0  0  0  0
 18 24  1  0  0  0  0
 38 40  1  0  0  0  0
  7 12  1  0  0  0  0
 28 33  1  0  0  0  0
 17 23  1  0  0  0  0
 22 27  1  0  0  0  0
M  END
$$$$

  -OEChem-05262214473D

 43 42  0     1  0  0  0  0  0999 V2000
    0.7424   -1.0926    4.5665 C   0  0  0  0  0  0  0  0  0  0  0  0
    0.1409   -0.5364    5.4779 O   0  0  0  0  0  0  0  0  0  0  0  0
    1.7940   -2.1023    4.8871 C   0  0  0  0  0  0  0  0  0  0  0  0
    2.7935   -1.6502    4.9904 H   0  0  0  0  0  0  0  0  0  0  0  0
    1.6064   -2.6156    5.8438 H   0  0  0  0  0  0  0  0  0  0  0  0
    1.9156   -2.9078    4.1453 H   0  0  0  0  0  0  0  0  0  0  0  0
    0.5488   -0.8838    3.2109 N   0  0  0  0  0  0  0  0  0  0  0  0
   -0.4159    0.0446    2.6829 C   0  0  2  0  0  0  0  0  0  0  0  0
   -0.7551   -0.3867    1.2623 C   0  0  0  0  0  0  0  0  0  0  0  0
   -0.0106   -1.0851    0.5774 O   0  0  0  0  0  0  0  0  0  0  0  0
    0.1168    1.4689    2.7060 C   0  0  0  0  0  0  0  0  0  0  0  0
    1.1183   -1.4145    2.5542 H   0  0  0  0  0  0  0  0  0  0  0  0
   -1.3088   -0.0350    3.3125 H   0  0  0  0  0  0  0  0  0  0  0  0
    1.0116    1.5681    2.0808 H   0  0  0  0  0  0  0  0  0  0  0  0
   -0.6289    2.1775    2.3307 H   0  0  0  0  0  0  0  0  0  0  0  0
    0.3882    1.7670    3.7245 H   0  0  0  0  0  0  0  0  0  0  0  0
   -1.9689    0.1350    0.8298 N   0  0  0  0  0  0  0  0  0  0  0  0
   -2.5039   -0.1183   -0.4830 C   0  0  2  0  0  0  0  0  0  0  0  0
   -3.3418    1.0864   -0.8972 C   0  0  0  0  0  0  0  0  0  0  0  0
   -4.5473    1.0167   -1.1275 O   0  0  0  0  0  0  0  0  0  0  0  0
   -3.3078   -1.4140   -0.5245 C   0  0  0  0  0  0  0  0  0  0  0  0
   -4.4746   -1.2960    0.2816 O   0  0  0  0  0  0  0  0  0  0  0  0
   -2.5276    0.6894    1.4750 H   0  0  0  0  0  0  0  0  0  0  0  0
   -1.6429   -0.1995   -1.1565 H   0  0  0  0  0  0  0  0  0  0  0  0
   -2.7178   -2.2551   -0.1465 H   0  0  0  0  0  0  0  0  0  0  0  0
   -3.6233   -1.6387   -1.5489 H   0  0  0  0  0  0  0  0  0  0  0  0
   -4.9933   -0.5625   -0.0853 H   0  0  0  0  0  0  0  0  0  0  0  0
   -2.5932    2.2543   -0.9369 N   0  0  0  0  0  0  0  0  0  0  0  0
   -3.1639    3.5382   -1.2722 C   0  0  2  0  0  0  0  0  0  0  0  0
   -4.5907    3.5720   -0.7407 C   0  0  0  0  0  0  0  0  0  0  0  0
   -5.2437    2.5570   -0.5072 O   0  0  0  0  0  0  0  0  0  0  0  0
   -3.1371    3.7807   -2.7732 C   0  0  0  0  0  0  0  0  0  0  0  0
   -1.6081    2.2244   -0.6916 H   0  0  0  0  0  0  0  0  0  0  0  0
   -2.5634    4.2955   -0.7564 H   0  0  0  0  0  0  0  0  0  0  0  0
   -3.7333    3.0316   -3.3069 H   0  0  0  0  0  0  0  0  0  0  0  0
   -3.5437    4.7662   -3.0233 H   0  0  0  0  0  0  0  0  0  0  0  0
   -2.1132    3.7265   -3.1586 H   0  0  0  0  0  0  0  0  0  0  0  0
   -5.0641    4.8688   -0.5986 N   0  0  0  0  0  0  0  0  0  0  0  0
   -6.3952    5.1651   -0.1228 C   0  0  0  0  0  0  0  0  0  0  0  0
   -4.4470    5.6507   -0.7977 H   0  0  0  0  0  0  0  0  0  0  0  0
   -7.0781    5.2633   -0.9796 H   0  0  0  0  0  0  0  0  0  0  0  0
   -6.7410    4.3500    0.5299 H   0  0  0  0  0  0  0  0  0  0  0  0
   -6.3805    6.1077    0.4441 H   0  0  0  0  0  0  0  0  0  0  0  0
  1  3  1  0  0  0  0
  1  7  1  0  0  0  0
  1  2  2  0  0  0  0
 29 30  1  0  0  0  0
 30 38  1  0  0  0  0
 30 31  2  0  0  0  0
  8  9  1  0  0  0  0
  9 17  1  0  0  0  0
  9 10  2  0  0  0  0
 18 19  1  0  0  0  0
 19 28  1  0  0  0  0
 19 20  2  0  0  0  0
 29 32  1  0  0  0  0
  8 11  1  0  0  0  0
 38 39  1  0  0  0  0
 18 21  1  0  0  0  0
 21 22  1  0  0  0  0
 28 29  1  0  0  0  0
  7  8  1  0  0  0  0
 17 18  1  0  0  0  0
  3  4  1  0  0  0  0
  3  5  1  0  0  0  0
  3  6  1  0  0  0  0
 32 35  1  0  0  0  0
 32 36  1  0  0  0  0
 32 37  1  0  0  0  0
 11 14  1  0  0  0  0
 11 15  1  0  0  0  0
 11 16  1  0  0  0  0
 39 41  1  0  0  0  0
 39 42  1  0  0  0  0
 39 43  1  0  0  0  0
 21 25  1  0  0  0  0
 21 26  1  0  0  0  0
 29 34  1  0  0  0  0
  8 13  1  0  0  0  0
 18 24  1  0  0  0  0
 38 40  1  0  0  0  0
  7 12  1  0  0  0  0
 28 33  1  0  0  0  0
 17 23  1  0  0  0  0
 22 27  1  0  0  0  0
M  END
$$$$

  -OEChem-05262214473D

 43 42  0     1  0  0  0  0  0999 V2000
    0.7424   -1.0926    4.5665 C   0  0  0  0  0  0  0  0  0  0  0  0
    0.1409   -0.5364    5.4779 O   0  0  0  0  0  0  0  0  0  0  0  0
    1.7940   -2.1023    4.8871 C   0  0  0  0  0  0  0  0  0  0  0  0
    2.7935   -1.6502    4.9904 H   0  0  0  0  0  0  0  0  0  0  0  0
    1.6064   -2.6156    5.8438 H   0  0  0  0  0  0  0  0  0  0  0  0
    1.9156   -2.9078    4.1453 H   0  0  0  0  0  0  0  0  0  0  0  0
    0.5488   -0.8838    3.2109 N   0  0  0  0  0  0  0  0  0  0  0  0
   -0.4159    0.0446    2.6829 C   0  0  2  0  0  0  0  0  0  0  0  0
   -0.7551   -0.3867    1.2623 C   0  0  0  0  0  0  0  0  0  0  0  0
   -0.0106   -1.0851    0.5774 O   0  0  0  0  0  0  0  0  0  0  0  0
    0.1168    1.4689    2.7060 C   0  0  0  0  0  0  0  0  0  0  0  0
    1.1183   -1.4145    2.5542 H   0  0  0  0  0  0  0  0  0  0  0  0
   -1.3088   -0.0350    3.3125 H   0  0  0  0  0  0  0  0  0  0  0  0
    1.0116    1.5681    2.0808 H   0  0  0  0  0  0  0  0  0  0  0  0
   -0.6289    2.1775    2.3307 H   0  0  0  0  0  0  0  0  0  0  0  0
    0.3882    1.7670    3.7245 H   0  0  0  0  0  0  0  0  0  0  0  0
   -1.9689    0.1350    0.8298 N   0  0  0  0  0  0  0  0  0  0  0  0
   -2.5039   -0.1183   -0.4830 C   0  0  2  0  0  0  0  0  0  0  0  0
   -3.3418    1.0864   -0.8972 C   0  0  0  0  0  0  0  0  0  0  0  0
   -4.5707    1.0891   -0.8694 O   0  0  0  0  0  0  0  0  0  0  0  0
   -3.3078   -1.4140   -0.5245 C   0  0  0  0  0  0  0  0  0  0  0  0
   -4.4746   -1.2960    0.2816 O   0  0  0  0  0  0  0  0  0  0  0  0
   -2.5276    0.6894    1.4750 H   0  0  0  0  0  0  0  0  0  0  0  0
   -1.6429   -0.1995   -1.1565 H   0  0  0  0  0  0  0  0  0  0  0  0
   -2.7178   -2.2551   -0.1465 H   0  0  0  0  0  0  0  0  0  0  0  0
   -3.6233   -1.6387   -1.5489 H   0  0  0  0  0  0  0  0  0  0  0  0
   -4.9933   -0.5625   -0.0853 H   0  0  0  0  0  0  0  0  0  0  0  0
   -2.5546    2.1702   -1.2596 N   0  0  0  0  0  0  0  0  0  0  0  0
   -3.1106    3.4411   -1.6624 C   0  0  2  0  0  0  0  0  0  0  0  0
   -4.3902    3.6675   -0.8682 C   0  0  0  0  0  0  0  0  0  0  0  0
   -5.0351    2.7527   -0.3602 O   0  0  0  0  0  0  0  0  0  0  0  0
   -3.3856    3.4757   -3.1577 C   0  0  0  0  0  0  0  0  0  0  0  0
   -1.5430    2.0900   -1.2140 H   0  0  0  0  0  0  0  0  0  0  0  0
   -2.3743    4.2072   -1.3960 H   0  0  0  0  0  0  0  0  0  0  0  0
   -4.1211    2.7150   -3.4437 H   0  0  0  0  0  0  0  0  0  0  0  0
   -3.7803    4.4494   -3.4661 H   0  0  0  0  0  0  0  0  0  0  0  0
   -2.4698    3.2831   -3.7270 H   0  0  0  0  0  0  0  0  0  0  0  0
   -4.7506    5.0073   -0.8302 N   0  0  0  0  0  0  0  0  0  0  0  0
   -5.9339    5.4772   -0.1482 C   0  0  0  0  0  0  0  0  0  0  0  0
   -4.1465    5.6997   -1.2629 H   0  0  0  0  0  0  0  0  0  0  0  0
   -6.7746    5.5167   -0.8565 H   0  0  0  0  0  0  0  0  0  0  0  0
   -6.1799    4.7900    0.6747 H   0  0  0  0  0  0  0  0  0  0  0  0
   -5.7484    6.4829    0.2569 H   0  0  0  0  0  0  0  0  0  0  0  0
  1  3  1  0  0  0  0
  1  7  1  0  0  0  0
  1  2  2  0  0  0  0
 29 30  1  0  0  0  0
 30 38  1  0  0  0  0
 30 31  2  0  0  0  0
  8  9  1  0  0  0  0
  9 17  1  0  0  0  0
  9 10  2  0  0  0  0
 18 19  1  0  0  0  0
 19 28  1  0  0  0  0
 19 20  2  0  0  0  0
 29 32  1  0  0  0  0
  8 11  1  0  0  0  0
 38 39  1  0  0  0  0
 18 21  1  0  0  0  0
 21 22  1  0  0  0  0
 28 29  1  0  0  0  0
  7  8  1  0  0  0  0
 17 18  1  0  0  0  0
  3  4  1  0  0  0  0
  3  5  1  0  0  0  0
  3  6  1  0  0  0  0
 32 35  1  0  0  0  0
 32 36  1  0  0  0  0
 32 37  1  0  0  0  0
 11 14  1  0  0  0  0
 11 15  1  0  0  0  0
 11 16  1  0  0  0  0
 39 41  1  0  0  0  0
 39 42  1  0  0  0  0
 39 43  1  0  0  0  0
 21 25  1  0  0  0  0
 21 26  1  0  0  0  0
 29 34  1  0  0  0  0
  8 13  1  0  0  0  0
 18 24  1  0  0  0  0
 38 40  1  0  0  0  0
  7 12  1  0  0  0  0
 28 33  1  0  0  0  0
 17 23  1  0  0  0  0
 22 27  1  0  0  0  0
M  END
$$$$

  -OEChem-05262214473D

 43 42  0     1  0  0  0  0  0999 V2000
    0.7424   -1.0926    4.5665 C   0  0  0  0  0  0  0  0  0  0  0  0
    0.1409   -0.5364    5.4779 O   0  0  0  0  0  0  0  0  0  0  0  0
    1.7940   -2.1023    4.8871 C   0  0  0  0  0  0  0  0  0  0  0  0
    2.7935   -1.6502    4.9904 H   0  0  0  0  0  0  0  0  0  0  0  0
    1.6064   -2.6156    5.8438 H   0  0  0  0  0  0  0  0  0  0  0  0
    1.9156   -2.9078    4.1453 H   0  0  0  0  0  0  0  0  0  0  0  0
    0.5488   -0.8838    3.2109 N   0  0  0  0  0  0  0  0  0  0  0  0
   -0.4159    0.0446    2.6829 C   0  0  2  0  0  0  0  0  0  0  0  0
   -0.7551   -0.3867    1.2623 C   0  0  0  0  0  0  0  0  0  0  0  0
   -0.0106   -1.0851    0.5774 O   0  0  0  0  0  0  0  0  0  0  0  0
    0.1168    1.4689    2.7060 C   0  0  0  0  0  0  0  0  0  0  0  0
    1.1183   -1.4145    2.5542 H   0  0  0  0  0  0  0  0  0  0  0  0
   -1.3088   -0.0350    3.3125 H   0  0  0  0  0  0  0  0  0  0  0  0
    1.0116    1.5681    2.0808 H   0  0  0  0  0  0  0  0  0  0  0  0
   -0.6289    2.1775    2.3307 H   0  0  0  0  0  0  0  0  0  0  0  0
    0.3882    1.7670    3.7245 H   0  0  0  0  0  0  0  0  0  0  0  0
   -1.9689    0.1350    0.8298 N   0  0  0  0  0  0  0  0  0  0  0  0
   -2.5039   -0.1183   -0.4830 C   0  0  2  0  0  0  0  0  0  0  0  0
   -3.3418    1.0864   -0.8972 C   0  0  0  0  0  0  0  0  0  0  0  0
   -4.5355    1.1974   -0.6256 O   0  0  0  0  0  0  0  0  0  0  0  0
   -3.3078   -1.4140   -0.5245 C   0  0  0  0  0  0  0  0  0  0  0  0
   -4.4746   -1.2960    0.2816 O   0  0  0  0  0  0  0  0  0  0  0  0
   -2.5276    0.6894    1.4750 H   0  0  0  0  0  0  0  0  0  0  0  0
   -1.6429   -0.1995   -1.1565 H   0  0  0  0  0  0  0  0  0  0  0  0
   -2.7178   -2.2551   -0.1465 H   0  0  0  0  0  0  0  0  0  0  0  0
   -3.6233   -1.6387   -1.5489 H   0  0  0  0  0  0  0  0  0  0  0  0
   -4.9933   -0.5625   -0.0853 H   0  0  0  0  0  0  0  0  0  0  0  0
   -2.5891    2.0405   -1.5672 N   0  0  0  0  0  0  0  0  0  0  0  0
   -3.1457    3.2880   -2.0365 C   0  0  2  0  0  0  0  0  0  0  0  0
   -4.2159    3.7276   -1.0461 C   0  0  0  0  0  0  0  0  0  0  0  0
   -4.7898    2.9479   -0.2886 O   0  0  0  0  0  0  0  0  0  0  0  0
   -3.7257    3.1439   -3.4349 C   0  0  0  0  0  0  0  0  0  0  0  0
   -1.5965    1.8814   -1.7128 H   0  0  0  0  0  0  0  0  0  0  0  0
   -2.3286    4.0176   -2.0398 H   0  0  0  0  0  0  0  0  0  0  0  0
   -4.5458    2.4169   -3.4514 H   0  0  0  0  0  0  0  0  0  0  0  0
   -4.1215    4.0971   -3.8005 H   0  0  0  0  0  0  0  0  0  0  0  0
   -2.9616    2.7990   -4.1400 H   0  0  0  0  0  0  0  0  0  0  0  0
   -4.4854    5.0860   -1.1376 N   0  0  0  0  0  0  0  0  0  0  0  0
   -5.4715    5.7426   -0.3116 C   0  0  0  0  0  0  0  0  0  0  0  0
   -3.9479    5.6598   -1.7808 H   0  0  0  0  0  0  0  0  0  0  0  0
   -6.4385    5.7576   -0.8358 H   0  0  0  0  0  0  0  0  0  0  0  0
   -5.5774    5.1962    0.6372 H   0  0  0  0  0  0  0  0  0  0  0  0
   -5.1497    6.7743   -0.1066 H   0  0  0  0  0  0  0  0  0  0  0  0
  1  3  1  0  0  0  0
  1  7  1  0  0  0  0
  1  2  2  0  0  0  0
 29 30  1  0  0  0  0
 30 38  1  0  0  0  0
 30 31  2  0  0  0  0
  8  9  1  0  0  0  0
  9 17  1  0  0  0  0
  9 10  2  0  0  0  0
 18 19  1  0  0  0  0
 19 28  1  0  0  0  0
 19 20  2  0  0  0  0
 29 32  1  0  0  0  0
  8 11  1  0  0  0  0
 38 39  1  0  0  0  0
 18 21  1  0  0  0  0
 21 22  1  0  0  0  0
 28 29  1  0  0  0  0
  7  8  1  0  0  0  0
 17 18  1  0  0  0  0
  3  4  1  0  0  0  0
  3  5  1  0  0  0  0
  3  6  1  0  0  0  0
 32 35  1  0  0  0  0
 32 36  1  0  0  0  0
 32 37  1  0  0  0  0
 11 14  1  0  0  0  0
 11 15  1  0  0  0  0
 11 16  1  0  0  0  0
 39 41  1  0  0  0  0
 39 42  1  0  0  0  0
 39 43  1  0  0  0  0
 21 25  1  0  0  0  0
 21 26  1  0  0  0  0
 29 34  1  0  0  0  0
  8 13  1  0  0  0  0
 18 24  1  0  0  0  0
 38 40  1  0  0  0  0
  7 12  1  0  0  0  0
 28 33  1  0  0  0  0
 17 23  1  0  0  0  0
 22 27  1  0  0  0  0
M  END
$$$$

  -OEChem-05262214473D

 43 42  0     1  0  0  0  0  0999 V2000
    0.7424   -1.0926    4.5665 C   0  0  0  0  0  0  0  0  0  0  0  0
    0.1409   -0.5364    5.4779 O   0  0  0  0  0  0  0  0  0  0  0  0
    1.7940   -2.1023    4.8871 C   0  0  0  0  0  0  0  0  0  0  0  0
    2.7935   -1.6502    4.9904 H   0  0  0  0  0  0  0  0  0  0  0  0
    1.6064   -2.6156    5.8438 H   0  0  0  0  0  0  0  0  0  0  0  0
    1.9156   -2.9078    4.1453 H   0  0  0  0  0  0  0  0  0  0  0  0
    0.5488   -0.8838    3.2109 N   0  0  0  0  0  0  0  0  0  0  0  0
   -0.4159    0.0446    2.6829 C   0  0  2  0  0  0  0  0  0  0  0  0
   -0.7551   -0.3867    1.2623 C   0  0  0  0  0  0  0  0  0  0  0  0
   -0.0106   -1.0851    0.5774 O   0  0  0  0  0  0  0  0  0  0  0  0
    0.1168    1.4689    2.7060 C   0  0  0  0  0  0  0  0  0  0  0  0
    1.1183   -1.4145    2.5542 H   0  0  0  0  0  0  0  0  0  0  0  0
   -1.3088   -0.0350    3.3125 H   0  0  0  0  0  0  0  0  0  0  0  0
    1.0116    1.5681    2.0808 H   0  0  0  0  0  0  0  0  0  0  0  0
   -0.6289    2.1775    2.3307 H   0  0  0  0  0  0  0  0  0  0  0  0
    0.3882    1.7670    3.7245 H   0  0  0  0  0  0  0  0  0  0  0  0
   -1.9689    0.1350    0.8298 N   0  0  0  0  0  0  0  0  0  0  0  0
   -2.5039   -0.1183   -0.4830 C   0  0  2  0  0  0  0  0  0  0  0  0
   -3.3418    1.0864   -0.8972 C   0  0  0  0  0  0  0  0  0  0  0  0
   -4.4441    1.3342   -0.4128 O   0  0  0  0  0  0  0  0  0  0  0  0
   -3.3078   -1.4140   -0.5245 C   0  0  0  0  0  0  0  0  0  0  0  0
   -4.4746   -1.2960    0.2816 O   0  0  0  0  0  0  0  0  0  0  0  0
   -2.5276    0.6894    1.4750 H   0  0  0  0  0  0  0  0  0  0  0  0
   -1.6429   -0.1995   -1.1565 H   0  0  0  0  0  0  0  0  0  0  0  0
   -2.7178   -2.2551   -0.1465 H   0  0  0  0  0  0  0  0  0  0  0  0
   -3.6233   -1.6387   -1.5489 H   0  0  0  0  0  0  0  0  0  0  0  0
   -4.9933   -0.5625   -0.0853 H   0  0  0  0  0  0  0  0  0  0  0  0
   -2.6944    1.8738   -1.8388 N   0  0  0  0  0  0  0  0  0  0  0  0
   -3.2670    3.0895   -2.3689 C   0  0  2  0  0  0  0  0  0  0  0  0
   -4.0797    3.7481   -1.2620 C   0  0  0  0  0  0  0  0  0  0  0  0
   -4.5245    3.1294   -0.2974 O   0  0  0  0  0  0  0  0  0  0  0  0
   -4.1342    2.8078   -3.5860 C   0  0  0  0  0  0  0  0  0  0  0  0
   -1.7648    1.6126   -2.1539 H   0  0  0  0  0  0  0  0  0  0  0  0
   -2.4294    3.7397   -2.6441 H   0  0  0  0  0  0  0  0  0  0  0  0
   -4.9787    2.1577   -3.3297 H   0  0  0  0  0  0  0  0  0  0  0  0
   -4.5443    3.7332   -4.0036 H   0  0  0  0  0  0  0  0  0  0  0  0
   -3.5553    2.3072   -4.3696 H   0  0  0  0  0  0  0  0  0  0  0  0
   -4.2866    5.0997   -1.5001 N   0  0  0  0  0  0  0  0  0  0  0  0
   -5.0397    5.9432   -0.6016 C   0  0  0  0  0  0  0  0  0  0  0  0
   -3.8648    5.5336   -2.3159 H   0  0  0  0  0  0  0  0  0  0  0  0
   -6.0927    5.9696   -0.9187 H   0  0  0  0  0  0  0  0  0  0  0  0
   -4.9745    5.5408    0.4201 H   0  0  0  0  0  0  0  0  0  0  0  0
   -4.6253    6.9620   -0.6216 H   0  0  0  0  0  0  0  0  0  0  0  0
  1  3  1  0  0  0  0
  1  7  1  0  0  0  0
  1  2  2  0  0  0  0
 29 30  1  0  0  0  0
 30 38  1  0  0  0  0
 30 31  2  0  0  0  0
  8  9  1  0  0  0  0
  9 17  1  0  0  0  0
  9 10  2  0  0  0  0
 18 19  1  0  0  0  0
 19 28  1  0  0  0  0
 19 20  2  0  0  0  0
 29 32  1  0  0  0  0
  8 11  1  0  0  0  0
 38 39  1  0  0  0  0
 18 21  1  0  0  0  0
 21 22  1  0  0  0  0
 28 29  1  0  0  0  0
  7  8  1  0  0  0  0
 17 18  1  0  0  0  0
  3  4  1  0  0  0  0
  3  5  1  0  0  0  0
  3  6  1  0  0  0  0
 32 35  1  0  0  0  0
 32 36  1  0  0  0  0
 32 37  1  0  0  0  0
 11 14  1  0  0  0  0
 11 15  1  0  0  0  0
 11 16  1  0  0  0  0
 39 41  1  0  0  0  0
 39 42  1  0  0  0  0
 39 43  1  0  0  0  0
 21 25  1  0  0  0  0
 21 26  1  0  0  0  0
 29 34  1  0  0  0  0
  8 13  1  0  0  0  0
 18 24  1  0  0  0  0
 38 40  1  0  0  0  0
  7 12  1  0  0  0  0
 28 33  1  0  0  0  0
 17 23  1  0  0  0  0
 22 27  1  0  0  0  0
M  END
$$$$

  -OEChem-05262214473D

 43 42  0     1  0  0  0  0  0999 V2000
    0.7424   -1.0926    4.5665 C   0  0  0  0  0  0  0  0  0  0  0  0
    0.1409   -0.5364    5.4779 O   0  0  0  0  0  0  0  0  0  0  0  0
    1.7940   -2.1023    4.8871 C   0  0  0  0  0  0  0  0  0  0  0  0
    2.7935   -1.6502    4.9904 H   0  0  0  0  0  0  0  0  0  0  0  0
    1.6064   -2.6156    5.8438 H   0  0  0  0  0  0  0  0  0  0  0  0
    1.9156   -2.9078    4.1453 H   0  0  0  0  0  0  0  0  0  0  0  0
    0.5488   -0.8838    3.2109 N   0  0  0  0  0  0  0  0  0  0  0  0
   -0.4159    0.0446    2.6829 C   0  0  2  0  0  0  0  0  0  0  0  0
   -0.7551   -0.3867    1.2623 C   0  0  0  0  0  0  0  0  0  0  0  0
   -0.0106   -1.0851    0.5774 O   0  0  0  0  0  0  0  0  0  0  0  0
    0.1168    1.4689    2.7060 C   0  0  0  0  0  0  0  0  0  0  0  0
    1.1183   -1.4145    2.5542 H   0  0  0  0  0  0  0  0  0  0  0  0
   -1.3088   -0.0350    3.3125 H   0  0  0  0  0  0  0  0  0  0  0  0
    1.0116    1.5681    2.0808 H   0  0  0  0  0  0  0  0  0  0  0  0
   -0.6289    2.1775    2.3307 H   0  0  0  0  0  0  0  0  0  0  0  0
    0.3882    1.7670    3.7245 H   0  0  0  0  0  0  0  0  0  0  0  0
   -1.9689    0.1350    0.8298 N   0  0  0  0  0  0  0  0  0  0  0  0
   -2.5039   -0.1183   -0.4830 C   0  0  2  0  0  0  0  0  0  0  0  0
   -3.3418    1.0864   -0.8972 C   0  0  0  0  0  0  0  0  0  0  0  0
   -4.3026    1.4902   -0.2453 O   0  0  0  0  0  0  0  0  0  0  0  0
   -3.3078   -1.4140   -0.5245 C   0  0  0  0  0  0  0  0  0  0  0  0
   -4.4746   -1.2960    0.2816 O   0  0  0  0  0  0  0  0  0  0  0  0
   -2.5276    0.6894    1.4750 H   0  0  0  0  0  0  0  0  0  0  0  0
   -1.6429   -0.1995   -1.1565 H   0  0  0  0  0  0  0  0  0  0  0  0
   -2.7178   -2.2551   -0.1465 H   0  0  0  0  0  0  0  0  0  0  0  0
   -3.6233   -1.6387   -1.5489 H   0  0  0  0  0  0  0  0  0  0  0  0
   -4.9933   -0.5625   -0.0853 H   0  0  0  0  0  0  0  0  0  0  0  0
   -2.8635    1.6816   -2.0559 N   0  0  0  0  0  0  0  0  0  0  0  0
   -3.4660    2.8589   -2.6369 C   0  0  2  0  0  0  0  0  0  0  0  0
   -3.9909    3.7276   -1.5014 C   0  0  0  0  0  0  0  0  0  0  0  0
   -4.2573    3.2848   -0.3860 O   0  0  0  0  0  0  0  0  0  0  0  0
   -4.5833    2.4905   -3.6005 C   0  0  0  0  0  0  0  0  0  0  0  0
   -2.0365    1.3022   -2.5074 H   0  0  0  0  0  0  0  0  0  0  0  0
   -2.6700    3.3924   -3.1677 H   0  0  0  0  0  0  0  0  0  0  0  0
   -5.3901    1.9551   -3.0867 H   0  0  0  0  0  0  0  0  0  0  0  0
   -5.0199    3.3826   -4.0616 H   0  0  0  0  0  0  0  0  0  0  0  0
   -4.2102    1.8413   -4.4000 H   0  0  0  0  0  0  0  0  0  0  0  0
   -4.1677    5.0473   -1.8928 N   0  0  0  0  0  0  0  0  0  0  0  0
   -4.6678    6.0654   -0.9986 C   0  0  0  0  0  0  0  0  0  0  0  0
   -3.9029    5.3298   -2.8318 H   0  0  0  0  0  0  0  0  0  0  0  0
   -5.7607    6.1382   -1.0997 H   0  0  0  0  0  0  0  0  0  0  0  0
   -4.4123    5.8004    0.0380 H   0  0  0  0  0  0  0  0  0  0  0  0
   -4.2109    7.0332   -1.2529 H   0  0  0  0  0  0  0  0  0  0  0  0
  1  3  1  0  0  0  0
  1  7  1  0  0  0  0
  1  2  2  0  0  0  0
 29 30  1  0  0  0  0
 30 38  1  0  0  0  0
 30 31  2  0  0  0  0
  8  9  1  0  0  0  0
  9 17  1  0  0  0  0
  9 10  2  0  0  0  0
 18 19  1  0  0  0  0
 19 28  1  0  0  0  0
 19 20  2  0  0  0  0
 29 32  1  0  0  0  0
  8 11  1  0  0  0  0
 38 39  1  0  0  0  0
 18 21  1  0  0  0  0
 21 22  1  0  0  0  0
 28 29  1  0  0  0  0
  7  8  1  0  0  0  0
 17 18  1  0  0  0  0
  3  4  1  0  0  0  0
  3  5  1  0  0  0  0
  3  6  1  0  0  0  0
 32 35  1  0  0  0  0
 32 36  1  0  0  0  0
 32 37  1  0  0  0  0
 11 14  1  0  0  0  0
 11 15  1  0  0  0  0
 11 16  1  0  0  0  0
 39 41  1  0  0  0  0
 39 42  1  0  0  0  0
 39 43  1  0  0  0  0
 21 25  1  0  0  0  0
 21 26  1  0  0  0  0
 29 34  1  0  0  0  0
  8 13  1  0  0  0  0
 18 24  1  0  0  0  0
 38 40  1  0  0  0  0
  7 12  1  0  0  0  0
 28 33  1  0  0  0  0
 17 23  1  0  0  0  0
 22 27  1  0  0  0  0
M  END
$$$$

  -OEChem-05262214473D

 43 42  0     1  0  0  0  0  0999 V2000
    0.7424   -1.0926    4.5665 C   0  0  0  0  0  0  0  0  0  0  0  0
    0.1409   -0.5364    5.4779 O   0  0  0  0  0  0  0  0  0  0  0  0
    1.7940   -2.1023    4.8871 C   0  0  0  0  0  0  0  0  0  0  0  0
    2.7935   -1.6502    4.9904 H   0  0  0  0  0  0  0  0  0  0  0  0
    1.6064   -2.6156    5.8438 H   0  0  0  0  0  0  0  0  0  0  0  0
    1.9156   -2.9078    4.1453 H   0  0  0  0  0  0  0  0  0  0  0  0
    0.5488   -0.8838    3.2109 N   0  0  0  0  0  0  0  0  0  0  0  0
   -0.4159    0.0446    2.6829 C   0  0  2  0  0  0  0  0  0  0  0  0
   -0.7551   -0.3867    1.2623 C   0  0  0  0  0  0  0  0  0  0  0  0
   -0.0106   -1.0851    0.5774 O   0  0  0  0  0  0  0  0  0  0  0  0
    0.1168    1.4689    2.7060 C   0  0  0  0  0  0  0  0  0  0  0  0
    1.1183   -1.4145    2.5542 H   0  0  0  0  0  0  0  0  0  0  0  0
   -1.3088   -0.0350    3.3125 H   0  0  0  0  0  0  0  0  0  0  0  0
    1.0116    1.5681    2.0808 H   0  0  0  0  0  0  0  0  0  0  0  0
   -0.6289    2.1775    2.3307 H   0  0  0  0  0  0  0  0  0  0  0  0
    0.3882    1.7670    3.7245 H   0  0  0  0  0  0  0  0  0  0  0  0
   -1.9689    0.1350    0.8298 N   0  0  0  0  0  0  0  0  0  0  0  0
   -2.5039   -0.1183   -0.4830 C   0  0  2  0  0  0  0  0  0  0  0  0
   -3.3418    1.0864   -0.8972 C   0  0  0  0  0  0  0  0  0  0  0  0
   -4.1207    1.6547   -0.1347 O   0  0  0  0  0  0  0  0  0  0  0  0
   -3.3078   -1.4140   -0.5245 C   0  0  0  0  0  0  0  0  0  0  0  0
   -4.4746   -1.2960    0.2816 O   0  0  0  0  0  0  0  0  0  0  0  0
   -2.5276    0.6894    1.4750 H   0  0  0  0  0  0  0  0  0  0  0  0
   -1.6429   -0.1995   -1.1565 H   0  0  0  0  0  0  0  0  0  0  0  0
   -2.7178   -2.2551   -0.1465 H   0  0  0  0  0  0  0  0  0  0  0  0
   -3.6233   -1.6387   -1.5489 H   0  0  0  0  0  0  0  0  0  0  0  0
   -4.9933   -0.5625   -0.0853 H   0  0  0  0  0  0  0  0  0  0  0  0
   -3.0846    1.4770   -2.2037 N   0  0  0  0  0  0  0  0  0  0  0  0
   -3.7292    2.6121   -2.8222 C   0  0  2  0  0  0  0  0  0  0  0  0
   -3.9555    3.6675   -1.7478 C   0  0  0  0  0  0  0  0  0  0  0  0
   -4.0063    3.4035   -0.5483 O   0  0  0  0  0  0  0  0  0  0  0  0
   -5.0424    2.2135   -3.4776 C   0  0  0  0  0  0  0  0  0  0  0  0
   -2.3930    0.9711   -2.7491 H   0  0  0  0  0  0  0  0  0  0  0  0
   -3.0338    2.9994   -3.5748 H   0  0  0  0  0  0  0  0  0  0  0  0
   -5.7520    1.8229   -2.7391 H   0  0  0  0  0  0  0  0  0  0  0  0
   -5.5157    3.0691   -3.9704 H   0  0  0  0  0  0  0  0  0  0  0  0
   -4.8817    1.4330   -4.2292 H   0  0  0  0  0  0  0  0  0  0  0  0
   -4.1368    4.9326   -2.2890 N   0  0  0  0  0  0  0  0  0  0  0  0
   -4.3811    6.1008   -1.4756 C   0  0  0  0  0  0  0  0  0  0  0  0
   -4.0594    5.0622   -3.2934 H   0  0  0  0  0  0  0  0  0  0  0  0
   -5.4652    6.2521   -1.3664 H   0  0  0  0  0  0  0  0  0  0  0  0
   -3.9292    5.9574   -0.4830 H   0  0  0  0  0  0  0  0  0  0  0  0
   -3.9346    6.9830   -1.9577 H   0  0  0  0  0  0  0  0  0  0  0  0
  1  3  1  0  0  0  0
  1  7  1  0  0  0  0
  1  2  2  0  0  0  0
 29 30  1  0  0  0  0
 30 38  1  0  0  0  0
 30 31  2  0  0  0  0
  8  9  1  0  0  0  0
  9 17  1  0  0  0  0
  9 10  2  0  0  0  0
 18 19  1  0  0  0  0
 19 28  1  0  0  0  0
 19 20  2  0  0  0  0
 29 32  1  0  0  0  0
  8 11  1  0  0  0  0
 38 39  1  0  0  0  0
 18 21  1  0  0  0  0
 21 22  1  0  0  0  0
 28 29  1  0  0  0  0
  7  8  1  0  0  0  0
 17 18  1  0  0  0  0
  3  4  1  0  0  0  0
  3  5  1  0  0  0  0
  3  6  1  0  0  0  0
 32 35  1  0  0  0  0
 32 36  1  0  0  0  0
 32 37  1  0  0  0  0
 11 14  1  0  0  0  0
 11 15  1  0  0  0  0
 11 16  1  0  0  0  0
 39 41  1  0  0  0  0
 39 42  1  0  0  0  0
 39 43  1  0  0  0  0
 21 25  1  0  0  0  0
 21 26  1  0  0  0  0
 29 34  1  0  0  0  0
  8 13  1  0  0  0  0
 18 24  1  0  0  0  0
 38 40  1  0  0  0  0
  7 12  1  0  0  0  0
 28 33  1  0  0  0  0
 17 23  1  0  0  0  0
 22 27  1  0  0  0  0
M  END
$$$$

  -OEChem-05262214473D

 43 42  0     1  0  0  0  0  0999 V2000
    0.7424   -1.0926    4.5665 C   0  0  0  0  0  0  0  0  0  0  0  0
    0.1409   -0.5364    5.4779 O   0  0  0  0  0  0  0  0  0  0  0  0
    1.7940   -2.1023    4.8871 C   0  0  0  0  0  0  0  0  0  0  0  0
    2.7935   -1.6502    4.9904 H   0  0  0  0  0  0  0  0  0  0  0  0
    1.6064   -2.6156    5.8438 H   0  0  0  0  0  0  0  0  0  0  0  0
    1.9156   -2.9078    4.1453 H   0  0  0  0  0  0  0  0  0  0  0  0
    0.5488   -0.8838    3.2109 N   0  0  0  0  0  0  0  0  0  0  0  0
   -0.4159    0.0446    2.6829 C   0  0  2  0  0  0  0  0  0  0  0  0
   -0.7551   -0.3867    1.2623 C   0  0  0  0  0  0  0  0  0  0  0  0
   -0.0106   -1.0851    0.5774 O   0  0  0  0  0  0  0  0  0  0  0  0
    0.1168    1.4689    2.7060 C   0  0  0  0  0  0  0  0  0  0  0  0
    1.1183   -1.4145    2.5542 H   0  0  0  0  0  0  0  0  0  0  0  0
   -1.3088   -0.0350    3.3125 H   0  0  0  0  0  0  0  0  0  0  0  0
    1.0116    1.5681    2.0808 H   0  0  0  0  0  0  0  0  0  0  0  0
   -0.6289    2.1775    2.3307 H   0  0  0  0  0  0  0  0  0  0  0  0
    0.3882    1.7670    3.7245 H   0  0  0  0  0  0  0  0  0  0  0  0
   -1.9689    0.1350    0.8298 N   0  0  0  0  0  0  0  0  0  0  0  0
   -2.5039   -0.1183   -0.4830 C   0  0  2  0  0  0  0  0  0  0  0  0
   -3.3418    1.0864   -0.8972 C   0  0  0  0  0  0  0  0  0  0  0  0
   -3.9108    1.8166   -0.0884 O   0  0  0  0  0  0  0  0  0  0  0  0
   -3.3078   -1.4140   -0.5245 C   0  0  0  0  0  0  0  0  0  0  0  0
   -4.4746   -1.2960    0.2816 O   0  0  0  0  0  0  0  0  0  0  0  0
   -2.5276    0.6894    1.4750 H   0  0  0  0  0  0  0  0  0  0  0  0
   -1.6429   -0.1995   -1.1565 H   0  0  0  0  0  0  0  0  0  0  0  0
   -2.7178   -2.2551   -0.1465 H   0  0  0  0  0  0  0  0  0  0  0  0
   -3.6233   -1.6387   -1.5489 H   0  0  0  0  0  0  0  0  0  0  0  0
   -4.9933   -0.5625   -0.0853 H   0  0  0  0  0  0  0  0  0  0  0  0
   -3.3429    1.2738   -2.2722 N   0  0  0  0  0  0  0  0  0  0  0  0
   -4.0388    2.3658   -2.9124 C   0  0  2  0  0  0  0  0  0  0  0  0
   -3.9759    3.5719   -1.9846 C   0  0  0  0  0  0  0  0  0  0  0  0
   -3.7888    3.4774   -0.7733 O   0  0  0  0  0  0  0  0  0  0  0  0
   -5.4802    1.9956   -3.2256 C   0  0  0  0  0  0  0  0  0  0  0  0
   -2.8101    0.6420   -2.8626 H   0  0  0  0  0  0  0  0  0  0  0  0
   -3.4961    2.5875   -3.8378 H   0  0  0  0  0  0  0  0  0  0  0  0
   -6.0398    1.7701   -2.3105 H   0  0  0  0  0  0  0  0  0  0  0  0
   -5.9980    2.8141   -3.7364 H   0  0  0  0  0  0  0  0  0  0  0  0
   -5.5242    1.1101   -3.8688 H   0  0  0  0  0  0  0  0  0  0  0  0
   -4.1961    4.7633   -2.6616 N   0  0  0  0  0  0  0  0  0  0  0  0
   -4.1992    6.0470   -1.9999 C   0  0  0  0  0  0  0  0  0  0  0  0
   -4.3238    4.7491   -3.6692 H   0  0  0  0  0  0  0  0  0  0  0  0
   -5.2262    6.3034   -1.7006 H   0  0  0  0  0  0  0  0  0  0  0  0
   -3.5580    6.0009   -1.1073 H   0  0  0  0  0  0  0  0  0  0  0  0
   -3.8155    6.8149   -2.6877 H   0  0  0  0  0  0  0  0  0  0  0  0
  1  3  1  0  0  0  0
  1  7  1  0  0  0  0
  1  2  2  0  0  0  0
 29 30  1  0  0  0  0
 30 38  1  0  0  0  0
 30 31  2  0  0  0  0
  8  9  1  0  0  0  0
  9 17  1  0  0  0  0
  9 10  2  0  0  0  0
 18 19  1  0  0  0  0
 19 28  1  0  0  0  0
 19 20  2  0  0  0  0
 29 32  1  0  0  0  0
  8 11  1  0  0  0  0
 38 39  1  0  0  0  0
 18 21  1  0  0  0  0
 21 22  1  0  0  0  0
 28 29  1  0  0  0  0
  7  8  1  0  0  0  0
 17 18  1  0  0  0  0
  3  4  1  0  0  0  0
  3  5  1  0  0  0  0
  3  6  1  0  0  0  0
 32 35  1  0  0  0  0
 32 36  1  0  0  0  0
 32 37  1  0  0  0  0
 11 14  1  0  0  0  0
 11 15  1  0  0  0  0
 11 16  1  0  0  0  0
 39 41  1  0  0  0  0
 39 42  1  0  0  0  0
 39 43  1  0  0  0  0
 21 25  1  0  0  0  0
 21 26  1  0  0  0  0
 29 34  1  0  0  0  0
  8 13  1  0  0  0  0
 18 24  1  0  0  0  0
 38 40  1  0  0  0  0
  7 12  1  0  0  0  0
 28 33  1  0  0  0  0
 17 23  1  0  0  0  0
 22 27  1  0  0  0  0
M  END
$$$$

  -OEChem-05262214473D

 43 42  0     1  0  0  0  0  0999 V2000
    0.7424   -1.0926    4.5665 C   0  0  0  0  0  0  0  0  0  0  0  0
    0.1409   -0.5364    5.4779 O   0  0  0  0  0  0  0  0  0  0  0  0
    1.7940   -2.1023    4.8871 C   0  0  0  0  0  0  0  0  0  0  0  0
    2.7935   -1.6502    4.9904 H   0  0  0  0  0  0  0  0  0  0  0  0
    1.6064   -2.6156    5.8438 H   0  0  0  0  0  0  0  0  0  0  0  0
    1.9156   -2.9078    4.1453 H   0  0  0  0  0  0  0  0  0  0  0  0
    0.5488   -0.8838    3.2109 N   0  0  0  0  0  0  0  0  0  0  0  0
   -0.4159    0.0446    2.6829 C   0  0  2  0  0  0  0  0  0  0  0  0
   -0.7551   -0.3867    1.2623 C   0  0  0  0  0  0  0  0  0  0  0  0
   -0.0106   -1.0851    0.5774 O   0  0  0  0  0  0  0  0  0  0  0  0
    0.1168    1.4689    2.7060 C   0  0  0  0  0  0  0  0  0  0  0  0
    1.1183   -1.4145    2.5542 H   0  0  0  0  0  0  0  0  0  0  0  0
   -1.3088   -0.0350    3.3125 H   0  0  0  0  0  0  0  0  0  0  0  0
    1.0116    1.5681    2.0808 H   0  0  0  0  0  0  0  0  0  0  0  0
   -0.6289    2.1775    2.3307 H   0  0  0  0  0  0  0  0  0  0  0  0
    0.3882    1.7670    3.7245 H   0  0  0  0  0  0  0  0  0  0  0  0
   -1.9689    0.1350    0.8298 N   0  0  0  0  0  0  0  0  0  0  0  0
   -2.5039   -0.1183   -0.4830 C   0  0  2  0  0  0  0  0  0  0  0  0
   -3.3418    1.0864   -0.8972 C   0  0  0  0  0  0  0  0  0  0  0  0
   -3.6872    1.9648   -0.1096 O   0  0  0  0  0  0  0  0  0  0  0  0
   -3.3078   -1.4140   -0.5245 C   0  0  0  0  0  0  0  0  0  0  0  0
   -4.4746   -1.2960    0.2816 O   0  0  0  0  0  0  0  0  0  0  0  0
   -2.5276    0.6894    1.4750 H   0  0  0  0  0  0  0  0  0  0  0  0
   -1.6429   -0.1995   -1.1565 H   0  0  0  0  0  0  0  0  0  0  0  0
   -2.7178   -2.2551   -0.1465 H   0  0  0  0  0  0  0  0  0  0  0  0
   -3.6233   -1.6387   -1.5489 H   0  0  0  0  0  0  0  0  0  0  0  0
   -4.9933   -0.5625   -0.0853 H   0  0  0  0  0  0  0  0  0  0  0  0
   -3.6206    1.0860   -2.2566 N   0  0  0  0  0  0  0  0  0  0  0  0
   -4.3735    2.1369   -2.9011 C   0  0  2  0  0  0  0  0  0  0  0  0
   -4.0507    3.4474   -2.1955 C   0  0  0  0  0  0  0  0  0  0  0  0
   -3.6195    3.5016   -1.0456 O   0  0  0  0  0  0  0  0  0  0  0  0
   -5.8668    1.8518   -2.8616 C   0  0  0  0  0  0  0  0  0  0  0  0
   -3.2594    0.3373   -2.8401 H   0  0  0  0  0  0  0  0  0  0  0  0
   -4.0254    2.1847   -3.9387 H   0  0  0  0  0  0  0  0  0  0  0  0
   -6.2339    1.8003   -1.8301 H   0  0  0  0  0  0  0  0  0  0  0  0
   -6.4340    2.6350   -3.3755 H   0  0  0  0  0  0  0  0  0  0  0  0
   -6.0937    0.8946   -3.3433 H   0  0  0  0  0  0  0  0  0  0  0  0
   -4.3415    4.5508   -2.9854 N   0  0  0  0  0  0  0  0  0  0  0  0
   -4.1346    5.9077   -2.5359 C   0  0  0  0  0  0  0  0  0  0  0  0
   -4.6781    4.4118   -3.9336 H   0  0  0  0  0  0  0  0  0  0  0  0
   -5.0602    6.2885   -2.0796 H   0  0  0  0  0  0  0  0  0  0  0  0
   -3.3241    5.9280   -1.7924 H   0  0  0  0  0  0  0  0  0  0  0  0
   -3.8615    6.5403   -3.3934 H   0  0  0  0  0  0  0  0  0  0  0  0
  1  3  1  0  0  0  0
  1  7  1  0  0  0  0
  1  2  2  0  0  0  0
 29 30  1  0  0  0  0
 30 38  1  0  0  0  0
 30 31  2  0  0  0  0
  8  9  1  0  0  0  0
  9 17  1  0  0  0  0
  9 10  2  0  0  0  0
 18 19  1  0  0  0  0
 19 28  1  0  0  0  0
 19 20  2  0  0  0  0
 29 32  1  0  0  0  0
  8 11  1  0  0  0  0
 38 39  1  0  0  0  0
 18 21  1  0  0  0  0
 21 22  1  0  0  0  0
 28 29  1  0  0  0  0
  7  8  1  0  0  0  0
 17 18  1  0  0  0  0
  3  4  1  0  0  0  0
  3  5  1  0  0  0  0
  3  6  1  0  0  0  0
 32 35  1  0  0  0  0
 32 36  1  0  0  0  0
 32 37  1  0  0  0  0
 11 14  1  0  0  0  0
 11 15  1  0  0  0  0
 11 16  1  0  0  0  0
 39 41  1  0  0  0  0
 39 42  1  0  0  0  0
 39 43  1  0  0  0  0
 21 25  1  0  0  0  0
 21 26  1  0  0  0  0
 29 34  1  0  0  0  0
  8 13  1  0  0  0  0
 18 24  1  0  0  0  0
 38 40  1  0  0  0  0
  7 12  1  0  0  0  0
 28 33  1  0  0  0  0
 17 23  1  0  0  0  0
 22 27  1  0  0  0  0
M  END
$$$$

  -OEChem-05262214473D

 43 42  0     1  0  0  0  0  0999 V2000
    0.7424   -1.0926    4.5665 C   0  0  0  0  0  0  0  0  0  0  0  0
    0.1409   -0.5364    5.4779 O   0  0  0  0  0  0  0  0  0  0  0  0
    1.7940   -2.1023    4.8871 C   0  0  0  0  0  0  0  0  0  0  0  0
    2.7935   -1.6502    4.9904 H   0  0  0  0  0  0  0  0  0  0  0  0
    1.6064   -2.6156    5.8438 H   0  0  0  0  0  0  0  0  0  0  0  0
    1.9156   -2.9078    4.1453 H   0  0  0  0  0  0  0  0  0  0  0  0
    0.5488   -0.8838    3.2109 N   0  0  0  0  0  0  0  0  0  0  0  0
   -0.4159    0.0446    2.6829 C   0  0  2  0  0  0  0  0  0  0  0  0
   -0.7551   -0.3867    1.2623 C   0  0  0  0  0  0  0  0  0  0  0  0
   -0.0106   -1.0851    0.5774 O   0  0  0  0  0  0  0  0  0  0  0  0
    0.1168    1.4689    2.7060 C   0  0  0  0  0  0  0  0  0  0  0  0
    1.1183   -1.4145    2.5542 H   0  0  0  0  0  0  0  0  0  0  0  0
   -1.3088   -0.0350    3.3125 H   0  0  0  0  0  0  0  0  0  0  0  0
    1.0116    1.5681    2.0808 H   0  0  0  0  0  0  0  0  0  0  0  0
   -0.6289    2.1775    2.3307 H   0  0  0  0  0  0  0  0  0  0  0  0
    0.3882    1.7670    3.7245 H   0  0  0  0  0  0  0  0  0  0  0  0
   -1.9689    0.1350    0.8298 N   0  0  0  0  0  0  0  0  0  0  0  0
   -2.5039   -0.1183   -0.4830 C   0  0  2  0  0  0  0  0  0  0  0  0
   -3.0162    1.2004   -1.0519 C   0  0  0  0  0  0  0  0  0  0  0  0
   -2.9209    2.2700   -0.4537 O   0  0  0  0  0  0  0  0  0  0  0  0
   -3.5913   -1.1875   -0.4527 C   0  0  0  0  0  0  0  0  0  0  0  0
   -4.7232   -0.7188    0.2715 O   0  0  0  0  0  0  0  0  0  0  0  0
   -2.5276    0.6894    1.4750 H   0  0  0  0  0  0  0  0  0  0  0  0
   -1.6647   -0.4665   -1.0961 H   0  0  0  0  0  0  0  0  0  0  0  0
   -3.2319   -2.1004    0.0331 H   0  0  0  0  0  0  0  0  0  0  0  0
   -3.9163   -1.4352   -1.4688 H   0  0  0  0  0  0  0  0  0  0  0  0
   -5.0395    0.0744   -0.1894 H   0  0  0  0  0  0  0  0  0  0  0  0
   -3.5522    1.0477   -2.3227 N   0  0  0  0  0  0  0  0  0  0  0  0
   -4.0770    2.1543   -3.0886 C   0  0  2  0  0  0  0  0  0  0  0  0
   -3.2471    3.3886   -2.7609 C   0  0  0  0  0  0  0  0  0  0  0  0
   -2.5953    3.5030   -1.7249 O   0  0  0  0  0  0  0  0  0  0  0  0
   -5.5476    2.3912   -2.7823 C   0  0  0  0  0  0  0  0  0  0  0  0
   -3.5532    0.1296   -2.7572 H   0  0  0  0  0  0  0  0  0  0  0  0
   -3.9480    1.8968   -4.1455 H   0  0  0  0  0  0  0  0  0  0  0  0
   -5.6966    2.6504   -1.7277 H   0  0  0  0  0  0  0  0  0  0  0  0
   -5.9512    3.2118   -3.3845 H   0  0  0  0  0  0  0  0  0  0  0  0
   -6.1387    1.4928   -2.9904 H   0  0  0  0  0  0  0  0  0  0  0  0
   -3.3543    4.3649   -3.7414 N   0  0  0  0  0  0  0  0  0  0  0  0
   -2.6709    5.6344   -3.6555 C   0  0  0  0  0  0  0  0  0  0  0  0
   -3.9017    4.1769   -4.5761 H   0  0  0  0  0  0  0  0  0  0  0  0
   -3.3310    6.3754   -3.1810 H   0  0  0  0  0  0  0  0  0  0  0  0
   -1.7572    5.5189   -3.0539 H   0  0  0  0  0  0  0  0  0  0  0  0
   -2.4035    5.9759   -4.6664 H   0  0  0  0  0  0  0  0  0  0  0  0
  1  3  1  0  0  0  0
  1  7  1  0  0  0  0
  1  2  2  0  0  0  0
 29 30  1  0  0  0  0
 30 38  1  0  0  0  0
 30 31  2  0  0  0  0
  8  9  1  0  0  0  0
  9 17  1  0  0  0  0
  9 10  2  0  0  0  0
 18 19  1  0  0  0  0
 19 28  1  0  0  0  0
 19 20  2  0  0  0  0
 29 32  1  0  0  0  0
  8 11  1  0  0  0  0
 38 39  1  0  0  0  0
 18 21  1  0  0  0  0
 21 22  1  0  0  0  0
 28 29  1  0  0  0  0
  7  8  1  0  0  0  0
 17 18  1  0  0  0  0
  3  4  1  0  0  0  0
  3  5  1  0  0  0  0
  3  6  1  0  0  0  0
 32 35  1  0  0  0  0
 32 36  1  0  0  0  0
 32 37  1  0  0  0  0
 11 14  1  0  0  0  0
 11 15  1  0  0  0  0
 11 16  1  0  0  0  0
 39 41  1  0  0  0  0
 39 42  1  0  0  0  0
 39 43  1  0  0  0  0
 21 25  1  0  0  0  0
 21 26  1  0  0  0  0
 29 34  1  0  0  0  0
  8 13  1  0  0  0  0
 18 24  1  0  0  0  0
 38 40  1  0  0  0  0
  7 12  1  0  0  0  0
 28 33  1  0  0  0  0
 17 23  1  0  0  0  0
 22 27  1  0  0  0  0
M  END
$$$$

  -OEChem-05262214473D

 43 42  0     1  0  0  0  0  0999 V2000
    0.7424   -1.0926    4.5665 C   0  0  0  0  0  0  0  0  0  0  0  0
    0.1409   -0.5364    5.4779 O   0  0  0  0  0  0  0  0  0  0  0  0
    1.7940   -2.1023    4.8871 C   0  0  0  0  0  0  0  0  0  0  0  0
    2.7935   -1.6502    4.9904 H   0  0  0  0  0  0  0  0  0  0  0  0
    1.6064   -2.6156    5.8438 H   0  0  0  0  0  0  0  0  0  0  0  0
    1.9156   -2.9078    4.1453 H   0  0  0  0  0  0  0  0  0  0  0  0
    0.5488   -0.8838    3.2109 N   0  0  0  0  0  0  0  0  0  0  0  0
   -0.4159    0.0446    2.6829 C   0  0  2  0  0  0  0  0  0  0  0  0
   -0.7551   -0.3867    1.2623 C   0  0  0  0  0  0  0  0  0  0  0  0
   -0.0106   -1.0851    0.5774 O   0  0  0  0  0  0  0  0  0  0  0  0
    0.1168    1.4689    2.7060 C   0  0  0  0  0  0  0  0  0  0  0  0
    1.1183   -1.4145    2.5542 H   0  0  0  0  0  0  0  0  0  0  0  0
   -1.3088   -0.0350    3.3125 H   0  0  0  0  0  0  0  0  0  0  0  0
    1.0116    1.5681    2.0808 H   0  0  0  0  0  0  0  0  0  0  0  0
   -0.6289    2.1775    2.3307 H   0  0  0  0  0  0  0  0  0  0  0  0
    0.3882    1.7670    3.7245 H   0  0  0  0  0  0  0  0  0  0  0  0
   -1.9689    0.1350    0.8298 N   0  0  0  0  0  0  0  0  0  0  0  0
   -2.5039   -0.1183   -0.4830 C   0  0  2  0  0  0  0  0  0  0  0  0
   -3.0162    1.2004   -1.0519 C   0  0  0  0  0  0  0  0  0  0  0  0
   -2.6946    2.2961   -0.5969 O   0  0  0  0  0  0  0  0  0  0  0  0
   -3.5913   -1.1875   -0.4527 C   0  0  0  0  0  0  0  0  0  0  0  0
   -4.7232   -0.7188    0.2715 O   0  0  0  0  0  0  0  0  0  0  0  0
   -2.5276    0.6894    1.4750 H   0  0  0  0  0  0  0  0  0  0  0  0
   -1.6647   -0.4665   -1.0961 H   0  0  0  0  0  0  0  0  0  0  0  0
   -3.2319   -2.1004    0.0331 H   0  0  0  0  0  0  0  0  0  0  0  0
   -3.9163   -1.4352   -1.4688 H   0  0  0  0  0  0  0  0  0  0  0  0
   -5.0395    0.0744   -0.1894 H   0  0  0  0  0  0  0  0  0  0  0  0
   -3.8391    1.0096   -2.1528 N   0  0  0  0  0  0  0  0  0  0  0  0
   -4.4269    2.1044   -2.8894 C   0  0  2  0  0  0  0  0  0  0  0  0
   -3.4403    3.2645   -2.8744 C   0  0  0  0  0  0  0  0  0  0  0  0
   -2.5621    3.3873   -2.0231 O   0  0  0  0  0  0  0  0  0  0  0  0
   -5.7626    2.5190   -2.2923 C   0  0  0  0  0  0  0  0  0  0  0  0
   -4.0188    0.0664   -2.4844 H   0  0  0  0  0  0  0  0  0  0  0  0
   -4.5652    1.7551   -3.9184 H   0  0  0  0  0  0  0  0  0  0  0  0
   -5.6441    2.8720   -1.2614 H   0  0  0  0  0  0  0  0  0  0  0  0
   -6.2203    3.3298   -2.8687 H   0  0  0  0  0  0  0  0  0  0  0  0
   -6.4612    1.6754   -2.2765 H   0  0  0  0  0  0  0  0  0  0  0  0
   -3.6833    4.1694   -3.8982 N   0  0  0  0  0  0  0  0  0  0  0  0
   -2.8910    5.3618   -4.0893 C   0  0  0  0  0  0  0  0  0  0  0  0
   -4.4209    3.9779   -4.5698 H   0  0  0  0  0  0  0  0  0  0  0  0
   -3.3587    6.2027   -3.5563 H   0  0  0  0  0  0  0  0  0  0  0  0
   -1.8777    5.1957   -3.6946 H   0  0  0  0  0  0  0  0  0  0  0  0
   -2.8327    5.5951   -5.1627 H   0  0  0  0  0  0  0  0  0  0  0  0
  1  3  1  0  0  0  0
  1  7  1  0  0  0  0
  1  2  2  0  0  0  0
 29 30  1  0  0  0  0
 30 38  1  0  0  0  0
 30 31  2  0  0  0  0
  8  9  1  0  0  0  0
  9 17  1  0  0  0  0
  9 10  2  0  0  0  0
 18 19  1  0  0  0  0
 19 28  1  0  0  0  0
 19 20  2  0  0  0  0
 29 32  1  0  0  0  0
  8 11  1  0  0  0  0
 38 39  1  0  0  0  0
 18 21  1  0  0  0  0
 21 22  1  0  0  0  0
 28 29  1  0  0  0  0
  7  8  1  0  0  0  0
 17 18  1  0  0  0  0
  3  4  1  0  0  0  0
  3  5  1  0  0  0  0
  3  6  1  0  0  0  0
 32 35  1  0  0  0  0
 32 36  1  0  0  0  0
 32 37  1  0  0  0  0
 11 14  1  0  0  0  0
 11 15  1  0  0  0  0
 11 16  1  0  0  0  0
 39 41  1  0  0  0  0
 39 42  1  0  0  0  0
 39 43  1  0  0  0  0
 21 25  1  0  0  0  0
 21 26  1  0  0  0  0
 29 34  1  0  0  0  0
  8 13  1  0  0  0  0
 18 24  1  0  0  0  0
 38 40  1  0  0  0  0
  7 12  1  0  0  0  0
 28 33  1  0  0  0  0
 17 23  1  0  0  0  0
 22 27  1  0  0  0  0
M  END
$$$$

  -OEChem-05262214473D

 43 42  0     1  0  0  0  0  0999 V2000
    0.7424   -1.0926    4.5665 C   0  0  0  0  0  0  0  0  0  0  0  0
    0.1409   -0.5364    5.4779 O   0  0  0  0  0  0  0  0  0  0  0  0
    1.7940   -2.1023    4.8871 C   0  0  0  0  0  0  0  0  0  0  0  0
    2.7935   -1.6502    4.9904 H   0  0  0  0  0  0  0  0  0  0  0  0
    1.6064   -2.6156    5.8438 H   0  0  0  0  0  0  0  0  0  0  0  0
    1.9156   -2.9078    4.1453 H   0  0  0  0  0  0  0  0  0  0  0  0
    0.5488   -0.8838    3.2109 N   0  0  0  0  0  0  0  0  0  0  0  0
   -0.4159    0.0446    2.6829 C   0  0  2  0  0  0  0  0  0  0  0  0
   -0.7551   -0.3867    1.2623 C   0  0  0  0  0  0  0  0  0  0  0  0
   -0.0106   -1.0851    0.5774 O   0  0  0  0  0  0  0  0  0  0  0  0
    0.1168    1.4689    2.7060 C   0  0  0  0  0  0  0  0  0  0  0  0
    1.1183   -1.4145    2.5542 H   0  0  0  0  0  0  0  0  0  0  0  0
   -1.3088   -0.0350    3.3125 H   0  0  0  0  0  0  0  0  0  0  0  0
    1.0116    1.5681    2.0808 H   0  0  0  0  0  0  0  0  0  0  0  0
   -0.6289    2.1775    2.3307 H   0  0  0  0  0  0  0  0  0  0  0  0
    0.3882    1.7670    3.7245 H   0  0  0  0  0  0  0  0  0  0  0  0
   -1.9689    0.1350    0.8298 N   0  0  0  0  0  0  0  0  0  0  0  0
   -2.5039   -0.1183   -0.4830 C   0  0  2  0  0  0  0  0  0  0  0  0
   -3.0162    1.2004   -1.0519 C   0  0  0  0  0  0  0  0  0  0  0  0
   -2.5056    2.2871   -0.7882 O   0  0  0  0  0  0  0  0  0  0  0  0
   -3.5913   -1.1875   -0.4527 C   0  0  0  0  0  0  0  0  0  0  0  0
   -4.7232   -0.7188    0.2715 O   0  0  0  0  0  0  0  0  0  0  0  0
   -2.5276    0.6894    1.4750 H   0  0  0  0  0  0  0  0  0  0  0  0
   -1.6647   -0.4665   -1.0961 H   0  0  0  0  0  0  0  0  0  0  0  0
   -3.2319   -2.1004    0.0331 H   0  0  0  0  0  0  0  0  0  0  0  0
   -3.9163   -1.4352   -1.4688 H   0  0  0  0  0  0  0  0  0  0  0  0
   -5.0395    0.0744   -0.1894 H   0  0  0  0  0  0  0  0  0  0  0  0
   -4.0819    1.0152   -1.9211 N   0  0  0  0  0  0  0  0  0  0  0  0
   -4.7250    2.1072   -2.6143 C   0  0  2  0  0  0  0  0  0  0  0  0
   -3.6643    3.1535   -2.9300 C   0  0  0  0  0  0  0  0  0  0  0  0
   -2.6078    3.2464   -2.3085 O   0  0  0  0  0  0  0  0  0  0  0  0
   -5.8483    2.7059   -1.7820 C   0  0  0  0  0  0  0  0  0  0  0  0
   -4.4135    0.0741   -2.1112 H   0  0  0  0  0  0  0  0  0  0  0  0
   -5.1242    1.6975   -3.5485 H   0  0  0  0  0  0  0  0  0  0  0  0
   -5.4676    3.1215   -0.8419 H   0  0  0  0  0  0  0  0  0  0  0  0
   -6.3533    3.5147   -2.3204 H   0  0  0  0  0  0  0  0  0  0  0  0
   -6.5952    1.9451   -1.5307 H   0  0  0  0  0  0  0  0  0  0  0  0
   -4.0551    3.9988   -3.9591 N   0  0  0  0  0  0  0  0  0  0  0  0
   -3.2270    5.0820   -4.4353 C   0  0  0  0  0  0  0  0  0  0  0  0
   -4.9402    3.8364   -4.4302 H   0  0  0  0  0  0  0  0  0  0  0  0
   -3.4861    6.0060   -3.8976 H   0  0  0  0  0  0  0  0  0  0  0  0
   -2.1687    4.8395   -4.2584 H   0  0  0  0  0  0  0  0  0  0  0  0
   -3.3951    5.2256   -5.5128 H   0  0  0  0  0  0  0  0  0  0  0  0
  1  3  1  0  0  0  0
  1  7  1  0  0  0  0
  1  2  2  0  0  0  0
 29 30  1  0  0  0  0
 30 38  1  0  0  0  0
 30 31  2  0  0  0  0
  8  9  1  0  0  0  0
  9 17  1  0  0  0  0
  9 10  2  0  0  0  0
 18 19  1  0  0  0  0
 19 28  1  0  0  0  0
 19 20  2  0  0  0  0
 29 32  1  0  0  0  0
  8 11  1  0  0  0  0
 38 39  1  0  0  0  0
 18 21  1  0  0  0  0
 21 22  1  0  0  0  0
 28 29  1  0  0  0  0
  7  8  1  0  0  0  0
 17 18  1  0  0  0  0
  3  4  1  0  0  0  0
  3  5  1  0  0  0  0
  3  6  1  0  0  0  0
 32 35  1  0  0  0  0
 32 36  1  0  0  0  0
 32 37  1  0  0  0  0
 11 14  1  0  0  0  0
 11 15  1  0  0  0  0
 11 16  1  0  0  0  0
 39 41  1  0  0  0  0
 39 42  1  0  0  0  0
 39 43  1  0  0  0  0
 21 25  1  0  0  0  0
 21 26  1  0  0  0  0
 29 34  1  0  0  0  0
  8 13  1  0  0  0  0
 18 24  1  0  0  0  0
 38 40  1  0  0  0  0
  7 12  1  0  0  0  0
 28 33  1  0  0  0  0
 17 23  1  0  0  0  0
 22 27  1  0  0  0  0
M  END
$$$$

  -OEChem-05262214473D

 43 42  0     1  0  0  0  0  0999 V2000
    0.7424   -1.0926    4.5665 C   0  0  0  0  0  0  0  0  0  0  0  0
    0.1409   -0.5364    5.4779 O   0  0  0  0  0  0  0  0  0  0  0  0
    1.7940   -2.1023    4.8871 C   0  0  0  0  0  0  0  0  0  0  0  0
    2.7935   -1.6502    4.9904 H   0  0  0  0  0  0  0  0  0  0  0  0
    1.6064   -2.6156    5.8438 H   0  0  0  0  0  0  0  0  0  0  0  0
    1.9156   -2.9078    4.1453 H   0  0  0  0  0  0  0  0  0  0  0  0
    0.5488   -0.8838    3.2109 N   0  0  0  0  0  0  0  0  0  0  0  0
   -0.4159    0.0446    2.6829 C   0  0  2  0  0  0  0  0  0  0  0  0
   -0.7551   -0.3867    1.2623 C   0  0  0  0  0  0  0  0  0  0  0  0
   -0.0106   -1.0851    0.5774 O   0  0  0  0  0  0  0  0  0  0  0  0
    0.1168    1.4689    2.7060 C   0  0  0  0  0  0  0  0  0  0  0  0
    1.1183   -1.4145    2.5542 H   0  0  0  0  0  0  0  0  0  0  0  0
   -1.3088   -0.0350    3.3125 H   0  0  0  0  0  0  0  0  0  0  0  0
    1.0116    1.5681    2.0808 H   0  0  0  0  0  0  0  0  0  0  0  0
   -0.6289    2.1775    2.3307 H   0  0  0  0  0  0  0  0  0  0  0  0
    0.3882    1.7670    3.7245 H   0  0  0  0  0  0  0  0  0  0  0  0
   -1.9689    0.1350    0.8298 N   0  0  0  0  0  0  0  0  0  0  0  0
   -2.5039   -0.1183   -0.4830 C   0  0  2  0  0  0  0  0  0  0  0  0
   -3.0162    1.2004   -1.0519 C   0  0  0  0  0  0  0  0  0  0  0  0
   -2.3667    2.2434   -1.0144 O   0  0  0  0  0  0  0  0  0  0  0  0
   -3.5913   -1.1875   -0.4527 C   0  0  0  0  0  0  0  0  0  0  0  0
   -4.7232   -0.7188    0.2715 O   0  0  0  0  0  0  0  0  0  0  0  0
   -2.5276    0.6894    1.4750 H   0  0  0  0  0  0  0  0  0  0  0  0
   -1.6647   -0.4665   -1.0961 H   0  0  0  0  0  0  0  0  0  0  0  0
   -3.2319   -2.1004    0.0331 H   0  0  0  0  0  0  0  0  0  0  0  0
   -3.9163   -1.4352   -1.4688 H   0  0  0  0  0  0  0  0  0  0  0  0
   -5.0395    0.0744   -0.1894 H   0  0  0  0  0  0  0  0  0  0  0  0
   -4.2640    1.0642   -1.6435 N   0  0  0  0  0  0  0  0  0  0  0  0
   -4.9512    2.1627   -2.2820 C   0  0  2  0  0  0  0  0  0  0  0  0
   -3.9039    3.0631   -2.9239 C   0  0  0  0  0  0  0  0  0  0  0  0
   -2.7295    3.0899   -2.5617 O   0  0  0  0  0  0  0  0  0  0  0  0
   -5.7988    2.9390   -1.2862 C   0  0  0  0  0  0  0  0  0  0  0  0
   -4.7105    0.1521   -1.6630 H   0  0  0  0  0  0  0  0  0  0  0  0
   -5.5869    1.7280   -3.0611 H   0  0  0  0  0  0  0  0  0  0  0  0
   -5.1791    3.3819   -0.4980 H   0  0  0  0  0  0  0  0  0  0  0  0
   -6.3412    3.7537   -1.7772 H   0  0  0  0  0  0  0  0  0  0  0  0
   -6.5317    2.2833   -0.8038 H   0  0  0  0  0  0  0  0  0  0  0  0
   -4.4444    3.8645   -3.9198 N   0  0  0  0  0  0  0  0  0  0  0  0
   -3.6560    4.8141   -4.6699 C   0  0  0  0  0  0  0  0  0  0  0  0
   -5.4243    3.7620   -4.1669 H   0  0  0  0  0  0  0  0  0  0  0  0
   -3.7045    5.7986   -4.1816 H   0  0  0  0  0  0  0  0  0  0  0  0
   -2.6104    4.4745   -4.7068 H   0  0  0  0  0  0  0  0  0  0  0  0
   -4.0524    4.8925   -5.6930 H   0  0  0  0  0  0  0  0  0  0  0  0
  1  3  1  0  0  0  0
  1  7  1  0  0  0  0
  1  2  2  0  0  0  0
 29 30  1  0  0  0  0
 30 38  1  0  0  0  0
 30 31  2  0  0  0  0
  8  9  1  0  0  0  0
  9 17  1  0  0  0  0
  9 10  2  0  0  0  0
 18 19  1  0  0  0  0
 19 28  1  0  0  0  0
 19 20  2  0  0  0  0
 29 32  1  0  0  0  0
  8 11  1  0  0  0  0
 38 39  1  0  0  0  0
 18 21  1  0  0  0  0
 21 22  1  0  0  0  0
 28 29  1  0  0  0  0
  7  8  1  0  0  0  0
 17 18  1  0  0  0  0
  3  4  1  0  0  0  0
  3  5  1  0  0  0  0
  3  6  1  0  0  0  0
 32 35  1  0  0  0  0
 32 36  1  0  0  0  0
 32 37  1  0  0  0  0
 11 14  1  0  0  0  0
 11 15  1  0  0  0  0
 11 16  1  0  0  0  0
 39 41  1  0  0  0  0
 39 42  1  0  0  0  0
 39 43  1  0  0  0  0
 21 25  1  0  0  0  0
 21 26  1  0  0  0  0
 29 34  1  0  0  0  0
  8 13  1  0  0  0  0
 18 24  1  0  0  0  0
 38 40  1  0  0  0  0
  7 12  1  0  0  0  0
 28 33  1  0  0  0  0
 17 23  1  0  0  0  0
 22 27  1  0  0  0  0
M  END
$$$$

  -OEChem-05262214473D

 43 42  0     1  0  0  0  0  0999 V2000
    0.7424   -1.0926    4.5665 C   0  0  0  0  0  0  0  0  0  0  0  0
    0.1409   -0.5364    5.4779 O   0  0  0  0  0  0  0  0  0  0  0  0
    1.7940   -2.1023    4.8871 C   0  0  0  0  0  0  0  0  0  0  0  0
    2.7935   -1.6502    4.9904 H   0  0  0  0  0  0  0  0  0  0  0  0
    1.6064   -2.6156    5.8438 H   0  0  0  0  0  0  0  0  0  0  0  0
    1.9156   -2.9078    4.1453 H   0  0  0  0  0  0  0  0  0  0  0  0
    0.5488   -0.8838    3.2109 N   0  0  0  0  0  0  0  0  0  0  0  0
   -0.4159    0.0446    2.6829 C   0  0  2  0  0  0  0  0  0  0  0  0
   -0.7551   -0.3867    1.2623 C   0  0  0  0  0  0  0  0  0  0  0  0
   -0.0106   -1.0851    0.5774 O   0  0  0  0  0  0  0  0  0  0  0  0
    0.1168    1.4689    2.7060 C   0  0  0  0  0  0  0  0  0  0  0  0
    1.1183   -1.4145    2.5542 H   0  0  0  0  0  0  0  0  0  0  0  0
   -1.3088   -0.0350    3.3125 H   0  0  0  0  0  0  0  0  0  0  0  0
    1.0116    1.5681    2.0808 H   0  0  0  0  0  0  0  0  0  0  0  0
   -0.6289    2.1775    2.3307 H   0  0  0  0  0  0  0  0  0  0  0  0
    0.3882    1.7670    3.7245 H   0  0  0  0  0  0  0  0  0  0  0  0
   -1.9689    0.1350    0.8298 N   0  0  0  0  0  0  0  0  0  0  0  0
   -2.5039   -0.1183   -0.4830 C   0  0  2  0  0  0  0  0  0  0  0  0
   -3.0162    1.2004   -1.0519 C   0  0  0  0  0  0  0  0  0  0  0  0
   -2.2874    2.1682   -1.2603 O   0  0  0  0  0  0  0  0  0  0  0  0
   -3.5913   -1.1875   -0.4527 C   0  0  0  0  0  0  0  0  0  0  0  0
   -4.7232   -0.7188    0.2715 O   0  0  0  0  0  0  0  0  0  0  0  0
   -2.5276    0.6894    1.4750 H   0  0  0  0  0  0  0  0  0  0  0  0
   -1.6647   -0.4665   -1.0961 H   0  0  0  0  0  0  0  0  0  0  0  0
   -3.2319   -2.1004    0.0331 H   0  0  0  0  0  0  0  0  0  0  0  0
   -3.9163   -1.4352   -1.4688 H   0  0  0  0  0  0  0  0  0  0  0  0
   -5.0395    0.0744   -0.1894 H   0  0  0  0  0  0  0  0  0  0  0  0
   -4.3731    1.1533   -1.3388 N   0  0  0  0  0  0  0  0  0  0  0  0
   -5.0899    2.2670   -1.9154 C   0  0  2  0  0  0  0  0  0  0  0  0
   -4.1427    2.9994   -2.8565 C   0  0  0  0  0  0  0  0  0  0  0  0
   -2.9188    2.9285   -2.7655 O   0  0  0  0  0  0  0  0  0  0  0  0
   -5.6175    3.2025   -0.8387 C   0  0  0  0  0  0  0  0  0  0  0  0
   -4.8895    0.2950   -1.1704 H   0  0  0  0  0  0  0  0  0  0  0  0
   -5.9218    1.8445   -2.4894 H   0  0  0  0  0  0  0  0  0  0  0  0
   -4.7983    3.6355   -0.2530 H   0  0  0  0  0  0  0  0  0  0  0  0
   -6.1849    4.0307   -1.2759 H   0  0  0  0  0  0  0  0  0  0  0  0
   -6.2750    2.6671   -0.1453 H   0  0  0  0  0  0  0  0  0  0  0  0
   -4.8245    3.7759   -3.7830 N   0  0  0  0  0  0  0  0  0  0  0  0
   -4.1488    4.5764   -4.7773 C   0  0  0  0  0  0  0  0  0  0  0  0
   -5.8400    3.7597   -3.7977 H   0  0  0  0  0  0  0  0  0  0  0  0
   -3.9992    5.5947   -4.3890 H   0  0  0  0  0  0  0  0  0  0  0  0
   -3.1727    4.1255   -5.0094 H   0  0  0  0  0  0  0  0  0  0  0  0
   -4.7598    4.6186   -5.6910 H   0  0  0  0  0  0  0  0  0  0  0  0
  1  3  1  0  0  0  0
  1  7  1  0  0  0  0
  1  2  2  0  0  0  0
 29 30  1  0  0  0  0
 30 38  1  0  0  0  0
 30 31  2  0  0  0  0
  8  9  1  0  0  0  0
  9 17  1  0  0  0  0
  9 10  2  0  0  0  0
 18 19  1  0  0  0  0
 19 28  1  0  0  0  0
 19 20  2  0  0  0  0
 29 32  1  0  0  0  0
  8 11  1  0  0  0  0
 38 39  1  0  0  0  0
 18 21  1  0  0  0  0
 21 22  1  0  0  0  0
 28 29  1  0  0  0  0
  7  8  1  0  0  0  0
 17 18  1  0  0  0  0
  3  4  1  0  0  0  0
  3  5  1  0  0  0  0
  3  6  1  0  0  0  0
 32 35  1  0  0  0  0
 32 36  1  0  0  0  0
 32 37  1  0  0  0  0
 11 14  1  0  0  0  0
 11 15  1  0  0  0  0
 11 16  1  0  0  0  0
 39 41  1  0  0  0  0
 39 42  1  0  0  0  0
 39 43  1  0  0  0  0
 21 25  1  0  0  0  0
 21 26  1  0  0  0  0
 29 34  1  0  0  0  0
  8 13  1  0  0  0  0
 18 24  1  0  0  0  0
 38 40  1  0  0  0  0
  7 12  1  0  0  0  0
 28 33  1  0  0  0  0
 17 23  1  0  0  0  0
 22 27  1  0  0  0  0
M  END
$$$$

  -OEChem-05262214473D

 43 42  0     1  0  0  0  0  0999 V2000
    0.7424   -1.0926    4.5665 C   0  0  0  0  0  0  0  0  0  0  0  0
    0.1409   -0.5364    5.4779 O   0  0  0  0  0  0  0  0  0  0  0  0
    1.7940   -2.1023    4.8871 C   0  0  0  0  0  0  0  0  0  0  0  0
    2.7935   -1.6502    4.9904 H   0  0  0  0  0  0  0  0  0  0  0  0
    1.6064   -2.6156    5.8438 H   0  0  0  0  0  0  0  0  0  0  0  0
    1.9156   -2.9078    4.1453 H   0  0  0  0  0  0  0  0  0  0  0  0
    0.5488   -0.8838    3.2109 N   0  0  0  0  0  0  0  0  0  0  0  0
   -0.4159    0.0446    2.6829 C   0  0  2  0  0  0  0  0  0  0  0  0
   -0.7551   -0.3867    1.2623 C   0  0  0  0  0  0  0  0  0  0  0  0
   -0.0106   -1.0851    0.5774 O   0  0  0  0  0  0  0  0  0  0  0  0
    0.1168    1.4689    2.7060 C   0  0  0  0  0  0  0  0  0  0  0  0
    1.1183   -1.4145    2.5542 H   0  0  0  0  0  0  0  0  0  0  0  0
   -1.3088   -0.0350    3.3125 H   0  0  0  0  0  0  0  0  0  0  0  0
    1.0116    1.5681    2.0808 H   0  0  0  0  0  0  0  0  0  0  0  0
   -0.6289    2.1775    2.3307 H   0  0  0  0  0  0  0  0  0  0  0  0
    0.3882    1.7670    3.7245 H   0  0  0  0  0  0  0  0  0  0  0  0
   -1.9689    0.1350    0.8298 N   0  0  0  0  0  0  0  0  0  0  0  0
   -2.5039   -0.1183   -0.4830 C   0  0  2  0  0  0  0  0  0  0  0  0
   -3.0162    1.2004   -1.0519 C   0  0  0  0  0  0  0  0  0  0  0  0
   -2.2731    2.0664   -1.5090 O   0  0  0  0  0  0  0  0  0  0  0  0
   -3.5913   -1.1875   -0.4527 C   0  0  0  0  0  0  0  0  0  0  0  0
   -4.7232   -0.7188    0.2715 O   0  0  0  0  0  0  0  0  0  0  0  0
   -2.5276    0.6894    1.4750 H   0  0  0  0  0  0  0  0  0  0  0  0
   -1.6647   -0.4665   -1.0961 H   0  0  0  0  0  0  0  0  0  0  0  0
   -3.2319   -2.1004    0.0331 H   0  0  0  0  0  0  0  0  0  0  0  0
   -3.9163   -1.4352   -1.4688 H   0  0  0  0  0  0  0  0  0  0  0  0
   -5.0395    0.0744   -0.1894 H   0  0  0  0  0  0  0  0  0  0  0  0
   -4.4016    1.2764   -1.0278 N   0  0  0  0  0  0  0  0  0  0  0  0
   -5.1317    2.4130   -1.5392 C   0  0  2  0  0  0  0  0  0  0  0  0
   -4.3644    2.9668   -2.7324 C   0  0  0  0  0  0  0  0  0  0  0  0
   -3.1629    2.7731   -2.9058 O   0  0  0  0  0  0  0  0  0  0  0  0
   -5.3167    3.4784   -0.4699 C   0  0  0  0  0  0  0  0  0  0  0  0
   -4.9384    0.4933   -0.6669 H   0  0  0  0  0  0  0  0  0  0  0  0
   -6.1060    2.0391   -1.8724 H   0  0  0  0  0  0  0  0  0  0  0  0
   -4.3512    3.8650   -0.1236 H   0  0  0  0  0  0  0  0  0  0  0  0
   -5.8949    4.3267   -0.8508 H   0  0  0  0  0  0  0  0  0  0  0  0
   -5.8426    3.0703    0.4000 H   0  0  0  0  0  0  0  0  0  0  0  0
   -5.1696    3.7388   -3.5581 N   0  0  0  0  0  0  0  0  0  0  0  0
   -4.6718    4.3850   -4.7500 C   0  0  0  0  0  0  0  0  0  0  0  0
   -6.1592    3.8298   -3.3478 H   0  0  0  0  0  0  0  0  0  0  0  0
   -4.3499    5.4081   -4.5057 H   0  0  0  0  0  0  0  0  0  0  0  0
   -3.8172    3.8165   -5.1454 H   0  0  0  0  0  0  0  0  0  0  0  0
   -5.4691    4.4225   -5.5069 H   0  0  0  0  0  0  0  0  0  0  0  0
  1  3  1  0  0  0  0
  1  7  1  0  0  0  0
  1  2  2  0  0  0  0
 29 30  1  0  0  0  0
 30 38  1  0  0  0  0
 30 31  2  0  0  0  0
  8  9  1  0  0  0  0
  9 17  1  0  0  0  0
  9 10  2  0  0  0  0
 18 19  1  0  0  0  0
 19 28  1  0  0  0  0
 19 20  2  0  0  0  0
 29 32  1  0  0  0  0
  8 11  1  0  0  0  0
 38 39  1  0  0  0  0
 18 21  1  0  0  0  0
 21 22  1  0  0  0  0
 28 29  1  0  0  0  0
  7  8  1  0  0  0  0
 17 18  1  0  0  0  0
  3  4  1  0  0  0  0
  3  5  1  0  0  0  0
  3  6  1  0  0  0  0
 32 35  1  0  0  0  0
 32 36  1  0  0  0  0
 32 37  1  0  0  0  0
 11 14  1  0  0  0  0
 11 15  1  0  0  0  0
 11 16  1  0  0  0  0
 39 41  1  0  0  0  0
 39 42  1  0  0  0  0
 39 43  1  0  0  0  0
 21 25  1  0  0  0  0
 21 26  1  0  0  0  0
 29 34  1  0  0  0  0
  8 13  1  0  0  0  0
 18 24  1  0  0  0  0
 38 40  1  0  0  0  0
  7 12  1  0  0  0  0
 28 33  1  0  0  0  0
 17 23  1  0  0  0  0
 22 27  1  0  0  0  0
M  END
$$$$

  -OEChem-05262214473D

 43 42  0     1  0  0  0  0  0999 V2000
    0.7424   -1.0926    4.5665 C   0  0  0  0  0  0  0  0  0  0  0  0
    0.1409   -0.5364    5.4779 O   0  0  0  0  0  0  0  0  0  0  0  0
    1.7940   -2.1023    4.8871 C   0  0  0  0  0  0  0  0  0  0  0  0
    2.7935   -1.6502    4.9904 H   0  0  0  0  0  0  0  0  0  0  0  0
    1.6064   -2.6156    5.8438 H   0  0  0  0  0  0  0  0  0  0  0  0
    1.9156   -2.9078    4.1453 H   0  0  0  0  0  0  0  0  0  0  0  0
    0.5488   -0.8838    3.2109 N   0  0  0  0  0  0  0  0  0  0  0  0
   -0.4159    0.0446    2.6829 C   0  0  2  0  0  0  0  0  0  0  0  0
   -0.7551   -0.3867    1.2623 C   0  0  0  0  0  0  0  0  0  0  0  0
   -0.0106   -1.0851    0.5774 O   0  0  0  0  0  0  0  0  0  0  0  0
    0.1168    1.4689    2.7060 C   0  0  0  0  0  0  0  0  0  0  0  0
    1.1183   -1.4145    2.5542 H   0  0  0  0  0  0  0  0  0  0  0  0
   -1.3088   -0.0350    3.3125 H   0  0  0  0  0  0  0  0  0  0  0  0
    1.0116    1.5681    2.0808 H   0  0  0  0  0  0  0  0  0  0  0  0
   -0.6289    2.1775    2.3307 H   0  0  0  0  0  0  0  0  0  0  0  0
    0.3882    1.7670    3.7245 H   0  0  0  0  0  0  0  0  0  0  0  0
   -1.9689    0.1350    0.8298 N   0  0  0  0  0  0  0  0  0  0  0  0
   -2.5039   -0.1183   -0.4830 C   0  0  2  0  0  0  0  0  0  0  0  0
   -3.0162    1.2004   -1.0519 C   0  0  0  0  0  0  0  0  0  0  0  0
   -2.3248    1.9452   -1.7435 O   0  0  0  0  0  0  0  0  0  0  0  0
   -3.5913   -1.1875   -0.4527 C   0  0  0  0  0  0  0  0  0  0  0  0
   -4.7232   -0.7188    0.2715 O   0  0  0  0  0  0  0  0  0  0  0  0
   -2.5276    0.6894    1.4750 H   0  0  0  0  0  0  0  0  0  0  0  0
   -1.6647   -0.4665   -1.0961 H   0  0  0  0  0  0  0  0  0  0  0  0
   -3.2319   -2.1004    0.0331 H   0  0  0  0  0  0  0  0  0  0  0  0
   -3.9163   -1.4352   -1.4688 H   0  0  0  0  0  0  0  0  0  0  0  0
   -5.0395    0.0744   -0.1894 H   0  0  0  0  0  0  0  0  0  0  0  0
   -4.3476    1.4250   -0.7318 N   0  0  0  0  0  0  0  0  0  0  0  0
   -5.0739    2.5908   -1.1791 C   0  0  2  0  0  0  0  0  0  0  0  0
   -4.5539    2.9675   -2.5601 C   0  0  0  0  0  0  0  0  0  0  0  0
   -3.4451    2.6344   -2.9733 O   0  0  0  0  0  0  0  0  0  0  0  0
   -4.9170    3.7480   -0.2049 C   0  0  0  0  0  0  0  0  0  0  0  0
   -4.8537    0.7332   -0.1869 H   0  0  0  0  0  0  0  0  0  0  0  0
   -6.1271    2.2986   -1.2520 H   0  0  0  0  0  0  0  0  0  0  0  0
   -3.8682    4.0547   -0.1187 H   0  0  0  0  0  0  0  0  0  0  0  0
   -5.4911    4.6216   -0.5308 H   0  0  0  0  0  0  0  0  0  0  0  0
   -5.2639    3.4655    0.7949 H   0  0  0  0  0  0  0  0  0  0  0  0
   -5.4563    3.7559   -3.2604 N   0  0  0  0  0  0  0  0  0  0  0  0
   -5.1893    4.2530   -4.5899 C   0  0  0  0  0  0  0  0  0  0  0  0
   -6.3600    3.9675   -2.8479 H   0  0  0  0  0  0  0  0  0  0  0  0
   -4.7328    5.2516   -4.5237 H   0  0  0  0  0  0  0  0  0  0  0  0
   -4.5000    3.5683   -5.1057 H   0  0  0  0  0  0  0  0  0  0  0  0
   -6.1319    4.3176   -5.1532 H   0  0  0  0  0  0  0  0  0  0  0  0
  1  3  1  0  0  0  0
  1  7  1  0  0  0  0
  1  2  2  0  0  0  0
 29 30  1  0  0  0  0
 30 38  1  0  0  0  0
 30 31  2  0  0  0  0
  8  9  1  0  0  0  0
  9 17  1  0  0  0  0
  9 10  2  0  0  0  0
 18 19  1  0  0  0  0
 19 28  1  0  0  0  0
 19 20  2  0  0  0  0
 29 32  1  0  0  0  0
  8 11  1  0  0  0  0
 38 39  1  0  0  0  0
 18 21  1  0  0  0  0
 21 22  1  0  0  0  0
 28 29  1  0  0  0  0
  7  8  1  0  0  0  0
 17 18  1  0  0  0  0
  3  4  1  0  0  0  0
  3  5  1  0  0  0  0
  3  6  1  0  0  0  0
 32 35  1  0  0  0  0
 32 36  1  0  0  0  0
 32 37  1  0  0  0  0
 11 14  1  0  0  0  0
 11 15  1  0  0  0  0
 11 16  1  0  0  0  0
 39 41  1  0  0  0  0
 39 42  1  0  0  0  0
 39 43  1  0  0  0  0
 21 25  1  0  0  0  0
 21 26  1  0  0  0  0
 29 34  1  0  0  0  0
  8 13  1  0  0  0  0
 18 24  1  0  0  0  0
 38 40  1  0  0  0  0
  7 12  1  0  0  0  0
 28 33  1  0  0  0  0
 17 23  1  0  0  0  0
 22 27  1  0  0  0  0
M  END
$$$$

  -OEChem-05262214473D

 43 42  0     1  0  0  0  0  0999 V2000
    0.7424   -1.0926    4.5665 C   0  0  0  0  0  0  0  0  0  0  0  0
    0.1409   -0.5364    5.4779 O   0  0  0  0  0  0  0  0  0  0  0  0
    1.7940   -2.1023    4.8871 C   0  0  0  0  0  0  0  0  0  0  0  0
    2.7935   -1.6502    4.9904 H   0  0  0  0  0  0  0  0  0  0  0  0
    1.6064   -2.6156    5.8438 H   0  0  0  0  0  0  0  0  0  0  0  0
    1.9156   -2.9078    4.1453 H   0  0  0  0  0  0  0  0  0  0  0  0
    0.5488   -0.8838    3.2109 N   0  0  0  0  0  0  0  0  0  0  0  0
   -0.4159    0.0446    2.6829 C   0  0  2  0  0  0  0  0  0  0  0  0
   -0.7551   -0.3867    1.2623 C   0  0  0  0  0  0  0  0  0  0  0  0
   -0.0106   -1.0851    0.5774 O   0  0  0  0  0  0  0  0  0  0  0  0
    0.1168    1.4689    2.7060 C   0  0  0  0  0  0  0  0  0  0  0  0
    1.1183   -1.4145    2.5542 H   0  0  0  0  0  0  0  0  0  0  0  0
   -1.3088   -0.0350    3.3125 H   0  0  0  0  0  0  0  0  0  0  0  0
    1.0116    1.5681    2.0808 H   0  0  0  0  0  0  0  0  0  0  0  0
   -0.6289    2.1775    2.3307 H   0  0  0  0  0  0  0  0  0  0  0  0
    0.3882    1.7670    3.7245 H   0  0  0  0  0  0  0  0  0  0  0  0
   -1.9689    0.1350    0.8298 N   0  0  0  0  0  0  0  0  0  0  0  0
   -2.5039   -0.1183   -0.4830 C   0  0  2  0  0  0  0  0  0  0  0  0
   -3.0162    1.2004   -1.0519 C   0  0  0  0  0  0  0  0  0  0  0  0
   -2.4389    1.8126   -1.9480 O   0  0  0  0  0  0  0  0  0  0  0  0
   -3.5913   -1.1875   -0.4527 C   0  0  0  0  0  0  0  0  0  0  0  0
   -4.7232   -0.7188    0.2715 O   0  0  0  0  0  0  0  0  0  0  0  0
   -2.5276    0.6894    1.4750 H   0  0  0  0  0  0  0  0  0  0  0  0
   -1.6647   -0.4665   -1.0961 H   0  0  0  0  0  0  0  0  0  0  0  0
   -3.2319   -2.1004    0.0331 H   0  0  0  0  0  0  0  0  0  0  0  0
   -3.9163   -1.4352   -1.4688 H   0  0  0  0  0  0  0  0  0  0  0  0
   -5.0395    0.0744   -0.1894 H   0  0  0  0  0  0  0  0  0  0  0  0
   -4.2149    1.5892   -0.4708 N   0  0  0  0  0  0  0  0  0  0  0  0
   -4.9202    2.7882   -0.8598 C   0  0  2  0  0  0  0  0  0  0  0  0
   -4.6983    3.0015   -2.3514 C   0  0  0  0  0  0  0  0  0  0  0  0
   -3.7461    2.5218   -2.9632 O   0  0  0  0  0  0  0  0  0  0  0  0
   -4.4456    3.9928   -0.0620 C   0  0  0  0  0  0  0  0  0  0  0  0
   -4.6413    0.9986    0.2370 H   0  0  0  0  0  0  0  0  0  0  0  0
   -5.9836    2.6051   -0.6707 H   0  0  0  0  0  0  0  0  0  0  0  0
   -3.3822    4.1918   -0.2386 H   0  0  0  0  0  0  0  0  0  0  0  0
   -5.0010    4.8953   -0.3378 H   0  0  0  0  0  0  0  0  0  0  0  0
   -4.5784    3.8256    1.0124 H   0  0  0  0  0  0  0  0  0  0  0  0
   -5.6648    3.8260   -2.9101 N   0  0  0  0  0  0  0  0  0  0  0  0
   -5.6661    4.1894   -4.3080 C   0  0  0  0  0  0  0  0  0  0  0  0
   -6.4288    4.1633   -2.3320 H   0  0  0  0  0  0  0  0  0  0  0  0
   -5.1218    5.1359   -4.4418 H   0  0  0  0  0  0  0  0  0  0  0  0
   -5.1747    3.3981   -4.8929 H   0  0  0  0  0  0  0  0  0  0  0  0
   -6.7031    4.3110   -4.6541 H   0  0  0  0  0  0  0  0  0  0  0  0
  1  3  1  0  0  0  0
  1  7  1  0  0  0  0
  1  2  2  0  0  0  0
 29 30  1  0  0  0  0
 30 38  1  0  0  0  0
 30 31  2  0  0  0  0
  8  9  1  0  0  0  0
  9 17  1  0  0  0  0
  9 10  2  0  0  0  0
 18 19  1  0  0  0  0
 19 28  1  0  0  0  0
 19 20  2  0  0  0  0
 29 32  1  0  0  0  0
  8 11  1  0  0  0  0
 38 39  1  0  0  0  0
 18 21  1  0  0  0  0
 21 22  1  0  0  0  0
 28 29  1  0  0  0  0
  7  8  1  0  0  0  0
 17 18  1  0  0  0  0
  3  4  1  0  0  0  0
  3  5  1  0  0  0  0
  3  6  1  0  0  0  0
 32 35  1  0  0  0  0
 32 36  1  0  0  0  0
 32 37  1  0  0  0  0
 11 14  1  0  0  0  0
 11 15  1  0  0  0  0
 11 16  1  0  0  0  0
 39 41  1  0  0  0  0
 39 42  1  0  0  0  0
 39 43  1  0  0  0  0
 21 25  1  0  0  0  0
 21 26  1  0  0  0  0
 29 34  1  0  0  0  0
  8 13  1  0  0  0  0
 18 24  1  0  0  0  0
 38 40  1  0  0  0  0
  7 12  1  0  0  0  0
 28 33  1  0  0  0  0
 17 23  1  0  0  0  0
 22 27  1  0  0  0  0
M  END
$$$$

  -OEChem-05262214473D

 43 42  0     1  0  0  0  0  0999 V2000
    0.7424   -1.0926    4.5665 C   0  0  0  0  0  0  0  0  0  0  0  0
    0.1409   -0.5364    5.4779 O   0  0  0  0  0  0  0  0  0  0  0  0
    1.7940   -2.1023    4.8871 C   0  0  0  0  0  0  0  0  0  0  0  0
    2.7935   -1.6502    4.9904 H   0  0  0  0  0  0  0  0  0  0  0  0
    1.6064   -2.6156    5.8438 H   0  0  0  0  0  0  0  0  0  0  0  0
    1.9156   -2.9078    4.1453 H   0  0  0  0  0  0  0  0  0  0  0  0
    0.5488   -0.8838    3.2109 N   0  0  0  0  0  0  0  0  0  0  0  0
   -0.4159    0.0446    2.6829 C   0  0  2  0  0  0  0  0  0  0  0  0
   -0.7551   -0.3867    1.2623 C   0  0  0  0  0  0  0  0  0  0  0  0
   -0.0106   -1.0851    0.5774 O   0  0  0  0  0  0  0  0  0  0  0  0
    0.1168    1.4689    2.7060 C   0  0  0  0  0  0  0  0  0  0  0  0
    1.1183   -1.4145    2.5542 H   0  0  0  0  0  0  0  0  0  0  0  0
   -1.3088   -0.0350    3.3125 H   0  0  0  0  0  0  0  0  0  0  0  0
    1.0116    1.5681    2.0808 H   0  0  0  0  0  0  0  0  0  0  0  0
   -0.6289    2.1775    2.3307 H   0  0  0  0  0  0  0  0  0  0  0  0
    0.3882    1.7670    3.7245 H   0  0  0  0  0  0  0  0  0  0  0  0
   -1.9689    0.1350    0.8298 N   0  0  0  0  0  0  0  0  0  0  0  0
   -2.5039   -0.1183   -0.4830 C   0  0  2  0  0  0  0  0  0  0  0  0
   -3.0162    1.2004   -1.0519 C   0  0  0  0  0  0  0  0  0  0  0  0
   -2.6077    1.6779   -2.1084 O   0  0  0  0  0  0  0  0  0  0  0  0
   -3.5913   -1.1875   -0.4527 C   0  0  0  0  0  0  0  0  0  0  0  0
   -4.7232   -0.7188    0.2715 O   0  0  0  0  0  0  0  0  0  0  0  0
   -2.5276    0.6894    1.4750 H   0  0  0  0  0  0  0  0  0  0  0  0
   -1.6647   -0.4665   -1.0961 H   0  0  0  0  0  0  0  0  0  0  0  0
   -3.2319   -2.1004    0.0331 H   0  0  0  0  0  0  0  0  0  0  0  0
   -3.9163   -1.4352   -1.4688 H   0  0  0  0  0  0  0  0  0  0  0  0
   -5.0395    0.0744   -0.1894 H   0  0  0  0  0  0  0  0  0  0  0  0
   -4.0124    1.7576   -0.2628 N   0  0  0  0  0  0  0  0  0  0  0  0
   -4.6812    2.9919   -0.6029 C   0  0  2  0  0  0  0  0  0  0  0  0
   -4.7878    3.0664   -2.1203 C   0  0  0  0  0  0  0  0  0  0  0  0
   -4.0455    2.4430   -2.8763 O   0  0  0  0  0  0  0  0  0  0  0  0
   -3.9346    4.1962   -0.0506 C   0  0  0  0  0  0  0  0  0  0  0  0
   -4.3157    1.2712    0.5758 H   0  0  0  0  0  0  0  0  0  0  0  0
   -5.6852    2.9379   -0.1679 H   0  0  0  0  0  0  0  0  0  0  0  0
   -2.9264    4.2669   -0.4750 H   0  0  0  0  0  0  0  0  0  0  0  0
   -4.4579    5.1291   -0.2848 H   0  0  0  0  0  0  0  0  0  0  0  0
   -3.8328    4.1262    1.0377 H   0  0  0  0  0  0  0  0  0  0  0  0
   -5.7811    3.9442   -2.5312 N   0  0  0  0  0  0  0  0  0  0  0  0
   -6.0697    4.1986   -3.9234 C   0  0  0  0  0  0  0  0  0  0  0  0
   -6.3609    4.4039   -1.8354 H   0  0  0  0  0  0  0  0  0  0  0  0
   -5.4903    5.0688   -4.2655 H   0  0  0  0  0  0  0  0  0  0  0  0
   -5.7952    3.3172   -4.5216 H   0  0  0  0  0  0  0  0  0  0  0  0
   -7.1438    4.4032   -4.0436 H   0  0  0  0  0  0  0  0  0  0  0  0
  1  3  1  0  0  0  0
  1  7  1  0  0  0  0
  1  2  2  0  0  0  0
 29 30  1  0  0  0  0
 30 38  1  0  0  0  0
 30 31  2  0  0  0  0
  8  9  1  0  0  0  0
  9 17  1  0  0  0  0
  9 10  2  0  0  0  0
 18 19  1  0  0  0  0
 19 28  1  0  0  0  0
 19 20  2  0  0  0  0
 29 32  1  0  0  0  0
  8 11  1  0  0  0  0
 38 39  1  0  0  0  0
 18 21  1  0  0  0  0
 21 22  1  0  0  0  0
 28 29  1  0  0  0  0
  7  8  1  0  0  0  0
 17 18  1  0  0  0  0
  3  4  1  0  0  0  0
  3  5  1  0  0  0  0
  3  6  1  0  0  0  0
 32 35  1  0  0  0  0
 32 36  1  0  0  0  0
 32 37  1  0  0  0  0
 11 14  1  0  0  0  0
 11 15  1  0  0  0  0
 11 16  1  0  0  0  0
 39 41  1  0  0  0  0
 39 42  1  0  0  0  0
 39 43  1  0  0  0  0
 21 25  1  0  0  0  0
 21 26  1  0  0  0  0
 29 34  1  0  0  0  0
  8 13  1  0  0  0  0
 18 24  1  0  0  0  0
 38 40  1  0  0  0  0
  7 12  1  0  0  0  0
 28 33  1  0  0  0  0
 17 23  1  0  0  0  0
 22 27  1  0  0  0  0
M  END
$$$$

  -OEChem-05262214473D

 43 42  0     1  0  0  0  0  0999 V2000
    0.7424   -1.0926    4.5665 C   0  0  0  0  0  0  0  0  0  0  0  0
    0.1409   -0.5364    5.4779 O   0  0  0  0  0  0  0  0  0  0  0  0
    1.7940   -2.1023    4.8871 C   0  0  0  0  0  0  0  0  0  0  0  0
    2.7935   -1.6502    4.9904 H   0  0  0  0  0  0  0  0  0  0  0  0
    1.6064   -2.6156    5.8438 H   0  0  0  0  0  0  0  0  0  0  0  0
    1.9156   -2.9078    4.1453 H   0  0  0  0  0  0  0  0  0  0  0  0
    0.5488   -0.8838    3.2109 N   0  0  0  0  0  0  0  0  0  0  0  0
   -0.4159    0.0446    2.6829 C   0  0  2  0  0  0  0  0  0  0  0  0
   -0.7551   -0.3867    1.2623 C   0  0  0  0  0  0  0  0  0  0  0  0
   -0.0106   -1.0851    0.5774 O   0  0  0  0  0  0  0  0  0  0  0  0
    0.1168    1.4689    2.7060 C   0  0  0  0  0  0  0  0  0  0  0  0
    1.1183   -1.4145    2.5542 H   0  0  0  0  0  0  0  0  0  0  0  0
   -1.3088   -0.0350    3.3125 H   0  0  0  0  0  0  0  0  0  0  0  0
    1.0116    1.5681    2.0808 H   0  0  0  0  0  0  0  0  0  0  0  0
   -0.6289    2.1775    2.3307 H   0  0  0  0  0  0  0  0  0  0  0  0
    0.3882    1.7670    3.7245 H   0  0  0  0  0  0  0  0  0  0  0  0
   -1.9689    0.1350    0.8298 N   0  0  0  0  0  0  0  0  0  0  0  0
   -2.5039   -0.1183   -0.4830 C   0  0  2  0  0  0  0  0  0  0  0  0
   -3.0162    1.2004   -1.0519 C   0  0  0  0  0  0  0  0  0  0  0  0
   -2.8197    1.5500   -2.2139 O   0  0  0  0  0  0  0  0  0  0  0  0
   -3.5913   -1.1875   -0.4527 C   0  0  0  0  0  0  0  0  0  0  0  0
   -4.7232   -0.7188    0.2715 O   0  0  0  0  0  0  0  0  0  0  0  0
   -2.5276    0.6894    1.4750 H   0  0  0  0  0  0  0  0  0  0  0  0
   -1.6647   -0.4665   -1.0961 H   0  0  0  0  0  0  0  0  0  0  0  0
   -3.2319   -2.1004    0.0331 H   0  0  0  0  0  0  0  0  0  0  0  0
   -3.9163   -1.4352   -1.4688 H   0  0  0  0  0  0  0  0  0  0  0  0
   -5.0395    0.0744   -0.1894 H   0  0  0  0  0  0  0  0  0  0  0  0
   -3.7540    1.9188   -0.1217 N   0  0  0  0  0  0  0  0  0  0  0  0
   -4.3732    3.1879   -0.4259 C   0  0  2  0  0  0  0  0  0  0  0  0
   -4.8162    3.1578   -1.8827 C   0  0  0  0  0  0  0  0  0  0  0  0
   -4.3229    2.4033   -2.7185 O   0  0  0  0  0  0  0  0  0  0  0  0
   -3.4188    4.3443   -0.1718 C   0  0  0  0  0  0  0  0  0  0  0  0
   -3.8990    1.5326    0.8064 H   0  0  0  0  0  0  0  0  0  0  0  0
   -5.2523    3.2743    0.2220 H   0  0  0  0  0  0  0  0  0  0  0  0
   -2.5318    4.2748   -0.8120 H   0  0  0  0  0  0  0  0  0  0  0  0
   -3.8989    5.3071   -0.3756 H   0  0  0  0  0  0  0  0  0  0  0  0
   -3.0779    4.3467    0.8692 H   0  0  0  0  0  0  0  0  0  0  0  0
   -5.7972    4.1027   -2.1495 N   0  0  0  0  0  0  0  0  0  0  0  0
   -6.3726    4.2798   -3.4623 C   0  0  0  0  0  0  0  0  0  0  0  0
   -6.1609    4.6730   -1.3917 H   0  0  0  0  0  0  0  0  0  0  0  0
   -5.8133    5.0548   -4.0069 H   0  0  0  0  0  0  0  0  0  0  0  0
   -6.3192    3.3313   -4.0170 H   0  0  0  0  0  0  0  0  0  0  0  0
   -7.4239    4.5878   -3.3632 H   0  0  0  0  0  0  0  0  0  0  0  0
  1  3  1  0  0  0  0
  1  7  1  0  0  0  0
  1  2  2  0  0  0  0
 29 30  1  0  0  0  0
 30 38  1  0  0  0  0
 30 31  2  0  0  0  0
  8  9  1  0  0  0  0
  9 17  1  0  0  0  0
  9 10  2  0  0  0  0
 18 19  1  0  0  0  0
 19 28  1  0  0  0  0
 19 20  2  0  0  0  0
 29 32  1  0  0  0  0
  8 11  1  0  0  0  0
 38 39  1  0  0  0  0
 18 21  1  0  0  0  0
 21 22  1  0  0  0  0
 28 29  1  0  0  0  0
  7  8  1  0  0  0  0
 17 18  1  0  0  0  0
  3  4  1  0  0  0  0
  3  5  1  0  0  0  0
  3  6  1  0  0  0  0
 32 35  1  0  0  0  0
 32 36  1  0  0  0  0
 32 37  1  0  0  0  0
 11 14  1  0  0  0  0
 11 15  1  0  0  0  0
 11 16  1  0  0  0  0
 39 41  1  0  0  0  0
 39 42  1  0  0  0  0
 39 43  1  0  0  0  0
 21 25  1  0  0  0  0
 21 26  1  0  0  0  0
 29 34  1  0  0  0  0
  8 13  1  0  0  0  0
 18 24  1  0  0  0  0
 38 40  1  0  0  0  0
  7 12  1  0  0  0  0
 28 33  1  0  0  0  0
 17 23  1  0  0  0  0
 22 27  1  0  0  0  0
M  END
$$$$

  -OEChem-05262214473D

 43 42  0     1  0  0  0  0  0999 V2000
    0.7424   -1.0926    4.5665 C   0  0  0  0  0  0  0  0  0  0  0  0
    0.1409   -0.5364    5.4779 O   0  0  0  0  0  0  0  0  0  0  0  0
    1.7940   -2.1023    4.8871 C   0  0  0  0  0  0  0  0  0  0  0  0
    2.7935   -1.6502    4.9904 H   0  0  0  0  0  0  0  0  0  0  0  0
    1.6064   -2.6156    5.8438 H   0  0  0  0  0  0  0  0  0  0  0  0
    1.9156   -2.9078    4.1453 H   0  0  0  0  0  0  0  0  0  0  0  0
    0.5488   -0.8838    3.2109 N   0  0  0  0  0  0  0  0  0  0  0  0
   -0.4159    0.0446    2.6829 C   0  0  2  0  0  0  0  0  0  0  0  0
   -0.7551   -0.3867    1.2623 C   0  0  0  0  0  0  0  0  0  0  0  0
   -0.0106   -1.0851    0.5774 O   0  0  0  0  0  0  0  0  0  0  0  0
    0.1168    1.4689    2.7060 C   0  0  0  0  0  0  0  0  0  0  0  0
    1.1183   -1.4145    2.5542 H   0  0  0  0  0  0  0  0  0  0  0  0
   -1.3088   -0.0350    3.3125 H   0  0  0  0  0  0  0  0  0  0  0  0
    1.0116    1.5681    2.0808 H   0  0  0  0  0  0  0  0  0  0  0  0
   -0.6289    2.1775    2.3307 H   0  0  0  0  0  0  0  0  0  0  0  0
    0.3882    1.7670    3.7245 H   0  0  0  0  0  0  0  0  0  0  0  0
   -1.9689    0.1350    0.8298 N   0  0  0  0  0  0  0  0  0  0  0  0
   -2.5039   -0.1183   -0.4830 C   0  0  2  0  0  0  0  0  0  0  0  0
   -3.0162    1.2004   -1.0519 C   0  0  0  0  0  0  0  0  0  0  0  0
   -3.0604    1.4378   -2.2572 O   0  0  0  0  0  0  0  0  0  0  0  0
   -3.5913   -1.1875   -0.4527 C   0  0  0  0  0  0  0  0  0  0  0  0
   -4.7232   -0.7188    0.2715 O   0  0  0  0  0  0  0  0  0  0  0  0
   -2.5276    0.6894    1.4750 H   0  0  0  0  0  0  0  0  0  0  0  0
   -1.6647   -0.4665   -1.0961 H   0  0  0  0  0  0  0  0  0  0  0  0
   -3.2319   -2.1004    0.0331 H   0  0  0  0  0  0  0  0  0  0  0  0
   -3.9163   -1.4352   -1.4688 H   0  0  0  0  0  0  0  0  0  0  0  0
   -5.0395    0.0744   -0.1894 H   0  0  0  0  0  0  0  0  0  0  0  0
   -3.4573    2.0618   -0.0574 N   0  0  0  0  0  0  0  0  0  0  0  0
   -4.0172    3.3628   -0.3410 C   0  0  2  0  0  0  0  0  0  0  0  0
   -4.7817    3.2696   -1.6549 C   0  0  0  0  0  0  0  0  0  0  0  0
   -4.5593    2.4055   -2.5005 O   0  0  0  0  0  0  0  0  0  0  0  0
   -2.9334    4.4270   -0.4171 C   0  0  0  0  0  0  0  0  0  0  0  0
   -3.4196    1.7649    0.9132 H   0  0  0  0  0  0  0  0  0  0  0  0
   -4.7144    3.5913    0.4725 H   0  0  0  0  0  0  0  0  0  0  0  0
   -2.2253    4.2150   -1.2265 H   0  0  0  0  0  0  0  0  0  0  0  0
   -3.3620    5.4172   -0.6038 H   0  0  0  0  0  0  0  0  0  0  0  0
   -2.3652    4.4722    0.5182 H   0  0  0  0  0  0  0  0  0  0  0  0
   -5.7120    4.2904   -1.7910 N   0  0  0  0  0  0  0  0  0  0  0  0
   -6.5541    4.4276   -2.9563 C   0  0  0  0  0  0  0  0  0  0  0  0
   -5.8424    4.9521   -1.0314 H   0  0  0  0  0  0  0  0  0  0  0  0
   -6.0688    5.0951   -3.6836 H   0  0  0  0  0  0  0  0  0  0  0  0
   -6.7110    3.4395   -3.4135 H   0  0  0  0  0  0  0  0  0  0  0  0
   -7.5244    4.8524   -2.6594 H   0  0  0  0  0  0  0  0  0  0  0  0
  1  3  1  0  0  0  0
  1  7  1  0  0  0  0
  1  2  2  0  0  0  0
 29 30  1  0  0  0  0
 30 38  1  0  0  0  0
 30 31  2  0  0  0  0
  8  9  1  0  0  0  0
  9 17  1  0  0  0  0
  9 10  2  0  0  0  0
 18 19  1  0  0  0  0
 19 28  1  0  0  0  0
 19 20  2  0  0  0  0
 29 32  1  0  0  0  0
  8 11  1  0  0  0  0
 38 39  1  0  0  0  0
 18 21  1  0  0  0  0
 21 22  1  0  0  0  0
 28 29  1  0  0  0  0
  7  8  1  0  0  0  0
 17 18  1  0  0  0  0
  3  4  1  0  0  0  0
  3  5  1  0  0  0  0
  3  6  1  0  0  0  0
 32 35  1  0  0  0  0
 32 36  1  0  0  0  0
 32 37  1  0  0  0  0
 11 14  1  0  0  0  0
 11 15  1  0  0  0  0
 11 16  1  0  0  0  0
 39 41  1  0  0  0  0
 39 42  1  0  0  0  0
 39 43  1  0  0  0  0
 21 25  1  0  0  0  0
 21 26  1  0  0  0  0
 29 34  1  0  0  0  0
  8 13  1  0  0  0  0
 18 24  1  0  0  0  0
 38 40  1  0  0  0  0
  7 12  1  0  0  0  0
 28 33  1  0  0  0  0
 17 23  1  0  0  0  0
 22 27  1  0  0  0  0
M  END
$$$$

  -OEChem-05262214473D

 43 42  0     1  0  0  0  0  0999 V2000
    0.7424   -1.0926    4.5665 C   0  0  0  0  0  0  0  0  0  0  0  0
    0.1409   -0.5364    5.4779 O   0  0  0  0  0  0  0  0  0  0  0  0
    1.7940   -2.1023    4.8871 C   0  0  0  0  0  0  0  0  0  0  0  0
    2.7935   -1.6502    4.9904 H   0  0  0  0  0  0  0  0  0  0  0  0
    1.6064   -2.6156    5.8438 H   0  0  0  0  0  0  0  0  0  0  0  0
    1.9156   -2.9078    4.1453 H   0  0  0  0  0  0  0  0  0  0  0  0
    0.5488   -0.8838    3.2109 N   0  0  0  0  0  0  0  0  0  0  0  0
   -0.4159    0.0446    2.6829 C   0  0  2  0  0  0  0  0  0  0  0  0
   -0.7551   -0.3867    1.2623 C   0  0  0  0  0  0  0  0  0  0  0  0
   -0.0106   -1.0851    0.5774 O   0  0  0  0  0  0  0  0  0  0  0  0
    0.1168    1.4689    2.7060 C   0  0  0  0  0  0  0  0  0  0  0  0
    1.1183   -1.4145    2.5542 H   0  0  0  0  0  0  0  0  0  0  0  0
   -1.3088   -0.0350    3.3125 H   0  0  0  0  0  0  0  0  0  0  0  0
    1.0116    1.5681    2.0808 H   0  0  0  0  0  0  0  0  0  0  0  0
   -0.6289    2.1775    2.3307 H   0  0  0  0  0  0  0  0  0  0  0  0
    0.3882    1.7670    3.7245 H   0  0  0  0  0  0  0  0  0  0  0  0
   -1.9689    0.1350    0.8298 N   0  0  0  0  0  0  0  0  0  0  0  0
   -2.5039   -0.1183   -0.4830 C   0  0  2  0  0  0  0  0  0  0  0  0
   -3.0162    1.2004   -1.0519 C   0  0  0  0  0  0  0  0  0  0  0  0
   -3.3134    1.3490   -2.2354 O   0  0  0  0  0  0  0  0  0  0  0  0
   -3.5913   -1.1875   -0.4527 C   0  0  0  0  0  0  0  0  0  0  0  0
   -4.7232   -0.7188    0.2715 O   0  0  0  0  0  0  0  0  0  0  0  0
   -2.5276    0.6894    1.4750 H   0  0  0  0  0  0  0  0  0  0  0  0
   -1.6647   -0.4665   -1.0961 H   0  0  0  0  0  0  0  0  0  0  0  0
   -3.2319   -2.1004    0.0331 H   0  0  0  0  0  0  0  0  0  0  0  0
   -3.9163   -1.4352   -1.4688 H   0  0  0  0  0  0  0  0  0  0  0  0
   -5.0395    0.0744   -0.1894 H   0  0  0  0  0  0  0  0  0  0  0  0
   -3.1425    2.1769   -0.0741 N   0  0  0  0  0  0  0  0  0  0  0  0
   -3.6374    3.5048   -0.3539 C   0  0  2  0  0  0  0  0  0  0  0  0
   -4.6866    3.3939   -1.4522 C   0  0  0  0  0  0  0  0  0  0  0  0
   -4.7387    2.4494   -2.2372 O   0  0  0  0  0  0  0  0  0  0  0  0
   -2.5115    4.4387   -0.7699 C   0  0  0  0  0  0  0  0  0  0  0  0
   -2.9103    1.9522    0.8889 H   0  0  0  0  0  0  0  0  0  0  0  0
   -4.1081    3.8673    0.5665 H   0  0  0  0  0  0  0  0  0  0  0  0
   -2.0278    4.0917   -1.6903 H   0  0  0  0  0  0  0  0  0  0  0  0
   -2.8839    5.4518   -0.9540 H   0  0  0  0  0  0  0  0  0  0  0  0
   -1.7432    4.4940    0.0088 H   0  0  0  0  0  0  0  0  0  0  0  0
   -5.5313    4.4948   -1.4800 N   0  0  0  0  0  0  0  0  0  0  0  0
   -6.6019    4.6319   -2.4397 C   0  0  0  0  0  0  0  0  0  0  0  0
   -5.4272    5.2223   -0.7789 H   0  0  0  0  0  0  0  0  0  0  0  0
   -6.2393    5.1867   -3.3176 H   0  0  0  0  0  0  0  0  0  0  0  0
   -6.9440    3.6342   -2.7523 H   0  0  0  0  0  0  0  0  0  0  0  0
   -7.4383    5.1789   -1.9801 H   0  0  0  0  0  0  0  0  0  0  0  0
  1  3  1  0  0  0  0
  1  7  1  0  0  0  0
  1  2  2  0  0  0  0
 29 30  1  0  0  0  0
 30 38  1  0  0  0  0
 30 31  2  0  0  0  0
  8  9  1  0  0  0  0
  9 17  1  0  0  0  0
  9 10  2  0  0  0  0
 18 19  1  0  0  0  0
 19 28  1  0  0  0  0
 19 20  2  0  0  0  0
 29 32  1  0  0  0  0
  8 11  1  0  0  0  0
 38 39  1  0  0  0  0
 18 21  1  0  0  0  0
 21 22  1  0  0  0  0
 28 29  1  0  0  0  0
  7  8  1  0  0  0  0
 17 18  1  0  0  0  0
  3  4  1  0  0  0  0
  3  5  1  0  0  0  0
  3  6  1  0  0  0  0
 32 35  1  0  0  0  0
 32 36  1  0  0  0  0
 32 37  1  0  0  0  0
 11 14  1  0  0  0  0
 11 15  1  0  0  0  0
 11 16  1  0  0  0  0
 39 41  1  0  0  0  0
 39 42  1  0  0  0  0
 39 43  1  0  0  0  0
 21 25  1  0  0  0  0
 21 26  1  0  0  0  0
 29 34  1  0  0  0  0
  8 13  1  0  0  0  0
 18 24  1  0  0  0  0
 38 40  1  0  0  0  0
  7 12  1  0  0  0  0
 28 33  1  0  0  0  0
 17 23  1  0  0  0  0
 22 27  1  0  0  0  0
M  END
$$$$

  -OEChem-05262214473D

 43 42  0     1  0  0  0  0  0999 V2000
    0.7424   -1.0926    4.5665 C   0  0  0  0  0  0  0  0  0  0  0  0
    0.1409   -0.5364    5.4779 O   0  0  0  0  0  0  0  0  0  0  0  0
    1.7940   -2.1023    4.8871 C   0  0  0  0  0  0  0  0  0  0  0  0
    2.7935   -1.6502    4.9904 H   0  0  0  0  0  0  0  0  0  0  0  0
    1.6064   -2.6156    5.8438 H   0  0  0  0  0  0  0  0  0  0  0  0
    1.9156   -2.9078    4.1453 H   0  0  0  0  0  0  0  0  0  0  0  0
    0.5488   -0.8838    3.2109 N   0  0  0  0  0  0  0  0  0  0  0  0
   -0.4159    0.0446    2.6829 C   0  0  2  0  0  0  0  0  0  0  0  0
   -0.7551   -0.3867    1.2623 C   0  0  0  0  0  0  0  0  0  0  0  0
   -0.0106   -1.0851    0.5774 O   0  0  0  0  0  0  0  0  0  0  0  0
    0.1168    1.4689    2.7060 C   0  0  0  0  0  0  0  0  0  0  0  0
    1.1183   -1.4145    2.5542 H   0  0  0  0  0  0  0  0  0  0  0  0
   -1.3088   -0.0350    3.3125 H   0  0  0  0  0  0  0  0  0  0  0  0
    1.0116    1.5681    2.0808 H   0  0  0  0  0  0  0  0  0  0  0  0
   -0.6289    2.1775    2.3307 H   0  0  0  0  0  0  0  0  0  0  0  0
    0.3882    1.7670    3.7245 H   0  0  0  0  0  0  0  0  0  0  0  0
   -1.9689    0.1350    0.8298 N   0  0  0  0  0  0  0  0  0  0  0  0
   -2.5039   -0.1183   -0.4830 C   0  0  2  0  0  0  0  0  0  0  0  0
   -3.0162    1.2004   -1.0519 C   0  0  0  0  0  0  0  0  0  0  0  0
   -3.5615    1.2894   -2.1499 O   0  0  0  0  0  0  0  0  0  0  0  0
   -3.5913   -1.1875   -0.4527 C   0  0  0  0  0  0  0  0  0  0  0  0
   -4.7232   -0.7188    0.2715 O   0  0  0  0  0  0  0  0  0  0  0  0
   -2.5276    0.6894    1.4750 H   0  0  0  0  0  0  0  0  0  0  0  0
   -1.6647   -0.4665   -1.0961 H   0  0  0  0  0  0  0  0  0  0  0  0
   -3.2319   -2.1004    0.0331 H   0  0  0  0  0  0  0  0  0  0  0  0
   -3.9163   -1.4352   -1.4688 H   0  0  0  0  0  0  0  0  0  0  0  0
   -5.0395    0.0744   -0.1894 H   0  0  0  0  0  0  0  0  0  0  0  0
   -2.8310    2.2563   -0.1707 N   0  0  0  0  0  0  0  0  0  0  0  0
   -3.2597    3.6042   -0.4636 C   0  0  2  0  0  0  0  0  0  0  0  0
   -4.5373    3.5225   -1.2885 C   0  0  0  0  0  0  0  0  0  0  0  0
   -4.8487    2.5320   -1.9466 O   0  0  0  0  0  0  0  0  0  0  0  0
   -2.1818    4.3785   -1.2062 C   0  0  0  0  0  0  0  0  0  0  0  0
   -2.4056    2.0819    0.7351 H   0  0  0  0  0  0  0  0  0  0  0  0
   -3.4748    4.0836    0.4975 H   0  0  0  0  0  0  0  0  0  0  0  0
   -1.9528    3.9131   -2.1718 H   0  0  0  0  0  0  0  0  0  0  0  0
   -2.4972    5.4086   -1.4023 H   0  0  0  0  0  0  0  0  0  0  0  0
   -1.2543    4.4108   -0.6244 H   0  0  0  0  0  0  0  0  0  0  0  0
   -5.2675    4.7017   -1.2379 N   0  0  0  0  0  0  0  0  0  0  0  0
   -6.5127    4.8787   -1.9478 C   0  0  0  0  0  0  0  0  0  0  0  0
   -4.9435    5.4652   -0.6515 H   0  0  0  0  0  0  0  0  0  0  0  0
   -6.3133    5.3235   -2.9339 H   0  0  0  0  0  0  0  0  0  0  0  0
   -7.0022    3.9023   -2.0783 H   0  0  0  0  0  0  0  0  0  0  0  0
   -7.1716    5.5450   -1.3716 H   0  0  0  0  0  0  0  0  0  0  0  0
  1  3  1  0  0  0  0
  1  7  1  0  0  0  0
  1  2  2  0  0  0  0
 29 30  1  0  0  0  0
 30 38  1  0  0  0  0
 30 31  2  0  0  0  0
  8  9  1  0  0  0  0
  9 17  1  0  0  0  0
  9 10  2  0  0  0  0
 18 19  1  0  0  0  0
 19 28  1  0  0  0  0
 19 20  2  0  0  0  0
 29 32  1  0  0  0  0
  8 11  1  0  0  0  0
 38 39  1  0  0  0  0
 18 21  1  0  0  0  0
 21 22  1  0  0  0  0
 28 29  1  0  0  0  0
  7  8  1  0  0  0  0
 17 18  1  0  0  0  0
  3  4  1  0  0  0  0
  3  5  1  0  0  0  0
  3  6  1  0  0  0  0
 32 35  1  0  0  0  0
 32 36  1  0  0  0  0
 32 37  1  0  0  0  0
 11 14  1  0  0  0  0
 11 15  1  0  0  0  0
 11 16  1  0  0  0  0
 39 41  1  0  0  0  0
 39 42  1  0  0  0  0
 39 43  1  0  0  0  0
 21 25  1  0  0  0  0
 21 26  1  0  0  0  0
 29 34  1  0  0  0  0
  8 13  1  0  0  0  0
 18 24  1  0  0  0  0
 38 40  1  0  0  0  0
  7 12  1  0  0  0  0
 28 33  1  0  0  0  0
 17 23  1  0  0  0  0
 22 27  1  0  0  0  0
M  END
$$$$

  -OEChem-05262214473D

 43 42  0     1  0  0  0  0  0999 V2000
    0.7424   -1.0926    4.5665 C   0  0  0  0  0  0  0  0  0  0  0  0
    0.1409   -0.5364    5.4779 O   0  0  0  0  0  0  0  0  0  0  0  0
    1.7940   -2.1023    4.8871 C   0  0  0  0  0  0  0  0  0  0  0  0
    2.7935   -1.6502    4.9904 H   0  0  0  0  0  0  0  0  0  0  0  0
    1.6064   -2.6156    5.8438 H   0  0  0  0  0  0  0  0  0  0  0  0
    1.9156   -2.9078    4.1453 H   0  0  0  0  0  0  0  0  0  0  0  0
    0.5488   -0.8838    3.2109 N   0  0  0  0  0  0  0  0  0  0  0  0
   -0.4159    0.0446    2.6829 C   0  0  2  0  0  0  0  0  0  0  0  0
   -0.7551   -0.3867    1.2623 C   0  0  0  0  0  0  0  0  0  0  0  0
   -0.0106   -1.0851    0.5774 O   0  0  0  0  0  0  0  0  0  0  0  0
    0.1168    1.4689    2.7060 C   0  0  0  0  0  0  0  0  0  0  0  0
    1.1183   -1.4145    2.5542 H   0  0  0  0  0  0  0  0  0  0  0  0
   -1.3088   -0.0350    3.3125 H   0  0  0  0  0  0  0  0  0  0  0  0
    1.0116    1.5681    2.0808 H   0  0  0  0  0  0  0  0  0  0  0  0
   -0.6289    2.1775    2.3307 H   0  0  0  0  0  0  0  0  0  0  0  0
    0.3882    1.7670    3.7245 H   0  0  0  0  0  0  0  0  0  0  0  0
   -1.9689    0.1350    0.8298 N   0  0  0  0  0  0  0  0  0  0  0  0
   -2.5039   -0.1183   -0.4830 C   0  0  2  0  0  0  0  0  0  0  0  0
   -3.0162    1.2004   -1.0519 C   0  0  0  0  0  0  0  0  0  0  0  0
   -3.7878    1.2633   -2.0067 O   0  0  0  0  0  0  0  0  0  0  0  0
   -3.5913   -1.1875   -0.4527 C   0  0  0  0  0  0  0  0  0  0  0  0
   -4.7232   -0.7188    0.2715 O   0  0  0  0  0  0  0  0  0  0  0  0
   -2.5276    0.6894    1.4750 H   0  0  0  0  0  0  0  0  0  0  0  0
   -1.6647   -0.4665   -1.0961 H   0  0  0  0  0  0  0  0  0  0  0  0
   -3.2319   -2.1004    0.0331 H   0  0  0  0  0  0  0  0  0  0  0  0
   -3.9163   -1.4352   -1.4688 H   0  0  0  0  0  0  0  0  0  0  0  0
   -5.0395    0.0744   -0.1894 H   0  0  0  0  0  0  0  0  0  0  0  0
   -2.5440    2.2944   -0.3406 N   0  0  0  0  0  0  0  0  0  0  0  0
   -2.9098    3.6541   -0.6629 C   0  0  2  0  0  0  0  0  0  0  0  0
   -4.3441    3.6466   -1.1750 C   0  0  0  0  0  0  0  0  0  0  0  0
   -4.8820    2.6477   -1.6484 O   0  0  0  0  0  0  0  0  0  0  0  0
   -1.9668    4.2507   -1.6961 C   0  0  0  0  0  0  0  0  0  0  0  0
   -1.9400    2.1451    0.4623 H   0  0  0  0  0  0  0  0  0  0  0  0
   -2.8577    4.2254    0.2704 H   0  0  0  0  0  0  0  0  0  0  0  0
   -2.0053    3.6916   -2.6381 H   0  0  0  0  0  0  0  0  0  0  0  0
   -2.2281    5.2906   -1.9182 H   0  0  0  0  0  0  0  0  0  0  0  0
   -0.9318    4.2281   -1.3382 H   0  0  0  0  0  0  0  0  0  0  0  0
   -4.9384    4.8972   -1.0811 N   0  0  0  0  0  0  0  0  0  0  0  0
   -6.2926    5.1513   -1.5140 C   0  0  0  0  0  0  0  0  0  0  0  0
   -4.4243    5.6642   -0.6578 H   0  0  0  0  0  0  0  0  0  0  0  0
   -6.2856    5.4962   -2.5586 H   0  0  0  0  0  0  0  0  0  0  0  0
   -6.8817    4.2255   -1.4377 H   0  0  0  0  0  0  0  0  0  0  0  0
   -6.7424    5.9258   -0.8754 H   0  0  0  0  0  0  0  0  0  0  0  0
  1  3  1  0  0  0  0
  1  7  1  0  0  0  0
  1  2  2  0  0  0  0
 29 30  1  0  0  0  0
 30 38  1  0  0  0  0
 30 31  2  0  0  0  0
  8  9  1  0  0  0  0
  9 17  1  0  0  0  0
  9 10  2  0  0  0  0
 18 19  1  0  0  0  0
 19 28  1  0  0  0  0
 19 20  2  0  0  0  0
 29 32  1  0  0  0  0
  8 11  1  0  0  0  0
 38 39  1  0  0  0  0
 18 21  1  0  0  0  0
 21 22  1  0  0  0  0
 28 29  1  0  0  0  0
  7  8  1  0  0  0  0
 17 18  1  0  0  0  0
  3  4  1  0  0  0  0
  3  5  1  0  0  0  0
  3  6  1  0  0  0  0
 32 35  1  0  0  0  0
 32 36  1  0  0  0  0
 32 37  1  0  0  0  0
 11 14  1  0  0  0  0
 11 15  1  0  0  0  0
 11 16  1  0  0  0  0
 39 41  1  0  0  0  0
 39 42  1  0  0  0  0
 39 43  1  0  0  0  0
 21 25  1  0  0  0  0
 21 26  1  0  0  0  0
 29 34  1  0  0  0  0
  8 13  1  0  0  0  0
 18 24  1  0  0  0  0
 38 40  1  0  0  0  0
  7 12  1  0  0  0  0
 28 33  1  0  0  0  0
 17 23  1  0  0  0  0
 22 27  1  0  0  0  0
M  END
$$$$

  -OEChem-05262214473D

 43 42  0     1  0  0  0  0  0999 V2000
    0.7424   -1.0926    4.5665 C   0  0  0  0  0  0  0  0  0  0  0  0
    0.1409   -0.5364    5.4779 O   0  0  0  0  0  0  0  0  0  0  0  0
    1.7940   -2.1023    4.8871 C   0  0  0  0  0  0  0  0  0  0  0  0
    2.7935   -1.6502    4.9904 H   0  0  0  0  0  0  0  0  0  0  0  0
    1.6064   -2.6156    5.8438 H   0  0  0  0  0  0  0  0  0  0  0  0
    1.9156   -2.9078    4.1453 H   0  0  0  0  0  0  0  0  0  0  0  0
    0.5488   -0.8838    3.2109 N   0  0  0  0  0  0  0  0  0  0  0  0
   -0.4159    0.0446    2.6829 C   0  0  2  0  0  0  0  0  0  0  0  0
   -0.7551   -0.3867    1.2623 C   0  0  0  0  0  0  0  0  0  0  0  0
   -0.0106   -1.0851    0.5774 O   0  0  0  0  0  0  0  0  0  0  0  0
    0.1168    1.4689    2.7060 C   0  0  0  0  0  0  0  0  0  0  0  0
    1.1183   -1.4145    2.5542 H   0  0  0  0  0  0  0  0  0  0  0  0
   -1.3088   -0.0350    3.3125 H   0  0  0  0  0  0  0  0  0  0  0  0
    1.0116    1.5681    2.0808 H   0  0  0  0  0  0  0  0  0  0  0  0
   -0.6289    2.1775    2.3307 H   0  0  0  0  0  0  0  0  0  0  0  0
    0.3882    1.7670    3.7245 H   0  0  0  0  0  0  0  0  0  0  0  0
   -1.9689    0.1350    0.8298 N   0  0  0  0  0  0  0  0  0  0  0  0
   -2.5039   -0.1183   -0.4830 C   0  0  2  0  0  0  0  0  0  0  0  0
   -3.0162    1.2004   -1.0519 C   0  0  0  0  0  0  0  0  0  0  0  0
   -3.9768    1.2724   -1.8154 O   0  0  0  0  0  0  0  0  0  0  0  0
   -3.5913   -1.1875   -0.4527 C   0  0  0  0  0  0  0  0  0  0  0  0
   -4.7232   -0.7188    0.2715 O   0  0  0  0  0  0  0  0  0  0  0  0
   -2.5276    0.6894    1.4750 H   0  0  0  0  0  0  0  0  0  0  0  0
   -1.6647   -0.4665   -1.0961 H   0  0  0  0  0  0  0  0  0  0  0  0
   -3.2319   -2.1004    0.0331 H   0  0  0  0  0  0  0  0  0  0  0  0
   -3.9163   -1.4352   -1.4688 H   0  0  0  0  0  0  0  0  0  0  0  0
   -5.0395    0.0744   -0.1894 H   0  0  0  0  0  0  0  0  0  0  0  0
   -2.3013    2.2888   -0.5723 N   0  0  0  0  0  0  0  0  0  0  0  0
   -2.6116    3.6513   -0.9380 C   0  0  2  0  0  0  0  0  0  0  0  0
   -4.1200    3.7576   -1.1194 C   0  0  0  0  0  0  0  0  0  0  0  0
   -4.8363    2.7886   -1.3630 O   0  0  0  0  0  0  0  0  0  0  0  0
   -1.8812    4.0639   -2.2064 C   0  0  0  0  0  0  0  0  0  0  0  0
   -1.5453    2.1374    0.0890 H   0  0  0  0  0  0  0  0  0  0  0  0
   -2.2987    4.2829   -0.0995 H   0  0  0  0  0  0  0  0  0  0  0  0
   -2.1818    3.4421   -3.0576 H   0  0  0  0  0  0  0  0  0  0  0  0
   -2.0951    5.1058   -2.4664 H   0  0  0  0  0  0  0  0  0  0  0  0
   -0.7978    3.9584   -2.0840 H   0  0  0  0  0  0  0  0  0  0  0  0
   -4.5666    5.0679   -1.0202 N   0  0  0  0  0  0  0  0  0  0  0  0
   -5.9566    5.4311   -1.1680 C   0  0  0  0  0  0  0  0  0  0  0  0
   -3.9050    5.8057   -0.7973 H   0  0  0  0  0  0  0  0  0  0  0  0
   -6.1582    5.6929   -2.2173 H   0  0  0  0  0  0  0  0  0  0  0  0
   -6.5907    4.5817   -0.8739 H   0  0  0  0  0  0  0  0  0  0  0  0
   -6.1800    6.2953   -0.5252 H   0  0  0  0  0  0  0  0  0  0  0  0
  1  3  1  0  0  0  0
  1  7  1  0  0  0  0
  1  2  2  0  0  0  0
 29 30  1  0  0  0  0
 30 38  1  0  0  0  0
 30 31  2  0  0  0  0
  8  9  1  0  0  0  0
  9 17  1  0  0  0  0
  9 10  2  0  0  0  0
 18 19  1  0  0  0  0
 19 28  1  0  0  0  0
 19 20  2  0  0  0  0
 29 32  1  0  0  0  0
  8 11  1  0  0  0  0
 38 39  1  0  0  0  0
 18 21  1  0  0  0  0
 21 22  1  0  0  0  0
 28 29  1  0  0  0  0
  7  8  1  0  0  0  0
 17 18  1  0  0  0  0
  3  4  1  0  0  0  0
  3  5  1  0  0  0  0
  3  6  1  0  0  0  0
 32 35  1  0  0  0  0
 32 36  1  0  0  0  0
 32 37  1  0  0  0  0
 11 14  1  0  0  0  0
 11 15  1  0  0  0  0
 11 16  1  0  0  0  0
 39 41  1  0  0  0  0
 39 42  1  0  0  0  0
 39 43  1  0  0  0  0
 21 25  1  0  0  0  0
 21 26  1  0  0  0  0
 29 34  1  0  0  0  0
  8 13  1  0  0  0  0
 18 24  1  0  0  0  0
 38 40  1  0  0  0  0
  7 12  1  0  0  0  0
 28 33  1  0  0  0  0
 17 23  1  0  0  0  0
 22 27  1  0  0  0  0
M  END
$$$$

  -OEChem-05262214473D

 43 42  0     1  0  0  0  0  0999 V2000
    0.7424   -1.0926    4.5665 C   0  0  0  0  0  0  0  0  0  0  0  0
    0.1409   -0.5364    5.4779 O   0  0  0  0  0  0  0  0  0  0  0  0
    1.7940   -2.1023    4.8871 C   0  0  0  0  0  0  0  0  0  0  0  0
    2.7935   -1.6502    4.9904 H   0  0  0  0  0  0  0  0  0  0  0  0
    1.6064   -2.6156    5.8438 H   0  0  0  0  0  0  0  0  0  0  0  0
    1.9156   -2.9078    4.1453 H   0  0  0  0  0  0  0  0  0  0  0  0
    0.5488   -0.8838    3.2109 N   0  0  0  0  0  0  0  0  0  0  0  0
   -0.4159    0.0446    2.6829 C   0  0  2  0  0  0  0  0  0  0  0  0
   -0.7551   -0.3867    1.2623 C   0  0  0  0  0  0  0  0  0  0  0  0
   -0.0106   -1.0851    0.5774 O   0  0  0  0  0  0  0  0  0  0  0  0
    0.1168    1.4689    2.7060 C   0  0  0  0  0  0  0  0  0  0  0  0
    1.1183   -1.4145    2.5542 H   0  0  0  0  0  0  0  0  0  0  0  0
   -1.3088   -0.0350    3.3125 H   0  0  0  0  0  0  0  0  0  0  0  0
    1.0116    1.5681    2.0808 H   0  0  0  0  0  0  0  0  0  0  0  0
   -0.6289    2.1775    2.3307 H   0  0  0  0  0  0  0  0  0  0  0  0
    0.3882    1.7670    3.7245 H   0  0  0  0  0  0  0  0  0  0  0  0
   -1.9689    0.1350    0.8298 N   0  0  0  0  0  0  0  0  0  0  0  0
   -2.5039   -0.1183   -0.4830 C   0  0  2  0  0  0  0  0  0  0  0  0
   -3.0162    1.2004   -1.0519 C   0  0  0  0  0  0  0  0  0  0  0  0
   -4.1157    1.3161   -1.5892 O   0  0  0  0  0  0  0  0  0  0  0  0
   -3.5913   -1.1875   -0.4527 C   0  0  0  0  0  0  0  0  0  0  0  0
   -4.7232   -0.7188    0.2715 O   0  0  0  0  0  0  0  0  0  0  0  0
   -2.5276    0.6894    1.4750 H   0  0  0  0  0  0  0  0  0  0  0  0
   -1.6647   -0.4665   -1.0961 H   0  0  0  0  0  0  0  0  0  0  0  0
   -3.2319   -2.1004    0.0331 H   0  0  0  0  0  0  0  0  0  0  0  0
   -3.9163   -1.4352   -1.4688 H   0  0  0  0  0  0  0  0  0  0  0  0
   -5.0395    0.0744   -0.1894 H   0  0  0  0  0  0  0  0  0  0  0  0
   -2.1191    2.2397   -0.8499 N   0  0  0  0  0  0  0  0  0  0  0  0
   -2.3855    3.5958   -1.2702 C   0  0  2  0  0  0  0  0  0  0  0  0
   -3.8805    3.8480   -1.1256 C   0  0  0  0  0  0  0  0  0  0  0  0
   -4.7146    2.9451   -1.1098 O   0  0  0  0  0  0  0  0  0  0  0  0
   -1.9307    3.8307   -2.7022 C   0  0  0  0  0  0  0  0  0  0  0  0
   -1.2483    2.0594   -0.3591 H   0  0  0  0  0  0  0  0  0  0  0  0
   -1.8360    4.2524   -0.5868 H   0  0  0  0  0  0  0  0  0  0  0  0
   -2.4703    3.1816   -3.4015 H   0  0  0  0  0  0  0  0  0  0  0  0
   -2.1072    4.8668   -3.0097 H   0  0  0  0  0  0  0  0  0  0  0  0
   -0.8613    3.6202   -2.8110 H   0  0  0  0  0  0  0  0  0  0  0  0
   -4.1774    5.2021   -1.0595 N   0  0  0  0  0  0  0  0  0  0  0  0
   -5.5276    5.6990   -0.9334 C   0  0  0  0  0  0  0  0  0  0  0  0
   -3.4210    5.8801   -1.0607 H   0  0  0  0  0  0  0  0  0  0  0  0
   -5.9397    5.9003   -1.9332 H   0  0  0  0  0  0  0  0  0  0  0  0
   -6.1490    4.9468   -0.4255 H   0  0  0  0  0  0  0  0  0  0  0  0
   -5.5227    6.6284   -0.3450 H   0  0  0  0  0  0  0  0  0  0  0  0
  1  3  1  0  0  0  0
  1  7  1  0  0  0  0
  1  2  2  0  0  0  0
 29 30  1  0  0  0  0
 30 38  1  0  0  0  0
 30 31  2  0  0  0  0
  8  9  1  0  0  0  0
  9 17  1  0  0  0  0
  9 10  2  0  0  0  0
 18 19  1  0  0  0  0
 19 28  1  0  0  0  0
 19 20  2  0  0  0  0
 29 32  1  0  0  0  0
  8 11  1  0  0  0  0
 38 39  1  0  0  0  0
 18 21  1  0  0  0  0
 21 22  1  0  0  0  0
 28 29  1  0  0  0  0
  7  8  1  0  0  0  0
 17 18  1  0  0  0  0
  3  4  1  0  0  0  0
  3  5  1  0  0  0  0
  3  6  1  0  0  0  0
 32 35  1  0  0  0  0
 32 36  1  0  0  0  0
 32 37  1  0  0  0  0
 11 14  1  0  0  0  0
 11 15  1  0  0  0  0
 11 16  1  0  0  0  0
 39 41  1  0  0  0  0
 39 42  1  0  0  0  0
 39 43  1  0  0  0  0
 21 25  1  0  0  0  0
 21 26  1  0  0  0  0
 29 34  1  0  0  0  0
  8 13  1  0  0  0  0
 18 24  1  0  0  0  0
 38 40  1  0  0  0  0
  7 12  1  0  0  0  0
 28 33  1  0  0  0  0
 17 23  1  0  0  0  0
 22 27  1  0  0  0  0
M  END
$$$$

  -OEChem-05262214473D

 43 42  0     1  0  0  0  0  0999 V2000
    0.7424   -1.0926    4.5665 C   0  0  0  0  0  0  0  0  0  0  0  0
    0.1409   -0.5364    5.4779 O   0  0  0  0  0  0  0  0  0  0  0  0
    1.7940   -2.1023    4.8871 C   0  0  0  0  0  0  0  0  0  0  0  0
    2.7935   -1.6502    4.9904 H   0  0  0  0  0  0  0  0  0  0  0  0
    1.6064   -2.6156    5.8438 H   0  0  0  0  0  0  0  0  0  0  0  0
    1.9156   -2.9078    4.1453 H   0  0  0  0  0  0  0  0  0  0  0  0
    0.5488   -0.8838    3.2109 N   0  0  0  0  0  0  0  0  0  0  0  0
   -0.4159    0.0446    2.6829 C   0  0  2  0  0  0  0  0  0  0  0  0
   -0.7551   -0.3867    1.2623 C   0  0  0  0  0  0  0  0  0  0  0  0
   -0.0106   -1.0851    0.5774 O   0  0  0  0  0  0  0  0  0  0  0  0
    0.1168    1.4689    2.7060 C   0  0  0  0  0  0  0  0  0  0  0  0
    1.1183   -1.4145    2.5542 H   0  0  0  0  0  0  0  0  0  0  0  0
   -1.3088   -0.0350    3.3125 H   0  0  0  0  0  0  0  0  0  0  0  0
    1.0116    1.5681    2.0808 H   0  0  0  0  0  0  0  0  0  0  0  0
   -0.6289    2.1775    2.3307 H   0  0  0  0  0  0  0  0  0  0  0  0
    0.3882    1.7670    3.7245 H   0  0  0  0  0  0  0  0  0  0  0  0
   -1.9689    0.1350    0.8298 N   0  0  0  0  0  0  0  0  0  0  0  0
   -2.5039   -0.1183   -0.4830 C   0  0  2  0  0  0  0  0  0  0  0  0
   -3.0162    1.2004   -1.0519 C   0  0  0  0  0  0  0  0  0  0  0  0
   -4.1950    1.3913   -1.3433 O   0  0  0  0  0  0  0  0  0  0  0  0
   -3.5913   -1.1875   -0.4527 C   0  0  0  0  0  0  0  0  0  0  0  0
   -4.7232   -0.7188    0.2715 O   0  0  0  0  0  0  0  0  0  0  0  0
   -2.5276    0.6894    1.4750 H   0  0  0  0  0  0  0  0  0  0  0  0
   -1.6647   -0.4665   -1.0961 H   0  0  0  0  0  0  0  0  0  0  0  0
   -3.2319   -2.1004    0.0331 H   0  0  0  0  0  0  0  0  0  0  0  0
   -3.9163   -1.4352   -1.4688 H   0  0  0  0  0  0  0  0  0  0  0  0
   -5.0395    0.0744   -0.1894 H   0  0  0  0  0  0  0  0  0  0  0  0
   -2.0101    2.1507   -1.1546 N   0  0  0  0  0  0  0  0  0  0  0  0
   -2.2468    3.4915   -1.6369 C   0  0  2  0  0  0  0  0  0  0  0  0
   -3.6417    3.9117   -1.1929 C   0  0  0  0  0  0  0  0  0  0  0  0
   -4.5252    3.1066   -0.9061 O   0  0  0  0  0  0  0  0  0  0  0  0
   -2.1120    3.5672   -3.1498 C   0  0  0  0  0  0  0  0  0  0  0  0
   -1.0693    1.9165   -0.8518 H   0  0  0  0  0  0  0  0  0  0  0  0
   -1.5011    4.1359   -1.1585 H   0  0  0  0  0  0  0  0  0  0  0  0
   -2.8510    2.9280   -3.6465 H   0  0  0  0  0  0  0  0  0  0  0  0
   -2.2635    4.5898   -3.5109 H   0  0  0  0  0  0  0  0  0  0  0  0
   -1.1180    3.2364   -3.4695 H   0  0  0  0  0  0  0  0  0  0  0  0
   -3.7972    5.2908   -1.1963 N   0  0  0  0  0  0  0  0  0  0  0  0
   -5.0348    5.9367   -0.8260 C   0  0  0  0  0  0  0  0  0  0  0  0
   -3.0052    5.8824   -1.4299 H   0  0  0  0  0  0  0  0  0  0  0  0
   -5.6451    6.1042   -1.7258 H   0  0  0  0  0  0  0  0  0  0  0  0
   -5.5868    5.2957   -0.1229 H   0  0  0  0  0  0  0  0  0  0  0  0
   -4.8153    6.9023   -0.3471 H   0  0  0  0  0  0  0  0  0  0  0  0
  1  3  1  0  0  0  0
  1  7  1  0  0  0  0
  1  2  2  0  0  0  0
 29 30  1  0  0  0  0
 30 38  1  0  0  0  0
 30 31  2  0  0  0  0
  8  9  1  0  0  0  0
  9 17  1  0  0  0  0
  9 10  2  0  0  0  0
 18 19  1  0  0  0  0
 19 28  1  0  0  0  0
 19 20  2  0  0  0  0
 29 32  1  0  0  0  0
  8 11  1  0  0  0  0
 38 39  1  0  0  0  0
 18 21  1  0  0  0  0
 21 22  1  0  0  0  0
 28 29  1  0  0  0  0
  7  8  1  0  0  0  0
 17 18  1  0  0  0  0
  3  4  1  0  0  0  0
  3  5  1  0  0  0  0
  3  6  1  0  0  0  0
 32 35  1  0  0  0  0
 32 36  1  0  0  0  0
 32 37  1  0  0  0  0
 11 14  1  0  0  0  0
 11 15  1  0  0  0  0
 11 16  1  0  0  0  0
 39 41  1  0  0  0  0
 39 42  1  0  0  0  0
 39 43  1  0  0  0  0
 21 25  1  0  0  0  0
 21 26  1  0  0  0  0
 29 34  1  0  0  0  0
  8 13  1  0  0  0  0
 18 24  1  0  0  0  0
 38 40  1  0  0  0  0
  7 12  1  0  0  0  0
 28 33  1  0  0  0  0
 17 23  1  0  0  0  0
 22 27  1  0  0  0  0
M  END
$$$$

  -OEChem-05262214473D

 43 42  0     1  0  0  0  0  0999 V2000
    0.7424   -1.0926    4.5665 C   0  0  0  0  0  0  0  0  0  0  0  0
    0.1409   -0.5364    5.4779 O   0  0  0  0  0  0  0  0  0  0  0  0
    1.7940   -2.1023    4.8871 C   0  0  0  0  0  0  0  0  0  0  0  0
    2.7935   -1.6502    4.9904 H   0  0  0  0  0  0  0  0  0  0  0  0
    1.6064   -2.6156    5.8438 H   0  0  0  0  0  0  0  0  0  0  0  0
    1.9156   -2.9078    4.1453 H   0  0  0  0  0  0  0  0  0  0  0  0
    0.5488   -0.8838    3.2109 N   0  0  0  0  0  0  0  0  0  0  0  0
   -0.4159    0.0446    2.6829 C   0  0  2  0  0  0  0  0  0  0  0  0
   -0.7551   -0.3867    1.2623 C   0  0  0  0  0  0  0  0  0  0  0  0
   -0.0106   -1.0851    0.5774 O   0  0  0  0  0  0  0  0  0  0  0  0
    0.1168    1.4689    2.7060 C   0  0  0  0  0  0  0  0  0  0  0  0
    1.1183   -1.4145    2.5542 H   0  0  0  0  0  0  0  0  0  0  0  0
   -1.3088   -0.0350    3.3125 H   0  0  0  0  0  0  0  0  0  0  0  0
    1.0116    1.5681    2.0808 H   0  0  0  0  0  0  0  0  0  0  0  0
   -0.6289    2.1775    2.3307 H   0  0  0  0  0  0  0  0  0  0  0  0
    0.3882    1.7670    3.7245 H   0  0  0  0  0  0  0  0  0  0  0  0
   -1.9689    0.1350    0.8298 N   0  0  0  0  0  0  0  0  0  0  0  0
   -2.5039   -0.1183   -0.4830 C   0  0  2  0  0  0  0  0  0  0  0  0
   -3.0162    1.2004   -1.0519 C   0  0  0  0  0  0  0  0  0  0  0  0
   -4.2093    1.4930   -1.0946 O   0  0  0  0  0  0  0  0  0  0  0  0
   -3.5913   -1.1875   -0.4527 C   0  0  0  0  0  0  0  0  0  0  0  0
   -4.7232   -0.7188    0.2715 O   0  0  0  0  0  0  0  0  0  0  0  0
   -2.5276    0.6894    1.4750 H   0  0  0  0  0  0  0  0  0  0  0  0
   -1.6647   -0.4665   -1.0961 H   0  0  0  0  0  0  0  0  0  0  0  0
   -3.2319   -2.1004    0.0331 H   0  0  0  0  0  0  0  0  0  0  0  0
   -3.9163   -1.4352   -1.4688 H   0  0  0  0  0  0  0  0  0  0  0  0
   -5.0395    0.0744   -0.1894 H   0  0  0  0  0  0  0  0  0  0  0  0
   -1.9816    2.0276   -1.4655 N   0  0  0  0  0  0  0  0  0  0  0  0
   -2.2049    3.3455   -2.0131 C   0  0  2  0  0  0  0  0  0  0  0  0
   -3.4200    3.9443   -1.3170 C   0  0  0  0  0  0  0  0  0  0  0  0
   -4.2812    3.2619   -0.7657 O   0  0  0  0  0  0  0  0  0  0  0  0
   -2.4128    3.2913   -3.5186 C   0  0  0  0  0  0  0  0  0  0  0  0
   -1.0205    1.7183   -1.3552 H   0  0  0  0  0  0  0  0  0  0  0  0
   -1.3168    3.9413   -1.7756 H   0  0  0  0  0  0  0  0  0  0  0  0
   -3.2982    2.6985   -3.7759 H   0  0  0  0  0  0  0  0  0  0  0  0
   -2.5535    4.2938   -3.9360 H   0  0  0  0  0  0  0  0  0  0  0  0
   -1.5504    2.8332   -4.0148 H   0  0  0  0  0  0  0  0  0  0  0  0
   -3.4521    5.3278   -1.4212 N   0  0  0  0  0  0  0  0  0  0  0  0
   -4.5118    6.1281   -0.8533 C   0  0  0  0  0  0  0  0  0  0  0  0
   -2.6861    5.8123   -1.8798 H   0  0  0  0  0  0  0  0  0  0  0  0
   -5.2944    6.2908   -1.6091 H   0  0  0  0  0  0  0  0  0  0  0  0
   -4.9423    5.6047    0.0132 H   0  0  0  0  0  0  0  0  0  0  0  0
   -4.1060    7.0984   -0.5312 H   0  0  0  0  0  0  0  0  0  0  0  0
  1  3  1  0  0  0  0
  1  7  1  0  0  0  0
  1  2  2  0  0  0  0
 29 30  1  0  0  0  0
 30 38  1  0  0  0  0
 30 31  2  0  0  0  0
  8  9  1  0  0  0  0
  9 17  1  0  0  0  0
  9 10  2  0  0  0  0
 18 19  1  0  0  0  0
 19 28  1  0  0  0  0
 19 20  2  0  0  0  0
 29 32  1  0  0  0  0
  8 11  1  0  0  0  0
 38 39  1  0  0  0  0
 18 21  1  0  0  0  0
 21 22  1  0  0  0  0
 28 29  1  0  0  0  0
  7  8  1  0  0  0  0
 17 18  1  0  0  0  0
  3  4  1  0  0  0  0
  3  5  1  0  0  0  0
  3  6  1  0  0  0  0
 32 35  1  0  0  0  0
 32 36  1  0  0  0  0
 32 37  1  0  0  0  0
 11 14  1  0  0  0  0
 11 15  1  0  0  0  0
 11 16  1  0  0  0  0
 39 41  1  0  0  0  0
 39 42  1  0  0  0  0
 39 43  1  0  0  0  0
 21 25  1  0  0  0  0
 21 26  1  0  0  0  0
 29 34  1  0  0  0  0
  8 13  1  0  0  0  0
 18 24  1  0  0  0  0
 38 40  1  0  0  0  0
  7 12  1  0  0  0  0
 28 33  1  0  0  0  0
 17 23  1  0  0  0  0
 22 27  1  0  0  0  0
M  END
$$$$

  -OEChem-05262214473D

 43 42  0     1  0  0  0  0  0999 V2000
    0.7424   -1.0926    4.5665 C   0  0  0  0  0  0  0  0  0  0  0  0
    0.1409   -0.5364    5.4779 O   0  0  0  0  0  0  0  0  0  0  0  0
    1.7940   -2.1023    4.8871 C   0  0  0  0  0  0  0  0  0  0  0  0
    2.7935   -1.6502    4.9904 H   0  0  0  0  0  0  0  0  0  0  0  0
    1.6064   -2.6156    5.8438 H   0  0  0  0  0  0  0  0  0  0  0  0
    1.9156   -2.9078    4.1453 H   0  0  0  0  0  0  0  0  0  0  0  0
    0.5488   -0.8838    3.2109 N   0  0  0  0  0  0  0  0  0  0  0  0
   -0.4159    0.0446    2.6829 C   0  0  2  0  0  0  0  0  0  0  0  0
   -0.7551   -0.3867    1.2623 C   0  0  0  0  0  0  0  0  0  0  0  0
   -0.0106   -1.0851    0.5774 O   0  0  0  0  0  0  0  0  0  0  0  0
    0.1168    1.4689    2.7060 C   0  0  0  0  0  0  0  0  0  0  0  0
    1.1183   -1.4145    2.5542 H   0  0  0  0  0  0  0  0  0  0  0  0
   -1.3088   -0.0350    3.3125 H   0  0  0  0  0  0  0  0  0  0  0  0
    1.0116    1.5681    2.0808 H   0  0  0  0  0  0  0  0  0  0  0  0
   -0.6289    2.1775    2.3307 H   0  0  0  0  0  0  0  0  0  0  0  0
    0.3882    1.7670    3.7245 H   0  0  0  0  0  0  0  0  0  0  0  0
   -1.9689    0.1350    0.8298 N   0  0  0  0  0  0  0  0  0  0  0  0
   -2.5039   -0.1183   -0.4830 C   0  0  2  0  0  0  0  0  0  0  0  0
   -3.0162    1.2004   -1.0519 C   0  0  0  0  0  0  0  0  0  0  0  0
   -4.1576    1.6143   -0.8601 O   0  0  0  0  0  0  0  0  0  0  0  0
   -3.5913   -1.1875   -0.4527 C   0  0  0  0  0  0  0  0  0  0  0  0
   -4.7232   -0.7188    0.2715 O   0  0  0  0  0  0  0  0  0  0  0  0
   -2.5276    0.6894    1.4750 H   0  0  0  0  0  0  0  0  0  0  0  0
   -1.6647   -0.4665   -1.0961 H   0  0  0  0  0  0  0  0  0  0  0  0
   -3.2319   -2.1004    0.0331 H   0  0  0  0  0  0  0  0  0  0  0  0
   -3.9163   -1.4352   -1.4688 H   0  0  0  0  0  0  0  0  0  0  0  0
   -5.0395    0.0744   -0.1894 H   0  0  0  0  0  0  0  0  0  0  0  0
   -2.0356    1.8789   -1.7616 N   0  0  0  0  0  0  0  0  0  0  0  0
   -2.2628    3.1677   -2.3731 C   0  0  2  0  0  0  0  0  0  0  0  0
   -3.2305    3.9435   -1.4893 C   0  0  0  0  0  0  0  0  0  0  0  0
   -3.9990    3.4006   -0.6983 O   0  0  0  0  0  0  0  0  0  0  0  0
   -2.8125    3.0217   -3.7835 C   0  0  0  0  0  0  0  0  0  0  0  0
   -1.1051    1.4783   -1.8352 H   0  0  0  0  0  0  0  0  0  0  0  0
   -1.2958    3.6819   -2.3959 H   0  0  0  0  0  0  0  0  0  0  0  0
   -3.7812    2.5088   -3.7808 H   0  0  0  0  0  0  0  0  0  0  0  0
   -2.9573    3.9989   -4.2560 H   0  0  0  0  0  0  0  0  0  0  0  0
   -2.1291    2.4381   -4.4097 H   0  0  0  0  0  0  0  0  0  0  0  0
   -3.1655    5.3107   -1.7189 N   0  0  0  0  0  0  0  0  0  0  0  0
   -3.9943    6.2601   -1.0134 C   0  0  0  0  0  0  0  0  0  0  0  0
   -2.4852    5.6746   -2.3797 H   0  0  0  0  0  0  0  0  0  0  0  0
   -4.9115    6.4473   -1.5911 H   0  0  0  0  0  0  0  0  0  0  0  0
   -4.2594    5.8529   -0.0266 H   0  0  0  0  0  0  0  0  0  0  0  0
   -3.4432    7.2033   -0.8848 H   0  0  0  0  0  0  0  0  0  0  0  0
  1  3  1  0  0  0  0
  1  7  1  0  0  0  0
  1  2  2  0  0  0  0
 29 30  1  0  0  0  0
 30 38  1  0  0  0  0
 30 31  2  0  0  0  0
  8  9  1  0  0  0  0
  9 17  1  0  0  0  0
  9 10  2  0  0  0  0
 18 19  1  0  0  0  0
 19 28  1  0  0  0  0
 19 20  2  0  0  0  0
 29 32  1  0  0  0  0
  8 11  1  0  0  0  0
 38 39  1  0  0  0  0
 18 21  1  0  0  0  0
 21 22  1  0  0  0  0
 28 29  1  0  0  0  0
  7  8  1  0  0  0  0
 17 18  1  0  0  0  0
  3  4  1  0  0  0  0
  3  5  1  0  0  0  0
  3  6  1  0  0  0  0
 32 35  1  0  0  0  0
 32 36  1  0  0  0  0
 32 37  1  0  0  0  0
 11 14  1  0  0  0  0
 11 15  1  0  0  0  0
 11 16  1  0  0  0  0
 39 41  1  0  0  0  0
 39 42  1  0  0  0  0
 39 43  1  0  0  0  0
 21 25  1  0  0  0  0
 21 26  1  0  0  0  0
 29 34  1  0  0  0  0
  8 13  1  0  0  0  0
 18 24  1  0  0  0  0
 38 40  1  0  0  0  0
  7 12  1  0  0  0  0
 28 33  1  0  0  0  0
 17 23  1  0  0  0  0
 22 27  1  0  0  0  0
M  END
$$$$

  -OEChem-05262214473D

 43 42  0     1  0  0  0  0  0999 V2000
    0.7424   -1.0926    4.5665 C   0  0  0  0  0  0  0  0  0  0  0  0
    0.1409   -0.5364    5.4779 O   0  0  0  0  0  0  0  0  0  0  0  0
    1.7940   -2.1023    4.8871 C   0  0  0  0  0  0  0  0  0  0  0  0
    2.7935   -1.6502    4.9904 H   0  0  0  0  0  0  0  0  0  0  0  0
    1.6064   -2.6156    5.8438 H   0  0  0  0  0  0  0  0  0  0  0  0
    1.9156   -2.9078    4.1453 H   0  0  0  0  0  0  0  0  0  0  0  0
    0.5488   -0.8838    3.2109 N   0  0  0  0  0  0  0  0  0  0  0  0
   -0.4159    0.0446    2.6829 C   0  0  2  0  0  0  0  0  0  0  0  0
   -0.7551   -0.3867    1.2623 C   0  0  0  0  0  0  0  0  0  0  0  0
   -0.0106   -1.0851    0.5774 O   0  0  0  0  0  0  0  0  0  0  0  0
    0.1168    1.4689    2.7060 C   0  0  0  0  0  0  0  0  0  0  0  0
    1.1183   -1.4145    2.5542 H   0  0  0  0  0  0  0  0  0  0  0  0
   -1.3088   -0.0350    3.3125 H   0  0  0  0  0  0  0  0  0  0  0  0
    1.0116    1.5681    2.0808 H   0  0  0  0  0  0  0  0  0  0  0  0
   -0.6289    2.1775    2.3307 H   0  0  0  0  0  0  0  0  0  0  0  0
    0.3882    1.7670    3.7245 H   0  0  0  0  0  0  0  0  0  0  0  0
   -1.9689    0.1350    0.8298 N   0  0  0  0  0  0  0  0  0  0  0  0
   -2.5039   -0.1183   -0.4830 C   0  0  2  0  0  0  0  0  0  0  0  0
   -3.0162    1.2004   -1.0519 C   0  0  0  0  0  0  0  0  0  0  0  0
   -4.0435    1.7468   -0.6556 O   0  0  0  0  0  0  0  0  0  0  0  0
   -3.5913   -1.1875   -0.4527 C   0  0  0  0  0  0  0  0  0  0  0  0
   -4.7232   -0.7188    0.2715 O   0  0  0  0  0  0  0  0  0  0  0  0
   -2.5276    0.6894    1.4750 H   0  0  0  0  0  0  0  0  0  0  0  0
   -1.6647   -0.4665   -1.0961 H   0  0  0  0  0  0  0  0  0  0  0  0
   -3.2319   -2.1004    0.0331 H   0  0  0  0  0  0  0  0  0  0  0  0
   -3.9163   -1.4352   -1.4688 H   0  0  0  0  0  0  0  0  0  0  0  0
   -5.0395    0.0744   -0.1894 H   0  0  0  0  0  0  0  0  0  0  0  0
   -2.1683    1.7148   -2.0225 N   0  0  0  0  0  0  0  0  0  0  0  0
   -2.4165    2.9703   -2.6924 C   0  0  2  0  0  0  0  0  0  0  0  0
   -3.0861    3.9096   -1.6981 C   0  0  0  0  0  0  0  0  0  0  0  0
   -3.6980    3.5132   -0.7083 O   0  0  0  0  0  0  0  0  0  0  0  0
   -3.2839    2.7769   -3.9265 C   0  0  0  0  0  0  0  0  0  0  0  0
   -1.3175    1.2130   -2.2591 H   0  0  0  0  0  0  0  0  0  0  0  0
   -1.4393    3.3753   -2.9773 H   0  0  0  0  0  0  0  0  0  0  0  0
   -4.2671    2.3717   -3.6609 H   0  0  0  0  0  0  0  0  0  0  0  0
   -3.4474    3.7252   -4.4491 H   0  0  0  0  0  0  0  0  0  0  0  0
   -2.8146    2.0779   -4.6272 H   0  0  0  0  0  0  0  0  0  0  0  0
   -2.9569    5.2407   -2.0692 N   0  0  0  0  0  0  0  0  0  0  0  0
   -3.5175    6.3237   -1.2953 C   0  0  0  0  0  0  0  0  0  0  0  0
   -2.4164    5.4788   -2.8955 H   0  0  0  0  0  0  0  0  0  0  0  0
   -4.5225    6.5630   -1.6731 H   0  0  0  0  0  0  0  0  0  0  0  0
   -3.5848    6.0231   -0.2393 H   0  0  0  0  0  0  0  0  0  0  0  0
   -2.8720    7.2099   -1.3839 H   0  0  0  0  0  0  0  0  0  0  0  0
  1  3  1  0  0  0  0
  1  7  1  0  0  0  0
  1  2  2  0  0  0  0
 29 30  1  0  0  0  0
 30 38  1  0  0  0  0
 30 31  2  0  0  0  0
  8  9  1  0  0  0  0
  9 17  1  0  0  0  0
  9 10  2  0  0  0  0
 18 19  1  0  0  0  0
 19 28  1  0  0  0  0
 19 20  2  0  0  0  0
 29 32  1  0  0  0  0
  8 11  1  0  0  0  0
 38 39  1  0  0  0  0
 18 21  1  0  0  0  0
 21 22  1  0  0  0  0
 28 29  1  0  0  0  0
  7  8  1  0  0  0  0
 17 18  1  0  0  0  0
  3  4  1  0  0  0  0
  3  5  1  0  0  0  0
  3  6  1  0  0  0  0
 32 35  1  0  0  0  0
 32 36  1  0  0  0  0
 32 37  1  0  0  0  0
 11 14  1  0  0  0  0
 11 15  1  0  0  0  0
 11 16  1  0  0  0  0
 39 41  1  0  0  0  0
 39 42  1  0  0  0  0
 39 43  1  0  0  0  0
 21 25  1  0  0  0  0
 21 26  1  0  0  0  0
 29 34  1  0  0  0  0
  8 13  1  0  0  0  0
 18 24  1  0  0  0  0
 38 40  1  0  0  0  0
  7 12  1  0  0  0  0
 28 33  1  0  0  0  0
 17 23  1  0  0  0  0
 22 27  1  0  0  0  0
M  END
$$$$

  -OEChem-05262214473D

 43 42  0     1  0  0  0  0  0999 V2000
    0.7424   -1.0926    4.5665 C   0  0  0  0  0  0  0  0  0  0  0  0
    0.1409   -0.5364    5.4779 O   0  0  0  0  0  0  0  0  0  0  0  0
    1.7940   -2.1023    4.8871 C   0  0  0  0  0  0  0  0  0  0  0  0
    2.7935   -1.6502    4.9904 H   0  0  0  0  0  0  0  0  0  0  0  0
    1.6064   -2.6156    5.8438 H   0  0  0  0  0  0  0  0  0  0  0  0
    1.9156   -2.9078    4.1453 H   0  0  0  0  0  0  0  0  0  0  0  0
    0.5488   -0.8838    3.2109 N   0  0  0  0  0  0  0  0  0  0  0  0
   -0.4159    0.0446    2.6829 C   0  0  2  0  0  0  0  0  0  0  0  0
   -0.7551   -0.3867    1.2623 C   0  0  0  0  0  0  0  0  0  0  0  0
   -0.0106   -1.0851    0.5774 O   0  0  0  0  0  0  0  0  0  0  0  0
    0.1168    1.4689    2.7060 C   0  0  0  0  0  0  0  0  0  0  0  0
    1.1183   -1.4145    2.5542 H   0  0  0  0  0  0  0  0  0  0  0  0
   -1.3088   -0.0350    3.3125 H   0  0  0  0  0  0  0  0  0  0  0  0
    1.0116    1.5681    2.0808 H   0  0  0  0  0  0  0  0  0  0  0  0
   -0.6289    2.1775    2.3307 H   0  0  0  0  0  0  0  0  0  0  0  0
    0.3882    1.7670    3.7245 H   0  0  0  0  0  0  0  0  0  0  0  0
   -1.9689    0.1350    0.8298 N   0  0  0  0  0  0  0  0  0  0  0  0
   -2.5039   -0.1183   -0.4830 C   0  0  2  0  0  0  0  0  0  0  0  0
   -3.0162    1.2004   -1.0519 C   0  0  0  0  0  0  0  0  0  0  0  0
   -3.8747    1.8816   -0.4952 O   0  0  0  0  0  0  0  0  0  0  0  0
   -3.5913   -1.1875   -0.4527 C   0  0  0  0  0  0  0  0  0  0  0  0
   -4.7232   -0.7188    0.2715 O   0  0  0  0  0  0  0  0  0  0  0  0
   -2.5276    0.6894    1.4750 H   0  0  0  0  0  0  0  0  0  0  0  0
   -1.6647   -0.4665   -1.0961 H   0  0  0  0  0  0  0  0  0  0  0  0
   -3.2319   -2.1004    0.0331 H   0  0  0  0  0  0  0  0  0  0  0  0
   -3.9163   -1.4352   -1.4688 H   0  0  0  0  0  0  0  0  0  0  0  0
   -5.0395    0.0744   -0.1894 H   0  0  0  0  0  0  0  0  0  0  0  0
   -2.3707    1.5464   -2.2306 N   0  0  0  0  0  0  0  0  0  0  0  0
   -2.6554    2.7666   -2.9494 C   0  0  2  0  0  0  0  0  0  0  0  0
   -2.9966    3.8447   -1.9291 C   0  0  0  0  0  0  0  0  0  0  0  0
   -3.3986    3.5921   -0.7952 O   0  0  0  0  0  0  0  0  0  0  0  0
   -3.7949    2.5735   -3.9378 C   0  0  0  0  0  0  0  0  0  0  0  0
   -1.6431    0.9403   -2.5979 H   0  0  0  0  0  0  0  0  0  0  0  0
   -1.7377    3.0425   -3.4801 H   0  0  0  0  0  0  0  0  0  0  0  0
   -4.7230    2.2966   -3.4245 H   0  0  0  0  0  0  0  0  0  0  0  0
   -3.9905    3.4914   -4.5020 H   0  0  0  0  0  0  0  0  0  0  0  0
   -3.5602    1.7774   -4.6525 H   0  0  0  0  0  0  0  0  0  0  0  0
   -2.8406    5.1224   -2.4481 N   0  0  0  0  0  0  0  0  0  0  0  0
   -3.1139    6.3146   -1.6799 C   0  0  0  0  0  0  0  0  0  0  0  0
   -2.4843    5.2382   -3.3922 H   0  0  0  0  0  0  0  0  0  0  0  0
   -4.1539    6.6302   -1.8494 H   0  0  0  0  0  0  0  0  0  0  0  0
   -2.9643    6.1040   -0.6107 H   0  0  0  0  0  0  0  0  0  0  0  0
   -2.4313    7.1177   -1.9945 H   0  0  0  0  0  0  0  0  0  0  0  0
  1  3  1  0  0  0  0
  1  7  1  0  0  0  0
  1  2  2  0  0  0  0
 29 30  1  0  0  0  0
 30 38  1  0  0  0  0
 30 31  2  0  0  0  0
  8  9  1  0  0  0  0
  9 17  1  0  0  0  0
  9 10  2  0  0  0  0
 18 19  1  0  0  0  0
 19 28  1  0  0  0  0
 19 20  2  0  0  0  0
 29 32  1  0  0  0  0
  8 11  1  0  0  0  0
 38 39  1  0  0  0  0
 18 21  1  0  0  0  0
 21 22  1  0  0  0  0
 28 29  1  0  0  0  0
  7  8  1  0  0  0  0
 17 18  1  0  0  0  0
  3  4  1  0  0  0  0
  3  5  1  0  0  0  0
  3  6  1  0  0  0  0
 32 35  1  0  0  0  0
 32 36  1  0  0  0  0
 32 37  1  0  0  0  0
 11 14  1  0  0  0  0
 11 15  1  0  0  0  0
 11 16  1  0  0  0  0
 39 41  1  0  0  0  0
 39 42  1  0  0  0  0
 39 43  1  0  0  0  0
 21 25  1  0  0  0  0
 21 26  1  0  0  0  0
 29 34  1  0  0  0  0
  8 13  1  0  0  0  0
 18 24  1  0  0  0  0
 38 40  1  0  0  0  0
  7 12  1  0  0  0  0
 28 33  1  0  0  0  0
 17 23  1  0  0  0  0
 22 27  1  0  0  0  0
M  END
$$$$

  -OEChem-05262214473D

 43 42  0     1  0  0  0  0  0999 V2000
    0.7424   -1.0926    4.5665 C   0  0  0  0  0  0  0  0  0  0  0  0
    0.1409   -0.5364    5.4779 O   0  0  0  0  0  0  0  0  0  0  0  0
    1.7940   -2.1023    4.8871 C   0  0  0  0  0  0  0  0  0  0  0  0
    2.7935   -1.6502    4.9904 H   0  0  0  0  0  0  0  0  0  0  0  0
    1.6064   -2.6156    5.8438 H   0  0  0  0  0  0  0  0  0  0  0  0
    1.9156   -2.9078    4.1453 H   0  0  0  0  0  0  0  0  0  0  0  0
    0.5488   -0.8838    3.2109 N   0  0  0  0  0  0  0  0  0  0  0  0
   -0.4159    0.0446    2.6829 C   0  0  2  0  0  0  0  0  0  0  0  0
   -0.7551   -0.3867    1.2623 C   0  0  0  0  0  0  0  0  0  0  0  0
   -0.0106   -1.0851    0.5774 O   0  0  0  0  0  0  0  0  0  0  0  0
    0.1168    1.4689    2.7060 C   0  0  0  0  0  0  0  0  0  0  0  0
    1.1183   -1.4145    2.5542 H   0  0  0  0  0  0  0  0  0  0  0  0
   -1.3088   -0.0350    3.3125 H   0  0  0  0  0  0  0  0  0  0  0  0
    1.0116    1.5681    2.0808 H   0  0  0  0  0  0  0  0  0  0  0  0
   -0.6289    2.1775    2.3307 H   0  0  0  0  0  0  0  0  0  0  0  0
    0.3882    1.7670    3.7245 H   0  0  0  0  0  0  0  0  0  0  0  0
   -1.9689    0.1350    0.8298 N   0  0  0  0  0  0  0  0  0  0  0  0
   -2.5039   -0.1183   -0.4830 C   0  0  2  0  0  0  0  0  0  0  0  0
   -3.0162    1.2004   -1.0519 C   0  0  0  0  0  0  0  0  0  0  0  0
   -3.6627    2.0095   -0.3897 O   0  0  0  0  0  0  0  0  0  0  0  0
   -3.5913   -1.1875   -0.4527 C   0  0  0  0  0  0  0  0  0  0  0  0
   -4.7232   -0.7188    0.2715 O   0  0  0  0  0  0  0  0  0  0  0  0
   -2.5276    0.6894    1.4750 H   0  0  0  0  0  0  0  0  0  0  0  0
   -1.6647   -0.4665   -1.0961 H   0  0  0  0  0  0  0  0  0  0  0  0
   -3.2319   -2.1004    0.0331 H   0  0  0  0  0  0  0  0  0  0  0  0
   -3.9163   -1.4352   -1.4688 H   0  0  0  0  0  0  0  0  0  0  0  0
   -5.0395    0.0744   -0.1894 H   0  0  0  0  0  0  0  0  0  0  0  0
   -2.6291    1.3852   -2.3716 N   0  0  0  0  0  0  0  0  0  0  0  0
   -2.9634    2.5706   -3.1263 C   0  0  2  0  0  0  0  0  0  0  0  0
   -2.9682    3.7533   -2.1667 C   0  0  0  0  0  0  0  0  0  0  0  0
   -3.1212    3.6317   -0.9531 O   0  0  0  0  0  0  0  0  0  0  0  0
   -4.3107    2.4255   -3.8167 C   0  0  0  0  0  0  0  0  0  0  0  0
   -2.0598    0.6789   -2.8285 H   0  0  0  0  0  0  0  0  0  0  0  0
   -2.1706    2.7062   -3.8700 H   0  0  0  0  0  0  0  0  0  0  0  0
   -5.1176    2.2887   -3.0875 H   0  0  0  0  0  0  0  0  0  0  0  0
   -4.5495    3.3134   -4.4113 H   0  0  0  0  0  0  0  0  0  0  0  0
   -4.3151    1.5568   -4.4840 H   0  0  0  0  0  0  0  0  0  0  0  0
   -2.8245    4.9640   -2.8298 N   0  0  0  0  0  0  0  0  0  0  0  0
   -2.8110    6.2333   -2.1410 C   0  0  0  0  0  0  0  0  0  0  0  0
   -2.6844    4.9691   -3.8358 H   0  0  0  0  0  0  0  0  0  0  0  0
   -3.8309    6.6441   -2.1080 H   0  0  0  0  0  0  0  0  0  0  0  0
   -2.4403    6.0899   -1.1153 H   0  0  0  0  0  0  0  0  0  0  0  0
   -2.1512    6.9331   -2.6748 H   0  0  0  0  0  0  0  0  0  0  0  0
  1  3  1  0  0  0  0
  1  7  1  0  0  0  0
  1  2  2  0  0  0  0
 29 30  1  0  0  0  0
 30 38  1  0  0  0  0
 30 31  2  0  0  0  0
  8  9  1  0  0  0  0
  9 17  1  0  0  0  0
  9 10  2  0  0  0  0
 18 19  1  0  0  0  0
 19 28  1  0  0  0  0
 19 20  2  0  0  0  0
 29 32  1  0  0  0  0
  8 11  1  0  0  0  0
 38 39  1  0  0  0  0
 18 21  1  0  0  0  0
 21 22  1  0  0  0  0
 28 29  1  0  0  0  0
  7  8  1  0  0  0  0
 17 18  1  0  0  0  0
  3  4  1  0  0  0  0
  3  5  1  0  0  0  0
  3  6  1  0  0  0  0
 32 35  1  0  0  0  0
 32 36  1  0  0  0  0
 32 37  1  0  0  0  0
 11 14  1  0  0  0  0
 11 15  1  0  0  0  0
 11 16  1  0  0  0  0
 39 41  1  0  0  0  0
 39 42  1  0  0  0  0
 39 43  1  0  0  0  0
 21 25  1  0  0  0  0
 21 26  1  0  0  0  0
 29 34  1  0  0  0  0
  8 13  1  0  0  0  0
 18 24  1  0  0  0  0
 38 40  1  0  0  0  0
  7 12  1  0  0  0  0
 28 33  1  0  0  0  0
 17 23  1  0  0  0  0
 22 27  1  0  0  0  0
M  END
$$$$

  -OEChem-05262214473D

 43 42  0     1  0  0  0  0  0999 V2000
    0.7424   -1.0926    4.5665 C   0  0  0  0  0  0  0  0  0  0  0  0
    0.1409   -0.5364    5.4779 O   0  0  0  0  0  0  0  0  0  0  0  0
    1.7940   -2.1023    4.8871 C   0  0  0  0  0  0  0  0  0  0  0  0
    2.7935   -1.6502    4.9904 H   0  0  0  0  0  0  0  0  0  0  0  0
    1.6064   -2.6156    5.8438 H   0  0  0  0  0  0  0  0  0  0  0  0
    1.9156   -2.9078    4.1453 H   0  0  0  0  0  0  0  0  0  0  0  0
    0.5488   -0.8838    3.2109 N   0  0  0  0  0  0  0  0  0  0  0  0
   -0.4159    0.0446    2.6829 C   0  0  2  0  0  0  0  0  0  0  0  0
   -0.7551   -0.3867    1.2623 C   0  0  0  0  0  0  0  0  0  0  0  0
   -0.0106   -1.0851    0.5774 O   0  0  0  0  0  0  0  0  0  0  0  0
    0.1168    1.4689    2.7060 C   0  0  0  0  0  0  0  0  0  0  0  0
    1.1183   -1.4145    2.5542 H   0  0  0  0  0  0  0  0  0  0  0  0
   -1.3088   -0.0350    3.3125 H   0  0  0  0  0  0  0  0  0  0  0  0
    1.0116    1.5681    2.0808 H   0  0  0  0  0  0  0  0  0  0  0  0
   -0.6289    2.1775    2.3307 H   0  0  0  0  0  0  0  0  0  0  0  0
    0.3882    1.7670    3.7245 H   0  0  0  0  0  0  0  0  0  0  0  0
   -1.9689    0.1350    0.8298 N   0  0  0  0  0  0  0  0  0  0  0  0
   -2.5039   -0.1183   -0.4830 C   0  0  2  0  0  0  0  0  0  0  0  0
   -3.0162    1.2004   -1.0519 C   0  0  0  0  0  0  0  0  0  0  0  0
   -3.4220    2.1216   -0.3464 O   0  0  0  0  0  0  0  0  0  0  0  0
   -3.5913   -1.1875   -0.4527 C   0  0  0  0  0  0  0  0  0  0  0  0
   -4.7232   -0.7188    0.2715 O   0  0  0  0  0  0  0  0  0  0  0  0
   -2.5276    0.6894    1.4750 H   0  0  0  0  0  0  0  0  0  0  0  0
   -1.6647   -0.4665   -1.0961 H   0  0  0  0  0  0  0  0  0  0  0  0
   -3.2319   -2.1004    0.0331 H   0  0  0  0  0  0  0  0  0  0  0  0
   -3.9163   -1.4352   -1.4688 H   0  0  0  0  0  0  0  0  0  0  0  0
   -5.0395    0.0744   -0.1894 H   0  0  0  0  0  0  0  0  0  0  0  0
   -2.9259    1.2421   -2.4360 N   0  0  0  0  0  0  0  0  0  0  0  0
   -3.3195    2.3957   -3.2112 C   0  0  2  0  0  0  0  0  0  0  0  0
   -3.0027    3.6415   -2.3946 C   0  0  0  0  0  0  0  0  0  0  0  0
   -2.8848    3.6295   -1.1710 O   0  0  0  0  0  0  0  0  0  0  0  0
   -4.7961    2.3427   -3.5713 C   0  0  0  0  0  0  0  0  0  0  0  0
   -2.5392    0.4467   -2.9353 H   0  0  0  0  0  0  0  0  0  0  0  0
   -2.7085    2.3891   -4.1205 H   0  0  0  0  0  0  0  0  0  0  0  0
   -5.4241    2.3485   -2.6730 H   0  0  0  0  0  0  0  0  0  0  0  0
   -5.0864    3.2033   -4.1830 H   0  0  0  0  0  0  0  0  0  0  0  0
   -5.0278    1.4314   -4.1330 H   0  0  0  0  0  0  0  0  0  0  0  0
   -2.9097    4.7762   -3.1883 N   0  0  0  0  0  0  0  0  0  0  0  0
   -2.6295    6.0855   -2.6470 C   0  0  0  0  0  0  0  0  0  0  0  0
   -3.0028    4.6900   -4.1961 H   0  0  0  0  0  0  0  0  0  0  0  0
   -3.5754    6.6038   -2.4313 H   0  0  0  0  0  0  0  0  0  0  0  0
   -2.0484    5.9817   -1.7188 H   0  0  0  0  0  0  0  0  0  0  0  0
   -2.0507    6.6685   -3.3786 H   0  0  0  0  0  0  0  0  0  0  0  0
  1  3  1  0  0  0  0
  1  7  1  0  0  0  0
  1  2  2  0  0  0  0
 29 30  1  0  0  0  0
 30 38  1  0  0  0  0
 30 31  2  0  0  0  0
  8  9  1  0  0  0  0
  9 17  1  0  0  0  0
  9 10  2  0  0  0  0
 18 19  1  0  0  0  0
 19 28  1  0  0  0  0
 19 20  2  0  0  0  0
 29 32  1  0  0  0  0
  8 11  1  0  0  0  0
 38 39  1  0  0  0  0
 18 21  1  0  0  0  0
 21 22  1  0  0  0  0
 28 29  1  0  0  0  0
  7  8  1  0  0  0  0
 17 18  1  0  0  0  0
  3  4  1  0  0  0  0
  3  5  1  0  0  0  0
  3  6  1  0  0  0  0
 32 35  1  0  0  0  0
 32 36  1  0  0  0  0
 32 37  1  0  0  0  0
 11 14  1  0  0  0  0
 11 15  1  0  0  0  0
 11 16  1  0  0  0  0
 39 41  1  0  0  0  0
 39 42  1  0  0  0  0
 39 43  1  0  0  0  0
 21 25  1  0  0  0  0
 21 26  1  0  0  0  0
 29 34  1  0  0  0  0
  8 13  1  0  0  0  0
 18 24  1  0  0  0  0
 38 40  1  0  0  0  0
  7 12  1  0  0  0  0
 28 33  1  0  0  0  0
 17 23  1  0  0  0  0
 22 27  1  0  0  0  0
M  END
$$$$

  -OEChem-05262214473D

 43 42  0     1  0  0  0  0  0999 V2000
    0.7424   -1.0926    4.5665 C   0  0  0  0  0  0  0  0  0  0  0  0
    0.1409   -0.5364    5.4779 O   0  0  0  0  0  0  0  0  0  0  0  0
    1.7940   -2.1023    4.8871 C   0  0  0  0  0  0  0  0  0  0  0  0
    2.7935   -1.6502    4.9904 H   0  0  0  0  0  0  0  0  0  0  0  0
    1.6064   -2.6156    5.8438 H   0  0  0  0  0  0  0  0  0  0  0  0
    1.9156   -2.9078    4.1453 H   0  0  0  0  0  0  0  0  0  0  0  0
    0.5488   -0.8838    3.2109 N   0  0  0  0  0  0  0  0  0  0  0  0
   -0.4159    0.0446    2.6829 C   0  0  2  0  0  0  0  0  0  0  0  0
   -0.7551   -0.3867    1.2623 C   0  0  0  0  0  0  0  0  0  0  0  0
   -0.0106   -1.0851    0.5774 O   0  0  0  0  0  0  0  0  0  0  0  0
    0.1168    1.4689    2.7060 C   0  0  0  0  0  0  0  0  0  0  0  0
    1.1183   -1.4145    2.5542 H   0  0  0  0  0  0  0  0  0  0  0  0
   -1.3088   -0.0350    3.3125 H   0  0  0  0  0  0  0  0  0  0  0  0
    1.0116    1.5681    2.0808 H   0  0  0  0  0  0  0  0  0  0  0  0
   -0.6289    2.1775    2.3307 H   0  0  0  0  0  0  0  0  0  0  0  0
    0.3882    1.7670    3.7245 H   0  0  0  0  0  0  0  0  0  0  0  0
   -1.9689    0.1350    0.8298 N   0  0  0  0  0  0  0  0  0  0  0  0
   -2.5039   -0.1183   -0.4830 C   0  0  2  0  0  0  0  0  0  0  0  0
   -3.0162    1.2004   -1.0519 C   0  0  0  0  0  0  0  0  0  0  0  0
   -3.1690    2.2105   -0.3682 O   0  0  0  0  0  0  0  0  0  0  0  0
   -3.5913   -1.1875   -0.4527 C   0  0  0  0  0  0  0  0  0  0  0  0
   -4.7232   -0.7188    0.2715 O   0  0  0  0  0  0  0  0  0  0  0  0
   -2.5276    0.6894    1.4750 H   0  0  0  0  0  0  0  0  0  0  0  0
   -1.6647   -0.4665   -1.0961 H   0  0  0  0  0  0  0  0  0  0  0  0
   -3.2319   -2.1004    0.0331 H   0  0  0  0  0  0  0  0  0  0  0  0
   -3.9163   -1.4352   -1.4688 H   0  0  0  0  0  0  0  0  0  0  0  0
   -5.0395    0.0744   -0.1894 H   0  0  0  0  0  0  0  0  0  0  0  0
   -3.2407    1.1270   -2.4193 N   0  0  0  0  0  0  0  0  0  0  0  0
   -3.6993    2.2537   -3.1984 C   0  0  2  0  0  0  0  0  0  0  0  0
   -3.0978    3.5171   -2.5973 C   0  0  0  0  0  0  0  0  0  0  0  0
   -2.7054    3.5856   -1.4343 O   0  0  0  0  0  0  0  0  0  0  0  0
   -5.2180    2.3310   -3.2185 C   0  0  0  0  0  0  0  0  0  0  0  0
   -3.0486    0.2593   -2.9110 H   0  0  0  0  0  0  0  0  0  0  0  0
   -3.3148    2.1131   -4.2144 H   0  0  0  0  0  0  0  0  0  0  0  0
   -5.6216    2.4718   -2.2092 H   0  0  0  0  0  0  0  0  0  0  0  0
   -5.5645    3.1687   -3.8328 H   0  0  0  0  0  0  0  0  0  0  0  0
   -5.6498    1.4095   -3.6236 H   0  0  0  0  0  0  0  0  0  0  0  0
   -3.0904    4.5719   -3.4993 N   0  0  0  0  0  0  0  0  0  0  0  0
   -2.5817    5.8813   -3.1636 C   0  0  0  0  0  0  0  0  0  0  0  0
   -3.4180    4.4198   -4.4486 H   0  0  0  0  0  0  0  0  0  0  0  0
   -3.4049    6.5122   -2.7973 H   0  0  0  0  0  0  0  0  0  0  0  0
   -1.8155    5.7870   -2.3800 H   0  0  0  0  0  0  0  0  0  0  0  0
   -2.1368    6.3420   -4.0579 H   0  0  0  0  0  0  0  0  0  0  0  0
  1  3  1  0  0  0  0
  1  7  1  0  0  0  0
  1  2  2  0  0  0  0
 29 30  1  0  0  0  0
 30 38  1  0  0  0  0
 30 31  2  0  0  0  0
  8  9  1  0  0  0  0
  9 17  1  0  0  0  0
  9 10  2  0  0  0  0
 18 19  1  0  0  0  0
 19 28  1  0  0  0  0
 19 20  2  0  0  0  0
 29 32  1  0  0  0  0
  8 11  1  0  0  0  0
 38 39  1  0  0  0  0
 18 21  1  0  0  0  0
 21 22  1  0  0  0  0
 28 29  1  0  0  0  0
  7  8  1  0  0  0  0
 17 18  1  0  0  0  0
  3  4  1  0  0  0  0
  3  5  1  0  0  0  0
  3  6  1  0  0  0  0
 32 35  1  0  0  0  0
 32 36  1  0  0  0  0
 32 37  1  0  0  0  0
 11 14  1  0  0  0  0
 11 15  1  0  0  0  0
 11 16  1  0  0  0  0
 39 41  1  0  0  0  0
 39 42  1  0  0  0  0
 39 43  1  0  0  0  0
 21 25  1  0  0  0  0
 21 26  1  0  0  0  0
 29 34  1  0  0  0  0
  8 13  1  0  0  0  0
 18 24  1  0  0  0  0
 38 40  1  0  0  0  0
  7 12  1  0  0  0  0
 28 33  1  0  0  0  0
 17 23  1  0  0  0  0
 22 27  1  0  0  0  0
M  END
$$$$

  -OEChem-05262214473D

 43 42  0     1  0  0  0  0  0999 V2000
    0.7424   -1.0926    4.5665 C   0  0  0  0  0  0  0  0  0  0  0  0
    0.1409   -0.5364    5.4779 O   0  0  0  0  0  0  0  0  0  0  0  0
    1.7940   -2.1023    4.8871 C   0  0  0  0  0  0  0  0  0  0  0  0
    2.7935   -1.6502    4.9904 H   0  0  0  0  0  0  0  0  0  0  0  0
    1.6064   -2.6156    5.8438 H   0  0  0  0  0  0  0  0  0  0  0  0
    1.9156   -2.9078    4.1453 H   0  0  0  0  0  0  0  0  0  0  0  0
    0.5488   -0.8838    3.2109 N   0  0  0  0  0  0  0  0  0  0  0  0
   -0.4159    0.0446    2.6829 C   0  0  2  0  0  0  0  0  0  0  0  0
   -0.7551   -0.3867    1.2623 C   0  0  0  0  0  0  0  0  0  0  0  0
   -0.0106   -1.0851    0.5774 O   0  0  0  0  0  0  0  0  0  0  0  0
    0.1168    1.4689    2.7060 C   0  0  0  0  0  0  0  0  0  0  0  0
    1.1183   -1.4145    2.5542 H   0  0  0  0  0  0  0  0  0  0  0  0
   -1.3088   -0.0350    3.3125 H   0  0  0  0  0  0  0  0  0  0  0  0
    1.0116    1.5681    2.0808 H   0  0  0  0  0  0  0  0  0  0  0  0
   -0.6289    2.1775    2.3307 H   0  0  0  0  0  0  0  0  0  0  0  0
    0.3882    1.7670    3.7245 H   0  0  0  0  0  0  0  0  0  0  0  0
   -1.9689    0.1350    0.8298 N   0  0  0  0  0  0  0  0  0  0  0  0
   -2.5039   -0.1183   -0.4830 C   0  0  2  0  0  0  0  0  0  0  0  0
   -2.6677    1.2187   -1.1974 C   0  0  0  0  0  0  0  0  0  0  0  0
   -2.3408    2.2916   -0.6942 O   0  0  0  0  0  0  0  0  0  0  0  0
   -3.8151   -0.8950   -0.4180 C   0  0  0  0  0  0  0  0  0  0  0  0
   -4.8267   -0.1036    0.1950 O   0  0  0  0  0  0  0  0  0  0  0  0
   -2.5276    0.6894    1.4750 H   0  0  0  0  0  0  0  0  0  0  0  0
   -1.7514   -0.7134   -1.0131 H   0  0  0  0  0  0  0  0  0  0  0  0
   -3.7001   -1.8123    0.1683 H   0  0  0  0  0  0  0  0  0  0  0  0
   -4.1549   -1.1618   -1.4243 H   0  0  0  0  0  0  0  0  0  0  0  0
   -4.9291    0.6905   -0.3532 H   0  0  0  0  0  0  0  0  0  0  0  0
   -3.1812    1.0673   -2.4777 N   0  0  0  0  0  0  0  0  0  0  0  0
   -3.4010    2.1822   -3.3695 C   0  0  2  0  0  0  0  0  0  0  0  0
   -2.3126    3.2150   -3.1082 C   0  0  0  0  0  0  0  0  0  0  0  0
   -1.6880    3.2786   -2.0514 O   0  0  0  0  0  0  0  0  0  0  0  0
   -4.7824    2.7860   -3.1703 C   0  0  0  0  0  0  0  0  0  0  0  0
   -3.3860    0.1356   -2.8265 H   0  0  0  0  0  0  0  0  0  0  0  0
   -3.3012    1.7957   -4.3896 H   0  0  0  0  0  0  0  0  0  0  0  0
   -4.9011    3.1787   -2.1538 H   0  0  0  0  0  0  0  0  0  0  0  0
   -4.9582    3.6127   -3.8665 H   0  0  0  0  0  0  0  0  0  0  0  0
   -5.5630    2.0343   -3.3295 H   0  0  0  0  0  0  0  0  0  0  0  0
   -2.1508    4.0845   -4.1778 N   0  0  0  0  0  0  0  0  0  0  0  0
   -1.1880    5.1611   -4.1685 C   0  0  0  0  0  0  0  0  0  0  0  0
   -2.6986    3.9458   -5.0218 H   0  0  0  0  0  0  0  0  0  0  0  0
   -1.6684    6.0801   -3.8015 H   0  0  0  0  0  0  0  0  0  0  0  0
   -0.3492    4.8970   -3.5077 H   0  0  0  0  0  0  0  0  0  0  0  0
   -0.8128    5.3261   -5.1893 H   0  0  0  0  0  0  0  0  0  0  0  0
  1  3  1  0  0  0  0
  1  7  1  0  0  0  0
  1  2  2  0  0  0  0
 29 30  1  0  0  0  0
 30 38  1  0  0  0  0
 30 31  2  0  0  0  0
  8  9  1  0  0  0  0
  9 17  1  0  0  0  0
  9 10  2  0  0  0  0
 18 19  1  0  0  0  0
 19 28  1  0  0  0  0
 19 20  2  0  0  0  0
 29 32  1  0  0  0  0
  8 11  1  0  0  0  0
 38 39  1  0  0  0  0
 18 21  1  0  0  0  0
 21 22  1  0  0  0  0
 28 29  1  0  0  0  0
  7  8  1  0  0  0  0
 17 18  1  0  0  0  0
  3  4  1  0  0  0  0
  3  5  1  0  0  0  0
  3  6  1  0  0  0  0
 32 35  1  0  0  0  0
 32 36  1  0  0  0  0
 32 37  1  0  0  0  0
 11 14  1  0  0  0  0
 11 15  1  0  0  0  0
 11 16  1  0  0  0  0
 39 41  1  0  0  0  0
 39 42  1  0  0  0  0
 39 43  1  0  0  0  0
 21 25  1  0  0  0  0
 21 26  1  0  0  0  0
 29 34  1  0  0  0  0
  8 13  1  0  0  0  0
 18 24  1  0  0  0  0
 38 40  1  0  0  0  0
  7 12  1  0  0  0  0
 28 33  1  0  0  0  0
 17 23  1  0  0  0  0
 22 27  1  0  0  0  0
M  END
$$$$

  -OEChem-05262214473D

 43 42  0     1  0  0  0  0  0999 V2000
    0.7424   -1.0926    4.5665 C   0  0  0  0  0  0  0  0  0  0  0  0
    0.1409   -0.5364    5.4779 O   0  0  0  0  0  0  0  0  0  0  0  0
    1.7940   -2.1023    4.8871 C   0  0  0  0  0  0  0  0  0  0  0  0
    2.7935   -1.6502    4.9904 H   0  0  0  0  0  0  0  0  0  0  0  0
    1.6064   -2.6156    5.8438 H   0  0  0  0  0  0  0  0  0  0  0  0
    1.9156   -2.9078    4.1453 H   0  0  0  0  0  0  0  0  0  0  0  0
    0.5488   -0.8838    3.2109 N   0  0  0  0  0  0  0  0  0  0  0  0
   -0.4159    0.0446    2.6829 C   0  0  2  0  0  0  0  0  0  0  0  0
   -0.7551   -0.3867    1.2623 C   0  0  0  0  0  0  0  0  0  0  0  0
   -0.0106   -1.0851    0.5774 O   0  0  0  0  0  0  0  0  0  0  0  0
    0.1168    1.4689    2.7060 C   0  0  0  0  0  0  0  0  0  0  0  0
    1.1183   -1.4145    2.5542 H   0  0  0  0  0  0  0  0  0  0  0  0
   -1.3088   -0.0350    3.3125 H   0  0  0  0  0  0  0  0  0  0  0  0
    1.0116    1.5681    2.0808 H   0  0  0  0  0  0  0  0  0  0  0  0
   -0.6289    2.1775    2.3307 H   0  0  0  0  0  0  0  0  0  0  0  0
    0.3882    1.7670    3.7245 H   0  0  0  0  0  0  0  0  0  0  0  0
   -1.9689    0.1350    0.8298 N   0  0  0  0  0  0  0  0  0  0  0  0
   -2.5039   -0.1183   -0.4830 C   0  0  2  0  0  0  0  0  0  0  0  0
   -2.6677    1.2187   -1.1974 C   0  0  0  0  0  0  0  0  0  0  0  0
   -2.1101    2.2494   -0.8261 O   0  0  0  0  0  0  0  0  0  0  0  0
   -3.8151   -0.8950   -0.4180 C   0  0  0  0  0  0  0  0  0  0  0  0
   -4.8267   -0.1036    0.1950 O   0  0  0  0  0  0  0  0  0  0  0  0
   -2.5276    0.6894    1.4750 H   0  0  0  0  0  0  0  0  0  0  0  0
   -1.7514   -0.7134   -1.0131 H   0  0  0  0  0  0  0  0  0  0  0  0
   -3.7001   -1.8123    0.1683 H   0  0  0  0  0  0  0  0  0  0  0  0
   -4.1549   -1.1618   -1.4243 H   0  0  0  0  0  0  0  0  0  0  0  0
   -4.9291    0.6905   -0.3532 H   0  0  0  0  0  0  0  0  0  0  0  0
   -3.4745    1.1147   -2.3217 N   0  0  0  0  0  0  0  0  0  0  0  0
   -3.7592    2.2359   -3.1868 C   0  0  2  0  0  0  0  0  0  0  0  0
   -2.5258    3.1287   -3.2209 C   0  0  0  0  0  0  0  0  0  0  0  0
   -1.6731    3.1286   -2.3355 O   0  0  0  0  0  0  0  0  0  0  0  0
   -4.9773    3.0097   -2.7070 C   0  0  0  0  0  0  0  0  0  0  0  0
   -3.8622    0.2110   -2.5761 H   0  0  0  0  0  0  0  0  0  0  0  0
   -3.9417    1.8259   -4.1861 H   0  0  0  0  0  0  0  0  0  0  0  0
   -4.8132    3.4280   -1.7073 H   0  0  0  0  0  0  0  0  0  0  0  0
   -5.2088    3.8421   -3.3797 H   0  0  0  0  0  0  0  0  0  0  0  0
   -5.8567    2.3588   -2.6547 H   0  0  0  0  0  0  0  0  0  0  0  0
   -2.5114    3.9565   -4.3347 N   0  0  0  0  0  0  0  0  0  0  0  0
   -1.4518    4.9049   -4.5876 C   0  0  0  0  0  0  0  0  0  0  0  0
   -3.2501    3.8754   -5.0271 H   0  0  0  0  0  0  0  0  0  0  0  0
   -1.7236    5.8815   -4.1606 H   0  0  0  0  0  0  0  0  0  0  0  0
   -0.5213    4.5476   -4.1223 H   0  0  0  0  0  0  0  0  0  0  0  0
   -1.3032    5.0078   -5.6726 H   0  0  0  0  0  0  0  0  0  0  0  0
  1  3  1  0  0  0  0
  1  7  1  0  0  0  0
  1  2  2  0  0  0  0
 29 30  1  0  0  0  0
 30 38  1  0  0  0  0
 30 31  2  0  0  0  0
  8  9  1  0  0  0  0
  9 17  1  0  0  0  0
  9 10  2  0  0  0  0
 18 19  1  0  0  0  0
 19 28  1  0  0  0  0
 19 20  2  0  0  0  0
 29 32  1  0  0  0  0
  8 11  1  0  0  0  0
 38 39  1  0  0  0  0
 18 21  1  0  0  0  0
 21 22  1  0  0  0  0
 28 29  1  0  0  0  0
  7  8  1  0  0  0  0
 17 18  1  0  0  0  0
  3  4  1  0  0  0  0
  3  5  1  0  0  0  0
  3  6  1  0  0  0  0
 32 35  1  0  0  0  0
 32 36  1  0  0  0  0
 32 37  1  0  0  0  0
 11 14  1  0  0  0  0
 11 15  1  0  0  0  0
 11 16  1  0  0  0  0
 39 41  1  0  0  0  0
 39 42  1  0  0  0  0
 39 43  1  0  0  0  0
 21 25  1  0  0  0  0
 21 26  1  0  0  0  0
 29 34  1  0  0  0  0
  8 13  1  0  0  0  0
 18 24  1  0  0  0  0
 38 40  1  0  0  0  0
  7 12  1  0  0  0  0
 28 33  1  0  0  0  0
 17 23  1  0  0  0  0
 22 27  1  0  0  0  0
M  END
$$$$

  -OEChem-05262214473D

 43 42  0     1  0  0  0  0  0999 V2000
    0.7424   -1.0926    4.5665 C   0  0  0  0  0  0  0  0  0  0  0  0
    0.1409   -0.5364    5.4779 O   0  0  0  0  0  0  0  0  0  0  0  0
    1.7940   -2.1023    4.8871 C   0  0  0  0  0  0  0  0  0  0  0  0
    2.7935   -1.6502    4.9904 H   0  0  0  0  0  0  0  0  0  0  0  0
    1.6064   -2.6156    5.8438 H   0  0  0  0  0  0  0  0  0  0  0  0
    1.9156   -2.9078    4.1453 H   0  0  0  0  0  0  0  0  0  0  0  0
    0.5488   -0.8838    3.2109 N   0  0  0  0  0  0  0  0  0  0  0  0
   -0.4159    0.0446    2.6829 C   0  0  2  0  0  0  0  0  0  0  0  0
   -0.7551   -0.3867    1.2623 C   0  0  0  0  0  0  0  0  0  0  0  0
   -0.0106   -1.0851    0.5774 O   0  0  0  0  0  0  0  0  0  0  0  0
    0.1168    1.4689    2.7060 C   0  0  0  0  0  0  0  0  0  0  0  0
    1.1183   -1.4145    2.5542 H   0  0  0  0  0  0  0  0  0  0  0  0
   -1.3088   -0.0350    3.3125 H   0  0  0  0  0  0  0  0  0  0  0  0
    1.0116    1.5681    2.0808 H   0  0  0  0  0  0  0  0  0  0  0  0
   -0.6289    2.1775    2.3307 H   0  0  0  0  0  0  0  0  0  0  0  0
    0.3882    1.7670    3.7245 H   0  0  0  0  0  0  0  0  0  0  0  0
   -1.9689    0.1350    0.8298 N   0  0  0  0  0  0  0  0  0  0  0  0
   -2.5039   -0.1183   -0.4830 C   0  0  2  0  0  0  0  0  0  0  0  0
   -2.6677    1.2187   -1.1974 C   0  0  0  0  0  0  0  0  0  0  0  0
   -1.9223    2.1770   -1.0046 O   0  0  0  0  0  0  0  0  0  0  0  0
   -3.8151   -0.8950   -0.4180 C   0  0  0  0  0  0  0  0  0  0  0  0
   -4.8267   -0.1036    0.1950 O   0  0  0  0  0  0  0  0  0  0  0  0
   -2.5276    0.6894    1.4750 H   0  0  0  0  0  0  0  0  0  0  0  0
   -1.7514   -0.7134   -1.0131 H   0  0  0  0  0  0  0  0  0  0  0  0
   -3.7001   -1.8123    0.1683 H   0  0  0  0  0  0  0  0  0  0  0  0
   -4.1549   -1.1618   -1.4243 H   0  0  0  0  0  0  0  0  0  0  0  0
   -4.9291    0.6905   -0.3532 H   0  0  0  0  0  0  0  0  0  0  0  0
   -3.7167    1.2004   -2.1057 N   0  0  0  0  0  0  0  0  0  0  0  0
   -4.0573    2.3363   -2.9306 C   0  0  2  0  0  0  0  0  0  0  0  0
   -2.7678    3.0681   -3.2788 C   0  0  0  0  0  0  0  0  0  0  0  0
   -1.7413    2.9741   -2.6091 O   0  0  0  0  0  0  0  0  0  0  0  0
   -5.0333    3.2622   -2.2215 C   0  0  0  0  0  0  0  0  0  0  0  0
   -4.2562    0.3486   -2.2282 H   0  0  0  0  0  0  0  0  0  0  0  0
   -4.5105    1.9384   -3.8451 H   0  0  0  0  0  0  0  0  0  0  0  0
   -4.5967    3.6707   -1.3028 H   0  0  0  0  0  0  0  0  0  0  0  0
   -5.3125    4.1077   -2.8590 H   0  0  0  0  0  0  0  0  0  0  0  0
   -5.9480    2.7267   -1.9453 H   0  0  0  0  0  0  0  0  0  0  0  0
   -2.9108    3.8722   -4.4010 N   0  0  0  0  0  0  0  0  0  0  0  0
   -1.8329    4.6777   -4.9254 C   0  0  0  0  0  0  0  0  0  0  0  0
   -3.7926    3.8741   -4.9052 H   0  0  0  0  0  0  0  0  0  0  0  0
   -1.8825    5.6864   -4.4894 H   0  0  0  0  0  0  0  0  0  0  0  0
   -0.8695    4.2138   -4.6671 H   0  0  0  0  0  0  0  0  0  0  0  0
   -1.9252    4.7463   -6.0193 H   0  0  0  0  0  0  0  0  0  0  0  0
  1  3  1  0  0  0  0
  1  7  1  0  0  0  0
  1  2  2  0  0  0  0
 29 30  1  0  0  0  0
 30 38  1  0  0  0  0
 30 31  2  0  0  0  0
  8  9  1  0  0  0  0
  9 17  1  0  0  0  0
  9 10  2  0  0  0  0
 18 19  1  0  0  0  0
 19 28  1  0  0  0  0
 19 20  2  0  0  0  0
 29 32  1  0  0  0  0
  8 11  1  0  0  0  0
 38 39  1  0  0  0  0
 18 21  1  0  0  0  0
 21 22  1  0  0  0  0
 28 29  1  0  0  0  0
  7  8  1  0  0  0  0
 17 18  1  0  0  0  0
  3  4  1  0  0  0  0
  3  5  1  0  0  0  0
  3  6  1  0  0  0  0
 32 35  1  0  0  0  0
 32 36  1  0  0  0  0
 32 37  1  0  0  0  0
 11 14  1  0  0  0  0
 11 15  1  0  0  0  0
 11 16  1  0  0  0  0
 39 41  1  0  0  0  0
 39 42  1  0  0  0  0
 39 43  1  0  0  0  0
 21 25  1  0  0  0  0
 21 26  1  0  0  0  0
 29 34  1  0  0  0  0
  8 13  1  0  0  0  0
 18 24  1  0  0  0  0
 38 40  1  0  0  0  0
  7 12  1  0  0  0  0
 28 33  1  0  0  0  0
 17 23  1  0  0  0  0
 22 27  1  0  0  0  0
M  END
$$$$

  -OEChem-05262214473D

 43 42  0     1  0  0  0  0  0999 V2000
    0.7424   -1.0926    4.5665 C   0  0  0  0  0  0  0  0  0  0  0  0
    0.1409   -0.5364    5.4779 O   0  0  0  0  0  0  0  0  0  0  0  0
    1.7940   -2.1023    4.8871 C   0  0  0  0  0  0  0  0  0  0  0  0
    2.7935   -1.6502    4.9904 H   0  0  0  0  0  0  0  0  0  0  0  0
    1.6064   -2.6156    5.8438 H   0  0  0  0  0  0  0  0  0  0  0  0
    1.9156   -2.9078    4.1453 H   0  0  0  0  0  0  0  0  0  0  0  0
    0.5488   -0.8838    3.2109 N   0  0  0  0  0  0  0  0  0  0  0  0
   -0.4159    0.0446    2.6829 C   0  0  2  0  0  0  0  0  0  0  0  0
   -0.7551   -0.3867    1.2623 C   0  0  0  0  0  0  0  0  0  0  0  0
   -0.0106   -1.0851    0.5774 O   0  0  0  0  0  0  0  0  0  0  0  0
    0.1168    1.4689    2.7060 C   0  0  0  0  0  0  0  0  0  0  0  0
    1.1183   -1.4145    2.5542 H   0  0  0  0  0  0  0  0  0  0  0  0
   -1.3088   -0.0350    3.3125 H   0  0  0  0  0  0  0  0  0  0  0  0
    1.0116    1.5681    2.0808 H   0  0  0  0  0  0  0  0  0  0  0  0
   -0.6289    2.1775    2.3307 H   0  0  0  0  0  0  0  0  0  0  0  0
    0.3882    1.7670    3.7245 H   0  0  0  0  0  0  0  0  0  0  0  0
   -1.9689    0.1350    0.8298 N   0  0  0  0  0  0  0  0  0  0  0  0
   -2.5039   -0.1183   -0.4830 C   0  0  2  0  0  0  0  0  0  0  0  0
   -2.6677    1.2187   -1.1974 C   0  0  0  0  0  0  0  0  0  0  0  0
   -1.7902    2.0794   -1.2177 O   0  0  0  0  0  0  0  0  0  0  0  0
   -3.8151   -0.8950   -0.4180 C   0  0  0  0  0  0  0  0  0  0  0  0
   -4.8267   -0.1036    0.1950 O   0  0  0  0  0  0  0  0  0  0  0  0
   -2.5276    0.6894    1.4750 H   0  0  0  0  0  0  0  0  0  0  0  0
   -1.7514   -0.7134   -1.0131 H   0  0  0  0  0  0  0  0  0  0  0  0
   -3.7001   -1.8123    0.1683 H   0  0  0  0  0  0  0  0  0  0  0  0
   -4.1549   -1.1618   -1.4243 H   0  0  0  0  0  0  0  0  0  0  0  0
   -4.9291    0.6905   -0.3532 H   0  0  0  0  0  0  0  0  0  0  0  0
   -3.8912    1.3186   -1.8445 N   0  0  0  0  0  0  0  0  0  0  0  0
   -4.2749    2.4765   -2.6182 C   0  0  2  0  0  0  0  0  0  0  0  0
   -3.0221    3.0372   -3.2782 C   0  0  0  0  0  0  0  0  0  0  0  0
   -1.8881    2.8255   -2.8536 O   0  0  0  0  0  0  0  0  0  0  0  0
   -4.9465    3.5265   -1.7469 C   0  0  0  0  0  0  0  0  0  0  0  0
   -4.5412    0.5390   -1.8066 H   0  0  0  0  0  0  0  0  0  0  0  0
   -4.9690    2.1256   -3.3897 H   0  0  0  0  0  0  0  0  0  0  0  0
   -4.2664    3.8900   -0.9680 H   0  0  0  0  0  0  0  0  0  0  0  0
   -5.2623    4.3912   -2.3398 H   0  0  0  0  0  0  0  0  0  0  0  0
   -5.8305    3.1128   -1.2496 H   0  0  0  0  0  0  0  0  0  0  0  0
   -3.3220    3.8373   -4.3719 N   0  0  0  0  0  0  0  0  0  0  0  0
   -2.3051    4.4951   -5.1589 C   0  0  0  0  0  0  0  0  0  0  0  0
   -4.2891    3.9421   -4.6642 H   0  0  0  0  0  0  0  0  0  0  0  0
   -2.1343    5.5080   -4.7654 H   0  0  0  0  0  0  0  0  0  0  0  0
   -1.3699    3.9185   -5.1051 H   0  0  0  0  0  0  0  0  0  0  0  0
   -2.6364    4.5596   -6.2058 H   0  0  0  0  0  0  0  0  0  0  0  0
  1  3  1  0  0  0  0
  1  7  1  0  0  0  0
  1  2  2  0  0  0  0
 29 30  1  0  0  0  0
 30 38  1  0  0  0  0
 30 31  2  0  0  0  0
  8  9  1  0  0  0  0
  9 17  1  0  0  0  0
  9 10  2  0  0  0  0
 18 19  1  0  0  0  0
 19 28  1  0  0  0  0
 19 20  2  0  0  0  0
 29 32  1  0  0  0  0
  8 11  1  0  0  0  0
 38 39  1  0  0  0  0
 18 21  1  0  0  0  0
 21 22  1  0  0  0  0
 28 29  1  0  0  0  0
  7  8  1  0  0  0  0
 17 18  1  0  0  0  0
  3  4  1  0  0  0  0
  3  5  1  0  0  0  0
  3  6  1  0  0  0  0
 32 35  1  0  0  0  0
 32 36  1  0  0  0  0
 32 37  1  0  0  0  0
 11 14  1  0  0  0  0
 11 15  1  0  0  0  0
 11 16  1  0  0  0  0
 39 41  1  0  0  0  0
 39 42  1  0  0  0  0
 39 43  1  0  0  0  0
 21 25  1  0  0  0  0
 21 26  1  0  0  0  0
 29 34  1  0  0  0  0
  8 13  1  0  0  0  0
 18 24  1  0  0  0  0
 38 40  1  0  0  0  0
  7 12  1  0  0  0  0
 28 33  1  0  0  0  0
 17 23  1  0  0  0  0
 22 27  1  0  0  0  0
M  END
$$$$

  -OEChem-05262214473D

 43 42  0     1  0  0  0  0  0999 V2000
    0.7424   -1.0926    4.5665 C   0  0  0  0  0  0  0  0  0  0  0  0
    0.1409   -0.5364    5.4779 O   0  0  0  0  0  0  0  0  0  0  0  0
    1.7940   -2.1023    4.8871 C   0  0  0  0  0  0  0  0  0  0  0  0
    2.7935   -1.6502    4.9904 H   0  0  0  0  0  0  0  0  0  0  0  0
    1.6064   -2.6156    5.8438 H   0  0  0  0  0  0  0  0  0  0  0  0
    1.9156   -2.9078    4.1453 H   0  0  0  0  0  0  0  0  0  0  0  0
    0.5488   -0.8838    3.2109 N   0  0  0  0  0  0  0  0  0  0  0  0
   -0.4159    0.0446    2.6829 C   0  0  2  0  0  0  0  0  0  0  0  0
   -0.7551   -0.3867    1.2623 C   0  0  0  0  0  0  0  0  0  0  0  0
   -0.0106   -1.0851    0.5774 O   0  0  0  0  0  0  0  0  0  0  0  0
    0.1168    1.4689    2.7060 C   0  0  0  0  0  0  0  0  0  0  0  0
    1.1183   -1.4145    2.5542 H   0  0  0  0  0  0  0  0  0  0  0  0
   -1.3088   -0.0350    3.3125 H   0  0  0  0  0  0  0  0  0  0  0  0
    1.0116    1.5681    2.0808 H   0  0  0  0  0  0  0  0  0  0  0  0
   -0.6289    2.1775    2.3307 H   0  0  0  0  0  0  0  0  0  0  0  0
    0.3882    1.7670    3.7245 H   0  0  0  0  0  0  0  0  0  0  0  0
   -1.9689    0.1350    0.8298 N   0  0  0  0  0  0  0  0  0  0  0  0
   -2.5039   -0.1183   -0.4830 C   0  0  2  0  0  0  0  0  0  0  0  0
   -2.6677    1.2187   -1.1974 C   0  0  0  0  0  0  0  0  0  0  0  0
   -1.7228    1.9631   -1.4508 O   0  0  0  0  0  0  0  0  0  0  0  0
   -3.8151   -0.8950   -0.4180 C   0  0  0  0  0  0  0  0  0  0  0  0
   -4.8267   -0.1036    0.1950 O   0  0  0  0  0  0  0  0  0  0  0  0
   -2.5276    0.6894    1.4750 H   0  0  0  0  0  0  0  0  0  0  0  0
   -1.7514   -0.7134   -1.0131 H   0  0  0  0  0  0  0  0  0  0  0  0
   -3.7001   -1.8123    0.1683 H   0  0  0  0  0  0  0  0  0  0  0  0
   -4.1549   -1.1618   -1.4243 H   0  0  0  0  0  0  0  0  0  0  0  0
   -4.9291    0.6905   -0.3532 H   0  0  0  0  0  0  0  0  0  0  0  0
   -3.9862    1.4612   -1.5559 N   0  0  0  0  0  0  0  0  0  0  0  0
   -4.3971    2.6471   -2.2710 C   0  0  2  0  0  0  0  0  0  0  0  0
   -3.2713    3.0383   -3.2191 C   0  0  0  0  0  0  0  0  0  0  0  0
   -2.1034    2.6929   -3.0523 O   0  0  0  0  0  0  0  0  0  0  0  0
   -4.7230    3.7844   -1.3155 C   0  0  0  0  0  0  0  0  0  0  0  0
   -4.6976    0.7691   -1.3400 H   0  0  0  0  0  0  0  0  0  0  0  0
   -5.2857    2.3747   -2.8509 H   0  0  0  0  0  0  0  0  0  0  0  0
   -3.8447    4.0712   -0.7257 H   0  0  0  0  0  0  0  0  0  0  0  0
   -5.0617    4.6734   -1.8577 H   0  0  0  0  0  0  0  0  0  0  0  0
   -5.5123    3.4909   -0.6150 H   0  0  0  0  0  0  0  0  0  0  0  0
   -3.7167    3.8543   -4.2496 N   0  0  0  0  0  0  0  0  0  0  0  0
   -2.8364    4.3695   -5.2721 C   0  0  0  0  0  0  0  0  0  0  0  0
   -4.7057    4.0746   -4.3206 H   0  0  0  0  0  0  0  0  0  0  0  0
   -2.4618    5.3586   -4.9700 H   0  0  0  0  0  0  0  0  0  0  0  0
   -1.9884    3.6818   -5.4063 H   0  0  0  0  0  0  0  0  0  0  0  0
   -3.3883    4.4602   -6.2193 H   0  0  0  0  0  0  0  0  0  0  0  0
  1  3  1  0  0  0  0
  1  7  1  0  0  0  0
  1  2  2  0  0  0  0
 29 30  1  0  0  0  0
 30 38  1  0  0  0  0
 30 31  2  0  0  0  0
  8  9  1  0  0  0  0
  9 17  1  0  0  0  0
  9 10  2  0  0  0  0
 18 19  1  0  0  0  0
 19 28  1  0  0  0  0
 19 20  2  0  0  0  0
 29 32  1  0  0  0  0
  8 11  1  0  0  0  0
 38 39  1  0  0  0  0
 18 21  1  0  0  0  0
 21 22  1  0  0  0  0
 28 29  1  0  0  0  0
  7  8  1  0  0  0  0
 17 18  1  0  0  0  0
  3  4  1  0  0  0  0
  3  5  1  0  0  0  0
  3  6  1  0  0  0  0
 32 35  1  0  0  0  0
 32 36  1  0  0  0  0
 32 37  1  0  0  0  0
 11 14  1  0  0  0  0
 11 15  1  0  0  0  0
 11 16  1  0  0  0  0
 39 41  1  0  0  0  0
 39 42  1  0  0  0  0
 39 43  1  0  0  0  0
 21 25  1  0  0  0  0
 21 26  1  0  0  0  0
 29 34  1  0  0  0  0
  8 13  1  0  0  0  0
 18 24  1  0  0  0  0
 38 40  1  0  0  0  0
  7 12  1  0  0  0  0
 28 33  1  0  0  0  0
 17 23  1  0  0  0  0
 22 27  1  0  0  0  0
M  END
$$$$

  -OEChem-05262214473D

 43 42  0     1  0  0  0  0  0999 V2000
    0.7424   -1.0926    4.5665 C   0  0  0  0  0  0  0  0  0  0  0  0
    0.1409   -0.5364    5.4779 O   0  0  0  0  0  0  0  0  0  0  0  0
    1.7940   -2.1023    4.8871 C   0  0  0  0  0  0  0  0  0  0  0  0
    2.7935   -1.6502    4.9904 H   0  0  0  0  0  0  0  0  0  0  0  0
    1.6064   -2.6156    5.8438 H   0  0  0  0  0  0  0  0  0  0  0  0
    1.9156   -2.9078    4.1453 H   0  0  0  0  0  0  0  0  0  0  0  0
    0.5488   -0.8838    3.2109 N   0  0  0  0  0  0  0  0  0  0  0  0
   -0.4159    0.0446    2.6829 C   0  0  2  0  0  0  0  0  0  0  0  0
   -0.7551   -0.3867    1.2623 C   0  0  0  0  0  0  0  0  0  0  0  0
   -0.0106   -1.0851    0.5774 O   0  0  0  0  0  0  0  0  0  0  0  0
    0.1168    1.4689    2.7060 C   0  0  0  0  0  0  0  0  0  0  0  0
    1.1183   -1.4145    2.5542 H   0  0  0  0  0  0  0  0  0  0  0  0
   -1.3088   -0.0350    3.3125 H   0  0  0  0  0  0  0  0  0  0  0  0
    1.0116    1.5681    2.0808 H   0  0  0  0  0  0  0  0  0  0  0  0
   -0.6289    2.1775    2.3307 H   0  0  0  0  0  0  0  0  0  0  0  0
    0.3882    1.7670    3.7245 H   0  0  0  0  0  0  0  0  0  0  0  0
   -1.9689    0.1350    0.8298 N   0  0  0  0  0  0  0  0  0  0  0  0
   -2.5039   -0.1183   -0.4830 C   0  0  2  0  0  0  0  0  0  0  0  0
   -2.6677    1.2187   -1.1974 C   0  0  0  0  0  0  0  0  0  0  0  0
   -1.7247    1.8361   -1.6880 O   0  0  0  0  0  0  0  0  0  0  0  0
   -3.8151   -0.8950   -0.4180 C   0  0  0  0  0  0  0  0  0  0  0  0
   -4.8267   -0.1036    0.1950 O   0  0  0  0  0  0  0  0  0  0  0  0
   -2.5276    0.6894    1.4750 H   0  0  0  0  0  0  0  0  0  0  0  0
   -1.7514   -0.7134   -1.0131 H   0  0  0  0  0  0  0  0  0  0  0  0
   -3.7001   -1.8123    0.1683 H   0  0  0  0  0  0  0  0  0  0  0  0
   -4.1549   -1.1618   -1.4243 H   0  0  0  0  0  0  0  0  0  0  0  0
   -4.9291    0.6905   -0.3532 H   0  0  0  0  0  0  0  0  0  0  0  0
   -3.9951    1.6185   -1.2595 N   0  0  0  0  0  0  0  0  0  0  0  0
   -4.4158    2.8363   -1.9126 C   0  0  2  0  0  0  0  0  0  0  0  0
   -3.4985    3.0712   -3.1054 C   0  0  0  0  0  0  0  0  0  0  0  0
   -2.3725    2.5855   -3.1917 O   0  0  0  0  0  0  0  0  0  0  0  0
   -4.3779    4.0184   -0.9566 C   0  0  0  0  0  0  0  0  0  0  0  0
   -4.7149    1.0234   -0.8602 H   0  0  0  0  0  0  0  0  0  0  0  0
   -5.4392    2.6686   -2.2656 H   0  0  0  0  0  0  0  0  0  0  0  0
   -3.3605    4.2017   -0.5924 H   0  0  0  0  0  0  0  0  0  0  0  0
   -4.7242    4.9351   -1.4453 H   0  0  0  0  0  0  0  0  0  0  0  0
   -5.0151    3.8351   -0.0848 H   0  0  0  0  0  0  0  0  0  0  0  0
   -4.0682    3.9220   -4.0423 N   0  0  0  0  0  0  0  0  0  0  0  0
   -3.3905    4.3094   -5.2575 C   0  0  0  0  0  0  0  0  0  0  0  0
   -5.0141    4.2627   -3.8979 H   0  0  0  0  0  0  0  0  0  0  0  0
   -2.8427    5.2483   -5.0891 H   0  0  0  0  0  0  0  0  0  0  0  0
   -2.6830    3.5197   -5.5504 H   0  0  0  0  0  0  0  0  0  0  0  0
   -4.1298    4.4551   -6.0590 H   0  0  0  0  0  0  0  0  0  0  0  0
  1  3  1  0  0  0  0
  1  7  1  0  0  0  0
  1  2  2  0  0  0  0
 29 30  1  0  0  0  0
 30 38  1  0  0  0  0
 30 31  2  0  0  0  0
  8  9  1  0  0  0  0
  9 17  1  0  0  0  0
  9 10  2  0  0  0  0
 18 19  1  0  0  0  0
 19 28  1  0  0  0  0
 19 20  2  0  0  0  0
 29 32  1  0  0  0  0
  8 11  1  0  0  0  0
 38 39  1  0  0  0  0
 18 21  1  0  0  0  0
 21 22  1  0  0  0  0
 28 29  1  0  0  0  0
  7  8  1  0  0  0  0
 17 18  1  0  0  0  0
  3  4  1  0  0  0  0
  3  5  1  0  0  0  0
  3  6  1  0  0  0  0
 32 35  1  0  0  0  0
 32 36  1  0  0  0  0
 32 37  1  0  0  0  0
 11 14  1  0  0  0  0
 11 15  1  0  0  0  0
 11 16  1  0  0  0  0
 39 41  1  0  0  0  0
 39 42  1  0  0  0  0
 39 43  1  0  0  0  0
 21 25  1  0  0  0  0
 21 26  1  0  0  0  0
 29 34  1  0  0  0  0
  8 13  1  0  0  0  0
 18 24  1  0  0  0  0
 38 40  1  0  0  0  0
  7 12  1  0  0  0  0
 28 33  1  0  0  0  0
 17 23  1  0  0  0  0
 22 27  1  0  0  0  0
M  END
$$$$

  -OEChem-05262214473D

 43 42  0     1  0  0  0  0  0999 V2000
    0.7424   -1.0926    4.5665 C   0  0  0  0  0  0  0  0  0  0  0  0
    0.1409   -0.5364    5.4779 O   0  0  0  0  0  0  0  0  0  0  0  0
    1.7940   -2.1023    4.8871 C   0  0  0  0  0  0  0  0  0  0  0  0
    2.7935   -1.6502    4.9904 H   0  0  0  0  0  0  0  0  0  0  0  0
    1.6064   -2.6156    5.8438 H   0  0  0  0  0  0  0  0  0  0  0  0
    1.9156   -2.9078    4.1453 H   0  0  0  0  0  0  0  0  0  0  0  0
    0.5488   -0.8838    3.2109 N   0  0  0  0  0  0  0  0  0  0  0  0
   -0.4159    0.0446    2.6829 C   0  0  2  0  0  0  0  0  0  0  0  0
   -0.7551   -0.3867    1.2623 C   0  0  0  0  0  0  0  0  0  0  0  0
   -0.0106   -1.0851    0.5774 O   0  0  0  0  0  0  0  0  0  0  0  0
    0.1168    1.4689    2.7060 C   0  0  0  0  0  0  0  0  0  0  0  0
    1.1183   -1.4145    2.5542 H   0  0  0  0  0  0  0  0  0  0  0  0
   -1.3088   -0.0350    3.3125 H   0  0  0  0  0  0  0  0  0  0  0  0
    1.0116    1.5681    2.0808 H   0  0  0  0  0  0  0  0  0  0  0  0
   -0.6289    2.1775    2.3307 H   0  0  0  0  0  0  0  0  0  0  0  0
    0.3882    1.7670    3.7245 H   0  0  0  0  0  0  0  0  0  0  0  0
   -1.9689    0.1350    0.8298 N   0  0  0  0  0  0  0  0  0  0  0  0
   -2.5039   -0.1183   -0.4830 C   0  0  2  0  0  0  0  0  0  0  0  0
   -2.6677    1.2187   -1.1974 C   0  0  0  0  0  0  0  0  0  0  0  0
   -1.7957    1.7071   -1.9132 O   0  0  0  0  0  0  0  0  0  0  0  0
   -3.8151   -0.8950   -0.4180 C   0  0  0  0  0  0  0  0  0  0  0  0
   -4.8267   -0.1036    0.1950 O   0  0  0  0  0  0  0  0  0  0  0  0
   -2.5276    0.6894    1.4750 H   0  0  0  0  0  0  0  0  0  0  0  0
   -1.7514   -0.7134   -1.0131 H   0  0  0  0  0  0  0  0  0  0  0  0
   -3.7001   -1.8123    0.1683 H   0  0  0  0  0  0  0  0  0  0  0  0
   -4.1549   -1.1618   -1.4243 H   0  0  0  0  0  0  0  0  0  0  0  0
   -4.9291    0.6905   -0.3532 H   0  0  0  0  0  0  0  0  0  0  0  0
   -3.9174    1.7797   -0.9755 N   0  0  0  0  0  0  0  0  0  0  0  0
   -4.3295    3.0312   -1.5675 C   0  0  2  0  0  0  0  0  0  0  0  0
   -3.6881    3.1337   -2.9450 C   0  0  0  0  0  0  0  0  0  0  0  0
   -2.6772    2.5104   -3.2623 O   0  0  0  0  0  0  0  0  0  0  0  0
   -3.9347    4.2125   -0.6949 C   0  0  0  0  0  0  0  0  0  0  0  0
   -4.5919    1.2844   -0.3999 H   0  0  0  0  0  0  0  0  0  0  0  0
   -5.4189    2.9874   -1.6736 H   0  0  0  0  0  0  0  0  0  0  0  0
   -2.8466    4.2728   -0.5771 H   0  0  0  0  0  0  0  0  0  0  0  0
   -4.2729    5.1584   -1.1309 H   0  0  0  0  0  0  0  0  0  0  0  0
   -4.3727    4.1220    0.3050 H   0  0  0  0  0  0  0  0  0  0  0  0
   -4.3524    4.0358   -3.7642 N   0  0  0  0  0  0  0  0  0  0  0  0
   -3.9297    4.3190   -5.1159 C   0  0  0  0  0  0  0  0  0  0  0  0
   -5.1933    4.4935   -3.4248 H   0  0  0  0  0  0  0  0  0  0  0  0
   -3.2510    5.1847   -5.1146 H   0  0  0  0  0  0  0  0  0  0  0  0
   -3.4062    3.4434   -5.5273 H   0  0  0  0  0  0  0  0  0  0  0  0
   -4.8101    4.5445   -5.7356 H   0  0  0  0  0  0  0  0  0  0  0  0
  1  3  1  0  0  0  0
  1  7  1  0  0  0  0
  1  2  2  0  0  0  0
 29 30  1  0  0  0  0
 30 38  1  0  0  0  0
 30 31  2  0  0  0  0
  8  9  1  0  0  0  0
  9 17  1  0  0  0  0
  9 10  2  0  0  0  0
 18 19  1  0  0  0  0
 19 28  1  0  0  0  0
 19 20  2  0  0  0  0
 29 32  1  0  0  0  0
  8 11  1  0  0  0  0
 38 39  1  0  0  0  0
 18 21  1  0  0  0  0
 21 22  1  0  0  0  0
 28 29  1  0  0  0  0
  7  8  1  0  0  0  0
 17 18  1  0  0  0  0
  3  4  1  0  0  0  0
  3  5  1  0  0  0  0
  3  6  1  0  0  0  0
 32 35  1  0  0  0  0
 32 36  1  0  0  0  0
 32 37  1  0  0  0  0
 11 14  1  0  0  0  0
 11 15  1  0  0  0  0
 11 16  1  0  0  0  0
 39 41  1  0  0  0  0
 39 42  1  0  0  0  0
 39 43  1  0  0  0  0
 21 25  1  0  0  0  0
 21 26  1  0  0  0  0
 29 34  1  0  0  0  0
  8 13  1  0  0  0  0
 18 24  1  0  0  0  0
 38 40  1  0  0  0  0
  7 12  1  0  0  0  0
 28 33  1  0  0  0  0
 17 23  1  0  0  0  0
 22 27  1  0  0  0  0
M  END
$$$$

  -OEChem-05262214473D

 43 42  0     1  0  0  0  0  0999 V2000
    0.7424   -1.0926    4.5665 C   0  0  0  0  0  0  0  0  0  0  0  0
    0.1409   -0.5364    5.4779 O   0  0  0  0  0  0  0  0  0  0  0  0
    1.7940   -2.1023    4.8871 C   0  0  0  0  0  0  0  0  0  0  0  0
    2.7935   -1.6502    4.9904 H   0  0  0  0  0  0  0  0  0  0  0  0
    1.6064   -2.6156    5.8438 H   0  0  0  0  0  0  0  0  0  0  0  0
    1.9156   -2.9078    4.1453 H   0  0  0  0  0  0  0  0  0  0  0  0
    0.5488   -0.8838    3.2109 N   0  0  0  0  0  0  0  0  0  0  0  0
   -0.4159    0.0446    2.6829 C   0  0  2  0  0  0  0  0  0  0  0  0
   -0.7551   -0.3867    1.2623 C   0  0  0  0  0  0  0  0  0  0  0  0
   -0.0106   -1.0851    0.5774 O   0  0  0  0  0  0  0  0  0  0  0  0
    0.1168    1.4689    2.7060 C   0  0  0  0  0  0  0  0  0  0  0  0
    1.1183   -1.4145    2.5542 H   0  0  0  0  0  0  0  0  0  0  0  0
   -1.3088   -0.0350    3.3125 H   0  0  0  0  0  0  0  0  0  0  0  0
    1.0116    1.5681    2.0808 H   0  0  0  0  0  0  0  0  0  0  0  0
   -0.6289    2.1775    2.3307 H   0  0  0  0  0  0  0  0  0  0  0  0
    0.3882    1.7670    3.7245 H   0  0  0  0  0  0  0  0  0  0  0  0
   -1.9689    0.1350    0.8298 N   0  0  0  0  0  0  0  0  0  0  0  0
   -2.5039   -0.1183   -0.4830 C   0  0  2  0  0  0  0  0  0  0  0  0
   -2.6677    1.2187   -1.1974 C   0  0  0  0  0  0  0  0  0  0  0  0
   -1.9311    1.5848   -2.1110 O   0  0  0  0  0  0  0  0  0  0  0  0
   -3.8151   -0.8950   -0.4180 C   0  0  0  0  0  0  0  0  0  0  0  0
   -4.8267   -0.1036    0.1950 O   0  0  0  0  0  0  0  0  0  0  0  0
   -2.5276    0.6894    1.4750 H   0  0  0  0  0  0  0  0  0  0  0  0
   -1.7514   -0.7134   -1.0131 H   0  0  0  0  0  0  0  0  0  0  0  0
   -3.7001   -1.8123    0.1683 H   0  0  0  0  0  0  0  0  0  0  0  0
   -4.1549   -1.1618   -1.4243 H   0  0  0  0  0  0  0  0  0  0  0  0
   -4.9291    0.6905   -0.3532 H   0  0  0  0  0  0  0  0  0  0  0  0
   -3.7584    1.9339   -0.7234 N   0  0  0  0  0  0  0  0  0  0  0  0
   -4.1442    3.2187   -1.2591 C   0  0  2  0  0  0  0  0  0  0  0  0
   -3.8273    3.2215   -2.7487 C   0  0  0  0  0  0  0  0  0  0  0  0
   -2.9965    2.4729   -3.2592 O   0  0  0  0  0  0  0  0  0  0  0  0
   -3.4237    4.3536   -0.5480 C   0  0  0  0  0  0  0  0  0  0  0  0
   -4.3370    1.5344    0.0096 H   0  0  0  0  0  0  0  0  0  0  0  0
   -5.2263    3.3094   -1.1151 H   0  0  0  0  0  0  0  0  0  0  0  0
   -2.3382    4.2796   -0.6810 H   0  0  0  0  0  0  0  0  0  0  0  0
   -3.7385    5.3281   -0.9358 H   0  0  0  0  0  0  0  0  0  0  0  0
   -3.6290    4.3322    0.5277 H   0  0  0  0  0  0  0  0  0  0  0  0
   -4.5501    4.1879   -3.4342 N   0  0  0  0  0  0  0  0  0  0  0  0
   -4.4173    4.3976   -4.8570 C   0  0  0  0  0  0  0  0  0  0  0  0
   -5.2310    4.7513   -2.9336 H   0  0  0  0  0  0  0  0  0  0  0  0
   -3.6589    5.1720   -5.0449 H   0  0  0  0  0  0  0  0  0  0  0  0
   -4.1089    3.4580   -5.3388 H   0  0  0  0  0  0  0  0  0  0  0  0
   -5.3831    4.7223   -5.2714 H   0  0  0  0  0  0  0  0  0  0  0  0
  1  3  1  0  0  0  0
  1  7  1  0  0  0  0
  1  2  2  0  0  0  0
 29 30  1  0  0  0  0
 30 38  1  0  0  0  0
 30 31  2  0  0  0  0
  8  9  1  0  0  0  0
  9 17  1  0  0  0  0
  9 10  2  0  0  0  0
 18 19  1  0  0  0  0
 19 28  1  0  0  0  0
 19 20  2  0  0  0  0
 29 32  1  0  0  0  0
  8 11  1  0  0  0  0
 38 39  1  0  0  0  0
 18 21  1  0  0  0  0
 21 22  1  0  0  0  0
 28 29  1  0  0  0  0
  7  8  1  0  0  0  0
 17 18  1  0  0  0  0
  3  4  1  0  0  0  0
  3  5  1  0  0  0  0
  3  6  1  0  0  0  0
 32 35  1  0  0  0  0
 32 36  1  0  0  0  0
 32 37  1  0  0  0  0
 11 14  1  0  0  0  0
 11 15  1  0  0  0  0
 11 16  1  0  0  0  0
 39 41  1  0  0  0  0
 39 42  1  0  0  0  0
 39 43  1  0  0  0  0
 21 25  1  0  0  0  0
 21 26  1  0  0  0  0
 29 34  1  0  0  0  0
  8 13  1  0  0  0  0
 18 24  1  0  0  0  0
 38 40  1  0  0  0  0
  7 12  1  0  0  0  0
 28 33  1  0  0  0  0
 17 23  1  0  0  0  0
 22 27  1  0  0  0  0
M  END
$$$$

  -OEChem-05262214473D

 43 42  0     1  0  0  0  0  0999 V2000
    0.7424   -1.0926    4.5665 C   0  0  0  0  0  0  0  0  0  0  0  0
    0.1409   -0.5364    5.4779 O   0  0  0  0  0  0  0  0  0  0  0  0
    1.7940   -2.1023    4.8871 C   0  0  0  0  0  0  0  0  0  0  0  0
    2.7935   -1.6502    4.9904 H   0  0  0  0  0  0  0  0  0  0  0  0
    1.6064   -2.6156    5.8438 H   0  0  0  0  0  0  0  0  0  0  0  0
    1.9156   -2.9078    4.1453 H   0  0  0  0  0  0  0  0  0  0  0  0
    0.5488   -0.8838    3.2109 N   0  0  0  0  0  0  0  0  0  0  0  0
   -0.4159    0.0446    2.6829 C   0  0  2  0  0  0  0  0  0  0  0  0
   -0.7551   -0.3867    1.2623 C   0  0  0  0  0  0  0  0  0  0  0  0
   -0.0106   -1.0851    0.5774 O   0  0  0  0  0  0  0  0  0  0  0  0
    0.1168    1.4689    2.7060 C   0  0  0  0  0  0  0  0  0  0  0  0
    1.1183   -1.4145    2.5542 H   0  0  0  0  0  0  0  0  0  0  0  0
   -1.3088   -0.0350    3.3125 H   0  0  0  0  0  0  0  0  0  0  0  0
    1.0116    1.5681    2.0808 H   0  0  0  0  0  0  0  0  0  0  0  0
   -0.6289    2.1775    2.3307 H   0  0  0  0  0  0  0  0  0  0  0  0
    0.3882    1.7670    3.7245 H   0  0  0  0  0  0  0  0  0  0  0  0
   -1.9689    0.1350    0.8298 N   0  0  0  0  0  0  0  0  0  0  0  0
   -2.5039   -0.1183   -0.4830 C   0  0  2  0  0  0  0  0  0  0  0  0
   -2.6677    1.2187   -1.1974 C   0  0  0  0  0  0  0  0  0  0  0  0
   -2.1216    1.4776   -2.2679 O   0  0  0  0  0  0  0  0  0  0  0  0
   -3.8151   -0.8950   -0.4180 C   0  0  0  0  0  0  0  0  0  0  0  0
   -4.8267   -0.1036    0.1950 O   0  0  0  0  0  0  0  0  0  0  0  0
   -2.5276    0.6894    1.4750 H   0  0  0  0  0  0  0  0  0  0  0  0
   -1.7514   -0.7134   -1.0131 H   0  0  0  0  0  0  0  0  0  0  0  0
   -3.7001   -1.8123    0.1683 H   0  0  0  0  0  0  0  0  0  0  0  0
   -4.1549   -1.1618   -1.4243 H   0  0  0  0  0  0  0  0  0  0  0  0
   -4.9291    0.6905   -0.3532 H   0  0  0  0  0  0  0  0  0  0  0  0
   -3.5288    2.0706   -0.5202 N   0  0  0  0  0  0  0  0  0  0  0  0
   -3.8724    3.3859   -1.0085 C   0  0  2  0  0  0  0  0  0  0  0  0
   -3.9065    3.3287   -2.5300 C   0  0  0  0  0  0  0  0  0  0  0  0
   -3.3089    2.4755   -3.1828 O   0  0  0  0  0  0  0  0  0  0  0  0
   -2.8796    4.4320   -0.5260 C   0  0  0  0  0  0  0  0  0  0  0  0
   -3.9675    1.7564    0.3403 H   0  0  0  0  0  0  0  0  0  0  0  0
   -4.8745    3.6125   -0.6284 H   0  0  0  0  0  0  0  0  0  0  0  0
   -1.8698    4.2216   -0.8969 H   0  0  0  0  0  0  0  0  0  0  0  0
   -3.1575    5.4326   -0.8733 H   0  0  0  0  0  0  0  0  0  0  0  0
   -2.8346    4.4511    0.5682 H   0  0  0  0  0  0  0  0  0  0  0  0
   -4.6477    4.3679   -3.0749 N   0  0  0  0  0  0  0  0  0  0  0  0
   -4.8199    4.5398   -4.4985 C   0  0  0  0  0  0  0  0  0  0  0  0
   -5.1246    5.0186   -2.4578 H   0  0  0  0  0  0  0  0  0  0  0  0
   -4.0386    5.2111   -4.8845 H   0  0  0  0  0  0  0  0  0  0  0  0
   -4.7430    3.5626   -4.9977 H   0  0  0  0  0  0  0  0  0  0  0  0
   -5.8096    4.9765   -4.6979 H   0  0  0  0  0  0  0  0  0  0  0  0
  1  3  1  0  0  0  0
  1  7  1  0  0  0  0
  1  2  2  0  0  0  0
 29 30  1  0  0  0  0
 30 38  1  0  0  0  0
 30 31  2  0  0  0  0
  8  9  1  0  0  0  0
  9 17  1  0  0  0  0
  9 10  2  0  0  0  0
 18 19  1  0  0  0  0
 19 28  1  0  0  0  0
 19 20  2  0  0  0  0
 29 32  1  0  0  0  0
  8 11  1  0  0  0  0
 38 39  1  0  0  0  0
 18 21  1  0  0  0  0
 21 22  1  0  0  0  0
 28 29  1  0  0  0  0
  7  8  1  0  0  0  0
 17 18  1  0  0  0  0
  3  4  1  0  0  0  0
  3  5  1  0  0  0  0
  3  6  1  0  0  0  0
 32 35  1  0  0  0  0
 32 36  1  0  0  0  0
 32 37  1  0  0  0  0
 11 14  1  0  0  0  0
 11 15  1  0  0  0  0
 11 16  1  0  0  0  0
 39 41  1  0  0  0  0
 39 42  1  0  0  0  0
 39 43  1  0  0  0  0
 21 25  1  0  0  0  0
 21 26  1  0  0  0  0
 29 34  1  0  0  0  0
  8 13  1  0  0  0  0
 18 24  1  0  0  0  0
 38 40  1  0  0  0  0
  7 12  1  0  0  0  0
 28 33  1  0  0  0  0
 17 23  1  0  0  0  0
 22 27  1  0  0  0  0
M  END
$$$$

  -OEChem-05262214473D

 43 42  0     1  0  0  0  0  0999 V2000
    0.7424   -1.0926    4.5665 C   0  0  0  0  0  0  0  0  0  0  0  0
    0.1409   -0.5364    5.4779 O   0  0  0  0  0  0  0  0  0  0  0  0
    1.7940   -2.1023    4.8871 C   0  0  0  0  0  0  0  0  0  0  0  0
    2.7935   -1.6502    4.9904 H   0  0  0  0  0  0  0  0  0  0  0  0
    1.6064   -2.6156    5.8438 H   0  0  0  0  0  0  0  0  0  0  0  0
    1.9156   -2.9078    4.1453 H   0  0  0  0  0  0  0  0  0  0  0  0
    0.5488   -0.8838    3.2109 N   0  0  0  0  0  0  0  0  0  0  0  0
   -0.4159    0.0446    2.6829 C   0  0  2  0  0  0  0  0  0  0  0  0
   -0.7551   -0.3867    1.2623 C   0  0  0  0  0  0  0  0  0  0  0  0
   -0.0106   -1.0851    0.5774 O   0  0  0  0  0  0  0  0  0  0  0  0
    0.1168    1.4689    2.7060 C   0  0  0  0  0  0  0  0  0  0  0  0
    1.1183   -1.4145    2.5542 H   0  0  0  0  0  0  0  0  0  0  0  0
   -1.3088   -0.0350    3.3125 H   0  0  0  0  0  0  0  0  0  0  0  0
    1.0116    1.5681    2.0808 H   0  0  0  0  0  0  0  0  0  0  0  0
   -0.6289    2.1775    2.3307 H   0  0  0  0  0  0  0  0  0  0  0  0
    0.3882    1.7670    3.7245 H   0  0  0  0  0  0  0  0  0  0  0  0
   -1.9689    0.1350    0.8298 N   0  0  0  0  0  0  0  0  0  0  0  0
   -2.5039   -0.1183   -0.4830 C   0  0  2  0  0  0  0  0  0  0  0  0
   -2.6677    1.2187   -1.1974 C   0  0  0  0  0  0  0  0  0  0  0  0
   -2.3542    1.3929   -2.3732 O   0  0  0  0  0  0  0  0  0  0  0  0
   -3.8151   -0.8950   -0.4180 C   0  0  0  0  0  0  0  0  0  0  0  0
   -4.8267   -0.1036    0.1950 O   0  0  0  0  0  0  0  0  0  0  0  0
   -2.5276    0.6894    1.4750 H   0  0  0  0  0  0  0  0  0  0  0  0
   -1.7514   -0.7134   -1.0131 H   0  0  0  0  0  0  0  0  0  0  0  0
   -3.7001   -1.8123    0.1683 H   0  0  0  0  0  0  0  0  0  0  0  0
   -4.1549   -1.1618   -1.4243 H   0  0  0  0  0  0  0  0  0  0  0  0
   -4.9291    0.6905   -0.3532 H   0  0  0  0  0  0  0  0  0  0  0  0
   -3.2444    2.1804   -0.3799 N   0  0  0  0  0  0  0  0  0  0  0  0
   -3.5328    3.5214   -0.8328 C   0  0  2  0  0  0  0  0  0  0  0  0
   -3.9205    3.4479   -2.3038 C   0  0  0  0  0  0  0  0  0  0  0  0
   -3.5929    2.5180   -3.0381 O   0  0  0  0  0  0  0  0  0  0  0  0
   -2.3396    4.4424   -0.6305 C   0  0  0  0  0  0  0  0  0  0  0  0
   -3.5086    1.9351    0.5697 H   0  0  0  0  0  0  0  0  0  0  0  0
   -4.3875    3.8762   -0.2465 H   0  0  0  0  0  0  0  0  0  0  0  0
   -1.4735    4.1028   -1.2101 H   0  0  0  0  0  0  0  0  0  0  0  0
   -2.5694    5.4649   -0.9478 H   0  0  0  0  0  0  0  0  0  0  0  0
   -2.0436    4.4708    0.4237 H   0  0  0  0  0  0  0  0  0  0  0  0
   -4.6385    4.5637   -2.7106 N   0  0  0  0  0  0  0  0  0  0  0  0
   -5.1102    4.7360   -4.0648 C   0  0  0  0  0  0  0  0  0  0  0  0
   -4.8815    5.2771   -2.0297 H   0  0  0  0  0  0  0  0  0  0  0  0
   -4.3643    5.2994   -4.6446 H   0  0  0  0  0  0  0  0  0  0  0  0
   -5.2654    3.7500   -4.5272 H   0  0  0  0  0  0  0  0  0  0  0  0
   -6.0607    5.2897   -4.0542 H   0  0  0  0  0  0  0  0  0  0  0  0
  1  3  1  0  0  0  0
  1  7  1  0  0  0  0
  1  2  2  0  0  0  0
 29 30  1  0  0  0  0
 30 38  1  0  0  0  0
 30 31  2  0  0  0  0
  8  9  1  0  0  0  0
  9 17  1  0  0  0  0
  9 10  2  0  0  0  0
 18 19  1  0  0  0  0
 19 28  1  0  0  0  0
 19 20  2  0  0  0  0
 29 32  1  0  0  0  0
  8 11  1  0  0  0  0
 38 39  1  0  0  0  0
 18 21  1  0  0  0  0
 21 22  1  0  0  0  0
 28 29  1  0  0  0  0
  7  8  1  0  0  0  0
 17 18  1  0  0  0  0
  3  4  1  0  0  0  0
  3  5  1  0  0  0  0
  3  6  1  0  0  0  0
 32 35  1  0  0  0  0
 32 36  1  0  0  0  0
 32 37  1  0  0  0  0
 11 14  1  0  0  0  0
 11 15  1  0  0  0  0
 11 16  1  0  0  0  0
 39 41  1  0  0  0  0
 39 42  1  0  0  0  0
 39 43  1  0  0  0  0
 21 25  1  0  0  0  0
 21 26  1  0  0  0  0
 29 34  1  0  0  0  0
  8 13  1  0  0  0  0
 18 24  1  0  0  0  0
 38 40  1  0  0  0  0
  7 12  1  0  0  0  0
 28 33  1  0  0  0  0
 17 23  1  0  0  0  0
 22 27  1  0  0  0  0
M  END
$$$$

  -OEChem-05262214473D

 43 42  0     1  0  0  0  0  0999 V2000
    0.7424   -1.0926    4.5665 C   0  0  0  0  0  0  0  0  0  0  0  0
    0.1409   -0.5364    5.4779 O   0  0  0  0  0  0  0  0  0  0  0  0
    1.7940   -2.1023    4.8871 C   0  0  0  0  0  0  0  0  0  0  0  0
    2.7935   -1.6502    4.9904 H   0  0  0  0  0  0  0  0  0  0  0  0
    1.6064   -2.6156    5.8438 H   0  0  0  0  0  0  0  0  0  0  0  0
    1.9156   -2.9078    4.1453 H   0  0  0  0  0  0  0  0  0  0  0  0
    0.5488   -0.8838    3.2109 N   0  0  0  0  0  0  0  0  0  0  0  0
   -0.4159    0.0446    2.6829 C   0  0  2  0  0  0  0  0  0  0  0  0
   -0.7551   -0.3867    1.2623 C   0  0  0  0  0  0  0  0  0  0  0  0
   -0.0106   -1.0851    0.5774 O   0  0  0  0  0  0  0  0  0  0  0  0
    0.1168    1.4689    2.7060 C   0  0  0  0  0  0  0  0  0  0  0  0
    1.1183   -1.4145    2.5542 H   0  0  0  0  0  0  0  0  0  0  0  0
   -1.3088   -0.0350    3.3125 H   0  0  0  0  0  0  0  0  0  0  0  0
    1.0116    1.5681    2.0808 H   0  0  0  0  0  0  0  0  0  0  0  0
   -0.6289    2.1775    2.3307 H   0  0  0  0  0  0  0  0  0  0  0  0
    0.3882    1.7670    3.7245 H   0  0  0  0  0  0  0  0  0  0  0  0
   -1.9689    0.1350    0.8298 N   0  0  0  0  0  0  0  0  0  0  0  0
   -2.5039   -0.1183   -0.4830 C   0  0  2  0  0  0  0  0  0  0  0  0
   -2.6677    1.2187   -1.1974 C   0  0  0  0  0  0  0  0  0  0  0  0
   -2.6131    1.3362   -2.4198 O   0  0  0  0  0  0  0  0  0  0  0  0
   -3.8151   -0.8950   -0.4180 C   0  0  0  0  0  0  0  0  0  0  0  0
   -4.8267   -0.1036    0.1950 O   0  0  0  0  0  0  0  0  0  0  0  0
   -2.5276    0.6894    1.4750 H   0  0  0  0  0  0  0  0  0  0  0  0
   -1.7514   -0.7134   -1.0131 H   0  0  0  0  0  0  0  0  0  0  0  0
   -3.7001   -1.8123    0.1683 H   0  0  0  0  0  0  0  0  0  0  0  0
   -4.1549   -1.1618   -1.4243 H   0  0  0  0  0  0  0  0  0  0  0  0
   -4.9291    0.6905   -0.3532 H   0  0  0  0  0  0  0  0  0  0  0  0
   -2.9245    2.2559   -0.3119 N   0  0  0  0  0  0  0  0  0  0  0  0
   -3.1484    3.6160   -0.7439 C   0  0  2  0  0  0  0  0  0  0  0  0
   -3.8681    3.5710   -2.0853 C   0  0  0  0  0  0  0  0  0  0  0  0
   -3.8293    2.5976   -2.8350 O   0  0  0  0  0  0  0  0  0  0  0  0
   -1.8405    4.3840   -0.8542 C   0  0  0  0  0  0  0  0  0  0  0  0
   -2.9917    2.0586    0.6822 H   0  0  0  0  0  0  0  0  0  0  0  0
   -3.7984    4.0825    0.0044 H   0  0  0  0  0  0  0  0  0  0  0  0
   -1.1761    3.9313   -1.5993 H   0  0  0  0  0  0  0  0  0  0  0  0
   -2.0143    5.4227   -1.1541 H   0  0  0  0  0  0  0  0  0  0  0  0
   -1.3100    4.3899    0.1041 H   0  0  0  0  0  0  0  0  0  0  0  0
   -4.5233    4.7617   -2.3663 N   0  0  0  0  0  0  0  0  0  0  0  0
   -5.2684    4.9728   -3.5854 C   0  0  0  0  0  0  0  0  0  0  0  0
   -4.5181    5.5092   -1.6786 H   0  0  0  0  0  0  0  0  0  0  0  0
   -4.6137    5.4309   -4.3413 H   0  0  0  0  0  0  0  0  0  0  0  0
   -5.6405    4.0075   -3.9593 H   0  0  0  0  0  0  0  0  0  0  0  0
   -6.1191    5.6405   -3.3842 H   0  0  0  0  0  0  0  0  0  0  0  0
  1  3  1  0  0  0  0
  1  7  1  0  0  0  0
  1  2  2  0  0  0  0
 29 30  1  0  0  0  0
 30 38  1  0  0  0  0
 30 31  2  0  0  0  0
  8  9  1  0  0  0  0
  9 17  1  0  0  0  0
  9 10  2  0  0  0  0
 18 19  1  0  0  0  0
 19 28  1  0  0  0  0
 19 20  2  0  0  0  0
 29 32  1  0  0  0  0
  8 11  1  0  0  0  0
 38 39  1  0  0  0  0
 18 21  1  0  0  0  0
 21 22  1  0  0  0  0
 28 29  1  0  0  0  0
  7  8  1  0  0  0  0
 17 18  1  0  0  0  0
  3  4  1  0  0  0  0
  3  5  1  0  0  0  0
  3  6  1  0  0  0  0
 32 35  1  0  0  0  0
 32 36  1  0  0  0  0
 32 37  1  0  0  0  0
 11 14  1  0  0  0  0
 11 15  1  0  0  0  0
 11 16  1  0  0  0  0
 39 41  1  0  0  0  0
 39 42  1  0  0  0  0
 39 43  1  0  0  0  0
 21 25  1  0  0  0  0
 21 26  1  0  0  0  0
 29 34  1  0  0  0  0
  8 13  1  0  0  0  0
 18 24  1  0  0  0  0
 38 40  1  0  0  0  0
  7 12  1  0  0  0  0
 28 33  1  0  0  0  0
 17 23  1  0  0  0  0
 22 27  1  0  0  0  0
M  END
$$$$

  -OEChem-05262214473D

 43 42  0     1  0  0  0  0  0999 V2000
    0.7424   -1.0926    4.5665 C   0  0  0  0  0  0  0  0  0  0  0  0
    0.1409   -0.5364    5.4779 O   0  0  0  0  0  0  0  0  0  0  0  0
    1.7940   -2.1023    4.8871 C   0  0  0  0  0  0  0  0  0  0  0  0
    2.7935   -1.6502    4.9904 H   0  0  0  0  0  0  0  0  0  0  0  0
    1.6064   -2.6156    5.8438 H   0  0  0  0  0  0  0  0  0  0  0  0
    1.9156   -2.9078    4.1453 H   0  0  0  0  0  0  0  0  0  0  0  0
    0.5488   -0.8838    3.2109 N   0  0  0  0  0  0  0  0  0  0  0  0
   -0.4159    0.0446    2.6829 C   0  0  2  0  0  0  0  0  0  0  0  0
   -0.7551   -0.3867    1.2623 C   0  0  0  0  0  0  0  0  0  0  0  0
   -0.0106   -1.0851    0.5774 O   0  0  0  0  0  0  0  0  0  0  0  0
    0.1168    1.4689    2.7060 C   0  0  0  0  0  0  0  0  0  0  0  0
    1.1183   -1.4145    2.5542 H   0  0  0  0  0  0  0  0  0  0  0  0
   -1.3088   -0.0350    3.3125 H   0  0  0  0  0  0  0  0  0  0  0  0
    1.0116    1.5681    2.0808 H   0  0  0  0  0  0  0  0  0  0  0  0
   -0.6289    2.1775    2.3307 H   0  0  0  0  0  0  0  0  0  0  0  0
    0.3882    1.7670    3.7245 H   0  0  0  0  0  0  0  0  0  0  0  0
   -1.9689    0.1350    0.8298 N   0  0  0  0  0  0  0  0  0  0  0  0
   -2.5039   -0.1183   -0.4830 C   0  0  2  0  0  0  0  0  0  0  0  0
   -2.6677    1.2187   -1.1974 C   0  0  0  0  0  0  0  0  0  0  0  0
   -2.8806    1.3116   -2.4045 O   0  0  0  0  0  0  0  0  0  0  0  0
   -3.8151   -0.8950   -0.4180 C   0  0  0  0  0  0  0  0  0  0  0  0
   -4.8267   -0.1036    0.1950 O   0  0  0  0  0  0  0  0  0  0  0  0
   -2.5276    0.6894    1.4750 H   0  0  0  0  0  0  0  0  0  0  0  0
   -1.7514   -0.7134   -1.0131 H   0  0  0  0  0  0  0  0  0  0  0  0
   -3.7001   -1.8123    0.1683 H   0  0  0  0  0  0  0  0  0  0  0  0
   -4.1549   -1.1618   -1.4243 H   0  0  0  0  0  0  0  0  0  0  0  0
   -4.9291    0.6905   -0.3532 H   0  0  0  0  0  0  0  0  0  0  0  0
   -2.5909    2.2919   -0.3210 N   0  0  0  0  0  0  0  0  0  0  0  0
   -2.7455    3.6632   -0.7479 C   0  0  2  0  0  0  0  0  0  0  0  0
   -3.7530    3.6896   -1.8897 C   0  0  0  0  0  0  0  0  0  0  0  0
   -4.0018    2.7087   -2.5875 O   0  0  0  0  0  0  0  0  0  0  0  0
   -1.4162    4.2608   -1.1820 C   0  0  0  0  0  0  0  0  0  0  0  0
   -2.4518    2.1182    0.6700 H   0  0  0  0  0  0  0  0  0  0  0  0
   -3.1474    4.2173    0.1074 H   0  0  0  0  0  0  0  0  0  0  0  0
   -0.9980    3.7187   -2.0380 H   0  0  0  0  0  0  0  0  0  0  0  0
   -1.5301    5.3088   -1.4781 H   0  0  0  0  0  0  0  0  0  0  0  0
   -0.6837    4.2139   -0.3689 H   0  0  0  0  0  0  0  0  0  0  0  0
   -4.3098    4.9487   -2.0654 N   0  0  0  0  0  0  0  0  0  0  0  0
   -5.2837    5.2340   -3.0931 C   0  0  0  0  0  0  0  0  0  0  0  0
   -4.0593    5.6992   -1.4284 H   0  0  0  0  0  0  0  0  0  0  0  0
   -4.7698    5.5965   -3.9955 H   0  0  0  0  0  0  0  0  0  0  0  0
   -5.8427    4.3174   -3.3329 H   0  0  0  0  0  0  0  0  0  0  0  0
   -5.9808    6.0051   -2.7335 H   0  0  0  0  0  0  0  0  0  0  0  0
  1  3  1  0  0  0  0
  1  7  1  0  0  0  0
  1  2  2  0  0  0  0
 29 30  1  0  0  0  0
 30 38  1  0  0  0  0
 30 31  2  0  0  0  0
  8  9  1  0  0  0  0
  9 17  1  0  0  0  0
  9 10  2  0  0  0  0
 18 19  1  0  0  0  0
 19 28  1  0  0  0  0
 19 20  2  0  0  0  0
 29 32  1  0  0  0  0
  8 11  1  0  0  0  0
 38 39  1  0  0  0  0
 18 21  1  0  0  0  0
 21 22  1  0  0  0  0
 28 29  1  0  0  0  0
  7  8  1  0  0  0  0
 17 18  1  0  0  0  0
  3  4  1  0  0  0  0
  3  5  1  0  0  0  0
  3  6  1  0  0  0  0
 32 35  1  0  0  0  0
 32 36  1  0  0  0  0
 32 37  1  0  0  0  0
 11 14  1  0  0  0  0
 11 15  1  0  0  0  0
 11 16  1  0  0  0  0
 39 41  1  0  0  0  0
 39 42  1  0  0  0  0
 39 43  1  0  0  0  0
 21 25  1  0  0  0  0
 21 26  1  0  0  0  0
 29 34  1  0  0  0  0
  8 13  1  0  0  0  0
 18 24  1  0  0  0  0
 38 40  1  0  0  0  0
  7 12  1  0  0  0  0
 28 33  1  0  0  0  0
 17 23  1  0  0  0  0
 22 27  1  0  0  0  0
M  END
$$$$

  -OEChem-05262214473D

 43 42  0     1  0  0  0  0  0999 V2000
    0.7424   -1.0926    4.5665 C   0  0  0  0  0  0  0  0  0  0  0  0
    0.1409   -0.5364    5.4779 O   0  0  0  0  0  0  0  0  0  0  0  0
    1.7940   -2.1023    4.8871 C   0  0  0  0  0  0  0  0  0  0  0  0
    2.7935   -1.6502    4.9904 H   0  0  0  0  0  0  0  0  0  0  0  0
    1.6064   -2.6156    5.8438 H   0  0  0  0  0  0  0  0  0  0  0  0
    1.9156   -2.9078    4.1453 H   0  0  0  0  0  0  0  0  0  0  0  0
    0.5488   -0.8838    3.2109 N   0  0  0  0  0  0  0  0  0  0  0  0
   -0.4159    0.0446    2.6829 C   0  0  2  0  0  0  0  0  0  0  0  0
   -0.7551   -0.3867    1.2623 C   0  0  0  0  0  0  0  0  0  0  0  0
   -0.0106   -1.0851    0.5774 O   0  0  0  0  0  0  0  0  0  0  0  0
    0.1168    1.4689    2.7060 C   0  0  0  0  0  0  0  0  0  0  0  0
    1.1183   -1.4145    2.5542 H   0  0  0  0  0  0  0  0  0  0  0  0
   -1.3088   -0.0350    3.3125 H   0  0  0  0  0  0  0  0  0  0  0  0
    1.0116    1.5681    2.0808 H   0  0  0  0  0  0  0  0  0  0  0  0
   -0.6289    2.1775    2.3307 H   0  0  0  0  0  0  0  0  0  0  0  0
    0.3882    1.7670    3.7245 H   0  0  0  0  0  0  0  0  0  0  0  0
   -1.9689    0.1350    0.8298 N   0  0  0  0  0  0  0  0  0  0  0  0
   -2.5039   -0.1183   -0.4830 C   0  0  2  0  0  0  0  0  0  0  0  0
   -2.6677    1.2187   -1.1974 C   0  0  0  0  0  0  0  0  0  0  0  0
   -3.1385    1.3208   -2.3284 O   0  0  0  0  0  0  0  0  0  0  0  0
   -3.8151   -0.8950   -0.4180 C   0  0  0  0  0  0  0  0  0  0  0  0
   -4.8267   -0.1036    0.1950 O   0  0  0  0  0  0  0  0  0  0  0  0
   -2.5276    0.6894    1.4750 H   0  0  0  0  0  0  0  0  0  0  0  0
   -1.7514   -0.7134   -1.0131 H   0  0  0  0  0  0  0  0  0  0  0  0
   -3.7001   -1.8123    0.1683 H   0  0  0  0  0  0  0  0  0  0  0  0
   -4.1549   -1.1618   -1.4243 H   0  0  0  0  0  0  0  0  0  0  0  0
   -4.9291    0.6905   -0.3532 H   0  0  0  0  0  0  0  0  0  0  0  0
   -2.2664    2.2860   -0.4065 N   0  0  0  0  0  0  0  0  0  0  0  0
   -2.3515    3.6599   -0.8445 C   0  0  2  0  0  0  0  0  0  0  0  0
   -3.5831    3.7957   -1.7301 C   0  0  0  0  0  0  0  0  0  0  0  0
   -4.0989    2.8438   -2.3123 O   0  0  0  0  0  0  0  0  0  0  0  0
   -1.0957    4.0813   -1.5915 C   0  0  0  0  0  0  0  0  0  0  0  0
   -1.9258    2.1101    0.5341 H   0  0  0  0  0  0  0  0  0  0  0  0
   -2.4789    4.2714    0.0554 H   0  0  0  0  0  0  0  0  0  0  0  0
   -0.9514    3.4796   -2.4962 H   0  0  0  0  0  0  0  0  0  0  0  0
   -1.1498    5.1312   -1.8979 H   0  0  0  0  0  0  0  0  0  0  0  0
   -0.2075    3.9548   -0.9630 H   0  0  0  0  0  0  0  0  0  0  0  0
   -4.0126    5.1117   -1.8284 N   0  0  0  0  0  0  0  0  0  0  0  0
   -5.1551    5.5018   -2.6213 C   0  0  0  0  0  0  0  0  0  0  0  0
   -3.5363    5.8339   -1.2961 H   0  0  0  0  0  0  0  0  0  0  0  0
   -4.8220    5.7851   -3.6306 H   0  0  0  0  0  0  0  0  0  0  0  0
   -5.8583    4.6588   -2.6905 H   0  0  0  0  0  0  0  0  0  0  0  0
   -5.6554    6.3586   -2.1465 H   0  0  0  0  0  0  0  0  0  0  0  0
  1  3  1  0  0  0  0
  1  7  1  0  0  0  0
  1  2  2  0  0  0  0
 29 30  1  0  0  0  0
 30 38  1  0  0  0  0
 30 31  2  0  0  0  0
  8  9  1  0  0  0  0
  9 17  1  0  0  0  0
  9 10  2  0  0  0  0
 18 19  1  0  0  0  0
 19 28  1  0  0  0  0
 19 20  2  0  0  0  0
 29 32  1  0  0  0  0
  8 11  1  0  0  0  0
 38 39  1  0  0  0  0
 18 21  1  0  0  0  0
 21 22  1  0  0  0  0
 28 29  1  0  0  0  0
  7  8  1  0  0  0  0
 17 18  1  0  0  0  0
  3  4  1  0  0  0  0
  3  5  1  0  0  0  0
  3  6  1  0  0  0  0
 32 35  1  0  0  0  0
 32 36  1  0  0  0  0
 32 37  1  0  0  0  0
 11 14  1  0  0  0  0
 11 15  1  0  0  0  0
 11 16  1  0  0  0  0
 39 41  1  0  0  0  0
 39 42  1  0  0  0  0
 39 43  1  0  0  0  0
 21 25  1  0  0  0  0
 21 26  1  0  0  0  0
 29 34  1  0  0  0  0
  8 13  1  0  0  0  0
 18 24  1  0  0  0  0
 38 40  1  0  0  0  0
  7 12  1  0  0  0  0
 28 33  1  0  0  0  0
 17 23  1  0  0  0  0
 22 27  1  0  0  0  0
M  END
$$$$

  -OEChem-05262214473D

 43 42  0     1  0  0  0  0  0999 V2000
    0.7424   -1.0926    4.5665 C   0  0  0  0  0  0  0  0  0  0  0  0
    0.1409   -0.5364    5.4779 O   0  0  0  0  0  0  0  0  0  0  0  0
    1.7940   -2.1023    4.8871 C   0  0  0  0  0  0  0  0  0  0  0  0
    2.7935   -1.6502    4.9904 H   0  0  0  0  0  0  0  0  0  0  0  0
    1.6064   -2.6156    5.8438 H   0  0  0  0  0  0  0  0  0  0  0  0
    1.9156   -2.9078    4.1453 H   0  0  0  0  0  0  0  0  0  0  0  0
    0.5488   -0.8838    3.2109 N   0  0  0  0  0  0  0  0  0  0  0  0
   -0.4159    0.0446    2.6829 C   0  0  2  0  0  0  0  0  0  0  0  0
   -0.7551   -0.3867    1.2623 C   0  0  0  0  0  0  0  0  0  0  0  0
   -0.0106   -1.0851    0.5774 O   0  0  0  0  0  0  0  0  0  0  0  0
    0.1168    1.4689    2.7060 C   0  0  0  0  0  0  0  0  0  0  0  0
    1.1183   -1.4145    2.5542 H   0  0  0  0  0  0  0  0  0  0  0  0
   -1.3088   -0.0350    3.3125 H   0  0  0  0  0  0  0  0  0  0  0  0
    1.0116    1.5681    2.0808 H   0  0  0  0  0  0  0  0  0  0  0  0
   -0.6289    2.1775    2.3307 H   0  0  0  0  0  0  0  0  0  0  0  0
    0.3882    1.7670    3.7245 H   0  0  0  0  0  0  0  0  0  0  0  0
   -1.9689    0.1350    0.8298 N   0  0  0  0  0  0  0  0  0  0  0  0
   -2.5039   -0.1183   -0.4830 C   0  0  2  0  0  0  0  0  0  0  0  0
   -2.6677    1.2187   -1.1974 C   0  0  0  0  0  0  0  0  0  0  0  0
   -3.3692    1.3629   -2.1965 O   0  0  0  0  0  0  0  0  0  0  0  0
   -3.8151   -0.8950   -0.4180 C   0  0  0  0  0  0  0  0  0  0  0  0
   -4.8267   -0.1036    0.1950 O   0  0  0  0  0  0  0  0  0  0  0  0
   -2.5276    0.6894    1.4750 H   0  0  0  0  0  0  0  0  0  0  0  0
   -1.7514   -0.7134   -1.0131 H   0  0  0  0  0  0  0  0  0  0  0  0
   -3.7001   -1.8123    0.1683 H   0  0  0  0  0  0  0  0  0  0  0  0
   -4.1549   -1.1618   -1.4243 H   0  0  0  0  0  0  0  0  0  0  0  0
   -4.9291    0.6905   -0.3532 H   0  0  0  0  0  0  0  0  0  0  0  0
   -1.9731    2.2386   -0.5625 N   0  0  0  0  0  0  0  0  0  0  0  0
   -1.9933    3.6062   -1.0271 C   0  0  2  0  0  0  0  0  0  0  0  0
   -3.3698    3.8820   -1.6175 C   0  0  0  0  0  0  0  0  0  0  0  0
   -4.1138    2.9938   -2.0282 O   0  0  0  0  0  0  0  0  0  0  0  0
   -0.9008    3.8576   -2.0547 C   0  0  0  0  0  0  0  0  0  0  0  0
   -1.4497    2.0346    0.2837 H   0  0  0  0  0  0  0  0  0  0  0  0
   -1.8384    4.2412   -0.1480 H   0  0  0  0  0  0  0  0  0  0  0  0
   -1.0393    3.2302   -2.9428 H   0  0  0  0  0  0  0  0  0  0  0  0
   -0.8992    4.9017   -2.3847 H   0  0  0  0  0  0  0  0  0  0  0  0
    0.0862    3.6303   -1.6378 H   0  0  0  0  0  0  0  0  0  0  0  0
   -3.6520    5.2398   -1.6714 N   0  0  0  0  0  0  0  0  0  0  0  0
   -4.8912    5.7580   -2.2022 C   0  0  0  0  0  0  0  0  0  0  0  0
   -2.9848    5.9043   -1.2907 H   0  0  0  0  0  0  0  0  0  0  0  0
   -4.7668    5.9837   -3.2716 H   0  0  0  0  0  0  0  0  0  0  0  0
   -5.6861    5.0082   -2.0759 H   0  0  0  0  0  0  0  0  0  0  0  0
   -5.1650    6.6770   -1.6631 H   0  0  0  0  0  0  0  0  0  0  0  0
  1  3  1  0  0  0  0
  1  7  1  0  0  0  0
  1  2  2  0  0  0  0
 29 30  1  0  0  0  0
 30 38  1  0  0  0  0
 30 31  2  0  0  0  0
  8  9  1  0  0  0  0
  9 17  1  0  0  0  0
  9 10  2  0  0  0  0
 18 19  1  0  0  0  0
 19 28  1  0  0  0  0
 19 20  2  0  0  0  0
 29 32  1  0  0  0  0
  8 11  1  0  0  0  0
 38 39  1  0  0  0  0
 18 21  1  0  0  0  0
 21 22  1  0  0  0  0
 28 29  1  0  0  0  0
  7  8  1  0  0  0  0
 17 18  1  0  0  0  0
  3  4  1  0  0  0  0
  3  5  1  0  0  0  0
  3  6  1  0  0  0  0
 32 35  1  0  0  0  0
 32 36  1  0  0  0  0
 32 37  1  0  0  0  0
 11 14  1  0  0  0  0
 11 15  1  0  0  0  0
 11 16  1  0  0  0  0
 39 41  1  0  0  0  0
 39 42  1  0  0  0  0
 39 43  1  0  0  0  0
 21 25  1  0  0  0  0
 21 26  1  0  0  0  0
 29 34  1  0  0  0  0
  8 13  1  0  0  0  0
 18 24  1  0  0  0  0
 38 40  1  0  0  0  0
  7 12  1  0  0  0  0
 28 33  1  0  0  0  0
 17 23  1  0  0  0  0
 22 27  1  0  0  0  0
M  END
$$$$

  -OEChem-05262214473D

 43 42  0     1  0  0  0  0  0999 V2000
    0.7424   -1.0926    4.5665 C   0  0  0  0  0  0  0  0  0  0  0  0
    0.1409   -0.5364    5.4779 O   0  0  0  0  0  0  0  0  0  0  0  0
    1.7940   -2.1023    4.8871 C   0  0  0  0  0  0  0  0  0  0  0  0
    2.7935   -1.6502    4.9904 H   0  0  0  0  0  0  0  0  0  0  0  0
    1.6064   -2.6156    5.8438 H   0  0  0  0  0  0  0  0  0  0  0  0
    1.9156   -2.9078    4.1453 H   0  0  0  0  0  0  0  0  0  0  0  0
    0.5488   -0.8838    3.2109 N   0  0  0  0  0  0  0  0  0  0  0  0
   -0.4159    0.0446    2.6829 C   0  0  2  0  0  0  0  0  0  0  0  0
   -0.7551   -0.3867    1.2623 C   0  0  0  0  0  0  0  0  0  0  0  0
   -0.0106   -1.0851    0.5774 O   0  0  0  0  0  0  0  0  0  0  0  0
    0.1168    1.4689    2.7060 C   0  0  0  0  0  0  0  0  0  0  0  0
    1.1183   -1.4145    2.5542 H   0  0  0  0  0  0  0  0  0  0  0  0
   -1.3088   -0.0350    3.3125 H   0  0  0  0  0  0  0  0  0  0  0  0
    1.0116    1.5681    2.0808 H   0  0  0  0  0  0  0  0  0  0  0  0
   -0.6289    2.1775    2.3307 H   0  0  0  0  0  0  0  0  0  0  0  0
    0.3882    1.7670    3.7245 H   0  0  0  0  0  0  0  0  0  0  0  0
   -1.9689    0.1350    0.8298 N   0  0  0  0  0  0  0  0  0  0  0  0
   -2.5039   -0.1183   -0.4830 C   0  0  2  0  0  0  0  0  0  0  0  0
   -2.6677    1.2187   -1.1974 C   0  0  0  0  0  0  0  0  0  0  0  0
   -3.5570    1.4353   -2.0179 O   0  0  0  0  0  0  0  0  0  0  0  0
   -3.8151   -0.8950   -0.4180 C   0  0  0  0  0  0  0  0  0  0  0  0
   -4.8267   -0.1036    0.1950 O   0  0  0  0  0  0  0  0  0  0  0  0
   -2.5276    0.6894    1.4750 H   0  0  0  0  0  0  0  0  0  0  0  0
   -1.7514   -0.7134   -1.0131 H   0  0  0  0  0  0  0  0  0  0  0  0
   -3.7001   -1.8123    0.1683 H   0  0  0  0  0  0  0  0  0  0  0  0
   -4.1549   -1.1618   -1.4243 H   0  0  0  0  0  0  0  0  0  0  0  0
   -4.9291    0.6905   -0.3532 H   0  0  0  0  0  0  0  0  0  0  0  0
   -1.7309    2.1529   -0.7785 N   0  0  0  0  0  0  0  0  0  0  0  0
   -1.6952    3.5058   -1.2834 C   0  0  2  0  0  0  0  0  0  0  0  0
   -3.1278    3.9426   -1.5595 C   0  0  0  0  0  0  0  0  0  0  0  0
   -4.0455    3.1484   -1.7546 O   0  0  0  0  0  0  0  0  0  0  0  0
   -0.8448    3.6051   -2.5402 C   0  0  0  0  0  0  0  0  0  0  0  0
   -1.0557    1.8970   -0.0641 H   0  0  0  0  0  0  0  0  0  0  0  0
   -1.2695    4.1286   -0.4891 H   0  0  0  0  0  0  0  0  0  0  0  0
   -1.2558    2.9876   -3.3472 H   0  0  0  0  0  0  0  0  0  0  0  0
   -0.7955    4.6362   -2.9054 H   0  0  0  0  0  0  0  0  0  0  0  0
    0.1775    3.2624   -2.3472 H   0  0  0  0  0  0  0  0  0  0  0  0
   -3.2526    5.3241   -1.6052 N   0  0  0  0  0  0  0  0  0  0  0  0
   -4.5102    5.9852   -1.8644 C   0  0  0  0  0  0  0  0  0  0  0  0
   -2.4423    5.9056   -1.4127 H   0  0  0  0  0  0  0  0  0  0  0  0
   -4.6078    6.1789   -2.9428 H   0  0  0  0  0  0  0  0  0  0  0  0
   -5.3380    5.3420   -1.5311 H   0  0  0  0  0  0  0  0  0  0  0  0
   -4.5431    6.9384   -1.3164 H   0  0  0  0  0  0  0  0  0  0  0  0
  1  3  1  0  0  0  0
  1  7  1  0  0  0  0
  1  2  2  0  0  0  0
 29 30  1  0  0  0  0
 30 38  1  0  0  0  0
 30 31  2  0  0  0  0
  8  9  1  0  0  0  0
  9 17  1  0  0  0  0
  9 10  2  0  0  0  0
 18 19  1  0  0  0  0
 19 28  1  0  0  0  0
 19 20  2  0  0  0  0
 29 32  1  0  0  0  0
  8 11  1  0  0  0  0
 38 39  1  0  0  0  0
 18 21  1  0  0  0  0
 21 22  1  0  0  0  0
 28 29  1  0  0  0  0
  7  8  1  0  0  0  0
 17 18  1  0  0  0  0
  3  4  1  0  0  0  0
  3  5  1  0  0  0  0
  3  6  1  0  0  0  0
 32 35  1  0  0  0  0
 32 36  1  0  0  0  0
 32 37  1  0  0  0  0
 11 14  1  0  0  0  0
 11 15  1  0  0  0  0
 11 16  1  0  0  0  0
 39 41  1  0  0  0  0
 39 42  1  0  0  0  0
 39 43  1  0  0  0  0
 21 25  1  0  0  0  0
 21 26  1  0  0  0  0
 29 34  1  0  0  0  0
  8 13  1  0  0  0  0
 18 24  1  0  0  0  0
 38 40  1  0  0  0  0
  7 12  1  0  0  0  0
 28 33  1  0  0  0  0
 17 23  1  0  0  0  0
 22 27  1  0  0  0  0
M  END
$$$$

  -OEChem-05262214473D

 43 42  0     1  0  0  0  0  0999 V2000
    0.7424   -1.0926    4.5665 C   0  0  0  0  0  0  0  0  0  0  0  0
    0.1409   -0.5364    5.4779 O   0  0  0  0  0  0  0  0  0  0  0  0
    1.7940   -2.1023    4.8871 C   0  0  0  0  0  0  0  0  0  0  0  0
    2.7935   -1.6502    4.9904 H   0  0  0  0  0  0  0  0  0  0  0  0
    1.6064   -2.6156    5.8438 H   0  0  0  0  0  0  0  0  0  0  0  0
    1.9156   -2.9078    4.1453 H   0  0  0  0  0  0  0  0  0  0  0  0
    0.5488   -0.8838    3.2109 N   0  0  0  0  0  0  0  0  0  0  0  0
   -0.4159    0.0446    2.6829 C   0  0  2  0  0  0  0  0  0  0  0  0
   -0.7551   -0.3867    1.2623 C   0  0  0  0  0  0  0  0  0  0  0  0
   -0.0106   -1.0851    0.5774 O   0  0  0  0  0  0  0  0  0  0  0  0
    0.1168    1.4689    2.7060 C   0  0  0  0  0  0  0  0  0  0  0  0
    1.1183   -1.4145    2.5542 H   0  0  0  0  0  0  0  0  0  0  0  0
   -1.3088   -0.0350    3.3125 H   0  0  0  0  0  0  0  0  0  0  0  0
    1.0116    1.5681    2.0808 H   0  0  0  0  0  0  0  0  0  0  0  0
   -0.6289    2.1775    2.3307 H   0  0  0  0  0  0  0  0  0  0  0  0
    0.3882    1.7670    3.7245 H   0  0  0  0  0  0  0  0  0  0  0  0
   -1.9689    0.1350    0.8298 N   0  0  0  0  0  0  0  0  0  0  0  0
   -2.5039   -0.1183   -0.4830 C   0  0  2  0  0  0  0  0  0  0  0  0
   -2.6677    1.2187   -1.1974 C   0  0  0  0  0  0  0  0  0  0  0  0
   -3.6892    1.5330   -1.8049 O   0  0  0  0  0  0  0  0  0  0  0  0
   -3.8151   -0.8950   -0.4180 C   0  0  0  0  0  0  0  0  0  0  0  0
   -4.8267   -0.1036    0.1950 O   0  0  0  0  0  0  0  0  0  0  0  0
   -2.5276    0.6894    1.4750 H   0  0  0  0  0  0  0  0  0  0  0  0
   -1.7514   -0.7134   -1.0131 H   0  0  0  0  0  0  0  0  0  0  0  0
   -3.7001   -1.8123    0.1683 H   0  0  0  0  0  0  0  0  0  0  0  0
   -4.1549   -1.1618   -1.4243 H   0  0  0  0  0  0  0  0  0  0  0  0
   -4.9291    0.6905   -0.3532 H   0  0  0  0  0  0  0  0  0  0  0  0
   -1.5563    2.0347   -1.0397 N   0  0  0  0  0  0  0  0  0  0  0  0
   -1.4776    3.3655   -1.5957 C   0  0  2  0  0  0  0  0  0  0  0  0
   -2.8736    3.9735   -1.5601 C   0  0  0  0  0  0  0  0  0  0  0  0
   -3.8987    3.2970   -1.5101 O   0  0  0  0  0  0  0  0  0  0  0  0
   -0.9315    3.3409   -3.0148 C   0  0  0  0  0  0  0  0  0  0  0  0
   -0.7707    1.7067   -0.4857 H   0  0  0  0  0  0  0  0  0  0  0  0
   -0.8111    3.9415   -0.9445 H   0  0  0  0  0  0  0  0  0  0  0  0
   -1.5861    2.7682   -3.6820 H   0  0  0  0  0  0  0  0  0  0  0  0
   -0.8456    4.3527   -3.4246 H   0  0  0  0  0  0  0  0  0  0  0  0
    0.0600    2.8763   -3.0429 H   0  0  0  0  0  0  0  0  0  0  0  0
   -2.8414    5.3590   -1.6342 N   0  0  0  0  0  0  0  0  0  0  0  0
   -4.0380    6.1678   -1.6309 C   0  0  0  0  0  0  0  0  0  0  0  0
   -1.9458    5.8377   -1.6537 H   0  0  0  0  0  0  0  0  0  0  0  0
   -4.3560    6.3572   -2.6667 H   0  0  0  0  0  0  0  0  0  0  0  0
   -4.8376    5.6373   -1.0931 H   0  0  0  0  0  0  0  0  0  0  0  0
   -3.8319    7.1252   -1.1299 H   0  0  0  0  0  0  0  0  0  0  0  0
  1  3  1  0  0  0  0
  1  7  1  0  0  0  0
  1  2  2  0  0  0  0
 29 30  1  0  0  0  0
 30 38  1  0  0  0  0
 30 31  2  0  0  0  0
  8  9  1  0  0  0  0
  9 17  1  0  0  0  0
  9 10  2  0  0  0  0
 18 19  1  0  0  0  0
 19 28  1  0  0  0  0
 19 20  2  0  0  0  0
 29 32  1  0  0  0  0
  8 11  1  0  0  0  0
 38 39  1  0  0  0  0
 18 21  1  0  0  0  0
 21 22  1  0  0  0  0
 28 29  1  0  0  0  0
  7  8  1  0  0  0  0
 17 18  1  0  0  0  0
  3  4  1  0  0  0  0
  3  5  1  0  0  0  0
  3  6  1  0  0  0  0
 32 35  1  0  0  0  0
 32 36  1  0  0  0  0
 32 37  1  0  0  0  0
 11 14  1  0  0  0  0
 11 15  1  0  0  0  0
 11 16  1  0  0  0  0
 39 41  1  0  0  0  0
 39 42  1  0  0  0  0
 39 43  1  0  0  0  0
 21 25  1  0  0  0  0
 21 26  1  0  0  0  0
 29 34  1  0  0  0  0
  8 13  1  0  0  0  0
 18 24  1  0  0  0  0
 38 40  1  0  0  0  0
  7 12  1  0  0  0  0
 28 33  1  0  0  0  0
 17 23  1  0  0  0  0
 22 27  1  0  0  0  0
M  END
$$$$

  -OEChem-05262214473D

 43 42  0     1  0  0  0  0  0999 V2000
    0.7424   -1.0926    4.5665 C   0  0  0  0  0  0  0  0  0  0  0  0
    0.1409   -0.5364    5.4779 O   0  0  0  0  0  0  0  0  0  0  0  0
    1.7940   -2.1023    4.8871 C   0  0  0  0  0  0  0  0  0  0  0  0
    2.7935   -1.6502    4.9904 H   0  0  0  0  0  0  0  0  0  0  0  0
    1.6064   -2.6156    5.8438 H   0  0  0  0  0  0  0  0  0  0  0  0
    1.9156   -2.9078    4.1453 H   0  0  0  0  0  0  0  0  0  0  0  0
    0.5488   -0.8838    3.2109 N   0  0  0  0  0  0  0  0  0  0  0  0
   -0.4159    0.0446    2.6829 C   0  0  2  0  0  0  0  0  0  0  0  0
   -0.7551   -0.3867    1.2623 C   0  0  0  0  0  0  0  0  0  0  0  0
   -0.0106   -1.0851    0.5774 O   0  0  0  0  0  0  0  0  0  0  0  0
    0.1168    1.4689    2.7060 C   0  0  0  0  0  0  0  0  0  0  0  0
    1.1183   -1.4145    2.5542 H   0  0  0  0  0  0  0  0  0  0  0  0
   -1.3088   -0.0350    3.3125 H   0  0  0  0  0  0  0  0  0  0  0  0
    1.0116    1.5681    2.0808 H   0  0  0  0  0  0  0  0  0  0  0  0
   -0.6289    2.1775    2.3307 H   0  0  0  0  0  0  0  0  0  0  0  0
    0.3882    1.7670    3.7245 H   0  0  0  0  0  0  0  0  0  0  0  0
   -1.9689    0.1350    0.8298 N   0  0  0  0  0  0  0  0  0  0  0  0
   -2.5039   -0.1183   -0.4830 C   0  0  2  0  0  0  0  0  0  0  0  0
   -2.6677    1.2187   -1.1974 C   0  0  0  0  0  0  0  0  0  0  0  0
   -3.7566    1.6493   -1.5718 O   0  0  0  0  0  0  0  0  0  0  0  0
   -3.8151   -0.8950   -0.4180 C   0  0  0  0  0  0  0  0  0  0  0  0
   -4.8267   -0.1036    0.1950 O   0  0  0  0  0  0  0  0  0  0  0  0
   -2.5276    0.6894    1.4750 H   0  0  0  0  0  0  0  0  0  0  0  0
   -1.7514   -0.7134   -1.0131 H   0  0  0  0  0  0  0  0  0  0  0  0
   -3.7001   -1.8123    0.1683 H   0  0  0  0  0  0  0  0  0  0  0  0
   -4.1549   -1.1618   -1.4243 H   0  0  0  0  0  0  0  0  0  0  0  0
   -4.9291    0.6905   -0.3532 H   0  0  0  0  0  0  0  0  0  0  0  0
   -1.4614    1.8921   -1.3283 N   0  0  0  0  0  0  0  0  0  0  0  0
   -1.3553    3.1950   -1.9429 C   0  0  2  0  0  0  0  0  0  0  0  0
   -2.6243    3.9724   -1.6192 C   0  0  0  0  0  0  0  0  0  0  0  0
   -3.6834    3.4295   -1.3114 O   0  0  0  0  0  0  0  0  0  0  0  0
   -1.1551    3.0830   -3.4463 C   0  0  0  0  0  0  0  0  0  0  0  0
   -0.6143    1.4765   -0.9523 H   0  0  0  0  0  0  0  0  0  0  0  0
   -0.4944    3.6924   -1.4832 H   0  0  0  0  0  0  0  0  0  0  0  0
   -2.0078    2.5871   -3.9244 H   0  0  0  0  0  0  0  0  0  0  0  0
   -1.0463    4.0705   -3.9067 H   0  0  0  0  0  0  0  0  0  0  0  0
   -0.2582    2.4982   -3.6775 H   0  0  0  0  0  0  0  0  0  0  0  0
   -2.4467    5.3420   -1.7565 N   0  0  0  0  0  0  0  0  0  0  0  0
   -3.5067    6.2934   -1.5176 C   0  0  0  0  0  0  0  0  0  0  0  0
   -1.5292    5.7052   -1.9972 H   0  0  0  0  0  0  0  0  0  0  0  0
   -4.0285    6.5066   -2.4622 H   0  0  0  0  0  0  0  0  0  0  0  0
   -4.2190    5.8740   -0.7919 H   0  0  0  0  0  0  0  0  0  0  0  0
   -3.0799    7.2245   -1.1164 H   0  0  0  0  0  0  0  0  0  0  0  0
  1  3  1  0  0  0  0
  1  7  1  0  0  0  0
  1  2  2  0  0  0  0
 29 30  1  0  0  0  0
 30 38  1  0  0  0  0
 30 31  2  0  0  0  0
  8  9  1  0  0  0  0
  9 17  1  0  0  0  0
  9 10  2  0  0  0  0
 18 19  1  0  0  0  0
 19 28  1  0  0  0  0
 19 20  2  0  0  0  0
 29 32  1  0  0  0  0
  8 11  1  0  0  0  0
 38 39  1  0  0  0  0
 18 21  1  0  0  0  0
 21 22  1  0  0  0  0
 28 29  1  0  0  0  0
  7  8  1  0  0  0  0
 17 18  1  0  0  0  0
  3  4  1  0  0  0  0
  3  5  1  0  0  0  0
  3  6  1  0  0  0  0
 32 35  1  0  0  0  0
 32 36  1  0  0  0  0
 32 37  1  0  0  0  0
 11 14  1  0  0  0  0
 11 15  1  0  0  0  0
 11 16  1  0  0  0  0
 39 41  1  0  0  0  0
 39 42  1  0  0  0  0
 39 43  1  0  0  0  0
 21 25  1  0  0  0  0
 21 26  1  0  0  0  0
 29 34  1  0  0  0  0
  8 13  1  0  0  0  0
 18 24  1  0  0  0  0
 38 40  1  0  0  0  0
  7 12  1  0  0  0  0
 28 33  1  0  0  0  0
 17 23  1  0  0  0  0
 22 27  1  0  0  0  0
M  END
$$$$

  -OEChem-05262214473D

 43 42  0     1  0  0  0  0  0999 V2000
    0.7424   -1.0926    4.5665 C   0  0  0  0  0  0  0  0  0  0  0  0
    0.1409   -0.5364    5.4779 O   0  0  0  0  0  0  0  0  0  0  0  0
    1.7940   -2.1023    4.8871 C   0  0  0  0  0  0  0  0  0  0  0  0
    2.7935   -1.6502    4.9904 H   0  0  0  0  0  0  0  0  0  0  0  0
    1.6064   -2.6156    5.8438 H   0  0  0  0  0  0  0  0  0  0  0  0
    1.9156   -2.9078    4.1453 H   0  0  0  0  0  0  0  0  0  0  0  0
    0.5488   -0.8838    3.2109 N   0  0  0  0  0  0  0  0  0  0  0  0
   -0.4159    0.0446    2.6829 C   0  0  2  0  0  0  0  0  0  0  0  0
   -0.7551   -0.3867    1.2623 C   0  0  0  0  0  0  0  0  0  0  0  0
   -0.0106   -1.0851    0.5774 O   0  0  0  0  0  0  0  0  0  0  0  0
    0.1168    1.4689    2.7060 C   0  0  0  0  0  0  0  0  0  0  0  0
    1.1183   -1.4145    2.5542 H   0  0  0  0  0  0  0  0  0  0  0  0
   -1.3088   -0.0350    3.3125 H   0  0  0  0  0  0  0  0  0  0  0  0
    1.0116    1.5681    2.0808 H   0  0  0  0  0  0  0  0  0  0  0  0
   -0.6289    2.1775    2.3307 H   0  0  0  0  0  0  0  0  0  0  0  0
    0.3882    1.7670    3.7245 H   0  0  0  0  0  0  0  0  0  0  0  0
   -1.9689    0.1350    0.8298 N   0  0  0  0  0  0  0  0  0  0  0  0
   -2.5039   -0.1183   -0.4830 C   0  0  2  0  0  0  0  0  0  0  0  0
   -2.6677    1.2187   -1.1974 C   0  0  0  0  0  0  0  0  0  0  0  0
   -3.7547    1.7763   -1.3346 O   0  0  0  0  0  0  0  0  0  0  0  0
   -3.8151   -0.8950   -0.4180 C   0  0  0  0  0  0  0  0  0  0  0  0
   -4.8267   -0.1036    0.1950 O   0  0  0  0  0  0  0  0  0  0  0  0
   -2.5276    0.6894    1.4750 H   0  0  0  0  0  0  0  0  0  0  0  0
   -1.7514   -0.7134   -1.0131 H   0  0  0  0  0  0  0  0  0  0  0  0
   -3.7001   -1.8123    0.1683 H   0  0  0  0  0  0  0  0  0  0  0  0
   -4.1549   -1.1618   -1.4243 H   0  0  0  0  0  0  0  0  0  0  0  0
   -4.9291    0.6905   -0.3532 H   0  0  0  0  0  0  0  0  0  0  0  0
   -1.4525    1.7348   -1.6247 N   0  0  0  0  0  0  0  0  0  0  0  0
   -1.3367    3.0058   -2.3013 C   0  0  2  0  0  0  0  0  0  0  0  0
   -2.3972    3.9395   -1.7329 C   0  0  0  0  0  0  0  0  0  0  0  0
   -3.4143    3.5370   -1.1720 O   0  0  0  0  0  0  0  0  0  0  0  0
   -1.5002    2.8490   -3.8051 C   0  0  0  0  0  0  0  0  0  0  0  0
   -0.5970    1.2223   -1.4321 H   0  0  0  0  0  0  0  0  0  0  0  0
   -0.3409    3.3985   -2.0686 H   0  0  0  0  0  0  0  0  0  0  0  0
   -2.4920    2.4565   -4.0577 H   0  0  0  0  0  0  0  0  0  0  0  0
   -1.3838    3.8088   -4.3191 H   0  0  0  0  0  0  0  0  0  0  0  0
   -0.7554    2.1540   -4.2077 H   0  0  0  0  0  0  0  0  0  0  0  0
   -2.0952    5.2743   -1.9638 N   0  0  0  0  0  0  0  0  0  0  0  0
   -2.9526    6.3535   -1.5323 C   0  0  0  0  0  0  0  0  0  0  0  0
   -1.2208    5.5171   -2.4200 H   0  0  0  0  0  0  0  0  0  0  0  0
   -3.6477    6.6169   -2.3431 H   0  0  0  0  0  0  0  0  0  0  0  0
   -3.5245    6.0361   -0.6479 H   0  0  0  0  0  0  0  0  0  0  0  0
   -2.3385    7.2297   -1.2768 H   0  0  0  0  0  0  0  0  0  0  0  0
  1  3  1  0  0  0  0
  1  7  1  0  0  0  0
  1  2  2  0  0  0  0
 29 30  1  0  0  0  0
 30 38  1  0  0  0  0
 30 31  2  0  0  0  0
  8  9  1  0  0  0  0
  9 17  1  0  0  0  0
  9 10  2  0  0  0  0
 18 19  1  0  0  0  0
 19 28  1  0  0  0  0
 19 20  2  0  0  0  0
 29 32  1  0  0  0  0
  8 11  1  0  0  0  0
 38 39  1  0  0  0  0
 18 21  1  0  0  0  0
 21 22  1  0  0  0  0
 28 29  1  0  0  0  0
  7  8  1  0  0  0  0
 17 18  1  0  0  0  0
  3  4  1  0  0  0  0
  3  5  1  0  0  0  0
  3  6  1  0  0  0  0
 32 35  1  0  0  0  0
 32 36  1  0  0  0  0
 32 37  1  0  0  0  0
 11 14  1  0  0  0  0
 11 15  1  0  0  0  0
 11 16  1  0  0  0  0
 39 41  1  0  0  0  0
 39 42  1  0  0  0  0
 39 43  1  0  0  0  0
 21 25  1  0  0  0  0
 21 26  1  0  0  0  0
 29 34  1  0  0  0  0
  8 13  1  0  0  0  0
 18 24  1  0  0  0  0
 38 40  1  0  0  0  0
  7 12  1  0  0  0  0
 28 33  1  0  0  0  0
 17 23  1  0  0  0  0
 22 27  1  0  0  0  0
M  END
$$$$

  -OEChem-05262214473D

 43 42  0     1  0  0  0  0  0999 V2000
    0.7424   -1.0926    4.5665 C   0  0  0  0  0  0  0  0  0  0  0  0
    0.1409   -0.5364    5.4779 O   0  0  0  0  0  0  0  0  0  0  0  0
    1.7940   -2.1023    4.8871 C   0  0  0  0  0  0  0  0  0  0  0  0
    2.7935   -1.6502    4.9904 H   0  0  0  0  0  0  0  0  0  0  0  0
    1.6064   -2.6156    5.8438 H   0  0  0  0  0  0  0  0  0  0  0  0
    1.9156   -2.9078    4.1453 H   0  0  0  0  0  0  0  0  0  0  0  0
    0.5488   -0.8838    3.2109 N   0  0  0  0  0  0  0  0  0  0  0  0
   -0.4159    0.0446    2.6829 C   0  0  2  0  0  0  0  0  0  0  0  0
   -0.7551   -0.3867    1.2623 C   0  0  0  0  0  0  0  0  0  0  0  0
   -0.0106   -1.0851    0.5774 O   0  0  0  0  0  0  0  0  0  0  0  0
    0.1168    1.4689    2.7060 C   0  0  0  0  0  0  0  0  0  0  0  0
    1.1183   -1.4145    2.5542 H   0  0  0  0  0  0  0  0  0  0  0  0
   -1.3088   -0.0350    3.3125 H   0  0  0  0  0  0  0  0  0  0  0  0
    1.0116    1.5681    2.0808 H   0  0  0  0  0  0  0  0  0  0  0  0
   -0.6289    2.1775    2.3307 H   0  0  0  0  0  0  0  0  0  0  0  0
    0.3882    1.7670    3.7245 H   0  0  0  0  0  0  0  0  0  0  0  0
   -1.9689    0.1350    0.8298 N   0  0  0  0  0  0  0  0  0  0  0  0
   -2.5039   -0.1183   -0.4830 C   0  0  2  0  0  0  0  0  0  0  0  0
   -2.6677    1.2187   -1.1974 C   0  0  0  0  0  0  0  0  0  0  0  0
   -3.6836    1.9053   -1.1094 O   0  0  0  0  0  0  0  0  0  0  0  0
   -3.8151   -0.8950   -0.4180 C   0  0  0  0  0  0  0  0  0  0  0  0
   -4.8267   -0.1036    0.1950 O   0  0  0  0  0  0  0  0  0  0  0  0
   -2.5276    0.6894    1.4750 H   0  0  0  0  0  0  0  0  0  0  0  0
   -1.7514   -0.7134   -1.0131 H   0  0  0  0  0  0  0  0  0  0  0  0
   -3.7001   -1.8123    0.1683 H   0  0  0  0  0  0  0  0  0  0  0  0
   -4.1549   -1.1618   -1.4243 H   0  0  0  0  0  0  0  0  0  0  0  0
   -4.9291    0.6905   -0.3532 H   0  0  0  0  0  0  0  0  0  0  0  0
   -1.5302    1.5736   -1.9086 N   0  0  0  0  0  0  0  0  0  0  0  0
   -1.4230    2.8108   -2.6465 C   0  0  2  0  0  0  0  0  0  0  0  0
   -2.2075    3.8770   -1.8933 C   0  0  0  0  0  0  0  0  0  0  0  0
   -3.1097    3.6120   -1.1015 O   0  0  0  0  0  0  0  0  0  0  0  0
   -1.9434    2.6548   -4.0669 C   0  0  0  0  0  0  0  0  0  0  0  0
   -0.7200    0.9612   -1.8924 H   0  0  0  0  0  0  0  0  0  0  0  0
   -0.3611    3.0796   -2.6606 H   0  0  0  0  0  0  0  0  0  0  0  0
   -3.0059    2.3855   -4.0729 H   0  0  0  0  0  0  0  0  0  0  0  0
   -1.8351    3.5855   -4.6335 H   0  0  0  0  0  0  0  0  0  0  0  0
   -1.3978    1.8670   -4.5975 H   0  0  0  0  0  0  0  0  0  0  0  0
   -1.8110    5.1605   -2.2419 N   0  0  0  0  0  0  0  0  0  0  0  0
   -2.4134    6.3439   -1.6738 C   0  0  0  0  0  0  0  0  0  0  0  0
   -1.0416    5.2863   -2.8930 H   0  0  0  0  0  0  0  0  0  0  0  0
   -3.2394    6.6806   -2.3176 H   0  0  0  0  0  0  0  0  0  0  0  0
   -2.8012    6.1124   -0.6709 H   0  0  0  0  0  0  0  0  0  0  0  0
   -1.6581    7.1403   -1.6001 H   0  0  0  0  0  0  0  0  0  0  0  0
  1  3  1  0  0  0  0
  1  7  1  0  0  0  0
  1  2  2  0  0  0  0
 29 30  1  0  0  0  0
 30 38  1  0  0  0  0
 30 31  2  0  0  0  0
  8  9  1  0  0  0  0
  9 17  1  0  0  0  0
  9 10  2  0  0  0  0
 18 19  1  0  0  0  0
 19 28  1  0  0  0  0
 19 20  2  0  0  0  0
 29 32  1  0  0  0  0
  8 11  1  0  0  0  0
 38 39  1  0  0  0  0
 18 21  1  0  0  0  0
 21 22  1  0  0  0  0
 28 29  1  0  0  0  0
  7  8  1  0  0  0  0
 17 18  1  0  0  0  0
  3  4  1  0  0  0  0
  3  5  1  0  0  0  0
  3  6  1  0  0  0  0
 32 35  1  0  0  0  0
 32 36  1  0  0  0  0
 32 37  1  0  0  0  0
 11 14  1  0  0  0  0
 11 15  1  0  0  0  0
 11 16  1  0  0  0  0
 39 41  1  0  0  0  0
 39 42  1  0  0  0  0
 39 43  1  0  0  0  0
 21 25  1  0  0  0  0
 21 26  1  0  0  0  0
 29 34  1  0  0  0  0
  8 13  1  0  0  0  0
 18 24  1  0  0  0  0
 38 40  1  0  0  0  0
  7 12  1  0  0  0  0
 28 33  1  0  0  0  0
 17 23  1  0  0  0  0
 22 27  1  0  0  0  0
M  END
$$$$

  -OEChem-05262214473D

 43 42  0     1  0  0  0  0  0999 V2000
    0.7424   -1.0926    4.5665 C   0  0  0  0  0  0  0  0  0  0  0  0
    0.1409   -0.5364    5.4779 O   0  0  0  0  0  0  0  0  0  0  0  0
    1.7940   -2.1023    4.8871 C   0  0  0  0  0  0  0  0  0  0  0  0
    2.7935   -1.6502    4.9904 H   0  0  0  0  0  0  0  0  0  0  0  0
    1.6064   -2.6156    5.8438 H   0  0  0  0  0  0  0  0  0  0  0  0
    1.9156   -2.9078    4.1453 H   0  0  0  0  0  0  0  0  0  0  0  0
    0.5488   -0.8838    3.2109 N   0  0  0  0  0  0  0  0  0  0  0  0
   -0.4159    0.0446    2.6829 C   0  0  2  0  0  0  0  0  0  0  0  0
   -0.7551   -0.3867    1.2623 C   0  0  0  0  0  0  0  0  0  0  0  0
   -0.0106   -1.0851    0.5774 O   0  0  0  0  0  0  0  0  0  0  0  0
    0.1168    1.4689    2.7060 C   0  0  0  0  0  0  0  0  0  0  0  0
    1.1183   -1.4145    2.5542 H   0  0  0  0  0  0  0  0  0  0  0  0
   -1.3088   -0.0350    3.3125 H   0  0  0  0  0  0  0  0  0  0  0  0
    1.0116    1.5681    2.0808 H   0  0  0  0  0  0  0  0  0  0  0  0
   -0.6289    2.1775    2.3307 H   0  0  0  0  0  0  0  0  0  0  0  0
    0.3882    1.7670    3.7245 H   0  0  0  0  0  0  0  0  0  0  0  0
   -1.9689    0.1350    0.8298 N   0  0  0  0  0  0  0  0  0  0  0  0
   -2.5039   -0.1183   -0.4830 C   0  0  2  0  0  0  0  0  0  0  0  0
   -2.6677    1.2187   -1.1974 C   0  0  0  0  0  0  0  0  0  0  0  0
   -3.5482    2.0275   -0.9116 O   0  0  0  0  0  0  0  0  0  0  0  0
   -3.8151   -0.8950   -0.4180 C   0  0  0  0  0  0  0  0  0  0  0  0
   -4.8267   -0.1036    0.1950 O   0  0  0  0  0  0  0  0  0  0  0  0
   -2.5276    0.6894    1.4750 H   0  0  0  0  0  0  0  0  0  0  0  0
   -1.7514   -0.7134   -1.0131 H   0  0  0  0  0  0  0  0  0  0  0  0
   -3.7001   -1.8123    0.1683 H   0  0  0  0  0  0  0  0  0  0  0  0
   -4.1549   -1.1618   -1.4243 H   0  0  0  0  0  0  0  0  0  0  0  0
   -4.9291    0.6905   -0.3532 H   0  0  0  0  0  0  0  0  0  0  0  0
   -1.6892    1.4194   -2.1608 N   0  0  0  0  0  0  0  0  0  0  0  0
   -1.6083    2.6233   -2.9548 C   0  0  2  0  0  0  0  0  0  0  0  0
   -2.0684    3.7892   -2.0896 C   0  0  0  0  0  0  0  0  0  0  0  0
   -2.7903    3.6495   -1.1045 O   0  0  0  0  0  0  0  0  0  0  0  0
   -2.4544    2.5137   -4.2137 C   0  0  0  0  0  0  0  0  0  0  0  0
   -0.9749    0.7112   -2.3019 H   0  0  0  0  0  0  0  0  0  0  0  0
   -0.5537    2.7577   -3.2190 H   0  0  0  0  0  0  0  0  0  0  0  0
   -3.5143    2.3787   -3.9691 H   0  0  0  0  0  0  0  0  0  0  0  0
   -2.3695    3.4158   -4.8286 H   0  0  0  0  0  0  0  0  0  0  0  0
   -2.1415    1.6569   -4.8202 H   0  0  0  0  0  0  0  0  0  0  0  0
   -1.6133    5.0084   -2.5719 N   0  0  0  0  0  0  0  0  0  0  0  0
   -1.9258    6.2653   -1.9327 C   0  0  0  0  0  0  0  0  0  0  0  0
   -1.0039    5.0284   -3.3843 H   0  0  0  0  0  0  0  0  0  0  0  0
   -2.8315    6.6933   -2.3873 H   0  0  0  0  0  0  0  0  0  0  0  0
   -2.0986    6.0977   -0.8594 H   0  0  0  0  0  0  0  0  0  0  0  0
   -1.0851    6.9624   -2.0643 H   0  0  0  0  0  0  0  0  0  0  0  0
  1  3  1  0  0  0  0
  1  7  1  0  0  0  0
  1  2  2  0  0  0  0
 29 30  1  0  0  0  0
 30 38  1  0  0  0  0
 30 31  2  0  0  0  0
  8  9  1  0  0  0  0
  9 17  1  0  0  0  0
  9 10  2  0  0  0  0
 18 19  1  0  0  0  0
 19 28  1  0  0  0  0
 19 20  2  0  0  0  0
 29 32  1  0  0  0  0
  8 11  1  0  0  0  0
 38 39  1  0  0  0  0
 18 21  1  0  0  0  0
 21 22  1  0  0  0  0
 28 29  1  0  0  0  0
  7  8  1  0  0  0  0
 17 18  1  0  0  0  0
  3  4  1  0  0  0  0
  3  5  1  0  0  0  0
  3  6  1  0  0  0  0
 32 35  1  0  0  0  0
 32 36  1  0  0  0  0
 32 37  1  0  0  0  0
 11 14  1  0  0  0  0
 11 15  1  0  0  0  0
 11 16  1  0  0  0  0
 39 41  1  0  0  0  0
 39 42  1  0  0  0  0
 39 43  1  0  0  0  0
 21 25  1  0  0  0  0
 21 26  1  0  0  0  0
 29 34  1  0  0  0  0
  8 13  1  0  0  0  0
 18 24  1  0  0  0  0
 38 40  1  0  0  0  0
  7 12  1  0  0  0  0
 28 33  1  0  0  0  0
 17 23  1  0  0  0  0
 22 27  1  0  0  0  0
M  END
$$$$

  -OEChem-05262214473D

 43 42  0     1  0  0  0  0  0999 V2000
    0.7424   -1.0926    4.5665 C   0  0  0  0  0  0  0  0  0  0  0  0
    0.1409   -0.5364    5.4779 O   0  0  0  0  0  0  0  0  0  0  0  0
    1.7940   -2.1023    4.8871 C   0  0  0  0  0  0  0  0  0  0  0  0
    2.7935   -1.6502    4.9904 H   0  0  0  0  0  0  0  0  0  0  0  0
    1.6064   -2.6156    5.8438 H   0  0  0  0  0  0  0  0  0  0  0  0
    1.9156   -2.9078    4.1453 H   0  0  0  0  0  0  0  0  0  0  0  0
    0.5488   -0.8838    3.2109 N   0  0  0  0  0  0  0  0  0  0  0  0
   -0.4159    0.0446    2.6829 C   0  0  2  0  0  0  0  0  0  0  0  0
   -0.7551   -0.3867    1.2623 C   0  0  0  0  0  0  0  0  0  0  0  0
   -0.0106   -1.0851    0.5774 O   0  0  0  0  0  0  0  0  0  0  0  0
    0.1168    1.4689    2.7060 C   0  0  0  0  0  0  0  0  0  0  0  0
    1.1183   -1.4145    2.5542 H   0  0  0  0  0  0  0  0  0  0  0  0
   -1.3088   -0.0350    3.3125 H   0  0  0  0  0  0  0  0  0  0  0  0
    1.0116    1.5681    2.0808 H   0  0  0  0  0  0  0  0  0  0  0  0
   -0.6289    2.1775    2.3307 H   0  0  0  0  0  0  0  0  0  0  0  0
    0.3882    1.7670    3.7245 H   0  0  0  0  0  0  0  0  0  0  0  0
   -1.9689    0.1350    0.8298 N   0  0  0  0  0  0  0  0  0  0  0  0
   -2.5039   -0.1183   -0.4830 C   0  0  2  0  0  0  0  0  0  0  0  0
   -2.6677    1.2187   -1.1974 C   0  0  0  0  0  0  0  0  0  0  0  0
   -3.3577    2.1347   -0.7547 O   0  0  0  0  0  0  0  0  0  0  0  0
   -3.8151   -0.8950   -0.4180 C   0  0  0  0  0  0  0  0  0  0  0  0
   -4.8267   -0.1036    0.1950 O   0  0  0  0  0  0  0  0  0  0  0  0
   -2.5276    0.6894    1.4750 H   0  0  0  0  0  0  0  0  0  0  0  0
   -1.7514   -0.7134   -1.0131 H   0  0  0  0  0  0  0  0  0  0  0  0
   -3.7001   -1.8123    0.1683 H   0  0  0  0  0  0  0  0  0  0  0  0
   -4.1549   -1.1618   -1.4243 H   0  0  0  0  0  0  0  0  0  0  0  0
   -4.9291    0.6905   -0.3532 H   0  0  0  0  0  0  0  0  0  0  0  0
   -1.9188    1.2827   -2.3639 N   0  0  0  0  0  0  0  0  0  0  0  0
   -1.8801    2.4561   -3.2054 C   0  0  2  0  0  0  0  0  0  0  0  0
   -1.9891    3.6820   -2.3083 C   0  0  0  0  0  0  0  0  0  0  0  0
   -2.4780    3.6469   -1.1810 O   0  0  0  0  0  0  0  0  0  0  0  0
   -2.9985    2.4353   -4.2357 C   0  0  0  0  0  0  0  0  0  0  0  0
   -1.3444    0.4893   -2.6326 H   0  0  0  0  0  0  0  0  0  0  0  0
   -0.9055    2.4545   -3.7057 H   0  0  0  0  0  0  0  0  0  0  0  0
   -3.9826    2.4366   -3.7532 H   0  0  0  0  0  0  0  0  0  0  0  0
   -2.9505    3.3113   -4.8911 H   0  0  0  0  0  0  0  0  0  0  0  0
   -2.9359    1.5380   -4.8607 H   0  0  0  0  0  0  0  0  0  0  0  0
   -1.5158    4.8284   -2.9312 N   0  0  0  0  0  0  0  0  0  0  0  0
   -1.5232    6.1231   -2.2912 C   0  0  0  0  0  0  0  0  0  0  0  0
   -1.1103    4.7611   -3.8601 H   0  0  0  0  0  0  0  0  0  0  0  0
   -2.4517    6.6541   -2.5476 H   0  0  0  0  0  0  0  0  0  0  0  0
   -1.4645    5.9932   -1.2005 H   0  0  0  0  0  0  0  0  0  0  0  0
   -0.6586    6.7082   -2.6378 H   0  0  0  0  0  0  0  0  0  0  0  0
  1  3  1  0  0  0  0
  1  7  1  0  0  0  0
  1  2  2  0  0  0  0
 29 30  1  0  0  0  0
 30 38  1  0  0  0  0
 30 31  2  0  0  0  0
  8  9  1  0  0  0  0
  9 17  1  0  0  0  0
  9 10  2  0  0  0  0
 18 19  1  0  0  0  0
 19 28  1  0  0  0  0
 19 20  2  0  0  0  0
 29 32  1  0  0  0  0
  8 11  1  0  0  0  0
 38 39  1  0  0  0  0
 18 21  1  0  0  0  0
 21 22  1  0  0  0  0
 28 29  1  0  0  0  0
  7  8  1  0  0  0  0
 17 18  1  0  0  0  0
  3  4  1  0  0  0  0
  3  5  1  0  0  0  0
  3  6  1  0  0  0  0
 32 35  1  0  0  0  0
 32 36  1  0  0  0  0
 32 37  1  0  0  0  0
 11 14  1  0  0  0  0
 11 15  1  0  0  0  0
 11 16  1  0  0  0  0
 39 41  1  0  0  0  0
 39 42  1  0  0  0  0
 39 43  1  0  0  0  0
 21 25  1  0  0  0  0
 21 26  1  0  0  0  0
 29 34  1  0  0  0  0
  8 13  1  0  0  0  0
 18 24  1  0  0  0  0
 38 40  1  0  0  0  0
  7 12  1  0  0  0  0
 28 33  1  0  0  0  0
 17 23  1  0  0  0  0
 22 27  1  0  0  0  0
M  END
$$$$

  -OEChem-05262214473D

 43 42  0     1  0  0  0  0  0999 V2000
    0.7424   -1.0926    4.5665 C   0  0  0  0  0  0  0  0  0  0  0  0
    0.1409   -0.5364    5.4779 O   0  0  0  0  0  0  0  0  0  0  0  0
    1.7940   -2.1023    4.8871 C   0  0  0  0  0  0  0  0  0  0  0  0
    2.7935   -1.6502    4.9904 H   0  0  0  0  0  0  0  0  0  0  0  0
    1.6064   -2.6156    5.8438 H   0  0  0  0  0  0  0  0  0  0  0  0
    1.9156   -2.9078    4.1453 H   0  0  0  0  0  0  0  0  0  0  0  0
    0.5488   -0.8838    3.2109 N   0  0  0  0  0  0  0  0  0  0  0  0
   -0.4159    0.0446    2.6829 C   0  0  2  0  0  0  0  0  0  0  0  0
   -0.7551   -0.3867    1.2623 C   0  0  0  0  0  0  0  0  0  0  0  0
   -0.0106   -1.0851    0.5774 O   0  0  0  0  0  0  0  0  0  0  0  0
    0.1168    1.4689    2.7060 C   0  0  0  0  0  0  0  0  0  0  0  0
    1.1183   -1.4145    2.5542 H   0  0  0  0  0  0  0  0  0  0  0  0
   -1.3088   -0.0350    3.3125 H   0  0  0  0  0  0  0  0  0  0  0  0
    1.0116    1.5681    2.0808 H   0  0  0  0  0  0  0  0  0  0  0  0
   -0.6289    2.1775    2.3307 H   0  0  0  0  0  0  0  0  0  0  0  0
    0.3882    1.7670    3.7245 H   0  0  0  0  0  0  0  0  0  0  0  0
   -1.9689    0.1350    0.8298 N   0  0  0  0  0  0  0  0  0  0  0  0
   -2.5039   -0.1183   -0.4830 C   0  0  2  0  0  0  0  0  0  0  0  0
   -2.6677    1.2187   -1.1974 C   0  0  0  0  0  0  0  0  0  0  0  0
   -3.1251    2.2195   -0.6493 O   0  0  0  0  0  0  0  0  0  0  0  0
   -3.8151   -0.8950   -0.4180 C   0  0  0  0  0  0  0  0  0  0  0  0
   -4.8267   -0.1036    0.1950 O   0  0  0  0  0  0  0  0  0  0  0  0
   -2.5276    0.6894    1.4750 H   0  0  0  0  0  0  0  0  0  0  0  0
   -1.7514   -0.7134   -1.0131 H   0  0  0  0  0  0  0  0  0  0  0  0
   -3.7001   -1.8123    0.1683 H   0  0  0  0  0  0  0  0  0  0  0  0
   -4.1549   -1.1618   -1.4243 H   0  0  0  0  0  0  0  0  0  0  0  0
   -4.9291    0.6905   -0.3532 H   0  0  0  0  0  0  0  0  0  0  0  0
   -2.2032    1.1729   -2.5043 N   0  0  0  0  0  0  0  0  0  0  0  0
   -2.2197    2.3206   -3.3812 C   0  0  2  0  0  0  0  0  0  0  0  0
   -1.9752    3.5628   -2.5346 C   0  0  0  0  0  0  0  0  0  0  0  0
   -2.1939    3.6044   -1.3257 O   0  0  0  0  0  0  0  0  0  0  0  0
   -3.5385    2.4250   -4.1313 C   0  0  0  0  0  0  0  0  0  0  0  0
   -1.8033    0.3105   -2.8620 H   0  0  0  0  0  0  0  0  0  0  0  0
   -1.3926    2.1908   -4.0876 H   0  0  0  0  0  0  0  0  0  0  0  0
   -4.3790    2.5555   -3.4399 H   0  0  0  0  0  0  0  0  0  0  0  0
   -3.5386    3.2790   -4.8166 H   0  0  0  0  0  0  0  0  0  0  0  0
   -3.7269    1.5183   -4.7162 H   0  0  0  0  0  0  0  0  0  0  0  0
   -1.5249    4.6326   -3.2955 N   0  0  0  0  0  0  0  0  0  0  0  0
   -1.2329    5.9269   -2.7250 C   0  0  0  0  0  0  0  0  0  0  0  0
   -1.3534    4.5026   -4.2882 H   0  0  0  0  0  0  0  0  0  0  0  0
   -2.1261    6.5658   -2.7876 H   0  0  0  0  0  0  0  0  0  0  0  0
   -0.9421    5.8057   -1.6710 H   0  0  0  0  0  0  0  0  0  0  0  0
   -0.4076    6.3951   -3.2815 H   0  0  0  0  0  0  0  0  0  0  0  0
  1  3  1  0  0  0  0
  1  7  1  0  0  0  0
  1  2  2  0  0  0  0
 29 30  1  0  0  0  0
 30 38  1  0  0  0  0
 30 31  2  0  0  0  0
  8  9  1  0  0  0  0
  9 17  1  0  0  0  0
  9 10  2  0  0  0  0
 18 19  1  0  0  0  0
 19 28  1  0  0  0  0
 19 20  2  0  0  0  0
 29 32  1  0  0  0  0
  8 11  1  0  0  0  0
 38 39  1  0  0  0  0
 18 21  1  0  0  0  0
 21 22  1  0  0  0  0
 28 29  1  0  0  0  0
  7  8  1  0  0  0  0
 17 18  1  0  0  0  0
  3  4  1  0  0  0  0
  3  5  1  0  0  0  0
  3  6  1  0  0  0  0
 32 35  1  0  0  0  0
 32 36  1  0  0  0  0
 32 37  1  0  0  0  0
 11 14  1  0  0  0  0
 11 15  1  0  0  0  0
 11 16  1  0  0  0  0
 39 41  1  0  0  0  0
 39 42  1  0  0  0  0
 39 43  1  0  0  0  0
 21 25  1  0  0  0  0
 21 26  1  0  0  0  0
 29 34  1  0  0  0  0
  8 13  1  0  0  0  0
 18 24  1  0  0  0  0
 38 40  1  0  0  0  0
  7 12  1  0  0  0  0
 28 33  1  0  0  0  0
 17 23  1  0  0  0  0
 22 27  1  0  0  0  0
M  END
$$$$

  -OEChem-05262214473D

 43 42  0     1  0  0  0  0  0999 V2000
    0.7424   -1.0926    4.5665 C   0  0  0  0  0  0  0  0  0  0  0  0
    0.1409   -0.5364    5.4779 O   0  0  0  0  0  0  0  0  0  0  0  0
    1.7940   -2.1023    4.8871 C   0  0  0  0  0  0  0  0  0  0  0  0
    2.7935   -1.6502    4.9904 H   0  0  0  0  0  0  0  0  0  0  0  0
    1.6064   -2.6156    5.8438 H   0  0  0  0  0  0  0  0  0  0  0  0
    1.9156   -2.9078    4.1453 H   0  0  0  0  0  0  0  0  0  0  0  0
    0.5488   -0.8838    3.2109 N   0  0  0  0  0  0  0  0  0  0  0  0
   -0.4159    0.0446    2.6829 C   0  0  2  0  0  0  0  0  0  0  0  0
   -0.7551   -0.3867    1.2623 C   0  0  0  0  0  0  0  0  0  0  0  0
   -0.0106   -1.0851    0.5774 O   0  0  0  0  0  0  0  0  0  0  0  0
    0.1168    1.4689    2.7060 C   0  0  0  0  0  0  0  0  0  0  0  0
    1.1183   -1.4145    2.5542 H   0  0  0  0  0  0  0  0  0  0  0  0
   -1.3088   -0.0350    3.3125 H   0  0  0  0  0  0  0  0  0  0  0  0
    1.0116    1.5681    2.0808 H   0  0  0  0  0  0  0  0  0  0  0  0
   -0.6289    2.1775    2.3307 H   0  0  0  0  0  0  0  0  0  0  0  0
    0.3882    1.7670    3.7245 H   0  0  0  0  0  0  0  0  0  0  0  0
   -1.9689    0.1350    0.8298 N   0  0  0  0  0  0  0  0  0  0  0  0
   -2.5039   -0.1183   -0.4830 C   0  0  2  0  0  0  0  0  0  0  0  0
   -2.6677    1.2187   -1.1974 C   0  0  0  0  0  0  0  0  0  0  0  0
   -2.8662    2.2761   -0.6027 O   0  0  0  0  0  0  0  0  0  0  0  0
   -3.8151   -0.8950   -0.4180 C   0  0  0  0  0  0  0  0  0  0  0  0
   -4.8267   -0.1036    0.1950 O   0  0  0  0  0  0  0  0  0  0  0  0
   -2.5276    0.6894    1.4750 H   0  0  0  0  0  0  0  0  0  0  0  0
   -1.7514   -0.7134   -1.0131 H   0  0  0  0  0  0  0  0  0  0  0  0
   -3.7001   -1.8123    0.1683 H   0  0  0  0  0  0  0  0  0  0  0  0
   -4.1549   -1.1618   -1.4243 H   0  0  0  0  0  0  0  0  0  0  0  0
   -4.9291    0.6905   -0.3532 H   0  0  0  0  0  0  0  0  0  0  0  0
   -2.5231    1.0974   -2.5722 N   0  0  0  0  0  0  0  0  0  0  0  0
   -2.6040    2.2261   -3.4701 C   0  0  2  0  0  0  0  0  0  0  0  0
   -2.0276    3.4397   -2.7530 C   0  0  0  0  0  0  0  0  0  0  0  0
   -1.9576    3.5249   -1.5287 O   0  0  0  0  0  0  0  0  0  0  0  0
   -4.0376    2.4834   -3.9075 C   0  0  0  0  0  0  0  0  0  0  0  0
   -2.3202    0.1871   -2.9745 H   0  0  0  0  0  0  0  0  0  0  0  0
   -1.9817    1.9846   -4.3386 H   0  0  0  0  0  0  0  0  0  0  0  0
   -4.6763    2.7270   -3.0507 H   0  0  0  0  0  0  0  0  0  0  0  0
   -4.0937    3.3212   -4.6103 H   0  0  0  0  0  0  0  0  0  0  0  0
   -4.4605    1.5992   -4.3966 H   0  0  0  0  0  0  0  0  0  0  0  0
   -1.6401    4.4345   -3.6398 N   0  0  0  0  0  0  0  0  0  0  0  0
   -1.0747    5.6902   -3.2043 C   0  0  0  0  0  0  0  0  0  0  0  0
   -1.7168    4.2705   -4.6393 H   0  0  0  0  0  0  0  0  0  0  0  0
   -1.8767    6.4343   -3.0908 H   0  0  0  0  0  0  0  0  0  0  0  0
   -0.5670    5.5483   -2.2389 H   0  0  0  0  0  0  0  0  0  0  0  0
   -0.3492    6.0442   -3.9516 H   0  0  0  0  0  0  0  0  0  0  0  0
  1  3  1  0  0  0  0
  1  7  1  0  0  0  0
  1  2  2  0  0  0  0
 29 30  1  0  0  0  0
 30 38  1  0  0  0  0
 30 31  2  0  0  0  0
  8  9  1  0  0  0  0
  9 17  1  0  0  0  0
  9 10  2  0  0  0  0
 18 19  1  0  0  0  0
 19 28  1  0  0  0  0
 19 20  2  0  0  0  0
 29 32  1  0  0  0  0
  8 11  1  0  0  0  0
 38 39  1  0  0  0  0
 18 21  1  0  0  0  0
 21 22  1  0  0  0  0
 28 29  1  0  0  0  0
  7  8  1  0  0  0  0
 17 18  1  0  0  0  0
  3  4  1  0  0  0  0
  3  5  1  0  0  0  0
  3  6  1  0  0  0  0
 32 35  1  0  0  0  0
 32 36  1  0  0  0  0
 32 37  1  0  0  0  0
 11 14  1  0  0  0  0
 11 15  1  0  0  0  0
 11 16  1  0  0  0  0
 39 41  1  0  0  0  0
 39 42  1  0  0  0  0
 39 43  1  0  0  0  0
 21 25  1  0  0  0  0
 21 26  1  0  0  0  0
 29 34  1  0  0  0  0
  8 13  1  0  0  0  0
 18 24  1  0  0  0  0
 38 40  1  0  0  0  0
  7 12  1  0  0  0  0
 28 33  1  0  0  0  0
 17 23  1  0  0  0  0
 22 27  1  0  0  0  0
M  END
$$$$

  -OEChem-05262214473D

 43 42  0     1  0  0  0  0  0999 V2000
    0.7424   -1.0926    4.5665 C   0  0  0  0  0  0  0  0  0  0  0  0
    0.1409   -0.5364    5.4779 O   0  0  0  0  0  0  0  0  0  0  0  0
    1.7940   -2.1023    4.8871 C   0  0  0  0  0  0  0  0  0  0  0  0
    2.7935   -1.6502    4.9904 H   0  0  0  0  0  0  0  0  0  0  0  0
    1.6064   -2.6156    5.8438 H   0  0  0  0  0  0  0  0  0  0  0  0
    1.9156   -2.9078    4.1453 H   0  0  0  0  0  0  0  0  0  0  0  0
    0.5488   -0.8838    3.2109 N   0  0  0  0  0  0  0  0  0  0  0  0
   -0.4159    0.0446    2.6829 C   0  0  2  0  0  0  0  0  0  0  0  0
   -0.7551   -0.3867    1.2623 C   0  0  0  0  0  0  0  0  0  0  0  0
   -0.0106   -1.0851    0.5774 O   0  0  0  0  0  0  0  0  0  0  0  0
    0.1168    1.4689    2.7060 C   0  0  0  0  0  0  0  0  0  0  0  0
    1.1183   -1.4145    2.5542 H   0  0  0  0  0  0  0  0  0  0  0  0
   -1.3088   -0.0350    3.3125 H   0  0  0  0  0  0  0  0  0  0  0  0
    1.0116    1.5681    2.0808 H   0  0  0  0  0  0  0  0  0  0  0  0
   -0.6289    2.1775    2.3307 H   0  0  0  0  0  0  0  0  0  0  0  0
    0.3882    1.7670    3.7245 H   0  0  0  0  0  0  0  0  0  0  0  0
   -1.9689    0.1350    0.8298 N   0  0  0  0  0  0  0  0  0  0  0  0
   -2.5039   -0.1183   -0.4830 C   0  0  2  0  0  0  0  0  0  0  0  0
   -2.6677    1.2187   -1.1974 C   0  0  0  0  0  0  0  0  0  0  0  0
   -2.5987    2.3007   -0.6180 O   0  0  0  0  0  0  0  0  0  0  0  0
   -3.8151   -0.8950   -0.4180 C   0  0  0  0  0  0  0  0  0  0  0  0
   -4.8267   -0.1036    0.1950 O   0  0  0  0  0  0  0  0  0  0  0  0
   -2.5276    0.6894    1.4750 H   0  0  0  0  0  0  0  0  0  0  0  0
   -1.7514   -0.7134   -1.0131 H   0  0  0  0  0  0  0  0  0  0  0  0
   -3.7001   -1.8123    0.1683 H   0  0  0  0  0  0  0  0  0  0  0  0
   -4.1549   -1.1618   -1.4243 H   0  0  0  0  0  0  0  0  0  0  0  0
   -4.9291    0.6905   -0.3532 H   0  0  0  0  0  0  0  0  0  0  0  0
   -2.8567    1.0614   -2.5632 N   0  0  0  0  0  0  0  0  0  0  0  0
   -3.0070    2.1788   -3.4661 C   0  0  2  0  0  0  0  0  0  0  0  0
   -2.1426    3.3211   -2.9487 C   0  0  0  0  0  0  0  0  0  0  0  0
   -1.7850    3.4137   -1.7762 O   0  0  0  0  0  0  0  0  0  0  0  0
   -4.4619    2.6065   -3.5798 C   0  0  0  0  0  0  0  0  0  0  0  0
   -2.8601    0.1274   -2.9624 H   0  0  0  0  0  0  0  0  0  0  0  0
   -2.6327    1.8498   -4.4416 H   0  0  0  0  0  0  0  0  0  0  0  0
   -4.8544    2.9396   -2.6120 H   0  0  0  0  0  0  0  0  0  0  0  0
   -4.5779    3.4351   -4.2863 H   0  0  0  0  0  0  0  0  0  0  0  0
   -5.0868    1.7752   -3.9236 H   0  0  0  0  0  0  0  0  0  0  0  0
   -1.8536    4.2476   -3.9407 N   0  0  0  0  0  0  0  0  0  0  0  0
   -1.0594    5.4290   -3.6967 C   0  0  0  0  0  0  0  0  0  0  0  0
   -2.1756    4.0806   -4.8895 H   0  0  0  0  0  0  0  0  0  0  0  0
   -1.7206    6.2687   -3.4367 H   0  0  0  0  0  0  0  0  0  0  0  0
   -0.3647    5.2383   -2.8653 H   0  0  0  0  0  0  0  0  0  0  0  0
   -0.4874    5.6796   -4.6023 H   0  0  0  0  0  0  0  0  0  0  0  0
  1  3  1  0  0  0  0
  1  7  1  0  0  0  0
  1  2  2  0  0  0  0
 29 30  1  0  0  0  0
 30 38  1  0  0  0  0
 30 31  2  0  0  0  0
  8  9  1  0  0  0  0
  9 17  1  0  0  0  0
  9 10  2  0  0  0  0
 18 19  1  0  0  0  0
 19 28  1  0  0  0  0
 19 20  2  0  0  0  0
 29 32  1  0  0  0  0
  8 11  1  0  0  0  0
 38 39  1  0  0  0  0
 18 21  1  0  0  0  0
 21 22  1  0  0  0  0
 28 29  1  0  0  0  0
  7  8  1  0  0  0  0
 17 18  1  0  0  0  0
  3  4  1  0  0  0  0
  3  5  1  0  0  0  0
  3  6  1  0  0  0  0
 32 35  1  0  0  0  0
 32 36  1  0  0  0  0
 32 37  1  0  0  0  0
 11 14  1  0  0  0  0
 11 15  1  0  0  0  0
 11 16  1  0  0  0  0
 39 41  1  0  0  0  0
 39 42  1  0  0  0  0
 39 43  1  0  0  0  0
 21 25  1  0  0  0  0
 21 26  1  0  0  0  0
 29 34  1  0  0  0  0
  8 13  1  0  0  0  0
 18 24  1  0  0  0  0
 38 40  1  0  0  0  0
  7 12  1  0  0  0  0
 28 33  1  0  0  0  0
 17 23  1  0  0  0  0
 22 27  1  0  0  0  0
M  END
$$$$

  -OEChem-05262214473D

 43 42  0     1  0  0  0  0  0999 V2000
    0.7424   -1.0926    4.5665 C   0  0  0  0  0  0  0  0  0  0  0  0
    0.1409   -0.5364    5.4779 O   0  0  0  0  0  0  0  0  0  0  0  0
    1.7940   -2.1023    4.8871 C   0  0  0  0  0  0  0  0  0  0  0  0
    2.7935   -1.6502    4.9904 H   0  0  0  0  0  0  0  0  0  0  0  0
    1.6064   -2.6156    5.8438 H   0  0  0  0  0  0  0  0  0  0  0  0
    1.9156   -2.9078    4.1453 H   0  0  0  0  0  0  0  0  0  0  0  0
    0.5488   -0.8838    3.2109 N   0  0  0  0  0  0  0  0  0  0  0  0
   -0.4159    0.0446    2.6829 C   0  0  2  0  0  0  0  0  0  0  0  0
   -0.7551   -0.3867    1.2623 C   0  0  0  0  0  0  0  0  0  0  0  0
   -0.0106   -1.0851    0.5774 O   0  0  0  0  0  0  0  0  0  0  0  0
    0.1168    1.4689    2.7060 C   0  0  0  0  0  0  0  0  0  0  0  0
    1.1183   -1.4145    2.5542 H   0  0  0  0  0  0  0  0  0  0  0  0
   -1.3088   -0.0350    3.3125 H   0  0  0  0  0  0  0  0  0  0  0  0
    1.0116    1.5681    2.0808 H   0  0  0  0  0  0  0  0  0  0  0  0
   -0.6289    2.1775    2.3307 H   0  0  0  0  0  0  0  0  0  0  0  0
    0.3882    1.7670    3.7245 H   0  0  0  0  0  0  0  0  0  0  0  0
   -1.9689    0.1350    0.8298 N   0  0  0  0  0  0  0  0  0  0  0  0
   -2.5039   -0.1183   -0.4830 C   0  0  2  0  0  0  0  0  0  0  0  0
   -2.3202    1.1403   -1.3239 C   0  0  0  0  0  0  0  0  0  0  0  0
   -1.7644    2.1525   -0.9022 O   0  0  0  0  0  0  0  0  0  0  0  0
   -3.9638   -0.5563   -0.4227 C   0  0  0  0  0  0  0  0  0  0  0  0
   -4.7780    0.5077    0.0572 O   0  0  0  0  0  0  0  0  0  0  0  0
   -2.5276    0.6894    1.4750 H   0  0  0  0  0  0  0  0  0  0  0  0
   -1.8972   -0.9235   -0.9131 H   0  0  0  0  0  0  0  0  0  0  0  0
   -4.0906   -1.4106    0.2499 H   0  0  0  0  0  0  0  0  0  0  0  0
   -4.3230   -0.8371   -1.4185 H   0  0  0  0  0  0  0  0  0  0  0  0
   -4.6696    1.2438   -0.5657 H   0  0  0  0  0  0  0  0  0  0  0  0
   -2.8111    0.9837   -2.6124 N   0  0  0  0  0  0  0  0  0  0  0  0
   -2.7286    2.0226   -3.6127 C   0  0  2  0  0  0  0  0  0  0  0  0
   -1.4351    2.7935   -3.3845 C   0  0  0  0  0  0  0  0  0  0  0  0
   -0.8496    2.8164   -2.3039 O   0  0  0  0  0  0  0  0  0  0  0  0
   -3.9324    2.9496   -3.5482 C   0  0  0  0  0  0  0  0  0  0  0  0
   -3.2200    0.0952   -2.8863 H   0  0  0  0  0  0  0  0  0  0  0  0
   -2.6891    1.5218   -4.5862 H   0  0  0  0  0  0  0  0  0  0  0  0
   -3.9887    3.4603   -2.5800 H   0  0  0  0  0  0  0  0  0  0  0  0
   -3.8825    3.7193   -4.3255 H   0  0  0  0  0  0  0  0  0  0  0  0
   -4.8637    2.3889   -3.6829 H   0  0  0  0  0  0  0  0  0  0  0  0
   -1.0346    3.4878   -4.5175 N   0  0  0  0  0  0  0  0  0  0  0  0
    0.1560    4.3047   -4.5510 C   0  0  0  0  0  0  0  0  0  0  0  0
   -1.5706    3.3959   -5.3754 H   0  0  0  0  0  0  0  0  0  0  0  0
   -0.1038    5.3430   -4.2969 H   0  0  0  0  0  0  0  0  0  0  0  0
    0.8848    3.9205   -3.8222 H   0  0  0  0  0  0  0  0  0  0  0  0
    0.5942    4.2729   -5.5594 H   0  0  0  0  0  0  0  0  0  0  0  0
  1  3  1  0  0  0  0
  1  7  1  0  0  0  0
  1  2  2  0  0  0  0
 29 30  1  0  0  0  0
 30 38  1  0  0  0  0
 30 31  2  0  0  0  0
  8  9  1  0  0  0  0
  9 17  1  0  0  0  0
  9 10  2  0  0  0  0
 18 19  1  0  0  0  0
 19 28  1  0  0  0  0
 19 20  2  0  0  0  0
 29 32  1  0  0  0  0
  8 11  1  0  0  0  0
 38 39  1  0  0  0  0
 18 21  1  0  0  0  0
 21 22  1  0  0  0  0
 28 29  1  0  0  0  0
  7  8  1  0  0  0  0
 17 18  1  0  0  0  0
  3  4  1  0  0  0  0
  3  5  1  0  0  0  0
  3  6  1  0  0  0  0
 32 35  1  0  0  0  0
 32 36  1  0  0  0  0
 32 37  1  0  0  0  0
 11 14  1  0  0  0  0
 11 15  1  0  0  0  0
 11 16  1  0  0  0  0
 39 41  1  0  0  0  0
 39 42  1  0  0  0  0
 39 43  1  0  0  0  0
 21 25  1  0  0  0  0
 21 26  1  0  0  0  0
 29 34  1  0  0  0  0
  8 13  1  0  0  0  0
 18 24  1  0  0  0  0
 38 40  1  0  0  0  0
  7 12  1  0  0  0  0
 28 33  1  0  0  0  0
 17 23  1  0  0  0  0
 22 27  1  0  0  0  0
M  END
$$$$

  -OEChem-05262214473D

 43 42  0     1  0  0  0  0  0999 V2000
    0.7424   -1.0926    4.5665 C   0  0  0  0  0  0  0  0  0  0  0  0
    0.1409   -0.5364    5.4779 O   0  0  0  0  0  0  0  0  0  0  0  0
    1.7940   -2.1023    4.8871 C   0  0  0  0  0  0  0  0  0  0  0  0
    2.7935   -1.6502    4.9904 H   0  0  0  0  0  0  0  0  0  0  0  0
    1.6064   -2.6156    5.8438 H   0  0  0  0  0  0  0  0  0  0  0  0
    1.9156   -2.9078    4.1453 H   0  0  0  0  0  0  0  0  0  0  0  0
    0.5488   -0.8838    3.2109 N   0  0  0  0  0  0  0  0  0  0  0  0
   -0.4159    0.0446    2.6829 C   0  0  2  0  0  0  0  0  0  0  0  0
   -0.7551   -0.3867    1.2623 C   0  0  0  0  0  0  0  0  0  0  0  0
   -0.0106   -1.0851    0.5774 O   0  0  0  0  0  0  0  0  0  0  0  0
    0.1168    1.4689    2.7060 C   0  0  0  0  0  0  0  0  0  0  0  0
    1.1183   -1.4145    2.5542 H   0  0  0  0  0  0  0  0  0  0  0  0
   -1.3088   -0.0350    3.3125 H   0  0  0  0  0  0  0  0  0  0  0  0
    1.0116    1.5681    2.0808 H   0  0  0  0  0  0  0  0  0  0  0  0
   -0.6289    2.1775    2.3307 H   0  0  0  0  0  0  0  0  0  0  0  0
    0.3882    1.7670    3.7245 H   0  0  0  0  0  0  0  0  0  0  0  0
   -1.9689    0.1350    0.8298 N   0  0  0  0  0  0  0  0  0  0  0  0
   -2.5039   -0.1183   -0.4830 C   0  0  2  0  0  0  0  0  0  0  0  0
   -2.3202    1.1403   -1.3239 C   0  0  0  0  0  0  0  0  0  0  0  0
   -1.5461    2.0443   -1.0164 O   0  0  0  0  0  0  0  0  0  0  0  0
   -3.9638   -0.5563   -0.4227 C   0  0  0  0  0  0  0  0  0  0  0  0
   -4.7780    0.5077    0.0572 O   0  0  0  0  0  0  0  0  0  0  0  0
   -2.5276    0.6894    1.4750 H   0  0  0  0  0  0  0  0  0  0  0  0
   -1.8972   -0.9235   -0.9131 H   0  0  0  0  0  0  0  0  0  0  0  0
   -4.0906   -1.4106    0.2499 H   0  0  0  0  0  0  0  0  0  0  0  0
   -4.3230   -0.8371   -1.4185 H   0  0  0  0  0  0  0  0  0  0  0  0
   -4.6696    1.2438   -0.5657 H   0  0  0  0  0  0  0  0  0  0  0  0
   -3.0899    1.1140   -2.4783 N   0  0  0  0  0  0  0  0  0  0  0  0
   -3.0697    2.1768   -3.4564 C   0  0  2  0  0  0  0  0  0  0  0  0
   -1.6588    2.7484   -3.5008 C   0  0  0  0  0  0  0  0  0  0  0  0
   -0.8612    2.6390   -2.5719 O   0  0  0  0  0  0  0  0  0  0  0  0
   -4.0841    3.2585   -3.1190 C   0  0  0  0  0  0  0  0  0  0  0  0
   -3.6728    0.3049   -2.6714 H   0  0  0  0  0  0  0  0  0  0  0  0
   -3.3106    1.7214   -4.4232 H   0  0  0  0  0  0  0  0  0  0  0  0
   -3.8591    3.7263   -2.1536 H   0  0  0  0  0  0  0  0  0  0  0  0
   -4.0876    4.0492   -3.8765 H   0  0  0  0  0  0  0  0  0  0  0  0
   -5.0945    2.8400   -3.0582 H   0  0  0  0  0  0  0  0  0  0  0  0
   -1.4097    3.4323   -4.6825 N   0  0  0  0  0  0  0  0  0  0  0  0
   -0.1469    4.0760   -4.9594 C   0  0  0  0  0  0  0  0  0  0  0  0
   -2.1226    3.4562   -5.4058 H   0  0  0  0  0  0  0  0  0  0  0  0
   -0.1926    5.1273   -4.6390 H   0  0  0  0  0  0  0  0  0  0  0  0
    0.6554    3.5603   -4.4113 H   0  0  0  0  0  0  0  0  0  0  0  0
    0.0588    4.0305   -6.0391 H   0  0  0  0  0  0  0  0  0  0  0  0
  1  3  1  0  0  0  0
  1  7  1  0  0  0  0
  1  2  2  0  0  0  0
 29 30  1  0  0  0  0
 30 38  1  0  0  0  0
 30 31  2  0  0  0  0
  8  9  1  0  0  0  0
  9 17  1  0  0  0  0
  9 10  2  0  0  0  0
 18 19  1  0  0  0  0
 19 28  1  0  0  0  0
 19 20  2  0  0  0  0
 29 32  1  0  0  0  0
  8 11  1  0  0  0  0
 38 39  1  0  0  0  0
 18 21  1  0  0  0  0
 21 22  1  0  0  0  0
 28 29  1  0  0  0  0
  7  8  1  0  0  0  0
 17 18  1  0  0  0  0
  3  4  1  0  0  0  0
  3  5  1  0  0  0  0
  3  6  1  0  0  0  0
 32 35  1  0  0  0  0
 32 36  1  0  0  0  0
 32 37  1  0  0  0  0
 11 14  1  0  0  0  0
 11 15  1  0  0  0  0
 11 16  1  0  0  0  0
 39 41  1  0  0  0  0
 39 42  1  0  0  0  0
 39 43  1  0  0  0  0
 21 25  1  0  0  0  0
 21 26  1  0  0  0  0
 29 34  1  0  0  0  0
  8 13  1  0  0  0  0
 18 24  1  0  0  0  0
 38 40  1  0  0  0  0
  7 12  1  0  0  0  0
 28 33  1  0  0  0  0
 17 23  1  0  0  0  0
 22 27  1  0  0  0  0
M  END
$$$$

  -OEChem-05262214473D

 43 42  0     1  0  0  0  0  0999 V2000
    0.7424   -1.0926    4.5665 C   0  0  0  0  0  0  0  0  0  0  0  0
    0.1409   -0.5364    5.4779 O   0  0  0  0  0  0  0  0  0  0  0  0
    1.7940   -2.1023    4.8871 C   0  0  0  0  0  0  0  0  0  0  0  0
    2.7935   -1.6502    4.9904 H   0  0  0  0  0  0  0  0  0  0  0  0
    1.6064   -2.6156    5.8438 H   0  0  0  0  0  0  0  0  0  0  0  0
    1.9156   -2.9078    4.1453 H   0  0  0  0  0  0  0  0  0  0  0  0
    0.5488   -0.8838    3.2109 N   0  0  0  0  0  0  0  0  0  0  0  0
   -0.4159    0.0446    2.6829 C   0  0  2  0  0  0  0  0  0  0  0  0
   -0.7551   -0.3867    1.2623 C   0  0  0  0  0  0  0  0  0  0  0  0
   -0.0106   -1.0851    0.5774 O   0  0  0  0  0  0  0  0  0  0  0  0
    0.1168    1.4689    2.7060 C   0  0  0  0  0  0  0  0  0  0  0  0
    1.1183   -1.4145    2.5542 H   0  0  0  0  0  0  0  0  0  0  0  0
   -1.3088   -0.0350    3.3125 H   0  0  0  0  0  0  0  0  0  0  0  0
    1.0116    1.5681    2.0808 H   0  0  0  0  0  0  0  0  0  0  0  0
   -0.6289    2.1775    2.3307 H   0  0  0  0  0  0  0  0  0  0  0  0
    0.3882    1.7670    3.7245 H   0  0  0  0  0  0  0  0  0  0  0  0
   -1.9689    0.1350    0.8298 N   0  0  0  0  0  0  0  0  0  0  0  0
   -2.5039   -0.1183   -0.4830 C   0  0  2  0  0  0  0  0  0  0  0  0
   -2.3202    1.1403   -1.3239 C   0  0  0  0  0  0  0  0  0  0  0  0
   -1.3750    1.9123   -1.1766 O   0  0  0  0  0  0  0  0  0  0  0  0
   -3.9638   -0.5563   -0.4227 C   0  0  0  0  0  0  0  0  0  0  0  0
   -4.7780    0.5077    0.0572 O   0  0  0  0  0  0  0  0  0  0  0  0
   -2.5276    0.6894    1.4750 H   0  0  0  0  0  0  0  0  0  0  0  0
   -1.8972   -0.9235   -0.9131 H   0  0  0  0  0  0  0  0  0  0  0  0
   -4.0906   -1.4106    0.2499 H   0  0  0  0  0  0  0  0  0  0  0  0
   -4.3230   -0.8371   -1.4185 H   0  0  0  0  0  0  0  0  0  0  0  0
   -4.6696    1.2438   -0.5657 H   0  0  0  0  0  0  0  0  0  0  0  0
   -3.3119    1.2755   -2.2851 N   0  0  0  0  0  0  0  0  0  0  0  0
   -3.3439    2.3696   -3.2277 C   0  0  2  0  0  0  0  0  0  0  0  0
   -1.9062    2.7404   -3.5668 C   0  0  0  0  0  0  0  0  0  0  0  0
   -0.9550    2.4777   -2.8338 O   0  0  0  0  0  0  0  0  0  0  0  0
   -4.0947    3.5651   -2.6624 C   0  0  0  0  0  0  0  0  0  0  0  0
   -4.0342    0.5654   -2.3605 H   0  0  0  0  0  0  0  0  0  0  0  0
   -3.8475    1.9979   -4.1267 H   0  0  0  0  0  0  0  0  0  0  0  0
   -3.6050    3.9514   -1.7611 H   0  0  0  0  0  0  0  0  0  0  0  0
   -4.1428    4.3831   -3.3888 H   0  0  0  0  0  0  0  0  0  0  0  0
   -5.1195    3.2891   -2.3914 H   0  0  0  0  0  0  0  0  0  0  0  0
   -1.8153    3.4374   -4.7635 N   0  0  0  0  0  0  0  0  0  0  0  0
   -0.5593    3.9111   -5.2964 C   0  0  0  0  0  0  0  0  0  0  0  0
   -2.6536    3.5941   -5.3153 H   0  0  0  0  0  0  0  0  0  0  0  0
   -0.3821    4.9424   -4.9572 H   0  0  0  0  0  0  0  0  0  0  0  0
    0.2565    3.2636   -4.9426 H   0  0  0  0  0  0  0  0  0  0  0  0
   -0.5954    3.8879   -6.3956 H   0  0  0  0  0  0  0  0  0  0  0  0
  1  3  1  0  0  0  0
  1  7  1  0  0  0  0
  1  2  2  0  0  0  0
 29 30  1  0  0  0  0
 30 38  1  0  0  0  0
 30 31  2  0  0  0  0
  8  9  1  0  0  0  0
  9 17  1  0  0  0  0
  9 10  2  0  0  0  0
 18 19  1  0  0  0  0
 19 28  1  0  0  0  0
 19 20  2  0  0  0  0
 29 32  1  0  0  0  0
  8 11  1  0  0  0  0
 38 39  1  0  0  0  0
 18 21  1  0  0  0  0
 21 22  1  0  0  0  0
 28 29  1  0  0  0  0
  7  8  1  0  0  0  0
 17 18  1  0  0  0  0
  3  4  1  0  0  0  0
  3  5  1  0  0  0  0
  3  6  1  0  0  0  0
 32 35  1  0  0  0  0
 32 36  1  0  0  0  0
 32 37  1  0  0  0  0
 11 14  1  0  0  0  0
 11 15  1  0  0  0  0
 11 16  1  0  0  0  0
 39 41  1  0  0  0  0
 39 42  1  0  0  0  0
 39 43  1  0  0  0  0
 21 25  1  0  0  0  0
 21 26  1  0  0  0  0
 29 34  1  0  0  0  0
  8 13  1  0  0  0  0
 18 24  1  0  0  0  0
 38 40  1  0  0  0  0
  7 12  1  0  0  0  0
 28 33  1  0  0  0  0
 17 23  1  0  0  0  0
 22 27  1  0  0  0  0
M  END
$$$$

  -OEChem-05262214473D

 43 42  0     1  0  0  0  0  0999 V2000
    0.7424   -1.0926    4.5665 C   0  0  0  0  0  0  0  0  0  0  0  0
    0.1409   -0.5364    5.4779 O   0  0  0  0  0  0  0  0  0  0  0  0
    1.7940   -2.1023    4.8871 C   0  0  0  0  0  0  0  0  0  0  0  0
    2.7935   -1.6502    4.9904 H   0  0  0  0  0  0  0  0  0  0  0  0
    1.6064   -2.6156    5.8438 H   0  0  0  0  0  0  0  0  0  0  0  0
    1.9156   -2.9078    4.1453 H   0  0  0  0  0  0  0  0  0  0  0  0
    0.5488   -0.8838    3.2109 N   0  0  0  0  0  0  0  0  0  0  0  0
   -0.4159    0.0446    2.6829 C   0  0  2  0  0  0  0  0  0  0  0  0
   -0.7551   -0.3867    1.2623 C   0  0  0  0  0  0  0  0  0  0  0  0
   -0.0106   -1.0851    0.5774 O   0  0  0  0  0  0  0  0  0  0  0  0
    0.1168    1.4689    2.7060 C   0  0  0  0  0  0  0  0  0  0  0  0
    1.1183   -1.4145    2.5542 H   0  0  0  0  0  0  0  0  0  0  0  0
   -1.3088   -0.0350    3.3125 H   0  0  0  0  0  0  0  0  0  0  0  0
    1.0116    1.5681    2.0808 H   0  0  0  0  0  0  0  0  0  0  0  0
   -0.6289    2.1775    2.3307 H   0  0  0  0  0  0  0  0  0  0  0  0
    0.3882    1.7670    3.7245 H   0  0  0  0  0  0  0  0  0  0  0  0
   -1.9689    0.1350    0.8298 N   0  0  0  0  0  0  0  0  0  0  0  0
   -2.5039   -0.1183   -0.4830 C   0  0  2  0  0  0  0  0  0  0  0  0
   -2.3202    1.1403   -1.3239 C   0  0  0  0  0  0  0  0  0  0  0  0
   -1.2627    1.7653   -1.3721 O   0  0  0  0  0  0  0  0  0  0  0  0
   -3.9638   -0.5563   -0.4227 C   0  0  0  0  0  0  0  0  0  0  0  0
   -4.7780    0.5077    0.0572 O   0  0  0  0  0  0  0  0  0  0  0  0
   -2.5276    0.6894    1.4750 H   0  0  0  0  0  0  0  0  0  0  0  0
   -1.8972   -0.9235   -0.9131 H   0  0  0  0  0  0  0  0  0  0  0  0
   -4.0906   -1.4106    0.2499 H   0  0  0  0  0  0  0  0  0  0  0  0
   -4.3230   -0.8371   -1.4185 H   0  0  0  0  0  0  0  0  0  0  0  0
   -4.6696    1.2438   -0.5657 H   0  0  0  0  0  0  0  0  0  0  0  0
   -3.4620    1.4571   -2.0461 N   0  0  0  0  0  0  0  0  0  0  0  0
   -3.5323    2.5878   -2.9423 C   0  0  2  0  0  0  0  0  0  0  0  0
   -2.1603    2.7701   -3.5779 C   0  0  0  0  0  0  0  0  0  0  0  0
   -1.1245    2.3435   -3.0718 O   0  0  0  0  0  0  0  0  0  0  0  0
   -3.9638    3.8486   -2.2096 C   0  0  0  0  0  0  0  0  0  0  0  0
   -4.2798    0.8589   -1.9749 H   0  0  0  0  0  0  0  0  0  0  0  0
   -4.2633    2.3323   -3.7171 H   0  0  0  0  0  0  0  0  0  0  0  0
   -3.2435    4.1203   -1.4293 H   0  0  0  0  0  0  0  0  0  0  0  0
   -4.0442    4.6983   -2.8955 H   0  0  0  0  0  0  0  0  0  0  0  0
   -4.9372    3.7057   -1.7281 H   0  0  0  0  0  0  0  0  0  0  0  0
   -2.2236    3.5027   -4.7549 N   0  0  0  0  0  0  0  0  0  0  0  0
   -1.0532    3.8212   -5.5390 C   0  0  0  0  0  0  0  0  0  0  0  0
   -3.1275    3.8004   -5.1102 H   0  0  0  0  0  0  0  0  0  0  0  0
   -0.6596    4.8007   -5.2299 H   0  0  0  0  0  0  0  0  0  0  0  0
   -0.2846    3.0505   -5.3798 H   0  0  0  0  0  0  0  0  0  0  0  0
   -1.3239    3.8545   -6.6046 H   0  0  0  0  0  0  0  0  0  0  0  0
  1  3  1  0  0  0  0
  1  7  1  0  0  0  0
  1  2  2  0  0  0  0
 29 30  1  0  0  0  0
 30 38  1  0  0  0  0
 30 31  2  0  0  0  0
  8  9  1  0  0  0  0
  9 17  1  0  0  0  0
  9 10  2  0  0  0  0
 18 19  1  0  0  0  0
 19 28  1  0  0  0  0
 19 20  2  0  0  0  0
 29 32  1  0  0  0  0
  8 11  1  0  0  0  0
 38 39  1  0  0  0  0
 18 21  1  0  0  0  0
 21 22  1  0  0  0  0
 28 29  1  0  0  0  0
  7  8  1  0  0  0  0
 17 18  1  0  0  0  0
  3  4  1  0  0  0  0
  3  5  1  0  0  0  0
  3  6  1  0  0  0  0
 32 35  1  0  0  0  0
 32 36  1  0  0  0  0
 32 37  1  0  0  0  0
 11 14  1  0  0  0  0
 11 15  1  0  0  0  0
 11 16  1  0  0  0  0
 39 41  1  0  0  0  0
 39 42  1  0  0  0  0
 39 43  1  0  0  0  0
 21 25  1  0  0  0  0
 21 26  1  0  0  0  0
 29 34  1  0  0  0  0
  8 13  1  0  0  0  0
 18 24  1  0  0  0  0
 38 40  1  0  0  0  0
  7 12  1  0  0  0  0
 28 33  1  0  0  0  0
 17 23  1  0  0  0  0
 22 27  1  0  0  0  0
M  END
$$$$

  -OEChem-05262214473D

 43 42  0     1  0  0  0  0  0999 V2000
    0.7424   -1.0926    4.5665 C   0  0  0  0  0  0  0  0  0  0  0  0
    0.1409   -0.5364    5.4779 O   0  0  0  0  0  0  0  0  0  0  0  0
    1.7940   -2.1023    4.8871 C   0  0  0  0  0  0  0  0  0  0  0  0
    2.7935   -1.6502    4.9904 H   0  0  0  0  0  0  0  0  0  0  0  0
    1.6064   -2.6156    5.8438 H   0  0  0  0  0  0  0  0  0  0  0  0
    1.9156   -2.9078    4.1453 H   0  0  0  0  0  0  0  0  0  0  0  0
    0.5488   -0.8838    3.2109 N   0  0  0  0  0  0  0  0  0  0  0  0
   -0.4159    0.0446    2.6829 C   0  0  2  0  0  0  0  0  0  0  0  0
   -0.7551   -0.3867    1.2623 C   0  0  0  0  0  0  0  0  0  0  0  0
   -0.0106   -1.0851    0.5774 O   0  0  0  0  0  0  0  0  0  0  0  0
    0.1168    1.4689    2.7060 C   0  0  0  0  0  0  0  0  0  0  0  0
    1.1183   -1.4145    2.5542 H   0  0  0  0  0  0  0  0  0  0  0  0
   -1.3088   -0.0350    3.3125 H   0  0  0  0  0  0  0  0  0  0  0  0
    1.0116    1.5681    2.0808 H   0  0  0  0  0  0  0  0  0  0  0  0
   -0.6289    2.1775    2.3307 H   0  0  0  0  0  0  0  0  0  0  0  0
    0.3882    1.7670    3.7245 H   0  0  0  0  0  0  0  0  0  0  0  0
   -1.9689    0.1350    0.8298 N   0  0  0  0  0  0  0  0  0  0  0  0
   -2.5039   -0.1183   -0.4830 C   0  0  2  0  0  0  0  0  0  0  0  0
   -2.3202    1.1403   -1.3239 C   0  0  0  0  0  0  0  0  0  0  0  0
   -1.2171    1.6134   -1.5894 O   0  0  0  0  0  0  0  0  0  0  0  0
   -3.9638   -0.5563   -0.4227 C   0  0  0  0  0  0  0  0  0  0  0  0
   -4.7780    0.5077    0.0572 O   0  0  0  0  0  0  0  0  0  0  0  0
   -2.5276    0.6894    1.4750 H   0  0  0  0  0  0  0  0  0  0  0  0
   -1.8972   -0.9235   -0.9131 H   0  0  0  0  0  0  0  0  0  0  0  0
   -4.0906   -1.4106    0.2499 H   0  0  0  0  0  0  0  0  0  0  0  0
   -4.3230   -0.8371   -1.4185 H   0  0  0  0  0  0  0  0  0  0  0  0
   -4.6696    1.2438   -0.5657 H   0  0  0  0  0  0  0  0  0  0  0  0
   -3.5300    1.6465   -1.7775 N   0  0  0  0  0  0  0  0  0  0  0  0
   -3.6221    2.8165   -2.6195 C   0  0  2  0  0  0  0  0  0  0  0  0
   -2.4040    2.8354   -3.5334 C   0  0  0  0  0  0  0  0  0  0  0  0
   -1.3583    2.2454   -3.2696 O   0  0  0  0  0  0  0  0  0  0  0  0
   -3.7000    4.0896   -1.7912 C   0  0  0  0  0  0  0  0  0  0  0  0
   -4.3927    1.1654   -1.5408 H   0  0  0  0  0  0  0  0  0  0  0  0
   -4.5297    2.7019   -3.2221 H   0  0  0  0  0  0  0  0  0  0  0  0
   -2.7993    4.2215   -1.1807 H   0  0  0  0  0  0  0  0  0  0  0  0
   -3.7986    4.9733   -2.4303 H   0  0  0  0  0  0  0  0  0  0  0  0
   -4.5599    4.0614   -1.1132 H   0  0  0  0  0  0  0  0  0  0  0  0
   -2.6069    3.6238   -4.6574 N   0  0  0  0  0  0  0  0  0  0  0  0
   -1.5950    3.8124   -5.6705 C   0  0  0  0  0  0  0  0  0  0  0  0
   -3.5120    4.0608   -4.8044 H   0  0  0  0  0  0  0  0  0  0  0  0
   -1.0061    4.7120   -5.4384 H   0  0  0  0  0  0  0  0  0  0  0  0
   -0.9312    2.9355   -5.6932 H   0  0  0  0  0  0  0  0  0  0  0  0
   -2.0769    3.9328   -6.6520 H   0  0  0  0  0  0  0  0  0  0  0  0
  1  3  1  0  0  0  0
  1  7  1  0  0  0  0
  1  2  2  0  0  0  0
 29 30  1  0  0  0  0
 30 38  1  0  0  0  0
 30 31  2  0  0  0  0
  8  9  1  0  0  0  0
  9 17  1  0  0  0  0
  9 10  2  0  0  0  0
 18 19  1  0  0  0  0
 19 28  1  0  0  0  0
 19 20  2  0  0  0  0
 29 32  1  0  0  0  0
  8 11  1  0  0  0  0
 38 39  1  0  0  0  0
 18 21  1  0  0  0  0
 21 22  1  0  0  0  0
 28 29  1  0  0  0  0
  7  8  1  0  0  0  0
 17 18  1  0  0  0  0
  3  4  1  0  0  0  0
  3  5  1  0  0  0  0
  3  6  1  0  0  0  0
 32 35  1  0  0  0  0
 32 36  1  0  0  0  0
 32 37  1  0  0  0  0
 11 14  1  0  0  0  0
 11 15  1  0  0  0  0
 11 16  1  0  0  0  0
 39 41  1  0  0  0  0
 39 42  1  0  0  0  0
 39 43  1  0  0  0  0
 21 25  1  0  0  0  0
 21 26  1  0  0  0  0
 29 34  1  0  0  0  0
  8 13  1  0  0  0  0
 18 24  1  0  0  0  0
 38 40  1  0  0  0  0
  7 12  1  0  0  0  0
 28 33  1  0  0  0  0
 17 23  1  0  0  0  0
 22 27  1  0  0  0  0
M  END
$$$$

  -OEChem-05262214473D

 43 42  0     1  0  0  0  0  0999 V2000
    0.7424   -1.0926    4.5665 C   0  0  0  0  0  0  0  0  0  0  0  0
    0.1409   -0.5364    5.4779 O   0  0  0  0  0  0  0  0  0  0  0  0
    1.7940   -2.1023    4.8871 C   0  0  0  0  0  0  0  0  0  0  0  0
    2.7935   -1.6502    4.9904 H   0  0  0  0  0  0  0  0  0  0  0  0
    1.6064   -2.6156    5.8438 H   0  0  0  0  0  0  0  0  0  0  0  0
    1.9156   -2.9078    4.1453 H   0  0  0  0  0  0  0  0  0  0  0  0
    0.5488   -0.8838    3.2109 N   0  0  0  0  0  0  0  0  0  0  0  0
   -0.4159    0.0446    2.6829 C   0  0  2  0  0  0  0  0  0  0  0  0
   -0.7551   -0.3867    1.2623 C   0  0  0  0  0  0  0  0  0  0  0  0
   -0.0106   -1.0851    0.5774 O   0  0  0  0  0  0  0  0  0  0  0  0
    0.1168    1.4689    2.7060 C   0  0  0  0  0  0  0  0  0  0  0  0
    1.1183   -1.4145    2.5542 H   0  0  0  0  0  0  0  0  0  0  0  0
   -1.3088   -0.0350    3.3125 H   0  0  0  0  0  0  0  0  0  0  0  0
    1.0116    1.5681    2.0808 H   0  0  0  0  0  0  0  0  0  0  0  0
   -0.6289    2.1775    2.3307 H   0  0  0  0  0  0  0  0  0  0  0  0
    0.3882    1.7670    3.7245 H   0  0  0  0  0  0  0  0  0  0  0  0
   -1.9689    0.1350    0.8298 N   0  0  0  0  0  0  0  0  0  0  0  0
   -2.5039   -0.1183   -0.4830 C   0  0  2  0  0  0  0  0  0  0  0  0
   -2.3202    1.1403   -1.3239 C   0  0  0  0  0  0  0  0  0  0  0  0
   -1.2411    1.4670   -1.8139 O   0  0  0  0  0  0  0  0  0  0  0  0
   -3.9638   -0.5563   -0.4227 C   0  0  0  0  0  0  0  0  0  0  0  0
   -4.7780    0.5077    0.0572 O   0  0  0  0  0  0  0  0  0  0  0  0
   -2.5276    0.6894    1.4750 H   0  0  0  0  0  0  0  0  0  0  0  0
   -1.8972   -0.9235   -0.9131 H   0  0  0  0  0  0  0  0  0  0  0  0
   -4.0906   -1.4106    0.2499 H   0  0  0  0  0  0  0  0  0  0  0  0
   -4.3230   -0.8371   -1.4185 H   0  0  0  0  0  0  0  0  0  0  0  0
   -4.6696    1.2438   -0.5657 H   0  0  0  0  0  0  0  0  0  0  0  0
   -3.5113    1.8307   -1.4976 N   0  0  0  0  0  0  0  0  0  0  0  0
   -3.6073    3.0403   -2.2814 C   0  0  2  0  0  0  0  0  0  0  0  0
   -2.6205    2.9319   -3.4363 C   0  0  0  0  0  0  0  0  0  0  0  0
   -1.6404    2.1902   -3.4138 O   0  0  0  0  0  0  0  0  0  0  0  0
   -3.3215    4.2716   -1.4360 C   0  0  0  0  0  0  0  0  0  0  0  0
   -4.3653    1.4641   -1.0878 H   0  0  0  0  0  0  0  0  0  0  0  0
   -4.6286    3.0815   -2.6756 H   0  0  0  0  0  0  0  0  0  0  0  0
   -2.3027    4.2482   -1.0324 H   0  0  0  0  0  0  0  0  0  0  0  0
   -3.4227    5.1894   -2.0247 H   0  0  0  0  0  0  0  0  0  0  0  0
   -4.0133    4.3319   -0.5889 H   0  0  0  0  0  0  0  0  0  0  0  0
   -2.9390    3.7925   -4.4775 N   0  0  0  0  0  0  0  0  0  0  0  0
   -2.1476    3.8853   -5.6821 C   0  0  0  0  0  0  0  0  0  0  0  0
   -3.7809    4.3577   -4.4188 H   0  0  0  0  0  0  0  0  0  0  0  0
   -1.3980    4.6823   -5.5686 H   0  0  0  0  0  0  0  0  0  0  0  0
   -1.6390    2.9265   -5.8613 H   0  0  0  0  0  0  0  0  0  0  0  0
   -2.8032    4.1175   -6.5344 H   0  0  0  0  0  0  0  0  0  0  0  0
  1  3  1  0  0  0  0
  1  7  1  0  0  0  0
  1  2  2  0  0  0  0
 29 30  1  0  0  0  0
 30 38  1  0  0  0  0
 30 31  2  0  0  0  0
  8  9  1  0  0  0  0
  9 17  1  0  0  0  0
  9 10  2  0  0  0  0
 18 19  1  0  0  0  0
 19 28  1  0  0  0  0
 19 20  2  0  0  0  0
 29 32  1  0  0  0  0
  8 11  1  0  0  0  0
 38 39  1  0  0  0  0
 18 21  1  0  0  0  0
 21 22  1  0  0  0  0
 28 29  1  0  0  0  0
  7  8  1  0  0  0  0
 17 18  1  0  0  0  0
  3  4  1  0  0  0  0
  3  5  1  0  0  0  0
  3  6  1  0  0  0  0
 32 35  1  0  0  0  0
 32 36  1  0  0  0  0
 32 37  1  0  0  0  0
 11 14  1  0  0  0  0
 11 15  1  0  0  0  0
 11 16  1  0  0  0  0
 39 41  1  0  0  0  0
 39 42  1  0  0  0  0
 39 43  1  0  0  0  0
 21 25  1  0  0  0  0
 21 26  1  0  0  0  0
 29 34  1  0  0  0  0
  8 13  1  0  0  0  0
 18 24  1  0  0  0  0
 38 40  1  0  0  0  0
  7 12  1  0  0  0  0
 28 33  1  0  0  0  0
 17 23  1  0  0  0  0
 22 27  1  0  0  0  0
M  END
$$$$

  -OEChem-05262214473D

 43 42  0     1  0  0  0  0  0999 V2000
    0.7424   -1.0926    4.5665 C   0  0  0  0  0  0  0  0  0  0  0  0
    0.1409   -0.5364    5.4779 O   0  0  0  0  0  0  0  0  0  0  0  0
    1.7940   -2.1023    4.8871 C   0  0  0  0  0  0  0  0  0  0  0  0
    2.7935   -1.6502    4.9904 H   0  0  0  0  0  0  0  0  0  0  0  0
    1.6064   -2.6156    5.8438 H   0  0  0  0  0  0  0  0  0  0  0  0
    1.9156   -2.9078    4.1453 H   0  0  0  0  0  0  0  0  0  0  0  0
    0.5488   -0.8838    3.2109 N   0  0  0  0  0  0  0  0  0  0  0  0
   -0.4159    0.0446    2.6829 C   0  0  2  0  0  0  0  0  0  0  0  0
   -0.7551   -0.3867    1.2623 C   0  0  0  0  0  0  0  0  0  0  0  0
   -0.0106   -1.0851    0.5774 O   0  0  0  0  0  0  0  0  0  0  0  0
    0.1168    1.4689    2.7060 C   0  0  0  0  0  0  0  0  0  0  0  0
    1.1183   -1.4145    2.5542 H   0  0  0  0  0  0  0  0  0  0  0  0
   -1.3088   -0.0350    3.3125 H   0  0  0  0  0  0  0  0  0  0  0  0
    1.0116    1.5681    2.0808 H   0  0  0  0  0  0  0  0  0  0  0  0
   -0.6289    2.1775    2.3307 H   0  0  0  0  0  0  0  0  0  0  0  0
    0.3882    1.7670    3.7245 H   0  0  0  0  0  0  0  0  0  0  0  0
   -1.9689    0.1350    0.8298 N   0  0  0  0  0  0  0  0  0  0  0  0
   -2.5039   -0.1183   -0.4830 C   0  0  2  0  0  0  0  0  0  0  0  0
   -2.3202    1.1403   -1.3239 C   0  0  0  0  0  0  0  0  0  0  0  0
   -1.3332    1.3360   -2.0301 O   0  0  0  0  0  0  0  0  0  0  0  0
   -3.9638   -0.5563   -0.4227 C   0  0  0  0  0  0  0  0  0  0  0  0
   -4.7780    0.5077    0.0572 O   0  0  0  0  0  0  0  0  0  0  0  0
   -2.5276    0.6894    1.4750 H   0  0  0  0  0  0  0  0  0  0  0  0
   -1.8972   -0.9235   -0.9131 H   0  0  0  0  0  0  0  0  0  0  0  0
   -4.0906   -1.4106    0.2499 H   0  0  0  0  0  0  0  0  0  0  0  0
   -4.3230   -0.8371   -1.4185 H   0  0  0  0  0  0  0  0  0  0  0  0
   -4.6696    1.2438   -0.5657 H   0  0  0  0  0  0  0  0  0  0  0  0
   -3.4071    1.9973   -1.2255 N   0  0  0  0  0  0  0  0  0  0  0  0
   -3.4889    3.2437   -1.9510 C   0  0  2  0  0  0  0  0  0  0  0  0
   -2.7951    3.0529   -3.2933 C   0  0  0  0  0  0  0  0  0  0  0  0
   -1.9515    2.1817   -3.4946 O   0  0  0  0  0  0  0  0  0  0  0  0
   -2.8540    4.3824   -1.1681 C   0  0  0  0  0  0  0  0  0  0  0  0
   -4.1994    1.7345   -0.6467 H   0  0  0  0  0  0  0  0  0  0  0  0
   -4.5531    3.4452   -2.1147 H   0  0  0  0  0  0  0  0  0  0  0  0
   -1.7875    4.1984   -0.9943 H   0  0  0  0  0  0  0  0  0  0  0  0
   -2.9421    5.3317   -1.7066 H   0  0  0  0  0  0  0  0  0  0  0  0
   -3.3347    4.4989   -0.1907 H   0  0  0  0  0  0  0  0  0  0  0  0
   -3.1972    3.9972   -4.2275 N   0  0  0  0  0  0  0  0  0  0  0  0
   -2.6735    4.0350   -5.5730 C   0  0  0  0  0  0  0  0  0  0  0  0
   -3.9159    4.6708   -3.9796 H   0  0  0  0  0  0  0  0  0  0  0  0
   -1.8086    4.7135   -5.6115 H   0  0  0  0  0  0  0  0  0  0  0  0
   -2.3600    3.0241   -5.8728 H   0  0  0  0  0  0  0  0  0  0  0  0
   -3.4533    4.3958   -6.2599 H   0  0  0  0  0  0  0  0  0  0  0  0
  1  3  1  0  0  0  0
  1  7  1  0  0  0  0
  1  2  2  0  0  0  0
 29 30  1  0  0  0  0
 30 38  1  0  0  0  0
 30 31  2  0  0  0  0
  8  9  1  0  0  0  0
  9 17  1  0  0  0  0
  9 10  2  0  0  0  0
 18 19  1  0  0  0  0
 19 28  1  0  0  0  0
 19 20  2  0  0  0  0
 29 32  1  0  0  0  0
  8 11  1  0  0  0  0
 38 39  1  0  0  0  0
 18 21  1  0  0  0  0
 21 22  1  0  0  0  0
 28 29  1  0  0  0  0
  7  8  1  0  0  0  0
 17 18  1  0  0  0  0
  3  4  1  0  0  0  0
  3  5  1  0  0  0  0
  3  6  1  0  0  0  0
 32 35  1  0  0  0  0
 32 36  1  0  0  0  0
 32 37  1  0  0  0  0
 11 14  1  0  0  0  0
 11 15  1  0  0  0  0
 11 16  1  0  0  0  0
 39 41  1  0  0  0  0
 39 42  1  0  0  0  0
 39 43  1  0  0  0  0
 21 25  1  0  0  0  0
 21 26  1  0  0  0  0
 29 34  1  0  0  0  0
  8 13  1  0  0  0  0
 18 24  1  0  0  0  0
 38 40  1  0  0  0  0
  7 12  1  0  0  0  0
 28 33  1  0  0  0  0
 17 23  1  0  0  0  0
 22 27  1  0  0  0  0
M  END
$$$$

  -OEChem-05262214473D

 43 42  0     1  0  0  0  0  0999 V2000
    0.7424   -1.0926    4.5665 C   0  0  0  0  0  0  0  0  0  0  0  0
    0.1409   -0.5364    5.4779 O   0  0  0  0  0  0  0  0  0  0  0  0
    1.7940   -2.1023    4.8871 C   0  0  0  0  0  0  0  0  0  0  0  0
    2.7935   -1.6502    4.9904 H   0  0  0  0  0  0  0  0  0  0  0  0
    1.6064   -2.6156    5.8438 H   0  0  0  0  0  0  0  0  0  0  0  0
    1.9156   -2.9078    4.1453 H   0  0  0  0  0  0  0  0  0  0  0  0
    0.5488   -0.8838    3.2109 N   0  0  0  0  0  0  0  0  0  0  0  0
   -0.4159    0.0446    2.6829 C   0  0  2  0  0  0  0  0  0  0  0  0
   -0.7551   -0.3867    1.2623 C   0  0  0  0  0  0  0  0  0  0  0  0
   -0.0106   -1.0851    0.5774 O   0  0  0  0  0  0  0  0  0  0  0  0
    0.1168    1.4689    2.7060 C   0  0  0  0  0  0  0  0  0  0  0  0
    1.1183   -1.4145    2.5542 H   0  0  0  0  0  0  0  0  0  0  0  0
   -1.3088   -0.0350    3.3125 H   0  0  0  0  0  0  0  0  0  0  0  0
    1.0116    1.5681    2.0808 H   0  0  0  0  0  0  0  0  0  0  0  0
   -0.6289    2.1775    2.3307 H   0  0  0  0  0  0  0  0  0  0  0  0
    0.3882    1.7670    3.7245 H   0  0  0  0  0  0  0  0  0  0  0  0
   -1.9689    0.1350    0.8298 N   0  0  0  0  0  0  0  0  0  0  0  0
   -2.5039   -0.1183   -0.4830 C   0  0  2  0  0  0  0  0  0  0  0  0
   -2.3202    1.1403   -1.3239 C   0  0  0  0  0  0  0  0  0  0  0  0
   -1.4870    1.2293   -2.2234 O   0  0  0  0  0  0  0  0  0  0  0  0
   -3.9638   -0.5563   -0.4227 C   0  0  0  0  0  0  0  0  0  0  0  0
   -4.7780    0.5077    0.0572 O   0  0  0  0  0  0  0  0  0  0  0  0
   -2.5276    0.6894    1.4750 H   0  0  0  0  0  0  0  0  0  0  0  0
   -1.8972   -0.9235   -0.9131 H   0  0  0  0  0  0  0  0  0  0  0  0
   -4.0906   -1.4106    0.2499 H   0  0  0  0  0  0  0  0  0  0  0  0
   -4.3230   -0.8371   -1.4185 H   0  0  0  0  0  0  0  0  0  0  0  0
   -4.6696    1.2438   -0.5657 H   0  0  0  0  0  0  0  0  0  0  0  0
   -3.2246    2.1349   -0.9797 N   0  0  0  0  0  0  0  0  0  0  0  0
   -3.2748    3.4130   -1.6509 C   0  0  2  0  0  0  0  0  0  0  0  0
   -2.9160    3.1903   -3.1141 C   0  0  0  0  0  0  0  0  0  0  0  0
   -2.2706    2.2204   -3.5064 O   0  0  0  0  0  0  0  0  0  0  0  0
   -2.3294    4.4143   -1.0057 C   0  0  0  0  0  0  0  0  0  0  0  0
   -3.9063    1.9583   -0.2477 H   0  0  0  0  0  0  0  0  0  0  0  0
   -4.3085    3.7682   -1.5777 H   0  0  0  0  0  0  0  0  0  0  0  0
   -1.2889    4.0755   -1.0692 H   0  0  0  0  0  0  0  0  0  0  0  0
   -2.3896    5.3908   -1.4975 H   0  0  0  0  0  0  0  0  0  0  0  0
   -2.5703    4.5509    0.0541 H   0  0  0  0  0  0  0  0  0  0  0  0
   -3.3641    4.2240   -3.9245 N   0  0  0  0  0  0  0  0  0  0  0  0
   -3.1368    4.2512   -5.3506 C   0  0  0  0  0  0  0  0  0  0  0  0
   -3.9078    4.9789   -3.5168 H   0  0  0  0  0  0  0  0  0  0  0  0
   -2.2100    4.8037   -5.5643 H   0  0  0  0  0  0  0  0  0  0  0  0
   -3.0449    3.2216   -5.7268 H   0  0  0  0  0  0  0  0  0  0  0  0
   -3.9829    4.7488   -5.8471 H   0  0  0  0  0  0  0  0  0  0  0  0
  1  3  1  0  0  0  0
  1  7  1  0  0  0  0
  1  2  2  0  0  0  0
 29 30  1  0  0  0  0
 30 38  1  0  0  0  0
 30 31  2  0  0  0  0
  8  9  1  0  0  0  0
  9 17  1  0  0  0  0
  9 10  2  0  0  0  0
 18 19  1  0  0  0  0
 19 28  1  0  0  0  0
 19 20  2  0  0  0  0
 29 32  1  0  0  0  0
  8 11  1  0  0  0  0
 38 39  1  0  0  0  0
 18 21  1  0  0  0  0
 21 22  1  0  0  0  0
 28 29  1  0  0  0  0
  7  8  1  0  0  0  0
 17 18  1  0  0  0  0
  3  4  1  0  0  0  0
  3  5  1  0  0  0  0
  3  6  1  0  0  0  0
 32 35  1  0  0  0  0
 32 36  1  0  0  0  0
 32 37  1  0  0  0  0
 11 14  1  0  0  0  0
 11 15  1  0  0  0  0
 11 16  1  0  0  0  0
 39 41  1  0  0  0  0
 39 42  1  0  0  0  0
 39 43  1  0  0  0  0
 21 25  1  0  0  0  0
 21 26  1  0  0  0  0
 29 34  1  0  0  0  0
  8 13  1  0  0  0  0
 18 24  1  0  0  0  0
 38 40  1  0  0  0  0
  7 12  1  0  0  0  0
 28 33  1  0  0  0  0
 17 23  1  0  0  0  0
 22 27  1  0  0  0  0
M  END
$$$$

  -OEChem-05262214473D

 43 42  0     1  0  0  0  0  0999 V2000
    0.7424   -1.0926    4.5665 C   0  0  0  0  0  0  0  0  0  0  0  0
    0.1409   -0.5364    5.4779 O   0  0  0  0  0  0  0  0  0  0  0  0
    1.7940   -2.1023    4.8871 C   0  0  0  0  0  0  0  0  0  0  0  0
    2.7935   -1.6502    4.9904 H   0  0  0  0  0  0  0  0  0  0  0  0
    1.6064   -2.6156    5.8438 H   0  0  0  0  0  0  0  0  0  0  0  0
    1.9156   -2.9078    4.1453 H   0  0  0  0  0  0  0  0  0  0  0  0
    0.5488   -0.8838    3.2109 N   0  0  0  0  0  0  0  0  0  0  0  0
   -0.4159    0.0446    2.6829 C   0  0  2  0  0  0  0  0  0  0  0  0
   -0.7551   -0.3867    1.2623 C   0  0  0  0  0  0  0  0  0  0  0  0
   -0.0106   -1.0851    0.5774 O   0  0  0  0  0  0  0  0  0  0  0  0
    0.1168    1.4689    2.7060 C   0  0  0  0  0  0  0  0  0  0  0  0
    1.1183   -1.4145    2.5542 H   0  0  0  0  0  0  0  0  0  0  0  0
   -1.3088   -0.0350    3.3125 H   0  0  0  0  0  0  0  0  0  0  0  0
    1.0116    1.5681    2.0808 H   0  0  0  0  0  0  0  0  0  0  0  0
   -0.6289    2.1775    2.3307 H   0  0  0  0  0  0  0  0  0  0  0  0
    0.3882    1.7670    3.7245 H   0  0  0  0  0  0  0  0  0  0  0  0
   -1.9689    0.1350    0.8298 N   0  0  0  0  0  0  0  0  0  0  0  0
   -2.5039   -0.1183   -0.4830 C   0  0  2  0  0  0  0  0  0  0  0  0
   -2.3202    1.1403   -1.3239 C   0  0  0  0  0  0  0  0  0  0  0  0
   -1.6921    1.1542   -2.3805 O   0  0  0  0  0  0  0  0  0  0  0  0
   -3.9638   -0.5563   -0.4227 C   0  0  0  0  0  0  0  0  0  0  0  0
   -4.7780    0.5077    0.0572 O   0  0  0  0  0  0  0  0  0  0  0  0
   -2.5276    0.6894    1.4750 H   0  0  0  0  0  0  0  0  0  0  0  0
   -1.8972   -0.9235   -0.9131 H   0  0  0  0  0  0  0  0  0  0  0  0
   -4.0906   -1.4106    0.2499 H   0  0  0  0  0  0  0  0  0  0  0  0
   -4.3230   -0.8371   -1.4185 H   0  0  0  0  0  0  0  0  0  0  0  0
   -4.6696    1.2438   -0.5657 H   0  0  0  0  0  0  0  0  0  0  0  0
   -2.9761    2.2341   -0.7770 N   0  0  0  0  0  0  0  0  0  0  0  0
   -2.9798    3.5366   -1.4014 C   0  0  2  0  0  0  0  0  0  0  0  0
   -2.9748    3.3347   -2.9109 C   0  0  0  0  0  0  0  0  0  0  0  0
   -2.5757    2.3037   -3.4484 O   0  0  0  0  0  0  0  0  0  0  0  0
   -1.7834    4.3652   -0.9599 C   0  0  0  0  0  0  0  0  0  0  0  0
   -3.5060    2.1202    0.0820 H   0  0  0  0  0  0  0  0  0  0  0  0
   -3.9114    4.0286   -1.1012 H   0  0  0  0  0  0  0  0  0  0  0  0
   -0.8408    3.8881   -1.2519 H   0  0  0  0  0  0  0  0  0  0  0  0
   -1.8029    5.3624   -1.4118 H   0  0  0  0  0  0  0  0  0  0  0  0
   -1.7723    4.4843    0.1289 H   0  0  0  0  0  0  0  0  0  0  0  0
   -3.4281    4.4574   -3.5892 N   0  0  0  0  0  0  0  0  0  0  0  0
   -3.5060    4.5193   -5.0300 C   0  0  0  0  0  0  0  0  0  0  0  0
   -3.7570    5.2608   -3.0618 H   0  0  0  0  0  0  0  0  0  0  0  0
   -2.5746    4.9466   -5.4301 H   0  0  0  0  0  0  0  0  0  0  0  0
   -3.6471    3.5056   -5.4333 H   0  0  0  0  0  0  0  0  0  0  0  0
   -4.3559    5.1526   -5.3243 H   0  0  0  0  0  0  0  0  0  0  0  0
  1  3  1  0  0  0  0
  1  7  1  0  0  0  0
  1  2  2  0  0  0  0
 29 30  1  0  0  0  0
 30 38  1  0  0  0  0
 30 31  2  0  0  0  0
  8  9  1  0  0  0  0
  9 17  1  0  0  0  0
  9 10  2  0  0  0  0
 18 19  1  0  0  0  0
 19 28  1  0  0  0  0
 19 20  2  0  0  0  0
 29 32  1  0  0  0  0
  8 11  1  0  0  0  0
 38 39  1  0  0  0  0
 18 21  1  0  0  0  0
 21 22  1  0  0  0  0
 28 29  1  0  0  0  0
  7  8  1  0  0  0  0
 17 18  1  0  0  0  0
  3  4  1  0  0  0  0
  3  5  1  0  0  0  0
  3  6  1  0  0  0  0
 32 35  1  0  0  0  0
 32 36  1  0  0  0  0
 32 37  1  0  0  0  0
 11 14  1  0  0  0  0
 11 15  1  0  0  0  0
 11 16  1  0  0  0  0
 39 41  1  0  0  0  0
 39 42  1  0  0  0  0
 39 43  1  0  0  0  0
 21 25  1  0  0  0  0
 21 26  1  0  0  0  0
 29 34  1  0  0  0  0
  8 13  1  0  0  0  0
 18 24  1  0  0  0  0
 38 40  1  0  0  0  0
  7 12  1  0  0  0  0
 28 33  1  0  0  0  0
 17 23  1  0  0  0  0
 22 27  1  0  0  0  0
M  END
$$$$

  -OEChem-05262214473D

 43 42  0     1  0  0  0  0  0999 V2000
    0.7424   -1.0926    4.5665 C   0  0  0  0  0  0  0  0  0  0  0  0
    0.1409   -0.5364    5.4779 O   0  0  0  0  0  0  0  0  0  0  0  0
    1.7940   -2.1023    4.8871 C   0  0  0  0  0  0  0  0  0  0  0  0
    2.7935   -1.6502    4.9904 H   0  0  0  0  0  0  0  0  0  0  0  0
    1.6064   -2.6156    5.8438 H   0  0  0  0  0  0  0  0  0  0  0  0
    1.9156   -2.9078    4.1453 H   0  0  0  0  0  0  0  0  0  0  0  0
    0.5488   -0.8838    3.2109 N   0  0  0  0  0  0  0  0  0  0  0  0
   -0.4159    0.0446    2.6829 C   0  0  2  0  0  0  0  0  0  0  0  0
   -0.7551   -0.3867    1.2623 C   0  0  0  0  0  0  0  0  0  0  0  0
   -0.0106   -1.0851    0.5774 O   0  0  0  0  0  0  0  0  0  0  0  0
    0.1168    1.4689    2.7060 C   0  0  0  0  0  0  0  0  0  0  0  0
    1.1183   -1.4145    2.5542 H   0  0  0  0  0  0  0  0  0  0  0  0
   -1.3088   -0.0350    3.3125 H   0  0  0  0  0  0  0  0  0  0  0  0
    1.0116    1.5681    2.0808 H   0  0  0  0  0  0  0  0  0  0  0  0
   -0.6289    2.1775    2.3307 H   0  0  0  0  0  0  0  0  0  0  0  0
    0.3882    1.7670    3.7245 H   0  0  0  0  0  0  0  0  0  0  0  0
   -1.9689    0.1350    0.8298 N   0  0  0  0  0  0  0  0  0  0  0  0
   -2.5039   -0.1183   -0.4830 C   0  0  2  0  0  0  0  0  0  0  0  0
   -2.3202    1.1403   -1.3239 C   0  0  0  0  0  0  0  0  0  0  0  0
   -1.9345    1.1159   -2.4909 O   0  0  0  0  0  0  0  0  0  0  0  0
   -3.9638   -0.5563   -0.4227 C   0  0  0  0  0  0  0  0  0  0  0  0
   -4.7780    0.5077    0.0572 O   0  0  0  0  0  0  0  0  0  0  0  0
   -2.5276    0.6894    1.4750 H   0  0  0  0  0  0  0  0  0  0  0  0
   -1.8972   -0.9235   -0.9131 H   0  0  0  0  0  0  0  0  0  0  0  0
   -4.0906   -1.4106    0.2499 H   0  0  0  0  0  0  0  0  0  0  0  0
   -4.3230   -0.8371   -1.4185 H   0  0  0  0  0  0  0  0  0  0  0  0
   -4.6696    1.2438   -0.5657 H   0  0  0  0  0  0  0  0  0  0  0  0
   -2.6787    2.2881   -0.6312 N   0  0  0  0  0  0  0  0  0  0  0  0
   -2.6238    3.6062   -1.2195 C   0  0  2  0  0  0  0  0  0  0  0  0
   -2.9676    3.4762   -2.6975 C   0  0  0  0  0  0  0  0  0  0  0  0
   -2.8462    2.4259   -3.3246 O   0  0  0  0  0  0  0  0  0  0  0  0
   -1.2532    4.2384   -1.0339 C   0  0  0  0  0  0  0  0  0  0  0  0
   -3.0258    2.2091    0.3201 H   0  0  0  0  0  0  0  0  0  0  0  0
   -3.3888    4.2086   -0.7177 H   0  0  0  0  0  0  0  0  0  0  0  0
   -0.4737    3.6487   -1.5299 H   0  0  0  0  0  0  0  0  0  0  0  0
   -1.2219    5.2486   -1.4552 H   0  0  0  0  0  0  0  0  0  0  0  0
   -0.9949    4.3038    0.0286 H   0  0  0  0  0  0  0  0  0  0  0  0
   -3.3850    4.6816   -3.2442 N   0  0  0  0  0  0  0  0  0  0  0  0
   -3.7558    4.8209   -4.6331 C   0  0  0  0  0  0  0  0  0  0  0  0
   -3.4740    5.4975   -2.6458 H   0  0  0  0  0  0  0  0  0  0  0  0
   -2.8778    5.1325   -5.2181 H   0  0  0  0  0  0  0  0  0  0  0  0
   -4.1255    3.8568   -5.0123 H   0  0  0  0  0  0  0  0  0  0  0  0
   -4.5468    5.5795   -4.7270 H   0  0  0  0  0  0  0  0  0  0  0  0
  1  3  1  0  0  0  0
  1  7  1  0  0  0  0
  1  2  2  0  0  0  0
 29 30  1  0  0  0  0
 30 38  1  0  0  0  0
 30 31  2  0  0  0  0
  8  9  1  0  0  0  0
  9 17  1  0  0  0  0
  9 10  2  0  0  0  0
 18 19  1  0  0  0  0
 19 28  1  0  0  0  0
 19 20  2  0  0  0  0
 29 32  1  0  0  0  0
  8 11  1  0  0  0  0
 38 39  1  0  0  0  0
 18 21  1  0  0  0  0
 21 22  1  0  0  0  0
 28 29  1  0  0  0  0
  7  8  1  0  0  0  0
 17 18  1  0  0  0  0
  3  4  1  0  0  0  0
  3  5  1  0  0  0  0
  3  6  1  0  0  0  0
 32 35  1  0  0  0  0
 32 36  1  0  0  0  0
 32 37  1  0  0  0  0
 11 14  1  0  0  0  0
 11 15  1  0  0  0  0
 11 16  1  0  0  0  0
 39 41  1  0  0  0  0
 39 42  1  0  0  0  0
 39 43  1  0  0  0  0
 21 25  1  0  0  0  0
 21 26  1  0  0  0  0
 29 34  1  0  0  0  0
  8 13  1  0  0  0  0
 18 24  1  0  0  0  0
 38 40  1  0  0  0  0
  7 12  1  0  0  0  0
 28 33  1  0  0  0  0
 17 23  1  0  0  0  0
 22 27  1  0  0  0  0
M  END
$$$$

  -OEChem-05262214473D

 43 42  0     1  0  0  0  0  0999 V2000
    0.7424   -1.0926    4.5665 C   0  0  0  0  0  0  0  0  0  0  0  0
    0.1409   -0.5364    5.4779 O   0  0  0  0  0  0  0  0  0  0  0  0
    1.7940   -2.1023    4.8871 C   0  0  0  0  0  0  0  0  0  0  0  0
    2.7935   -1.6502    4.9904 H   0  0  0  0  0  0  0  0  0  0  0  0
    1.6064   -2.6156    5.8438 H   0  0  0  0  0  0  0  0  0  0  0  0
    1.9156   -2.9078    4.1453 H   0  0  0  0  0  0  0  0  0  0  0  0
    0.5488   -0.8838    3.2109 N   0  0  0  0  0  0  0  0  0  0  0  0
   -0.4159    0.0446    2.6829 C   0  0  2  0  0  0  0  0  0  0  0  0
   -0.7551   -0.3867    1.2623 C   0  0  0  0  0  0  0  0  0  0  0  0
   -0.0106   -1.0851    0.5774 O   0  0  0  0  0  0  0  0  0  0  0  0
    0.1168    1.4689    2.7060 C   0  0  0  0  0  0  0  0  0  0  0  0
    1.1183   -1.4145    2.5542 H   0  0  0  0  0  0  0  0  0  0  0  0
   -1.3088   -0.0350    3.3125 H   0  0  0  0  0  0  0  0  0  0  0  0
    1.0116    1.5681    2.0808 H   0  0  0  0  0  0  0  0  0  0  0  0
   -0.6289    2.1775    2.3307 H   0  0  0  0  0  0  0  0  0  0  0  0
    0.3882    1.7670    3.7245 H   0  0  0  0  0  0  0  0  0  0  0  0
   -1.9689    0.1350    0.8298 N   0  0  0  0  0  0  0  0  0  0  0  0
   -2.5039   -0.1183   -0.4830 C   0  0  2  0  0  0  0  0  0  0  0  0
   -2.3202    1.1403   -1.3239 C   0  0  0  0  0  0  0  0  0  0  0  0
   -2.1977    1.1169   -2.5468 O   0  0  0  0  0  0  0  0  0  0  0  0
   -3.9638   -0.5563   -0.4227 C   0  0  0  0  0  0  0  0  0  0  0  0
   -4.7780    0.5077    0.0572 O   0  0  0  0  0  0  0  0  0  0  0  0
   -2.5276    0.6894    1.4750 H   0  0  0  0  0  0  0  0  0  0  0  0
   -1.8972   -0.9235   -0.9131 H   0  0  0  0  0  0  0  0  0  0  0  0
   -4.0906   -1.4106    0.2499 H   0  0  0  0  0  0  0  0  0  0  0  0
   -4.3230   -0.8371   -1.4185 H   0  0  0  0  0  0  0  0  0  0  0  0
   -4.6696    1.2438   -0.5657 H   0  0  0  0  0  0  0  0  0  0  0  0
   -2.3525    2.2932   -0.5522 N   0  0  0  0  0  0  0  0  0  0  0  0
   -2.2312    3.6168   -1.1178 C   0  0  2  0  0  0  0  0  0  0  0  0
   -2.8949    3.6052   -2.4885 C   0  0  0  0  0  0  0  0  0  0  0  0
   -3.0635    2.5787   -3.1434 O   0  0  0  0  0  0  0  0  0  0  0  0
   -0.7750    4.0425   -1.2225 C   0  0  0  0  0  0  0  0  0  0  0  0
   -2.4985    2.2191    0.4502 H   0  0  0  0  0  0  0  0  0  0  0  0
   -2.7764    4.2959   -0.4532 H   0  0  0  0  0  0  0  0  0  0  0  0
   -0.2127    3.3738   -1.8844 H   0  0  0  0  0  0  0  0  0  0  0  0
   -0.6862    5.0571   -1.6248 H   0  0  0  0  0  0  0  0  0  0  0  0
   -0.2913    4.0217   -0.2400 H   0  0  0  0  0  0  0  0  0  0  0  0
   -3.2377    4.8812   -2.9133 N   0  0  0  0  0  0  0  0  0  0  0  0
   -3.8692    5.1355   -4.1870 C   0  0  0  0  0  0  0  0  0  0  0  0
   -3.0780    5.6727   -2.2970 H   0  0  0  0  0  0  0  0  0  0  0  0
   -3.0989    5.3487   -4.9428 H   0  0  0  0  0  0  0  0  0  0  0  0
   -4.4476    4.2511   -4.4925 H   0  0  0  0  0  0  0  0  0  0  0  0
   -4.5427    6.0005   -4.0960 H   0  0  0  0  0  0  0  0  0  0  0  0
  1  3  1  0  0  0  0
  1  7  1  0  0  0  0
  1  2  2  0  0  0  0
 29 30  1  0  0  0  0
 30 38  1  0  0  0  0
 30 31  2  0  0  0  0
  8  9  1  0  0  0  0
  9 17  1  0  0  0  0
  9 10  2  0  0  0  0
 18 19  1  0  0  0  0
 19 28  1  0  0  0  0
 19 20  2  0  0  0  0
 29 32  1  0  0  0  0
  8 11  1  0  0  0  0
 38 39  1  0  0  0  0
 18 21  1  0  0  0  0
 21 22  1  0  0  0  0
 28 29  1  0  0  0  0
  7  8  1  0  0  0  0
 17 18  1  0  0  0  0
  3  4  1  0  0  0  0
  3  5  1  0  0  0  0
  3  6  1  0  0  0  0
 32 35  1  0  0  0  0
 32 36  1  0  0  0  0
 32 37  1  0  0  0  0
 11 14  1  0  0  0  0
 11 15  1  0  0  0  0
 11 16  1  0  0  0  0
 39 41  1  0  0  0  0
 39 42  1  0  0  0  0
 39 43  1  0  0  0  0
 21 25  1  0  0  0  0
 21 26  1  0  0  0  0
 29 34  1  0  0  0  0
  8 13  1  0  0  0  0
 18 24  1  0  0  0  0
 38 40  1  0  0  0  0
  7 12  1  0  0  0  0
 28 33  1  0  0  0  0
 17 23  1  0  0  0  0
 22 27  1  0  0  0  0
M  END
$$$$

  -OEChem-05262214473D

 43 42  0     1  0  0  0  0  0999 V2000
    0.7424   -1.0926    4.5665 C   0  0  0  0  0  0  0  0  0  0  0  0
    0.1409   -0.5364    5.4779 O   0  0  0  0  0  0  0  0  0  0  0  0
    1.7940   -2.1023    4.8871 C   0  0  0  0  0  0  0  0  0  0  0  0
    2.7935   -1.6502    4.9904 H   0  0  0  0  0  0  0  0  0  0  0  0
    1.6064   -2.6156    5.8438 H   0  0  0  0  0  0  0  0  0  0  0  0
    1.9156   -2.9078    4.1453 H   0  0  0  0  0  0  0  0  0  0  0  0
    0.5488   -0.8838    3.2109 N   0  0  0  0  0  0  0  0  0  0  0  0
   -0.4159    0.0446    2.6829 C   0  0  2  0  0  0  0  0  0  0  0  0
   -0.7551   -0.3867    1.2623 C   0  0  0  0  0  0  0  0  0  0  0  0
   -0.0106   -1.0851    0.5774 O   0  0  0  0  0  0  0  0  0  0  0  0
    0.1168    1.4689    2.7060 C   0  0  0  0  0  0  0  0  0  0  0  0
    1.1183   -1.4145    2.5542 H   0  0  0  0  0  0  0  0  0  0  0  0
   -1.3088   -0.0350    3.3125 H   0  0  0  0  0  0  0  0  0  0  0  0
    1.0116    1.5681    2.0808 H   0  0  0  0  0  0  0  0  0  0  0  0
   -0.6289    2.1775    2.3307 H   0  0  0  0  0  0  0  0  0  0  0  0
    0.3882    1.7670    3.7245 H   0  0  0  0  0  0  0  0  0  0  0  0
   -1.9689    0.1350    0.8298 N   0  0  0  0  0  0  0  0  0  0  0  0
   -2.5039   -0.1183   -0.4830 C   0  0  2  0  0  0  0  0  0  0  0  0
   -2.3202    1.1403   -1.3239 C   0  0  0  0  0  0  0  0  0  0  0  0
   -2.4637    1.1572   -2.5447 O   0  0  0  0  0  0  0  0  0  0  0  0
   -3.9638   -0.5563   -0.4227 C   0  0  0  0  0  0  0  0  0  0  0  0
   -4.7780    0.5077    0.0572 O   0  0  0  0  0  0  0  0  0  0  0  0
   -2.5276    0.6894    1.4750 H   0  0  0  0  0  0  0  0  0  0  0  0
   -1.8972   -0.9235   -0.9131 H   0  0  0  0  0  0  0  0  0  0  0  0
   -4.0906   -1.4106    0.2499 H   0  0  0  0  0  0  0  0  0  0  0  0
   -4.3230   -0.8371   -1.4185 H   0  0  0  0  0  0  0  0  0  0  0  0
   -4.6696    1.2438   -0.5657 H   0  0  0  0  0  0  0  0  0  0  0  0
   -2.0198    2.2492   -0.5455 N   0  0  0  0  0  0  0  0  0  0  0  0
   -1.8288    3.5679   -1.1031 C   0  0  2  0  0  0  0  0  0  0  0  0
   -2.7616    3.7129   -2.2982 C   0  0  0  0  0  0  0  0  0  0  0  0
   -3.2130    2.7516   -2.9172 O   0  0  0  0  0  0  0  0  0  0  0  0
   -0.3814    3.7910   -1.5130 C   0  0  0  0  0  0  0  0  0  0  0  0
   -1.9598    2.1494    0.4635 H   0  0  0  0  0  0  0  0  0  0  0  0
   -2.1159    4.2845   -0.3259 H   0  0  0  0  0  0  0  0  0  0  0  0
   -0.0756    3.0821   -2.2911 H   0  0  0  0  0  0  0  0  0  0  0  0
   -0.2323    4.8009   -1.9090 H   0  0  0  0  0  0  0  0  0  0  0  0
    0.2907    3.6570   -0.6586 H   0  0  0  0  0  0  0  0  0  0  0  0
   -2.9962    5.0427   -2.6188 N   0  0  0  0  0  0  0  0  0  0  0  0
   -3.8386    5.4417   -3.7221 C   0  0  0  0  0  0  0  0  0  0  0  0
   -2.5959    5.7745   -2.0393 H   0  0  0  0  0  0  0  0  0  0  0  0
   -3.2227    5.5805   -4.6229 H   0  0  0  0  0  0  0  0  0  0  0  0
   -4.5913    4.6617   -3.9093 H   0  0  0  0  0  0  0  0  0  0  0  0
   -4.3438    6.3869   -3.4742 H   0  0  0  0  0  0  0  0  0  0  0  0
  1  3  1  0  0  0  0
  1  7  1  0  0  0  0
  1  2  2  0  0  0  0
 29 30  1  0  0  0  0
 30 38  1  0  0  0  0
 30 31  2  0  0  0  0
  8  9  1  0  0  0  0
  9 17  1  0  0  0  0
  9 10  2  0  0  0  0
 18 19  1  0  0  0  0
 19 28  1  0  0  0  0
 19 20  2  0  0  0  0
 29 32  1  0  0  0  0
  8 11  1  0  0  0  0
 38 39  1  0  0  0  0
 18 21  1  0  0  0  0
 21 22  1  0  0  0  0
 28 29  1  0  0  0  0
  7  8  1  0  0  0  0
 17 18  1  0  0  0  0
  3  4  1  0  0  0  0
  3  5  1  0  0  0  0
  3  6  1  0  0  0  0
 32 35  1  0  0  0  0
 32 36  1  0  0  0  0
 32 37  1  0  0  0  0
 11 14  1  0  0  0  0
 11 15  1  0  0  0  0
 11 16  1  0  0  0  0
 39 41  1  0  0  0  0
 39 42  1  0  0  0  0
 39 43  1  0  0  0  0
 21 25  1  0  0  0  0
 21 26  1  0  0  0  0
 29 34  1  0  0  0  0
  8 13  1  0  0  0  0
 18 24  1  0  0  0  0
 38 40  1  0  0  0  0
  7 12  1  0  0  0  0
 28 33  1  0  0  0  0
 17 23  1  0  0  0  0
 22 27  1  0  0  0  0
M  END
$$$$

  -OEChem-05262214473D

 43 42  0     1  0  0  0  0  0999 V2000
    0.7424   -1.0926    4.5665 C   0  0  0  0  0  0  0  0  0  0  0  0
    0.1409   -0.5364    5.4779 O   0  0  0  0  0  0  0  0  0  0  0  0
    1.7940   -2.1023    4.8871 C   0  0  0  0  0  0  0  0  0  0  0  0
    2.7935   -1.6502    4.9904 H   0  0  0  0  0  0  0  0  0  0  0  0
    1.6064   -2.6156    5.8438 H   0  0  0  0  0  0  0  0  0  0  0  0
    1.9156   -2.9078    4.1453 H   0  0  0  0  0  0  0  0  0  0  0  0
    0.5488   -0.8838    3.2109 N   0  0  0  0  0  0  0  0  0  0  0  0
   -0.4159    0.0446    2.6829 C   0  0  2  0  0  0  0  0  0  0  0  0
   -0.7551   -0.3867    1.2623 C   0  0  0  0  0  0  0  0  0  0  0  0
   -0.0106   -1.0851    0.5774 O   0  0  0  0  0  0  0  0  0  0  0  0
    0.1168    1.4689    2.7060 C   0  0  0  0  0  0  0  0  0  0  0  0
    1.1183   -1.4145    2.5542 H   0  0  0  0  0  0  0  0  0  0  0  0
   -1.3088   -0.0350    3.3125 H   0  0  0  0  0  0  0  0  0  0  0  0
    1.0116    1.5681    2.0808 H   0  0  0  0  0  0  0  0  0  0  0  0
   -0.6289    2.1775    2.3307 H   0  0  0  0  0  0  0  0  0  0  0  0
    0.3882    1.7670    3.7245 H   0  0  0  0  0  0  0  0  0  0  0  0
   -1.9689    0.1350    0.8298 N   0  0  0  0  0  0  0  0  0  0  0  0
   -2.5039   -0.1183   -0.4830 C   0  0  2  0  0  0  0  0  0  0  0  0
   -2.3202    1.1403   -1.3239 C   0  0  0  0  0  0  0  0  0  0  0  0
   -2.7144    1.2340   -2.4845 O   0  0  0  0  0  0  0  0  0  0  0  0
   -3.9638   -0.5563   -0.4227 C   0  0  0  0  0  0  0  0  0  0  0  0
   -4.7780    0.5077    0.0572 O   0  0  0  0  0  0  0  0  0  0  0  0
   -2.5276    0.6894    1.4750 H   0  0  0  0  0  0  0  0  0  0  0  0
   -1.8972   -0.9235   -0.9131 H   0  0  0  0  0  0  0  0  0  0  0  0
   -4.0906   -1.4106    0.2499 H   0  0  0  0  0  0  0  0  0  0  0  0
   -4.3230   -0.8371   -1.4185 H   0  0  0  0  0  0  0  0  0  0  0  0
   -4.6696    1.2438   -0.5657 H   0  0  0  0  0  0  0  0  0  0  0  0
   -1.7033    2.1589   -0.6114 N   0  0  0  0  0  0  0  0  0  0  0  0
   -1.4439    3.4628   -1.1763 C   0  0  2  0  0  0  0  0  0  0  0  0
   -2.5768    3.7920   -2.1395 C   0  0  0  0  0  0  0  0  0  0  0  0
   -3.2844    2.9329   -2.6614 O   0  0  0  0  0  0  0  0  0  0  0  0
   -0.0991    3.5009   -1.8856 C   0  0  0  0  0  0  0  0  0  0  0  0
   -1.4467    2.0047    0.3592 H   0  0  0  0  0  0  0  0  0  0  0  0
   -1.4524    4.1753   -0.3443 H   0  0  0  0  0  0  0  0  0  0  0  0
   -0.0716    2.7934   -2.7223 H   0  0  0  0  0  0  0  0  0  0  0  0
    0.1088    4.4976   -2.2885 H   0  0  0  0  0  0  0  0  0  0  0  0
    0.7115    3.2348   -1.1986 H   0  0  0  0  0  0  0  0  0  0  0  0
   -2.6770    5.1550   -2.3810 N   0  0  0  0  0  0  0  0  0  0  0  0
   -3.6660    5.7186   -3.2699 C   0  0  0  0  0  0  0  0  0  0  0  0
   -2.0607    5.7960   -1.8901 H   0  0  0  0  0  0  0  0  0  0  0  0
   -3.2409    5.8121   -4.2802 H   0  0  0  0  0  0  0  0  0  0  0  0
   -4.5470    5.0607   -3.3024 H   0  0  0  0  0  0  0  0  0  0  0  0
   -3.9637    6.7123   -2.9041 H   0  0  0  0  0  0  0  0  0  0  0  0
  1  3  1  0  0  0  0
  1  7  1  0  0  0  0
  1  2  2  0  0  0  0
 29 30  1  0  0  0  0
 30 38  1  0  0  0  0
 30 31  2  0  0  0  0
  8  9  1  0  0  0  0
  9 17  1  0  0  0  0
  9 10  2  0  0  0  0
 18 19  1  0  0  0  0
 19 28  1  0  0  0  0
 19 20  2  0  0  0  0
 29 32  1  0  0  0  0
  8 11  1  0  0  0  0
 38 39  1  0  0  0  0
 18 21  1  0  0  0  0
 21 22  1  0  0  0  0
 28 29  1  0  0  0  0
  7  8  1  0  0  0  0
 17 18  1  0  0  0  0
  3  4  1  0  0  0  0
  3  5  1  0  0  0  0
  3  6  1  0  0  0  0
 32 35  1  0  0  0  0
 32 36  1  0  0  0  0
 32 37  1  0  0  0  0
 11 14  1  0  0  0  0
 11 15  1  0  0  0  0
 11 16  1  0  0  0  0
 39 41  1  0  0  0  0
 39 42  1  0  0  0  0
 39 43  1  0  0  0  0
 21 25  1  0  0  0  0
 21 26  1  0  0  0  0
 29 34  1  0  0  0  0
  8 13  1  0  0  0  0
 18 24  1  0  0  0  0
 38 40  1  0  0  0  0
  7 12  1  0  0  0  0
 28 33  1  0  0  0  0
 17 23  1  0  0  0  0
 22 27  1  0  0  0  0
M  END
$$$$

  -OEChem-05262214473D

 43 42  0     1  0  0  0  0  0999 V2000
    0.7424   -1.0926    4.5665 C   0  0  0  0  0  0  0  0  0  0  0  0
    0.1409   -0.5364    5.4779 O   0  0  0  0  0  0  0  0  0  0  0  0
    1.7940   -2.1023    4.8871 C   0  0  0  0  0  0  0  0  0  0  0  0
    2.7935   -1.6502    4.9904 H   0  0  0  0  0  0  0  0  0  0  0  0
    1.6064   -2.6156    5.8438 H   0  0  0  0  0  0  0  0  0  0  0  0
    1.9156   -2.9078    4.1453 H   0  0  0  0  0  0  0  0  0  0  0  0
    0.5488   -0.8838    3.2109 N   0  0  0  0  0  0  0  0  0  0  0  0
   -0.4159    0.0446    2.6829 C   0  0  2  0  0  0  0  0  0  0  0  0
   -0.7551   -0.3867    1.2623 C   0  0  0  0  0  0  0  0  0  0  0  0
   -0.0106   -1.0851    0.5774 O   0  0  0  0  0  0  0  0  0  0  0  0
    0.1168    1.4689    2.7060 C   0  0  0  0  0  0  0  0  0  0  0  0
    1.1183   -1.4145    2.5542 H   0  0  0  0  0  0  0  0  0  0  0  0
   -1.3088   -0.0350    3.3125 H   0  0  0  0  0  0  0  0  0  0  0  0
    1.0116    1.5681    2.0808 H   0  0  0  0  0  0  0  0  0  0  0  0
   -0.6289    2.1775    2.3307 H   0  0  0  0  0  0  0  0  0  0  0  0
    0.3882    1.7670    3.7245 H   0  0  0  0  0  0  0  0  0  0  0  0
   -1.9689    0.1350    0.8298 N   0  0  0  0  0  0  0  0  0  0  0  0
   -2.5039   -0.1183   -0.4830 C   0  0  2  0  0  0  0  0  0  0  0  0
   -2.3202    1.1403   -1.3239 C   0  0  0  0  0  0  0  0  0  0  0  0
   -2.9328    1.3422   -2.3704 O   0  0  0  0  0  0  0  0  0  0  0  0
   -3.9638   -0.5563   -0.4227 C   0  0  0  0  0  0  0  0  0  0  0  0
   -4.7780    0.5077    0.0572 O   0  0  0  0  0  0  0  0  0  0  0  0
   -2.5276    0.6894    1.4750 H   0  0  0  0  0  0  0  0  0  0  0  0
   -1.8972   -0.9235   -0.9131 H   0  0  0  0  0  0  0  0  0  0  0  0
   -4.0906   -1.4106    0.2499 H   0  0  0  0  0  0  0  0  0  0  0  0
   -4.3230   -0.8371   -1.4185 H   0  0  0  0  0  0  0  0  0  0  0  0
   -4.6696    1.2438   -0.5657 H   0  0  0  0  0  0  0  0  0  0  0  0
   -1.4246    2.0286   -0.7455 N   0  0  0  0  0  0  0  0  0  0  0  0
   -1.1027    3.3086   -1.3326 C   0  0  2  0  0  0  0  0  0  0  0  0
   -2.3531    3.8370   -2.0231 C   0  0  0  0  0  0  0  0  0  0  0  0
   -3.2727    3.1103   -2.3934 O   0  0  0  0  0  0  0  0  0  0  0  0
    0.0525    3.1920   -2.3148 C   0  0  0  0  0  0  0  0  0  0  0  0
   -0.9939    1.7950    0.1442 H   0  0  0  0  0  0  0  0  0  0  0  0
   -0.8310    3.9757   -0.5073 H   0  0  0  0  0  0  0  0  0  0  0  0
   -0.2012    2.5274   -3.1487 H   0  0  0  0  0  0  0  0  0  0  0  0
    0.3139    4.1677   -2.7374 H   0  0  0  0  0  0  0  0  0  0  0  0
    0.9422    2.7838   -1.8233 H   0  0  0  0  0  0  0  0  0  0  0  0
   -2.3018    5.2105   -2.2160 N   0  0  0  0  0  0  0  0  0  0  0  0
   -3.3631    5.9473   -2.8614 C   0  0  0  0  0  0  0  0  0  0  0  0
   -1.5088    5.7358   -1.8597 H   0  0  0  0  0  0  0  0  0  0  0  0
   -3.1522    6.0277   -3.9380 H   0  0  0  0  0  0  0  0  0  0  0  0
   -4.3175    5.4208   -2.7133 H   0  0  0  0  0  0  0  0  0  0  0  0
   -3.4283    6.9546   -2.4244 H   0  0  0  0  0  0  0  0  0  0  0  0
  1  3  1  0  0  0  0
  1  7  1  0  0  0  0
  1  2  2  0  0  0  0
 29 30  1  0  0  0  0
 30 38  1  0  0  0  0
 30 31  2  0  0  0  0
  8  9  1  0  0  0  0
  9 17  1  0  0  0  0
  9 10  2  0  0  0  0
 18 19  1  0  0  0  0
 19 28  1  0  0  0  0
 19 20  2  0  0  0  0
 29 32  1  0  0  0  0
  8 11  1  0  0  0  0
 38 39  1  0  0  0  0
 18 21  1  0  0  0  0
 21 22  1  0  0  0  0
 28 29  1  0  0  0  0
  7  8  1  0  0  0  0
 17 18  1  0  0  0  0
  3  4  1  0  0  0  0
  3  5  1  0  0  0  0
  3  6  1  0  0  0  0
 32 35  1  0  0  0  0
 32 36  1  0  0  0  0
 32 37  1  0  0  0  0
 11 14  1  0  0  0  0
 11 15  1  0  0  0  0
 11 16  1  0  0  0  0
 39 41  1  0  0  0  0
 39 42  1  0  0  0  0
 39 43  1  0  0  0  0
 21 25  1  0  0  0  0
 21 26  1  0  0  0  0
 29 34  1  0  0  0  0
  8 13  1  0  0  0  0
 18 24  1  0  0  0  0
 38 40  1  0  0  0  0
  7 12  1  0  0  0  0
 28 33  1  0  0  0  0
 17 23  1  0  0  0  0
 22 27  1  0  0  0  0
M  END
$$$$

  -OEChem-05262214473D

 43 42  0     1  0  0  0  0  0999 V2000
    0.7424   -1.0926    4.5665 C   0  0  0  0  0  0  0  0  0  0  0  0
    0.1409   -0.5364    5.4779 O   0  0  0  0  0  0  0  0  0  0  0  0
    1.7940   -2.1023    4.8871 C   0  0  0  0  0  0  0  0  0  0  0  0
    2.7935   -1.6502    4.9904 H   0  0  0  0  0  0  0  0  0  0  0  0
    1.6064   -2.6156    5.8438 H   0  0  0  0  0  0  0  0  0  0  0  0
    1.9156   -2.9078    4.1453 H   0  0  0  0  0  0  0  0  0  0  0  0
    0.5488   -0.8838    3.2109 N   0  0  0  0  0  0  0  0  0  0  0  0
   -0.4159    0.0446    2.6829 C   0  0  2  0  0  0  0  0  0  0  0  0
   -0.7551   -0.3867    1.2623 C   0  0  0  0  0  0  0  0  0  0  0  0
   -0.0106   -1.0851    0.5774 O   0  0  0  0  0  0  0  0  0  0  0  0
    0.1168    1.4689    2.7060 C   0  0  0  0  0  0  0  0  0  0  0  0
    1.1183   -1.4145    2.5542 H   0  0  0  0  0  0  0  0  0  0  0  0
   -1.3088   -0.0350    3.3125 H   0  0  0  0  0  0  0  0  0  0  0  0
    1.0116    1.5681    2.0808 H   0  0  0  0  0  0  0  0  0  0  0  0
   -0.6289    2.1775    2.3307 H   0  0  0  0  0  0  0  0  0  0  0  0
    0.3882    1.7670    3.7245 H   0  0  0  0  0  0  0  0  0  0  0  0
   -1.9689    0.1350    0.8298 N   0  0  0  0  0  0  0  0  0  0  0  0
   -2.5039   -0.1183   -0.4830 C   0  0  2  0  0  0  0  0  0  0  0  0
   -2.3202    1.1403   -1.3239 C   0  0  0  0  0  0  0  0  0  0  0  0
   -3.1039    1.4742   -2.2101 O   0  0  0  0  0  0  0  0  0  0  0  0
   -3.9638   -0.5563   -0.4227 C   0  0  0  0  0  0  0  0  0  0  0  0
   -4.7780    0.5077    0.0572 O   0  0  0  0  0  0  0  0  0  0  0  0
   -2.5276    0.6894    1.4750 H   0  0  0  0  0  0  0  0  0  0  0  0
   -1.8972   -0.9235   -0.9131 H   0  0  0  0  0  0  0  0  0  0  0  0
   -4.0906   -1.4106    0.2499 H   0  0  0  0  0  0  0  0  0  0  0  0
   -4.3230   -0.8371   -1.4185 H   0  0  0  0  0  0  0  0  0  0  0  0
   -4.6696    1.2438   -0.5657 H   0  0  0  0  0  0  0  0  0  0  0  0
   -1.2026    1.8672   -0.9386 N   0  0  0  0  0  0  0  0  0  0  0  0
   -0.8286    3.1158   -1.5613 C   0  0  2  0  0  0  0  0  0  0  0  0
   -2.1057    3.8450   -1.9572 C   0  0  0  0  0  0  0  0  0  0  0  0
   -3.1790    3.2716   -2.1315 O   0  0  0  0  0  0  0  0  0  0  0  0
    0.0632    2.8853   -2.7714 C   0  0  0  0  0  0  0  0  0  0  0  0
   -0.6324    1.5346   -0.1666 H   0  0  0  0  0  0  0  0  0  0  0  0
   -0.2941    3.6993   -0.8038 H   0  0  0  0  0  0  0  0  0  0  0  0
   -0.4553    2.3023   -3.5412 H   0  0  0  0  0  0  0  0  0  0  0  0
    0.3691    3.8338   -3.2252 H   0  0  0  0  0  0  0  0  0  0  0  0
    0.9673    2.3347   -2.4900 H   0  0  0  0  0  0  0  0  0  0  0  0
   -1.8962    5.2054   -2.1350 N   0  0  0  0  0  0  0  0  0  0  0  0
   -2.9507    6.1122   -2.5244 C   0  0  0  0  0  0  0  0  0  0  0  0
   -0.9778    5.5978   -1.9501 H   0  0  0  0  0  0  0  0  0  0  0  0
   -2.9626    6.2127   -3.6198 H   0  0  0  0  0  0  0  0  0  0  0  0
   -3.9186    5.7175   -2.1820 H   0  0  0  0  0  0  0  0  0  0  0  0
   -2.7741    7.0973   -2.0679 H   0  0  0  0  0  0  0  0  0  0  0  0
  1  3  1  0  0  0  0
  1  7  1  0  0  0  0
  1  2  2  0  0  0  0
 29 30  1  0  0  0  0
 30 38  1  0  0  0  0
 30 31  2  0  0  0  0
  8  9  1  0  0  0  0
  9 17  1  0  0  0  0
  9 10  2  0  0  0  0
 18 19  1  0  0  0  0
 19 28  1  0  0  0  0
 19 20  2  0  0  0  0
 29 32  1  0  0  0  0
  8 11  1  0  0  0  0
 38 39  1  0  0  0  0
 18 21  1  0  0  0  0
 21 22  1  0  0  0  0
 28 29  1  0  0  0  0
  7  8  1  0  0  0  0
 17 18  1  0  0  0  0
  3  4  1  0  0  0  0
  3  5  1  0  0  0  0
  3  6  1  0  0  0  0
 32 35  1  0  0  0  0
 32 36  1  0  0  0  0
 32 37  1  0  0  0  0
 11 14  1  0  0  0  0
 11 15  1  0  0  0  0
 11 16  1  0  0  0  0
 39 41  1  0  0  0  0
 39 42  1  0  0  0  0
 39 43  1  0  0  0  0
 21 25  1  0  0  0  0
 21 26  1  0  0  0  0
 29 34  1  0  0  0  0
  8 13  1  0  0  0  0
 18 24  1  0  0  0  0
 38 40  1  0  0  0  0
  7 12  1  0  0  0  0
 28 33  1  0  0  0  0
 17 23  1  0  0  0  0
 22 27  1  0  0  0  0
M  END
$$$$

  -OEChem-05262214473D

 43 42  0     1  0  0  0  0  0999 V2000
    0.7424   -1.0926    4.5665 C   0  0  0  0  0  0  0  0  0  0  0  0
    0.1409   -0.5364    5.4779 O   0  0  0  0  0  0  0  0  0  0  0  0
    1.7940   -2.1023    4.8871 C   0  0  0  0  0  0  0  0  0  0  0  0
    2.7935   -1.6502    4.9904 H   0  0  0  0  0  0  0  0  0  0  0  0
    1.6064   -2.6156    5.8438 H   0  0  0  0  0  0  0  0  0  0  0  0
    1.9156   -2.9078    4.1453 H   0  0  0  0  0  0  0  0  0  0  0  0
    0.5488   -0.8838    3.2109 N   0  0  0  0  0  0  0  0  0  0  0  0
   -0.4159    0.0446    2.6829 C   0  0  2  0  0  0  0  0  0  0  0  0
   -0.7551   -0.3867    1.2623 C   0  0  0  0  0  0  0  0  0  0  0  0
   -0.0106   -1.0851    0.5774 O   0  0  0  0  0  0  0  0  0  0  0  0
    0.1168    1.4689    2.7060 C   0  0  0  0  0  0  0  0  0  0  0  0
    1.1183   -1.4145    2.5542 H   0  0  0  0  0  0  0  0  0  0  0  0
   -1.3088   -0.0350    3.3125 H   0  0  0  0  0  0  0  0  0  0  0  0
    1.0116    1.5681    2.0808 H   0  0  0  0  0  0  0  0  0  0  0  0
   -0.6289    2.1775    2.3307 H   0  0  0  0  0  0  0  0  0  0  0  0
    0.3882    1.7670    3.7245 H   0  0  0  0  0  0  0  0  0  0  0  0
   -1.9689    0.1350    0.8298 N   0  0  0  0  0  0  0  0  0  0  0  0
   -2.5039   -0.1183   -0.4830 C   0  0  2  0  0  0  0  0  0  0  0  0
   -2.3202    1.1403   -1.3239 C   0  0  0  0  0  0  0  0  0  0  0  0
   -3.2161    1.6212   -2.0146 O   0  0  0  0  0  0  0  0  0  0  0  0
   -3.9638   -0.5563   -0.4227 C   0  0  0  0  0  0  0  0  0  0  0  0
   -4.7780    0.5077    0.0572 O   0  0  0  0  0  0  0  0  0  0  0  0
   -2.5276    0.6894    1.4750 H   0  0  0  0  0  0  0  0  0  0  0  0
   -1.8972   -0.9235   -0.9131 H   0  0  0  0  0  0  0  0  0  0  0  0
   -4.0906   -1.4106    0.2499 H   0  0  0  0  0  0  0  0  0  0  0  0
   -4.3230   -0.8371   -1.4185 H   0  0  0  0  0  0  0  0  0  0  0  0
   -4.6696    1.2438   -0.5657 H   0  0  0  0  0  0  0  0  0  0  0  0
   -1.0525    1.6856   -1.1777 N   0  0  0  0  0  0  0  0  0  0  0  0
   -0.6402    2.8976   -1.8467 C   0  0  2  0  0  0  0  0  0  0  0  0
   -1.8515    3.8153   -1.9461 C   0  0  0  0  0  0  0  0  0  0  0  0
   -3.0094    3.4058   -1.8936 O   0  0  0  0  0  0  0  0  0  0  0  0
   -0.0678    2.6019   -3.2242 C   0  0  0  0  0  0  0  0  0  0  0  0
   -0.3869    1.2411   -0.5523 H   0  0  0  0  0  0  0  0  0  0  0  0
    0.1218    3.3649   -1.2134 H   0  0  0  0  0  0  0  0  0  0  0  0
   -0.8168    2.1334   -3.8730 H   0  0  0  0  0  0  0  0  0  0  0  0
    0.2705    3.5186   -3.7185 H   0  0  0  0  0  0  0  0  0  0  0  0
    0.7849    1.9180   -3.1534 H   0  0  0  0  0  0  0  0  0  0  0  0
   -1.4879    5.1400   -2.1436 N   0  0  0  0  0  0  0  0  0  0  0  0
   -2.4567    6.2022   -2.2819 C   0  0  0  0  0  0  0  0  0  0  0  0
   -0.5038    5.3916   -2.1552 H   0  0  0  0  0  0  0  0  0  0  0  0
   -2.6851    6.3544   -3.3471 H   0  0  0  0  0  0  0  0  0  0  0  0
   -3.3775    5.9307   -1.7448 H   0  0  0  0  0  0  0  0  0  0  0  0
   -2.0457    7.1306   -1.8589 H   0  0  0  0  0  0  0  0  0  0  0  0
  1  3  1  0  0  0  0
  1  7  1  0  0  0  0
  1  2  2  0  0  0  0
 29 30  1  0  0  0  0
 30 38  1  0  0  0  0
 30 31  2  0  0  0  0
  8  9  1  0  0  0  0
  9 17  1  0  0  0  0
  9 10  2  0  0  0  0
 18 19  1  0  0  0  0
 19 28  1  0  0  0  0
 19 20  2  0  0  0  0
 29 32  1  0  0  0  0
  8 11  1  0  0  0  0
 38 39  1  0  0  0  0
 18 21  1  0  0  0  0
 21 22  1  0  0  0  0
 28 29  1  0  0  0  0
  7  8  1  0  0  0  0
 17 18  1  0  0  0  0
  3  4  1  0  0  0  0
  3  5  1  0  0  0  0
  3  6  1  0  0  0  0
 32 35  1  0  0  0  0
 32 36  1  0  0  0  0
 32 37  1  0  0  0  0
 11 14  1  0  0  0  0
 11 15  1  0  0  0  0
 11 16  1  0  0  0  0
 39 41  1  0  0  0  0
 39 42  1  0  0  0  0
 39 43  1  0  0  0  0
 21 25  1  0  0  0  0
 21 26  1  0  0  0  0
 29 34  1  0  0  0  0
  8 13  1  0  0  0  0
 18 24  1  0  0  0  0
 38 40  1  0  0  0  0
  7 12  1  0  0  0  0
 28 33  1  0  0  0  0
 17 23  1  0  0  0  0
 22 27  1  0  0  0  0
M  END
$$$$

  -OEChem-05262214473D

 43 42  0     1  0  0  0  0  0999 V2000
    0.7424   -1.0926    4.5665 C   0  0  0  0  0  0  0  0  0  0  0  0
    0.1409   -0.5364    5.4779 O   0  0  0  0  0  0  0  0  0  0  0  0
    1.7940   -2.1023    4.8871 C   0  0  0  0  0  0  0  0  0  0  0  0
    2.7935   -1.6502    4.9904 H   0  0  0  0  0  0  0  0  0  0  0  0
    1.6064   -2.6156    5.8438 H   0  0  0  0  0  0  0  0  0  0  0  0
    1.9156   -2.9078    4.1453 H   0  0  0  0  0  0  0  0  0  0  0  0
    0.5488   -0.8838    3.2109 N   0  0  0  0  0  0  0  0  0  0  0  0
   -0.4159    0.0446    2.6829 C   0  0  2  0  0  0  0  0  0  0  0  0
   -0.7551   -0.3867    1.2623 C   0  0  0  0  0  0  0  0  0  0  0  0
   -0.0106   -1.0851    0.5774 O   0  0  0  0  0  0  0  0  0  0  0  0
    0.1168    1.4689    2.7060 C   0  0  0  0  0  0  0  0  0  0  0  0
    1.1183   -1.4145    2.5542 H   0  0  0  0  0  0  0  0  0  0  0  0
   -1.3088   -0.0350    3.3125 H   0  0  0  0  0  0  0  0  0  0  0  0
    1.0116    1.5681    2.0808 H   0  0  0  0  0  0  0  0  0  0  0  0
   -0.6289    2.1775    2.3307 H   0  0  0  0  0  0  0  0  0  0  0  0
    0.3882    1.7670    3.7245 H   0  0  0  0  0  0  0  0  0  0  0  0
   -1.9689    0.1350    0.8298 N   0  0  0  0  0  0  0  0  0  0  0  0
   -2.5039   -0.1183   -0.4830 C   0  0  2  0  0  0  0  0  0  0  0  0
   -2.3202    1.1403   -1.3239 C   0  0  0  0  0  0  0  0  0  0  0  0
   -3.2618    1.7731   -1.7973 O   0  0  0  0  0  0  0  0  0  0  0  0
   -3.9638   -0.5563   -0.4227 C   0  0  0  0  0  0  0  0  0  0  0  0
   -4.7780    0.5077    0.0572 O   0  0  0  0  0  0  0  0  0  0  0  0
   -2.5276    0.6894    1.4750 H   0  0  0  0  0  0  0  0  0  0  0  0
   -1.8972   -0.9235   -0.9131 H   0  0  0  0  0  0  0  0  0  0  0  0
   -4.0906   -1.4106    0.2499 H   0  0  0  0  0  0  0  0  0  0  0  0
   -4.3230   -0.8371   -1.4185 H   0  0  0  0  0  0  0  0  0  0  0  0
   -4.6696    1.2438   -0.5657 H   0  0  0  0  0  0  0  0  0  0  0  0
   -0.9845    1.4962   -1.4463 N   0  0  0  0  0  0  0  0  0  0  0  0
   -0.5503    2.6688   -2.1695 C   0  0  2  0  0  0  0  0  0  0  0  0
   -1.6079    3.7500   -1.9906 C   0  0  0  0  0  0  0  0  0  0  0  0
   -2.7756    3.5039   -1.6957 O   0  0  0  0  0  0  0  0  0  0  0  0
   -0.3315    2.3609   -3.6426 C   0  0  0  0  0  0  0  0  0  0  0  0
   -0.2740    0.9345   -0.9864 H   0  0  0  0  0  0  0  0  0  0  0  0
    0.3882    2.9953   -1.7084 H   0  0  0  0  0  0  0  0  0  0  0  0
   -1.2610    2.0321   -4.1216 H   0  0  0  0  0  0  0  0  0  0  0  0
    0.0249    3.2436   -4.1837 H   0  0  0  0  0  0  0  0  0  0  0  0
    0.4076    1.5624   -3.7682 H   0  0  0  0  0  0  0  0  0  0  0  0
   -1.1046    5.0189   -2.2411 N   0  0  0  0  0  0  0  0  0  0  0  0
   -1.9150    6.2110   -2.1503 C   0  0  0  0  0  0  0  0  0  0  0  0
   -0.1193    5.1312   -2.4610 H   0  0  0  0  0  0  0  0  0  0  0  0
   -2.3386    6.4431   -3.1386 H   0  0  0  0  0  0  0  0  0  0  0  0
   -2.7309    6.0456   -1.4314 H   0  0  0  0  0  0  0  0  0  0  0  0
   -1.2926    7.0523   -1.8115 H   0  0  0  0  0  0  0  0  0  0  0  0
  1  3  1  0  0  0  0
  1  7  1  0  0  0  0
  1  2  2  0  0  0  0
 29 30  1  0  0  0  0
 30 38  1  0  0  0  0
 30 31  2  0  0  0  0
  8  9  1  0  0  0  0
  9 17  1  0  0  0  0
  9 10  2  0  0  0  0
 18 19  1  0  0  0  0
 19 28  1  0  0  0  0
 19 20  2  0  0  0  0
 29 32  1  0  0  0  0
  8 11  1  0  0  0  0
 38 39  1  0  0  0  0
 18 21  1  0  0  0  0
 21 22  1  0  0  0  0
 28 29  1  0  0  0  0
  7  8  1  0  0  0  0
 17 18  1  0  0  0  0
  3  4  1  0  0  0  0
  3  5  1  0  0  0  0
  3  6  1  0  0  0  0
 32 35  1  0  0  0  0
 32 36  1  0  0  0  0
 32 37  1  0  0  0  0
 11 14  1  0  0  0  0
 11 15  1  0  0  0  0
 11 16  1  0  0  0  0
 39 41  1  0  0  0  0
 39 42  1  0  0  0  0
 39 43  1  0  0  0  0
 21 25  1  0  0  0  0
 21 26  1  0  0  0  0
 29 34  1  0  0  0  0
  8 13  1  0  0  0  0
 18 24  1  0  0  0  0
 38 40  1  0  0  0  0
  7 12  1  0  0  0  0
 28 33  1  0  0  0  0
 17 23  1  0  0  0  0
 22 27  1  0  0  0  0
M  END
$$$$

  -OEChem-05262214473D

 43 42  0     1  0  0  0  0  0999 V2000
    0.7424   -1.0926    4.5665 C   0  0  0  0  0  0  0  0  0  0  0  0
    0.1409   -0.5364    5.4779 O   0  0  0  0  0  0  0  0  0  0  0  0
    1.7940   -2.1023    4.8871 C   0  0  0  0  0  0  0  0  0  0  0  0
    2.7935   -1.6502    4.9904 H   0  0  0  0  0  0  0  0  0  0  0  0
    1.6064   -2.6156    5.8438 H   0  0  0  0  0  0  0  0  0  0  0  0
    1.9156   -2.9078    4.1453 H   0  0  0  0  0  0  0  0  0  0  0  0
    0.5488   -0.8838    3.2109 N   0  0  0  0  0  0  0  0  0  0  0  0
   -0.4159    0.0446    2.6829 C   0  0  2  0  0  0  0  0  0  0  0  0
   -0.7551   -0.3867    1.2623 C   0  0  0  0  0  0  0  0  0  0  0  0
   -0.0106   -1.0851    0.5774 O   0  0  0  0  0  0  0  0  0  0  0  0
    0.1168    1.4689    2.7060 C   0  0  0  0  0  0  0  0  0  0  0  0
    1.1183   -1.4145    2.5542 H   0  0  0  0  0  0  0  0  0  0  0  0
   -1.3088   -0.0350    3.3125 H   0  0  0  0  0  0  0  0  0  0  0  0
    1.0116    1.5681    2.0808 H   0  0  0  0  0  0  0  0  0  0  0  0
   -0.6289    2.1775    2.3307 H   0  0  0  0  0  0  0  0  0  0  0  0
    0.3882    1.7670    3.7245 H   0  0  0  0  0  0  0  0  0  0  0  0
   -1.9689    0.1350    0.8298 N   0  0  0  0  0  0  0  0  0  0  0  0
   -2.5039   -0.1183   -0.4830 C   0  0  2  0  0  0  0  0  0  0  0  0
   -2.3202    1.1403   -1.3239 C   0  0  0  0  0  0  0  0  0  0  0  0
   -3.2377    1.9195   -1.5728 O   0  0  0  0  0  0  0  0  0  0  0  0
   -3.9638   -0.5563   -0.4227 C   0  0  0  0  0  0  0  0  0  0  0  0
   -4.7780    0.5077    0.0572 O   0  0  0  0  0  0  0  0  0  0  0  0
   -2.5276    0.6894    1.4750 H   0  0  0  0  0  0  0  0  0  0  0  0
   -1.8972   -0.9235   -0.9131 H   0  0  0  0  0  0  0  0  0  0  0  0
   -4.0906   -1.4106    0.2499 H   0  0  0  0  0  0  0  0  0  0  0  0
   -4.3230   -0.8371   -1.4185 H   0  0  0  0  0  0  0  0  0  0  0  0
   -4.6696    1.2438   -0.5657 H   0  0  0  0  0  0  0  0  0  0  0  0
   -1.0032    1.3119   -1.7262 N   0  0  0  0  0  0  0  0  0  0  0  0
   -0.5651    2.4451   -2.5076 C   0  0  2  0  0  0  0  0  0  0  0  0
   -1.3914    3.6535   -2.0876 C   0  0  0  0  0  0  0  0  0  0  0  0
   -2.4935    3.5590   -1.5515 O   0  0  0  0  0  0  0  0  0  0  0  0
   -0.7101    2.1788   -3.9978 C   0  0  0  0  0  0  0  0  0  0  0  0
   -0.3014    0.6359   -1.4394 H   0  0  0  0  0  0  0  0  0  0  0  0
    0.4871    2.6157   -2.2549 H   0  0  0  0  0  0  0  0  0  0  0  0
   -1.7576    2.0055   -4.2699 H   0  0  0  0  0  0  0  0  0  0  0  0
   -0.3510    3.0275   -4.5892 H   0  0  0  0  0  0  0  0  0  0  0  0
   -0.1390    1.2918   -4.2926 H   0  0  0  0  0  0  0  0  0  0  0  0
   -0.7725    4.8502   -2.4210 N   0  0  0  0  0  0  0  0  0  0  0  0
   -1.3623    6.1380   -2.1387 C   0  0  0  0  0  0  0  0  0  0  0  0
    0.1496    4.8343   -2.8466 H   0  0  0  0  0  0  0  0  0  0  0  0
   -1.9467    6.4728   -3.0084 H   0  0  0  0  0  0  0  0  0  0  0  0
   -2.0231    6.0546   -1.2633 H   0  0  0  0  0  0  0  0  0  0  0  0
   -0.5663    6.8677   -1.9291 H   0  0  0  0  0  0  0  0  0  0  0  0
  1  3  1  0  0  0  0
  1  7  1  0  0  0  0
  1  2  2  0  0  0  0
 29 30  1  0  0  0  0
 30 38  1  0  0  0  0
 30 31  2  0  0  0  0
  8  9  1  0  0  0  0
  9 17  1  0  0  0  0
  9 10  2  0  0  0  0
 18 19  1  0  0  0  0
 19 28  1  0  0  0  0
 19 20  2  0  0  0  0
 29 32  1  0  0  0  0
  8 11  1  0  0  0  0
 38 39  1  0  0  0  0
 18 21  1  0  0  0  0
 21 22  1  0  0  0  0
 28 29  1  0  0  0  0
  7  8  1  0  0  0  0
 17 18  1  0  0  0  0
  3  4  1  0  0  0  0
  3  5  1  0  0  0  0
  3  6  1  0  0  0  0
 32 35  1  0  0  0  0
 32 36  1  0  0  0  0
 32 37  1  0  0  0  0
 11 14  1  0  0  0  0
 11 15  1  0  0  0  0
 11 16  1  0  0  0  0
 39 41  1  0  0  0  0
 39 42  1  0  0  0  0
 39 43  1  0  0  0  0
 21 25  1  0  0  0  0
 21 26  1  0  0  0  0
 29 34  1  0  0  0  0
  8 13  1  0  0  0  0
 18 24  1  0  0  0  0
 38 40  1  0  0  0  0
  7 12  1  0  0  0  0
 28 33  1  0  0  0  0
 17 23  1  0  0  0  0
 22 27  1  0  0  0  0
M  END
$$$$

  -OEChem-05262214473D

 43 42  0     1  0  0  0  0  0999 V2000
    0.7424   -1.0926    4.5665 C   0  0  0  0  0  0  0  0  0  0  0  0
    0.1409   -0.5364    5.4779 O   0  0  0  0  0  0  0  0  0  0  0  0
    1.7940   -2.1023    4.8871 C   0  0  0  0  0  0  0  0  0  0  0  0
    2.7935   -1.6502    4.9904 H   0  0  0  0  0  0  0  0  0  0  0  0
    1.6064   -2.6156    5.8438 H   0  0  0  0  0  0  0  0  0  0  0  0
    1.9156   -2.9078    4.1453 H   0  0  0  0  0  0  0  0  0  0  0  0
    0.5488   -0.8838    3.2109 N   0  0  0  0  0  0  0  0  0  0  0  0
   -0.4159    0.0446    2.6829 C   0  0  2  0  0  0  0  0  0  0  0  0
   -0.7551   -0.3867    1.2623 C   0  0  0  0  0  0  0  0  0  0  0  0
   -0.0106   -1.0851    0.5774 O   0  0  0  0  0  0  0  0  0  0  0  0
    0.1168    1.4689    2.7060 C   0  0  0  0  0  0  0  0  0  0  0  0
    1.1183   -1.4145    2.5542 H   0  0  0  0  0  0  0  0  0  0  0  0
   -1.3088   -0.0350    3.3125 H   0  0  0  0  0  0  0  0  0  0  0  0
    1.0116    1.5681    2.0808 H   0  0  0  0  0  0  0  0  0  0  0  0
   -0.6289    2.1775    2.3307 H   0  0  0  0  0  0  0  0  0  0  0  0
    0.3882    1.7670    3.7245 H   0  0  0  0  0  0  0  0  0  0  0  0
   -1.9689    0.1350    0.8298 N   0  0  0  0  0  0  0  0  0  0  0  0
   -2.5039   -0.1183   -0.4830 C   0  0  2  0  0  0  0  0  0  0  0  0
   -2.3202    1.1403   -1.3239 C   0  0  0  0  0  0  0  0  0  0  0  0
   -3.1457    2.0505   -1.3566 O   0  0  0  0  0  0  0  0  0  0  0  0
   -3.9638   -0.5563   -0.4227 C   0  0  0  0  0  0  0  0  0  0  0  0
   -4.7780    0.5077    0.0572 O   0  0  0  0  0  0  0  0  0  0  0  0
   -2.5276    0.6894    1.4750 H   0  0  0  0  0  0  0  0  0  0  0  0
   -1.8972   -0.9235   -0.9131 H   0  0  0  0  0  0  0  0  0  0  0  0
   -4.0906   -1.4106    0.2499 H   0  0  0  0  0  0  0  0  0  0  0  0
   -4.3230   -0.8371   -1.4185 H   0  0  0  0  0  0  0  0  0  0  0  0
   -4.6696    1.2438   -0.5657 H   0  0  0  0  0  0  0  0  0  0  0  0
   -1.1073    1.1453   -1.9983 N   0  0  0  0  0  0  0  0  0  0  0  0
   -0.6836    2.2416   -2.8380 C   0  0  2  0  0  0  0  0  0  0  0  0
   -1.2168    3.5325   -2.2306 C   0  0  0  0  0  0  0  0  0  0  0  0
   -2.1824    3.5676   -1.4708 O   0  0  0  0  0  0  0  0  0  0  0  0
   -1.1776    2.0681   -4.2657 C   0  0  0  0  0  0  0  0  0  0  0  0
   -0.4673    0.3654   -1.8804 H   0  0  0  0  0  0  0  0  0  0  0  0
    0.4116    2.2520   -2.8158 H   0  0  0  0  0  0  0  0  0  0  0  0
   -2.2728    2.0553   -4.3080 H   0  0  0  0  0  0  0  0  0  0  0  0
   -0.8316    2.8851   -4.9074 H   0  0  0  0  0  0  0  0  0  0  0  0
   -0.8176    1.1249   -4.6907 H   0  0  0  0  0  0  0  0  0  0  0  0
   -0.5143    4.6455   -2.6709 N   0  0  0  0  0  0  0  0  0  0  0  0
   -0.8364    5.9884   -2.2479 C   0  0  0  0  0  0  0  0  0  0  0  0
    0.2846    4.5211   -3.2858 H   0  0  0  0  0  0  0  0  0  0  0  0
   -1.5361    6.4416   -2.9655 H   0  0  0  0  0  0  0  0  0  0  0  0
   -1.3021    5.9570   -1.2518 H   0  0  0  0  0  0  0  0  0  0  0  0
    0.0838    6.5894   -2.2037 H   0  0  0  0  0  0  0  0  0  0  0  0
  1  3  1  0  0  0  0
  1  7  1  0  0  0  0
  1  2  2  0  0  0  0
 29 30  1  0  0  0  0
 30 38  1  0  0  0  0
 30 31  2  0  0  0  0
  8  9  1  0  0  0  0
  9 17  1  0  0  0  0
  9 10  2  0  0  0  0
 18 19  1  0  0  0  0
 19 28  1  0  0  0  0
 19 20  2  0  0  0  0
 29 32  1  0  0  0  0
  8 11  1  0  0  0  0
 38 39  1  0  0  0  0
 18 21  1  0  0  0  0
 21 22  1  0  0  0  0
 28 29  1  0  0  0  0
  7  8  1  0  0  0  0
 17 18  1  0  0  0  0
  3  4  1  0  0  0  0
  3  5  1  0  0  0  0
  3  6  1  0  0  0  0
 32 35  1  0  0  0  0
 32 36  1  0  0  0  0
 32 37  1  0  0  0  0
 11 14  1  0  0  0  0
 11 15  1  0  0  0  0
 11 16  1  0  0  0  0
 39 41  1  0  0  0  0
 39 42  1  0  0  0  0
 39 43  1  0  0  0  0
 21 25  1  0  0  0  0
 21 26  1  0  0  0  0
 29 34  1  0  0  0  0
  8 13  1  0  0  0  0
 18 24  1  0  0  0  0
 38 40  1  0  0  0  0
  7 12  1  0  0  0  0
 28 33  1  0  0  0  0
 17 23  1  0  0  0  0
 22 27  1  0  0  0  0
M  END
$$$$

  -OEChem-05262214473D

 43 42  0     1  0  0  0  0  0999 V2000
    0.7424   -1.0926    4.5665 C   0  0  0  0  0  0  0  0  0  0  0  0
    0.1409   -0.5364    5.4779 O   0  0  0  0  0  0  0  0  0  0  0  0
    1.7940   -2.1023    4.8871 C   0  0  0  0  0  0  0  0  0  0  0  0
    2.7935   -1.6502    4.9904 H   0  0  0  0  0  0  0  0  0  0  0  0
    1.6064   -2.6156    5.8438 H   0  0  0  0  0  0  0  0  0  0  0  0
    1.9156   -2.9078    4.1453 H   0  0  0  0  0  0  0  0  0  0  0  0
    0.5488   -0.8838    3.2109 N   0  0  0  0  0  0  0  0  0  0  0  0
   -0.4159    0.0446    2.6829 C   0  0  2  0  0  0  0  0  0  0  0  0
   -0.7551   -0.3867    1.2623 C   0  0  0  0  0  0  0  0  0  0  0  0
   -0.0106   -1.0851    0.5774 O   0  0  0  0  0  0  0  0  0  0  0  0
    0.1168    1.4689    2.7060 C   0  0  0  0  0  0  0  0  0  0  0  0
    1.1183   -1.4145    2.5542 H   0  0  0  0  0  0  0  0  0  0  0  0
   -1.3088   -0.0350    3.3125 H   0  0  0  0  0  0  0  0  0  0  0  0
    1.0116    1.5681    2.0808 H   0  0  0  0  0  0  0  0  0  0  0  0
   -0.6289    2.1775    2.3307 H   0  0  0  0  0  0  0  0  0  0  0  0
    0.3882    1.7670    3.7245 H   0  0  0  0  0  0  0  0  0  0  0  0
   -1.9689    0.1350    0.8298 N   0  0  0  0  0  0  0  0  0  0  0  0
   -2.5039   -0.1183   -0.4830 C   0  0  2  0  0  0  0  0  0  0  0  0
   -2.3202    1.1403   -1.3239 C   0  0  0  0  0  0  0  0  0  0  0  0
   -2.9919    2.1572   -1.1633 O   0  0  0  0  0  0  0  0  0  0  0  0
   -3.9638   -0.5563   -0.4227 C   0  0  0  0  0  0  0  0  0  0  0  0
   -4.7780    0.5077    0.0572 O   0  0  0  0  0  0  0  0  0  0  0  0
   -2.5276    0.6894    1.4750 H   0  0  0  0  0  0  0  0  0  0  0  0
   -1.8972   -0.9235   -0.9131 H   0  0  0  0  0  0  0  0  0  0  0  0
   -4.0906   -1.4106    0.2499 H   0  0  0  0  0  0  0  0  0  0  0  0
   -4.3230   -0.8371   -1.4185 H   0  0  0  0  0  0  0  0  0  0  0  0
   -4.6696    1.2438   -0.5657 H   0  0  0  0  0  0  0  0  0  0  0  0
   -1.2899    1.0077   -2.2441 N   0  0  0  0  0  0  0  0  0  0  0  0
   -0.8976    2.0723   -3.1381 C   0  0  2  0  0  0  0  0  0  0  0  0
   -1.0959    3.3951   -2.4098 C   0  0  0  0  0  0  0  0  0  0  0  0
   -1.8634    3.5289   -1.4590 O   0  0  0  0  0  0  0  0  0  0  0  0
   -1.7022    2.0361   -4.4281 C   0  0  0  0  0  0  0  0  0  0  0  0
   -0.7604    0.1417   -2.2794 H   0  0  0  0  0  0  0  0  0  0  0  0
    0.1670    1.9289   -3.3528 H   0  0  0  0  0  0  0  0  0  0  0  0
   -2.7714    2.1781   -4.2331 H   0  0  0  0  0  0  0  0  0  0  0  0
   -1.3840    2.8261   -5.1164 H   0  0  0  0  0  0  0  0  0  0  0  0
   -1.5819    1.0729   -4.9356 H   0  0  0  0  0  0  0  0  0  0  0  0
   -0.3475    4.4187   -2.9739 N   0  0  0  0  0  0  0  0  0  0  0  0
   -0.3731    5.7721   -2.4703 C   0  0  0  0  0  0  0  0  0  0  0  0
    0.2764    4.2131   -3.7487 H   0  0  0  0  0  0  0  0  0  0  0  0
   -1.1348    6.3514   -3.0128 H   0  0  0  0  0  0  0  0  0  0  0  0
   -0.6172    5.7595   -1.3978 H   0  0  0  0  0  0  0  0  0  0  0  0
    0.6134    6.2363   -2.6164 H   0  0  0  0  0  0  0  0  0  0  0  0
  1  3  1  0  0  0  0
  1  7  1  0  0  0  0
  1  2  2  0  0  0  0
 29 30  1  0  0  0  0
 30 38  1  0  0  0  0
 30 31  2  0  0  0  0
  8  9  1  0  0  0  0
  9 17  1  0  0  0  0
  9 10  2  0  0  0  0
 18 19  1  0  0  0  0
 19 28  1  0  0  0  0
 19 20  2  0  0  0  0
 29 32  1  0  0  0  0
  8 11  1  0  0  0  0
 38 39  1  0  0  0  0
 18 21  1  0  0  0  0
 21 22  1  0  0  0  0
 28 29  1  0  0  0  0
  7  8  1  0  0  0  0
 17 18  1  0  0  0  0
  3  4  1  0  0  0  0
  3  5  1  0  0  0  0
  3  6  1  0  0  0  0
 32 35  1  0  0  0  0
 32 36  1  0  0  0  0
 32 37  1  0  0  0  0
 11 14  1  0  0  0  0
 11 15  1  0  0  0  0
 11 16  1  0  0  0  0
 39 41  1  0  0  0  0
 39 42  1  0  0  0  0
 39 43  1  0  0  0  0
 21 25  1  0  0  0  0
 21 26  1  0  0  0  0
 29 34  1  0  0  0  0
  8 13  1  0  0  0  0
 18 24  1  0  0  0  0
 38 40  1  0  0  0  0
  7 12  1  0  0  0  0
 28 33  1  0  0  0  0
 17 23  1  0  0  0  0
 22 27  1  0  0  0  0
M  END
$$$$

  -OEChem-05262214473D

 43 42  0     1  0  0  0  0  0999 V2000
    0.7424   -1.0926    4.5665 C   0  0  0  0  0  0  0  0  0  0  0  0
    0.1409   -0.5364    5.4779 O   0  0  0  0  0  0  0  0  0  0  0  0
    1.7940   -2.1023    4.8871 C   0  0  0  0  0  0  0  0  0  0  0  0
    2.7935   -1.6502    4.9904 H   0  0  0  0  0  0  0  0  0  0  0  0
    1.6064   -2.6156    5.8438 H   0  0  0  0  0  0  0  0  0  0  0  0
    1.9156   -2.9078    4.1453 H   0  0  0  0  0  0  0  0  0  0  0  0
    0.5488   -0.8838    3.2109 N   0  0  0  0  0  0  0  0  0  0  0  0
   -0.4159    0.0446    2.6829 C   0  0  2  0  0  0  0  0  0  0  0  0
   -0.7551   -0.3867    1.2623 C   0  0  0  0  0  0  0  0  0  0  0  0
   -0.0106   -1.0851    0.5774 O   0  0  0  0  0  0  0  0  0  0  0  0
    0.1168    1.4689    2.7060 C   0  0  0  0  0  0  0  0  0  0  0  0
    1.1183   -1.4145    2.5542 H   0  0  0  0  0  0  0  0  0  0  0  0
   -1.3088   -0.0350    3.3125 H   0  0  0  0  0  0  0  0  0  0  0  0
    1.0116    1.5681    2.0808 H   0  0  0  0  0  0  0  0  0  0  0  0
   -0.6289    2.1775    2.3307 H   0  0  0  0  0  0  0  0  0  0  0  0
    0.3882    1.7670    3.7245 H   0  0  0  0  0  0  0  0  0  0  0  0
   -1.9689    0.1350    0.8298 N   0  0  0  0  0  0  0  0  0  0  0  0
   -2.5039   -0.1183   -0.4830 C   0  0  2  0  0  0  0  0  0  0  0  0
   -2.3202    1.1403   -1.3239 C   0  0  0  0  0  0  0  0  0  0  0  0
   -2.7868    2.2323   -1.0062 O   0  0  0  0  0  0  0  0  0  0  0  0
   -3.9638   -0.5563   -0.4227 C   0  0  0  0  0  0  0  0  0  0  0  0
   -4.7780    0.5077    0.0572 O   0  0  0  0  0  0  0  0  0  0  0  0
   -2.5276    0.6894    1.4750 H   0  0  0  0  0  0  0  0  0  0  0  0
   -1.8972   -0.9235   -0.9131 H   0  0  0  0  0  0  0  0  0  0  0  0
   -4.0906   -1.4106    0.2499 H   0  0  0  0  0  0  0  0  0  0  0  0
   -4.3230   -0.8371   -1.4185 H   0  0  0  0  0  0  0  0  0  0  0  0
   -4.6696    1.2438   -0.5657 H   0  0  0  0  0  0  0  0  0  0  0  0
   -1.5383    0.9086   -2.4468 N   0  0  0  0  0  0  0  0  0  0  0  0
   -1.1927    1.9487   -3.3876 C   0  0  2  0  0  0  0  0  0  0  0  0
   -1.0371    3.2507   -2.6131 C   0  0  0  0  0  0  0  0  0  0  0  0
   -1.5582    3.4456   -1.5169 O   0  0  0  0  0  0  0  0  0  0  0  0
   -2.2482    2.0853   -4.4739 C   0  0  0  0  0  0  0  0  0  0  0  0
   -1.1607   -0.0202   -2.6092 H   0  0  0  0  0  0  0  0  0  0  0  0
   -0.2302    1.6685   -3.8293 H   0  0  0  0  0  0  0  0  0  0  0  0
   -3.2195    2.3656   -4.0504 H   0  0  0  0  0  0  0  0  0  0  0  0
   -1.9708    2.8545   -5.2022 H   0  0  0  0  0  0  0  0  0  0  0  0
   -2.3800    1.1394   -5.0104 H   0  0  0  0  0  0  0  0  0  0  0  0
   -0.2834    4.1853   -3.3093 N   0  0  0  0  0  0  0  0  0  0  0  0
   -0.0040    5.5040   -2.7909 C   0  0  0  0  0  0  0  0  0  0  0  0
    0.1257    3.9311   -4.2036 H   0  0  0  0  0  0  0  0  0  0  0  0
   -0.7701    6.2085   -3.1470 H   0  0  0  0  0  0  0  0  0  0  0  0
   -0.0150    5.4755   -1.6913 H   0  0  0  0  0  0  0  0  0  0  0  0
    0.9863    5.8326   -3.1392 H   0  0  0  0  0  0  0  0  0  0  0  0
  1  3  1  0  0  0  0
  1  7  1  0  0  0  0
  1  2  2  0  0  0  0
 29 30  1  0  0  0  0
 30 38  1  0  0  0  0
 30 31  2  0  0  0  0
  8  9  1  0  0  0  0
  9 17  1  0  0  0  0
  9 10  2  0  0  0  0
 18 19  1  0  0  0  0
 19 28  1  0  0  0  0
 19 20  2  0  0  0  0
 29 32  1  0  0  0  0
  8 11  1  0  0  0  0
 38 39  1  0  0  0  0
 18 21  1  0  0  0  0
 21 22  1  0  0  0  0
 28 29  1  0  0  0  0
  7  8  1  0  0  0  0
 17 18  1  0  0  0  0
  3  4  1  0  0  0  0
  3  5  1  0  0  0  0
  3  6  1  0  0  0  0
 32 35  1  0  0  0  0
 32 36  1  0  0  0  0
 32 37  1  0  0  0  0
 11 14  1  0  0  0  0
 11 15  1  0  0  0  0
 11 16  1  0  0  0  0
 39 41  1  0  0  0  0
 39 42  1  0  0  0  0
 39 43  1  0  0  0  0
 21 25  1  0  0  0  0
 21 26  1  0  0  0  0
 29 34  1  0  0  0  0
  8 13  1  0  0  0  0
 18 24  1  0  0  0  0
 38 40  1  0  0  0  0
  7 12  1  0  0  0  0
 28 33  1  0  0  0  0
 17 23  1  0  0  0  0
 22 27  1  0  0  0  0
M  END
$$$$

  -OEChem-05262214473D

 43 42  0     1  0  0  0  0  0999 V2000
    0.7424   -1.0926    4.5665 C   0  0  0  0  0  0  0  0  0  0  0  0
    0.1409   -0.5364    5.4779 O   0  0  0  0  0  0  0  0  0  0  0  0
    1.7940   -2.1023    4.8871 C   0  0  0  0  0  0  0  0  0  0  0  0
    2.7935   -1.6502    4.9904 H   0  0  0  0  0  0  0  0  0  0  0  0
    1.6064   -2.6156    5.8438 H   0  0  0  0  0  0  0  0  0  0  0  0
    1.9156   -2.9078    4.1453 H   0  0  0  0  0  0  0  0  0  0  0  0
    0.5488   -0.8838    3.2109 N   0  0  0  0  0  0  0  0  0  0  0  0
   -0.4159    0.0446    2.6829 C   0  0  2  0  0  0  0  0  0  0  0  0
   -0.7551   -0.3867    1.2623 C   0  0  0  0  0  0  0  0  0  0  0  0
   -0.0106   -1.0851    0.5774 O   0  0  0  0  0  0  0  0  0  0  0  0
    0.1168    1.4689    2.7060 C   0  0  0  0  0  0  0  0  0  0  0  0
    1.1183   -1.4145    2.5542 H   0  0  0  0  0  0  0  0  0  0  0  0
   -1.3088   -0.0350    3.3125 H   0  0  0  0  0  0  0  0  0  0  0  0
    1.0116    1.5681    2.0808 H   0  0  0  0  0  0  0  0  0  0  0  0
   -0.6289    2.1775    2.3307 H   0  0  0  0  0  0  0  0  0  0  0  0
    0.3882    1.7670    3.7245 H   0  0  0  0  0  0  0  0  0  0  0  0
   -1.9689    0.1350    0.8298 N   0  0  0  0  0  0  0  0  0  0  0  0
   -2.5039   -0.1183   -0.4830 C   0  0  2  0  0  0  0  0  0  0  0  0
   -2.3202    1.1403   -1.3239 C   0  0  0  0  0  0  0  0  0  0  0  0
   -2.5444    2.2706   -0.8959 O   0  0  0  0  0  0  0  0  0  0  0  0
   -3.9638   -0.5563   -0.4227 C   0  0  0  0  0  0  0  0  0  0  0  0
   -4.7780    0.5077    0.0572 O   0  0  0  0  0  0  0  0  0  0  0  0
   -2.5276    0.6894    1.4750 H   0  0  0  0  0  0  0  0  0  0  0  0
   -1.8972   -0.9235   -0.9131 H   0  0  0  0  0  0  0  0  0  0  0  0
   -4.0906   -1.4106    0.2499 H   0  0  0  0  0  0  0  0  0  0  0  0
   -4.3230   -0.8371   -1.4185 H   0  0  0  0  0  0  0  0  0  0  0  0
   -4.6696    1.2438   -0.5657 H   0  0  0  0  0  0  0  0  0  0  0  0
   -1.8358    0.8546   -2.5926 N   0  0  0  0  0  0  0  0  0  0  0  0
   -1.5486    1.8792   -3.5694 C   0  0  2  0  0  0  0  0  0  0  0  0
   -1.0443    3.1092   -2.8264 C   0  0  0  0  0  0  0  0  0  0  0  0
   -1.2878    3.3234   -1.6407 O   0  0  0  0  0  0  0  0  0  0  0  0
   -2.7783    2.2121   -4.3999 C   0  0  0  0  0  0  0  0  0  0  0  0
   -1.6408   -0.1092   -2.8472 H   0  0  0  0  0  0  0  0  0  0  0  0
   -0.7527    1.4886   -4.2128 H   0  0  0  0  0  0  0  0  0  0  0  0
   -3.5866    2.6049   -3.7724 H   0  0  0  0  0  0  0  0  0  0  0  0
   -2.5518    2.9683   -5.1588 H   0  0  0  0  0  0  0  0  0  0  0  0
   -3.1573    1.3199   -4.9100 H   0  0  0  0  0  0  0  0  0  0  0  0
   -0.3265    3.9611   -3.6543 N   0  0  0  0  0  0  0  0  0  0  0  0
    0.2458    5.2024   -3.1877 C   0  0  0  0  0  0  0  0  0  0  0  0
   -0.1573    3.6945   -4.6197 H   0  0  0  0  0  0  0  0  0  0  0  0
   -0.4669    6.0226   -3.3589 H   0  0  0  0  0  0  0  0  0  0  0  0
    0.4634    5.1244   -2.1123 H   0  0  0  0  0  0  0  0  0  0  0  0
    1.1772    5.4057   -3.7365 H   0  0  0  0  0  0  0  0  0  0  0  0
  1  3  1  0  0  0  0
  1  7  1  0  0  0  0
  1  2  2  0  0  0  0
 29 30  1  0  0  0  0
 30 38  1  0  0  0  0
 30 31  2  0  0  0  0
  8  9  1  0  0  0  0
  9 17  1  0  0  0  0
  9 10  2  0  0  0  0
 18 19  1  0  0  0  0
 19 28  1  0  0  0  0
 19 20  2  0  0  0  0
 29 32  1  0  0  0  0
  8 11  1  0  0  0  0
 38 39  1  0  0  0  0
 18 21  1  0  0  0  0
 21 22  1  0  0  0  0
 28 29  1  0  0  0  0
  7  8  1  0  0  0  0
 17 18  1  0  0  0  0
  3  4  1  0  0  0  0
  3  5  1  0  0  0  0
  3  6  1  0  0  0  0
 32 35  1  0  0  0  0
 32 36  1  0  0  0  0
 32 37  1  0  0  0  0
 11 14  1  0  0  0  0
 11 15  1  0  0  0  0
 11 16  1  0  0  0  0
 39 41  1  0  0  0  0
 39 42  1  0  0  0  0
 39 43  1  0  0  0  0
 21 25  1  0  0  0  0
 21 26  1  0  0  0  0
 29 34  1  0  0  0  0
  8 13  1  0  0  0  0
 18 24  1  0  0  0  0
 38 40  1  0  0  0  0
  7 12  1  0  0  0  0
 28 33  1  0  0  0  0
 17 23  1  0  0  0  0
 22 27  1  0  0  0  0
M  END
$$$$

  -OEChem-05262214473D

 43 42  0     1  0  0  0  0  0999 V2000
    0.7424   -1.0926    4.5665 C   0  0  0  0  0  0  0  0  0  0  0  0
    0.1409   -0.5364    5.4779 O   0  0  0  0  0  0  0  0  0  0  0  0
    1.7940   -2.1023    4.8871 C   0  0  0  0  0  0  0  0  0  0  0  0
    2.7935   -1.6502    4.9904 H   0  0  0  0  0  0  0  0  0  0  0  0
    1.6064   -2.6156    5.8438 H   0  0  0  0  0  0  0  0  0  0  0  0
    1.9156   -2.9078    4.1453 H   0  0  0  0  0  0  0  0  0  0  0  0
    0.5488   -0.8838    3.2109 N   0  0  0  0  0  0  0  0  0  0  0  0
   -0.4159    0.0446    2.6829 C   0  0  2  0  0  0  0  0  0  0  0  0
   -0.7551   -0.3867    1.2623 C   0  0  0  0  0  0  0  0  0  0  0  0
   -0.0106   -1.0851    0.5774 O   0  0  0  0  0  0  0  0  0  0  0  0
    0.1168    1.4689    2.7060 C   0  0  0  0  0  0  0  0  0  0  0  0
    1.1183   -1.4145    2.5542 H   0  0  0  0  0  0  0  0  0  0  0  0
   -1.3088   -0.0350    3.3125 H   0  0  0  0  0  0  0  0  0  0  0  0
    1.0116    1.5681    2.0808 H   0  0  0  0  0  0  0  0  0  0  0  0
   -0.6289    2.1775    2.3307 H   0  0  0  0  0  0  0  0  0  0  0  0
    0.3882    1.7670    3.7245 H   0  0  0  0  0  0  0  0  0  0  0  0
   -1.9689    0.1350    0.8298 N   0  0  0  0  0  0  0  0  0  0  0  0
   -2.5039   -0.1183   -0.4830 C   0  0  2  0  0  0  0  0  0  0  0  0
   -2.3202    1.1403   -1.3239 C   0  0  0  0  0  0  0  0  0  0  0  0
   -2.2812    2.2696   -0.8399 O   0  0  0  0  0  0  0  0  0  0  0  0
   -3.9638   -0.5563   -0.4227 C   0  0  0  0  0  0  0  0  0  0  0  0
   -4.7780    0.5077    0.0572 O   0  0  0  0  0  0  0  0  0  0  0  0
   -2.5276    0.6894    1.4750 H   0  0  0  0  0  0  0  0  0  0  0  0
   -1.8972   -0.9235   -0.9131 H   0  0  0  0  0  0  0  0  0  0  0  0
   -4.0906   -1.4106    0.2499 H   0  0  0  0  0  0  0  0  0  0  0  0
   -4.3230   -0.8371   -1.4185 H   0  0  0  0  0  0  0  0  0  0  0  0
   -4.6696    1.2438   -0.5657 H   0  0  0  0  0  0  0  0  0  0  0  0
   -2.1620    0.8494   -2.6715 N   0  0  0  0  0  0  0  0  0  0  0  0
   -1.9412    1.8685   -3.6712 C   0  0  2  0  0  0  0  0  0  0  0  0
   -1.1170    2.9802   -3.0354 C   0  0  0  0  0  0  0  0  0  0  0  0
   -1.0704    3.1706   -1.8219 O   0  0  0  0  0  0  0  0  0  0  0  0
   -3.2565    2.4079   -4.2113 C   0  0  0  0  0  0  0  0  0  0  0  0
   -2.1682   -0.1191   -2.9773 H   0  0  0  0  0  0  0  0  0  0  0  0
   -1.3651    1.4013   -4.4773 H   0  0  0  0  0  0  0  0  0  0  0  0
   -3.8476    2.8799   -3.4179 H   0  0  0  0  0  0  0  0  0  0  0  0
   -3.0875    3.1598   -4.9892 H   0  0  0  0  0  0  0  0  0  0  0  0
   -3.8610    1.6021   -4.6415 H   0  0  0  0  0  0  0  0  0  0  0  0
   -0.4738    3.7615   -3.9852 N   0  0  0  0  0  0  0  0  0  0  0  0
    0.3593    4.8878   -3.6339 C   0  0  0  0  0  0  0  0  0  0  0  0
   -0.5533    3.5193   -4.9684 H   0  0  0  0  0  0  0  0  0  0  0  0
   -0.2459    5.8064   -3.6343 H   0  0  0  0  0  0  0  0  0  0  0  0
    0.7854    4.7301   -2.6321 H   0  0  0  0  0  0  0  0  0  0  0  0
    1.1731    4.9847   -4.3675 H   0  0  0  0  0  0  0  0  0  0  0  0
  1  3  1  0  0  0  0
  1  7  1  0  0  0  0
  1  2  2  0  0  0  0
 29 30  1  0  0  0  0
 30 38  1  0  0  0  0
 30 31  2  0  0  0  0
  8  9  1  0  0  0  0
  9 17  1  0  0  0  0
  9 10  2  0  0  0  0
 18 19  1  0  0  0  0
 19 28  1  0  0  0  0
 19 20  2  0  0  0  0
 29 32  1  0  0  0  0
  8 11  1  0  0  0  0
 38 39  1  0  0  0  0
 18 21  1  0  0  0  0
 21 22  1  0  0  0  0
 28 29  1  0  0  0  0
  7  8  1  0  0  0  0
 17 18  1  0  0  0  0
  3  4  1  0  0  0  0
  3  5  1  0  0  0  0
  3  6  1  0  0  0  0
 32 35  1  0  0  0  0
 32 36  1  0  0  0  0
 32 37  1  0  0  0  0
 11 14  1  0  0  0  0
 11 15  1  0  0  0  0
 11 16  1  0  0  0  0
 39 41  1  0  0  0  0
 39 42  1  0  0  0  0
 39 43  1  0  0  0  0
 21 25  1  0  0  0  0
 21 26  1  0  0  0  0
 29 34  1  0  0  0  0
  8 13  1  0  0  0  0
 18 24  1  0  0  0  0
 38 40  1  0  0  0  0
  7 12  1  0  0  0  0
 28 33  1  0  0  0  0
 17 23  1  0  0  0  0
 22 27  1  0  0  0  0
M  END
$$$$

  -OEChem-05262214473D

 43 42  0     1  0  0  0  0  0999 V2000
    0.7424   -1.0926    4.5665 C   0  0  0  0  0  0  0  0  0  0  0  0
    0.1409   -0.5364    5.4779 O   0  0  0  0  0  0  0  0  0  0  0  0
    1.7940   -2.1023    4.8871 C   0  0  0  0  0  0  0  0  0  0  0  0
    2.7935   -1.6502    4.9904 H   0  0  0  0  0  0  0  0  0  0  0  0
    1.6064   -2.6156    5.8438 H   0  0  0  0  0  0  0  0  0  0  0  0
    1.9156   -2.9078    4.1453 H   0  0  0  0  0  0  0  0  0  0  0  0
    0.5488   -0.8838    3.2109 N   0  0  0  0  0  0  0  0  0  0  0  0
   -0.4159    0.0446    2.6829 C   0  0  2  0  0  0  0  0  0  0  0  0
   -0.7551   -0.3867    1.2623 C   0  0  0  0  0  0  0  0  0  0  0  0
   -0.0106   -1.0851    0.5774 O   0  0  0  0  0  0  0  0  0  0  0  0
    0.1168    1.4689    2.7060 C   0  0  0  0  0  0  0  0  0  0  0  0
    1.1183   -1.4145    2.5542 H   0  0  0  0  0  0  0  0  0  0  0  0
   -1.3088   -0.0350    3.3125 H   0  0  0  0  0  0  0  0  0  0  0  0
    1.0116    1.5681    2.0808 H   0  0  0  0  0  0  0  0  0  0  0  0
   -0.6289    2.1775    2.3307 H   0  0  0  0  0  0  0  0  0  0  0  0
    0.3882    1.7670    3.7245 H   0  0  0  0  0  0  0  0  0  0  0  0
   -1.9689    0.1350    0.8298 N   0  0  0  0  0  0  0  0  0  0  0  0
   -2.5039   -0.1183   -0.4830 C   0  0  2  0  0  0  0  0  0  0  0  0
   -2.3202    1.1403   -1.3239 C   0  0  0  0  0  0  0  0  0  0  0  0
   -2.0152    2.2293   -0.8420 O   0  0  0  0  0  0  0  0  0  0  0  0
   -3.9638   -0.5563   -0.4227 C   0  0  0  0  0  0  0  0  0  0  0  0
   -4.7780    0.5077    0.0572 O   0  0  0  0  0  0  0  0  0  0  0  0
   -2.5276    0.6894    1.4750 H   0  0  0  0  0  0  0  0  0  0  0  0
   -1.8972   -0.9235   -0.9131 H   0  0  0  0  0  0  0  0  0  0  0  0
   -4.0906   -1.4106    0.2499 H   0  0  0  0  0  0  0  0  0  0  0  0
   -4.3230   -0.8371   -1.4185 H   0  0  0  0  0  0  0  0  0  0  0  0
   -4.6696    1.2438   -0.5657 H   0  0  0  0  0  0  0  0  0  0  0  0
   -2.4946    0.8935   -2.6783 N   0  0  0  0  0  0  0  0  0  0  0  0
   -2.3437    1.9174   -3.6859 C   0  0  2  0  0  0  0  0  0  0  0  0
   -1.2503    2.8725   -3.2258 C   0  0  0  0  0  0  0  0  0  0  0  0
   -0.9209    2.9977   -2.0481 O   0  0  0  0  0  0  0  0  0  0  0  0
   -3.6502    2.6595   -3.9208 C   0  0  0  0  0  0  0  0  0  0  0  0
   -2.7068   -0.0494   -2.9907 H   0  0  0  0  0  0  0  0  0  0  0  0
   -2.0256    1.4126   -4.6046 H   0  0  0  0  0  0  0  0  0  0  0  0
   -3.9847    3.1716   -3.0112 H   0  0  0  0  0  0  0  0  0  0  0  0
   -3.5414    3.4160   -4.7050 H   0  0  0  0  0  0  0  0  0  0  0  0
   -4.4430    1.9667   -4.2229 H   0  0  0  0  0  0  0  0  0  0  0  0
   -0.7153    3.6001   -4.2796 N   0  0  0  0  0  0  0  0  0  0  0  0
    0.3286    4.5816   -4.0988 C   0  0  0  0  0  0  0  0  0  0  0  0
   -1.0354    3.4175   -5.2262 H   0  0  0  0  0  0  0  0  0  0  0  0
   -0.1220    5.5746   -3.9542 H   0  0  0  0  0  0  0  0  0  0  0  0
    0.9292    4.3194   -3.2153 H   0  0  0  0  0  0  0  0  0  0  0  0
    0.9743    4.5983   -4.9893 H   0  0  0  0  0  0  0  0  0  0  0  0
  1  3  1  0  0  0  0
  1  7  1  0  0  0  0
  1  2  2  0  0  0  0
 29 30  1  0  0  0  0
 30 38  1  0  0  0  0
 30 31  2  0  0  0  0
  8  9  1  0  0  0  0
  9 17  1  0  0  0  0
  9 10  2  0  0  0  0
 18 19  1  0  0  0  0
 19 28  1  0  0  0  0
 19 20  2  0  0  0  0
 29 32  1  0  0  0  0
  8 11  1  0  0  0  0
 38 39  1  0  0  0  0
 18 21  1  0  0  0  0
 21 22  1  0  0  0  0
 28 29  1  0  0  0  0
  7  8  1  0  0  0  0
 17 18  1  0  0  0  0
  3  4  1  0  0  0  0
  3  5  1  0  0  0  0
  3  6  1  0  0  0  0
 32 35  1  0  0  0  0
 32 36  1  0  0  0  0
 32 37  1  0  0  0  0
 11 14  1  0  0  0  0
 11 15  1  0  0  0  0
 11 16  1  0  0  0  0
 39 41  1  0  0  0  0
 39 42  1  0  0  0  0
 39 43  1  0  0  0  0
 21 25  1  0  0  0  0
 21 26  1  0  0  0  0
 29 34  1  0  0  0  0
  8 13  1  0  0  0  0
 18 24  1  0  0  0  0
 38 40  1  0  0  0  0
  7 12  1  0  0  0  0
 28 33  1  0  0  0  0
 17 23  1  0  0  0  0
 22 27  1  0  0  0  0
M  END
$$$$

  -OEChem-05262214473D

 43 42  0     1  0  0  0  0  0999 V2000
    0.7424   -1.0926    4.5665 C   0  0  0  0  0  0  0  0  0  0  0  0
    0.1409   -0.5364    5.4779 O   0  0  0  0  0  0  0  0  0  0  0  0
    1.7940   -2.1023    4.8871 C   0  0  0  0  0  0  0  0  0  0  0  0
    2.7935   -1.6502    4.9904 H   0  0  0  0  0  0  0  0  0  0  0  0
    1.6064   -2.6156    5.8438 H   0  0  0  0  0  0  0  0  0  0  0  0
    1.9156   -2.9078    4.1453 H   0  0  0  0  0  0  0  0  0  0  0  0
    0.5488   -0.8838    3.2109 N   0  0  0  0  0  0  0  0  0  0  0  0
   -0.4159    0.0446    2.6829 C   0  0  2  0  0  0  0  0  0  0  0  0
   -0.7551   -0.3867    1.2623 C   0  0  0  0  0  0  0  0  0  0  0  0
   -0.0106   -1.0851    0.5774 O   0  0  0  0  0  0  0  0  0  0  0  0
    0.1168    1.4689    2.7060 C   0  0  0  0  0  0  0  0  0  0  0  0
    1.1183   -1.4145    2.5542 H   0  0  0  0  0  0  0  0  0  0  0  0
   -1.3088   -0.0350    3.3125 H   0  0  0  0  0  0  0  0  0  0  0  0
    1.0116    1.5681    2.0808 H   0  0  0  0  0  0  0  0  0  0  0  0
   -0.6289    2.1775    2.3307 H   0  0  0  0  0  0  0  0  0  0  0  0
    0.3882    1.7670    3.7245 H   0  0  0  0  0  0  0  0  0  0  0  0
   -1.9689    0.1350    0.8298 N   0  0  0  0  0  0  0  0  0  0  0  0
   -2.5039   -0.1183   -0.4830 C   0  0  2  0  0  0  0  0  0  0  0  0
   -1.9972    0.9703   -1.4227 C   0  0  0  0  0  0  0  0  0  0  0  0
   -1.2311    1.8621   -1.0636 O   0  0  0  0  0  0  0  0  0  0  0  0
   -4.0272   -0.1945   -0.4667 C   0  0  0  0  0  0  0  0  0  0  0  0
   -4.5805    1.0734   -0.1325 O   0  0  0  0  0  0  0  0  0  0  0  0
   -2.5276    0.6894    1.4750 H   0  0  0  0  0  0  0  0  0  0  0  0
   -2.0922   -1.0824   -0.8030 H   0  0  0  0  0  0  0  0  0  0  0  0
   -4.3767   -0.9226    0.2724 H   0  0  0  0  0  0  0  0  0  0  0  0
   -4.4089   -0.4833   -1.4517 H   0  0  0  0  0  0  0  0  0  0  0  0
   -4.2788    1.6966   -0.8124 H   0  0  0  0  0  0  0  0  0  0  0  0
   -2.4672    0.8028   -2.7176 N   0  0  0  0  0  0  0  0  0  0  0  0
   -2.1057    1.6864   -3.8016 C   0  0  2  0  0  0  0  0  0  0  0  0
   -0.6744    2.1527   -3.5709 C   0  0  0  0  0  0  0  0  0  0  0  0
   -0.1373    2.1478   -2.4651 O   0  0  0  0  0  0  0  0  0  0  0  0
   -3.0556    2.8707   -3.8903 C   0  0  0  0  0  0  0  0  0  0  0  0
   -3.0664    0.0113   -2.9327 H   0  0  0  0  0  0  0  0  0  0  0  0
   -2.1536    1.0940   -4.7219 H   0  0  0  0  0  0  0  0  0  0  0  0
   -3.0215    3.4761   -2.9772 H   0  0  0  0  0  0  0  0  0  0  0  0
   -2.7974    3.5244   -4.7300 H   0  0  0  0  0  0  0  0  0  0  0  0
   -4.0885    2.5325   -4.0265 H   0  0  0  0  0  0  0  0  0  0  0  0
   -0.0817    2.6153   -4.7374 N   0  0  0  0  0  0  0  0  0  0  0  0
    1.2696    3.1237   -4.7769 C   0  0  0  0  0  0  0  0  0  0  0  0
   -0.5948    2.5646   -5.6126 H   0  0  0  0  0  0  0  0  0  0  0  0
    1.2560    4.2142   -4.6332 H   0  0  0  0  0  0  0  0  0  0  0  0
    1.8607    2.6558   -3.9758 H   0  0  0  0  0  0  0  0  0  0  0  0
    1.7216    2.8880   -5.7516 H   0  0  0  0  0  0  0  0  0  0  0  0
  1  3  1  0  0  0  0
  1  7  1  0  0  0  0
  1  2  2  0  0  0  0
 29 30  1  0  0  0  0
 30 38  1  0  0  0  0
 30 31  2  0  0  0  0
  8  9  1  0  0  0  0
  9 17  1  0  0  0  0
  9 10  2  0  0  0  0
 18 19  1  0  0  0  0
 19 28  1  0  0  0  0
 19 20  2  0  0  0  0
 29 32  1  0  0  0  0
  8 11  1  0  0  0  0
 38 39  1  0  0  0  0
 18 21  1  0  0  0  0
 21 22  1  0  0  0  0
 28 29  1  0  0  0  0
  7  8  1  0  0  0  0
 17 18  1  0  0  0  0
  3  4  1  0  0  0  0
  3  5  1  0  0  0  0
  3  6  1  0  0  0  0
 32 35  1  0  0  0  0
 32 36  1  0  0  0  0
 32 37  1  0  0  0  0
 11 14  1  0  0  0  0
 11 15  1  0  0  0  0
 11 16  1  0  0  0  0
 39 41  1  0  0  0  0
 39 42  1  0  0  0  0
 39 43  1  0  0  0  0
 21 25  1  0  0  0  0
 21 26  1  0  0  0  0
 29 34  1  0  0  0  0
  8 13  1  0  0  0  0
 18 24  1  0  0  0  0
 38 40  1  0  0  0  0
  7 12  1  0  0  0  0
 28 33  1  0  0  0  0
 17 23  1  0  0  0  0
 22 27  1  0  0  0  0
M  END
$$$$

  -OEChem-05262214473D

 43 42  0     1  0  0  0  0  0999 V2000
    0.7424   -1.0926    4.5665 C   0  0  0  0  0  0  0  0  0  0  0  0
    0.1409   -0.5364    5.4779 O   0  0  0  0  0  0  0  0  0  0  0  0
    1.7940   -2.1023    4.8871 C   0  0  0  0  0  0  0  0  0  0  0  0
    2.7935   -1.6502    4.9904 H   0  0  0  0  0  0  0  0  0  0  0  0
    1.6064   -2.6156    5.8438 H   0  0  0  0  0  0  0  0  0  0  0  0
    1.9156   -2.9078    4.1453 H   0  0  0  0  0  0  0  0  0  0  0  0
    0.5488   -0.8838    3.2109 N   0  0  0  0  0  0  0  0  0  0  0  0
   -0.4159    0.0446    2.6829 C   0  0  2  0  0  0  0  0  0  0  0  0
   -0.7551   -0.3867    1.2623 C   0  0  0  0  0  0  0  0  0  0  0  0
   -0.0106   -1.0851    0.5774 O   0  0  0  0  0  0  0  0  0  0  0  0
    0.1168    1.4689    2.7060 C   0  0  0  0  0  0  0  0  0  0  0  0
    1.1183   -1.4145    2.5542 H   0  0  0  0  0  0  0  0  0  0  0  0
   -1.3088   -0.0350    3.3125 H   0  0  0  0  0  0  0  0  0  0  0  0
    1.0116    1.5681    2.0808 H   0  0  0  0  0  0  0  0  0  0  0  0
   -0.6289    2.1775    2.3307 H   0  0  0  0  0  0  0  0  0  0  0  0
    0.3882    1.7670    3.7245 H   0  0  0  0  0  0  0  0  0  0  0  0
   -1.9689    0.1350    0.8298 N   0  0  0  0  0  0  0  0  0  0  0  0
   -2.5039   -0.1183   -0.4830 C   0  0  2  0  0  0  0  0  0  0  0  0
   -1.9972    0.9703   -1.4227 C   0  0  0  0  0  0  0  0  0  0  0  0
   -1.0410    1.6949   -1.1547 O   0  0  0  0  0  0  0  0  0  0  0  0
   -4.0272   -0.1945   -0.4667 C   0  0  0  0  0  0  0  0  0  0  0  0
   -4.5805    1.0734   -0.1325 O   0  0  0  0  0  0  0  0  0  0  0  0
   -2.5276    0.6894    1.4750 H   0  0  0  0  0  0  0  0  0  0  0  0
   -2.0922   -1.0824   -0.8030 H   0  0  0  0  0  0  0  0  0  0  0  0
   -4.3767   -0.9226    0.2724 H   0  0  0  0  0  0  0  0  0  0  0  0
   -4.4089   -0.4833   -1.4517 H   0  0  0  0  0  0  0  0  0  0  0  0
   -4.2788    1.6966   -0.8124 H   0  0  0  0  0  0  0  0  0  0  0  0
   -2.7113    1.0075   -2.6120 N   0  0  0  0  0  0  0  0  0  0  0  0
   -2.4054    1.9311   -3.6797 C   0  0  2  0  0  0  0  0  0  0  0  0
   -0.8983    2.1496   -3.6952 C   0  0  0  0  0  0  0  0  0  0  0  0
   -0.1817    1.9518   -2.7162 O   0  0  0  0  0  0  0  0  0  0  0  0
   -3.1438    3.2484   -3.5003 C   0  0  0  0  0  0  0  0  0  0  0  0
   -3.4632    0.3418   -2.7639 H   0  0  0  0  0  0  0  0  0  0  0  0
   -2.7148    1.4489   -4.6134 H   0  0  0  0  0  0  0  0  0  0  0  0
   -2.8469    3.7463   -2.5700 H   0  0  0  0  0  0  0  0  0  0  0  0
   -2.9332    3.9369   -4.3253 H   0  0  0  0  0  0  0  0  0  0  0  0
   -4.2263    3.0861   -3.4595 H   0  0  0  0  0  0  0  0  0  0  0  0
   -0.4535    2.6326   -4.9179 N   0  0  0  0  0  0  0  0  0  0  0  0
    0.9350    2.9318   -5.1795 C   0  0  0  0  0  0  0  0  0  0  0  0
   -1.1151    2.7488   -5.6798 H   0  0  0  0  0  0  0  0  0  0  0  0
    1.1302    3.9916   -4.9589 H   0  0  0  0  0  0  0  0  0  0  0  0
    1.5723    2.3013   -4.5420 H   0  0  0  0  0  0  0  0  0  0  0  0
    1.1605    2.7300   -6.2371 H   0  0  0  0  0  0  0  0  0  0  0  0
  1  3  1  0  0  0  0
  1  7  1  0  0  0  0
  1  2  2  0  0  0  0
 29 30  1  0  0  0  0
 30 38  1  0  0  0  0
 30 31  2  0  0  0  0
  8  9  1  0  0  0  0
  9 17  1  0  0  0  0
  9 10  2  0  0  0  0
 18 19  1  0  0  0  0
 19 28  1  0  0  0  0
 19 20  2  0  0  0  0
 29 32  1  0  0  0  0
  8 11  1  0  0  0  0
 38 39  1  0  0  0  0
 18 21  1  0  0  0  0
 21 22  1  0  0  0  0
 28 29  1  0  0  0  0
  7  8  1  0  0  0  0
 17 18  1  0  0  0  0
  3  4  1  0  0  0  0
  3  5  1  0  0  0  0
  3  6  1  0  0  0  0
 32 35  1  0  0  0  0
 32 36  1  0  0  0  0
 32 37  1  0  0  0  0
 11 14  1  0  0  0  0
 11 15  1  0  0  0  0
 11 16  1  0  0  0  0
 39 41  1  0  0  0  0
 39 42  1  0  0  0  0
 39 43  1  0  0  0  0
 21 25  1  0  0  0  0
 21 26  1  0  0  0  0
 29 34  1  0  0  0  0
  8 13  1  0  0  0  0
 18 24  1  0  0  0  0
 38 40  1  0  0  0  0
  7 12  1  0  0  0  0
 28 33  1  0  0  0  0
 17 23  1  0  0  0  0
 22 27  1  0  0  0  0
M  END
$$$$

  -OEChem-05262214473D

 43 42  0     1  0  0  0  0  0999 V2000
    0.7424   -1.0926    4.5665 C   0  0  0  0  0  0  0  0  0  0  0  0
    0.1409   -0.5364    5.4779 O   0  0  0  0  0  0  0  0  0  0  0  0
    1.7940   -2.1023    4.8871 C   0  0  0  0  0  0  0  0  0  0  0  0
    2.7935   -1.6502    4.9904 H   0  0  0  0  0  0  0  0  0  0  0  0
    1.6064   -2.6156    5.8438 H   0  0  0  0  0  0  0  0  0  0  0  0
    1.9156   -2.9078    4.1453 H   0  0  0  0  0  0  0  0  0  0  0  0
    0.5488   -0.8838    3.2109 N   0  0  0  0  0  0  0  0  0  0  0  0
   -0.4159    0.0446    2.6829 C   0  0  2  0  0  0  0  0  0  0  0  0
   -0.7551   -0.3867    1.2623 C   0  0  0  0  0  0  0  0  0  0  0  0
   -0.0106   -1.0851    0.5774 O   0  0  0  0  0  0  0  0  0  0  0  0
    0.1168    1.4689    2.7060 C   0  0  0  0  0  0  0  0  0  0  0  0
    1.1183   -1.4145    2.5542 H   0  0  0  0  0  0  0  0  0  0  0  0
   -1.3088   -0.0350    3.3125 H   0  0  0  0  0  0  0  0  0  0  0  0
    1.0116    1.5681    2.0808 H   0  0  0  0  0  0  0  0  0  0  0  0
   -0.6289    2.1775    2.3307 H   0  0  0  0  0  0  0  0  0  0  0  0
    0.3882    1.7670    3.7245 H   0  0  0  0  0  0  0  0  0  0  0  0
   -1.9689    0.1350    0.8298 N   0  0  0  0  0  0  0  0  0  0  0  0
   -2.5039   -0.1183   -0.4830 C   0  0  2  0  0  0  0  0  0  0  0  0
   -1.9972    0.9703   -1.4227 C   0  0  0  0  0  0  0  0  0  0  0  0
   -0.9009    1.5109   -1.2923 O   0  0  0  0  0  0  0  0  0  0  0  0
   -4.0272   -0.1945   -0.4667 C   0  0  0  0  0  0  0  0  0  0  0  0
   -4.5805    1.0734   -0.1325 O   0  0  0  0  0  0  0  0  0  0  0  0
   -2.5276    0.6894    1.4750 H   0  0  0  0  0  0  0  0  0  0  0  0
   -2.0922   -1.0824   -0.8030 H   0  0  0  0  0  0  0  0  0  0  0  0
   -4.3767   -0.9226    0.2724 H   0  0  0  0  0  0  0  0  0  0  0  0
   -4.4089   -0.4833   -1.4517 H   0  0  0  0  0  0  0  0  0  0  0  0
   -4.2788    1.6966   -0.8124 H   0  0  0  0  0  0  0  0  0  0  0  0
   -2.8949    1.2352   -2.4473 N   0  0  0  0  0  0  0  0  0  0  0  0
   -2.6334    2.2048   -3.4855 C   0  0  2  0  0  0  0  0  0  0  0  0
   -1.1380    2.1930   -3.7742 C   0  0  0  0  0  0  0  0  0  0  0  0
   -0.3023    1.7911   -2.9673 O   0  0  0  0  0  0  0  0  0  0  0  0
   -3.0967    3.5938   -3.0747 C   0  0  0  0  0  0  0  0  0  0  0  0
   -3.7626    0.7097   -2.4990 H   0  0  0  0  0  0  0  0  0  0  0  0
   -3.1802    1.8718   -4.3744 H   0  0  0  0  0  0  0  0  0  0  0  0
   -2.5599    3.9445   -2.1857 H   0  0  0  0  0  0  0  0  0  0  0  0
   -2.9238    4.3222   -3.8738 H   0  0  0  0  0  0  0  0  0  0  0  0
   -4.1663    3.5940   -2.8387 H   0  0  0  0  0  0  0  0  0  0  0  0
   -0.8432    2.7241   -5.0220 N   0  0  0  0  0  0  0  0  0  0  0  0
    0.5069    2.8344   -5.5232 C   0  0  0  0  0  0  0  0  0  0  0  0
   -1.6007    3.0155   -5.6327 H   0  0  0  0  0  0  0  0  0  0  0  0
    0.9129    3.8247   -5.2693 H   0  0  0  0  0  0  0  0  0  0  0  0
    1.1325    2.0536   -5.0661 H   0  0  0  0  0  0  0  0  0  0  0  0
    0.5036    2.7087   -6.6160 H   0  0  0  0  0  0  0  0  0  0  0  0
  1  3  1  0  0  0  0
  1  7  1  0  0  0  0
  1  2  2  0  0  0  0
 29 30  1  0  0  0  0
 30 38  1  0  0  0  0
 30 31  2  0  0  0  0
  8  9  1  0  0  0  0
  9 17  1  0  0  0  0
  9 10  2  0  0  0  0
 18 19  1  0  0  0  0
 19 28  1  0  0  0  0
 19 20  2  0  0  0  0
 29 32  1  0  0  0  0
  8 11  1  0  0  0  0
 38 39  1  0  0  0  0
 18 21  1  0  0  0  0
 21 22  1  0  0  0  0
 28 29  1  0  0  0  0
  7  8  1  0  0  0  0
 17 18  1  0  0  0  0
  3  4  1  0  0  0  0
  3  5  1  0  0  0  0
  3  6  1  0  0  0  0
 32 35  1  0  0  0  0
 32 36  1  0  0  0  0
 32 37  1  0  0  0  0
 11 14  1  0  0  0  0
 11 15  1  0  0  0  0
 11 16  1  0  0  0  0
 39 41  1  0  0  0  0
 39 42  1  0  0  0  0
 39 43  1  0  0  0  0
 21 25  1  0  0  0  0
 21 26  1  0  0  0  0
 29 34  1  0  0  0  0
  8 13  1  0  0  0  0
 18 24  1  0  0  0  0
 38 40  1  0  0  0  0
  7 12  1  0  0  0  0
 28 33  1  0  0  0  0
 17 23  1  0  0  0  0
 22 27  1  0  0  0  0
M  END
$$$$

  -OEChem-05262214473D

 43 42  0     1  0  0  0  0  0999 V2000
    0.7424   -1.0926    4.5665 C   0  0  0  0  0  0  0  0  0  0  0  0
    0.1409   -0.5364    5.4779 O   0  0  0  0  0  0  0  0  0  0  0  0
    1.7940   -2.1023    4.8871 C   0  0  0  0  0  0  0  0  0  0  0  0
    2.7935   -1.6502    4.9904 H   0  0  0  0  0  0  0  0  0  0  0  0
    1.6064   -2.6156    5.8438 H   0  0  0  0  0  0  0  0  0  0  0  0
    1.9156   -2.9078    4.1453 H   0  0  0  0  0  0  0  0  0  0  0  0
    0.5488   -0.8838    3.2109 N   0  0  0  0  0  0  0  0  0  0  0  0
   -0.4159    0.0446    2.6829 C   0  0  2  0  0  0  0  0  0  0  0  0
   -0.7551   -0.3867    1.2623 C   0  0  0  0  0  0  0  0  0  0  0  0
   -0.0106   -1.0851    0.5774 O   0  0  0  0  0  0  0  0  0  0  0  0
    0.1168    1.4689    2.7060 C   0  0  0  0  0  0  0  0  0  0  0  0
    1.1183   -1.4145    2.5542 H   0  0  0  0  0  0  0  0  0  0  0  0
   -1.3088   -0.0350    3.3125 H   0  0  0  0  0  0  0  0  0  0  0  0
    1.0116    1.5681    2.0808 H   0  0  0  0  0  0  0  0  0  0  0  0
   -0.6289    2.1775    2.3307 H   0  0  0  0  0  0  0  0  0  0  0  0
    0.3882    1.7670    3.7245 H   0  0  0  0  0  0  0  0  0  0  0  0
   -1.9689    0.1350    0.8298 N   0  0  0  0  0  0  0  0  0  0  0  0
   -2.5039   -0.1183   -0.4830 C   0  0  2  0  0  0  0  0  0  0  0  0
   -1.9972    0.9703   -1.4227 C   0  0  0  0  0  0  0  0  0  0  0  0
   -0.8204    1.3227   -1.4669 O   0  0  0  0  0  0  0  0  0  0  0  0
   -4.0272   -0.1945   -0.4667 C   0  0  0  0  0  0  0  0  0  0  0  0
   -4.5805    1.0734   -0.1325 O   0  0  0  0  0  0  0  0  0  0  0  0
   -2.5276    0.6894    1.4750 H   0  0  0  0  0  0  0  0  0  0  0  0
   -2.0922   -1.0824   -0.8030 H   0  0  0  0  0  0  0  0  0  0  0  0
   -4.3767   -0.9226    0.2724 H   0  0  0  0  0  0  0  0  0  0  0  0
   -4.4089   -0.4833   -1.4517 H   0  0  0  0  0  0  0  0  0  0  0  0
   -4.2788    1.6966   -0.8124 H   0  0  0  0  0  0  0  0  0  0  0  0
   -3.0055    1.4701   -2.2347 N   0  0  0  0  0  0  0  0  0  0  0  0
   -2.7740    2.4889   -3.2322 C   0  0  2  0  0  0  0  0  0  0  0  0
   -1.3773    2.2800   -3.8024 C   0  0  0  0  0  0  0  0  0  0  0  0
   -0.4907    1.6767   -3.2014 O   0  0  0  0  0  0  0  0  0  0  0  0
   -2.9174    3.8834   -2.6427 C   0  0  0  0  0  0  0  0  0  0  0  0
   -3.9442    1.0901   -2.1562 H   0  0  0  0  0  0  0  0  0  0  0  0
   -3.5181    2.3339   -4.0211 H   0  0  0  0  0  0  0  0  0  0  0  0
   -2.1801    4.0570   -1.8504 H   0  0  0  0  0  0  0  0  0  0  0  0
   -2.7698    4.6541   -3.4063 H   0  0  0  0  0  0  0  0  0  0  0  0
   -3.9126    4.0216   -2.2065 H   0  0  0  0  0  0  0  0  0  0  0  0
   -1.2243    2.8836   -5.0427 N   0  0  0  0  0  0  0  0  0  0  0  0
    0.0143    2.8383   -5.7843 C   0  0  0  0  0  0  0  0  0  0  0  0
   -2.0186    3.3465   -5.4745 H   0  0  0  0  0  0  0  0  0  0  0  0
    0.6191    3.7249   -5.5434 H   0  0  0  0  0  0  0  0  0  0  0  0
    0.5713    1.9296   -5.5124 H   0  0  0  0  0  0  0  0  0  0  0  0
   -0.2043    2.8255   -6.8623 H   0  0  0  0  0  0  0  0  0  0  0  0
  1  3  1  0  0  0  0
  1  7  1  0  0  0  0
  1  2  2  0  0  0  0
 29 30  1  0  0  0  0
 30 38  1  0  0  0  0
 30 31  2  0  0  0  0
  8  9  1  0  0  0  0
  9 17  1  0  0  0  0
  9 10  2  0  0  0  0
 18 19  1  0  0  0  0
 19 28  1  0  0  0  0
 19 20  2  0  0  0  0
 29 32  1  0  0  0  0
  8 11  1  0  0  0  0
 38 39  1  0  0  0  0
 18 21  1  0  0  0  0
 21 22  1  0  0  0  0
 28 29  1  0  0  0  0
  7  8  1  0  0  0  0
 17 18  1  0  0  0  0
  3  4  1  0  0  0  0
  3  5  1  0  0  0  0
  3  6  1  0  0  0  0
 32 35  1  0  0  0  0
 32 36  1  0  0  0  0
 32 37  1  0  0  0  0
 11 14  1  0  0  0  0
 11 15  1  0  0  0  0
 11 16  1  0  0  0  0
 39 41  1  0  0  0  0
 39 42  1  0  0  0  0
 39 43  1  0  0  0  0
 21 25  1  0  0  0  0
 21 26  1  0  0  0  0
 29 34  1  0  0  0  0
  8 13  1  0  0  0  0
 18 24  1  0  0  0  0
 38 40  1  0  0  0  0
  7 12  1  0  0  0  0
 28 33  1  0  0  0  0
 17 23  1  0  0  0  0
 22 27  1  0  0  0  0
M  END
$$$$

  -OEChem-05262214473D

 43 42  0     1  0  0  0  0  0999 V2000
    0.7424   -1.0926    4.5665 C   0  0  0  0  0  0  0  0  0  0  0  0
    0.1409   -0.5364    5.4779 O   0  0  0  0  0  0  0  0  0  0  0  0
    1.7940   -2.1023    4.8871 C   0  0  0  0  0  0  0  0  0  0  0  0
    2.7935   -1.6502    4.9904 H   0  0  0  0  0  0  0  0  0  0  0  0
    1.6064   -2.6156    5.8438 H   0  0  0  0  0  0  0  0  0  0  0  0
    1.9156   -2.9078    4.1453 H   0  0  0  0  0  0  0  0  0  0  0  0
    0.5488   -0.8838    3.2109 N   0  0  0  0  0  0  0  0  0  0  0  0
   -0.4159    0.0446    2.6829 C   0  0  2  0  0  0  0  0  0  0  0  0
   -0.7551   -0.3867    1.2623 C   0  0  0  0  0  0  0  0  0  0  0  0
   -0.0106   -1.0851    0.5774 O   0  0  0  0  0  0  0  0  0  0  0  0
    0.1168    1.4689    2.7060 C   0  0  0  0  0  0  0  0  0  0  0  0
    1.1183   -1.4145    2.5542 H   0  0  0  0  0  0  0  0  0  0  0  0
   -1.3088   -0.0350    3.3125 H   0  0  0  0  0  0  0  0  0  0  0  0
    1.0116    1.5681    2.0808 H   0  0  0  0  0  0  0  0  0  0  0  0
   -0.6289    2.1775    2.3307 H   0  0  0  0  0  0  0  0  0  0  0  0
    0.3882    1.7670    3.7245 H   0  0  0  0  0  0  0  0  0  0  0  0
   -1.9689    0.1350    0.8298 N   0  0  0  0  0  0  0  0  0  0  0  0
   -2.5039   -0.1183   -0.4830 C   0  0  2  0  0  0  0  0  0  0  0  0
   -1.9972    0.9703   -1.4227 C   0  0  0  0  0  0  0  0  0  0  0  0
   -0.8048    1.1431   -1.6667 O   0  0  0  0  0  0  0  0  0  0  0  0
   -4.0272   -0.1945   -0.4667 C   0  0  0  0  0  0  0  0  0  0  0  0
   -4.5805    1.0734   -0.1325 O   0  0  0  0  0  0  0  0  0  0  0  0
   -2.5276    0.6894    1.4750 H   0  0  0  0  0  0  0  0  0  0  0  0
   -2.0922   -1.0824   -0.8030 H   0  0  0  0  0  0  0  0  0  0  0  0
   -4.3767   -0.9226    0.2724 H   0  0  0  0  0  0  0  0  0  0  0  0
   -4.4089   -0.4833   -1.4517 H   0  0  0  0  0  0  0  0  0  0  0  0
   -4.2788    1.6966   -0.8124 H   0  0  0  0  0  0  0  0  0  0  0  0
   -3.0355    1.6965   -1.9887 N   0  0  0  0  0  0  0  0  0  0  0  0
   -2.8177    2.7639   -2.9372 C   0  0  2  0  0  0  0  0  0  0  0  0
   -1.5997    2.4046   -3.7780 C   0  0  0  0  0  0  0  0  0  0  0  0
   -0.7343    1.6165   -3.4025 O   0  0  0  0  0  0  0  0  0  0  0  0
   -2.6182    4.0972   -2.2336 C   0  0  0  0  0  0  0  0  0  0  0  0
   -3.9955    1.4570   -1.7589 H   0  0  0  0  0  0  0  0  0  0  0  0
   -3.7055    2.8039   -3.5777 H   0  0  0  0  0  0  0  0  0  0  0  0
   -1.7333    4.0764   -1.5871 H   0  0  0  0  0  0  0  0  0  0  0  0
   -2.4817    4.9099   -2.9547 H   0  0  0  0  0  0  0  0  0  0  0  0
   -3.4826    4.3399   -1.6060 H   0  0  0  0  0  0  0  0  0  0  0  0
   -1.5707    3.1002   -4.9786 N   0  0  0  0  0  0  0  0  0  0  0  0
   -0.5092    2.9430   -5.9453 C   0  0  0  0  0  0  0  0  0  0  0  0
   -2.3402    3.7193   -5.2161 H   0  0  0  0  0  0  0  0  0  0  0  0
    0.2688    3.6989   -5.7625 H   0  0  0  0  0  0  0  0  0  0  0  0
   -0.0730    1.9377   -5.8504 H   0  0  0  0  0  0  0  0  0  0  0  0
   -0.9149    3.0724   -6.9595 H   0  0  0  0  0  0  0  0  0  0  0  0
  1  3  1  0  0  0  0
  1  7  1  0  0  0  0
  1  2  2  0  0  0  0
 29 30  1  0  0  0  0
 30 38  1  0  0  0  0
 30 31  2  0  0  0  0
  8  9  1  0  0  0  0
  9 17  1  0  0  0  0
  9 10  2  0  0  0  0
 18 19  1  0  0  0  0
 19 28  1  0  0  0  0
 19 20  2  0  0  0  0
 29 32  1  0  0  0  0
  8 11  1  0  0  0  0
 38 39  1  0  0  0  0
 18 21  1  0  0  0  0
 21 22  1  0  0  0  0
 28 29  1  0  0  0  0
  7  8  1  0  0  0  0
 17 18  1  0  0  0  0
  3  4  1  0  0  0  0
  3  5  1  0  0  0  0
  3  6  1  0  0  0  0
 32 35  1  0  0  0  0
 32 36  1  0  0  0  0
 32 37  1  0  0  0  0
 11 14  1  0  0  0  0
 11 15  1  0  0  0  0
 11 16  1  0  0  0  0
 39 41  1  0  0  0  0
 39 42  1  0  0  0  0
 39 43  1  0  0  0  0
 21 25  1  0  0  0  0
 21 26  1  0  0  0  0
 29 34  1  0  0  0  0
  8 13  1  0  0  0  0
 18 24  1  0  0  0  0
 38 40  1  0  0  0  0
  7 12  1  0  0  0  0
 28 33  1  0  0  0  0
 17 23  1  0  0  0  0
 22 27  1  0  0  0  0
M  END
$$$$

  -OEChem-05262214473D

 43 42  0     1  0  0  0  0  0999 V2000
    0.7424   -1.0926    4.5665 C   0  0  0  0  0  0  0  0  0  0  0  0
    0.1409   -0.5364    5.4779 O   0  0  0  0  0  0  0  0  0  0  0  0
    1.7940   -2.1023    4.8871 C   0  0  0  0  0  0  0  0  0  0  0  0
    2.7935   -1.6502    4.9904 H   0  0  0  0  0  0  0  0  0  0  0  0
    1.6064   -2.6156    5.8438 H   0  0  0  0  0  0  0  0  0  0  0  0
    1.9156   -2.9078    4.1453 H   0  0  0  0  0  0  0  0  0  0  0  0
    0.5488   -0.8838    3.2109 N   0  0  0  0  0  0  0  0  0  0  0  0
   -0.4159    0.0446    2.6829 C   0  0  2  0  0  0  0  0  0  0  0  0
   -0.7551   -0.3867    1.2623 C   0  0  0  0  0  0  0  0  0  0  0  0
   -0.0106   -1.0851    0.5774 O   0  0  0  0  0  0  0  0  0  0  0  0
    0.1168    1.4689    2.7060 C   0  0  0  0  0  0  0  0  0  0  0  0
    1.1183   -1.4145    2.5542 H   0  0  0  0  0  0  0  0  0  0  0  0
   -1.3088   -0.0350    3.3125 H   0  0  0  0  0  0  0  0  0  0  0  0
    1.0116    1.5681    2.0808 H   0  0  0  0  0  0  0  0  0  0  0  0
   -0.6289    2.1775    2.3307 H   0  0  0  0  0  0  0  0  0  0  0  0
    0.3882    1.7670    3.7245 H   0  0  0  0  0  0  0  0  0  0  0  0
   -1.9689    0.1350    0.8298 N   0  0  0  0  0  0  0  0  0  0  0  0
   -2.5039   -0.1183   -0.4830 C   0  0  2  0  0  0  0  0  0  0  0  0
   -1.9972    0.9703   -1.4227 C   0  0  0  0  0  0  0  0  0  0  0  0
   -0.8554    0.9843   -1.8779 O   0  0  0  0  0  0  0  0  0  0  0  0
   -4.0272   -0.1945   -0.4667 C   0  0  0  0  0  0  0  0  0  0  0  0
   -4.5805    1.0734   -0.1325 O   0  0  0  0  0  0  0  0  0  0  0  0
   -2.5276    0.6894    1.4750 H   0  0  0  0  0  0  0  0  0  0  0  0
   -2.0922   -1.0824   -0.8030 H   0  0  0  0  0  0  0  0  0  0  0  0
   -4.3767   -0.9226    0.2724 H   0  0  0  0  0  0  0  0  0  0  0  0
   -4.4089   -0.4833   -1.4517 H   0  0  0  0  0  0  0  0  0  0  0  0
   -4.2788    1.6966   -0.8124 H   0  0  0  0  0  0  0  0  0  0  0  0
   -2.9830    1.8987   -1.7260 N   0  0  0  0  0  0  0  0  0  0  0  0
   -2.7615    3.0111   -2.6205 C   0  0  2  0  0  0  0  0  0  0  0  0
   -1.7902    2.5583   -3.7026 C   0  0  0  0  0  0  0  0  0  0  0  0
   -1.0163    1.6144   -3.5570 O   0  0  0  0  0  0  0  0  0  0  0  0
   -2.2195    4.2209   -1.8753 C   0  0  0  0  0  0  0  0  0  0  0  0
   -3.9131    1.7854   -1.3340 H   0  0  0  0  0  0  0  0  0  0  0  0
   -3.7296    3.2496   -3.0744 H   0  0  0  0  0  0  0  0  0  0  0  0
   -1.2499    4.0011   -1.4137 H   0  0  0  0  0  0  0  0  0  0  0  0
   -2.0792    5.0722   -2.5496 H   0  0  0  0  0  0  0  0  0  0  0  0
   -2.9054    4.5270   -1.0780 H   0  0  0  0  0  0  0  0  0  0  0  0
   -1.8590    3.3592   -4.8340 N   0  0  0  0  0  0  0  0  0  0  0  0
   -1.0279    3.1415   -5.9950 C   0  0  0  0  0  0  0  0  0  0  0  0
   -2.5436    4.1084   -4.8749 H   0  0  0  0  0  0  0  0  0  0  0  0
   -0.1143    3.7485   -5.9115 H   0  0  0  0  0  0  0  0  0  0  0  0
   -0.7565    2.0773   -6.0571 H   0  0  0  0  0  0  0  0  0  0  0  0
   -1.5799    3.4326   -6.9007 H   0  0  0  0  0  0  0  0  0  0  0  0
  1  3  1  0  0  0  0
  1  7  1  0  0  0  0
  1  2  2  0  0  0  0
 29 30  1  0  0  0  0
 30 38  1  0  0  0  0
 30 31  2  0  0  0  0
  8  9  1  0  0  0  0
  9 17  1  0  0  0  0
  9 10  2  0  0  0  0
 18 19  1  0  0  0  0
 19 28  1  0  0  0  0
 19 20  2  0  0  0  0
 29 32  1  0  0  0  0
  8 11  1  0  0  0  0
 38 39  1  0  0  0  0
 18 21  1  0  0  0  0
 21 22  1  0  0  0  0
 28 29  1  0  0  0  0
  7  8  1  0  0  0  0
 17 18  1  0  0  0  0
  3  4  1  0  0  0  0
  3  5  1  0  0  0  0
  3  6  1  0  0  0  0
 32 35  1  0  0  0  0
 32 36  1  0  0  0  0
 32 37  1  0  0  0  0
 11 14  1  0  0  0  0
 11 15  1  0  0  0  0
 11 16  1  0  0  0  0
 39 41  1  0  0  0  0
 39 42  1  0  0  0  0
 39 43  1  0  0  0  0
 21 25  1  0  0  0  0
 21 26  1  0  0  0  0
 29 34  1  0  0  0  0
  8 13  1  0  0  0  0
 18 24  1  0  0  0  0
 38 40  1  0  0  0  0
  7 12  1  0  0  0  0
 28 33  1  0  0  0  0
 17 23  1  0  0  0  0
 22 27  1  0  0  0  0
M  END
$$$$

  -OEChem-05262214473D

 43 42  0     1  0  0  0  0  0999 V2000
    0.7424   -1.0926    4.5665 C   0  0  0  0  0  0  0  0  0  0  0  0
    0.1409   -0.5364    5.4779 O   0  0  0  0  0  0  0  0  0  0  0  0
    1.7940   -2.1023    4.8871 C   0  0  0  0  0  0  0  0  0  0  0  0
    2.7935   -1.6502    4.9904 H   0  0  0  0  0  0  0  0  0  0  0  0
    1.6064   -2.6156    5.8438 H   0  0  0  0  0  0  0  0  0  0  0  0
    1.9156   -2.9078    4.1453 H   0  0  0  0  0  0  0  0  0  0  0  0
    0.5488   -0.8838    3.2109 N   0  0  0  0  0  0  0  0  0  0  0  0
   -0.4159    0.0446    2.6829 C   0  0  2  0  0  0  0  0  0  0  0  0
   -0.7551   -0.3867    1.2623 C   0  0  0  0  0  0  0  0  0  0  0  0
   -0.0106   -1.0851    0.5774 O   0  0  0  0  0  0  0  0  0  0  0  0
    0.1168    1.4689    2.7060 C   0  0  0  0  0  0  0  0  0  0  0  0
    1.1183   -1.4145    2.5542 H   0  0  0  0  0  0  0  0  0  0  0  0
   -1.3088   -0.0350    3.3125 H   0  0  0  0  0  0  0  0  0  0  0  0
    1.0116    1.5681    2.0808 H   0  0  0  0  0  0  0  0  0  0  0  0
   -0.6289    2.1775    2.3307 H   0  0  0  0  0  0  0  0  0  0  0  0
    0.3882    1.7670    3.7245 H   0  0  0  0  0  0  0  0  0  0  0  0
   -1.9689    0.1350    0.8298 N   0  0  0  0  0  0  0  0  0  0  0  0
   -2.5039   -0.1183   -0.4830 C   0  0  2  0  0  0  0  0  0  0  0  0
   -1.9972    0.9703   -1.4227 C   0  0  0  0  0  0  0  0  0  0  0  0
   -0.9686    0.8571   -2.0863 O   0  0  0  0  0  0  0  0  0  0  0  0
   -4.0272   -0.1945   -0.4667 C   0  0  0  0  0  0  0  0  0  0  0  0
   -4.5805    1.0734   -0.1325 O   0  0  0  0  0  0  0  0  0  0  0  0
   -2.5276    0.6894    1.4750 H   0  0  0  0  0  0  0  0  0  0  0  0
   -2.0922   -1.0824   -0.8030 H   0  0  0  0  0  0  0  0  0  0  0  0
   -4.3767   -0.9226    0.2724 H   0  0  0  0  0  0  0  0  0  0  0  0
   -4.4089   -0.4833   -1.4517 H   0  0  0  0  0  0  0  0  0  0  0  0
   -4.2788    1.6966   -0.8124 H   0  0  0  0  0  0  0  0  0  0  0  0
   -2.8515    2.0631   -1.4646 N   0  0  0  0  0  0  0  0  0  0  0  0
   -2.6093    3.2137   -2.3037 C   0  0  2  0  0  0  0  0  0  0  0  0
   -1.9357    2.7307   -3.5814 C   0  0  0  0  0  0  0  0  0  0  0  0
   -1.3176    1.6707   -3.6543 O   0  0  0  0  0  0  0  0  0  0  0  0
   -1.7485    4.2460   -1.5923 C   0  0  0  0  0  0  0  0  0  0  0  0
   -3.7027    2.0530   -0.9106 H   0  0  0  0  0  0  0  0  0  0  0  0
   -3.5888    3.6407   -2.5454 H   0  0  0  0  0  0  0  0  0  0  0  0
   -0.7631    3.8364   -1.3420 H   0  0  0  0  0  0  0  0  0  0  0  0
   -1.5896    5.1299   -2.2188 H   0  0  0  0  0  0  0  0  0  0  0  0
   -2.2205    4.5703   -0.6585 H   0  0  0  0  0  0  0  0  0  0  0  0
   -2.0694    3.6429   -4.6188 N   0  0  0  0  0  0  0  0  0  0  0  0
   -1.5064    3.4202   -5.9300 C   0  0  0  0  0  0  0  0  0  0  0  0
   -2.6149    4.4874   -4.4744 H   0  0  0  0  0  0  0  0  0  0  0  0
   -0.5039    3.8704   -5.9805 H   0  0  0  0  0  0  0  0  0  0  0  0
   -1.4326    2.3390   -6.1185 H   0  0  0  0  0  0  0  0  0  0  0  0
   -2.1540    3.8816   -6.6901 H   0  0  0  0  0  0  0  0  0  0  0  0
  1  3  1  0  0  0  0
  1  7  1  0  0  0  0
  1  2  2  0  0  0  0
 29 30  1  0  0  0  0
 30 38  1  0  0  0  0
 30 31  2  0  0  0  0
  8  9  1  0  0  0  0
  9 17  1  0  0  0  0
  9 10  2  0  0  0  0
 18 19  1  0  0  0  0
 19 28  1  0  0  0  0
 19 20  2  0  0  0  0
 29 32  1  0  0  0  0
  8 11  1  0  0  0  0
 38 39  1  0  0  0  0
 18 21  1  0  0  0  0
 21 22  1  0  0  0  0
 28 29  1  0  0  0  0
  7  8  1  0  0  0  0
 17 18  1  0  0  0  0
  3  4  1  0  0  0  0
  3  5  1  0  0  0  0
  3  6  1  0  0  0  0
 32 35  1  0  0  0  0
 32 36  1  0  0  0  0
 32 37  1  0  0  0  0
 11 14  1  0  0  0  0
 11 15  1  0  0  0  0
 11 16  1  0  0  0  0
 39 41  1  0  0  0  0
 39 42  1  0  0  0  0
 39 43  1  0  0  0  0
 21 25  1  0  0  0  0
 21 26  1  0  0  0  0
 29 34  1  0  0  0  0
  8 13  1  0  0  0  0
 18 24  1  0  0  0  0
 38 40  1  0  0  0  0
  7 12  1  0  0  0  0
 28 33  1  0  0  0  0
 17 23  1  0  0  0  0
 22 27  1  0  0  0  0
M  END
$$$$

  -OEChem-05262214473D

 43 42  0     1  0  0  0  0  0999 V2000
    0.7424   -1.0926    4.5665 C   0  0  0  0  0  0  0  0  0  0  0  0
    0.1409   -0.5364    5.4779 O   0  0  0  0  0  0  0  0  0  0  0  0
    1.7940   -2.1023    4.8871 C   0  0  0  0  0  0  0  0  0  0  0  0
    2.7935   -1.6502    4.9904 H   0  0  0  0  0  0  0  0  0  0  0  0
    1.6064   -2.6156    5.8438 H   0  0  0  0  0  0  0  0  0  0  0  0
    1.9156   -2.9078    4.1453 H   0  0  0  0  0  0  0  0  0  0  0  0
    0.5488   -0.8838    3.2109 N   0  0  0  0  0  0  0  0  0  0  0  0
   -0.4159    0.0446    2.6829 C   0  0  2  0  0  0  0  0  0  0  0  0
   -0.7551   -0.3867    1.2623 C   0  0  0  0  0  0  0  0  0  0  0  0
   -0.0106   -1.0851    0.5774 O   0  0  0  0  0  0  0  0  0  0  0  0
    0.1168    1.4689    2.7060 C   0  0  0  0  0  0  0  0  0  0  0  0
    1.1183   -1.4145    2.5542 H   0  0  0  0  0  0  0  0  0  0  0  0
   -1.3088   -0.0350    3.3125 H   0  0  0  0  0  0  0  0  0  0  0  0
    1.0116    1.5681    2.0808 H   0  0  0  0  0  0  0  0  0  0  0  0
   -0.6289    2.1775    2.3307 H   0  0  0  0  0  0  0  0  0  0  0  0
    0.3882    1.7670    3.7245 H   0  0  0  0  0  0  0  0  0  0  0  0
   -1.9689    0.1350    0.8298 N   0  0  0  0  0  0  0  0  0  0  0  0
   -2.5039   -0.1183   -0.4830 C   0  0  2  0  0  0  0  0  0  0  0  0
   -1.9972    0.9703   -1.4227 C   0  0  0  0  0  0  0  0  0  0  0  0
   -1.1367    0.7703   -2.2775 O   0  0  0  0  0  0  0  0  0  0  0  0
   -4.0272   -0.1945   -0.4667 C   0  0  0  0  0  0  0  0  0  0  0  0
   -4.5805    1.0734   -0.1325 O   0  0  0  0  0  0  0  0  0  0  0  0
   -2.5276    0.6894    1.4750 H   0  0  0  0  0  0  0  0  0  0  0  0
   -2.0922   -1.0824   -0.8030 H   0  0  0  0  0  0  0  0  0  0  0  0
   -4.3767   -0.9226    0.2724 H   0  0  0  0  0  0  0  0  0  0  0  0
   -4.4089   -0.4833   -1.4517 H   0  0  0  0  0  0  0  0  0  0  0  0
   -4.2788    1.6966   -0.8124 H   0  0  0  0  0  0  0  0  0  0  0  0
   -2.6499    2.1785   -1.2223 N   0  0  0  0  0  0  0  0  0  0  0  0
   -2.3714    3.3579   -2.0084 C   0  0  2  0  0  0  0  0  0  0  0  0
   -2.0264    2.9100   -3.4225 C   0  0  0  0  0  0  0  0  0  0  0  0
   -1.6176    1.7814   -3.6877 O   0  0  0  0  0  0  0  0  0  0  0  0
   -1.2372    4.1708   -1.4037 C   0  0  0  0  0  0  0  0  0  0  0  0
   -3.3785    2.2414   -0.5175 H   0  0  0  0  0  0  0  0  0  0  0  0
   -3.2926    3.9504   -2.0268 H   0  0  0  0  0  0  0  0  0  0  0  0
   -0.3058    3.5935   -1.3768 H   0  0  0  0  0  0  0  0  0  0  0  0
   -1.0464    5.0791   -1.9848 H   0  0  0  0  0  0  0  0  0  0  0  0
   -1.4745    4.4668   -0.3762 H   0  0  0  0  0  0  0  0  0  0  0  0
   -2.1876    3.9319   -4.3476 N   0  0  0  0  0  0  0  0  0  0  0  0
   -1.9121    3.7602   -5.7549 C   0  0  0  0  0  0  0  0  0  0  0  0
   -2.5494    4.8304   -4.0417 H   0  0  0  0  0  0  0  0  0  0  0  0
   -0.8736    4.0561   -5.9646 H   0  0  0  0  0  0  0  0  0  0  0  0
   -2.0553    2.7049   -6.0304 H   0  0  0  0  0  0  0  0  0  0  0  0
   -2.5979    4.3887   -6.3420 H   0  0  0  0  0  0  0  0  0  0  0  0
  1  3  1  0  0  0  0
  1  7  1  0  0  0  0
  1  2  2  0  0  0  0
 29 30  1  0  0  0  0
 30 38  1  0  0  0  0
 30 31  2  0  0  0  0
  8  9  1  0  0  0  0
  9 17  1  0  0  0  0
  9 10  2  0  0  0  0
 18 19  1  0  0  0  0
 19 28  1  0  0  0  0
 19 20  2  0  0  0  0
 29 32  1  0  0  0  0
  8 11  1  0  0  0  0
 38 39  1  0  0  0  0
 18 21  1  0  0  0  0
 21 22  1  0  0  0  0
 28 29  1  0  0  0  0
  7  8  1  0  0  0  0
 17 18  1  0  0  0  0
  3  4  1  0  0  0  0
  3  5  1  0  0  0  0
  3  6  1  0  0  0  0
 32 35  1  0  0  0  0
 32 36  1  0  0  0  0
 32 37  1  0  0  0  0
 11 14  1  0  0  0  0
 11 15  1  0  0  0  0
 11 16  1  0  0  0  0
 39 41  1  0  0  0  0
 39 42  1  0  0  0  0
 39 43  1  0  0  0  0
 21 25  1  0  0  0  0
 21 26  1  0  0  0  0
 29 34  1  0  0  0  0
  8 13  1  0  0  0  0
 18 24  1  0  0  0  0
 38 40  1  0  0  0  0
  7 12  1  0  0  0  0
 28 33  1  0  0  0  0
 17 23  1  0  0  0  0
 22 27  1  0  0  0  0
M  END
$$$$

  -OEChem-05262214473D

 43 42  0     1  0  0  0  0  0999 V2000
    0.7424   -1.0926    4.5665 C   0  0  0  0  0  0  0  0  0  0  0  0
    0.1409   -0.5364    5.4779 O   0  0  0  0  0  0  0  0  0  0  0  0
    1.7940   -2.1023    4.8871 C   0  0  0  0  0  0  0  0  0  0  0  0
    2.7935   -1.6502    4.9904 H   0  0  0  0  0  0  0  0  0  0  0  0
    1.6064   -2.6156    5.8438 H   0  0  0  0  0  0  0  0  0  0  0  0
    1.9156   -2.9078    4.1453 H   0  0  0  0  0  0  0  0  0  0  0  0
    0.5488   -0.8838    3.2109 N   0  0  0  0  0  0  0  0  0  0  0  0
   -0.4159    0.0446    2.6829 C   0  0  2  0  0  0  0  0  0  0  0  0
   -0.7551   -0.3867    1.2623 C   0  0  0  0  0  0  0  0  0  0  0  0
   -0.0106   -1.0851    0.5774 O   0  0  0  0  0  0  0  0  0  0  0  0
    0.1168    1.4689    2.7060 C   0  0  0  0  0  0  0  0  0  0  0  0
    1.1183   -1.4145    2.5542 H   0  0  0  0  0  0  0  0  0  0  0  0
   -1.3088   -0.0350    3.3125 H   0  0  0  0  0  0  0  0  0  0  0  0
    1.0116    1.5681    2.0808 H   0  0  0  0  0  0  0  0  0  0  0  0
   -0.6289    2.1775    2.3307 H   0  0  0  0  0  0  0  0  0  0  0  0
    0.3882    1.7670    3.7245 H   0  0  0  0  0  0  0  0  0  0  0  0
   -1.9689    0.1350    0.8298 N   0  0  0  0  0  0  0  0  0  0  0  0
   -2.5039   -0.1183   -0.4830 C   0  0  2  0  0  0  0  0  0  0  0  0
   -1.9972    0.9703   -1.4227 C   0  0  0  0  0  0  0  0  0  0  0  0
   -1.3483    0.7297   -2.4387 O   0  0  0  0  0  0  0  0  0  0  0  0
   -4.0272   -0.1945   -0.4667 C   0  0  0  0  0  0  0  0  0  0  0  0
   -4.5805    1.0734   -0.1325 O   0  0  0  0  0  0  0  0  0  0  0  0
   -2.5276    0.6894    1.4750 H   0  0  0  0  0  0  0  0  0  0  0  0
   -2.0922   -1.0824   -0.8030 H   0  0  0  0  0  0  0  0  0  0  0  0
   -4.3767   -0.9226    0.2724 H   0  0  0  0  0  0  0  0  0  0  0  0
   -4.4089   -0.4833   -1.4517 H   0  0  0  0  0  0  0  0  0  0  0  0
   -4.2788    1.6966   -0.8124 H   0  0  0  0  0  0  0  0  0  0  0  0
   -2.3920    2.2369   -1.0156 N   0  0  0  0  0  0  0  0  0  0  0  0
   -2.0641    3.4339   -1.7547 C   0  0  2  0  0  0  0  0  0  0  0  0
   -2.0561    3.0840   -3.2369 C   0  0  0  0  0  0  0  0  0  0  0  0
   -1.8959    1.9392   -3.6551 O   0  0  0  0  0  0  0  0  0  0  0  0
   -0.7205    4.0003   -1.3226 C   0  0  0  0  0  0  0  0  0  0  0  0
   -2.9626    2.3379   -0.1814 H   0  0  0  0  0  0  0  0  0  0  0  0
   -2.8613    4.1578   -1.5540 H   0  0  0  0  0  0  0  0  0  0  0  0
    0.0907    3.2889   -1.5159 H   0  0  0  0  0  0  0  0  0  0  0  0
   -0.4866    4.9232   -1.8635 H   0  0  0  0  0  0  0  0  0  0  0  0
   -0.7183    4.2235   -0.2503 H   0  0  0  0  0  0  0  0  0  0  0  0
   -2.2056    4.2067   -4.0390 N   0  0  0  0  0  0  0  0  0  0  0  0
   -2.2175    4.1383   -5.4816 C   0  0  0  0  0  0  0  0  0  0  0  0
   -2.3514    5.1141   -3.6063 H   0  0  0  0  0  0  0  0  0  0  0  0
   -1.1981    4.2932   -5.8650 H   0  0  0  0  0  0  0  0  0  0  0  0
   -2.5821    3.1501   -5.7987 H   0  0  0  0  0  0  0  0  0  0  0  0
   -2.8816    4.9194   -5.8801 H   0  0  0  0  0  0  0  0  0  0  0  0
  1  3  1  0  0  0  0
  1  7  1  0  0  0  0
  1  2  2  0  0  0  0
 29 30  1  0  0  0  0
 30 38  1  0  0  0  0
 30 31  2  0  0  0  0
  8  9  1  0  0  0  0
  9 17  1  0  0  0  0
  9 10  2  0  0  0  0
 18 19  1  0  0  0  0
 19 28  1  0  0  0  0
 19 20  2  0  0  0  0
 29 32  1  0  0  0  0
  8 11  1  0  0  0  0
 38 39  1  0  0  0  0
 18 21  1  0  0  0  0
 21 22  1  0  0  0  0
 28 29  1  0  0  0  0
  7  8  1  0  0  0  0
 17 18  1  0  0  0  0
  3  4  1  0  0  0  0
  3  5  1  0  0  0  0
  3  6  1  0  0  0  0
 32 35  1  0  0  0  0
 32 36  1  0  0  0  0
 32 37  1  0  0  0  0
 11 14  1  0  0  0  0
 11 15  1  0  0  0  0
 11 16  1  0  0  0  0
 39 41  1  0  0  0  0
 39 42  1  0  0  0  0
 39 43  1  0  0  0  0
 21 25  1  0  0  0  0
 21 26  1  0  0  0  0
 29 34  1  0  0  0  0
  8 13  1  0  0  0  0
 18 24  1  0  0  0  0
 38 40  1  0  0  0  0
  7 12  1  0  0  0  0
 28 33  1  0  0  0  0
 17 23  1  0  0  0  0
 22 27  1  0  0  0  0
M  END
$$$$

  -OEChem-05262214473D

 43 42  0     1  0  0  0  0  0999 V2000
    0.7424   -1.0926    4.5665 C   0  0  0  0  0  0  0  0  0  0  0  0
    0.1409   -0.5364    5.4779 O   0  0  0  0  0  0  0  0  0  0  0  0
    1.7940   -2.1023    4.8871 C   0  0  0  0  0  0  0  0  0  0  0  0
    2.7935   -1.6502    4.9904 H   0  0  0  0  0  0  0  0  0  0  0  0
    1.6064   -2.6156    5.8438 H   0  0  0  0  0  0  0  0  0  0  0  0
    1.9156   -2.9078    4.1453 H   0  0  0  0  0  0  0  0  0  0  0  0
    0.5488   -0.8838    3.2109 N   0  0  0  0  0  0  0  0  0  0  0  0
   -0.4159    0.0446    2.6829 C   0  0  2  0  0  0  0  0  0  0  0  0
   -0.7551   -0.3867    1.2623 C   0  0  0  0  0  0  0  0  0  0  0  0
   -0.0106   -1.0851    0.5774 O   0  0  0  0  0  0  0  0  0  0  0  0
    0.1168    1.4689    2.7060 C   0  0  0  0  0  0  0  0  0  0  0  0
    1.1183   -1.4145    2.5542 H   0  0  0  0  0  0  0  0  0  0  0  0
   -1.3088   -0.0350    3.3125 H   0  0  0  0  0  0  0  0  0  0  0  0
    1.0116    1.5681    2.0808 H   0  0  0  0  0  0  0  0  0  0  0  0
   -0.6289    2.1775    2.3307 H   0  0  0  0  0  0  0  0  0  0  0  0
    0.3882    1.7670    3.7245 H   0  0  0  0  0  0  0  0  0  0  0  0
   -1.9689    0.1350    0.8298 N   0  0  0  0  0  0  0  0  0  0  0  0
   -2.5039   -0.1183   -0.4830 C   0  0  2  0  0  0  0  0  0  0  0  0
   -1.9972    0.9703   -1.4227 C   0  0  0  0  0  0  0  0  0  0  0  0
   -1.5890    0.7380   -2.5587 O   0  0  0  0  0  0  0  0  0  0  0  0
   -4.0272   -0.1945   -0.4667 C   0  0  0  0  0  0  0  0  0  0  0  0
   -4.5805    1.0734   -0.1325 O   0  0  0  0  0  0  0  0  0  0  0  0
   -2.5276    0.6894    1.4750 H   0  0  0  0  0  0  0  0  0  0  0  0
   -2.0922   -1.0824   -0.8030 H   0  0  0  0  0  0  0  0  0  0  0  0
   -4.3767   -0.9226    0.2724 H   0  0  0  0  0  0  0  0  0  0  0  0
   -4.4089   -0.4833   -1.4517 H   0  0  0  0  0  0  0  0  0  0  0  0
   -4.2788    1.6966   -0.8124 H   0  0  0  0  0  0  0  0  0  0  0  0
   -2.0954    2.2344   -0.8586 N   0  0  0  0  0  0  0  0  0  0  0  0
   -1.7082    3.4364   -1.5599 C   0  0  2  0  0  0  0  0  0  0  0  0
   -2.0226    3.2408   -3.0372 C   0  0  0  0  0  0  0  0  0  0  0  0
   -2.1336    2.1331   -3.5585 O   0  0  0  0  0  0  0  0  0  0  0  0
   -0.2336    3.7462   -1.3544 C   0  0  0  0  0  0  0  0  0  0  0  0
   -2.4835    2.3359    0.0746 H   0  0  0  0  0  0  0  0  0  0  0  0
   -2.3243    4.2487   -1.1592 H   0  0  0  0  0  0  0  0  0  0  0  0
    0.3995    2.9435   -1.7497 H   0  0  0  0  0  0  0  0  0  0  0  0
    0.0517    4.6730   -1.8631 H   0  0  0  0  0  0  0  0  0  0  0  0
   -0.0034    3.8571   -0.2893 H   0  0  0  0  0  0  0  0  0  0  0  0
   -2.1221    4.4484   -3.7139 N   0  0  0  0  0  0  0  0  0  0  0  0
   -2.4016    4.5287   -5.1286 C   0  0  0  0  0  0  0  0  0  0  0  0
   -2.0345    5.3190   -3.1980 H   0  0  0  0  0  0  0  0  0  0  0  0
   -1.4553    4.5653   -5.6884 H   0  0  0  0  0  0  0  0  0  0  0  0
   -2.9772    3.6443   -5.4392 H   0  0  0  0  0  0  0  0  0  0  0  0
   -2.9855    5.4376   -5.3359 H   0  0  0  0  0  0  0  0  0  0  0  0
  1  3  1  0  0  0  0
  1  7  1  0  0  0  0
  1  2  2  0  0  0  0
 29 30  1  0  0  0  0
 30 38  1  0  0  0  0
 30 31  2  0  0  0  0
  8  9  1  0  0  0  0
  9 17  1  0  0  0  0
  9 10  2  0  0  0  0
 18 19  1  0  0  0  0
 19 28  1  0  0  0  0
 19 20  2  0  0  0  0
 29 32  1  0  0  0  0
  8 11  1  0  0  0  0
 38 39  1  0  0  0  0
 18 21  1  0  0  0  0
 21 22  1  0  0  0  0
 28 29  1  0  0  0  0
  7  8  1  0  0  0  0
 17 18  1  0  0  0  0
  3  4  1  0  0  0  0
  3  5  1  0  0  0  0
  3  6  1  0  0  0  0
 32 35  1  0  0  0  0
 32 36  1  0  0  0  0
 32 37  1  0  0  0  0
 11 14  1  0  0  0  0
 11 15  1  0  0  0  0
 11 16  1  0  0  0  0
 39 41  1  0  0  0  0
 39 42  1  0  0  0  0
 39 43  1  0  0  0  0
 21 25  1  0  0  0  0
 21 26  1  0  0  0  0
 29 34  1  0  0  0  0
  8 13  1  0  0  0  0
 18 24  1  0  0  0  0
 38 40  1  0  0  0  0
  7 12  1  0  0  0  0
 28 33  1  0  0  0  0
 17 23  1  0  0  0  0
 22 27  1  0  0  0  0
M  END
$$$$

  -OEChem-05262214473D

 43 42  0     1  0  0  0  0  0999 V2000
    0.7424   -1.0926    4.5665 C   0  0  0  0  0  0  0  0  0  0  0  0
    0.1409   -0.5364    5.4779 O   0  0  0  0  0  0  0  0  0  0  0  0
    1.7940   -2.1023    4.8871 C   0  0  0  0  0  0  0  0  0  0  0  0
    2.7935   -1.6502    4.9904 H   0  0  0  0  0  0  0  0  0  0  0  0
    1.6064   -2.6156    5.8438 H   0  0  0  0  0  0  0  0  0  0  0  0
    1.9156   -2.9078    4.1453 H   0  0  0  0  0  0  0  0  0  0  0  0
    0.5488   -0.8838    3.2109 N   0  0  0  0  0  0  0  0  0  0  0  0
   -0.4159    0.0446    2.6829 C   0  0  2  0  0  0  0  0  0  0  0  0
   -0.7551   -0.3867    1.2623 C   0  0  0  0  0  0  0  0  0  0  0  0
   -0.0106   -1.0851    0.5774 O   0  0  0  0  0  0  0  0  0  0  0  0
    0.1168    1.4689    2.7060 C   0  0  0  0  0  0  0  0  0  0  0  0
    1.1183   -1.4145    2.5542 H   0  0  0  0  0  0  0  0  0  0  0  0
   -1.3088   -0.0350    3.3125 H   0  0  0  0  0  0  0  0  0  0  0  0
    1.0116    1.5681    2.0808 H   0  0  0  0  0  0  0  0  0  0  0  0
   -0.6289    2.1775    2.3307 H   0  0  0  0  0  0  0  0  0  0  0  0
    0.3882    1.7670    3.7245 H   0  0  0  0  0  0  0  0  0  0  0  0
   -1.9689    0.1350    0.8298 N   0  0  0  0  0  0  0  0  0  0  0  0
   -2.5039   -0.1183   -0.4830 C   0  0  2  0  0  0  0  0  0  0  0  0
   -1.9972    0.9703   -1.4227 C   0  0  0  0  0  0  0  0  0  0  0  0
   -1.8423    0.7948   -2.6295 O   0  0  0  0  0  0  0  0  0  0  0  0
   -4.0272   -0.1945   -0.4667 C   0  0  0  0  0  0  0  0  0  0  0  0
   -4.5805    1.0734   -0.1325 O   0  0  0  0  0  0  0  0  0  0  0  0
   -2.5276    0.6894    1.4750 H   0  0  0  0  0  0  0  0  0  0  0  0
   -2.0922   -1.0824   -0.8030 H   0  0  0  0  0  0  0  0  0  0  0  0
   -4.3767   -0.9226    0.2724 H   0  0  0  0  0  0  0  0  0  0  0  0
   -4.4089   -0.4833   -1.4517 H   0  0  0  0  0  0  0  0  0  0  0  0
   -4.2788    1.6966   -0.8124 H   0  0  0  0  0  0  0  0  0  0  0  0
   -1.7802    2.1712   -0.7619 N   0  0  0  0  0  0  0  0  0  0  0  0
   -1.3281    3.3653   -1.4373 C   0  0  2  0  0  0  0  0  0  0  0  0
   -1.9284    3.3698   -2.8370 C   0  0  0  0  0  0  0  0  0  0  0  0
   -2.3143    2.3501   -3.4046 O   0  0  0  0  0  0  0  0  0  0  0  0
    0.1903    3.4259   -1.4969 C   0  0  0  0  0  0  0  0  0  0  0  0
   -1.9736    2.2355    0.2332 H   0  0  0  0  0  0  0  0  0  0  0  0
   -1.7181    4.2168   -0.8692 H   0  0  0  0  0  0  0  0  0  0  0  0
    0.5994    2.5806   -2.0622 H   0  0  0  0  0  0  0  0  0  0  0  0
    0.5319    4.3453   -1.9838 H   0  0  0  0  0  0  0  0  0  0  0  0
    0.6215    3.3925   -0.4906 H   0  0  0  0  0  0  0  0  0  0  0  0
   -1.9428    4.6407   -3.3945 N   0  0  0  0  0  0  0  0  0  0  0  0
   -2.4519    4.9048   -4.7201 C   0  0  0  0  0  0  0  0  0  0  0  0
   -1.6202    5.4313   -2.8445 H   0  0  0  0  0  0  0  0  0  0  0  0
   -1.6278    4.8540   -5.4468 H   0  0  0  0  0  0  0  0  0  0  0  0
   -3.2135    4.1537   -4.9766 H   0  0  0  0  0  0  0  0  0  0  0  0
   -2.9027    5.9078   -4.7465 H   0  0  0  0  0  0  0  0  0  0  0  0
  1  3  1  0  0  0  0
  1  7  1  0  0  0  0
  1  2  2  0  0  0  0
 29 30  1  0  0  0  0
 30 38  1  0  0  0  0
 30 31  2  0  0  0  0
  8  9  1  0  0  0  0
  9 17  1  0  0  0  0
  9 10  2  0  0  0  0
 18 19  1  0  0  0  0
 19 28  1  0  0  0  0
 19 20  2  0  0  0  0
 29 32  1  0  0  0  0
  8 11  1  0  0  0  0
 38 39  1  0  0  0  0
 18 21  1  0  0  0  0
 21 22  1  0  0  0  0
 28 29  1  0  0  0  0
  7  8  1  0  0  0  0
 17 18  1  0  0  0  0
  3  4  1  0  0  0  0
  3  5  1  0  0  0  0
  3  6  1  0  0  0  0
 32 35  1  0  0  0  0
 32 36  1  0  0  0  0
 32 37  1  0  0  0  0
 11 14  1  0  0  0  0
 11 15  1  0  0  0  0
 11 16  1  0  0  0  0
 39 41  1  0  0  0  0
 39 42  1  0  0  0  0
 39 43  1  0  0  0  0
 21 25  1  0  0  0  0
 21 26  1  0  0  0  0
 29 34  1  0  0  0  0
  8 13  1  0  0  0  0
 18 24  1  0  0  0  0
 38 40  1  0  0  0  0
  7 12  1  0  0  0  0
 28 33  1  0  0  0  0
 17 23  1  0  0  0  0
 22 27  1  0  0  0  0
M  END
$$$$

  -OEChem-05262214473D

 43 42  0     1  0  0  0  0  0999 V2000
    0.7424   -1.0926    4.5665 C   0  0  0  0  0  0  0  0  0  0  0  0
    0.1409   -0.5364    5.4779 O   0  0  0  0  0  0  0  0  0  0  0  0
    1.7940   -2.1023    4.8871 C   0  0  0  0  0  0  0  0  0  0  0  0
    2.7935   -1.6502    4.9904 H   0  0  0  0  0  0  0  0  0  0  0  0
    1.6064   -2.6156    5.8438 H   0  0  0  0  0  0  0  0  0  0  0  0
    1.9156   -2.9078    4.1453 H   0  0  0  0  0  0  0  0  0  0  0  0
    0.5488   -0.8838    3.2109 N   0  0  0  0  0  0  0  0  0  0  0  0
   -0.4159    0.0446    2.6829 C   0  0  2  0  0  0  0  0  0  0  0  0
   -0.7551   -0.3867    1.2623 C   0  0  0  0  0  0  0  0  0  0  0  0
   -0.0106   -1.0851    0.5774 O   0  0  0  0  0  0  0  0  0  0  0  0
    0.1168    1.4689    2.7060 C   0  0  0  0  0  0  0  0  0  0  0  0
    1.1183   -1.4145    2.5542 H   0  0  0  0  0  0  0  0  0  0  0  0
   -1.3088   -0.0350    3.3125 H   0  0  0  0  0  0  0  0  0  0  0  0
    1.0116    1.5681    2.0808 H   0  0  0  0  0  0  0  0  0  0  0  0
   -0.6289    2.1775    2.3307 H   0  0  0  0  0  0  0  0  0  0  0  0
    0.3882    1.7670    3.7245 H   0  0  0  0  0  0  0  0  0  0  0  0
   -1.9689    0.1350    0.8298 N   0  0  0  0  0  0  0  0  0  0  0  0
   -2.5039   -0.1183   -0.4830 C   0  0  2  0  0  0  0  0  0  0  0  0
   -1.9972    0.9703   -1.4227 C   0  0  0  0  0  0  0  0  0  0  0  0
   -2.0910    0.8962   -2.6462 O   0  0  0  0  0  0  0  0  0  0  0  0
   -4.0272   -0.1945   -0.4667 C   0  0  0  0  0  0  0  0  0  0  0  0
   -4.5805    1.0734   -0.1325 O   0  0  0  0  0  0  0  0  0  0  0  0
   -2.5276    0.6894    1.4750 H   0  0  0  0  0  0  0  0  0  0  0  0
   -2.0922   -1.0824   -0.8030 H   0  0  0  0  0  0  0  0  0  0  0  0
   -4.3767   -0.9226    0.2724 H   0  0  0  0  0  0  0  0  0  0  0  0
   -4.4089   -0.4833   -1.4517 H   0  0  0  0  0  0  0  0  0  0  0  0
   -4.2788    1.6966   -0.8124 H   0  0  0  0  0  0  0  0  0  0  0  0
   -1.4681    2.0515   -0.7322 N   0  0  0  0  0  0  0  0  0  0  0  0
   -0.9496    3.2254   -1.3953 C   0  0  2  0  0  0  0  0  0  0  0  0
   -1.7798    3.4621   -2.6499 C   0  0  0  0  0  0  0  0  0  0  0  0
   -2.4259    2.5752   -3.2040 O   0  0  0  0  0  0  0  0  0  0  0  0
    0.5223    3.0612   -1.7405 C   0  0  0  0  0  0  0  0  0  0  0  0
   -1.4679    2.0435    0.2835 H   0  0  0  0  0  0  0  0  0  0  0  0
   -1.0840    4.0644   -0.7039 H   0  0  0  0  0  0  0  0  0  0  0  0
    0.6768    2.2251   -2.4323 H   0  0  0  0  0  0  0  0  0  0  0  0
    0.9210    3.9627   -2.2173 H   0  0  0  0  0  0  0  0  0  0  0  0
    1.1138    2.8614   -0.8405 H   0  0  0  0  0  0  0  0  0  0  0  0
   -1.6799    4.7703   -3.1027 N   0  0  0  0  0  0  0  0  0  0  0  0
   -2.3651    5.2409   -4.2838 C   0  0  0  0  0  0  0  0  0  0  0  0
   -1.1368    5.4433   -2.5700 H   0  0  0  0  0  0  0  0  0  0  0  0
   -1.7036    5.1397   -5.1569 H   0  0  0  0  0  0  0  0  0  0  0  0
   -3.2751    4.6436   -4.4421 H   0  0  0  0  0  0  0  0  0  0  0  0
   -2.6387    6.2981   -4.1520 H   0  0  0  0  0  0  0  0  0  0  0  0
  1  3  1  0  0  0  0
  1  7  1  0  0  0  0
  1  2  2  0  0  0  0
 29 30  1  0  0  0  0
 30 38  1  0  0  0  0
 30 31  2  0  0  0  0
  8  9  1  0  0  0  0
  9 17  1  0  0  0  0
  9 10  2  0  0  0  0
 18 19  1  0  0  0  0
 19 28  1  0  0  0  0
 19 20  2  0  0  0  0
 29 32  1  0  0  0  0
  8 11  1  0  0  0  0
 38 39  1  0  0  0  0
 18 21  1  0  0  0  0
 21 22  1  0  0  0  0
 28 29  1  0  0  0  0
  7  8  1  0  0  0  0
 17 18  1  0  0  0  0
  3  4  1  0  0  0  0
  3  5  1  0  0  0  0
  3  6  1  0  0  0  0
 32 35  1  0  0  0  0
 32 36  1  0  0  0  0
 32 37  1  0  0  0  0
 11 14  1  0  0  0  0
 11 15  1  0  0  0  0
 11 16  1  0  0  0  0
 39 41  1  0  0  0  0
 39 42  1  0  0  0  0
 39 43  1  0  0  0  0
 21 25  1  0  0  0  0
 21 26  1  0  0  0  0
 29 34  1  0  0  0  0
  8 13  1  0  0  0  0
 18 24  1  0  0  0  0
 38 40  1  0  0  0  0
  7 12  1  0  0  0  0
 28 33  1  0  0  0  0
 17 23  1  0  0  0  0
 22 27  1  0  0  0  0
M  END
$$$$

  -OEChem-05262214473D

 43 42  0     1  0  0  0  0  0999 V2000
    0.7424   -1.0926    4.5665 C   0  0  0  0  0  0  0  0  0  0  0  0
    0.1409   -0.5364    5.4779 O   0  0  0  0  0  0  0  0  0  0  0  0
    1.7940   -2.1023    4.8871 C   0  0  0  0  0  0  0  0  0  0  0  0
    2.7935   -1.6502    4.9904 H   0  0  0  0  0  0  0  0  0  0  0  0
    1.6064   -2.6156    5.8438 H   0  0  0  0  0  0  0  0  0  0  0  0
    1.9156   -2.9078    4.1453 H   0  0  0  0  0  0  0  0  0  0  0  0
    0.5488   -0.8838    3.2109 N   0  0  0  0  0  0  0  0  0  0  0  0
   -0.4159    0.0446    2.6829 C   0  0  2  0  0  0  0  0  0  0  0  0
   -0.7551   -0.3867    1.2623 C   0  0  0  0  0  0  0  0  0  0  0  0
   -0.0106   -1.0851    0.5774 O   0  0  0  0  0  0  0  0  0  0  0  0
    0.1168    1.4689    2.7060 C   0  0  0  0  0  0  0  0  0  0  0  0
    1.1183   -1.4145    2.5542 H   0  0  0  0  0  0  0  0  0  0  0  0
   -1.3088   -0.0350    3.3125 H   0  0  0  0  0  0  0  0  0  0  0  0
    1.0116    1.5681    2.0808 H   0  0  0  0  0  0  0  0  0  0  0  0
   -0.6289    2.1775    2.3307 H   0  0  0  0  0  0  0  0  0  0  0  0
    0.3882    1.7670    3.7245 H   0  0  0  0  0  0  0  0  0  0  0  0
   -1.9689    0.1350    0.8298 N   0  0  0  0  0  0  0  0  0  0  0  0
   -2.5039   -0.1183   -0.4830 C   0  0  2  0  0  0  0  0  0  0  0  0
   -1.9972    0.9703   -1.4227 C   0  0  0  0  0  0  0  0  0  0  0  0
   -2.3181    1.0352   -2.6076 O   0  0  0  0  0  0  0  0  0  0  0  0
   -4.0272   -0.1945   -0.4667 C   0  0  0  0  0  0  0  0  0  0  0  0
   -4.5805    1.0734   -0.1325 O   0  0  0  0  0  0  0  0  0  0  0  0
   -2.5276    0.6894    1.4750 H   0  0  0  0  0  0  0  0  0  0  0  0
   -2.0922   -1.0824   -0.8030 H   0  0  0  0  0  0  0  0  0  0  0  0
   -4.3767   -0.9226    0.2724 H   0  0  0  0  0  0  0  0  0  0  0  0
   -4.4089   -0.4833   -1.4517 H   0  0  0  0  0  0  0  0  0  0  0  0
   -4.2788    1.6966   -0.8124 H   0  0  0  0  0  0  0  0  0  0  0  0
   -1.1801    1.8836   -0.7715 N   0  0  0  0  0  0  0  0  0  0  0  0
   -0.5985    3.0263   -1.4366 C   0  0  2  0  0  0  0  0  0  0  0  0
   -1.5870    3.5115   -2.4887 C   0  0  0  0  0  0  0  0  0  0  0  0
   -2.4607    2.7932   -2.9701 O   0  0  0  0  0  0  0  0  0  0  0  0
    0.7399    2.6768   -2.0685 C   0  0  0  0  0  0  0  0  0  0  0  0
   -1.0007    1.7731    0.2221 H   0  0  0  0  0  0  0  0  0  0  0  0
   -0.4654    3.8019   -0.6745 H   0  0  0  0  0  0  0  0  0  0  0  0
    0.6265    1.9012   -2.8347 H   0  0  0  0  0  0  0  0  0  0  0  0
    1.1928    3.5511   -2.5476 H   0  0  0  0  0  0  0  0  0  0  0  0
    1.4400    2.2999   -1.3151 H   0  0  0  0  0  0  0  0  0  0  0  0
   -1.3514    4.8284   -2.8582 N   0  0  0  0  0  0  0  0  0  0  0  0
   -2.1469    5.5143   -3.8495 C   0  0  0  0  0  0  0  0  0  0  0  0
   -0.6173    5.3542   -2.3931 H   0  0  0  0  0  0  0  0  0  0  0  0
   -1.6777    5.4027   -4.8382 H   0  0  0  0  0  0  0  0  0  0  0  0
   -3.1576    5.0807   -3.8724 H   0  0  0  0  0  0  0  0  0  0  0  0
   -2.2117    6.5819   -3.5929 H   0  0  0  0  0  0  0  0  0  0  0  0
  1  3  1  0  0  0  0
  1  7  1  0  0  0  0
  1  2  2  0  0  0  0
 29 30  1  0  0  0  0
 30 38  1  0  0  0  0
 30 31  2  0  0  0  0
  8  9  1  0  0  0  0
  9 17  1  0  0  0  0
  9 10  2  0  0  0  0
 18 19  1  0  0  0  0
 19 28  1  0  0  0  0
 19 20  2  0  0  0  0
 29 32  1  0  0  0  0
  8 11  1  0  0  0  0
 38 39  1  0  0  0  0
 18 21  1  0  0  0  0
 21 22  1  0  0  0  0
 28 29  1  0  0  0  0
  7  8  1  0  0  0  0
 17 18  1  0  0  0  0
  3  4  1  0  0  0  0
  3  5  1  0  0  0  0
  3  6  1  0  0  0  0
 32 35  1  0  0  0  0
 32 36  1  0  0  0  0
 32 37  1  0  0  0  0
 11 14  1  0  0  0  0
 11 15  1  0  0  0  0
 11 16  1  0  0  0  0
 39 41  1  0  0  0  0
 39 42  1  0  0  0  0
 39 43  1  0  0  0  0
 21 25  1  0  0  0  0
 21 26  1  0  0  0  0
 29 34  1  0  0  0  0
  8 13  1  0  0  0  0
 18 24  1  0  0  0  0
 38 40  1  0  0  0  0
  7 12  1  0  0  0  0
 28 33  1  0  0  0  0
 17 23  1  0  0  0  0
 22 27  1  0  0  0  0
M  END
$$$$

  -OEChem-05262214473D

 43 42  0     1  0  0  0  0  0999 V2000
    0.7424   -1.0926    4.5665 C   0  0  0  0  0  0  0  0  0  0  0  0
    0.1409   -0.5364    5.4779 O   0  0  0  0  0  0  0  0  0  0  0  0
    1.7940   -2.1023    4.8871 C   0  0  0  0  0  0  0  0  0  0  0  0
    2.7935   -1.6502    4.9904 H   0  0  0  0  0  0  0  0  0  0  0  0
    1.6064   -2.6156    5.8438 H   0  0  0  0  0  0  0  0  0  0  0  0
    1.9156   -2.9078    4.1453 H   0  0  0  0  0  0  0  0  0  0  0  0
    0.5488   -0.8838    3.2109 N   0  0  0  0  0  0  0  0  0  0  0  0
   -0.4159    0.0446    2.6829 C   0  0  2  0  0  0  0  0  0  0  0  0
   -0.7551   -0.3867    1.2623 C   0  0  0  0  0  0  0  0  0  0  0  0
   -0.0106   -1.0851    0.5774 O   0  0  0  0  0  0  0  0  0  0  0  0
    0.1168    1.4689    2.7060 C   0  0  0  0  0  0  0  0  0  0  0  0
    1.1183   -1.4145    2.5542 H   0  0  0  0  0  0  0  0  0  0  0  0
   -1.3088   -0.0350    3.3125 H   0  0  0  0  0  0  0  0  0  0  0  0
    1.0116    1.5681    2.0808 H   0  0  0  0  0  0  0  0  0  0  0  0
   -0.6289    2.1775    2.3307 H   0  0  0  0  0  0  0  0  0  0  0  0
    0.3882    1.7670    3.7245 H   0  0  0  0  0  0  0  0  0  0  0  0
   -1.9689    0.1350    0.8298 N   0  0  0  0  0  0  0  0  0  0  0  0
   -2.5039   -0.1183   -0.4830 C   0  0  2  0  0  0  0  0  0  0  0  0
   -1.9972    0.9703   -1.4227 C   0  0  0  0  0  0  0  0  0  0  0  0
   -2.5082    1.2024   -2.5164 O   0  0  0  0  0  0  0  0  0  0  0  0
   -4.0272   -0.1945   -0.4667 C   0  0  0  0  0  0  0  0  0  0  0  0
   -4.5805    1.0734   -0.1325 O   0  0  0  0  0  0  0  0  0  0  0  0
   -2.5276    0.6894    1.4750 H   0  0  0  0  0  0  0  0  0  0  0  0
   -2.0922   -1.0824   -0.8030 H   0  0  0  0  0  0  0  0  0  0  0  0
   -4.3767   -0.9226    0.2724 H   0  0  0  0  0  0  0  0  0  0  0  0
   -4.4089   -0.4833   -1.4517 H   0  0  0  0  0  0  0  0  0  0  0  0
   -4.2788    1.6966   -0.8124 H   0  0  0  0  0  0  0  0  0  0  0  0
   -0.9360    1.6788   -0.8771 N   0  0  0  0  0  0  0  0  0  0  0  0
   -0.2988    2.7816   -1.5585 C   0  0  2  0  0  0  0  0  0  0  0  0
   -1.3631    3.5146   -2.3644 C   0  0  0  0  0  0  0  0  0  0  0  0
   -2.4163    2.9892   -2.7191 O   0  0  0  0  0  0  0  0  0  0  0  0
    0.8281    2.2991   -2.4585 C   0  0  0  0  0  0  0  0  0  0  0  0
   -0.6039    1.4427    0.0533 H   0  0  0  0  0  0  0  0  0  0  0  0
    0.0958    3.4471   -0.7830 H   0  0  0  0  0  0  0  0  0  0  0  0
    0.4519    1.6310   -3.2419 H   0  0  0  0  0  0  0  0  0  0  0  0
    1.3286    3.1385   -2.9523 H   0  0  0  0  0  0  0  0  0  0  0  0
    1.5778    1.7463   -1.8821 H   0  0  0  0  0  0  0  0  0  0  0  0
   -0.9797    4.8112   -2.6777 N   0  0  0  0  0  0  0  0  0  0  0  0
   -1.8124    5.7061   -3.4468 C   0  0  0  0  0  0  0  0  0  0  0  0
   -0.0969    5.1700   -2.3259 H   0  0  0  0  0  0  0  0  0  0  0  0
   -1.5519    5.6252   -4.5125 H   0  0  0  0  0  0  0  0  0  0  0  0
   -2.8692    5.4352   -3.3062 H   0  0  0  0  0  0  0  0  0  0  0  0
   -1.6506    6.7399   -3.1074 H   0  0  0  0  0  0  0  0  0  0  0  0
  1  3  1  0  0  0  0
  1  7  1  0  0  0  0
  1  2  2  0  0  0  0
 29 30  1  0  0  0  0
 30 38  1  0  0  0  0
 30 31  2  0  0  0  0
  8  9  1  0  0  0  0
  9 17  1  0  0  0  0
  9 10  2  0  0  0  0
 18 19  1  0  0  0  0
 19 28  1  0  0  0  0
 19 20  2  0  0  0  0
 29 32  1  0  0  0  0
  8 11  1  0  0  0  0
 38 39  1  0  0  0  0
 18 21  1  0  0  0  0
 21 22  1  0  0  0  0
 28 29  1  0  0  0  0
  7  8  1  0  0  0  0
 17 18  1  0  0  0  0
  3  4  1  0  0  0  0
  3  5  1  0  0  0  0
  3  6  1  0  0  0  0
 32 35  1  0  0  0  0
 32 36  1  0  0  0  0
 32 37  1  0  0  0  0
 11 14  1  0  0  0  0
 11 15  1  0  0  0  0
 11 16  1  0  0  0  0
 39 41  1  0  0  0  0
 39 42  1  0  0  0  0
 39 43  1  0  0  0  0
 21 25  1  0  0  0  0
 21 26  1  0  0  0  0
 29 34  1  0  0  0  0
  8 13  1  0  0  0  0
 18 24  1  0  0  0  0
 38 40  1  0  0  0  0
  7 12  1  0  0  0  0
 28 33  1  0  0  0  0
 17 23  1  0  0  0  0
 22 27  1  0  0  0  0
M  END
$$$$

  -OEChem-05262214473D

 43 42  0     1  0  0  0  0  0999 V2000
    0.7424   -1.0926    4.5665 C   0  0  0  0  0  0  0  0  0  0  0  0
    0.1409   -0.5364    5.4779 O   0  0  0  0  0  0  0  0  0  0  0  0
    1.7940   -2.1023    4.8871 C   0  0  0  0  0  0  0  0  0  0  0  0
    2.7935   -1.6502    4.9904 H   0  0  0  0  0  0  0  0  0  0  0  0
    1.6064   -2.6156    5.8438 H   0  0  0  0  0  0  0  0  0  0  0  0
    1.9156   -2.9078    4.1453 H   0  0  0  0  0  0  0  0  0  0  0  0
    0.5488   -0.8838    3.2109 N   0  0  0  0  0  0  0  0  0  0  0  0
   -0.4159    0.0446    2.6829 C   0  0  2  0  0  0  0  0  0  0  0  0
   -0.7551   -0.3867    1.2623 C   0  0  0  0  0  0  0  0  0  0  0  0
   -0.0106   -1.0851    0.5774 O   0  0  0  0  0  0  0  0  0  0  0  0
    0.1168    1.4689    2.7060 C   0  0  0  0  0  0  0  0  0  0  0  0
    1.1183   -1.4145    2.5542 H   0  0  0  0  0  0  0  0  0  0  0  0
   -1.3088   -0.0350    3.3125 H   0  0  0  0  0  0  0  0  0  0  0  0
    1.0116    1.5681    2.0808 H   0  0  0  0  0  0  0  0  0  0  0  0
   -0.6289    2.1775    2.3307 H   0  0  0  0  0  0  0  0  0  0  0  0
    0.3882    1.7670    3.7245 H   0  0  0  0  0  0  0  0  0  0  0  0
   -1.9689    0.1350    0.8298 N   0  0  0  0  0  0  0  0  0  0  0  0
   -2.5039   -0.1183   -0.4830 C   0  0  2  0  0  0  0  0  0  0  0  0
   -1.9972    0.9703   -1.4227 C   0  0  0  0  0  0  0  0  0  0  0  0
   -2.6483    1.3864   -2.3788 O   0  0  0  0  0  0  0  0  0  0  0  0
   -4.0272   -0.1945   -0.4667 C   0  0  0  0  0  0  0  0  0  0  0  0
   -4.5805    1.0734   -0.1325 O   0  0  0  0  0  0  0  0  0  0  0  0
   -2.5276    0.6894    1.4750 H   0  0  0  0  0  0  0  0  0  0  0  0
   -2.0922   -1.0824   -0.8030 H   0  0  0  0  0  0  0  0  0  0  0  0
   -4.3767   -0.9226    0.2724 H   0  0  0  0  0  0  0  0  0  0  0  0
   -4.4089   -0.4833   -1.4517 H   0  0  0  0  0  0  0  0  0  0  0  0
   -4.2788    1.6966   -0.8124 H   0  0  0  0  0  0  0  0  0  0  0  0
   -0.7525    1.4512   -1.0418 N   0  0  0  0  0  0  0  0  0  0  0  0
   -0.0709    2.5079   -1.7527 C   0  0  2  0  0  0  0  0  0  0  0  0
   -1.1234    3.4712   -2.2854 C   0  0  0  0  0  0  0  0  0  0  0  0
   -2.2957    3.1499   -2.4680 O   0  0  0  0  0  0  0  0  0  0  0  0
    0.7810    1.9537   -2.8841 C   0  0  0  0  0  0  0  0  0  0  0  0
   -0.3045    1.0747   -0.2116 H   0  0  0  0  0  0  0  0  0  0  0  0
    0.5612    3.0241   -1.0220 H   0  0  0  0  0  0  0  0  0  0  0  0
    0.1650    1.4328   -3.6262 H   0  0  0  0  0  0  0  0  0  0  0  0
    1.3192    2.7532   -3.4038 H   0  0  0  0  0  0  0  0  0  0  0  0
    1.5178    1.2384   -2.5028 H   0  0  0  0  0  0  0  0  0  0  0  0
   -0.5900    4.7197   -2.5736 N   0  0  0  0  0  0  0  0  0  0  0  0
   -1.3842    5.8035   -3.1032 C   0  0  0  0  0  0  0  0  0  0  0  0
    0.3887    4.9033   -2.3730 H   0  0  0  0  0  0  0  0  0  0  0  0
   -1.3347    5.7921   -4.2020 H   0  0  0  0  0  0  0  0  0  0  0  0
   -2.4294    5.6829   -2.7822 H   0  0  0  0  0  0  0  0  0  0  0  0
   -0.9938    6.7612   -2.7286 H   0  0  0  0  0  0  0  0  0  0  0  0
  1  3  1  0  0  0  0
  1  7  1  0  0  0  0
  1  2  2  0  0  0  0
 29 30  1  0  0  0  0
 30 38  1  0  0  0  0
 30 31  2  0  0  0  0
  8  9  1  0  0  0  0
  9 17  1  0  0  0  0
  9 10  2  0  0  0  0
 18 19  1  0  0  0  0
 19 28  1  0  0  0  0
 19 20  2  0  0  0  0
 29 32  1  0  0  0  0
  8 11  1  0  0  0  0
 38 39  1  0  0  0  0
 18 21  1  0  0  0  0
 21 22  1  0  0  0  0
 28 29  1  0  0  0  0
  7  8  1  0  0  0  0
 17 18  1  0  0  0  0
  3  4  1  0  0  0  0
  3  5  1  0  0  0  0
  3  6  1  0  0  0  0
 32 35  1  0  0  0  0
 32 36  1  0  0  0  0
 32 37  1  0  0  0  0
 11 14  1  0  0  0  0
 11 15  1  0  0  0  0
 11 16  1  0  0  0  0
 39 41  1  0  0  0  0
 39 42  1  0  0  0  0
 39 43  1  0  0  0  0
 21 25  1  0  0  0  0
 21 26  1  0  0  0  0
 29 34  1  0  0  0  0
  8 13  1  0  0  0  0
 18 24  1  0  0  0  0
 38 40  1  0  0  0  0
  7 12  1  0  0  0  0
 28 33  1  0  0  0  0
 17 23  1  0  0  0  0
 22 27  1  0  0  0  0
M  END
$$$$

  -OEChem-05262214473D

 43 42  0     1  0  0  0  0  0999 V2000
    0.7424   -1.0926    4.5665 C   0  0  0  0  0  0  0  0  0  0  0  0
    0.1409   -0.5364    5.4779 O   0  0  0  0  0  0  0  0  0  0  0  0
    1.7940   -2.1023    4.8871 C   0  0  0  0  0  0  0  0  0  0  0  0
    2.7935   -1.6502    4.9904 H   0  0  0  0  0  0  0  0  0  0  0  0
    1.6064   -2.6156    5.8438 H   0  0  0  0  0  0  0  0  0  0  0  0
    1.9156   -2.9078    4.1453 H   0  0  0  0  0  0  0  0  0  0  0  0
    0.5488   -0.8838    3.2109 N   0  0  0  0  0  0  0  0  0  0  0  0
   -0.4159    0.0446    2.6829 C   0  0  2  0  0  0  0  0  0  0  0  0
   -0.7551   -0.3867    1.2623 C   0  0  0  0  0  0  0  0  0  0  0  0
   -0.0106   -1.0851    0.5774 O   0  0  0  0  0  0  0  0  0  0  0  0
    0.1168    1.4689    2.7060 C   0  0  0  0  0  0  0  0  0  0  0  0
    1.1183   -1.4145    2.5542 H   0  0  0  0  0  0  0  0  0  0  0  0
   -1.3088   -0.0350    3.3125 H   0  0  0  0  0  0  0  0  0  0  0  0
    1.0116    1.5681    2.0808 H   0  0  0  0  0  0  0  0  0  0  0  0
   -0.6289    2.1775    2.3307 H   0  0  0  0  0  0  0  0  0  0  0  0
    0.3882    1.7670    3.7245 H   0  0  0  0  0  0  0  0  0  0  0  0
   -1.9689    0.1350    0.8298 N   0  0  0  0  0  0  0  0  0  0  0  0
   -2.5039   -0.1183   -0.4830 C   0  0  2  0  0  0  0  0  0  0  0  0
   -1.9972    0.9703   -1.4227 C   0  0  0  0  0  0  0  0  0  0  0  0
   -2.7288    1.5746   -2.2042 O   0  0  0  0  0  0  0  0  0  0  0  0
   -4.0272   -0.1945   -0.4667 C   0  0  0  0  0  0  0  0  0  0  0  0
   -4.5805    1.0734   -0.1325 O   0  0  0  0  0  0  0  0  0  0  0  0
   -2.5276    0.6894    1.4750 H   0  0  0  0  0  0  0  0  0  0  0  0
   -2.0922   -1.0824   -0.8030 H   0  0  0  0  0  0  0  0  0  0  0  0
   -4.3767   -0.9226    0.2724 H   0  0  0  0  0  0  0  0  0  0  0  0
   -4.4089   -0.4833   -1.4517 H   0  0  0  0  0  0  0  0  0  0  0  0
   -4.2788    1.6966   -0.8124 H   0  0  0  0  0  0  0  0  0  0  0  0
   -0.6419    1.2162   -1.2544 N   0  0  0  0  0  0  0  0  0  0  0  0
    0.0697    2.2238   -2.0060 C   0  0  2  0  0  0  0  0  0  0  0  0
   -0.8841    3.3843   -2.2571 C   0  0  0  0  0  0  0  0  0  0  0  0
   -2.1073    3.2643   -2.2339 O   0  0  0  0  0  0  0  0  0  0  0  0
    0.6017    1.6642   -3.3161 C   0  0  0  0  0  0  0  0  0  0  0  0
   -0.1230    0.6943   -0.5544 H   0  0  0  0  0  0  0  0  0  0  0  0
    0.8991    2.5620   -1.3752 H   0  0  0  0  0  0  0  0  0  0  0  0
   -0.2149    1.3202   -3.9614 H   0  0  0  0  0  0  0  0  0  0  0  0
    1.1652    2.4213   -3.8713 H   0  0  0  0  0  0  0  0  0  0  0  0
    1.2641    0.8108   -3.1350 H   0  0  0  0  0  0  0  0  0  0  0  0
   -0.2089    4.5602   -2.5529 N   0  0  0  0  0  0  0  0  0  0  0  0
   -0.8916    5.7996   -2.8420 C   0  0  0  0  0  0  0  0  0  0  0  0
    0.8066    4.5723   -2.5311 H   0  0  0  0  0  0  0  0  0  0  0  0
   -1.0409    5.8920   -3.9280 H   0  0  0  0  0  0  0  0  0  0  0  0
   -1.8682    5.8069   -2.3359 H   0  0  0  0  0  0  0  0  0  0  0  0
   -0.2859    6.6444   -2.4822 H   0  0  0  0  0  0  0  0  0  0  0  0
  1  3  1  0  0  0  0
  1  7  1  0  0  0  0
  1  2  2  0  0  0  0
 29 30  1  0  0  0  0
 30 38  1  0  0  0  0
 30 31  2  0  0  0  0
  8  9  1  0  0  0  0
  9 17  1  0  0  0  0
  9 10  2  0  0  0  0
 18 19  1  0  0  0  0
 19 28  1  0  0  0  0
 19 20  2  0  0  0  0
 29 32  1  0  0  0  0
  8 11  1  0  0  0  0
 38 39  1  0  0  0  0
 18 21  1  0  0  0  0
 21 22  1  0  0  0  0
 28 29  1  0  0  0  0
  7  8  1  0  0  0  0
 17 18  1  0  0  0  0
  3  4  1  0  0  0  0
  3  5  1  0  0  0  0
  3  6  1  0  0  0  0
 32 35  1  0  0  0  0
 32 36  1  0  0  0  0
 32 37  1  0  0  0  0
 11 14  1  0  0  0  0
 11 15  1  0  0  0  0
 11 16  1  0  0  0  0
 39 41  1  0  0  0  0
 39 42  1  0  0  0  0
 39 43  1  0  0  0  0
 21 25  1  0  0  0  0
 21 26  1  0  0  0  0
 29 34  1  0  0  0  0
  8 13  1  0  0  0  0
 18 24  1  0  0  0  0
 38 40  1  0  0  0  0
  7 12  1  0  0  0  0
 28 33  1  0  0  0  0
 17 23  1  0  0  0  0
 22 27  1  0  0  0  0
M  END
$$$$

  -OEChem-05262214473D

 43 42  0     1  0  0  0  0  0999 V2000
    0.7424   -1.0926    4.5665 C   0  0  0  0  0  0  0  0  0  0  0  0
    0.1409   -0.5364    5.4779 O   0  0  0  0  0  0  0  0  0  0  0  0
    1.7940   -2.1023    4.8871 C   0  0  0  0  0  0  0  0  0  0  0  0
    2.7935   -1.6502    4.9904 H   0  0  0  0  0  0  0  0  0  0  0  0
    1.6064   -2.6156    5.8438 H   0  0  0  0  0  0  0  0  0  0  0  0
    1.9156   -2.9078    4.1453 H   0  0  0  0  0  0  0  0  0  0  0  0
    0.5488   -0.8838    3.2109 N   0  0  0  0  0  0  0  0  0  0  0  0
   -0.4159    0.0446    2.6829 C   0  0  2  0  0  0  0  0  0  0  0  0
   -0.7551   -0.3867    1.2623 C   0  0  0  0  0  0  0  0  0  0  0  0
   -0.0106   -1.0851    0.5774 O   0  0  0  0  0  0  0  0  0  0  0  0
    0.1168    1.4689    2.7060 C   0  0  0  0  0  0  0  0  0  0  0  0
    1.1183   -1.4145    2.5542 H   0  0  0  0  0  0  0  0  0  0  0  0
   -1.3088   -0.0350    3.3125 H   0  0  0  0  0  0  0  0  0  0  0  0
    1.0116    1.5681    2.0808 H   0  0  0  0  0  0  0  0  0  0  0  0
   -0.6289    2.1775    2.3307 H   0  0  0  0  0  0  0  0  0  0  0  0
    0.3882    1.7670    3.7245 H   0  0  0  0  0  0  0  0  0  0  0  0
   -1.9689    0.1350    0.8298 N   0  0  0  0  0  0  0  0  0  0  0  0
   -2.5039   -0.1183   -0.4830 C   0  0  2  0  0  0  0  0  0  0  0  0
   -1.9972    0.9703   -1.4227 C   0  0  0  0  0  0  0  0  0  0  0  0
   -2.7444    1.7542   -2.0045 O   0  0  0  0  0  0  0  0  0  0  0  0
   -4.0272   -0.1945   -0.4667 C   0  0  0  0  0  0  0  0  0  0  0  0
   -4.5805    1.0734   -0.1325 O   0  0  0  0  0  0  0  0  0  0  0  0
   -2.5276    0.6894    1.4750 H   0  0  0  0  0  0  0  0  0  0  0  0
   -2.0922   -1.0824   -0.8030 H   0  0  0  0  0  0  0  0  0  0  0  0
   -4.3767   -0.9226    0.2724 H   0  0  0  0  0  0  0  0  0  0  0  0
   -4.4089   -0.4833   -1.4517 H   0  0  0  0  0  0  0  0  0  0  0  0
   -4.2788    1.6966   -0.8124 H   0  0  0  0  0  0  0  0  0  0  0  0
   -0.6118    0.9899   -1.5004 N   0  0  0  0  0  0  0  0  0  0  0  0
    0.1134    1.9488   -2.3010 C   0  0  2  0  0  0  0  0  0  0  0  0
   -0.6617    3.2597   -2.2815 C   0  0  0  0  0  0  0  0  0  0  0  0
   -1.8637    3.3245   -2.0327 O   0  0  0  0  0  0  0  0  0  0  0  0
    0.3025    1.4503   -3.7252 C   0  0  0  0  0  0  0  0  0  0  0  0
   -0.0716    0.3274   -0.9517 H   0  0  0  0  0  0  0  0  0  0  0  0
    1.0865    2.0920   -1.8186 H   0  0  0  0  0  0  0  0  0  0  0  0
   -0.6617    1.3009   -4.2247 H   0  0  0  0  0  0  0  0  0  0  0  0
    0.8771    2.1655   -4.3230 H   0  0  0  0  0  0  0  0  0  0  0  0
    0.8340    0.4926   -3.7356 H   0  0  0  0  0  0  0  0  0  0  0  0
    0.1376    4.3436   -2.6170 N   0  0  0  0  0  0  0  0  0  0  0  0
   -0.3682    5.6949   -2.6811 C   0  0  0  0  0  0  0  0  0  0  0  0
    1.1281    4.1995   -2.7896 H   0  0  0  0  0  0  0  0  0  0  0  0
   -0.6905    5.9180   -3.7089 H   0  0  0  0  0  0  0  0  0  0  0  0
   -1.2240    5.7988   -1.9979 H   0  0  0  0  0  0  0  0  0  0  0  0
    0.4248    6.3975   -2.3851 H   0  0  0  0  0  0  0  0  0  0  0  0
  1  3  1  0  0  0  0
  1  7  1  0  0  0  0
  1  2  2  0  0  0  0
 29 30  1  0  0  0  0
 30 38  1  0  0  0  0
 30 31  2  0  0  0  0
  8  9  1  0  0  0  0
  9 17  1  0  0  0  0
  9 10  2  0  0  0  0
 18 19  1  0  0  0  0
 19 28  1  0  0  0  0
 19 20  2  0  0  0  0
 29 32  1  0  0  0  0
  8 11  1  0  0  0  0
 38 39  1  0  0  0  0
 18 21  1  0  0  0  0
 21 22  1  0  0  0  0
 28 29  1  0  0  0  0
  7  8  1  0  0  0  0
 17 18  1  0  0  0  0
  3  4  1  0  0  0  0
  3  5  1  0  0  0  0
  3  6  1  0  0  0  0
 32 35  1  0  0  0  0
 32 36  1  0  0  0  0
 32 37  1  0  0  0  0
 11 14  1  0  0  0  0
 11 15  1  0  0  0  0
 11 16  1  0  0  0  0
 39 41  1  0  0  0  0
 39 42  1  0  0  0  0
 39 43  1  0  0  0  0
 21 25  1  0  0  0  0
 21 26  1  0  0  0  0
 29 34  1  0  0  0  0
  8 13  1  0  0  0  0
 18 24  1  0  0  0  0
 38 40  1  0  0  0  0
  7 12  1  0  0  0  0
 28 33  1  0  0  0  0
 17 23  1  0  0  0  0
 22 27  1  0  0  0  0
M  END
$$$$

  -OEChem-05262214473D

 43 42  0     1  0  0  0  0  0999 V2000
    0.7424   -1.0926    4.5665 C   0  0  0  0  0  0  0  0  0  0  0  0
    0.1409   -0.5364    5.4779 O   0  0  0  0  0  0  0  0  0  0  0  0
    1.7940   -2.1023    4.8871 C   0  0  0  0  0  0  0  0  0  0  0  0
    2.7935   -1.6502    4.9904 H   0  0  0  0  0  0  0  0  0  0  0  0
    1.6064   -2.6156    5.8438 H   0  0  0  0  0  0  0  0  0  0  0  0
    1.9156   -2.9078    4.1453 H   0  0  0  0  0  0  0  0  0  0  0  0
    0.5488   -0.8838    3.2109 N   0  0  0  0  0  0  0  0  0  0  0  0
   -0.4159    0.0446    2.6829 C   0  0  2  0  0  0  0  0  0  0  0  0
   -0.7551   -0.3867    1.2623 C   0  0  0  0  0  0  0  0  0  0  0  0
   -0.0106   -1.0851    0.5774 O   0  0  0  0  0  0  0  0  0  0  0  0
    0.1168    1.4689    2.7060 C   0  0  0  0  0  0  0  0  0  0  0  0
    1.1183   -1.4145    2.5542 H   0  0  0  0  0  0  0  0  0  0  0  0
   -1.3088   -0.0350    3.3125 H   0  0  0  0  0  0  0  0  0  0  0  0
    1.0116    1.5681    2.0808 H   0  0  0  0  0  0  0  0  0  0  0  0
   -0.6289    2.1775    2.3307 H   0  0  0  0  0  0  0  0  0  0  0  0
    0.3882    1.7670    3.7245 H   0  0  0  0  0  0  0  0  0  0  0  0
   -1.9689    0.1350    0.8298 N   0  0  0  0  0  0  0  0  0  0  0  0
   -2.5039   -0.1183   -0.4830 C   0  0  2  0  0  0  0  0  0  0  0  0
   -1.9972    0.9703   -1.4227 C   0  0  0  0  0  0  0  0  0  0  0  0
   -2.6938    1.9130   -1.7933 O   0  0  0  0  0  0  0  0  0  0  0  0
   -4.0272   -0.1945   -0.4667 C   0  0  0  0  0  0  0  0  0  0  0  0
   -4.5805    1.0734   -0.1325 O   0  0  0  0  0  0  0  0  0  0  0  0
   -2.5276    0.6894    1.4750 H   0  0  0  0  0  0  0  0  0  0  0  0
   -2.0922   -1.0824   -0.8030 H   0  0  0  0  0  0  0  0  0  0  0  0
   -4.3767   -0.9226    0.2724 H   0  0  0  0  0  0  0  0  0  0  0  0
   -4.4089   -0.4833   -1.4517 H   0  0  0  0  0  0  0  0  0  0  0  0
   -4.2788    1.6966   -0.8124 H   0  0  0  0  0  0  0  0  0  0  0  0
   -0.6644    0.7876   -1.7631 N   0  0  0  0  0  0  0  0  0  0  0  0
    0.0573    1.7016   -2.6177 C   0  0  2  0  0  0  0  0  0  0  0  0
   -0.4712    3.1059   -2.3569 C   0  0  0  0  0  0  0  0  0  0  0  0
   -1.5817    3.3266   -1.8783 O   0  0  0  0  0  0  0  0  0  0  0  0
   -0.0962    1.3266   -4.0835 C   0  0  0  0  0  0  0  0  0  0  0  0
   -0.1540   -0.0010   -1.3766 H   0  0  0  0  0  0  0  0  0  0  0  0
    1.1106    1.6463   -2.3220 H   0  0  0  0  0  0  0  0  0  0  0  0
   -1.1450    1.3762   -4.3981 H   0  0  0  0  0  0  0  0  0  0  0  0
    0.4746    2.0032   -4.7280 H   0  0  0  0  0  0  0  0  0  0  0  0
    0.2569    0.3054   -4.2636 H   0  0  0  0  0  0  0  0  0  0  0  0
    0.4258    4.0846   -2.7616 N   0  0  0  0  0  0  0  0  0  0  0  0
    0.1505    5.4964   -2.6314 C   0  0  0  0  0  0  0  0  0  0  0  0
    1.3315    3.8104   -3.1307 H   0  0  0  0  0  0  0  0  0  0  0  0
   -0.3074    5.8683   -3.5598 H   0  0  0  0  0  0  0  0  0  0  0  0
   -0.5405    5.6591   -1.7911 H   0  0  0  0  0  0  0  0  0  0  0  0
    1.0898    6.0373   -2.4438 H   0  0  0  0  0  0  0  0  0  0  0  0
  1  3  1  0  0  0  0
  1  7  1  0  0  0  0
  1  2  2  0  0  0  0
 29 30  1  0  0  0  0
 30 38  1  0  0  0  0
 30 31  2  0  0  0  0
  8  9  1  0  0  0  0
  9 17  1  0  0  0  0
  9 10  2  0  0  0  0
 18 19  1  0  0  0  0
 19 28  1  0  0  0  0
 19 20  2  0  0  0  0
 29 32  1  0  0  0  0
  8 11  1  0  0  0  0
 38 39  1  0  0  0  0
 18 21  1  0  0  0  0
 21 22  1  0  0  0  0
 28 29  1  0  0  0  0
  7  8  1  0  0  0  0
 17 18  1  0  0  0  0
  3  4  1  0  0  0  0
  3  5  1  0  0  0  0
  3  6  1  0  0  0  0
 32 35  1  0  0  0  0
 32 36  1  0  0  0  0
 32 37  1  0  0  0  0
 11 14  1  0  0  0  0
 11 15  1  0  0  0  0
 11 16  1  0  0  0  0
 39 41  1  0  0  0  0
 39 42  1  0  0  0  0
 39 43  1  0  0  0  0
 21 25  1  0  0  0  0
 21 26  1  0  0  0  0
 29 34  1  0  0  0  0
  8 13  1  0  0  0  0
 18 24  1  0  0  0  0
 38 40  1  0  0  0  0
  7 12  1  0  0  0  0
 28 33  1  0  0  0  0
 17 23  1  0  0  0  0
 22 27  1  0  0  0  0
M  END
$$$$

  -OEChem-05262214473D

 43 42  0     1  0  0  0  0  0999 V2000
    0.7424   -1.0926    4.5665 C   0  0  0  0  0  0  0  0  0  0  0  0
    0.1409   -0.5364    5.4779 O   0  0  0  0  0  0  0  0  0  0  0  0
    1.7940   -2.1023    4.8871 C   0  0  0  0  0  0  0  0  0  0  0  0
    2.7935   -1.6502    4.9904 H   0  0  0  0  0  0  0  0  0  0  0  0
    1.6064   -2.6156    5.8438 H   0  0  0  0  0  0  0  0  0  0  0  0
    1.9156   -2.9078    4.1453 H   0  0  0  0  0  0  0  0  0  0  0  0
    0.5488   -0.8838    3.2109 N   0  0  0  0  0  0  0  0  0  0  0  0
   -0.4159    0.0446    2.6829 C   0  0  2  0  0  0  0  0  0  0  0  0
   -0.7551   -0.3867    1.2623 C   0  0  0  0  0  0  0  0  0  0  0  0
   -0.0106   -1.0851    0.5774 O   0  0  0  0  0  0  0  0  0  0  0  0
    0.1168    1.4689    2.7060 C   0  0  0  0  0  0  0  0  0  0  0  0
    1.1183   -1.4145    2.5542 H   0  0  0  0  0  0  0  0  0  0  0  0
   -1.3088   -0.0350    3.3125 H   0  0  0  0  0  0  0  0  0  0  0  0
    1.0116    1.5681    2.0808 H   0  0  0  0  0  0  0  0  0  0  0  0
   -0.6289    2.1775    2.3307 H   0  0  0  0  0  0  0  0  0  0  0  0
    0.3882    1.7670    3.7245 H   0  0  0  0  0  0  0  0  0  0  0  0
   -1.9689    0.1350    0.8298 N   0  0  0  0  0  0  0  0  0  0  0  0
   -2.5039   -0.1183   -0.4830 C   0  0  2  0  0  0  0  0  0  0  0  0
   -1.9972    0.9703   -1.4227 C   0  0  0  0  0  0  0  0  0  0  0  0
   -2.5806    2.0401   -1.5849 O   0  0  0  0  0  0  0  0  0  0  0  0
   -4.0272   -0.1945   -0.4667 C   0  0  0  0  0  0  0  0  0  0  0  0
   -4.5805    1.0734   -0.1325 O   0  0  0  0  0  0  0  0  0  0  0  0
   -2.5276    0.6894    1.4750 H   0  0  0  0  0  0  0  0  0  0  0  0
   -2.0922   -1.0824   -0.8030 H   0  0  0  0  0  0  0  0  0  0  0  0
   -4.3767   -0.9226    0.2724 H   0  0  0  0  0  0  0  0  0  0  0  0
   -4.4089   -0.4833   -1.4517 H   0  0  0  0  0  0  0  0  0  0  0  0
   -4.2788    1.6966   -0.8124 H   0  0  0  0  0  0  0  0  0  0  0  0
   -0.7959    0.6232   -2.0245 N   0  0  0  0  0  0  0  0  0  0  0  0
   -0.0949    1.4990   -2.9345 C   0  0  2  0  0  0  0  0  0  0  0  0
   -0.3256    2.9335   -2.4782 C   0  0  0  0  0  0  0  0  0  0  0  0
   -1.2804    3.2703   -1.7810 O   0  0  0  0  0  0  0  0  0  0  0  0
   -0.5672    1.3015   -4.3665 C   0  0  0  0  0  0  0  0  0  0  0  0
   -0.3644   -0.2685   -1.8000 H   0  0  0  0  0  0  0  0  0  0  0  0
    0.9698    1.2553   -2.8509 H   0  0  0  0  0  0  0  0  0  0  0  0
   -1.6319    1.5408   -4.4699 H   0  0  0  0  0  0  0  0  0  0  0  0
   -0.0150    1.9455   -5.0588 H   0  0  0  0  0  0  0  0  0  0  0  0
   -0.4280    0.2621   -4.6830 H   0  0  0  0  0  0  0  0  0  0  0  0
    0.6362    3.8009   -2.9768 N   0  0  0  0  0  0  0  0  0  0  0  0
    0.6290    5.2177   -2.6963 C   0  0  0  0  0  0  0  0  0  0  0  0
    1.4029    3.4314   -3.5313 H   0  0  0  0  0  0  0  0  0  0  0  0
    0.0822    5.7465   -3.4909 H   0  0  0  0  0  0  0  0  0  0  0  0
    0.1357    5.3974   -1.7297 H   0  0  0  0  0  0  0  0  0  0  0  0
    1.6638    5.5883   -2.6544 H   0  0  0  0  0  0  0  0  0  0  0  0
  1  3  1  0  0  0  0
  1  7  1  0  0  0  0
  1  2  2  0  0  0  0
 29 30  1  0  0  0  0
 30 38  1  0  0  0  0
 30 31  2  0  0  0  0
  8  9  1  0  0  0  0
  9 17  1  0  0  0  0
  9 10  2  0  0  0  0
 18 19  1  0  0  0  0
 19 28  1  0  0  0  0
 19 20  2  0  0  0  0
 29 32  1  0  0  0  0
  8 11  1  0  0  0  0
 38 39  1  0  0  0  0
 18 21  1  0  0  0  0
 21 22  1  0  0  0  0
 28 29  1  0  0  0  0
  7  8  1  0  0  0  0
 17 18  1  0  0  0  0
  3  4  1  0  0  0  0
  3  5  1  0  0  0  0
  3  6  1  0  0  0  0
 32 35  1  0  0  0  0
 32 36  1  0  0  0  0
 32 37  1  0  0  0  0
 11 14  1  0  0  0  0
 11 15  1  0  0  0  0
 11 16  1  0  0  0  0
 39 41  1  0  0  0  0
 39 42  1  0  0  0  0
 39 43  1  0  0  0  0
 21 25  1  0  0  0  0
 21 26  1  0  0  0  0
 29 34  1  0  0  0  0
  8 13  1  0  0  0  0
 18 24  1  0  0  0  0
 38 40  1  0  0  0  0
  7 12  1  0  0  0  0
 28 33  1  0  0  0  0
 17 23  1  0  0  0  0
 22 27  1  0  0  0  0
M  END
$$$$

  -OEChem-05262214473D

 43 42  0     1  0  0  0  0  0999 V2000
    0.7424   -1.0926    4.5665 C   0  0  0  0  0  0  0  0  0  0  0  0
    0.1409   -0.5364    5.4779 O   0  0  0  0  0  0  0  0  0  0  0  0
    1.7940   -2.1023    4.8871 C   0  0  0  0  0  0  0  0  0  0  0  0
    2.7935   -1.6502    4.9904 H   0  0  0  0  0  0  0  0  0  0  0  0
    1.6064   -2.6156    5.8438 H   0  0  0  0  0  0  0  0  0  0  0  0
    1.9156   -2.9078    4.1453 H   0  0  0  0  0  0  0  0  0  0  0  0
    0.5488   -0.8838    3.2109 N   0  0  0  0  0  0  0  0  0  0  0  0
   -0.4159    0.0446    2.6829 C   0  0  2  0  0  0  0  0  0  0  0  0
   -0.7551   -0.3867    1.2623 C   0  0  0  0  0  0  0  0  0  0  0  0
   -0.0106   -1.0851    0.5774 O   0  0  0  0  0  0  0  0  0  0  0  0
    0.1168    1.4689    2.7060 C   0  0  0  0  0  0  0  0  0  0  0  0
    1.1183   -1.4145    2.5542 H   0  0  0  0  0  0  0  0  0  0  0  0
   -1.3088   -0.0350    3.3125 H   0  0  0  0  0  0  0  0  0  0  0  0
    1.0116    1.5681    2.0808 H   0  0  0  0  0  0  0  0  0  0  0  0
   -0.6289    2.1775    2.3307 H   0  0  0  0  0  0  0  0  0  0  0  0
    0.3882    1.7670    3.7245 H   0  0  0  0  0  0  0  0  0  0  0  0
   -1.9689    0.1350    0.8298 N   0  0  0  0  0  0  0  0  0  0  0  0
   -2.5039   -0.1183   -0.4830 C   0  0  2  0  0  0  0  0  0  0  0  0
   -1.9972    0.9703   -1.4227 C   0  0  0  0  0  0  0  0  0  0  0  0
   -2.4124    2.1270   -1.3936 O   0  0  0  0  0  0  0  0  0  0  0  0
   -4.0272   -0.1945   -0.4667 C   0  0  0  0  0  0  0  0  0  0  0  0
   -4.5805    1.0734   -0.1325 O   0  0  0  0  0  0  0  0  0  0  0  0
   -2.5276    0.6894    1.4750 H   0  0  0  0  0  0  0  0  0  0  0  0
   -2.0922   -1.0824   -0.8030 H   0  0  0  0  0  0  0  0  0  0  0  0
   -4.3767   -0.9226    0.2724 H   0  0  0  0  0  0  0  0  0  0  0  0
   -4.4089   -0.4833   -1.4517 H   0  0  0  0  0  0  0  0  0  0  0  0
   -4.2788    1.6966   -0.8124 H   0  0  0  0  0  0  0  0  0  0  0  0
   -0.9975    0.5079   -2.2668 N   0  0  0  0  0  0  0  0  0  0  0  0
   -0.3328    1.3548   -3.2298 C   0  0  2  0  0  0  0  0  0  0  0  0
   -0.2350    2.7542   -2.6370 C   0  0  0  0  0  0  0  0  0  0  0  0
   -0.9804    3.1596   -1.7475 O   0  0  0  0  0  0  0  0  0  0  0  0
   -1.0785    1.3768   -4.5551 C   0  0  0  0  0  0  0  0  0  0  0  0
   -0.6886   -0.4569   -2.1931 H   0  0  0  0  0  0  0  0  0  0  0  0
    0.6736    0.9455   -3.3695 H   0  0  0  0  0  0  0  0  0  0  0  0
   -2.0892    1.7838   -4.4350 H   0  0  0  0  0  0  0  0  0  0  0  0
   -0.5582    1.9963   -5.2929 H   0  0  0  0  0  0  0  0  0  0  0  0
   -1.1740    0.3656   -4.9653 H   0  0  0  0  0  0  0  0  0  0  0  0
    0.7545    3.5118   -3.2480 N   0  0  0  0  0  0  0  0  0  0  0  0
    1.0348    4.8777   -2.8714 C   0  0  0  0  0  0  0  0  0  0  0  0
    1.3374    3.0884   -3.9640 H   0  0  0  0  0  0  0  0  0  0  0  0
    0.4519    5.5607   -3.5068 H   0  0  0  0  0  0  0  0  0  0  0  0
    0.7584    5.0315   -1.8179 H   0  0  0  0  0  0  0  0  0  0  0  0
    2.1078    5.0812   -3.0025 H   0  0  0  0  0  0  0  0  0  0  0  0
  1  3  1  0  0  0  0
  1  7  1  0  0  0  0
  1  2  2  0  0  0  0
 29 30  1  0  0  0  0
 30 38  1  0  0  0  0
 30 31  2  0  0  0  0
  8  9  1  0  0  0  0
  9 17  1  0  0  0  0
  9 10  2  0  0  0  0
 18 19  1  0  0  0  0
 19 28  1  0  0  0  0
 19 20  2  0  0  0  0
 29 32  1  0  0  0  0
  8 11  1  0  0  0  0
 38 39  1  0  0  0  0
 18 21  1  0  0  0  0
 21 22  1  0  0  0  0
 28 29  1  0  0  0  0
  7  8  1  0  0  0  0
 17 18  1  0  0  0  0
  3  4  1  0  0  0  0
  3  5  1  0  0  0  0
  3  6  1  0  0  0  0
 32 35  1  0  0  0  0
 32 36  1  0  0  0  0
 32 37  1  0  0  0  0
 11 14  1  0  0  0  0
 11 15  1  0  0  0  0
 11 16  1  0  0  0  0
 39 41  1  0  0  0  0
 39 42  1  0  0  0  0
 39 43  1  0  0  0  0
 21 25  1  0  0  0  0
 21 26  1  0  0  0  0
 29 34  1  0  0  0  0
  8 13  1  0  0  0  0
 18 24  1  0  0  0  0
 38 40  1  0  0  0  0
  7 12  1  0  0  0  0
 28 33  1  0  0  0  0
 17 23  1  0  0  0  0
 22 27  1  0  0  0  0
M  END
$$$$

  -OEChem-05262214473D

 43 42  0     1  0  0  0  0  0999 V2000
    0.7424   -1.0926    4.5665 C   0  0  0  0  0  0  0  0  0  0  0  0
    0.1409   -0.5364    5.4779 O   0  0  0  0  0  0  0  0  0  0  0  0
    1.7940   -2.1023    4.8871 C   0  0  0  0  0  0  0  0  0  0  0  0
    2.7935   -1.6502    4.9904 H   0  0  0  0  0  0  0  0  0  0  0  0
    1.6064   -2.6156    5.8438 H   0  0  0  0  0  0  0  0  0  0  0  0
    1.9156   -2.9078    4.1453 H   0  0  0  0  0  0  0  0  0  0  0  0
    0.5488   -0.8838    3.2109 N   0  0  0  0  0  0  0  0  0  0  0  0
   -0.4159    0.0446    2.6829 C   0  0  2  0  0  0  0  0  0  0  0  0
   -0.7551   -0.3867    1.2623 C   0  0  0  0  0  0  0  0  0  0  0  0
   -0.0106   -1.0851    0.5774 O   0  0  0  0  0  0  0  0  0  0  0  0
    0.1168    1.4689    2.7060 C   0  0  0  0  0  0  0  0  0  0  0  0
    1.1183   -1.4145    2.5542 H   0  0  0  0  0  0  0  0  0  0  0  0
   -1.3088   -0.0350    3.3125 H   0  0  0  0  0  0  0  0  0  0  0  0
    1.0116    1.5681    2.0808 H   0  0  0  0  0  0  0  0  0  0  0  0
   -0.6289    2.1775    2.3307 H   0  0  0  0  0  0  0  0  0  0  0  0
    0.3882    1.7670    3.7245 H   0  0  0  0  0  0  0  0  0  0  0  0
   -1.9689    0.1350    0.8298 N   0  0  0  0  0  0  0  0  0  0  0  0
   -2.5039   -0.1183   -0.4830 C   0  0  2  0  0  0  0  0  0  0  0  0
   -1.9972    0.9703   -1.4227 C   0  0  0  0  0  0  0  0  0  0  0  0
   -2.2008    2.1676   -1.2325 O   0  0  0  0  0  0  0  0  0  0  0  0
   -4.0272   -0.1945   -0.4667 C   0  0  0  0  0  0  0  0  0  0  0  0
   -4.5805    1.0734   -0.1325 O   0  0  0  0  0  0  0  0  0  0  0  0
   -2.5276    0.6894    1.4750 H   0  0  0  0  0  0  0  0  0  0  0  0
   -2.0922   -1.0824   -0.8030 H   0  0  0  0  0  0  0  0  0  0  0  0
   -4.3767   -0.9226    0.2724 H   0  0  0  0  0  0  0  0  0  0  0  0
   -4.4089   -0.4833   -1.4517 H   0  0  0  0  0  0  0  0  0  0  0  0
   -4.2788    1.6966   -0.8124 H   0  0  0  0  0  0  0  0  0  0  0  0
   -1.2554    0.4495   -2.4735 N   0  0  0  0  0  0  0  0  0  0  0  0
   -0.6402    1.2788   -3.4835 C   0  0  2  0  0  0  0  0  0  0  0  0
   -0.2053    2.5802   -2.8226 C   0  0  0  0  0  0  0  0  0  0  0  0
   -0.7020    3.0018   -1.7802 O   0  0  0  0  0  0  0  0  0  0  0  0
   -1.5952    1.5472   -4.6362 C   0  0  0  0  0  0  0  0  0  0  0  0
   -1.1045   -0.5534   -2.5292 H   0  0  0  0  0  0  0  0  0  0  0  0
    0.2424    0.7381   -3.8423 H   0  0  0  0  0  0  0  0  0  0  0  0
   -2.4857    2.0883   -4.2960 H   0  0  0  0  0  0  0  0  0  0  0  0
   -1.1180    2.1522   -5.4142 H   0  0  0  0  0  0  0  0  0  0  0  0
   -1.9302    0.6089   -5.0913 H   0  0  0  0  0  0  0  0  0  0  0  0
    0.7724    3.2370   -3.5566 N   0  0  0  0  0  0  0  0  0  0  0  0
    1.3401    4.4996   -3.1448 C   0  0  0  0  0  0  0  0  0  0  0  0
    1.1394    2.8048   -4.3994 H   0  0  0  0  0  0  0  0  0  0  0  0
    0.7764    5.3237   -3.6064 H   0  0  0  0  0  0  0  0  0  0  0  0
    1.2852    4.5863   -2.0496 H   0  0  0  0  0  0  0  0  0  0  0  0
    2.3914    4.5505   -3.4644 H   0  0  0  0  0  0  0  0  0  0  0  0
  1  3  1  0  0  0  0
  1  7  1  0  0  0  0
  1  2  2  0  0  0  0
 29 30  1  0  0  0  0
 30 38  1  0  0  0  0
 30 31  2  0  0  0  0
  8  9  1  0  0  0  0
  9 17  1  0  0  0  0
  9 10  2  0  0  0  0
 18 19  1  0  0  0  0
 19 28  1  0  0  0  0
 19 20  2  0  0  0  0
 29 32  1  0  0  0  0
  8 11  1  0  0  0  0
 38 39  1  0  0  0  0
 18 21  1  0  0  0  0
 21 22  1  0  0  0  0
 28 29  1  0  0  0  0
  7  8  1  0  0  0  0
 17 18  1  0  0  0  0
  3  4  1  0  0  0  0
  3  5  1  0  0  0  0
  3  6  1  0  0  0  0
 32 35  1  0  0  0  0
 32 36  1  0  0  0  0
 32 37  1  0  0  0  0
 11 14  1  0  0  0  0
 11 15  1  0  0  0  0
 11 16  1  0  0  0  0
 39 41  1  0  0  0  0
 39 42  1  0  0  0  0
 39 43  1  0  0  0  0
 21 25  1  0  0  0  0
 21 26  1  0  0  0  0
 29 34  1  0  0  0  0
  8 13  1  0  0  0  0
 18 24  1  0  0  0  0
 38 40  1  0  0  0  0
  7 12  1  0  0  0  0
 28 33  1  0  0  0  0
 17 23  1  0  0  0  0
 22 27  1  0  0  0  0
M  END
$$$$

  -OEChem-05262214473D

 43 42  0     1  0  0  0  0  0999 V2000
    0.7424   -1.0926    4.5665 C   0  0  0  0  0  0  0  0  0  0  0  0
    0.1409   -0.5364    5.4779 O   0  0  0  0  0  0  0  0  0  0  0  0
    1.7940   -2.1023    4.8871 C   0  0  0  0  0  0  0  0  0  0  0  0
    2.7935   -1.6502    4.9904 H   0  0  0  0  0  0  0  0  0  0  0  0
    1.6064   -2.6156    5.8438 H   0  0  0  0  0  0  0  0  0  0  0  0
    1.9156   -2.9078    4.1453 H   0  0  0  0  0  0  0  0  0  0  0  0
    0.5488   -0.8838    3.2109 N   0  0  0  0  0  0  0  0  0  0  0  0
   -0.4159    0.0446    2.6829 C   0  0  2  0  0  0  0  0  0  0  0  0
   -0.7551   -0.3867    1.2623 C   0  0  0  0  0  0  0  0  0  0  0  0
   -0.0106   -1.0851    0.5774 O   0  0  0  0  0  0  0  0  0  0  0  0
    0.1168    1.4689    2.7060 C   0  0  0  0  0  0  0  0  0  0  0  0
    1.1183   -1.4145    2.5542 H   0  0  0  0  0  0  0  0  0  0  0  0
   -1.3088   -0.0350    3.3125 H   0  0  0  0  0  0  0  0  0  0  0  0
    1.0116    1.5681    2.0808 H   0  0  0  0  0  0  0  0  0  0  0  0
   -0.6289    2.1775    2.3307 H   0  0  0  0  0  0  0  0  0  0  0  0
    0.3882    1.7670    3.7245 H   0  0  0  0  0  0  0  0  0  0  0  0
   -1.9689    0.1350    0.8298 N   0  0  0  0  0  0  0  0  0  0  0  0
   -2.5039   -0.1183   -0.4830 C   0  0  2  0  0  0  0  0  0  0  0  0
   -1.9972    0.9703   -1.4227 C   0  0  0  0  0  0  0  0  0  0  0  0
   -1.9602    2.1592   -1.1124 O   0  0  0  0  0  0  0  0  0  0  0  0
   -4.0272   -0.1945   -0.4667 C   0  0  0  0  0  0  0  0  0  0  0  0
   -4.5805    1.0734   -0.1325 O   0  0  0  0  0  0  0  0  0  0  0  0
   -2.5276    0.6894    1.4750 H   0  0  0  0  0  0  0  0  0  0  0  0
   -2.0922   -1.0824   -0.8030 H   0  0  0  0  0  0  0  0  0  0  0  0
   -4.3767   -0.9226    0.2724 H   0  0  0  0  0  0  0  0  0  0  0  0
   -4.4089   -0.4833   -1.4517 H   0  0  0  0  0  0  0  0  0  0  0  0
   -4.2788    1.6966   -0.8124 H   0  0  0  0  0  0  0  0  0  0  0  0
   -1.5520    0.4520   -2.6305 N   0  0  0  0  0  0  0  0  0  0  0  0
   -0.9960    1.2763   -3.6783 C   0  0  2  0  0  0  0  0  0  0  0  0
   -0.2388    2.4234   -3.0223 C   0  0  0  0  0  0  0  0  0  0  0  0
   -0.4644    2.8079   -1.8768 O   0  0  0  0  0  0  0  0  0  0  0  0
   -2.0821    1.8013   -4.6044 C   0  0  0  0  0  0  0  0  0  0  0  0
   -1.5837   -0.5514   -2.7852 H   0  0  0  0  0  0  0  0  0  0  0  0
   -0.2947    0.6472   -4.2372 H   0  0  0  0  0  0  0  0  0  0  0  0
   -2.7944    2.4338   -4.0622 H   0  0  0  0  0  0  0  0  0  0  0  0
   -1.6563    2.4024   -5.4145 H   0  0  0  0  0  0  0  0  0  0  0  0
   -2.6451    0.9753   -5.0523 H   0  0  0  0  0  0  0  0  0  0  0  0
    0.6889    2.9953   -3.8817 N   0  0  0  0  0  0  0  0  0  0  0  0
    1.5242    4.1092   -3.4978 C   0  0  0  0  0  0  0  0  0  0  0  0
    0.8225    2.5998   -4.8077 H   0  0  0  0  0  0  0  0  0  0  0  0
    1.0336    5.0515   -3.7830 H   0  0  0  0  0  0  0  0  0  0  0  0
    1.6803    4.0922   -2.4090 H   0  0  0  0  0  0  0  0  0  0  0  0
    2.4954    4.0323   -4.0086 H   0  0  0  0  0  0  0  0  0  0  0  0
  1  3  1  0  0  0  0
  1  7  1  0  0  0  0
  1  2  2  0  0  0  0
 29 30  1  0  0  0  0
 30 38  1  0  0  0  0
 30 31  2  0  0  0  0
  8  9  1  0  0  0  0
  9 17  1  0  0  0  0
  9 10  2  0  0  0  0
 18 19  1  0  0  0  0
 19 28  1  0  0  0  0
 19 20  2  0  0  0  0
 29 32  1  0  0  0  0
  8 11  1  0  0  0  0
 38 39  1  0  0  0  0
 18 21  1  0  0  0  0
 21 22  1  0  0  0  0
 28 29  1  0  0  0  0
  7  8  1  0  0  0  0
 17 18  1  0  0  0  0
  3  4  1  0  0  0  0
  3  5  1  0  0  0  0
  3  6  1  0  0  0  0
 32 35  1  0  0  0  0
 32 36  1  0  0  0  0
 32 37  1  0  0  0  0
 11 14  1  0  0  0  0
 11 15  1  0  0  0  0
 11 16  1  0  0  0  0
 39 41  1  0  0  0  0
 39 42  1  0  0  0  0
 39 43  1  0  0  0  0
 21 25  1  0  0  0  0
 21 26  1  0  0  0  0
 29 34  1  0  0  0  0
  8 13  1  0  0  0  0
 18 24  1  0  0  0  0
 38 40  1  0  0  0  0
  7 12  1  0  0  0  0
 28 33  1  0  0  0  0
 17 23  1  0  0  0  0
 22 27  1  0  0  0  0
M  END
$$$$

  -OEChem-05262214473D

 43 42  0     1  0  0  0  0  0999 V2000
    0.7424   -1.0926    4.5665 C   0  0  0  0  0  0  0  0  0  0  0  0
    0.1409   -0.5364    5.4779 O   0  0  0  0  0  0  0  0  0  0  0  0
    1.7940   -2.1023    4.8871 C   0  0  0  0  0  0  0  0  0  0  0  0
    2.7935   -1.6502    4.9904 H   0  0  0  0  0  0  0  0  0  0  0  0
    1.6064   -2.6156    5.8438 H   0  0  0  0  0  0  0  0  0  0  0  0
    1.9156   -2.9078    4.1453 H   0  0  0  0  0  0  0  0  0  0  0  0
    0.5488   -0.8838    3.2109 N   0  0  0  0  0  0  0  0  0  0  0  0
   -0.4159    0.0446    2.6829 C   0  0  2  0  0  0  0  0  0  0  0  0
   -0.7551   -0.3867    1.2623 C   0  0  0  0  0  0  0  0  0  0  0  0
   -0.0106   -1.0851    0.5774 O   0  0  0  0  0  0  0  0  0  0  0  0
    0.1168    1.4689    2.7060 C   0  0  0  0  0  0  0  0  0  0  0  0
    1.1183   -1.4145    2.5542 H   0  0  0  0  0  0  0  0  0  0  0  0
   -1.3088   -0.0350    3.3125 H   0  0  0  0  0  0  0  0  0  0  0  0
    1.0116    1.5681    2.0808 H   0  0  0  0  0  0  0  0  0  0  0  0
   -0.6289    2.1775    2.3307 H   0  0  0  0  0  0  0  0  0  0  0  0
    0.3882    1.7670    3.7245 H   0  0  0  0  0  0  0  0  0  0  0  0
   -1.9689    0.1350    0.8298 N   0  0  0  0  0  0  0  0  0  0  0  0
   -2.5039   -0.1183   -0.4830 C   0  0  2  0  0  0  0  0  0  0  0  0
   -1.9972    0.9703   -1.4227 C   0  0  0  0  0  0  0  0  0  0  0  0
   -1.7069    2.1024   -1.0417 O   0  0  0  0  0  0  0  0  0  0  0  0
   -4.0272   -0.1945   -0.4667 C   0  0  0  0  0  0  0  0  0  0  0  0
   -4.5805    1.0734   -0.1325 O   0  0  0  0  0  0  0  0  0  0  0  0
   -2.5276    0.6894    1.4750 H   0  0  0  0  0  0  0  0  0  0  0  0
   -2.0922   -1.0824   -0.8030 H   0  0  0  0  0  0  0  0  0  0  0  0
   -4.3767   -0.9226    0.2724 H   0  0  0  0  0  0  0  0  0  0  0  0
   -4.4089   -0.4833   -1.4517 H   0  0  0  0  0  0  0  0  0  0  0  0
   -4.2788    1.6966   -0.8124 H   0  0  0  0  0  0  0  0  0  0  0  0
   -1.8671    0.5152   -2.7272 N   0  0  0  0  0  0  0  0  0  0  0  0
   -1.3762    1.3474   -3.8009 C   0  0  2  0  0  0  0  0  0  0  0  0
   -0.3330    2.2944   -3.2226 C   0  0  0  0  0  0  0  0  0  0  0  0
   -0.2836    2.5909   -2.0306 O   0  0  0  0  0  0  0  0  0  0  0  0
   -2.5060    2.1216   -4.4619 C   0  0  0  0  0  0  0  0  0  0  0  0
   -2.0935   -0.4510   -2.9438 H   0  0  0  0  0  0  0  0  0  0  0  0
   -0.9009    0.6791   -4.5271 H   0  0  0  0  0  0  0  0  0  0  0  0
   -2.9943    2.7967   -3.7496 H   0  0  0  0  0  0  0  0  0  0  0  0
   -2.1364    2.7301   -5.2938 H   0  0  0  0  0  0  0  0  0  0  0  0
   -3.2700    1.4399   -4.8510 H   0  0  0  0  0  0  0  0  0  0  0  0
    0.5096    2.8031   -4.2011 N   0  0  0  0  0  0  0  0  0  0  0  0
    1.5746    3.7332   -3.9063 C   0  0  0  0  0  0  0  0  0  0  0  0
    0.4082    2.4875   -5.1612 H   0  0  0  0  0  0  0  0  0  0  0  0
    1.2060    4.7628   -4.0246 H   0  0  0  0  0  0  0  0  0  0  0  0
    1.9166    3.5828   -2.8717 H   0  0  0  0  0  0  0  0  0  0  0  0
    2.4125    3.5621   -4.5981 H   0  0  0  0  0  0  0  0  0  0  0  0
  1  3  1  0  0  0  0
  1  7  1  0  0  0  0
  1  2  2  0  0  0  0
 29 30  1  0  0  0  0
 30 38  1  0  0  0  0
 30 31  2  0  0  0  0
  8  9  1  0  0  0  0
  9 17  1  0  0  0  0
  9 10  2  0  0  0  0
 18 19  1  0  0  0  0
 19 28  1  0  0  0  0
 19 20  2  0  0  0  0
 29 32  1  0  0  0  0
  8 11  1  0  0  0  0
 38 39  1  0  0  0  0
 18 21  1  0  0  0  0
 21 22  1  0  0  0  0
 28 29  1  0  0  0  0
  7  8  1  0  0  0  0
 17 18  1  0  0  0  0
  3  4  1  0  0  0  0
  3  5  1  0  0  0  0
  3  6  1  0  0  0  0
 32 35  1  0  0  0  0
 32 36  1  0  0  0  0
 32 37  1  0  0  0  0
 11 14  1  0  0  0  0
 11 15  1  0  0  0  0
 11 16  1  0  0  0  0
 39 41  1  0  0  0  0
 39 42  1  0  0  0  0
 39 43  1  0  0  0  0
 21 25  1  0  0  0  0
 21 26  1  0  0  0  0
 29 34  1  0  0  0  0
  8 13  1  0  0  0  0
 18 24  1  0  0  0  0
 38 40  1  0  0  0  0
  7 12  1  0  0  0  0
 28 33  1  0  0  0  0
 17 23  1  0  0  0  0
 22 27  1  0  0  0  0
M  END
$$$$

  -OEChem-05262214473D

 43 42  0     1  0  0  0  0  0999 V2000
    0.7424   -1.0926    4.5665 C   0  0  0  0  0  0  0  0  0  0  0  0
    0.1409   -0.5364    5.4779 O   0  0  0  0  0  0  0  0  0  0  0  0
    1.7940   -2.1023    4.8871 C   0  0  0  0  0  0  0  0  0  0  0  0
    2.7935   -1.6502    4.9904 H   0  0  0  0  0  0  0  0  0  0  0  0
    1.6064   -2.6156    5.8438 H   0  0  0  0  0  0  0  0  0  0  0  0
    1.9156   -2.9078    4.1453 H   0  0  0  0  0  0  0  0  0  0  0  0
    0.5488   -0.8838    3.2109 N   0  0  0  0  0  0  0  0  0  0  0  0
   -0.4159    0.0446    2.6829 C   0  0  2  0  0  0  0  0  0  0  0  0
   -0.7551   -0.3867    1.2623 C   0  0  0  0  0  0  0  0  0  0  0  0
   -0.0106   -1.0851    0.5774 O   0  0  0  0  0  0  0  0  0  0  0  0
    0.1168    1.4689    2.7060 C   0  0  0  0  0  0  0  0  0  0  0  0
    1.1183   -1.4145    2.5542 H   0  0  0  0  0  0  0  0  0  0  0  0
   -1.3088   -0.0350    3.3125 H   0  0  0  0  0  0  0  0  0  0  0  0
    1.0116    1.5681    2.0808 H   0  0  0  0  0  0  0  0  0  0  0  0
   -0.6289    2.1775    2.3307 H   0  0  0  0  0  0  0  0  0  0  0  0
    0.3882    1.7670    3.7245 H   0  0  0  0  0  0  0  0  0  0  0  0
   -1.9689    0.1350    0.8298 N   0  0  0  0  0  0  0  0  0  0  0  0
   -2.5039   -0.1183   -0.4830 C   0  0  2  0  0  0  0  0  0  0  0  0
   -1.9972    0.9703   -1.4227 C   0  0  0  0  0  0  0  0  0  0  0  0
   -1.4582    2.0011   -1.0250 O   0  0  0  0  0  0  0  0  0  0  0  0
   -4.0272   -0.1945   -0.4667 C   0  0  0  0  0  0  0  0  0  0  0  0
   -4.5805    1.0734   -0.1325 O   0  0  0  0  0  0  0  0  0  0  0  0
   -2.5276    0.6894    1.4750 H   0  0  0  0  0  0  0  0  0  0  0  0
   -2.0922   -1.0824   -0.8030 H   0  0  0  0  0  0  0  0  0  0  0  0
   -4.3767   -0.9226    0.2724 H   0  0  0  0  0  0  0  0  0  0  0  0
   -4.4089   -0.4833   -1.4517 H   0  0  0  0  0  0  0  0  0  0  0  0
   -4.2788    1.6966   -0.8124 H   0  0  0  0  0  0  0  0  0  0  0  0
   -2.1793    0.6348   -2.7569 N   0  0  0  0  0  0  0  0  0  0  0  0
   -1.7547    1.4873   -3.8430 C   0  0  2  0  0  0  0  0  0  0  0  0
   -0.4816    2.2021   -3.4097 C   0  0  0  0  0  0  0  0  0  0  0  0
   -0.1721    2.3658   -2.2313 O   0  0  0  0  0  0  0  0  0  0  0  0
   -2.8381    2.4863   -4.2183 C   0  0  0  0  0  0  0  0  0  0  0  0
   -2.5992   -0.2591   -2.9941 H   0  0  0  0  0  0  0  0  0  0  0  0
   -1.5349    0.8315   -4.6924 H   0  0  0  0  0  0  0  0  0  0  0  0
   -3.0717    3.1522   -3.3795 H   0  0  0  0  0  0  0  0  0  0  0  0
   -2.5256    3.1127   -5.0604 H   0  0  0  0  0  0  0  0  0  0  0  0
   -3.7623    1.9710   -4.5011 H   0  0  0  0  0  0  0  0  0  0  0  0
    0.2468    2.6735   -4.4929 N   0  0  0  0  0  0  0  0  0  0  0  0
    1.4877    3.3970   -4.3426 C   0  0  0  0  0  0  0  0  0  0  0  0
   -0.0752    2.4755   -5.4357 H   0  0  0  0  0  0  0  0  0  0  0  0
    1.2819    4.4772   -4.3145 H   0  0  0  0  0  0  0  0  0  0  0  0
    1.9782    3.0929   -3.4061 H   0  0  0  0  0  0  0  0  0  0  0  0
    2.1486    3.1717   -5.1926 H   0  0  0  0  0  0  0  0  0  0  0  0
  1  3  1  0  0  0  0
  1  7  1  0  0  0  0
  1  2  2  0  0  0  0
 29 30  1  0  0  0  0
 30 38  1  0  0  0  0
 30 31  2  0  0  0  0
  8  9  1  0  0  0  0
  9 17  1  0  0  0  0
  9 10  2  0  0  0  0
 18 19  1  0  0  0  0
 19 28  1  0  0  0  0
 19 20  2  0  0  0  0
 29 32  1  0  0  0  0
  8 11  1  0  0  0  0
 38 39  1  0  0  0  0
 18 21  1  0  0  0  0
 21 22  1  0  0  0  0
 28 29  1  0  0  0  0
  7  8  1  0  0  0  0
 17 18  1  0  0  0  0
  3  4  1  0  0  0  0
  3  5  1  0  0  0  0
  3  6  1  0  0  0  0
 32 35  1  0  0  0  0
 32 36  1  0  0  0  0
 32 37  1  0  0  0  0
 11 14  1  0  0  0  0
 11 15  1  0  0  0  0
 11 16  1  0  0  0  0
 39 41  1  0  0  0  0
 39 42  1  0  0  0  0
 39 43  1  0  0  0  0
 21 25  1  0  0  0  0
 21 26  1  0  0  0  0
 29 34  1  0  0  0  0
  8 13  1  0  0  0  0
 18 24  1  0  0  0  0
 38 40  1  0  0  0  0
  7 12  1  0  0  0  0
 28 33  1  0  0  0  0
 17 23  1  0  0  0  0
 22 27  1  0  0  0  0
M  END
$$$$

  -OEChem-05262214473D

 43 42  0     1  0  0  0  0  0999 V2000
    0.7424   -1.0926    4.5665 C   0  0  0  0  0  0  0  0  0  0  0  0
    0.1409   -0.5364    5.4779 O   0  0  0  0  0  0  0  0  0  0  0  0
    1.7940   -2.1023    4.8871 C   0  0  0  0  0  0  0  0  0  0  0  0
    2.7935   -1.6502    4.9904 H   0  0  0  0  0  0  0  0  0  0  0  0
    1.6064   -2.6156    5.8438 H   0  0  0  0  0  0  0  0  0  0  0  0
    1.9156   -2.9078    4.1453 H   0  0  0  0  0  0  0  0  0  0  0  0
    0.5488   -0.8838    3.2109 N   0  0  0  0  0  0  0  0  0  0  0  0
   -0.4159    0.0446    2.6829 C   0  0  2  0  0  0  0  0  0  0  0  0
   -0.7551   -0.3867    1.2623 C   0  0  0  0  0  0  0  0  0  0  0  0
   -0.0106   -1.0851    0.5774 O   0  0  0  0  0  0  0  0  0  0  0  0
    0.1168    1.4689    2.7060 C   0  0  0  0  0  0  0  0  0  0  0  0
    1.1183   -1.4145    2.5542 H   0  0  0  0  0  0  0  0  0  0  0  0
   -1.3088   -0.0350    3.3125 H   0  0  0  0  0  0  0  0  0  0  0  0
    1.0116    1.5681    2.0808 H   0  0  0  0  0  0  0  0  0  0  0  0
   -0.6289    2.1775    2.3307 H   0  0  0  0  0  0  0  0  0  0  0  0
    0.3882    1.7670    3.7245 H   0  0  0  0  0  0  0  0  0  0  0  0
   -1.9689    0.1350    0.8298 N   0  0  0  0  0  0  0  0  0  0  0  0
   -2.5039   -0.1183   -0.4830 C   0  0  2  0  0  0  0  0  0  0  0  0
   -1.7209    0.7205   -1.4871 C   0  0  0  0  0  0  0  0  0  0  0  0
   -0.7771    1.4402   -1.1672 O   0  0  0  0  0  0  0  0  0  0  0  0
   -4.0012    0.1657   -0.5468 C   0  0  0  0  0  0  0  0  0  0  0  0
   -4.2475    1.5550   -0.3611 O   0  0  0  0  0  0  0  0  0  0  0  0
   -2.5276    0.6894    1.4750 H   0  0  0  0  0  0  0  0  0  0  0  0
   -2.3230   -1.1793   -0.6902 H   0  0  0  0  0  0  0  0  0  0  0  0
   -4.5389   -0.3816    0.2341 H   0  0  0  0  0  0  0  0  0  0  0  0
   -4.4070   -0.1244   -1.5218 H   0  0  0  0  0  0  0  0  0  0  0  0
   -3.7832    2.0180   -1.0763 H   0  0  0  0  0  0  0  0  0  0  0  0
   -2.1730    0.5367   -2.7862 N   0  0  0  0  0  0  0  0  0  0  0  0
   -1.5748    1.1965   -3.9235 C   0  0  2  0  0  0  0  0  0  0  0  0
   -0.0823    1.3363   -3.6546 C   0  0  0  0  0  0  0  0  0  0  0  0
    0.4003    1.3184   -2.5242 O   0  0  0  0  0  0  0  0  0  0  0  0
   -2.2117    2.5547   -4.1733 C   0  0  0  0  0  0  0  0  0  0  0  0
   -2.9358   -0.1104   -2.9625 H   0  0  0  0  0  0  0  0  0  0  0  0
   -1.7311    0.5414   -4.7874 H   0  0  0  0  0  0  0  0  0  0  0  0
   -2.0654    3.2249   -3.3183 H   0  0  0  0  0  0  0  0  0  0  0  0
   -1.7768    3.0411   -5.0527 H   0  0  0  0  0  0  0  0  0  0  0  0
   -3.2902    2.4553   -4.3369 H   0  0  0  0  0  0  0  0  0  0  0  0
    0.6428    1.5267   -4.8226 N   0  0  0  0  0  0  0  0  0  0  0  0
    2.0768    1.6984   -4.8308 C   0  0  0  0  0  0  0  0  0  0  0  0
    0.1625    1.5086   -5.7175 H   0  0  0  0  0  0  0  0  0  0  0  0
    2.3185    2.7706   -4.7877 H   0  0  0  0  0  0  0  0  0  0  0  0
    2.5119    1.1892   -3.9582 H   0  0  0  0  0  0  0  0  0  0  0  0
    2.4925    1.2658   -5.7528 H   0  0  0  0  0  0  0  0  0  0  0  0
  1  3  1  0  0  0  0
  1  7  1  0  0  0  0
  1  2  2  0  0  0  0
 29 30  1  0  0  0  0
 30 38  1  0  0  0  0
 30 31  2  0  0  0  0
  8  9  1  0  0  0  0
  9 17  1  0  0  0  0
  9 10  2  0  0  0  0
 18 19  1  0  0  0  0
 19 28  1  0  0  0  0
 19 20  2  0  0  0  0
 29 32  1  0  0  0  0
  8 11  1  0  0  0  0
 38 39  1  0  0  0  0
 18 21  1  0  0  0  0
 21 22  1  0  0  0  0
 28 29  1  0  0  0  0
  7  8  1  0  0  0  0
 17 18  1  0  0  0  0
  3  4  1  0  0  0  0
  3  5  1  0  0  0  0
  3  6  1  0  0  0  0
 32 35  1  0  0  0  0
 32 36  1  0  0  0  0
 32 37  1  0  0  0  0
 11 14  1  0  0  0  0
 11 15  1  0  0  0  0
 11 16  1  0  0  0  0
 39 41  1  0  0  0  0
 39 42  1  0  0  0  0
 39 43  1  0  0  0  0
 21 25  1  0  0  0  0
 21 26  1  0  0  0  0
 29 34  1  0  0  0  0
  8 13  1  0  0  0  0
 18 24  1  0  0  0  0
 38 40  1  0  0  0  0
  7 12  1  0  0  0  0
 28 33  1  0  0  0  0
 17 23  1  0  0  0  0
 22 27  1  0  0  0  0
M  END
$$$$

  -OEChem-05262214473D

 43 42  0     1  0  0  0  0  0999 V2000
    0.7424   -1.0926    4.5665 C   0  0  0  0  0  0  0  0  0  0  0  0
    0.1409   -0.5364    5.4779 O   0  0  0  0  0  0  0  0  0  0  0  0
    1.7940   -2.1023    4.8871 C   0  0  0  0  0  0  0  0  0  0  0  0
    2.7935   -1.6502    4.9904 H   0  0  0  0  0  0  0  0  0  0  0  0
    1.6064   -2.6156    5.8438 H   0  0  0  0  0  0  0  0  0  0  0  0
    1.9156   -2.9078    4.1453 H   0  0  0  0  0  0  0  0  0  0  0  0
    0.5488   -0.8838    3.2109 N   0  0  0  0  0  0  0  0  0  0  0  0
   -0.4159    0.0446    2.6829 C   0  0  2  0  0  0  0  0  0  0  0  0
   -0.7551   -0.3867    1.2623 C   0  0  0  0  0  0  0  0  0  0  0  0
   -0.0106   -1.0851    0.5774 O   0  0  0  0  0  0  0  0  0  0  0  0
    0.1168    1.4689    2.7060 C   0  0  0  0  0  0  0  0  0  0  0  0
    1.1183   -1.4145    2.5542 H   0  0  0  0  0  0  0  0  0  0  0  0
   -1.3088   -0.0350    3.3125 H   0  0  0  0  0  0  0  0  0  0  0  0
    1.0116    1.5681    2.0808 H   0  0  0  0  0  0  0  0  0  0  0  0
   -0.6289    2.1775    2.3307 H   0  0  0  0  0  0  0  0  0  0  0  0
    0.3882    1.7670    3.7245 H   0  0  0  0  0  0  0  0  0  0  0  0
   -1.9689    0.1350    0.8298 N   0  0  0  0  0  0  0  0  0  0  0  0
   -2.5039   -0.1183   -0.4830 C   0  0  2  0  0  0  0  0  0  0  0  0
   -1.7209    0.7205   -1.4871 C   0  0  0  0  0  0  0  0  0  0  0  0
   -0.6293    1.2248   -1.2318 O   0  0  0  0  0  0  0  0  0  0  0  0
   -4.0012    0.1657   -0.5468 C   0  0  0  0  0  0  0  0  0  0  0  0
   -4.2475    1.5550   -0.3611 O   0  0  0  0  0  0  0  0  0  0  0  0
   -2.5276    0.6894    1.4750 H   0  0  0  0  0  0  0  0  0  0  0  0
   -2.3230   -1.1793   -0.6902 H   0  0  0  0  0  0  0  0  0  0  0  0
   -4.5389   -0.3816    0.2341 H   0  0  0  0  0  0  0  0  0  0  0  0
   -4.4070   -0.1244   -1.5218 H   0  0  0  0  0  0  0  0  0  0  0  0
   -3.7832    2.0180   -1.0763 H   0  0  0  0  0  0  0  0  0  0  0  0
   -2.3647    0.8025   -2.7137 N   0  0  0  0  0  0  0  0  0  0  0  0
   -1.8116    1.5156   -3.8415 C   0  0  2  0  0  0  0  0  0  0  0  0
   -0.2961    1.3730   -3.7907 C   0  0  0  0  0  0  0  0  0  0  0  0
    0.3190    1.1138   -2.7585 O   0  0  0  0  0  0  0  0  0  0  0  0
   -2.2206    2.9802   -3.8247 C   0  0  0  0  0  0  0  0  0  0  0  0
   -3.2480    0.3190   -2.8472 H   0  0  0  0  0  0  0  0  0  0  0  0
   -2.1949    1.0267   -4.7437 H   0  0  0  0  0  0  0  0  0  0  0  0
   -1.8454    3.4868   -2.9280 H   0  0  0  0  0  0  0  0  0  0  0  0
   -1.8241    3.5129   -4.6955 H   0  0  0  0  0  0  0  0  0  0  0  0
   -3.3113    3.0804   -3.8312 H   0  0  0  0  0  0  0  0  0  0  0  0
    0.2922    1.6119   -5.0248 N   0  0  0  0  0  0  0  0  0  0  0  0
    1.7201    1.5501   -5.2329 C   0  0  0  0  0  0  0  0  0  0  0  0
   -0.2964    1.8015   -5.8307 H   0  0  0  0  0  0  0  0  0  0  0  0
    2.1544    2.5517   -5.0985 H   0  0  0  0  0  0  0  0  0  0  0  0
    2.1668    0.8563   -4.5055 H   0  0  0  0  0  0  0  0  0  0  0  0
    1.9268    1.1948   -6.2532 H   0  0  0  0  0  0  0  0  0  0  0  0
  1  3  1  0  0  0  0
  1  7  1  0  0  0  0
  1  2  2  0  0  0  0
 29 30  1  0  0  0  0
 30 38  1  0  0  0  0
 30 31  2  0  0  0  0
  8  9  1  0  0  0  0
  9 17  1  0  0  0  0
  9 10  2  0  0  0  0
 18 19  1  0  0  0  0
 19 28  1  0  0  0  0
 19 20  2  0  0  0  0
 29 32  1  0  0  0  0
  8 11  1  0  0  0  0
 38 39  1  0  0  0  0
 18 21  1  0  0  0  0
 21 22  1  0  0  0  0
 28 29  1  0  0  0  0
  7  8  1  0  0  0  0
 17 18  1  0  0  0  0
  3  4  1  0  0  0  0
  3  5  1  0  0  0  0
  3  6  1  0  0  0  0
 32 35  1  0  0  0  0
 32 36  1  0  0  0  0
 32 37  1  0  0  0  0
 11 14  1  0  0  0  0
 11 15  1  0  0  0  0
 11 16  1  0  0  0  0
 39 41  1  0  0  0  0
 39 42  1  0  0  0  0
 39 43  1  0  0  0  0
 21 25  1  0  0  0  0
 21 26  1  0  0  0  0
 29 34  1  0  0  0  0
  8 13  1  0  0  0  0
 18 24  1  0  0  0  0
 38 40  1  0  0  0  0
  7 12  1  0  0  0  0
 28 33  1  0  0  0  0
 17 23  1  0  0  0  0
 22 27  1  0  0  0  0
M  END
$$$$

  -OEChem-05262214473D

 43 42  0     1  0  0  0  0  0999 V2000
    0.7424   -1.0926    4.5665 C   0  0  0  0  0  0  0  0  0  0  0  0
    0.1409   -0.5364    5.4779 O   0  0  0  0  0  0  0  0  0  0  0  0
    1.7940   -2.1023    4.8871 C   0  0  0  0  0  0  0  0  0  0  0  0
    2.7935   -1.6502    4.9904 H   0  0  0  0  0  0  0  0  0  0  0  0
    1.6064   -2.6156    5.8438 H   0  0  0  0  0  0  0  0  0  0  0  0
    1.9156   -2.9078    4.1453 H   0  0  0  0  0  0  0  0  0  0  0  0
    0.5488   -0.8838    3.2109 N   0  0  0  0  0  0  0  0  0  0  0  0
   -0.4159    0.0446    2.6829 C   0  0  2  0  0  0  0  0  0  0  0  0
   -0.7551   -0.3867    1.2623 C   0  0  0  0  0  0  0  0  0  0  0  0
   -0.0106   -1.0851    0.5774 O   0  0  0  0  0  0  0  0  0  0  0  0
    0.1168    1.4689    2.7060 C   0  0  0  0  0  0  0  0  0  0  0  0
    1.1183   -1.4145    2.5542 H   0  0  0  0  0  0  0  0  0  0  0  0
   -1.3088   -0.0350    3.3125 H   0  0  0  0  0  0  0  0  0  0  0  0
    1.0116    1.5681    2.0808 H   0  0  0  0  0  0  0  0  0  0  0  0
   -0.6289    2.1775    2.3307 H   0  0  0  0  0  0  0  0  0  0  0  0
    0.3882    1.7670    3.7245 H   0  0  0  0  0  0  0  0  0  0  0  0
   -1.9689    0.1350    0.8298 N   0  0  0  0  0  0  0  0  0  0  0  0
   -2.5039   -0.1183   -0.4830 C   0  0  2  0  0  0  0  0  0  0  0  0
   -1.7209    0.7205   -1.4871 C   0  0  0  0  0  0  0  0  0  0  0  0
   -0.5324    1.0002   -1.3439 O   0  0  0  0  0  0  0  0  0  0  0  0
   -4.0012    0.1657   -0.5468 C   0  0  0  0  0  0  0  0  0  0  0  0
   -4.2475    1.5550   -0.3611 O   0  0  0  0  0  0  0  0  0  0  0  0
   -2.5276    0.6894    1.4750 H   0  0  0  0  0  0  0  0  0  0  0  0
   -2.3230   -1.1793   -0.6902 H   0  0  0  0  0  0  0  0  0  0  0  0
   -4.5389   -0.3816    0.2341 H   0  0  0  0  0  0  0  0  0  0  0  0
   -4.4070   -0.1244   -1.5218 H   0  0  0  0  0  0  0  0  0  0  0  0
   -3.7832    2.0180   -1.0763 H   0  0  0  0  0  0  0  0  0  0  0  0
   -2.4943    1.0823   -2.5810 N   0  0  0  0  0  0  0  0  0  0  0  0
   -1.9742    1.8533   -3.6863 C   0  0  2  0  0  0  0  0  0  0  0  0
   -0.5158    1.4630   -3.8869 C   0  0  0  0  0  0  0  0  0  0  0  0
    0.1723    0.9610   -3.0005 O   0  0  0  0  0  0  0  0  0  0  0  0
   -2.1070    3.3464   -3.4303 C   0  0  0  0  0  0  0  0  0  0  0  0
   -3.4599    0.7717   -2.6343 H   0  0  0  0  0  0  0  0  0  0  0  0
   -2.5541    1.5687   -4.5710 H   0  0  0  0  0  0  0  0  0  0  0  0
   -1.5327    3.6504   -2.5475 H   0  0  0  0  0  0  0  0  0  0  0  0
   -1.7386    3.9292   -4.2810 H   0  0  0  0  0  0  0  0  0  0  0  0
   -3.1532    3.6206   -3.2567 H   0  0  0  0  0  0  0  0  0  0  0  0
   -0.0607    1.7809   -5.1589 N   0  0  0  0  0  0  0  0  0  0  0  0
    1.2930    1.5211   -5.5901 C   0  0  0  0  0  0  0  0  0  0  0  0
   -0.7059    2.1777   -5.8357 H   0  0  0  0  0  0  0  0  0  0  0  0
    1.9144    2.4096   -5.4044 H   0  0  0  0  0  0  0  0  0  0  0  0
    1.6987    0.6663   -5.0292 H   0  0  0  0  0  0  0  0  0  0  0  0
    1.2971    1.2893   -6.6654 H   0  0  0  0  0  0  0  0  0  0  0  0
  1  3  1  0  0  0  0
  1  7  1  0  0  0  0
  1  2  2  0  0  0  0
 29 30  1  0  0  0  0
 30 38  1  0  0  0  0
 30 31  2  0  0  0  0
  8  9  1  0  0  0  0
  9 17  1  0  0  0  0
  9 10  2  0  0  0  0
 18 19  1  0  0  0  0
 19 28  1  0  0  0  0
 19 20  2  0  0  0  0
 29 32  1  0  0  0  0
  8 11  1  0  0  0  0
 38 39  1  0  0  0  0
 18 21  1  0  0  0  0
 21 22  1  0  0  0  0
 28 29  1  0  0  0  0
  7  8  1  0  0  0  0
 17 18  1  0  0  0  0
  3  4  1  0  0  0  0
  3  5  1  0  0  0  0
  3  6  1  0  0  0  0
 32 35  1  0  0  0  0
 32 36  1  0  0  0  0
 32 37  1  0  0  0  0
 11 14  1  0  0  0  0
 11 15  1  0  0  0  0
 11 16  1  0  0  0  0
 39 41  1  0  0  0  0
 39 42  1  0  0  0  0
 39 43  1  0  0  0  0
 21 25  1  0  0  0  0
 21 26  1  0  0  0  0
 29 34  1  0  0  0  0
  8 13  1  0  0  0  0
 18 24  1  0  0  0  0
 38 40  1  0  0  0  0
  7 12  1  0  0  0  0
 28 33  1  0  0  0  0
 17 23  1  0  0  0  0
 22 27  1  0  0  0  0
M  END
$$$$

  -OEChem-05262214473D

 43 42  0     1  0  0  0  0  0999 V2000
    0.7424   -1.0926    4.5665 C   0  0  0  0  0  0  0  0  0  0  0  0
    0.1409   -0.5364    5.4779 O   0  0  0  0  0  0  0  0  0  0  0  0
    1.7940   -2.1023    4.8871 C   0  0  0  0  0  0  0  0  0  0  0  0
    2.7935   -1.6502    4.9904 H   0  0  0  0  0  0  0  0  0  0  0  0
    1.6064   -2.6156    5.8438 H   0  0  0  0  0  0  0  0  0  0  0  0
    1.9156   -2.9078    4.1453 H   0  0  0  0  0  0  0  0  0  0  0  0
    0.5488   -0.8838    3.2109 N   0  0  0  0  0  0  0  0  0  0  0  0
   -0.4159    0.0446    2.6829 C   0  0  2  0  0  0  0  0  0  0  0  0
   -0.7551   -0.3867    1.2623 C   0  0  0  0  0  0  0  0  0  0  0  0
   -0.0106   -1.0851    0.5774 O   0  0  0  0  0  0  0  0  0  0  0  0
    0.1168    1.4689    2.7060 C   0  0  0  0  0  0  0  0  0  0  0  0
    1.1183   -1.4145    2.5542 H   0  0  0  0  0  0  0  0  0  0  0  0
   -1.3088   -0.0350    3.3125 H   0  0  0  0  0  0  0  0  0  0  0  0
    1.0116    1.5681    2.0808 H   0  0  0  0  0  0  0  0  0  0  0  0
   -0.6289    2.1775    2.3307 H   0  0  0  0  0  0  0  0  0  0  0  0
    0.3882    1.7670    3.7245 H   0  0  0  0  0  0  0  0  0  0  0  0
   -1.9689    0.1350    0.8298 N   0  0  0  0  0  0  0  0  0  0  0  0
   -2.5039   -0.1183   -0.4830 C   0  0  2  0  0  0  0  0  0  0  0  0
   -1.7209    0.7205   -1.4871 C   0  0  0  0  0  0  0  0  0  0  0  0
   -0.4931    0.7817   -1.4959 O   0  0  0  0  0  0  0  0  0  0  0  0
   -4.0012    0.1657   -0.5468 C   0  0  0  0  0  0  0  0  0  0  0  0
   -4.2475    1.5550   -0.3611 O   0  0  0  0  0  0  0  0  0  0  0  0
   -2.5276    0.6894    1.4750 H   0  0  0  0  0  0  0  0  0  0  0  0
   -2.3230   -1.1793   -0.6902 H   0  0  0  0  0  0  0  0  0  0  0  0
   -4.5389   -0.3816    0.2341 H   0  0  0  0  0  0  0  0  0  0  0  0
   -4.4070   -0.1244   -1.5218 H   0  0  0  0  0  0  0  0  0  0  0  0
   -3.7832    2.0180   -1.0763 H   0  0  0  0  0  0  0  0  0  0  0  0
   -2.5529    1.3569   -2.3973 N   0  0  0  0  0  0  0  0  0  0  0  0
   -2.0516    2.1865   -3.4682 C   0  0  2  0  0  0  0  0  0  0  0  0
   -0.7264    1.6002   -3.9365 C   0  0  0  0  0  0  0  0  0  0  0  0
   -0.0299    0.8707   -3.2337 O   0  0  0  0  0  0  0  0  0  0  0  0
   -1.8788    3.6284   -3.0167 C   0  0  0  0  0  0  0  0  0  0  0  0
   -3.5572    1.2168   -2.3384 H   0  0  0  0  0  0  0  0  0  0  0  0
   -2.7840    2.1305   -4.2810 H   0  0  0  0  0  0  0  0  0  0  0  0
   -1.1486    3.7045   -2.2027 H   0  0  0  0  0  0  0  0  0  0  0  0
   -1.5259    4.2616   -3.8375 H   0  0  0  0  0  0  0  0  0  0  0  0
   -2.8267    4.0390   -2.6524 H   0  0  0  0  0  0  0  0  0  0  0  0
   -0.3919    2.0220   -5.2157 N   0  0  0  0  0  0  0  0  0  0  0  0
    0.8247    1.6134   -5.8782 C   0  0  0  0  0  0  0  0  0  0  0  0
   -1.0380    2.6115   -5.7323 H   0  0  0  0  0  0  0  0  0  0  0  0
    1.6147    2.3539   -5.6846 H   0  0  0  0  0  0  0  0  0  0  0  0
    1.1397    0.6322   -5.4936 H   0  0  0  0  0  0  0  0  0  0  0  0
    0.6462    1.5426   -6.9614 H   0  0  0  0  0  0  0  0  0  0  0  0
  1  3  1  0  0  0  0
  1  7  1  0  0  0  0
  1  2  2  0  0  0  0
 29 30  1  0  0  0  0
 30 38  1  0  0  0  0
 30 31  2  0  0  0  0
  8  9  1  0  0  0  0
  9 17  1  0  0  0  0
  9 10  2  0  0  0  0
 18 19  1  0  0  0  0
 19 28  1  0  0  0  0
 19 20  2  0  0  0  0
 29 32  1  0  0  0  0
  8 11  1  0  0  0  0
 38 39  1  0  0  0  0
 18 21  1  0  0  0  0
 21 22  1  0  0  0  0
 28 29  1  0  0  0  0
  7  8  1  0  0  0  0
 17 18  1  0  0  0  0
  3  4  1  0  0  0  0
  3  5  1  0  0  0  0
  3  6  1  0  0  0  0
 32 35  1  0  0  0  0
 32 36  1  0  0  0  0
 32 37  1  0  0  0  0
 11 14  1  0  0  0  0
 11 15  1  0  0  0  0
 11 16  1  0  0  0  0
 39 41  1  0  0  0  0
 39 42  1  0  0  0  0
 39 43  1  0  0  0  0
 21 25  1  0  0  0  0
 21 26  1  0  0  0  0
 29 34  1  0  0  0  0
  8 13  1  0  0  0  0
 18 24  1  0  0  0  0
 38 40  1  0  0  0  0
  7 12  1  0  0  0  0
 28 33  1  0  0  0  0
 17 23  1  0  0  0  0
 22 27  1  0  0  0  0
M  END
$$$$

  -OEChem-05262214473D

 43 42  0     1  0  0  0  0  0999 V2000
    0.7424   -1.0926    4.5665 C   0  0  0  0  0  0  0  0  0  0  0  0
    0.1409   -0.5364    5.4779 O   0  0  0  0  0  0  0  0  0  0  0  0
    1.7940   -2.1023    4.8871 C   0  0  0  0  0  0  0  0  0  0  0  0
    2.7935   -1.6502    4.9904 H   0  0  0  0  0  0  0  0  0  0  0  0
    1.6064   -2.6156    5.8438 H   0  0  0  0  0  0  0  0  0  0  0  0
    1.9156   -2.9078    4.1453 H   0  0  0  0  0  0  0  0  0  0  0  0
    0.5488   -0.8838    3.2109 N   0  0  0  0  0  0  0  0  0  0  0  0
   -0.4159    0.0446    2.6829 C   0  0  2  0  0  0  0  0  0  0  0  0
   -0.7551   -0.3867    1.2623 C   0  0  0  0  0  0  0  0  0  0  0  0
   -0.0106   -1.0851    0.5774 O   0  0  0  0  0  0  0  0  0  0  0  0
    0.1168    1.4689    2.7060 C   0  0  0  0  0  0  0  0  0  0  0  0
    1.1183   -1.4145    2.5542 H   0  0  0  0  0  0  0  0  0  0  0  0
   -1.3088   -0.0350    3.3125 H   0  0  0  0  0  0  0  0  0  0  0  0
    1.0116    1.5681    2.0808 H   0  0  0  0  0  0  0  0  0  0  0  0
   -0.6289    2.1775    2.3307 H   0  0  0  0  0  0  0  0  0  0  0  0
    0.3882    1.7670    3.7245 H   0  0  0  0  0  0  0  0  0  0  0  0
   -1.9689    0.1350    0.8298 N   0  0  0  0  0  0  0  0  0  0  0  0
   -2.5039   -0.1183   -0.4830 C   0  0  2  0  0  0  0  0  0  0  0  0
   -1.7209    0.7205   -1.4871 C   0  0  0  0  0  0  0  0  0  0  0  0
   -0.5141    0.5841   -1.6773 O   0  0  0  0  0  0  0  0  0  0  0  0
   -4.0012    0.1657   -0.5468 C   0  0  0  0  0  0  0  0  0  0  0  0
   -4.2475    1.5550   -0.3611 O   0  0  0  0  0  0  0  0  0  0  0  0
   -2.5276    0.6894    1.4750 H   0  0  0  0  0  0  0  0  0  0  0  0
   -2.3230   -1.1793   -0.6902 H   0  0  0  0  0  0  0  0  0  0  0  0
   -4.5389   -0.3816    0.2341 H   0  0  0  0  0  0  0  0  0  0  0  0
   -4.4070   -0.1244   -1.5218 H   0  0  0  0  0  0  0  0  0  0  0  0
   -3.7832    2.0180   -1.0763 H   0  0  0  0  0  0  0  0  0  0  0  0
   -2.5365    1.6078   -2.1749 N   0  0  0  0  0  0  0  0  0  0  0  0
   -2.0386    2.4927   -3.2023 C   0  0  2  0  0  0  0  0  0  0  0  0
   -0.9134    1.7751   -3.9362 C   0  0  0  0  0  0  0  0  0  0  0  0
   -0.2738    0.8489   -3.4421 O   0  0  0  0  0  0  0  0  0  0  0  0
   -1.5513    3.8069   -2.6123 C   0  0  0  0  0  0  0  0  0  0  0  0
   -3.5331    1.6240   -1.9795 H   0  0  0  0  0  0  0  0  0  0  0  0
   -2.8690    2.6738   -3.8935 H   0  0  0  0  0  0  0  0  0  0  0  0
   -0.7193    3.6456   -1.9172 H   0  0  0  0  0  0  0  0  0  0  0  0
   -1.2007    4.4875   -3.3952 H   0  0  0  0  0  0  0  0  0  0  0  0
   -2.3538    4.3073   -2.0597 H   0  0  0  0  0  0  0  0  0  0  0  0
   -0.6788    2.3190   -5.1913 N   0  0  0  0  0  0  0  0  0  0  0  0
    0.3470    1.8207   -6.0776 C   0  0  0  0  0  0  0  0  0  0  0  0
   -1.2701    3.0734   -5.5275 H   0  0  0  0  0  0  0  0  0  0  0  0
    1.2759    2.3884   -5.9200 H   0  0  0  0  0  0  0  0  0  0  0  0
    0.5277    0.7562   -5.8672 H   0  0  0  0  0  0  0  0  0  0  0  0
    0.0185    1.9376   -7.1209 H   0  0  0  0  0  0  0  0  0  0  0  0
  1  3  1  0  0  0  0
  1  7  1  0  0  0  0
  1  2  2  0  0  0  0
 29 30  1  0  0  0  0
 30 38  1  0  0  0  0
 30 31  2  0  0  0  0
  8  9  1  0  0  0  0
  9 17  1  0  0  0  0
  9 10  2  0  0  0  0
 18 19  1  0  0  0  0
 19 28  1  0  0  0  0
 19 20  2  0  0  0  0
 29 32  1  0  0  0  0
  8 11  1  0  0  0  0
 38 39  1  0  0  0  0
 18 21  1  0  0  0  0
 21 22  1  0  0  0  0
 28 29  1  0  0  0  0
  7  8  1  0  0  0  0
 17 18  1  0  0  0  0
  3  4  1  0  0  0  0
  3  5  1  0  0  0  0
  3  6  1  0  0  0  0
 32 35  1  0  0  0  0
 32 36  1  0  0  0  0
 32 37  1  0  0  0  0
 11 14  1  0  0  0  0
 11 15  1  0  0  0  0
 11 16  1  0  0  0  0
 39 41  1  0  0  0  0
 39 42  1  0  0  0  0
 39 43  1  0  0  0  0
 21 25  1  0  0  0  0
 21 26  1  0  0  0  0
 29 34  1  0  0  0  0
  8 13  1  0  0  0  0
 18 24  1  0  0  0  0
 38 40  1  0  0  0  0
  7 12  1  0  0  0  0
 28 33  1  0  0  0  0
 17 23  1  0  0  0  0
 22 27  1  0  0  0  0
M  END
$$$$

  -OEChem-05262214473D

 43 42  0     1  0  0  0  0  0999 V2000
    0.7424   -1.0926    4.5665 C   0  0  0  0  0  0  0  0  0  0  0  0
    0.1409   -0.5364    5.4779 O   0  0  0  0  0  0  0  0  0  0  0  0
    1.7940   -2.1023    4.8871 C   0  0  0  0  0  0  0  0  0  0  0  0
    2.7935   -1.6502    4.9904 H   0  0  0  0  0  0  0  0  0  0  0  0
    1.6064   -2.6156    5.8438 H   0  0  0  0  0  0  0  0  0  0  0  0
    1.9156   -2.9078    4.1453 H   0  0  0  0  0  0  0  0  0  0  0  0
    0.5488   -0.8838    3.2109 N   0  0  0  0  0  0  0  0  0  0  0  0
   -0.4159    0.0446    2.6829 C   0  0  2  0  0  0  0  0  0  0  0  0
   -0.7551   -0.3867    1.2623 C   0  0  0  0  0  0  0  0  0  0  0  0
   -0.0106   -1.0851    0.5774 O   0  0  0  0  0  0  0  0  0  0  0  0
    0.1168    1.4689    2.7060 C   0  0  0  0  0  0  0  0  0  0  0  0
    1.1183   -1.4145    2.5542 H   0  0  0  0  0  0  0  0  0  0  0  0
   -1.3088   -0.0350    3.3125 H   0  0  0  0  0  0  0  0  0  0  0  0
    1.0116    1.5681    2.0808 H   0  0  0  0  0  0  0  0  0  0  0  0
   -0.6289    2.1775    2.3307 H   0  0  0  0  0  0  0  0  0  0  0  0
    0.3882    1.7670    3.7245 H   0  0  0  0  0  0  0  0  0  0  0  0
   -1.9689    0.1350    0.8298 N   0  0  0  0  0  0  0  0  0  0  0  0
   -2.5039   -0.1183   -0.4830 C   0  0  2  0  0  0  0  0  0  0  0  0
   -1.7209    0.7205   -1.4871 C   0  0  0  0  0  0  0  0  0  0  0  0
   -0.5938    0.4209   -1.8758 O   0  0  0  0  0  0  0  0  0  0  0  0
   -4.0012    0.1657   -0.5468 C   0  0  0  0  0  0  0  0  0  0  0  0
   -4.2475    1.5550   -0.3611 O   0  0  0  0  0  0  0  0  0  0  0  0
   -2.5276    0.6894    1.4750 H   0  0  0  0  0  0  0  0  0  0  0  0
   -2.3230   -1.1793   -0.6902 H   0  0  0  0  0  0  0  0  0  0  0  0
   -4.5389   -0.3816    0.2341 H   0  0  0  0  0  0  0  0  0  0  0  0
   -4.4070   -0.1244   -1.5218 H   0  0  0  0  0  0  0  0  0  0  0  0
   -3.7832    2.0180   -1.0763 H   0  0  0  0  0  0  0  0  0  0  0  0
   -2.4463    1.8178   -1.9291 N   0  0  0  0  0  0  0  0  0  0  0  0
   -1.9360    2.7508   -2.9067 C   0  0  2  0  0  0  0  0  0  0  0  0
   -1.0643    1.9759   -3.8861 C   0  0  0  0  0  0  0  0  0  0  0  0
   -0.5428    0.8971   -3.6116 O   0  0  0  0  0  0  0  0  0  0  0  0
   -1.1471    3.8697   -2.2446 C   0  0  0  0  0  0  0  0  0  0  0  0
   -3.3894    1.9655   -1.5822 H   0  0  0  0  0  0  0  0  0  0  0  0
   -2.8034    3.1615   -3.4348 H   0  0  0  0  0  0  0  0  0  0  0  0
   -0.2740    3.4775   -1.7104 H   0  0  0  0  0  0  0  0  0  0  0  0
   -0.7852    4.5915   -2.9842 H   0  0  0  0  0  0  0  0  0  0  0  0
   -1.7670    4.4070   -1.5187 H   0  0  0  0  0  0  0  0  0  0  0  0
   -0.9018    2.6515   -5.0875 N   0  0  0  0  0  0  0  0  0  0  0  0
   -0.1075    2.1288   -6.1746 C   0  0  0  0  0  0  0  0  0  0  0  0
   -1.3865    3.5319   -5.2352 H   0  0  0  0  0  0  0  0  0  0  0  0
    0.9210    2.5107   -6.0946 H   0  0  0  0  0  0  0  0  0  0  0  0
   -0.0954    1.0300   -6.1244 H   0  0  0  0  0  0  0  0  0  0  0  0
   -0.5432    2.4473   -7.1331 H   0  0  0  0  0  0  0  0  0  0  0  0
  1  3  1  0  0  0  0
  1  7  1  0  0  0  0
  1  2  2  0  0  0  0
 29 30  1  0  0  0  0
 30 38  1  0  0  0  0
 30 31  2  0  0  0  0
  8  9  1  0  0  0  0
  9 17  1  0  0  0  0
  9 10  2  0  0  0  0
 18 19  1  0  0  0  0
 19 28  1  0  0  0  0
 19 20  2  0  0  0  0
 29 32  1  0  0  0  0
  8 11  1  0  0  0  0
 38 39  1  0  0  0  0
 18 21  1  0  0  0  0
 21 22  1  0  0  0  0
 28 29  1  0  0  0  0
  7  8  1  0  0  0  0
 17 18  1  0  0  0  0
  3  4  1  0  0  0  0
  3  5  1  0  0  0  0
  3  6  1  0  0  0  0
 32 35  1  0  0  0  0
 32 36  1  0  0  0  0
 32 37  1  0  0  0  0
 11 14  1  0  0  0  0
 11 15  1  0  0  0  0
 11 16  1  0  0  0  0
 39 41  1  0  0  0  0
 39 42  1  0  0  0  0
 39 43  1  0  0  0  0
 21 25  1  0  0  0  0
 21 26  1  0  0  0  0
 29 34  1  0  0  0  0
  8 13  1  0  0  0  0
 18 24  1  0  0  0  0
 38 40  1  0  0  0  0
  7 12  1  0  0  0  0
 28 33  1  0  0  0  0
 17 23  1  0  0  0  0
 22 27  1  0  0  0  0
M  END
$$$$

  -OEChem-05262214473D

 43 42  0     1  0  0  0  0  0999 V2000
    0.7424   -1.0926    4.5665 C   0  0  0  0  0  0  0  0  0  0  0  0
    0.1409   -0.5364    5.4779 O   0  0  0  0  0  0  0  0  0  0  0  0
    1.7940   -2.1023    4.8871 C   0  0  0  0  0  0  0  0  0  0  0  0
    2.7935   -1.6502    4.9904 H   0  0  0  0  0  0  0  0  0  0  0  0
    1.6064   -2.6156    5.8438 H   0  0  0  0  0  0  0  0  0  0  0  0
    1.9156   -2.9078    4.1453 H   0  0  0  0  0  0  0  0  0  0  0  0
    0.5488   -0.8838    3.2109 N   0  0  0  0  0  0  0  0  0  0  0  0
   -0.4159    0.0446    2.6829 C   0  0  2  0  0  0  0  0  0  0  0  0
   -0.7551   -0.3867    1.2623 C   0  0  0  0  0  0  0  0  0  0  0  0
   -0.0106   -1.0851    0.5774 O   0  0  0  0  0  0  0  0  0  0  0  0
    0.1168    1.4689    2.7060 C   0  0  0  0  0  0  0  0  0  0  0  0
    1.1183   -1.4145    2.5542 H   0  0  0  0  0  0  0  0  0  0  0  0
   -1.3088   -0.0350    3.3125 H   0  0  0  0  0  0  0  0  0  0  0  0
    1.0116    1.5681    2.0808 H   0  0  0  0  0  0  0  0  0  0  0  0
   -0.6289    2.1775    2.3307 H   0  0  0  0  0  0  0  0  0  0  0  0
    0.3882    1.7670    3.7245 H   0  0  0  0  0  0  0  0  0  0  0  0
   -1.9689    0.1350    0.8298 N   0  0  0  0  0  0  0  0  0  0  0  0
   -2.5039   -0.1183   -0.4830 C   0  0  2  0  0  0  0  0  0  0  0  0
   -1.7209    0.7205   -1.4871 C   0  0  0  0  0  0  0  0  0  0  0  0
   -0.7269    0.3032   -2.0779 O   0  0  0  0  0  0  0  0  0  0  0  0
   -4.0012    0.1657   -0.5468 C   0  0  0  0  0  0  0  0  0  0  0  0
   -4.2475    1.5550   -0.3611 O   0  0  0  0  0  0  0  0  0  0  0  0
   -2.5276    0.6894    1.4750 H   0  0  0  0  0  0  0  0  0  0  0  0
   -2.3230   -1.1793   -0.6902 H   0  0  0  0  0  0  0  0  0  0  0  0
   -4.5389   -0.3816    0.2341 H   0  0  0  0  0  0  0  0  0  0  0  0
   -4.4070   -0.1244   -1.5218 H   0  0  0  0  0  0  0  0  0  0  0  0
   -3.7832    2.0180   -1.0763 H   0  0  0  0  0  0  0  0  0  0  0  0
   -2.2883    1.9726   -1.6766 N   0  0  0  0  0  0  0  0  0  0  0  0
   -1.7507    2.9433   -2.6014 C   0  0  2  0  0  0  0  0  0  0  0  0
   -1.1686    2.1890   -3.7895 C   0  0  0  0  0  0  0  0  0  0  0  0
   -0.8186    1.0121   -3.7306 O   0  0  0  0  0  0  0  0  0  0  0  0
   -0.6935    3.8126   -1.9385 C   0  0  0  0  0  0  0  0  0  0  0  0
   -3.1358    2.2180   -1.1734 H   0  0  0  0  0  0  0  0  0  0  0  0
   -2.5915    3.5605   -2.9363 H   0  0  0  0  0  0  0  0  0  0  0  0
    0.1569    3.2117   -1.5963 H   0  0  0  0  0  0  0  0  0  0  0  0
   -0.3075    4.5665   -2.6326 H   0  0  0  0  0  0  0  0  0  0  0  0
   -1.1062    4.3314   -1.0665 H   0  0  0  0  0  0  0  0  0  0  0  0
   -1.0458    2.9969   -4.9113 N   0  0  0  0  0  0  0  0  0  0  0  0
   -0.5078    2.5168   -6.1627 C   0  0  0  0  0  0  0  0  0  0  0  0
   -1.3791    3.9557   -4.8754 H   0  0  0  0  0  0  0  0  0  0  0  0
    0.5741    2.7126   -6.1964 H   0  0  0  0  0  0  0  0  0  0  0  0
   -0.6873    1.4349   -6.2478 H   0  0  0  0  0  0  0  0  0  0  0  0
   -1.0006    3.0370   -6.9972 H   0  0  0  0  0  0  0  0  0  0  0  0
  1  3  1  0  0  0  0
  1  7  1  0  0  0  0
  1  2  2  0  0  0  0
 29 30  1  0  0  0  0
 30 38  1  0  0  0  0
 30 31  2  0  0  0  0
  8  9  1  0  0  0  0
  9 17  1  0  0  0  0
  9 10  2  0  0  0  0
 18 19  1  0  0  0  0
 19 28  1  0  0  0  0
 19 20  2  0  0  0  0
 29 32  1  0  0  0  0
  8 11  1  0  0  0  0
 38 39  1  0  0  0  0
 18 21  1  0  0  0  0
 21 22  1  0  0  0  0
 28 29  1  0  0  0  0
  7  8  1  0  0  0  0
 17 18  1  0  0  0  0
  3  4  1  0  0  0  0
  3  5  1  0  0  0  0
  3  6  1  0  0  0  0
 32 35  1  0  0  0  0
 32 36  1  0  0  0  0
 32 37  1  0  0  0  0
 11 14  1  0  0  0  0
 11 15  1  0  0  0  0
 11 16  1  0  0  0  0
 39 41  1  0  0  0  0
 39 42  1  0  0  0  0
 39 43  1  0  0  0  0
 21 25  1  0  0  0  0
 21 26  1  0  0  0  0
 29 34  1  0  0  0  0
  8 13  1  0  0  0  0
 18 24  1  0  0  0  0
 38 40  1  0  0  0  0
  7 12  1  0  0  0  0
 28 33  1  0  0  0  0
 17 23  1  0  0  0  0
 22 27  1  0  0  0  0
M  END
$$$$

  -OEChem-05262214473D

 43 42  0     1  0  0  0  0  0999 V2000
    0.7424   -1.0926    4.5665 C   0  0  0  0  0  0  0  0  0  0  0  0
    0.1409   -0.5364    5.4779 O   0  0  0  0  0  0  0  0  0  0  0  0
    1.7940   -2.1023    4.8871 C   0  0  0  0  0  0  0  0  0  0  0  0
    2.7935   -1.6502    4.9904 H   0  0  0  0  0  0  0  0  0  0  0  0
    1.6064   -2.6156    5.8438 H   0  0  0  0  0  0  0  0  0  0  0  0
    1.9156   -2.9078    4.1453 H   0  0  0  0  0  0  0  0  0  0  0  0
    0.5488   -0.8838    3.2109 N   0  0  0  0  0  0  0  0  0  0  0  0
   -0.4159    0.0446    2.6829 C   0  0  2  0  0  0  0  0  0  0  0  0
   -0.7551   -0.3867    1.2623 C   0  0  0  0  0  0  0  0  0  0  0  0
   -0.0106   -1.0851    0.5774 O   0  0  0  0  0  0  0  0  0  0  0  0
    0.1168    1.4689    2.7060 C   0  0  0  0  0  0  0  0  0  0  0  0
    1.1183   -1.4145    2.5542 H   0  0  0  0  0  0  0  0  0  0  0  0
   -1.3088   -0.0350    3.3125 H   0  0  0  0  0  0  0  0  0  0  0  0
    1.0116    1.5681    2.0808 H   0  0  0  0  0  0  0  0  0  0  0  0
   -0.6289    2.1775    2.3307 H   0  0  0  0  0  0  0  0  0  0  0  0
    0.3882    1.7670    3.7245 H   0  0  0  0  0  0  0  0  0  0  0  0
   -1.9689    0.1350    0.8298 N   0  0  0  0  0  0  0  0  0  0  0  0
   -2.5039   -0.1183   -0.4830 C   0  0  2  0  0  0  0  0  0  0  0  0
   -1.7209    0.7205   -1.4871 C   0  0  0  0  0  0  0  0  0  0  0  0
   -0.9043    0.2391   -2.2698 O   0  0  0  0  0  0  0  0  0  0  0  0
   -4.0012    0.1657   -0.5468 C   0  0  0  0  0  0  0  0  0  0  0  0
   -4.2475    1.5550   -0.3611 O   0  0  0  0  0  0  0  0  0  0  0  0
   -2.5276    0.6894    1.4750 H   0  0  0  0  0  0  0  0  0  0  0  0
   -2.3230   -1.1793   -0.6902 H   0  0  0  0  0  0  0  0  0  0  0  0
   -4.5389   -0.3816    0.2341 H   0  0  0  0  0  0  0  0  0  0  0  0
   -4.4070   -0.1244   -1.5218 H   0  0  0  0  0  0  0  0  0  0  0  0
   -3.7832    2.0180   -1.0763 H   0  0  0  0  0  0  0  0  0  0  0  0
   -2.0734    2.0616   -1.4347 N   0  0  0  0  0  0  0  0  0  0  0  0
   -1.4955    3.0572   -2.3073 C   0  0  2  0  0  0  0  0  0  0  0  0
   -1.2193    2.3997   -3.6530 C   0  0  0  0  0  0  0  0  0  0  0  0
   -1.0823    1.1859   -3.7910 O   0  0  0  0  0  0  0  0  0  0  0  0
   -0.2216    3.6395   -1.7151 C   0  0  0  0  0  0  0  0  0  0  0  0
   -2.7896    2.3644   -0.7812 H   0  0  0  0  0  0  0  0  0  0  0  0
   -2.2479    3.8435   -2.4320 H   0  0  0  0  0  0  0  0  0  0  0  0
    0.5441    2.8664   -1.5829 H   0  0  0  0  0  0  0  0  0  0  0  0
    0.1997    4.4142   -2.3643 H   0  0  0  0  0  0  0  0  0  0  0  0
   -0.4164    4.0857   -0.7339 H   0  0  0  0  0  0  0  0  0  0  0  0
   -1.1009    3.3316   -4.6746 N   0  0  0  0  0  0  0  0  0  0  0  0
   -0.8266    2.9582   -6.0426 C   0  0  0  0  0  0  0  0  0  0  0  0
   -1.2485    4.3160   -4.4726 H   0  0  0  0  0  0  0  0  0  0  0  0
    0.2590    2.9803   -6.2186 H   0  0  0  0  0  0  0  0  0  0  0  0
   -1.2075    1.9432   -6.2289 H   0  0  0  0  0  0  0  0  0  0  0  0
   -1.3226    3.6665   -6.7224 H   0  0  0  0  0  0  0  0  0  0  0  0
  1  3  1  0  0  0  0
  1  7  1  0  0  0  0
  1  2  2  0  0  0  0
 29 30  1  0  0  0  0
 30 38  1  0  0  0  0
 30 31  2  0  0  0  0
  8  9  1  0  0  0  0
  9 17  1  0  0  0  0
  9 10  2  0  0  0  0
 18 19  1  0  0  0  0
 19 28  1  0  0  0  0
 19 20  2  0  0  0  0
 29 32  1  0  0  0  0
  8 11  1  0  0  0  0
 38 39  1  0  0  0  0
 18 21  1  0  0  0  0
 21 22  1  0  0  0  0
 28 29  1  0  0  0  0
  7  8  1  0  0  0  0
 17 18  1  0  0  0  0
  3  4  1  0  0  0  0
  3  5  1  0  0  0  0
  3  6  1  0  0  0  0
 32 35  1  0  0  0  0
 32 36  1  0  0  0  0
 32 37  1  0  0  0  0
 11 14  1  0  0  0  0
 11 15  1  0  0  0  0
 11 16  1  0  0  0  0
 39 41  1  0  0  0  0
 39 42  1  0  0  0  0
 39 43  1  0  0  0  0
 21 25  1  0  0  0  0
 21 26  1  0  0  0  0
 29 34  1  0  0  0  0
  8 13  1  0  0  0  0
 18 24  1  0  0  0  0
 38 40  1  0  0  0  0
  7 12  1  0  0  0  0
 28 33  1  0  0  0  0
 17 23  1  0  0  0  0
 22 27  1  0  0  0  0
M  END
$$$$

  -OEChem-05262214473D

 43 42  0     1  0  0  0  0  0999 V2000
    0.7424   -1.0926    4.5665 C   0  0  0  0  0  0  0  0  0  0  0  0
    0.1409   -0.5364    5.4779 O   0  0  0  0  0  0  0  0  0  0  0  0
    1.7940   -2.1023    4.8871 C   0  0  0  0  0  0  0  0  0  0  0  0
    2.7935   -1.6502    4.9904 H   0  0  0  0  0  0  0  0  0  0  0  0
    1.6064   -2.6156    5.8438 H   0  0  0  0  0  0  0  0  0  0  0  0
    1.9156   -2.9078    4.1453 H   0  0  0  0  0  0  0  0  0  0  0  0
    0.5488   -0.8838    3.2109 N   0  0  0  0  0  0  0  0  0  0  0  0
   -0.4159    0.0446    2.6829 C   0  0  2  0  0  0  0  0  0  0  0  0
   -0.7551   -0.3867    1.2623 C   0  0  0  0  0  0  0  0  0  0  0  0
   -0.0106   -1.0851    0.5774 O   0  0  0  0  0  0  0  0  0  0  0  0
    0.1168    1.4689    2.7060 C   0  0  0  0  0  0  0  0  0  0  0  0
    1.1183   -1.4145    2.5542 H   0  0  0  0  0  0  0  0  0  0  0  0
   -1.3088   -0.0350    3.3125 H   0  0  0  0  0  0  0  0  0  0  0  0
    1.0116    1.5681    2.0808 H   0  0  0  0  0  0  0  0  0  0  0  0
   -0.6289    2.1775    2.3307 H   0  0  0  0  0  0  0  0  0  0  0  0
    0.3882    1.7670    3.7245 H   0  0  0  0  0  0  0  0  0  0  0  0
   -1.9689    0.1350    0.8298 N   0  0  0  0  0  0  0  0  0  0  0  0
   -2.5039   -0.1183   -0.4830 C   0  0  2  0  0  0  0  0  0  0  0  0
   -1.7209    0.7205   -1.4871 C   0  0  0  0  0  0  0  0  0  0  0  0
   -1.1139    0.2329   -2.4384 O   0  0  0  0  0  0  0  0  0  0  0  0
   -4.0012    0.1657   -0.5468 C   0  0  0  0  0  0  0  0  0  0  0  0
   -4.2475    1.5550   -0.3611 O   0  0  0  0  0  0  0  0  0  0  0  0
   -2.5276    0.6894    1.4750 H   0  0  0  0  0  0  0  0  0  0  0  0
   -2.3230   -1.1793   -0.6902 H   0  0  0  0  0  0  0  0  0  0  0  0
   -4.5389   -0.3816    0.2341 H   0  0  0  0  0  0  0  0  0  0  0  0
   -4.4070   -0.1244   -1.5218 H   0  0  0  0  0  0  0  0  0  0  0  0
   -3.7832    2.0180   -1.0763 H   0  0  0  0  0  0  0  0  0  0  0  0
   -1.8162    2.0788   -1.2197 N   0  0  0  0  0  0  0  0  0  0  0  0
   -1.1877    3.0846   -2.0444 C   0  0  2  0  0  0  0  0  0  0  0  0
   -1.2129    2.5937   -3.4859 C   0  0  0  0  0  0  0  0  0  0  0  0
   -1.3160    1.4068   -3.7887 O   0  0  0  0  0  0  0  0  0  0  0  0
    0.2366    3.3622   -1.5895 C   0  0  0  0  0  0  0  0  0  0  0  0
   -2.3744    2.3947   -0.4321 H   0  0  0  0  0  0  0  0  0  0  0  0
   -1.7960    3.9913   -1.9561 H   0  0  0  0  0  0  0  0  0  0  0  0
    0.8611    2.4651   -1.6709 H   0  0  0  0  0  0  0  0  0  0  0  0
    0.7018    4.1450   -2.1976 H   0  0  0  0  0  0  0  0  0  0  0  0
    0.2554    3.6865   -0.5435 H   0  0  0  0  0  0  0  0  0  0  0  0
   -1.0634    3.6328   -4.3937 N   0  0  0  0  0  0  0  0  0  0  0  0
   -1.0422    3.4229   -5.8225 C   0  0  0  0  0  0  0  0  0  0  0  0
   -1.0036    4.5883   -4.0541 H   0  0  0  0  0  0  0  0  0  0  0  0
   -0.0029    3.2954   -6.1595 H   0  0  0  0  0  0  0  0  0  0  0  0
   -1.6207    2.5203   -6.0690 H   0  0  0  0  0  0  0  0  0  0  0  0
   -1.4872    4.2929   -6.3275 H   0  0  0  0  0  0  0  0  0  0  0  0
  1  3  1  0  0  0  0
  1  7  1  0  0  0  0
  1  2  2  0  0  0  0
 29 30  1  0  0  0  0
 30 38  1  0  0  0  0
 30 31  2  0  0  0  0
  8  9  1  0  0  0  0
  9 17  1  0  0  0  0
  9 10  2  0  0  0  0
 18 19  1  0  0  0  0
 19 28  1  0  0  0  0
 19 20  2  0  0  0  0
 29 32  1  0  0  0  0
  8 11  1  0  0  0  0
 38 39  1  0  0  0  0
 18 21  1  0  0  0  0
 21 22  1  0  0  0  0
 28 29  1  0  0  0  0
  7  8  1  0  0  0  0
 17 18  1  0  0  0  0
  3  4  1  0  0  0  0
  3  5  1  0  0  0  0
  3  6  1  0  0  0  0
 32 35  1  0  0  0  0
 32 36  1  0  0  0  0
 32 37  1  0  0  0  0
 11 14  1  0  0  0  0
 11 15  1  0  0  0  0
 11 16  1  0  0  0  0
 39 41  1  0  0  0  0
 39 42  1  0  0  0  0
 39 43  1  0  0  0  0
 21 25  1  0  0  0  0
 21 26  1  0  0  0  0
 29 34  1  0  0  0  0
  8 13  1  0  0  0  0
 18 24  1  0  0  0  0
 38 40  1  0  0  0  0
  7 12  1  0  0  0  0
 28 33  1  0  0  0  0
 17 23  1  0  0  0  0
 22 27  1  0  0  0  0
M  END
$$$$

  -OEChem-05262214473D

 43 42  0     1  0  0  0  0  0999 V2000
    0.7424   -1.0926    4.5665 C   0  0  0  0  0  0  0  0  0  0  0  0
    0.1409   -0.5364    5.4779 O   0  0  0  0  0  0  0  0  0  0  0  0
    1.7940   -2.1023    4.8871 C   0  0  0  0  0  0  0  0  0  0  0  0
    2.7935   -1.6502    4.9904 H   0  0  0  0  0  0  0  0  0  0  0  0
    1.6064   -2.6156    5.8438 H   0  0  0  0  0  0  0  0  0  0  0  0
    1.9156   -2.9078    4.1453 H   0  0  0  0  0  0  0  0  0  0  0  0
    0.5488   -0.8838    3.2109 N   0  0  0  0  0  0  0  0  0  0  0  0
   -0.4159    0.0446    2.6829 C   0  0  2  0  0  0  0  0  0  0  0  0
   -0.7551   -0.3867    1.2623 C   0  0  0  0  0  0  0  0  0  0  0  0
   -0.0106   -1.0851    0.5774 O   0  0  0  0  0  0  0  0  0  0  0  0
    0.1168    1.4689    2.7060 C   0  0  0  0  0  0  0  0  0  0  0  0
    1.1183   -1.4145    2.5542 H   0  0  0  0  0  0  0  0  0  0  0  0
   -1.3088   -0.0350    3.3125 H   0  0  0  0  0  0  0  0  0  0  0  0
    1.0116    1.5681    2.0808 H   0  0  0  0  0  0  0  0  0  0  0  0
   -0.6289    2.1775    2.3307 H   0  0  0  0  0  0  0  0  0  0  0  0
    0.3882    1.7670    3.7245 H   0  0  0  0  0  0  0  0  0  0  0  0
   -1.9689    0.1350    0.8298 N   0  0  0  0  0  0  0  0  0  0  0  0
   -2.5039   -0.1183   -0.4830 C   0  0  2  0  0  0  0  0  0  0  0  0
   -1.7209    0.7205   -1.4871 C   0  0  0  0  0  0  0  0  0  0  0  0
   -1.3414    0.2850   -2.5722 O   0  0  0  0  0  0  0  0  0  0  0  0
   -4.0012    0.1657   -0.5468 C   0  0  0  0  0  0  0  0  0  0  0  0
   -4.2475    1.5550   -0.3611 O   0  0  0  0  0  0  0  0  0  0  0  0
   -2.5276    0.6894    1.4750 H   0  0  0  0  0  0  0  0  0  0  0  0
   -2.3230   -1.1793   -0.6902 H   0  0  0  0  0  0  0  0  0  0  0  0
   -4.5389   -0.3816    0.2341 H   0  0  0  0  0  0  0  0  0  0  0  0
   -4.4070   -0.1244   -1.5218 H   0  0  0  0  0  0  0  0  0  0  0  0
   -3.7832    2.0180   -1.0763 H   0  0  0  0  0  0  0  0  0  0  0  0
   -1.5343    2.0231   -1.0464 N   0  0  0  0  0  0  0  0  0  0  0  0
   -0.8483    3.0236   -1.8307 C   0  0  2  0  0  0  0  0  0  0  0  0
   -1.1499    2.7579   -3.2997 C   0  0  0  0  0  0  0  0  0  0  0  0
   -1.5037    1.6597   -3.7238 O   0  0  0  0  0  0  0  0  0  0  0  0
    0.6498    2.9995   -1.5703 C   0  0  0  0  0  0  0  0  0  0  0  0
   -1.9185    2.3067   -0.1500 H   0  0  0  0  0  0  0  0  0  0  0  0
   -1.2665    3.9938   -1.5411 H   0  0  0  0  0  0  0  0  0  0  0  0
    1.0865    2.0351   -1.8543 H   0  0  0  0  0  0  0  0  0  0  0  0
    1.1647    3.7772   -2.1438 H   0  0  0  0  0  0  0  0  0  0  0  0
    0.8634    3.1611   -0.5082 H   0  0  0  0  0  0  0  0  0  0  0  0
   -0.9358    3.8801   -4.0877 N   0  0  0  0  0  0  0  0  0  0  0  0
   -1.1399    3.8793   -5.5175 C   0  0  0  0  0  0  0  0  0  0  0  0
   -0.6610    4.7539   -3.6486 H   0  0  0  0  0  0  0  0  0  0  0  0
   -0.1937    3.6367   -6.0233 H   0  0  0  0  0  0  0  0  0  0  0  0
   -1.8987    3.1270   -5.7789 H   0  0  0  0  0  0  0  0  0  0  0  0
   -1.4832    4.8735   -5.8393 H   0  0  0  0  0  0  0  0  0  0  0  0
  1  3  1  0  0  0  0
  1  7  1  0  0  0  0
  1  2  2  0  0  0  0
 29 30  1  0  0  0  0
 30 38  1  0  0  0  0
 30 31  2  0  0  0  0
  8  9  1  0  0  0  0
  9 17  1  0  0  0  0
  9 10  2  0  0  0  0
 18 19  1  0  0  0  0
 19 28  1  0  0  0  0
 19 20  2  0  0  0  0
 29 32  1  0  0  0  0
  8 11  1  0  0  0  0
 38 39  1  0  0  0  0
 18 21  1  0  0  0  0
 21 22  1  0  0  0  0
 28 29  1  0  0  0  0
  7  8  1  0  0  0  0
 17 18  1  0  0  0  0
  3  4  1  0  0  0  0
  3  5  1  0  0  0  0
  3  6  1  0  0  0  0
 32 35  1  0  0  0  0
 32 36  1  0  0  0  0
 32 37  1  0  0  0  0
 11 14  1  0  0  0  0
 11 15  1  0  0  0  0
 11 16  1  0  0  0  0
 39 41  1  0  0  0  0
 39 42  1  0  0  0  0
 39 43  1  0  0  0  0
 21 25  1  0  0  0  0
 21 26  1  0  0  0  0
 29 34  1  0  0  0  0
  8 13  1  0  0  0  0
 18 24  1  0  0  0  0
 38 40  1  0  0  0  0
  7 12  1  0  0  0  0
 28 33  1  0  0  0  0
 17 23  1  0  0  0  0
 22 27  1  0  0  0  0
M  END
$$$$

  -OEChem-05262214473D

 43 42  0     1  0  0  0  0  0999 V2000
    0.7424   -1.0926    4.5665 C   0  0  0  0  0  0  0  0  0  0  0  0
    0.1409   -0.5364    5.4779 O   0  0  0  0  0  0  0  0  0  0  0  0
    1.7940   -2.1023    4.8871 C   0  0  0  0  0  0  0  0  0  0  0  0
    2.7935   -1.6502    4.9904 H   0  0  0  0  0  0  0  0  0  0  0  0
    1.6064   -2.6156    5.8438 H   0  0  0  0  0  0  0  0  0  0  0  0
    1.9156   -2.9078    4.1453 H   0  0  0  0  0  0  0  0  0  0  0  0
    0.5488   -0.8838    3.2109 N   0  0  0  0  0  0  0  0  0  0  0  0
   -0.4159    0.0446    2.6829 C   0  0  2  0  0  0  0  0  0  0  0  0
   -0.7551   -0.3867    1.2623 C   0  0  0  0  0  0  0  0  0  0  0  0
   -0.0106   -1.0851    0.5774 O   0  0  0  0  0  0  0  0  0  0  0  0
    0.1168    1.4689    2.7060 C   0  0  0  0  0  0  0  0  0  0  0  0
    1.1183   -1.4145    2.5542 H   0  0  0  0  0  0  0  0  0  0  0  0
   -1.3088   -0.0350    3.3125 H   0  0  0  0  0  0  0  0  0  0  0  0
    1.0116    1.5681    2.0808 H   0  0  0  0  0  0  0  0  0  0  0  0
   -0.6289    2.1775    2.3307 H   0  0  0  0  0  0  0  0  0  0  0  0
    0.3882    1.7670    3.7245 H   0  0  0  0  0  0  0  0  0  0  0  0
   -1.9689    0.1350    0.8298 N   0  0  0  0  0  0  0  0  0  0  0  0
   -2.5039   -0.1183   -0.4830 C   0  0  2  0  0  0  0  0  0  0  0  0
   -1.7209    0.7205   -1.4871 C   0  0  0  0  0  0  0  0  0  0  0  0
   -1.5713    0.3920   -2.6622 O   0  0  0  0  0  0  0  0  0  0  0  0
   -4.0012    0.1657   -0.5468 C   0  0  0  0  0  0  0  0  0  0  0  0
   -4.2475    1.5550   -0.3611 O   0  0  0  0  0  0  0  0  0  0  0  0
   -2.5276    0.6894    1.4750 H   0  0  0  0  0  0  0  0  0  0  0  0
   -2.3230   -1.1793   -0.6902 H   0  0  0  0  0  0  0  0  0  0  0  0
   -4.5389   -0.3816    0.2341 H   0  0  0  0  0  0  0  0  0  0  0  0
   -4.4070   -0.1244   -1.5218 H   0  0  0  0  0  0  0  0  0  0  0  0
   -3.7832    2.0180   -1.0763 H   0  0  0  0  0  0  0  0  0  0  0  0
   -1.2467    1.8981   -0.9266 N   0  0  0  0  0  0  0  0  0  0  0  0
   -0.5005    2.8785   -1.6806 C   0  0  2  0  0  0  0  0  0  0  0  0
   -1.0345    2.8809   -3.1069 C   0  0  0  0  0  0  0  0  0  0  0  0
   -1.6327    1.9274   -3.6009 O   0  0  0  0  0  0  0  0  0  0  0  0
    0.9898    2.5762   -1.6588 C   0  0  0  0  0  0  0  0  0  0  0  0
   -1.4529    2.1066    0.0458 H   0  0  0  0  0  0  0  0  0  0  0  0
   -0.6955    3.8508   -1.2153 H   0  0  0  0  0  0  0  0  0  0  0  0
    1.2047    1.6057   -2.1208 H   0  0  0  0  0  0  0  0  0  0  0  0
    1.5568    3.3359   -2.2067 H   0  0  0  0  0  0  0  0  0  0  0  0
    1.3661    2.5454   -0.6306 H   0  0  0  0  0  0  0  0  0  0  0  0
   -0.7269    4.0565   -3.7773 N   0  0  0  0  0  0  0  0  0  0  0  0
   -1.1131    4.2962   -5.1482 C   0  0  0  0  0  0  0  0  0  0  0  0
   -0.2442    4.8016   -3.2837 H   0  0  0  0  0  0  0  0  0  0  0  0
   -0.3005    3.9807   -5.8192 H   0  0  0  0  0  0  0  0  0  0  0  0
   -2.0225    3.7218   -5.3786 H   0  0  0  0  0  0  0  0  0  0  0  0
   -1.3108    5.3688   -5.2912 H   0  0  0  0  0  0  0  0  0  0  0  0
  1  3  1  0  0  0  0
  1  7  1  0  0  0  0
  1  2  2  0  0  0  0
 29 30  1  0  0  0  0
 30 38  1  0  0  0  0
 30 31  2  0  0  0  0
  8  9  1  0  0  0  0
  9 17  1  0  0  0  0
  9 10  2  0  0  0  0
 18 19  1  0  0  0  0
 19 28  1  0  0  0  0
 19 20  2  0  0  0  0
 29 32  1  0  0  0  0
  8 11  1  0  0  0  0
 38 39  1  0  0  0  0
 18 21  1  0  0  0  0
 21 22  1  0  0  0  0
 28 29  1  0  0  0  0
  7  8  1  0  0  0  0
 17 18  1  0  0  0  0
  3  4  1  0  0  0  0
  3  5  1  0  0  0  0
  3  6  1  0  0  0  0
 32 35  1  0  0  0  0
 32 36  1  0  0  0  0
 32 37  1  0  0  0  0
 11 14  1  0  0  0  0
 11 15  1  0  0  0  0
 11 16  1  0  0  0  0
 39 41  1  0  0  0  0
 39 42  1  0  0  0  0
 39 43  1  0  0  0  0
 21 25  1  0  0  0  0
 21 26  1  0  0  0  0
 29 34  1  0  0  0  0
  8 13  1  0  0  0  0
 18 24  1  0  0  0  0
 38 40  1  0  0  0  0
  7 12  1  0  0  0  0
 28 33  1  0  0  0  0
 17 23  1  0  0  0  0
 22 27  1  0  0  0  0
M  END
$$$$

  -OEChem-05262214473D

 43 42  0     1  0  0  0  0  0999 V2000
    0.7424   -1.0926    4.5665 C   0  0  0  0  0  0  0  0  0  0  0  0
    0.1409   -0.5364    5.4779 O   0  0  0  0  0  0  0  0  0  0  0  0
    1.7940   -2.1023    4.8871 C   0  0  0  0  0  0  0  0  0  0  0  0
    2.7935   -1.6502    4.9904 H   0  0  0  0  0  0  0  0  0  0  0  0
    1.6064   -2.6156    5.8438 H   0  0  0  0  0  0  0  0  0  0  0  0
    1.9156   -2.9078    4.1453 H   0  0  0  0  0  0  0  0  0  0  0  0
    0.5488   -0.8838    3.2109 N   0  0  0  0  0  0  0  0  0  0  0  0
   -0.4159    0.0446    2.6829 C   0  0  2  0  0  0  0  0  0  0  0  0
   -0.7551   -0.3867    1.2623 C   0  0  0  0  0  0  0  0  0  0  0  0
   -0.0106   -1.0851    0.5774 O   0  0  0  0  0  0  0  0  0  0  0  0
    0.1168    1.4689    2.7060 C   0  0  0  0  0  0  0  0  0  0  0  0
    1.1183   -1.4145    2.5542 H   0  0  0  0  0  0  0  0  0  0  0  0
   -1.3088   -0.0350    3.3125 H   0  0  0  0  0  0  0  0  0  0  0  0
    1.0116    1.5681    2.0808 H   0  0  0  0  0  0  0  0  0  0  0  0
   -0.6289    2.1775    2.3307 H   0  0  0  0  0  0  0  0  0  0  0  0
    0.3882    1.7670    3.7245 H   0  0  0  0  0  0  0  0  0  0  0  0
   -1.9689    0.1350    0.8298 N   0  0  0  0  0  0  0  0  0  0  0  0
   -2.5039   -0.1183   -0.4830 C   0  0  2  0  0  0  0  0  0  0  0  0
   -1.7209    0.7205   -1.4871 C   0  0  0  0  0  0  0  0  0  0  0  0
   -1.7880    0.5464   -2.7022 O   0  0  0  0  0  0  0  0  0  0  0  0
   -4.0012    0.1657   -0.5468 C   0  0  0  0  0  0  0  0  0  0  0  0
   -4.2475    1.5550   -0.3611 O   0  0  0  0  0  0  0  0  0  0  0  0
   -2.5276    0.6894    1.4750 H   0  0  0  0  0  0  0  0  0  0  0  0
   -2.3230   -1.1793   -0.6902 H   0  0  0  0  0  0  0  0  0  0  0  0
   -4.5389   -0.3816    0.2341 H   0  0  0  0  0  0  0  0  0  0  0  0
   -4.4070   -0.1244   -1.5218 H   0  0  0  0  0  0  0  0  0  0  0  0
   -3.7832    2.0180   -1.0763 H   0  0  0  0  0  0  0  0  0  0  0  0
   -0.9732    1.7124   -0.8684 N   0  0  0  0  0  0  0  0  0  0  0  0
   -0.1678    2.6590   -1.6045 C   0  0  2  0  0  0  0  0  0  0  0  0
   -0.8747    2.9545   -2.9208 C   0  0  0  0  0  0  0  0  0  0  0  0
   -1.6942    2.1915   -3.4281 O   0  0  0  0  0  0  0  0  0  0  0  0
    1.2335    2.1211   -1.8489 C   0  0  0  0  0  0  0  0  0  0  0  0
   -1.0095    1.8079    0.1421 H   0  0  0  0  0  0  0  0  0  0  0  0
   -0.1220    3.5720   -1.0009 H   0  0  0  0  0  0  0  0  0  0  0  0
    1.2078    1.2063   -2.4521 H   0  0  0  0  0  0  0  0  0  0  0  0
    1.8514    2.8512   -2.3819 H   0  0  0  0  0  0  0  0  0  0  0  0
    1.7294    1.8811   -0.9022 H   0  0  0  0  0  0  0  0  0  0  0  0
   -0.4508    4.1501   -3.4839 N   0  0  0  0  0  0  0  0  0  0  0  0
   -0.9636    4.6453   -4.7400 C   0  0  0  0  0  0  0  0  0  0  0  0
    0.2186    4.7281   -2.9843 H   0  0  0  0  0  0  0  0  0  0  0  0
   -0.3160    4.3041   -5.5611 H   0  0  0  0  0  0  0  0  0  0  0  0
   -1.9837    4.2643   -4.8952 H   0  0  0  0  0  0  0  0  0  0  0  0
   -0.9819    5.7450   -4.7204 H   0  0  0  0  0  0  0  0  0  0  0  0
  1  3  1  0  0  0  0
  1  7  1  0  0  0  0
  1  2  2  0  0  0  0
 29 30  1  0  0  0  0
 30 38  1  0  0  0  0
 30 31  2  0  0  0  0
  8  9  1  0  0  0  0
  9 17  1  0  0  0  0
  9 10  2  0  0  0  0
 18 19  1  0  0  0  0
 19 28  1  0  0  0  0
 19 20  2  0  0  0  0
 29 32  1  0  0  0  0
  8 11  1  0  0  0  0
 38 39  1  0  0  0  0
 18 21  1  0  0  0  0
 21 22  1  0  0  0  0
 28 29  1  0  0  0  0
  7  8  1  0  0  0  0
 17 18  1  0  0  0  0
  3  4  1  0  0  0  0
  3  5  1  0  0  0  0
  3  6  1  0  0  0  0
 32 35  1  0  0  0  0
 32 36  1  0  0  0  0
 32 37  1  0  0  0  0
 11 14  1  0  0  0  0
 11 15  1  0  0  0  0
 11 16  1  0  0  0  0
 39 41  1  0  0  0  0
 39 42  1  0  0  0  0
 39 43  1  0  0  0  0
 21 25  1  0  0  0  0
 21 26  1  0  0  0  0
 29 34  1  0  0  0  0
  8 13  1  0  0  0  0
 18 24  1  0  0  0  0
 38 40  1  0  0  0  0
  7 12  1  0  0  0  0
 28 33  1  0  0  0  0
 17 23  1  0  0  0  0
 22 27  1  0  0  0  0
M  END
$$$$

  -OEChem-05262214473D

 43 42  0     1  0  0  0  0  0999 V2000
    0.7424   -1.0926    4.5665 C   0  0  0  0  0  0  0  0  0  0  0  0
    0.1409   -0.5364    5.4779 O   0  0  0  0  0  0  0  0  0  0  0  0
    1.7940   -2.1023    4.8871 C   0  0  0  0  0  0  0  0  0  0  0  0
    2.7935   -1.6502    4.9904 H   0  0  0  0  0  0  0  0  0  0  0  0
    1.6064   -2.6156    5.8438 H   0  0  0  0  0  0  0  0  0  0  0  0
    1.9156   -2.9078    4.1453 H   0  0  0  0  0  0  0  0  0  0  0  0
    0.5488   -0.8838    3.2109 N   0  0  0  0  0  0  0  0  0  0  0  0
   -0.4159    0.0446    2.6829 C   0  0  2  0  0  0  0  0  0  0  0  0
   -0.7551   -0.3867    1.2623 C   0  0  0  0  0  0  0  0  0  0  0  0
   -0.0106   -1.0851    0.5774 O   0  0  0  0  0  0  0  0  0  0  0  0
    0.1168    1.4689    2.7060 C   0  0  0  0  0  0  0  0  0  0  0  0
    1.1183   -1.4145    2.5542 H   0  0  0  0  0  0  0  0  0  0  0  0
   -1.3088   -0.0350    3.3125 H   0  0  0  0  0  0  0  0  0  0  0  0
    1.0116    1.5681    2.0808 H   0  0  0  0  0  0  0  0  0  0  0  0
   -0.6289    2.1775    2.3307 H   0  0  0  0  0  0  0  0  0  0  0  0
    0.3882    1.7670    3.7245 H   0  0  0  0  0  0  0  0  0  0  0  0
   -1.9689    0.1350    0.8298 N   0  0  0  0  0  0  0  0  0  0  0  0
   -2.5039   -0.1183   -0.4830 C   0  0  2  0  0  0  0  0  0  0  0  0
   -1.7209    0.7205   -1.4871 C   0  0  0  0  0  0  0  0  0  0  0  0
   -1.9766    0.7378   -2.6894 O   0  0  0  0  0  0  0  0  0  0  0  0
   -4.0012    0.1657   -0.5468 C   0  0  0  0  0  0  0  0  0  0  0  0
   -4.2475    1.5550   -0.3611 O   0  0  0  0  0  0  0  0  0  0  0  0
   -2.5276    0.6894    1.4750 H   0  0  0  0  0  0  0  0  0  0  0  0
   -2.3230   -1.1793   -0.6902 H   0  0  0  0  0  0  0  0  0  0  0  0
   -4.5389   -0.3816    0.2341 H   0  0  0  0  0  0  0  0  0  0  0  0
   -4.4070   -0.1244   -1.5218 H   0  0  0  0  0  0  0  0  0  0  0  0
   -3.7832    2.0180   -1.0763 H   0  0  0  0  0  0  0  0  0  0  0  0
   -0.7324    1.4788   -0.8758 N   0  0  0  0  0  0  0  0  0  0  0  0
    0.1269    2.3803   -1.6076 C   0  0  2  0  0  0  0  0  0  0  0  0
   -0.6812    2.9736   -2.7540 C   0  0  0  0  0  0  0  0  0  0  0  0
   -1.6840    2.4342   -3.2174 O   0  0  0  0  0  0  0  0  0  0  0  0
    1.3642    1.6653   -2.1277 C   0  0  0  0  0  0  0  0  0  0  0  0
   -0.6183    1.4310    0.1323 H   0  0  0  0  0  0  0  0  0  0  0  0
    0.4149    3.1765   -0.9126 H   0  0  0  0  0  0  0  0  0  0  0  0
    1.0955    0.8639   -2.8256 H   0  0  0  0  0  0  0  0  0  0  0  0
    2.0283    2.3561   -2.6575 H   0  0  0  0  0  0  0  0  0  0  0  0
    1.9284    1.2137   -1.3045 H   0  0  0  0  0  0  0  0  0  0  0  0
   -0.1264    4.1544   -3.2273 N   0  0  0  0  0  0  0  0  0  0  0  0
   -0.7015    4.9028   -4.3206 C   0  0  0  0  0  0  0  0  0  0  0  0
    0.6956    4.5385   -2.7707 H   0  0  0  0  0  0  0  0  0  0  0  0
   -0.2390    4.5848   -5.2666 H   0  0  0  0  0  0  0  0  0  0  0  0
   -1.7850    4.7174   -4.3617 H   0  0  0  0  0  0  0  0  0  0  0  0
   -0.5188    5.9764   -4.1660 H   0  0  0  0  0  0  0  0  0  0  0  0
  1  3  1  0  0  0  0
  1  7  1  0  0  0  0
  1  2  2  0  0  0  0
 29 30  1  0  0  0  0
 30 38  1  0  0  0  0
 30 31  2  0  0  0  0
  8  9  1  0  0  0  0
  9 17  1  0  0  0  0
  9 10  2  0  0  0  0
 18 19  1  0  0  0  0
 19 28  1  0  0  0  0
 19 20  2  0  0  0  0
 29 32  1  0  0  0  0
  8 11  1  0  0  0  0
 38 39  1  0  0  0  0
 18 21  1  0  0  0  0
 21 22  1  0  0  0  0
 28 29  1  0  0  0  0
  7  8  1  0  0  0  0
 17 18  1  0  0  0  0
  3  4  1  0  0  0  0
  3  5  1  0  0  0  0
  3  6  1  0  0  0  0
 32 35  1  0  0  0  0
 32 36  1  0  0  0  0
 32 37  1  0  0  0  0
 11 14  1  0  0  0  0
 11 15  1  0  0  0  0
 11 16  1  0  0  0  0
 39 41  1  0  0  0  0
 39 42  1  0  0  0  0
 39 43  1  0  0  0  0
 21 25  1  0  0  0  0
 21 26  1  0  0  0  0
 29 34  1  0  0  0  0
  8 13  1  0  0  0  0
 18 24  1  0  0  0  0
 38 40  1  0  0  0  0
  7 12  1  0  0  0  0
 28 33  1  0  0  0  0
 17 23  1  0  0  0  0
 22 27  1  0  0  0  0
M  END
$$$$

  -OEChem-05262214473D

 43 42  0     1  0  0  0  0  0999 V2000
    0.7424   -1.0926    4.5665 C   0  0  0  0  0  0  0  0  0  0  0  0
    0.1409   -0.5364    5.4779 O   0  0  0  0  0  0  0  0  0  0  0  0
    1.7940   -2.1023    4.8871 C   0  0  0  0  0  0  0  0  0  0  0  0
    2.7935   -1.6502    4.9904 H   0  0  0  0  0  0  0  0  0  0  0  0
    1.6064   -2.6156    5.8438 H   0  0  0  0  0  0  0  0  0  0  0  0
    1.9156   -2.9078    4.1453 H   0  0  0  0  0  0  0  0  0  0  0  0
    0.5488   -0.8838    3.2109 N   0  0  0  0  0  0  0  0  0  0  0  0
   -0.4159    0.0446    2.6829 C   0  0  2  0  0  0  0  0  0  0  0  0
   -0.7551   -0.3867    1.2623 C   0  0  0  0  0  0  0  0  0  0  0  0
   -0.0106   -1.0851    0.5774 O   0  0  0  0  0  0  0  0  0  0  0  0
    0.1168    1.4689    2.7060 C   0  0  0  0  0  0  0  0  0  0  0  0
    1.1183   -1.4145    2.5542 H   0  0  0  0  0  0  0  0  0  0  0  0
   -1.3088   -0.0350    3.3125 H   0  0  0  0  0  0  0  0  0  0  0  0
    1.0116    1.5681    2.0808 H   0  0  0  0  0  0  0  0  0  0  0  0
   -0.6289    2.1775    2.3307 H   0  0  0  0  0  0  0  0  0  0  0  0
    0.3882    1.7670    3.7245 H   0  0  0  0  0  0  0  0  0  0  0  0
   -1.9689    0.1350    0.8298 N   0  0  0  0  0  0  0  0  0  0  0  0
   -2.5039   -0.1183   -0.4830 C   0  0  2  0  0  0  0  0  0  0  0  0
   -1.7209    0.7205   -1.4871 C   0  0  0  0  0  0  0  0  0  0  0  0
   -2.1244    0.9532   -2.6247 O   0  0  0  0  0  0  0  0  0  0  0  0
   -4.0012    0.1657   -0.5468 C   0  0  0  0  0  0  0  0  0  0  0  0
   -4.2475    1.5550   -0.3611 O   0  0  0  0  0  0  0  0  0  0  0  0
   -2.5276    0.6894    1.4750 H   0  0  0  0  0  0  0  0  0  0  0  0
   -2.3230   -1.1793   -0.6902 H   0  0  0  0  0  0  0  0  0  0  0  0
   -4.5389   -0.3816    0.2341 H   0  0  0  0  0  0  0  0  0  0  0  0
   -4.4070   -0.1244   -1.5218 H   0  0  0  0  0  0  0  0  0  0  0  0
   -3.7832    2.0180   -1.0763 H   0  0  0  0  0  0  0  0  0  0  0  0
   -0.5407    1.2130   -0.9483 N   0  0  0  0  0  0  0  0  0  0  0  0
    0.3637    2.0612   -1.6895 C   0  0  2  0  0  0  0  0  0  0  0  0
   -0.4674    2.9369   -2.6179 C   0  0  0  0  0  0  0  0  0  0  0  0
   -1.6027    2.6389   -2.9831 O   0  0  0  0  0  0  0  0  0  0  0  0
    1.3731    1.2398   -2.4762 C   0  0  0  0  0  0  0  0  0  0  0  0
   -0.3061    1.0016    0.0171 H   0  0  0  0  0  0  0  0  0  0  0  0
    0.8788    2.6913   -0.9562 H   0  0  0  0  0  0  0  0  0  0  0  0
    0.8755    0.6020   -3.2160 H   0  0  0  0  0  0  0  0  0  0  0  0
    2.0756    1.8843   -3.0148 H   0  0  0  0  0  0  0  0  0  0  0  0
    1.9495    0.5887   -1.8102 H   0  0  0  0  0  0  0  0  0  0  0  0
    0.2242    4.0691   -3.0251 N   0  0  0  0  0  0  0  0  0  0  0  0
   -0.3448    5.0510   -3.9185 C   0  0  0  0  0  0  0  0  0  0  0  0
    1.1545    4.2456   -2.6575 H   0  0  0  0  0  0  0  0  0  0  0  0
   -0.0750    4.8036   -4.9558 H   0  0  0  0  0  0  0  0  0  0  0  0
   -1.4398    5.0503   -3.8145 H   0  0  0  0  0  0  0  0  0  0  0  0
    0.0469    6.0473   -3.6656 H   0  0  0  0  0  0  0  0  0  0  0  0
  1  3  1  0  0  0  0
  1  7  1  0  0  0  0
  1  2  2  0  0  0  0
 29 30  1  0  0  0  0
 30 38  1  0  0  0  0
 30 31  2  0  0  0  0
  8  9  1  0  0  0  0
  9 17  1  0  0  0  0
  9 10  2  0  0  0  0
 18 19  1  0  0  0  0
 19 28  1  0  0  0  0
 19 20  2  0  0  0  0
 29 32  1  0  0  0  0
  8 11  1  0  0  0  0
 38 39  1  0  0  0  0
 18 21  1  0  0  0  0
 21 22  1  0  0  0  0
 28 29  1  0  0  0  0
  7  8  1  0  0  0  0
 17 18  1  0  0  0  0
  3  4  1  0  0  0  0
  3  5  1  0  0  0  0
  3  6  1  0  0  0  0
 32 35  1  0  0  0  0
 32 36  1  0  0  0  0
 32 37  1  0  0  0  0
 11 14  1  0  0  0  0
 11 15  1  0  0  0  0
 11 16  1  0  0  0  0
 39 41  1  0  0  0  0
 39 42  1  0  0  0  0
 39 43  1  0  0  0  0
 21 25  1  0  0  0  0
 21 26  1  0  0  0  0
 29 34  1  0  0  0  0
  8 13  1  0  0  0  0
 18 24  1  0  0  0  0
 38 40  1  0  0  0  0
  7 12  1  0  0  0  0
 28 33  1  0  0  0  0
 17 23  1  0  0  0  0
 22 27  1  0  0  0  0
M  END
$$$$

  -OEChem-05262214473D

 43 42  0     1  0  0  0  0  0999 V2000
    0.7424   -1.0926    4.5665 C   0  0  0  0  0  0  0  0  0  0  0  0
    0.1409   -0.5364    5.4779 O   0  0  0  0  0  0  0  0  0  0  0  0
    1.7940   -2.1023    4.8871 C   0  0  0  0  0  0  0  0  0  0  0  0
    2.7935   -1.6502    4.9904 H   0  0  0  0  0  0  0  0  0  0  0  0
    1.6064   -2.6156    5.8438 H   0  0  0  0  0  0  0  0  0  0  0  0
    1.9156   -2.9078    4.1453 H   0  0  0  0  0  0  0  0  0  0  0  0
    0.5488   -0.8838    3.2109 N   0  0  0  0  0  0  0  0  0  0  0  0
   -0.4159    0.0446    2.6829 C   0  0  2  0  0  0  0  0  0  0  0  0
   -0.7551   -0.3867    1.2623 C   0  0  0  0  0  0  0  0  0  0  0  0
   -0.0106   -1.0851    0.5774 O   0  0  0  0  0  0  0  0  0  0  0  0
    0.1168    1.4689    2.7060 C   0  0  0  0  0  0  0  0  0  0  0  0
    1.1183   -1.4145    2.5542 H   0  0  0  0  0  0  0  0  0  0  0  0
   -1.3088   -0.0350    3.3125 H   0  0  0  0  0  0  0  0  0  0  0  0
    1.0116    1.5681    2.0808 H   0  0  0  0  0  0  0  0  0  0  0  0
   -0.6289    2.1775    2.3307 H   0  0  0  0  0  0  0  0  0  0  0  0
    0.3882    1.7670    3.7245 H   0  0  0  0  0  0  0  0  0  0  0  0
   -1.9689    0.1350    0.8298 N   0  0  0  0  0  0  0  0  0  0  0  0
   -2.5039   -0.1183   -0.4830 C   0  0  2  0  0  0  0  0  0  0  0  0
   -1.7209    0.7205   -1.4871 C   0  0  0  0  0  0  0  0  0  0  0  0
   -2.2212    1.1778   -2.5126 O   0  0  0  0  0  0  0  0  0  0  0  0
   -4.0012    0.1657   -0.5468 C   0  0  0  0  0  0  0  0  0  0  0  0
   -4.2475    1.5550   -0.3611 O   0  0  0  0  0  0  0  0  0  0  0  0
   -2.5276    0.6894    1.4750 H   0  0  0  0  0  0  0  0  0  0  0  0
   -2.3230   -1.1793   -0.6902 H   0  0  0  0  0  0  0  0  0  0  0  0
   -4.5389   -0.3816    0.2341 H   0  0  0  0  0  0  0  0  0  0  0  0
   -4.4070   -0.1244   -1.5218 H   0  0  0  0  0  0  0  0  0  0  0  0
   -3.7832    2.0180   -1.0763 H   0  0  0  0  0  0  0  0  0  0  0  0
   -0.4111    0.9332   -1.0810 N   0  0  0  0  0  0  0  0  0  0  0  0
    0.5263    1.7235   -1.8447 C   0  0  2  0  0  0  0  0  0  0  0  0
   -0.2477    2.8469   -2.5218 C   0  0  0  0  0  0  0  0  0  0  0  0
   -1.4560    2.7916   -2.7411 O   0  0  0  0  0  0  0  0  0  0  0  0
    1.2596    0.8735   -2.8707 C   0  0  0  0  0  0  0  0  0  0  0  0
   -0.0942    0.5489   -0.1958 H   0  0  0  0  0  0  0  0  0  0  0  0
    1.2379    2.1492   -1.1290 H   0  0  0  0  0  0  0  0  0  0  0  0
    0.5628    0.4384   -3.5965 H   0  0  0  0  0  0  0  0  0  0  0  0
    1.9901    1.4680   -3.4292 H   0  0  0  0  0  0  0  0  0  0  0  0
    1.7914    0.0485   -2.3847 H   0  0  0  0  0  0  0  0  0  0  0  0
    0.5772    3.9002   -2.8911 N   0  0  0  0  0  0  0  0  0  0  0  0
    0.0823    5.0800   -3.5613 C   0  0  0  0  0  0  0  0  0  0  0  0
    1.5640    3.8694   -2.6524 H   0  0  0  0  0  0  0  0  0  0  0  0
    0.1651    4.9458   -4.6499 H   0  0  0  0  0  0  0  0  0  0  0  0
   -0.9718    5.2403   -3.2908 H   0  0  0  0  0  0  0  0  0  0  0  0
    0.6767    5.9529   -3.2534 H   0  0  0  0  0  0  0  0  0  0  0  0
  1  3  1  0  0  0  0
  1  7  1  0  0  0  0
  1  2  2  0  0  0  0
 29 30  1  0  0  0  0
 30 38  1  0  0  0  0
 30 31  2  0  0  0  0
  8  9  1  0  0  0  0
  9 17  1  0  0  0  0
  9 10  2  0  0  0  0
 18 19  1  0  0  0  0
 19 28  1  0  0  0  0
 19 20  2  0  0  0  0
 29 32  1  0  0  0  0
  8 11  1  0  0  0  0
 38 39  1  0  0  0  0
 18 21  1  0  0  0  0
 21 22  1  0  0  0  0
 28 29  1  0  0  0  0
  7  8  1  0  0  0  0
 17 18  1  0  0  0  0
  3  4  1  0  0  0  0
  3  5  1  0  0  0  0
  3  6  1  0  0  0  0
 32 35  1  0  0  0  0
 32 36  1  0  0  0  0
 32 37  1  0  0  0  0
 11 14  1  0  0  0  0
 11 15  1  0  0  0  0
 11 16  1  0  0  0  0
 39 41  1  0  0  0  0
 39 42  1  0  0  0  0
 39 43  1  0  0  0  0
 21 25  1  0  0  0  0
 21 26  1  0  0  0  0
 29 34  1  0  0  0  0
  8 13  1  0  0  0  0
 18 24  1  0  0  0  0
 38 40  1  0  0  0  0
  7 12  1  0  0  0  0
 28 33  1  0  0  0  0
 17 23  1  0  0  0  0
 22 27  1  0  0  0  0
M  END
$$$$

  -OEChem-05262214473D

 43 42  0     1  0  0  0  0  0999 V2000
    0.7424   -1.0926    4.5665 C   0  0  0  0  0  0  0  0  0  0  0  0
    0.1409   -0.5364    5.4779 O   0  0  0  0  0  0  0  0  0  0  0  0
    1.7940   -2.1023    4.8871 C   0  0  0  0  0  0  0  0  0  0  0  0
    2.7935   -1.6502    4.9904 H   0  0  0  0  0  0  0  0  0  0  0  0
    1.6064   -2.6156    5.8438 H   0  0  0  0  0  0  0  0  0  0  0  0
    1.9156   -2.9078    4.1453 H   0  0  0  0  0  0  0  0  0  0  0  0
    0.5488   -0.8838    3.2109 N   0  0  0  0  0  0  0  0  0  0  0  0
   -0.4159    0.0446    2.6829 C   0  0  2  0  0  0  0  0  0  0  0  0
   -0.7551   -0.3867    1.2623 C   0  0  0  0  0  0  0  0  0  0  0  0
   -0.0106   -1.0851    0.5774 O   0  0  0  0  0  0  0  0  0  0  0  0
    0.1168    1.4689    2.7060 C   0  0  0  0  0  0  0  0  0  0  0  0
    1.1183   -1.4145    2.5542 H   0  0  0  0  0  0  0  0  0  0  0  0
   -1.3088   -0.0350    3.3125 H   0  0  0  0  0  0  0  0  0  0  0  0
    1.0116    1.5681    2.0808 H   0  0  0  0  0  0  0  0  0  0  0  0
   -0.6289    2.1775    2.3307 H   0  0  0  0  0  0  0  0  0  0  0  0
    0.3882    1.7670    3.7245 H   0  0  0  0  0  0  0  0  0  0  0  0
   -1.9689    0.1350    0.8298 N   0  0  0  0  0  0  0  0  0  0  0  0
   -2.5039   -0.1183   -0.4830 C   0  0  2  0  0  0  0  0  0  0  0  0
   -1.7209    0.7205   -1.4871 C   0  0  0  0  0  0  0  0  0  0  0  0
   -2.2605    1.3963   -2.3607 O   0  0  0  0  0  0  0  0  0  0  0  0
   -4.0012    0.1657   -0.5468 C   0  0  0  0  0  0  0  0  0  0  0  0
   -4.2475    1.5550   -0.3611 O   0  0  0  0  0  0  0  0  0  0  0  0
   -2.5276    0.6894    1.4750 H   0  0  0  0  0  0  0  0  0  0  0  0
   -2.3230   -1.1793   -0.6902 H   0  0  0  0  0  0  0  0  0  0  0  0
   -4.5389   -0.3816    0.2341 H   0  0  0  0  0  0  0  0  0  0  0  0
   -4.4070   -0.1244   -1.5218 H   0  0  0  0  0  0  0  0  0  0  0  0
   -3.7832    2.0180   -1.0763 H   0  0  0  0  0  0  0  0  0  0  0  0
   -0.3525    0.6585   -1.2647 N   0  0  0  0  0  0  0  0  0  0  0  0
    0.6037    1.3902   -2.0628 C   0  0  2  0  0  0  0  0  0  0  0  0
   -0.0372    2.7098   -2.4721 C   0  0  0  0  0  0  0  0  0  0  0  0
   -1.2538    2.8820   -2.5079 O   0  0  0  0  0  0  0  0  0  0  0  0
    1.0313    0.5916   -3.2842 C   0  0  0  0  0  0  0  0  0  0  0  0
    0.0031    0.1038   -0.4918 H   0  0  0  0  0  0  0  0  0  0  0  0
    1.4678    1.5875   -1.4190 H   0  0  0  0  0  0  0  0  0  0  0  0
    0.1787    0.3843   -3.9412 H   0  0  0  0  0  0  0  0  0  0  0  0
    1.7774    1.1356   -3.8728 H   0  0  0  0  0  0  0  0  0  0  0  0
    1.4649   -0.3700   -2.9890 H   0  0  0  0  0  0  0  0  0  0  0  0
    0.9083    3.6590   -2.8343 N   0  0  0  0  0  0  0  0  0  0  0  0
    0.5507    4.9877   -3.2731 C   0  0  0  0  0  0  0  0  0  0  0  0
    1.8961    3.4356   -2.7558 H   0  0  0  0  0  0  0  0  0  0  0  0
    0.4647    5.0015   -4.3697 H   0  0  0  0  0  0  0  0  0  0  0  0
   -0.4127    5.2744   -2.8263 H   0  0  0  0  0  0  0  0  0  0  0  0
    1.3276    5.6995   -2.9574 H   0  0  0  0  0  0  0  0  0  0  0  0
  1  3  1  0  0  0  0
  1  7  1  0  0  0  0
  1  2  2  0  0  0  0
 29 30  1  0  0  0  0
 30 38  1  0  0  0  0
 30 31  2  0  0  0  0
  8  9  1  0  0  0  0
  9 17  1  0  0  0  0
  9 10  2  0  0  0  0
 18 19  1  0  0  0  0
 19 28  1  0  0  0  0
 19 20  2  0  0  0  0
 29 32  1  0  0  0  0
  8 11  1  0  0  0  0
 38 39  1  0  0  0  0
 18 21  1  0  0  0  0
 21 22  1  0  0  0  0
 28 29  1  0  0  0  0
  7  8  1  0  0  0  0
 17 18  1  0  0  0  0
  3  4  1  0  0  0  0
  3  5  1  0  0  0  0
  3  6  1  0  0  0  0
 32 35  1  0  0  0  0
 32 36  1  0  0  0  0
 32 37  1  0  0  0  0
 11 14  1  0  0  0  0
 11 15  1  0  0  0  0
 11 16  1  0  0  0  0
 39 41  1  0  0  0  0
 39 42  1  0  0  0  0
 39 43  1  0  0  0  0
 21 25  1  0  0  0  0
 21 26  1  0  0  0  0
 29 34  1  0  0  0  0
  8 13  1  0  0  0  0
 18 24  1  0  0  0  0
 38 40  1  0  0  0  0
  7 12  1  0  0  0  0
 28 33  1  0  0  0  0
 17 23  1  0  0  0  0
 22 27  1  0  0  0  0
M  END
$$$$

  -OEChem-05262214473D

 43 42  0     1  0  0  0  0  0999 V2000
    0.7424   -1.0926    4.5665 C   0  0  0  0  0  0  0  0  0  0  0  0
    0.1409   -0.5364    5.4779 O   0  0  0  0  0  0  0  0  0  0  0  0
    1.7940   -2.1023    4.8871 C   0  0  0  0  0  0  0  0  0  0  0  0
    2.7935   -1.6502    4.9904 H   0  0  0  0  0  0  0  0  0  0  0  0
    1.6064   -2.6156    5.8438 H   0  0  0  0  0  0  0  0  0  0  0  0
    1.9156   -2.9078    4.1453 H   0  0  0  0  0  0  0  0  0  0  0  0
    0.5488   -0.8838    3.2109 N   0  0  0  0  0  0  0  0  0  0  0  0
   -0.4159    0.0446    2.6829 C   0  0  2  0  0  0  0  0  0  0  0  0
   -0.7551   -0.3867    1.2623 C   0  0  0  0  0  0  0  0  0  0  0  0
   -0.0106   -1.0851    0.5774 O   0  0  0  0  0  0  0  0  0  0  0  0
    0.1168    1.4689    2.7060 C   0  0  0  0  0  0  0  0  0  0  0  0
    1.1183   -1.4145    2.5542 H   0  0  0  0  0  0  0  0  0  0  0  0
   -1.3088   -0.0350    3.3125 H   0  0  0  0  0  0  0  0  0  0  0  0
    1.0116    1.5681    2.0808 H   0  0  0  0  0  0  0  0  0  0  0  0
   -0.6289    2.1775    2.3307 H   0  0  0  0  0  0  0  0  0  0  0  0
    0.3882    1.7670    3.7245 H   0  0  0  0  0  0  0  0  0  0  0  0
   -1.9689    0.1350    0.8298 N   0  0  0  0  0  0  0  0  0  0  0  0
   -2.5039   -0.1183   -0.4830 C   0  0  2  0  0  0  0  0  0  0  0  0
   -1.7209    0.7205   -1.4871 C   0  0  0  0  0  0  0  0  0  0  0  0
   -2.2396    1.5939   -2.1793 O   0  0  0  0  0  0  0  0  0  0  0  0
   -4.0012    0.1657   -0.5468 C   0  0  0  0  0  0  0  0  0  0  0  0
   -4.2475    1.5550   -0.3611 O   0  0  0  0  0  0  0  0  0  0  0  0
   -2.5276    0.6894    1.4750 H   0  0  0  0  0  0  0  0  0  0  0  0
   -2.3230   -1.1793   -0.6902 H   0  0  0  0  0  0  0  0  0  0  0  0
   -4.5389   -0.3816    0.2341 H   0  0  0  0  0  0  0  0  0  0  0  0
   -4.4070   -0.1244   -1.5218 H   0  0  0  0  0  0  0  0  0  0  0  0
   -3.7832    2.0180   -1.0763 H   0  0  0  0  0  0  0  0  0  0  0  0
   -0.3689    0.4077   -1.4871 N   0  0  0  0  0  0  0  0  0  0  0  0
    0.5907    1.0841   -2.3287 C   0  0  2  0  0  0  0  0  0  0  0  0
    0.1499    2.5348   -2.4724 C   0  0  0  0  0  0  0  0  0  0  0  0
   -1.0099    2.9038   -2.2995 O   0  0  0  0  0  0  0  0  0  0  0  0
    0.7039    0.4131   -3.6887 C   0  0  0  0  0  0  0  0  0  0  0  0
   -0.0210   -0.3034   -0.8507 H   0  0  0  0  0  0  0  0  0  0  0  0
    1.5529    1.0442   -1.8065 H   0  0  0  0  0  0  0  0  0  0  0  0
   -0.2506    0.4433   -4.2268 H   0  0  0  0  0  0  0  0  0  0  0  0
    1.4522    0.9097   -4.3151 H   0  0  0  0  0  0  0  0  0  0  0  0
    0.9920   -0.6382   -3.5818 H   0  0  0  0  0  0  0  0  0  0  0  0
    1.1952    3.3620   -2.8586 N   0  0  0  0  0  0  0  0  0  0  0  0
    1.0284    4.7804   -3.0738 C   0  0  0  0  0  0  0  0  0  0  0  0
    2.1282    2.9737   -2.9606 H   0  0  0  0  0  0  0  0  0  0  0  0
    0.8036    4.9670   -4.1343 H   0  0  0  0  0  0  0  0  0  0  0  0
    0.1992    5.1503   -2.4527 H   0  0  0  0  0  0  0  0  0  0  0  0
    1.9553    5.3045   -2.7979 H   0  0  0  0  0  0  0  0  0  0  0  0
  1  3  1  0  0  0  0
  1  7  1  0  0  0  0
  1  2  2  0  0  0  0
 29 30  1  0  0  0  0
 30 38  1  0  0  0  0
 30 31  2  0  0  0  0
  8  9  1  0  0  0  0
  9 17  1  0  0  0  0
  9 10  2  0  0  0  0
 18 19  1  0  0  0  0
 19 28  1  0  0  0  0
 19 20  2  0  0  0  0
 29 32  1  0  0  0  0
  8 11  1  0  0  0  0
 38 39  1  0  0  0  0
 18 21  1  0  0  0  0
 21 22  1  0  0  0  0
 28 29  1  0  0  0  0
  7  8  1  0  0  0  0
 17 18  1  0  0  0  0
  3  4  1  0  0  0  0
  3  5  1  0  0  0  0
  3  6  1  0  0  0  0
 32 35  1  0  0  0  0
 32 36  1  0  0  0  0
 32 37  1  0  0  0  0
 11 14  1  0  0  0  0
 11 15  1  0  0  0  0
 11 16  1  0  0  0  0
 39 41  1  0  0  0  0
 39 42  1  0  0  0  0
 39 43  1  0  0  0  0
 21 25  1  0  0  0  0
 21 26  1  0  0  0  0
 29 34  1  0  0  0  0
  8 13  1  0  0  0  0
 18 24  1  0  0  0  0
 38 40  1  0  0  0  0
  7 12  1  0  0  0  0
 28 33  1  0  0  0  0
 17 23  1  0  0  0  0
 22 27  1  0  0  0  0
M  END
$$$$

  -OEChem-05262214473D

 43 42  0     1  0  0  0  0  0999 V2000
    0.7424   -1.0926    4.5665 C   0  0  0  0  0  0  0  0  0  0  0  0
    0.1409   -0.5364    5.4779 O   0  0  0  0  0  0  0  0  0  0  0  0
    1.7940   -2.1023    4.8871 C   0  0  0  0  0  0  0  0  0  0  0  0
    2.7935   -1.6502    4.9904 H   0  0  0  0  0  0  0  0  0  0  0  0
    1.6064   -2.6156    5.8438 H   0  0  0  0  0  0  0  0  0  0  0  0
    1.9156   -2.9078    4.1453 H   0  0  0  0  0  0  0  0  0  0  0  0
    0.5488   -0.8838    3.2109 N   0  0  0  0  0  0  0  0  0  0  0  0
   -0.4159    0.0446    2.6829 C   0  0  2  0  0  0  0  0  0  0  0  0
   -0.7551   -0.3867    1.2623 C   0  0  0  0  0  0  0  0  0  0  0  0
   -0.0106   -1.0851    0.5774 O   0  0  0  0  0  0  0  0  0  0  0  0
    0.1168    1.4689    2.7060 C   0  0  0  0  0  0  0  0  0  0  0  0
    1.1183   -1.4145    2.5542 H   0  0  0  0  0  0  0  0  0  0  0  0
   -1.3088   -0.0350    3.3125 H   0  0  0  0  0  0  0  0  0  0  0  0
    1.0116    1.5681    2.0808 H   0  0  0  0  0  0  0  0  0  0  0  0
   -0.6289    2.1775    2.3307 H   0  0  0  0  0  0  0  0  0  0  0  0
    0.3882    1.7670    3.7245 H   0  0  0  0  0  0  0  0  0  0  0  0
   -1.9689    0.1350    0.8298 N   0  0  0  0  0  0  0  0  0  0  0  0
   -2.5039   -0.1183   -0.4830 C   0  0  2  0  0  0  0  0  0  0  0  0
   -1.7209    0.7205   -1.4871 C   0  0  0  0  0  0  0  0  0  0  0  0
   -2.1599    1.7572   -1.9808 O   0  0  0  0  0  0  0  0  0  0  0  0
   -4.0012    0.1657   -0.5468 C   0  0  0  0  0  0  0  0  0  0  0  0
   -4.2475    1.5550   -0.3611 O   0  0  0  0  0  0  0  0  0  0  0  0
   -2.5276    0.6894    1.4750 H   0  0  0  0  0  0  0  0  0  0  0  0
   -2.3230   -1.1793   -0.6902 H   0  0  0  0  0  0  0  0  0  0  0  0
   -4.5389   -0.3816    0.2341 H   0  0  0  0  0  0  0  0  0  0  0  0
   -4.4070   -0.1244   -1.5218 H   0  0  0  0  0  0  0  0  0  0  0  0
   -3.7832    2.0180   -1.0763 H   0  0  0  0  0  0  0  0  0  0  0  0
   -0.4591    0.1977   -1.7329 N   0  0  0  0  0  0  0  0  0  0  0  0
    0.4880    0.8260   -2.6243 C   0  0  2  0  0  0  0  0  0  0  0  0
    0.3007    2.3340   -2.5226 C   0  0  0  0  0  0  0  0  0  0  0  0
   -0.7409    2.8555   -2.1300 O   0  0  0  0  0  0  0  0  0  0  0  0
    0.2996    0.3503   -4.0564 C   0  0  0  0  0  0  0  0  0  0  0  0
   -0.1647   -0.6449   -1.2480 H   0  0  0  0  0  0  0  0  0  0  0  0
    1.4872    0.5564   -2.2651 H   0  0  0  0  0  0  0  0  0  0  0  0
   -0.6959    0.6114   -4.4336 H   0  0  0  0  0  0  0  0  0  0  0  0
    1.0367    0.8057   -4.7260 H   0  0  0  0  0  0  0  0  0  0  0  0
    0.4052   -0.7380   -4.1227 H   0  0  0  0  0  0  0  0  0  0  0  0
    1.4182    3.0295   -2.9625 N   0  0  0  0  0  0  0  0  0  0  0  0
    1.4828    4.4723   -2.9768 C   0  0  0  0  0  0  0  0  0  0  0  0
    2.2446    2.5152   -3.2529 H   0  0  0  0  0  0  0  0  0  0  0  0
    1.1585    4.8447   -3.9597 H   0  0  0  0  0  0  0  0  0  0  0  0
    0.8224    4.8766   -2.1955 H   0  0  0  0  0  0  0  0  0  0  0  0
    2.5170    4.7948   -2.7856 H   0  0  0  0  0  0  0  0  0  0  0  0
  1  3  1  0  0  0  0
  1  7  1  0  0  0  0
  1  2  2  0  0  0  0
 29 30  1  0  0  0  0
 30 38  1  0  0  0  0
 30 31  2  0  0  0  0
  8  9  1  0  0  0  0
  9 17  1  0  0  0  0
  9 10  2  0  0  0  0
 18 19  1  0  0  0  0
 19 28  1  0  0  0  0
 19 20  2  0  0  0  0
 29 32  1  0  0  0  0
  8 11  1  0  0  0  0
 38 39  1  0  0  0  0
 18 21  1  0  0  0  0
 21 22  1  0  0  0  0
 28 29  1  0  0  0  0
  7  8  1  0  0  0  0
 17 18  1  0  0  0  0
  3  4  1  0  0  0  0
  3  5  1  0  0  0  0
  3  6  1  0  0  0  0
 32 35  1  0  0  0  0
 32 36  1  0  0  0  0
 32 37  1  0  0  0  0
 11 14  1  0  0  0  0
 11 15  1  0  0  0  0
 11 16  1  0  0  0  0
 39 41  1  0  0  0  0
 39 42  1  0  0  0  0
 39 43  1  0  0  0  0
 21 25  1  0  0  0  0
 21 26  1  0  0  0  0
 29 34  1  0  0  0  0
  8 13  1  0  0  0  0
 18 24  1  0  0  0  0
 38 40  1  0  0  0  0
  7 12  1  0  0  0  0
 28 33  1  0  0  0  0
 17 23  1  0  0  0  0
 22 27  1  0  0  0  0
M  END
$$$$

  -OEChem-05262214473D

 43 42  0     1  0  0  0  0  0999 V2000
    0.7424   -1.0926    4.5665 C   0  0  0  0  0  0  0  0  0  0  0  0
    0.1409   -0.5364    5.4779 O   0  0  0  0  0  0  0  0  0  0  0  0
    1.7940   -2.1023    4.8871 C   0  0  0  0  0  0  0  0  0  0  0  0
    2.7935   -1.6502    4.9904 H   0  0  0  0  0  0  0  0  0  0  0  0
    1.6064   -2.6156    5.8438 H   0  0  0  0  0  0  0  0  0  0  0  0
    1.9156   -2.9078    4.1453 H   0  0  0  0  0  0  0  0  0  0  0  0
    0.5488   -0.8838    3.2109 N   0  0  0  0  0  0  0  0  0  0  0  0
   -0.4159    0.0446    2.6829 C   0  0  2  0  0  0  0  0  0  0  0  0
   -0.7551   -0.3867    1.2623 C   0  0  0  0  0  0  0  0  0  0  0  0
   -0.0106   -1.0851    0.5774 O   0  0  0  0  0  0  0  0  0  0  0  0
    0.1168    1.4689    2.7060 C   0  0  0  0  0  0  0  0  0  0  0  0
    1.1183   -1.4145    2.5542 H   0  0  0  0  0  0  0  0  0  0  0  0
   -1.3088   -0.0350    3.3125 H   0  0  0  0  0  0  0  0  0  0  0  0
    1.0116    1.5681    2.0808 H   0  0  0  0  0  0  0  0  0  0  0  0
   -0.6289    2.1775    2.3307 H   0  0  0  0  0  0  0  0  0  0  0  0
    0.3882    1.7670    3.7245 H   0  0  0  0  0  0  0  0  0  0  0  0
   -1.9689    0.1350    0.8298 N   0  0  0  0  0  0  0  0  0  0  0  0
   -2.5039   -0.1183   -0.4830 C   0  0  2  0  0  0  0  0  0  0  0  0
   -1.7209    0.7205   -1.4871 C   0  0  0  0  0  0  0  0  0  0  0  0
   -2.0268    1.8748   -1.7787 O   0  0  0  0  0  0  0  0  0  0  0  0
   -4.0012    0.1657   -0.5468 C   0  0  0  0  0  0  0  0  0  0  0  0
   -4.2475    1.5550   -0.3611 O   0  0  0  0  0  0  0  0  0  0  0  0
   -2.5276    0.6894    1.4750 H   0  0  0  0  0  0  0  0  0  0  0  0
   -2.3230   -1.1793   -0.6902 H   0  0  0  0  0  0  0  0  0  0  0  0
   -4.5389   -0.3816    0.2341 H   0  0  0  0  0  0  0  0  0  0  0  0
   -4.4070   -0.1244   -1.5218 H   0  0  0  0  0  0  0  0  0  0  0  0
   -3.7832    2.0180   -1.0763 H   0  0  0  0  0  0  0  0  0  0  0  0
   -0.6171    0.0429   -1.9854 N   0  0  0  0  0  0  0  0  0  0  0  0
    0.3028    0.6334   -2.9296 C   0  0  2  0  0  0  0  0  0  0  0  0
    0.4051    2.1209   -2.6192 C   0  0  0  0  0  0  0  0  0  0  0  0
   -0.4651    2.7406   -2.0110 O   0  0  0  0  0  0  0  0  0  0  0  0
   -0.1539    0.4073   -4.3624 C   0  0  0  0  0  0  0  0  0  0  0  0
   -0.4183   -0.8974   -1.6567 H   0  0  0  0  0  0  0  0  0  0  0  0
    1.2754    0.1574   -2.7636 H   0  0  0  0  0  0  0  0  0  0  0  0
   -1.1268    0.8771   -4.5476 H   0  0  0  0  0  0  0  0  0  0  0  0
    0.5590    0.8307   -5.0776 H   0  0  0  0  0  0  0  0  0  0  0  0
   -0.2556   -0.6624   -4.5749 H   0  0  0  0  0  0  0  0  0  0  0  0
    1.5622    2.6842   -3.1387 N   0  0  0  0  0  0  0  0  0  0  0  0
    1.8831    4.0843   -2.9887 C   0  0  0  0  0  0  0  0  0  0  0  0
    2.2372    2.0914   -3.6127 H   0  0  0  0  0  0  0  0  0  0  0  0
    1.5053    4.6428   -3.8579 H   0  0  0  0  0  0  0  0  0  0  0  0
    1.4142    4.4717   -2.0721 H   0  0  0  0  0  0  0  0  0  0  0  0
    2.9744    4.2051   -2.9216 H   0  0  0  0  0  0  0  0  0  0  0  0
  1  3  1  0  0  0  0
  1  7  1  0  0  0  0
  1  2  2  0  0  0  0
 29 30  1  0  0  0  0
 30 38  1  0  0  0  0
 30 31  2  0  0  0  0
  8  9  1  0  0  0  0
  9 17  1  0  0  0  0
  9 10  2  0  0  0  0
 18 19  1  0  0  0  0
 19 28  1  0  0  0  0
 19 20  2  0  0  0  0
 29 32  1  0  0  0  0
  8 11  1  0  0  0  0
 38 39  1  0  0  0  0
 18 21  1  0  0  0  0
 21 22  1  0  0  0  0
 28 29  1  0  0  0  0
  7  8  1  0  0  0  0
 17 18  1  0  0  0  0
  3  4  1  0  0  0  0
  3  5  1  0  0  0  0
  3  6  1  0  0  0  0
 32 35  1  0  0  0  0
 32 36  1  0  0  0  0
 32 37  1  0  0  0  0
 11 14  1  0  0  0  0
 11 15  1  0  0  0  0
 11 16  1  0  0  0  0
 39 41  1  0  0  0  0
 39 42  1  0  0  0  0
 39 43  1  0  0  0  0
 21 25  1  0  0  0  0
 21 26  1  0  0  0  0
 29 34  1  0  0  0  0
  8 13  1  0  0  0  0
 18 24  1  0  0  0  0
 38 40  1  0  0  0  0
  7 12  1  0  0  0  0
 28 33  1  0  0  0  0
 17 23  1  0  0  0  0
 22 27  1  0  0  0  0
M  END
$$$$

  -OEChem-05262214473D

 43 42  0     1  0  0  0  0  0999 V2000
    0.7424   -1.0926    4.5665 C   0  0  0  0  0  0  0  0  0  0  0  0
    0.1409   -0.5364    5.4779 O   0  0  0  0  0  0  0  0  0  0  0  0
    1.7940   -2.1023    4.8871 C   0  0  0  0  0  0  0  0  0  0  0  0
    2.7935   -1.6502    4.9904 H   0  0  0  0  0  0  0  0  0  0  0  0
    1.6064   -2.6156    5.8438 H   0  0  0  0  0  0  0  0  0  0  0  0
    1.9156   -2.9078    4.1453 H   0  0  0  0  0  0  0  0  0  0  0  0
    0.5488   -0.8838    3.2109 N   0  0  0  0  0  0  0  0  0  0  0  0
   -0.4159    0.0446    2.6829 C   0  0  2  0  0  0  0  0  0  0  0  0
   -0.7551   -0.3867    1.2623 C   0  0  0  0  0  0  0  0  0  0  0  0
   -0.0106   -1.0851    0.5774 O   0  0  0  0  0  0  0  0  0  0  0  0
    0.1168    1.4689    2.7060 C   0  0  0  0  0  0  0  0  0  0  0  0
    1.1183   -1.4145    2.5542 H   0  0  0  0  0  0  0  0  0  0  0  0
   -1.3088   -0.0350    3.3125 H   0  0  0  0  0  0  0  0  0  0  0  0
    1.0116    1.5681    2.0808 H   0  0  0  0  0  0  0  0  0  0  0  0
   -0.6289    2.1775    2.3307 H   0  0  0  0  0  0  0  0  0  0  0  0
    0.3882    1.7670    3.7245 H   0  0  0  0  0  0  0  0  0  0  0  0
   -1.9689    0.1350    0.8298 N   0  0  0  0  0  0  0  0  0  0  0  0
   -2.5039   -0.1183   -0.4830 C   0  0  2  0  0  0  0  0  0  0  0  0
   -1.7209    0.7205   -1.4871 C   0  0  0  0  0  0  0  0  0  0  0  0
   -1.8494    1.9389   -1.5868 O   0  0  0  0  0  0  0  0  0  0  0  0
   -4.0012    0.1657   -0.5468 C   0  0  0  0  0  0  0  0  0  0  0  0
   -4.2475    1.5550   -0.3611 O   0  0  0  0  0  0  0  0  0  0  0  0
   -2.5276    0.6894    1.4750 H   0  0  0  0  0  0  0  0  0  0  0  0
   -2.3230   -1.1793   -0.6902 H   0  0  0  0  0  0  0  0  0  0  0  0
   -4.5389   -0.3816    0.2341 H   0  0  0  0  0  0  0  0  0  0  0  0
   -4.4070   -0.1244   -1.5218 H   0  0  0  0  0  0  0  0  0  0  0  0
   -3.7832    2.0180   -1.0763 H   0  0  0  0  0  0  0  0  0  0  0  0
   -0.8320   -0.0461   -2.2273 N   0  0  0  0  0  0  0  0  0  0  0  0
    0.0476    0.5196   -3.2237 C   0  0  2  0  0  0  0  0  0  0  0  0
    0.4558    1.9102   -2.7556 C   0  0  0  0  0  0  0  0  0  0  0  0
   -0.2014    2.5668   -1.9506 O   0  0  0  0  0  0  0  0  0  0  0  0
   -0.6259    0.5805   -4.5859 C   0  0  0  0  0  0  0  0  0  0  0  0
   -0.7645   -1.0438   -2.0490 H   0  0  0  0  0  0  0  0  0  0  0  0
    0.9318   -0.1256   -3.2680 H   0  0  0  0  0  0  0  0  0  0  0  0
   -1.5140    1.2224   -4.5611 H   0  0  0  0  0  0  0  0  0  0  0  0
    0.0518    0.9830   -5.3459 H   0  0  0  0  0  0  0  0  0  0  0  0
   -0.9454   -0.4166   -4.9075 H   0  0  0  0  0  0  0  0  0  0  0  0
    1.6173    2.3494   -3.3753 N   0  0  0  0  0  0  0  0  0  0  0  0
    2.2019    3.6430   -3.1088 C   0  0  0  0  0  0  0  0  0  0  0  0
    2.1066    1.7310   -4.0156 H   0  0  0  0  0  0  0  0  0  0  0  0
    1.8204    4.3751   -3.8357 H   0  0  0  0  0  0  0  0  0  0  0  0
    1.9345    3.9634   -2.0911 H   0  0  0  0  0  0  0  0  0  0  0  0
    3.2964    3.5756   -3.1963 H   0  0  0  0  0  0  0  0  0  0  0  0
  1  3  1  0  0  0  0
  1  7  1  0  0  0  0
  1  2  2  0  0  0  0
 29 30  1  0  0  0  0
 30 38  1  0  0  0  0
 30 31  2  0  0  0  0
  8  9  1  0  0  0  0
  9 17  1  0  0  0  0
  9 10  2  0  0  0  0
 18 19  1  0  0  0  0
 19 28  1  0  0  0  0
 19 20  2  0  0  0  0
 29 32  1  0  0  0  0
  8 11  1  0  0  0  0
 38 39  1  0  0  0  0
 18 21  1  0  0  0  0
 21 22  1  0  0  0  0
 28 29  1  0  0  0  0
  7  8  1  0  0  0  0
 17 18  1  0  0  0  0
  3  4  1  0  0  0  0
  3  5  1  0  0  0  0
  3  6  1  0  0  0  0
 32 35  1  0  0  0  0
 32 36  1  0  0  0  0
 32 37  1  0  0  0  0
 11 14  1  0  0  0  0
 11 15  1  0  0  0  0
 11 16  1  0  0  0  0
 39 41  1  0  0  0  0
 39 42  1  0  0  0  0
 39 43  1  0  0  0  0
 21 25  1  0  0  0  0
 21 26  1  0  0  0  0
 29 34  1  0  0  0  0
  8 13  1  0  0  0  0
 18 24  1  0  0  0  0
 38 40  1  0  0  0  0
  7 12  1  0  0  0  0
 28 33  1  0  0  0  0
 17 23  1  0  0  0  0
 22 27  1  0  0  0  0
M  END
$$$$

  -OEChem-05262214473D

 43 42  0     1  0  0  0  0  0999 V2000
    0.7424   -1.0926    4.5665 C   0  0  0  0  0  0  0  0  0  0  0  0
    0.1409   -0.5364    5.4779 O   0  0  0  0  0  0  0  0  0  0  0  0
    1.7940   -2.1023    4.8871 C   0  0  0  0  0  0  0  0  0  0  0  0
    2.7935   -1.6502    4.9904 H   0  0  0  0  0  0  0  0  0  0  0  0
    1.6064   -2.6156    5.8438 H   0  0  0  0  0  0  0  0  0  0  0  0
    1.9156   -2.9078    4.1453 H   0  0  0  0  0  0  0  0  0  0  0  0
    0.5488   -0.8838    3.2109 N   0  0  0  0  0  0  0  0  0  0  0  0
   -0.4159    0.0446    2.6829 C   0  0  2  0  0  0  0  0  0  0  0  0
   -0.7551   -0.3867    1.2623 C   0  0  0  0  0  0  0  0  0  0  0  0
   -0.0106   -1.0851    0.5774 O   0  0  0  0  0  0  0  0  0  0  0  0
    0.1168    1.4689    2.7060 C   0  0  0  0  0  0  0  0  0  0  0  0
    1.1183   -1.4145    2.5542 H   0  0  0  0  0  0  0  0  0  0  0  0
   -1.3088   -0.0350    3.3125 H   0  0  0  0  0  0  0  0  0  0  0  0
    1.0116    1.5681    2.0808 H   0  0  0  0  0  0  0  0  0  0  0  0
   -0.6289    2.1775    2.3307 H   0  0  0  0  0  0  0  0  0  0  0  0
    0.3882    1.7670    3.7245 H   0  0  0  0  0  0  0  0  0  0  0  0
   -1.9689    0.1350    0.8298 N   0  0  0  0  0  0  0  0  0  0  0  0
   -2.5039   -0.1183   -0.4830 C   0  0  2  0  0  0  0  0  0  0  0  0
   -1.7209    0.7205   -1.4871 C   0  0  0  0  0  0  0  0  0  0  0  0
   -1.6398    1.9451   -1.4182 O   0  0  0  0  0  0  0  0  0  0  0  0
   -4.0012    0.1657   -0.5468 C   0  0  0  0  0  0  0  0  0  0  0  0
   -4.2475    1.5550   -0.3611 O   0  0  0  0  0  0  0  0  0  0  0  0
   -2.5276    0.6894    1.4750 H   0  0  0  0  0  0  0  0  0  0  0  0
   -2.3230   -1.1793   -0.6902 H   0  0  0  0  0  0  0  0  0  0  0  0
   -4.5389   -0.3816    0.2341 H   0  0  0  0  0  0  0  0  0  0  0  0
   -4.4070   -0.1244   -1.5218 H   0  0  0  0  0  0  0  0  0  0  0  0
   -3.7832    2.0180   -1.0763 H   0  0  0  0  0  0  0  0  0  0  0  0
   -1.0892   -0.0634   -2.4423 N   0  0  0  0  0  0  0  0  0  0  0  0
   -0.2602    0.4922   -3.4866 C   0  0  2  0  0  0  0  0  0  0  0  0
    0.4494    1.7162   -2.9227 C   0  0  0  0  0  0  0  0  0  0  0  0
    0.0323    2.3459   -1.9529 O   0  0  0  0  0  0  0  0  0  0  0  0
   -1.0841    0.8578   -4.7115 C   0  0  0  0  0  0  0  0  0  0  0  0
   -1.1797   -1.0741   -2.3981 H   0  0  0  0  0  0  0  0  0  0  0  0
    0.4798   -0.2734   -3.7439 H   0  0  0  0  0  0  0  0  0  0  0  0
   -1.8311    1.6238   -4.4731 H   0  0  0  0  0  0  0  0  0  0  0  0
   -0.4503    1.2522   -5.5126 H   0  0  0  0  0  0  0  0  0  0  0  0
   -1.6172   -0.0175   -5.0980 H   0  0  0  0  0  0  0  0  0  0  0  0
    1.5798    2.0482   -3.6563 N   0  0  0  0  0  0  0  0  0  0  0  0
    2.4175    3.1782   -3.3289 C   0  0  0  0  0  0  0  0  0  0  0  0
    1.8617    1.4588   -4.4340 H   0  0  0  0  0  0  0  0  0  0  0  0
    2.0823    4.0599   -3.8948 H   0  0  0  0  0  0  0  0  0  0  0  0
    2.3477    3.3862   -2.2510 H   0  0  0  0  0  0  0  0  0  0  0  0
    3.4609    2.9492   -3.5913 H   0  0  0  0  0  0  0  0  0  0  0  0
  1  3  1  0  0  0  0
  1  7  1  0  0  0  0
  1  2  2  0  0  0  0
 29 30  1  0  0  0  0
 30 38  1  0  0  0  0
 30 31  2  0  0  0  0
  8  9  1  0  0  0  0
  9 17  1  0  0  0  0
  9 10  2  0  0  0  0
 18 19  1  0  0  0  0
 19 28  1  0  0  0  0
 19 20  2  0  0  0  0
 29 32  1  0  0  0  0
  8 11  1  0  0  0  0
 38 39  1  0  0  0  0
 18 21  1  0  0  0  0
 21 22  1  0  0  0  0
 28 29  1  0  0  0  0
  7  8  1  0  0  0  0
 17 18  1  0  0  0  0
  3  4  1  0  0  0  0
  3  5  1  0  0  0  0
  3  6  1  0  0  0  0
 32 35  1  0  0  0  0
 32 36  1  0  0  0  0
 32 37  1  0  0  0  0
 11 14  1  0  0  0  0
 11 15  1  0  0  0  0
 11 16  1  0  0  0  0
 39 41  1  0  0  0  0
 39 42  1  0  0  0  0
 39 43  1  0  0  0  0
 21 25  1  0  0  0  0
 21 26  1  0  0  0  0
 29 34  1  0  0  0  0
  8 13  1  0  0  0  0
 18 24  1  0  0  0  0
 38 40  1  0  0  0  0
  7 12  1  0  0  0  0
 28 33  1  0  0  0  0
 17 23  1  0  0  0  0
 22 27  1  0  0  0  0
M  END
$$$$

  -OEChem-05262214473D

 43 42  0     1  0  0  0  0  0999 V2000
    0.7424   -1.0926    4.5665 C   0  0  0  0  0  0  0  0  0  0  0  0
    0.1409   -0.5364    5.4779 O   0  0  0  0  0  0  0  0  0  0  0  0
    1.7940   -2.1023    4.8871 C   0  0  0  0  0  0  0  0  0  0  0  0
    2.7935   -1.6502    4.9904 H   0  0  0  0  0  0  0  0  0  0  0  0
    1.6064   -2.6156    5.8438 H   0  0  0  0  0  0  0  0  0  0  0  0
    1.9156   -2.9078    4.1453 H   0  0  0  0  0  0  0  0  0  0  0  0
    0.5488   -0.8838    3.2109 N   0  0  0  0  0  0  0  0  0  0  0  0
   -0.4159    0.0446    2.6829 C   0  0  2  0  0  0  0  0  0  0  0  0
   -0.7551   -0.3867    1.2623 C   0  0  0  0  0  0  0  0  0  0  0  0
   -0.0106   -1.0851    0.5774 O   0  0  0  0  0  0  0  0  0  0  0  0
    0.1168    1.4689    2.7060 C   0  0  0  0  0  0  0  0  0  0  0  0
    1.1183   -1.4145    2.5542 H   0  0  0  0  0  0  0  0  0  0  0  0
   -1.3088   -0.0350    3.3125 H   0  0  0  0  0  0  0  0  0  0  0  0
    1.0116    1.5681    2.0808 H   0  0  0  0  0  0  0  0  0  0  0  0
   -0.6289    2.1775    2.3307 H   0  0  0  0  0  0  0  0  0  0  0  0
    0.3882    1.7670    3.7245 H   0  0  0  0  0  0  0  0  0  0  0  0
   -1.9689    0.1350    0.8298 N   0  0  0  0  0  0  0  0  0  0  0  0
   -2.5039   -0.1183   -0.4830 C   0  0  2  0  0  0  0  0  0  0  0  0
   -1.7209    0.7205   -1.4871 C   0  0  0  0  0  0  0  0  0  0  0  0
   -1.4123    1.8930   -1.2843 O   0  0  0  0  0  0  0  0  0  0  0  0
   -4.0012    0.1657   -0.5468 C   0  0  0  0  0  0  0  0  0  0  0  0
   -4.2475    1.5550   -0.3611 O   0  0  0  0  0  0  0  0  0  0  0  0
   -2.5276    0.6894    1.4750 H   0  0  0  0  0  0  0  0  0  0  0  0
   -2.3230   -1.1793   -0.6902 H   0  0  0  0  0  0  0  0  0  0  0  0
   -4.5389   -0.3816    0.2341 H   0  0  0  0  0  0  0  0  0  0  0  0
   -4.4070   -0.1244   -1.5218 H   0  0  0  0  0  0  0  0  0  0  0  0
   -3.7832    2.0180   -1.0763 H   0  0  0  0  0  0  0  0  0  0  0  0
   -1.3711   -0.0076   -2.6156 N   0  0  0  0  0  0  0  0  0  0  0  0
   -0.5996    0.5532   -3.7003 C   0  0  2  0  0  0  0  0  0  0  0  0
    0.3864    1.5520   -3.1090 C   0  0  0  0  0  0  0  0  0  0  0  0
    0.2200    2.0930   -2.0177 O   0  0  0  0  0  0  0  0  0  0  0  0
   -1.4972    1.2205   -4.7307 C   0  0  0  0  0  0  0  0  0  0  0  0
   -1.6356   -0.9861   -2.6801 H   0  0  0  0  0  0  0  0  0  0  0  0
   -0.0496   -0.2759   -4.1589 H   0  0  0  0  0  0  0  0  0  0  0  0
   -2.0564    2.0537   -4.2896 H   0  0  0  0  0  0  0  0  0  0  0  0
   -0.9132    1.6200   -5.5664 H   0  0  0  0  0  0  0  0  0  0  0  0
   -2.2252    0.5079   -5.1332 H   0  0  0  0  0  0  0  0  0  0  0  0
    1.4522    1.8009   -3.9623 N   0  0  0  0  0  0  0  0  0  0  0  0
    2.5153    2.7219   -3.6339 C   0  0  0  0  0  0  0  0  0  0  0  0
    1.5191    1.2932   -4.8395 H   0  0  0  0  0  0  0  0  0  0  0  0
    2.2732    3.7187   -4.0310 H   0  0  0  0  0  0  0  0  0  0  0  0
    2.6257    2.7795   -2.5410 H   0  0  0  0  0  0  0  0  0  0  0  0
    3.4569    2.3686   -4.0794 H   0  0  0  0  0  0  0  0  0  0  0  0
  1  3  1  0  0  0  0
  1  7  1  0  0  0  0
  1  2  2  0  0  0  0
 29 30  1  0  0  0  0
 30 38  1  0  0  0  0
 30 31  2  0  0  0  0
  8  9  1  0  0  0  0
  9 17  1  0  0  0  0
  9 10  2  0  0  0  0
 18 19  1  0  0  0  0
 19 28  1  0  0  0  0
 19 20  2  0  0  0  0
 29 32  1  0  0  0  0
  8 11  1  0  0  0  0
 38 39  1  0  0  0  0
 18 21  1  0  0  0  0
 21 22  1  0  0  0  0
 28 29  1  0  0  0  0
  7  8  1  0  0  0  0
 17 18  1  0  0  0  0
  3  4  1  0  0  0  0
  3  5  1  0  0  0  0
  3  6  1  0  0  0  0
 32 35  1  0  0  0  0
 32 36  1  0  0  0  0
 32 37  1  0  0  0  0
 11 14  1  0  0  0  0
 11 15  1  0  0  0  0
 11 16  1  0  0  0  0
 39 41  1  0  0  0  0
 39 42  1  0  0  0  0
 39 43  1  0  0  0  0
 21 25  1  0  0  0  0
 21 26  1  0  0  0  0
 29 34  1  0  0  0  0
  8 13  1  0  0  0  0
 18 24  1  0  0  0  0
 38 40  1  0  0  0  0
  7 12  1  0  0  0  0
 28 33  1  0  0  0  0
 17 23  1  0  0  0  0
 22 27  1  0  0  0  0
M  END
$$$$

  -OEChem-05262214473D

 43 42  0     1  0  0  0  0  0999 V2000
    0.7424   -1.0926    4.5665 C   0  0  0  0  0  0  0  0  0  0  0  0
    0.1409   -0.5364    5.4779 O   0  0  0  0  0  0  0  0  0  0  0  0
    1.7940   -2.1023    4.8871 C   0  0  0  0  0  0  0  0  0  0  0  0
    2.7935   -1.6502    4.9904 H   0  0  0  0  0  0  0  0  0  0  0  0
    1.6064   -2.6156    5.8438 H   0  0  0  0  0  0  0  0  0  0  0  0
    1.9156   -2.9078    4.1453 H   0  0  0  0  0  0  0  0  0  0  0  0
    0.5488   -0.8838    3.2109 N   0  0  0  0  0  0  0  0  0  0  0  0
   -0.4159    0.0446    2.6829 C   0  0  2  0  0  0  0  0  0  0  0  0
   -0.7551   -0.3867    1.2623 C   0  0  0  0  0  0  0  0  0  0  0  0
   -0.0106   -1.0851    0.5774 O   0  0  0  0  0  0  0  0  0  0  0  0
    0.1168    1.4689    2.7060 C   0  0  0  0  0  0  0  0  0  0  0  0
    1.1183   -1.4145    2.5542 H   0  0  0  0  0  0  0  0  0  0  0  0
   -1.3088   -0.0350    3.3125 H   0  0  0  0  0  0  0  0  0  0  0  0
    1.0116    1.5681    2.0808 H   0  0  0  0  0  0  0  0  0  0  0  0
   -0.6289    2.1775    2.3307 H   0  0  0  0  0  0  0  0  0  0  0  0
    0.3882    1.7670    3.7245 H   0  0  0  0  0  0  0  0  0  0  0  0
   -1.9689    0.1350    0.8298 N   0  0  0  0  0  0  0  0  0  0  0  0
   -2.5039   -0.1183   -0.4830 C   0  0  2  0  0  0  0  0  0  0  0  0
   -1.7209    0.7205   -1.4871 C   0  0  0  0  0  0  0  0  0  0  0  0
   -1.1824    1.7861   -1.1944 O   0  0  0  0  0  0  0  0  0  0  0  0
   -4.0012    0.1657   -0.5468 C   0  0  0  0  0  0  0  0  0  0  0  0
   -4.2475    1.5550   -0.3611 O   0  0  0  0  0  0  0  0  0  0  0  0
   -2.5276    0.6894    1.4750 H   0  0  0  0  0  0  0  0  0  0  0  0
   -2.3230   -1.1793   -0.6902 H   0  0  0  0  0  0  0  0  0  0  0  0
   -4.5389   -0.3816    0.2341 H   0  0  0  0  0  0  0  0  0  0  0  0
   -4.4070   -0.1244   -1.5218 H   0  0  0  0  0  0  0  0  0  0  0  0
   -3.7832    2.0180   -1.0763 H   0  0  0  0  0  0  0  0  0  0  0  0
   -1.6587    0.1174   -2.7354 N   0  0  0  0  0  0  0  0  0  0  0  0
   -0.9474    0.6983   -3.8504 C   0  0  2  0  0  0  0  0  0  0  0  0
    0.2710    1.4290   -3.3017 C   0  0  0  0  0  0  0  0  0  0  0  0
    0.3490    1.8253   -2.1407 O   0  0  0  0  0  0  0  0  0  0  0  0
   -1.8372    1.6438   -4.6422 C   0  0  0  0  0  0  0  0  0  0  0  0
   -2.1011   -0.7860   -2.8760 H   0  0  0  0  0  0  0  0  0  0  0  0
   -0.6206   -0.1329   -4.4847 H   0  0  0  0  0  0  0  0  0  0  0  0
   -2.1746    2.4831   -4.0231 H   0  0  0  0  0  0  0  0  0  0  0  0
   -1.3053    2.0613   -5.5035 H   0  0  0  0  0  0  0  0  0  0  0  0
   -2.7279    1.1237   -5.0109 H   0  0  0  0  0  0  0  0  0  0  0  0
    1.2433    1.6245   -4.2726 N   0  0  0  0  0  0  0  0  0  0  0  0
    2.4884    2.3049   -4.0031 C   0  0  0  0  0  0  0  0  0  0  0  0
    1.1023    1.2455   -5.2044 H   0  0  0  0  0  0  0  0  0  0  0  0
    2.3800    3.3747   -4.2351 H   0  0  0  0  0  0  0  0  0  0  0  0
    2.7495    2.1847   -2.9413 H   0  0  0  0  0  0  0  0  0  0  0  0
    3.2846    1.8733   -4.6276 H   0  0  0  0  0  0  0  0  0  0  0  0
  1  3  1  0  0  0  0
  1  7  1  0  0  0  0
  1  2  2  0  0  0  0
 29 30  1  0  0  0  0
 30 38  1  0  0  0  0
 30 31  2  0  0  0  0
  8  9  1  0  0  0  0
  9 17  1  0  0  0  0
  9 10  2  0  0  0  0
 18 19  1  0  0  0  0
 19 28  1  0  0  0  0
 19 20  2  0  0  0  0
 29 32  1  0  0  0  0
  8 11  1  0  0  0  0
 38 39  1  0  0  0  0
 18 21  1  0  0  0  0
 21 22  1  0  0  0  0
 28 29  1  0  0  0  0
  7  8  1  0  0  0  0
 17 18  1  0  0  0  0
  3  4  1  0  0  0  0
  3  5  1  0  0  0  0
  3  6  1  0  0  0  0
 32 35  1  0  0  0  0
 32 36  1  0  0  0  0
 32 37  1  0  0  0  0
 11 14  1  0  0  0  0
 11 15  1  0  0  0  0
 11 16  1  0  0  0  0
 39 41  1  0  0  0  0
 39 42  1  0  0  0  0
 39 43  1  0  0  0  0
 21 25  1  0  0  0  0
 21 26  1  0  0  0  0
 29 34  1  0  0  0  0
  8 13  1  0  0  0  0
 18 24  1  0  0  0  0
 38 40  1  0  0  0  0
  7 12  1  0  0  0  0
 28 33  1  0  0  0  0
 17 23  1  0  0  0  0
 22 27  1  0  0  0  0
M  END
$$$$

  -OEChem-05262214473D

 43 42  0     1  0  0  0  0  0999 V2000
    0.7424   -1.0926    4.5665 C   0  0  0  0  0  0  0  0  0  0  0  0
    0.1409   -0.5364    5.4779 O   0  0  0  0  0  0  0  0  0  0  0  0
    1.7940   -2.1023    4.8871 C   0  0  0  0  0  0  0  0  0  0  0  0
    2.7935   -1.6502    4.9904 H   0  0  0  0  0  0  0  0  0  0  0  0
    1.6064   -2.6156    5.8438 H   0  0  0  0  0  0  0  0  0  0  0  0
    1.9156   -2.9078    4.1453 H   0  0  0  0  0  0  0  0  0  0  0  0
    0.5488   -0.8838    3.2109 N   0  0  0  0  0  0  0  0  0  0  0  0
   -0.4159    0.0446    2.6829 C   0  0  2  0  0  0  0  0  0  0  0  0
   -0.7551   -0.3867    1.2623 C   0  0  0  0  0  0  0  0  0  0  0  0
   -0.0106   -1.0851    0.5774 O   0  0  0  0  0  0  0  0  0  0  0  0
    0.1168    1.4689    2.7060 C   0  0  0  0  0  0  0  0  0  0  0  0
    1.1183   -1.4145    2.5542 H   0  0  0  0  0  0  0  0  0  0  0  0
   -1.3088   -0.0350    3.3125 H   0  0  0  0  0  0  0  0  0  0  0  0
    1.0116    1.5681    2.0808 H   0  0  0  0  0  0  0  0  0  0  0  0
   -0.6289    2.1775    2.3307 H   0  0  0  0  0  0  0  0  0  0  0  0
    0.3882    1.7670    3.7245 H   0  0  0  0  0  0  0  0  0  0  0  0
   -1.9689    0.1350    0.8298 N   0  0  0  0  0  0  0  0  0  0  0  0
   -2.5039   -0.1183   -0.4830 C   0  0  2  0  0  0  0  0  0  0  0  0
   -1.7209    0.7205   -1.4871 C   0  0  0  0  0  0  0  0  0  0  0  0
   -0.9657    1.6316   -1.1544 O   0  0  0  0  0  0  0  0  0  0  0  0
   -4.0012    0.1657   -0.5468 C   0  0  0  0  0  0  0  0  0  0  0  0
   -4.2475    1.5550   -0.3611 O   0  0  0  0  0  0  0  0  0  0  0  0
   -2.5276    0.6894    1.4750 H   0  0  0  0  0  0  0  0  0  0  0  0
   -2.3230   -1.1793   -0.6902 H   0  0  0  0  0  0  0  0  0  0  0  0
   -4.5389   -0.3816    0.2341 H   0  0  0  0  0  0  0  0  0  0  0  0
   -4.4070   -0.1244   -1.5218 H   0  0  0  0  0  0  0  0  0  0  0  0
   -3.7832    2.0180   -1.0763 H   0  0  0  0  0  0  0  0  0  0  0  0
   -1.9322    0.3030   -2.7936 N   0  0  0  0  0  0  0  0  0  0  0  0
   -1.2801    0.9178   -3.9265 C   0  0  2  0  0  0  0  0  0  0  0  0
    0.1112    1.3554   -3.4878 C   0  0  0  0  0  0  0  0  0  0  0  0
    0.4105    1.5611   -2.3135 O   0  0  0  0  0  0  0  0  0  0  0  0
   -2.0809    2.0989   -4.4521 C   0  0  0  0  0  0  0  0  0  0  0  0
   -2.5446   -0.4873   -2.9723 H   0  0  0  0  0  0  0  0  0  0  0  0
   -1.1941    0.1459   -4.6990 H   0  0  0  0  0  0  0  0  0  0  0  0
   -2.1777    2.8826   -3.6919 H   0  0  0  0  0  0  0  0  0  0  0  0
   -1.5999    2.5460   -5.3283 H   0  0  0  0  0  0  0  0  0  0  0  0
   -3.0912    1.7879   -4.7393 H   0  0  0  0  0  0  0  0  0  0  0  0
    0.9672    1.5310   -4.5661 N   0  0  0  0  0  0  0  0  0  0  0  0
    2.3389    1.9558   -4.4114 C   0  0  0  0  0  0  0  0  0  0  0  0
    0.6396    1.3190   -5.5039 H   0  0  0  0  0  0  0  0  0  0  0  0
    2.3954    3.0513   -4.4932 H   0  0  0  0  0  0  0  0  0  0  0  0
    2.7107    1.6423   -3.4247 H   0  0  0  0  0  0  0  0  0  0  0  0
    2.9556    1.4972   -5.1983 H   0  0  0  0  0  0  0  0  0  0  0  0
  1  3  1  0  0  0  0
  1  7  1  0  0  0  0
  1  2  2  0  0  0  0
 29 30  1  0  0  0  0
 30 38  1  0  0  0  0
 30 31  2  0  0  0  0
  8  9  1  0  0  0  0
  9 17  1  0  0  0  0
  9 10  2  0  0  0  0
 18 19  1  0  0  0  0
 19 28  1  0  0  0  0
 19 20  2  0  0  0  0
 29 32  1  0  0  0  0
  8 11  1  0  0  0  0
 38 39  1  0  0  0  0
 18 21  1  0  0  0  0
 21 22  1  0  0  0  0
 28 29  1  0  0  0  0
  7  8  1  0  0  0  0
 17 18  1  0  0  0  0
  3  4  1  0  0  0  0
  3  5  1  0  0  0  0
  3  6  1  0  0  0  0
 32 35  1  0  0  0  0
 32 36  1  0  0  0  0
 32 37  1  0  0  0  0
 11 14  1  0  0  0  0
 11 15  1  0  0  0  0
 11 16  1  0  0  0  0
 39 41  1  0  0  0  0
 39 42  1  0  0  0  0
 39 43  1  0  0  0  0
 21 25  1  0  0  0  0
 21 26  1  0  0  0  0
 29 34  1  0  0  0  0
  8 13  1  0  0  0  0
 18 24  1  0  0  0  0
 38 40  1  0  0  0  0
  7 12  1  0  0  0  0
 28 33  1  0  0  0  0
 17 23  1  0  0  0  0
 22 27  1  0  0  0  0
M  END
$$$$

  -OEChem-05262214473D

 43 42  0     1  0  0  0  0  0999 V2000
    0.7424   -1.0926    4.5665 C   0  0  0  0  0  0  0  0  0  0  0  0
    0.1409   -0.5364    5.4779 O   0  0  0  0  0  0  0  0  0  0  0  0
    1.7940   -2.1023    4.8871 C   0  0  0  0  0  0  0  0  0  0  0  0
    2.7935   -1.6502    4.9904 H   0  0  0  0  0  0  0  0  0  0  0  0
    1.6064   -2.6156    5.8438 H   0  0  0  0  0  0  0  0  0  0  0  0
    1.9156   -2.9078    4.1453 H   0  0  0  0  0  0  0  0  0  0  0  0
    0.5488   -0.8838    3.2109 N   0  0  0  0  0  0  0  0  0  0  0  0
   -0.4159    0.0446    2.6829 C   0  0  2  0  0  0  0  0  0  0  0  0
   -0.7551   -0.3867    1.2623 C   0  0  0  0  0  0  0  0  0  0  0  0
   -0.0106   -1.0851    0.5774 O   0  0  0  0  0  0  0  0  0  0  0  0
    0.1168    1.4689    2.7060 C   0  0  0  0  0  0  0  0  0  0  0  0
    1.1183   -1.4145    2.5542 H   0  0  0  0  0  0  0  0  0  0  0  0
   -1.3088   -0.0350    3.3125 H   0  0  0  0  0  0  0  0  0  0  0  0
    1.0116    1.5681    2.0808 H   0  0  0  0  0  0  0  0  0  0  0  0
   -0.6289    2.1775    2.3307 H   0  0  0  0  0  0  0  0  0  0  0  0
    0.3882    1.7670    3.7245 H   0  0  0  0  0  0  0  0  0  0  0  0
   -1.9689    0.1350    0.8298 N   0  0  0  0  0  0  0  0  0  0  0  0
   -2.5039   -0.1183   -0.4830 C   0  0  2  0  0  0  0  0  0  0  0  0
   -1.5100    0.4077   -1.5127 C   0  0  0  0  0  0  0  0  0  0  0  0
   -0.4333    0.9156   -1.2060 O   0  0  0  0  0  0  0  0  0  0  0  0
   -3.8874    0.4998   -0.6576 C   0  0  0  0  0  0  0  0  0  0  0  0
   -3.8019    1.9196   -0.6130 O   0  0  0  0  0  0  0  0  0  0  0  0
   -2.5276    0.6894    1.4750 H   0  0  0  0  0  0  0  0  0  0  0  0
   -2.5740   -1.2076   -0.5825 H   0  0  0  0  0  0  0  0  0  0  0  0
   -4.5662    0.1756    0.1377 H   0  0  0  0  0  0  0  0  0  0  0  0
   -4.3172    0.2150   -1.6238 H   0  0  0  0  0  0  0  0  0  0  0  0
   -3.2166    2.1862   -1.3397 H   0  0  0  0  0  0  0  0  0  0  0  0
   -1.9484    0.2037   -2.8134 N   0  0  0  0  0  0  0  0  0  0  0  0
   -1.1720    0.5864   -3.9699 C   0  0  2  0  0  0  0  0  0  0  0  0
    0.3009    0.4000   -3.6301 C   0  0  0  0  0  0  0  0  0  0  0  0
    0.7265    0.3848   -2.4770 O   0  0  0  0  0  0  0  0  0  0  0  0
   -1.4582    2.0232   -4.3778 C   0  0  0  0  0  0  0  0  0  0  0  0
   -2.8369   -0.2617   -2.9736 H   0  0  0  0  0  0  0  0  0  0  0  0
   -1.4504   -0.0984   -4.7784 H   0  0  0  0  0  0  0  0  0  0  0  0
   -1.1857    2.7239   -3.5802 H   0  0  0  0  0  0  0  0  0  0  0  0
   -0.8904    2.3025   -5.2714 H   0  0  0  0  0  0  0  0  0  0  0  0
   -2.5231    2.1625   -4.5930 H   0  0  0  0  0  0  0  0  0  0  0  0
    1.0897    0.2959   -4.7672 N   0  0  0  0  0  0  0  0  0  0  0  0
    2.5227    0.1260   -4.7091 C   0  0  0  0  0  0  0  0  0  0  0  0
    0.6496    0.2998   -5.6827 H   0  0  0  0  0  0  0  0  0  0  0  0
    3.0112    1.1107   -4.7497 H   0  0  0  0  0  0  0  0  0  0  0  0
    2.7941   -0.3794   -3.7706 H   0  0  0  0  0  0  0  0  0  0  0  0
    2.8545   -0.4832   -5.5628 H   0  0  0  0  0  0  0  0  0  0  0  0
  1  3  1  0  0  0  0
  1  7  1  0  0  0  0
  1  2  2  0  0  0  0
 29 30  1  0  0  0  0
 30 38  1  0  0  0  0
 30 31  2  0  0  0  0
  8  9  1  0  0  0  0
  9 17  1  0  0  0  0
  9 10  2  0  0  0  0
 18 19  1  0  0  0  0
 19 28  1  0  0  0  0
 19 20  2  0  0  0  0
 29 32  1  0  0  0  0
  8 11  1  0  0  0  0
 38 39  1  0  0  0  0
 18 21  1  0  0  0  0
 21 22  1  0  0  0  0
 28 29  1  0  0  0  0
  7  8  1  0  0  0  0
 17 18  1  0  0  0  0
  3  4  1  0  0  0  0
  3  5  1  0  0  0  0
  3  6  1  0  0  0  0
 32 35  1  0  0  0  0
 32 36  1  0  0  0  0
 32 37  1  0  0  0  0
 11 14  1  0  0  0  0
 11 15  1  0  0  0  0
 11 16  1  0  0  0  0
 39 41  1  0  0  0  0
 39 42  1  0  0  0  0
 39 43  1  0  0  0  0
 21 25  1  0  0  0  0
 21 26  1  0  0  0  0
 29 34  1  0  0  0  0
  8 13  1  0  0  0  0
 18 24  1  0  0  0  0
 38 40  1  0  0  0  0
  7 12  1  0  0  0  0
 28 33  1  0  0  0  0
 17 23  1  0  0  0  0
 22 27  1  0  0  0  0
M  END
$$$$

  -OEChem-05262214473D

 43 42  0     1  0  0  0  0  0999 V2000
    0.7424   -1.0926    4.5665 C   0  0  0  0  0  0  0  0  0  0  0  0
    0.1409   -0.5364    5.4779 O   0  0  0  0  0  0  0  0  0  0  0  0
    1.7940   -2.1023    4.8871 C   0  0  0  0  0  0  0  0  0  0  0  0
    2.7935   -1.6502    4.9904 H   0  0  0  0  0  0  0  0  0  0  0  0
    1.6064   -2.6156    5.8438 H   0  0  0  0  0  0  0  0  0  0  0  0
    1.9156   -2.9078    4.1453 H   0  0  0  0  0  0  0  0  0  0  0  0
    0.5488   -0.8838    3.2109 N   0  0  0  0  0  0  0  0  0  0  0  0
   -0.4159    0.0446    2.6829 C   0  0  2  0  0  0  0  0  0  0  0  0
   -0.7551   -0.3867    1.2623 C   0  0  0  0  0  0  0  0  0  0  0  0
   -0.0106   -1.0851    0.5774 O   0  0  0  0  0  0  0  0  0  0  0  0
    0.1168    1.4689    2.7060 C   0  0  0  0  0  0  0  0  0  0  0  0
    1.1183   -1.4145    2.5542 H   0  0  0  0  0  0  0  0  0  0  0  0
   -1.3088   -0.0350    3.3125 H   0  0  0  0  0  0  0  0  0  0  0  0
    1.0116    1.5681    2.0808 H   0  0  0  0  0  0  0  0  0  0  0  0
   -0.6289    2.1775    2.3307 H   0  0  0  0  0  0  0  0  0  0  0  0
    0.3882    1.7670    3.7245 H   0  0  0  0  0  0  0  0  0  0  0  0
   -1.9689    0.1350    0.8298 N   0  0  0  0  0  0  0  0  0  0  0  0
   -2.5039   -0.1183   -0.4830 C   0  0  2  0  0  0  0  0  0  0  0  0
   -1.5100    0.4077   -1.5127 C   0  0  0  0  0  0  0  0  0  0  0  0
   -0.3390    0.6663   -1.2424 O   0  0  0  0  0  0  0  0  0  0  0  0
   -3.8874    0.4998   -0.6576 C   0  0  0  0  0  0  0  0  0  0  0  0
   -3.8019    1.9196   -0.6130 O   0  0  0  0  0  0  0  0  0  0  0  0
   -2.5276    0.6894    1.4750 H   0  0  0  0  0  0  0  0  0  0  0  0
   -2.5740   -1.2076   -0.5825 H   0  0  0  0  0  0  0  0  0  0  0  0
   -4.5662    0.1756    0.1377 H   0  0  0  0  0  0  0  0  0  0  0  0
   -4.3172    0.2150   -1.6238 H   0  0  0  0  0  0  0  0  0  0  0  0
   -3.2166    2.1862   -1.3397 H   0  0  0  0  0  0  0  0  0  0  0  0
   -2.0737    0.5129   -2.7764 N   0  0  0  0  0  0  0  0  0  0  0  0
   -1.3286    0.9586   -3.9309 C   0  0  2  0  0  0  0  0  0  0  0  0
    0.1067    0.4717   -3.7809 C   0  0  0  0  0  0  0  0  0  0  0  0
    0.6069    0.1821   -2.6961 O   0  0  0  0  0  0  0  0  0  0  0  0
   -1.3773    2.4721   -4.0703 C   0  0  0  0  0  0  0  0  0  0  0  0
   -3.0416    0.2383   -2.9157 H   0  0  0  0  0  0  0  0  0  0  0  0
   -1.7865    0.4837   -4.8054 H   0  0  0  0  0  0  0  0  0  0  0  0
   -0.9230    2.9654   -3.2033 H   0  0  0  0  0  0  0  0  0  0  0  0
   -0.8361    2.8061   -4.9617 H   0  0  0  0  0  0  0  0  0  0  0  0
   -2.4120    2.8232   -4.1481 H   0  0  0  0  0  0  0  0  0  0  0  0
    0.7765    0.4397   -4.9960 N   0  0  0  0  0  0  0  0  0  0  0  0
    2.1548    0.0251   -5.1158 C   0  0  0  0  0  0  0  0  0  0  0  0
    0.2778    0.6788   -5.8480 H   0  0  0  0  0  0  0  0  0  0  0  0
    2.8104    0.9059   -5.0482 H   0  0  0  0  0  0  0  0  0  0  0  0
    2.3984   -0.6763   -4.3042 H   0  0  0  0  0  0  0  0  0  0  0  0
    2.3055   -0.4704   -6.0862 H   0  0  0  0  0  0  0  0  0  0  0  0
  1  3  1  0  0  0  0
  1  7  1  0  0  0  0
  1  2  2  0  0  0  0
 29 30  1  0  0  0  0
 30 38  1  0  0  0  0
 30 31  2  0  0  0  0
  8  9  1  0  0  0  0
  9 17  1  0  0  0  0
  9 10  2  0  0  0  0
 18 19  1  0  0  0  0
 19 28  1  0  0  0  0
 19 20  2  0  0  0  0
 29 32  1  0  0  0  0
  8 11  1  0  0  0  0
 38 39  1  0  0  0  0
 18 21  1  0  0  0  0
 21 22  1  0  0  0  0
 28 29  1  0  0  0  0
  7  8  1  0  0  0  0
 17 18  1  0  0  0  0
  3  4  1  0  0  0  0
  3  5  1  0  0  0  0
  3  6  1  0  0  0  0
 32 35  1  0  0  0  0
 32 36  1  0  0  0  0
 32 37  1  0  0  0  0
 11 14  1  0  0  0  0
 11 15  1  0  0  0  0
 11 16  1  0  0  0  0
 39 41  1  0  0  0  0
 39 42  1  0  0  0  0
 39 43  1  0  0  0  0
 21 25  1  0  0  0  0
 21 26  1  0  0  0  0
 29 34  1  0  0  0  0
  8 13  1  0  0  0  0
 18 24  1  0  0  0  0
 38 40  1  0  0  0  0
  7 12  1  0  0  0  0
 28 33  1  0  0  0  0
 17 23  1  0  0  0  0
 22 27  1  0  0  0  0
M  END
$$$$

  -OEChem-05262214473D

 43 42  0     1  0  0  0  0  0999 V2000
    0.7424   -1.0926    4.5665 C   0  0  0  0  0  0  0  0  0  0  0  0
    0.1409   -0.5364    5.4779 O   0  0  0  0  0  0  0  0  0  0  0  0
    1.7940   -2.1023    4.8871 C   0  0  0  0  0  0  0  0  0  0  0  0
    2.7935   -1.6502    4.9904 H   0  0  0  0  0  0  0  0  0  0  0  0
    1.6064   -2.6156    5.8438 H   0  0  0  0  0  0  0  0  0  0  0  0
    1.9156   -2.9078    4.1453 H   0  0  0  0  0  0  0  0  0  0  0  0
    0.5488   -0.8838    3.2109 N   0  0  0  0  0  0  0  0  0  0  0  0
   -0.4159    0.0446    2.6829 C   0  0  2  0  0  0  0  0  0  0  0  0
   -0.7551   -0.3867    1.2623 C   0  0  0  0  0  0  0  0  0  0  0  0
   -0.0106   -1.0851    0.5774 O   0  0  0  0  0  0  0  0  0  0  0  0
    0.1168    1.4689    2.7060 C   0  0  0  0  0  0  0  0  0  0  0  0
    1.1183   -1.4145    2.5542 H   0  0  0  0  0  0  0  0  0  0  0  0
   -1.3088   -0.0350    3.3125 H   0  0  0  0  0  0  0  0  0  0  0  0
    1.0116    1.5681    2.0808 H   0  0  0  0  0  0  0  0  0  0  0  0
   -0.6289    2.1775    2.3307 H   0  0  0  0  0  0  0  0  0  0  0  0
    0.3882    1.7670    3.7245 H   0  0  0  0  0  0  0  0  0  0  0  0
   -1.9689    0.1350    0.8298 N   0  0  0  0  0  0  0  0  0  0  0  0
   -2.5039   -0.1183   -0.4830 C   0  0  2  0  0  0  0  0  0  0  0  0
   -1.5100    0.4077   -1.5127 C   0  0  0  0  0  0  0  0  0  0  0  0
   -0.2947    0.4150   -1.3279 O   0  0  0  0  0  0  0  0  0  0  0  0
   -3.8874    0.4998   -0.6576 C   0  0  0  0  0  0  0  0  0  0  0  0
   -3.8019    1.9196   -0.6130 O   0  0  0  0  0  0  0  0  0  0  0  0
   -2.5276    0.6894    1.4750 H   0  0  0  0  0  0  0  0  0  0  0  0
   -2.5740   -1.2076   -0.5825 H   0  0  0  0  0  0  0  0  0  0  0  0
   -4.5662    0.1756    0.1377 H   0  0  0  0  0  0  0  0  0  0  0  0
   -4.3172    0.2150   -1.6238 H   0  0  0  0  0  0  0  0  0  0  0  0
   -3.2166    2.1862   -1.3397 H   0  0  0  0  0  0  0  0  0  0  0  0
   -2.1373    0.8272   -2.6773 N   0  0  0  0  0  0  0  0  0  0  0  0
   -1.4113    1.3389   -3.8164 C   0  0  2  0  0  0  0  0  0  0  0  0
   -0.0819    0.6003   -3.8972 C   0  0  0  0  0  0  0  0  0  0  0  0
    0.4363    0.0441   -2.9312 O   0  0  0  0  0  0  0  0  0  0  0  0
   -1.1933    2.8398   -3.7049 C   0  0  0  0  0  0  0  0  0  0  0  0
   -3.1467    0.7472   -2.7572 H   0  0  0  0  0  0  0  0  0  0  0  0
   -2.0118    1.1093   -4.7033 H   0  0  0  0  0  0  0  0  0  0  0  0
   -0.5935    3.0892   -2.8220 H   0  0  0  0  0  0  0  0  0  0  0  0
   -0.6680    3.2307   -4.5825 H   0  0  0  0  0  0  0  0  0  0  0  0
   -2.1494    3.3670   -3.6168 H   0  0  0  0  0  0  0  0  0  0  0  0
    0.4788    0.6720   -5.1648 N   0  0  0  0  0  0  0  0  0  0  0  0
    1.7455    0.0606   -5.4927 C   0  0  0  0  0  0  0  0  0  0  0  0
   -0.0299    1.1377   -5.9105 H   0  0  0  0  0  0  0  0  0  0  0  0
    2.5540    0.7934   -5.3532 H   0  0  0  0  0  0  0  0  0  0  0  0
    1.9167   -0.8038   -4.8343 H   0  0  0  0  0  0  0  0  0  0  0  0
    1.7308   -0.2738   -6.5405 H   0  0  0  0  0  0  0  0  0  0  0  0
  1  3  1  0  0  0  0
  1  7  1  0  0  0  0
  1  2  2  0  0  0  0
 29 30  1  0  0  0  0
 30 38  1  0  0  0  0
 30 31  2  0  0  0  0
  8  9  1  0  0  0  0
  9 17  1  0  0  0  0
  9 10  2  0  0  0  0
 18 19  1  0  0  0  0
 19 28  1  0  0  0  0
 19 20  2  0  0  0  0
 29 32  1  0  0  0  0
  8 11  1  0  0  0  0
 38 39  1  0  0  0  0
 18 21  1  0  0  0  0
 21 22  1  0  0  0  0
 28 29  1  0  0  0  0
  7  8  1  0  0  0  0
 17 18  1  0  0  0  0
  3  4  1  0  0  0  0
  3  5  1  0  0  0  0
  3  6  1  0  0  0  0
 32 35  1  0  0  0  0
 32 36  1  0  0  0  0
 32 37  1  0  0  0  0
 11 14  1  0  0  0  0
 11 15  1  0  0  0  0
 11 16  1  0  0  0  0
 39 41  1  0  0  0  0
 39 42  1  0  0  0  0
 39 43  1  0  0  0  0
 21 25  1  0  0  0  0
 21 26  1  0  0  0  0
 29 34  1  0  0  0  0
  8 13  1  0  0  0  0
 18 24  1  0  0  0  0
 38 40  1  0  0  0  0
  7 12  1  0  0  0  0
 28 33  1  0  0  0  0
 17 23  1  0  0  0  0
 22 27  1  0  0  0  0
M  END
$$$$

  -OEChem-05262214473D

 43 42  0     1  0  0  0  0  0999 V2000
    0.7424   -1.0926    4.5665 C   0  0  0  0  0  0  0  0  0  0  0  0
    0.1409   -0.5364    5.4779 O   0  0  0  0  0  0  0  0  0  0  0  0
    1.7940   -2.1023    4.8871 C   0  0  0  0  0  0  0  0  0  0  0  0
    2.7935   -1.6502    4.9904 H   0  0  0  0  0  0  0  0  0  0  0  0
    1.6064   -2.6156    5.8438 H   0  0  0  0  0  0  0  0  0  0  0  0
    1.9156   -2.9078    4.1453 H   0  0  0  0  0  0  0  0  0  0  0  0
    0.5488   -0.8838    3.2109 N   0  0  0  0  0  0  0  0  0  0  0  0
   -0.4159    0.0446    2.6829 C   0  0  2  0  0  0  0  0  0  0  0  0
   -0.7551   -0.3867    1.2623 C   0  0  0  0  0  0  0  0  0  0  0  0
   -0.0106   -1.0851    0.5774 O   0  0  0  0  0  0  0  0  0  0  0  0
    0.1168    1.4689    2.7060 C   0  0  0  0  0  0  0  0  0  0  0  0
    1.1183   -1.4145    2.5542 H   0  0  0  0  0  0  0  0  0  0  0  0
   -1.3088   -0.0350    3.3125 H   0  0  0  0  0  0  0  0  0  0  0  0
    1.0116    1.5681    2.0808 H   0  0  0  0  0  0  0  0  0  0  0  0
   -0.6289    2.1775    2.3307 H   0  0  0  0  0  0  0  0  0  0  0  0
    0.3882    1.7670    3.7245 H   0  0  0  0  0  0  0  0  0  0  0  0
   -1.9689    0.1350    0.8298 N   0  0  0  0  0  0  0  0  0  0  0  0
   -2.5039   -0.1183   -0.4830 C   0  0  2  0  0  0  0  0  0  0  0  0
   -1.5100    0.4077   -1.5127 C   0  0  0  0  0  0  0  0  0  0  0  0
   -0.3034    0.1791   -1.4569 O   0  0  0  0  0  0  0  0  0  0  0  0
   -3.8874    0.4998   -0.6576 C   0  0  0  0  0  0  0  0  0  0  0  0
   -3.8019    1.9196   -0.6130 O   0  0  0  0  0  0  0  0  0  0  0  0
   -2.5276    0.6894    1.4750 H   0  0  0  0  0  0  0  0  0  0  0  0
   -2.5740   -1.2076   -0.5825 H   0  0  0  0  0  0  0  0  0  0  0  0
   -4.5662    0.1756    0.1377 H   0  0  0  0  0  0  0  0  0  0  0  0
   -4.3172    0.2150   -1.6238 H   0  0  0  0  0  0  0  0  0  0  0  0
   -3.2166    2.1862   -1.3397 H   0  0  0  0  0  0  0  0  0  0  0  0
   -2.1350    1.1252   -2.5228 N   0  0  0  0  0  0  0  0  0  0  0  0
   -1.4145    1.7014   -3.6343 C   0  0  2  0  0  0  0  0  0  0  0  0
   -0.2519    0.7770   -3.9710 C   0  0  0  0  0  0  0  0  0  0  0  0
    0.2265   -0.0197   -3.1663 O   0  0  0  0  0  0  0  0  0  0  0  0
   -0.9187    3.1011   -3.3062 C   0  0  0  0  0  0  0  0  0  0  0  0
   -3.1452    1.2303   -2.5089 H   0  0  0  0  0  0  0  0  0  0  0  0
   -2.1111    1.7357   -4.4791 H   0  0  0  0  0  0  0  0  0  0  0  0
   -0.2195    3.0868   -2.4622 H   0  0  0  0  0  0  0  0  0  0  0  0
   -0.3975    3.5475   -4.1595 H   0  0  0  0  0  0  0  0  0  0  0  0
   -1.7533    3.7567   -3.0354 H   0  0  0  0  0  0  0  0  0  0  0  0
    0.2167    0.9768   -5.2620 N   0  0  0  0  0  0  0  0  0  0  0  0
    1.3227    0.2301   -5.8143 C   0  0  0  0  0  0  0  0  0  0  0  0
   -0.2525    1.6453   -5.8660 H   0  0  0  0  0  0  0  0  0  0  0  0
    2.2594    0.7811   -5.6438 H   0  0  0  0  0  0  0  0  0  0  0  0
    1.3817   -0.7533   -5.3249 H   0  0  0  0  0  0  0  0  0  0  0  0
    1.1694    0.0933   -6.8949 H   0  0  0  0  0  0  0  0  0  0  0  0
  1  3  1  0  0  0  0
  1  7  1  0  0  0  0
  1  2  2  0  0  0  0
 29 30  1  0  0  0  0
 30 38  1  0  0  0  0
 30 31  2  0  0  0  0
  8  9  1  0  0  0  0
  9 17  1  0  0  0  0
  9 10  2  0  0  0  0
 18 19  1  0  0  0  0
 19 28  1  0  0  0  0
 19 20  2  0  0  0  0
 29 32  1  0  0  0  0
  8 11  1  0  0  0  0
 38 39  1  0  0  0  0
 18 21  1  0  0  0  0
 21 22  1  0  0  0  0
 28 29  1  0  0  0  0
  7  8  1  0  0  0  0
 17 18  1  0  0  0  0
  3  4  1  0  0  0  0
  3  5  1  0  0  0  0
  3  6  1  0  0  0  0
 32 35  1  0  0  0  0
 32 36  1  0  0  0  0
 32 37  1  0  0  0  0
 11 14  1  0  0  0  0
 11 15  1  0  0  0  0
 11 16  1  0  0  0  0
 39 41  1  0  0  0  0
 39 42  1  0  0  0  0
 39 43  1  0  0  0  0
 21 25  1  0  0  0  0
 21 26  1  0  0  0  0
 29 34  1  0  0  0  0
  8 13  1  0  0  0  0
 18 24  1  0  0  0  0
 38 40  1  0  0  0  0
  7 12  1  0  0  0  0
 28 33  1  0  0  0  0
 17 23  1  0  0  0  0
 22 27  1  0  0  0  0
M  END
$$$$

  -OEChem-05262214473D

 43 42  0     1  0  0  0  0  0999 V2000
    0.7424   -1.0926    4.5665 C   0  0  0  0  0  0  0  0  0  0  0  0
    0.1409   -0.5364    5.4779 O   0  0  0  0  0  0  0  0  0  0  0  0
    1.7940   -2.1023    4.8871 C   0  0  0  0  0  0  0  0  0  0  0  0
    2.7935   -1.6502    4.9904 H   0  0  0  0  0  0  0  0  0  0  0  0
    1.6064   -2.6156    5.8438 H   0  0  0  0  0  0  0  0  0  0  0  0
    1.9156   -2.9078    4.1453 H   0  0  0  0  0  0  0  0  0  0  0  0
    0.5488   -0.8838    3.2109 N   0  0  0  0  0  0  0  0  0  0  0  0
   -0.4159    0.0446    2.6829 C   0  0  2  0  0  0  0  0  0  0  0  0
   -0.7551   -0.3867    1.2623 C   0  0  0  0  0  0  0  0  0  0  0  0
   -0.0106   -1.0851    0.5774 O   0  0  0  0  0  0  0  0  0  0  0  0
    0.1168    1.4689    2.7060 C   0  0  0  0  0  0  0  0  0  0  0  0
    1.1183   -1.4145    2.5542 H   0  0  0  0  0  0  0  0  0  0  0  0
   -1.3088   -0.0350    3.3125 H   0  0  0  0  0  0  0  0  0  0  0  0
    1.0116    1.5681    2.0808 H   0  0  0  0  0  0  0  0  0  0  0  0
   -0.6289    2.1775    2.3307 H   0  0  0  0  0  0  0  0  0  0  0  0
    0.3882    1.7670    3.7245 H   0  0  0  0  0  0  0  0  0  0  0  0
   -1.9689    0.1350    0.8298 N   0  0  0  0  0  0  0  0  0  0  0  0
   -2.5039   -0.1183   -0.4830 C   0  0  2  0  0  0  0  0  0  0  0  0
   -1.5100    0.4077   -1.5127 C   0  0  0  0  0  0  0  0  0  0  0  0
   -0.3646   -0.0256   -1.6206 O   0  0  0  0  0  0  0  0  0  0  0  0
   -3.8874    0.4998   -0.6576 C   0  0  0  0  0  0  0  0  0  0  0  0
   -3.8019    1.9196   -0.6130 O   0  0  0  0  0  0  0  0  0  0  0  0
   -2.5276    0.6894    1.4750 H   0  0  0  0  0  0  0  0  0  0  0  0
   -2.5740   -1.2076   -0.5825 H   0  0  0  0  0  0  0  0  0  0  0  0
   -4.5662    0.1756    0.1377 H   0  0  0  0  0  0  0  0  0  0  0  0
   -4.3172    0.2150   -1.6238 H   0  0  0  0  0  0  0  0  0  0  0  0
   -3.2166    2.1862   -1.3397 H   0  0  0  0  0  0  0  0  0  0  0  0
   -2.0669    1.3865   -2.3236 N   0  0  0  0  0  0  0  0  0  0  0  0
   -1.3380    2.0214   -3.3969 C   0  0  2  0  0  0  0  0  0  0  0  0
   -0.3918    0.9900   -3.9973 C   0  0  0  0  0  0  0  0  0  0  0  0
   -0.0084   -0.0049   -3.3855 O   0  0  0  0  0  0  0  0  0  0  0  0
   -0.5721    3.2383   -2.9016 C   0  0  0  0  0  0  0  0  0  0  0  0
   -3.0371    1.6549   -2.1876 H   0  0  0  0  0  0  0  0  0  0  0  0
   -2.0774    2.3203   -4.1479 H   0  0  0  0  0  0  0  0  0  0  0  0
    0.1735    2.9584   -2.1484 H   0  0  0  0  0  0  0  0  0  0  0  0
   -0.0431    3.7349   -3.7217 H   0  0  0  0  0  0  0  0  0  0  0  0
   -1.2506    3.9659   -2.4434 H   0  0  0  0  0  0  0  0  0  0  0  0
    0.0081    1.3335   -5.2811 N   0  0  0  0  0  0  0  0  0  0  0  0
    0.9152    0.5219   -6.0586 C   0  0  0  0  0  0  0  0  0  0  0  0
   -0.3747    2.1670   -5.7175 H   0  0  0  0  0  0  0  0  0  0  0  0
    1.9467    0.8697   -5.9004 H   0  0  0  0  0  0  0  0  0  0  0  0
    0.8300   -0.5283   -5.7425 H   0  0  0  0  0  0  0  0  0  0  0  0
    0.6596    0.6057   -7.1252 H   0  0  0  0  0  0  0  0  0  0  0  0
  1  3  1  0  0  0  0
  1  7  1  0  0  0  0
  1  2  2  0  0  0  0
 29 30  1  0  0  0  0
 30 38  1  0  0  0  0
 30 31  2  0  0  0  0
  8  9  1  0  0  0  0
  9 17  1  0  0  0  0
  9 10  2  0  0  0  0
 18 19  1  0  0  0  0
 19 28  1  0  0  0  0
 19 20  2  0  0  0  0
 29 32  1  0  0  0  0
  8 11  1  0  0  0  0
 38 39  1  0  0  0  0
 18 21  1  0  0  0  0
 21 22  1  0  0  0  0
 28 29  1  0  0  0  0
  7  8  1  0  0  0  0
 17 18  1  0  0  0  0
  3  4  1  0  0  0  0
  3  5  1  0  0  0  0
  3  6  1  0  0  0  0
 32 35  1  0  0  0  0
 32 36  1  0  0  0  0
 32 37  1  0  0  0  0
 11 14  1  0  0  0  0
 11 15  1  0  0  0  0
 11 16  1  0  0  0  0
 39 41  1  0  0  0  0
 39 42  1  0  0  0  0
 39 43  1  0  0  0  0
 21 25  1  0  0  0  0
 21 26  1  0  0  0  0
 29 34  1  0  0  0  0
  8 13  1  0  0  0  0
 18 24  1  0  0  0  0
 38 40  1  0  0  0  0
  7 12  1  0  0  0  0
 28 33  1  0  0  0  0
 17 23  1  0  0  0  0
 22 27  1  0  0  0  0
M  END
$$$$

  -OEChem-05262214473D

 43 42  0     1  0  0  0  0  0999 V2000
    0.7424   -1.0926    4.5665 C   0  0  0  0  0  0  0  0  0  0  0  0
    0.1409   -0.5364    5.4779 O   0  0  0  0  0  0  0  0  0  0  0  0
    1.7940   -2.1023    4.8871 C   0  0  0  0  0  0  0  0  0  0  0  0
    2.7935   -1.6502    4.9904 H   0  0  0  0  0  0  0  0  0  0  0  0
    1.6064   -2.6156    5.8438 H   0  0  0  0  0  0  0  0  0  0  0  0
    1.9156   -2.9078    4.1453 H   0  0  0  0  0  0  0  0  0  0  0  0
    0.5488   -0.8838    3.2109 N   0  0  0  0  0  0  0  0  0  0  0  0
   -0.4159    0.0446    2.6829 C   0  0  2  0  0  0  0  0  0  0  0  0
   -0.7551   -0.3867    1.2623 C   0  0  0  0  0  0  0  0  0  0  0  0
   -0.0106   -1.0851    0.5774 O   0  0  0  0  0  0  0  0  0  0  0  0
    0.1168    1.4689    2.7060 C   0  0  0  0  0  0  0  0  0  0  0  0
    1.1183   -1.4145    2.5542 H   0  0  0  0  0  0  0  0  0  0  0  0
   -1.3088   -0.0350    3.3125 H   0  0  0  0  0  0  0  0  0  0  0  0
    1.0116    1.5681    2.0808 H   0  0  0  0  0  0  0  0  0  0  0  0
   -0.6289    2.1775    2.3307 H   0  0  0  0  0  0  0  0  0  0  0  0
    0.3882    1.7670    3.7245 H   0  0  0  0  0  0  0  0  0  0  0  0
   -1.9689    0.1350    0.8298 N   0  0  0  0  0  0  0  0  0  0  0  0
   -2.5039   -0.1183   -0.4830 C   0  0  2  0  0  0  0  0  0  0  0  0
   -1.5100    0.4077   -1.5127 C   0  0  0  0  0  0  0  0  0  0  0  0
   -0.4741   -0.1849   -1.8077 O   0  0  0  0  0  0  0  0  0  0  0  0
   -3.8874    0.4998   -0.6576 C   0  0  0  0  0  0  0  0  0  0  0  0
   -3.8019    1.9196   -0.6130 O   0  0  0  0  0  0  0  0  0  0  0  0
   -2.5276    0.6894    1.4750 H   0  0  0  0  0  0  0  0  0  0  0  0
   -2.5740   -1.2076   -0.5825 H   0  0  0  0  0  0  0  0  0  0  0  0
   -4.5662    0.1756    0.1377 H   0  0  0  0  0  0  0  0  0  0  0  0
   -4.3172    0.2150   -1.6238 H   0  0  0  0  0  0  0  0  0  0  0  0
   -3.2166    2.1862   -1.3397 H   0  0  0  0  0  0  0  0  0  0  0  0
   -1.9377    1.5935   -2.0931 N   0  0  0  0  0  0  0  0  0  0  0  0
   -1.1869    2.2770   -3.1205 C   0  0  2  0  0  0  0  0  0  0  0  0
   -0.4921    1.2245   -3.9743 C   0  0  0  0  0  0  0  0  0  0  0  0
   -0.2522    0.0874   -3.5737 O   0  0  0  0  0  0  0  0  0  0  0  0
   -0.1772    3.2419   -2.5186 C   0  0  0  0  0  0  0  0  0  0  0  0
   -2.8298    1.9919   -1.8153 H   0  0  0  0  0  0  0  0  0  0  0  0
   -1.9131    2.8233   -3.7324 H   0  0  0  0  0  0  0  0  0  0  0  0
    0.5586    2.7128   -1.9021 H   0  0  0  0  0  0  0  0  0  0  0  0
    0.3711    3.7801   -3.2988 H   0  0  0  0  0  0  0  0  0  0  0  0
   -0.6757    3.9801   -1.8811 H   0  0  0  0  0  0  0  0  0  0  0  0
   -0.1327    1.7177   -5.2208 N   0  0  0  0  0  0  0  0  0  0  0  0
    0.5508    0.9162   -6.2089 C   0  0  0  0  0  0  0  0  0  0  0  0
   -0.3884    2.6673   -5.4751 H   0  0  0  0  0  0  0  0  0  0  0  0
    1.6373    1.0532   -6.1053 H   0  0  0  0  0  0  0  0  0  0  0  0
    0.2991   -0.1441   -6.0587 H   0  0  0  0  0  0  0  0  0  0  0  0
    0.2363    1.2286   -7.2156 H   0  0  0  0  0  0  0  0  0  0  0  0
  1  3  1  0  0  0  0
  1  7  1  0  0  0  0
  1  2  2  0  0  0  0
 29 30  1  0  0  0  0
 30 38  1  0  0  0  0
 30 31  2  0  0  0  0
  8  9  1  0  0  0  0
  9 17  1  0  0  0  0
  9 10  2  0  0  0  0
 18 19  1  0  0  0  0
 19 28  1  0  0  0  0
 19 20  2  0  0  0  0
 29 32  1  0  0  0  0
  8 11  1  0  0  0  0
 38 39  1  0  0  0  0
 18 21  1  0  0  0  0
 21 22  1  0  0  0  0
 28 29  1  0  0  0  0
  7  8  1  0  0  0  0
 17 18  1  0  0  0  0
  3  4  1  0  0  0  0
  3  5  1  0  0  0  0
  3  6  1  0  0  0  0
 32 35  1  0  0  0  0
 32 36  1  0  0  0  0
 32 37  1  0  0  0  0
 11 14  1  0  0  0  0
 11 15  1  0  0  0  0
 11 16  1  0  0  0  0
 39 41  1  0  0  0  0
 39 42  1  0  0  0  0
 39 43  1  0  0  0  0
 21 25  1  0  0  0  0
 21 26  1  0  0  0  0
 29 34  1  0  0  0  0
  8 13  1  0  0  0  0
 18 24  1  0  0  0  0
 38 40  1  0  0  0  0
  7 12  1  0  0  0  0
 28 33  1  0  0  0  0
 17 23  1  0  0  0  0
 22 27  1  0  0  0  0
M  END
$$$$

  -OEChem-05262214473D

 43 42  0     1  0  0  0  0  0999 V2000
    0.7424   -1.0926    4.5665 C   0  0  0  0  0  0  0  0  0  0  0  0
    0.1409   -0.5364    5.4779 O   0  0  0  0  0  0  0  0  0  0  0  0
    1.7940   -2.1023    4.8871 C   0  0  0  0  0  0  0  0  0  0  0  0
    2.7935   -1.6502    4.9904 H   0  0  0  0  0  0  0  0  0  0  0  0
    1.6064   -2.6156    5.8438 H   0  0  0  0  0  0  0  0  0  0  0  0
    1.9156   -2.9078    4.1453 H   0  0  0  0  0  0  0  0  0  0  0  0
    0.5488   -0.8838    3.2109 N   0  0  0  0  0  0  0  0  0  0  0  0
   -0.4159    0.0446    2.6829 C   0  0  2  0  0  0  0  0  0  0  0  0
   -0.7551   -0.3867    1.2623 C   0  0  0  0  0  0  0  0  0  0  0  0
   -0.0106   -1.0851    0.5774 O   0  0  0  0  0  0  0  0  0  0  0  0
    0.1168    1.4689    2.7060 C   0  0  0  0  0  0  0  0  0  0  0  0
    1.1183   -1.4145    2.5542 H   0  0  0  0  0  0  0  0  0  0  0  0
   -1.3088   -0.0350    3.3125 H   0  0  0  0  0  0  0  0  0  0  0  0
    1.0116    1.5681    2.0808 H   0  0  0  0  0  0  0  0  0  0  0  0
   -0.6289    2.1775    2.3307 H   0  0  0  0  0  0  0  0  0  0  0  0
    0.3882    1.7670    3.7245 H   0  0  0  0  0  0  0  0  0  0  0  0
   -1.9689    0.1350    0.8298 N   0  0  0  0  0  0  0  0  0  0  0  0
   -2.5039   -0.1183   -0.4830 C   0  0  2  0  0  0  0  0  0  0  0  0
   -1.5100    0.4077   -1.5127 C   0  0  0  0  0  0  0  0  0  0  0  0
   -0.6245   -0.2881   -2.0055 O   0  0  0  0  0  0  0  0  0  0  0  0
   -3.8874    0.4998   -0.6576 C   0  0  0  0  0  0  0  0  0  0  0  0
   -3.8019    1.9196   -0.6130 O   0  0  0  0  0  0  0  0  0  0  0  0
   -2.5276    0.6894    1.4750 H   0  0  0  0  0  0  0  0  0  0  0  0
   -2.5740   -1.2076   -0.5825 H   0  0  0  0  0  0  0  0  0  0  0  0
   -4.5662    0.1756    0.1377 H   0  0  0  0  0  0  0  0  0  0  0  0
   -4.3172    0.2150   -1.6238 H   0  0  0  0  0  0  0  0  0  0  0  0
   -3.2166    2.1862   -1.3397 H   0  0  0  0  0  0  0  0  0  0  0  0
   -1.7561    1.7319   -1.8471 N   0  0  0  0  0  0  0  0  0  0  0  0
   -0.9716    2.4510   -2.8239 C   0  0  2  0  0  0  0  0  0  0  0  0
   -0.5459    1.4647   -3.9035 C   0  0  0  0  0  0  0  0  0  0  0  0
   -0.4885    0.2509   -3.7182 O   0  0  0  0  0  0  0  0  0  0  0  0
    0.2390    3.1118   -2.1833 C   0  0  0  0  0  0  0  0  0  0  0  0
   -2.5373    2.2184   -1.4174 H   0  0  0  0  0  0  0  0  0  0  0  0
   -1.6294    3.2102   -3.2608 H   0  0  0  0  0  0  0  0  0  0  0  0
    0.9097    2.3667   -1.7401 H   0  0  0  0  0  0  0  0  0  0  0  0
    0.8168    3.6801   -2.9197 H   0  0  0  0  0  0  0  0  0  0  0  0
   -0.0676    3.7985   -1.3869 H   0  0  0  0  0  0  0  0  0  0  0  0
   -0.1962    2.1032   -5.0851 N   0  0  0  0  0  0  0  0  0  0  0  0
    0.2542    1.3861   -6.2550 C   0  0  0  0  0  0  0  0  0  0  0  0
   -0.2925    3.1120   -5.1554 H   0  0  0  0  0  0  0  0  0  0  0  0
    1.3522    1.3192   -6.2446 H   0  0  0  0  0  0  0  0  0  0  0  0
   -0.1748    0.3732   -6.2518 H   0  0  0  0  0  0  0  0  0  0  0  0
   -0.0719    1.9195   -7.1600 H   0  0  0  0  0  0  0  0  0  0  0  0
  1  3  1  0  0  0  0
  1  7  1  0  0  0  0
  1  2  2  0  0  0  0
 29 30  1  0  0  0  0
 30 38  1  0  0  0  0
 30 31  2  0  0  0  0
  8  9  1  0  0  0  0
  9 17  1  0  0  0  0
  9 10  2  0  0  0  0
 18 19  1  0  0  0  0
 19 28  1  0  0  0  0
 19 20  2  0  0  0  0
 29 32  1  0  0  0  0
  8 11  1  0  0  0  0
 38 39  1  0  0  0  0
 18 21  1  0  0  0  0
 21 22  1  0  0  0  0
 28 29  1  0  0  0  0
  7  8  1  0  0  0  0
 17 18  1  0  0  0  0
  3  4  1  0  0  0  0
  3  5  1  0  0  0  0
  3  6  1  0  0  0  0
 32 35  1  0  0  0  0
 32 36  1  0  0  0  0
 32 37  1  0  0  0  0
 11 14  1  0  0  0  0
 11 15  1  0  0  0  0
 11 16  1  0  0  0  0
 39 41  1  0  0  0  0
 39 42  1  0  0  0  0
 39 43  1  0  0  0  0
 21 25  1  0  0  0  0
 21 26  1  0  0  0  0
 29 34  1  0  0  0  0
  8 13  1  0  0  0  0
 18 24  1  0  0  0  0
 38 40  1  0  0  0  0
  7 12  1  0  0  0  0
 28 33  1  0  0  0  0
 17 23  1  0  0  0  0
 22 27  1  0  0  0  0
M  END
$$$$

  -OEChem-05262214473D

 43 42  0     1  0  0  0  0  0999 V2000
    0.7424   -1.0926    4.5665 C   0  0  0  0  0  0  0  0  0  0  0  0
    0.1409   -0.5364    5.4779 O   0  0  0  0  0  0  0  0  0  0  0  0
    1.7940   -2.1023    4.8871 C   0  0  0  0  0  0  0  0  0  0  0  0
    2.7935   -1.6502    4.9904 H   0  0  0  0  0  0  0  0  0  0  0  0
    1.6064   -2.6156    5.8438 H   0  0  0  0  0  0  0  0  0  0  0  0
    1.9156   -2.9078    4.1453 H   0  0  0  0  0  0  0  0  0  0  0  0
    0.5488   -0.8838    3.2109 N   0  0  0  0  0  0  0  0  0  0  0  0
   -0.4159    0.0446    2.6829 C   0  0  2  0  0  0  0  0  0  0  0  0
   -0.7551   -0.3867    1.2623 C   0  0  0  0  0  0  0  0  0  0  0  0
   -0.0106   -1.0851    0.5774 O   0  0  0  0  0  0  0  0  0  0  0  0
    0.1168    1.4689    2.7060 C   0  0  0  0  0  0  0  0  0  0  0  0
    1.1183   -1.4145    2.5542 H   0  0  0  0  0  0  0  0  0  0  0  0
   -1.3088   -0.0350    3.3125 H   0  0  0  0  0  0  0  0  0  0  0  0
    1.0116    1.5681    2.0808 H   0  0  0  0  0  0  0  0  0  0  0  0
   -0.6289    2.1775    2.3307 H   0  0  0  0  0  0  0  0  0  0  0  0
    0.3882    1.7670    3.7245 H   0  0  0  0  0  0  0  0  0  0  0  0
   -1.9689    0.1350    0.8298 N   0  0  0  0  0  0  0  0  0  0  0  0
   -2.5039   -0.1183   -0.4830 C   0  0  2  0  0  0  0  0  0  0  0  0
   -1.5100    0.4077   -1.5127 C   0  0  0  0  0  0  0  0  0  0  0  0
   -0.8054   -0.3282   -2.2006 O   0  0  0  0  0  0  0  0  0  0  0  0
   -3.8874    0.4998   -0.6576 C   0  0  0  0  0  0  0  0  0  0  0  0
   -3.8019    1.9196   -0.6130 O   0  0  0  0  0  0  0  0  0  0  0  0
   -2.5276    0.6894    1.4750 H   0  0  0  0  0  0  0  0  0  0  0  0
   -2.5740   -1.2076   -0.5825 H   0  0  0  0  0  0  0  0  0  0  0  0
   -4.5662    0.1756    0.1377 H   0  0  0  0  0  0  0  0  0  0  0  0
   -4.3172    0.2150   -1.6238 H   0  0  0  0  0  0  0  0  0  0  0  0
   -3.2166    2.1862   -1.3397 H   0  0  0  0  0  0  0  0  0  0  0  0
   -1.5345    1.7923   -1.6023 N   0  0  0  0  0  0  0  0  0  0  0  0
   -0.7068    2.5313   -2.5272 C   0  0  2  0  0  0  0  0  0  0  0  0
   -0.5496    1.6942   -3.7898 C   0  0  0  0  0  0  0  0  0  0  0  0
   -0.7010    0.4745   -3.8091 O   0  0  0  0  0  0  0  0  0  0  0  0
    0.6483    2.8568   -1.9186 C   0  0  0  0  0  0  0  0  0  0  0  0
   -2.1798    2.3189   -1.0209 H   0  0  0  0  0  0  0  0  0  0  0  0
   -1.2456    3.4549   -2.7654 H   0  0  0  0  0  0  0  0  0  0  0  0
    1.2028    1.9437   -1.6733 H   0  0  0  0  0  0  0  0  0  0  0  0
    1.2637    3.4415   -2.6102 H   0  0  0  0  0  0  0  0  0  0  0  0
    0.5321    3.4335   -0.9946 H   0  0  0  0  0  0  0  0  0  0  0  0
   -0.1780    2.4638   -4.8833 N   0  0  0  0  0  0  0  0  0  0  0  0
    0.0458    1.8996   -6.1938 C   0  0  0  0  0  0  0  0  0  0  0  0
   -0.0936    3.4708   -4.7801 H   0  0  0  0  0  0  0  0  0  0  0  0
    1.1108    1.6494   -6.3089 H   0  0  0  0  0  0  0  0  0  0  0  0
   -0.5593    0.9883   -6.3088 H   0  0  0  0  0  0  0  0  0  0  0  0
   -0.2438    2.6314   -6.9623 H   0  0  0  0  0  0  0  0  0  0  0  0
  1  3  1  0  0  0  0
  1  7  1  0  0  0  0
  1  2  2  0  0  0  0
 29 30  1  0  0  0  0
 30 38  1  0  0  0  0
 30 31  2  0  0  0  0
  8  9  1  0  0  0  0
  9 17  1  0  0  0  0
  9 10  2  0  0  0  0
 18 19  1  0  0  0  0
 19 28  1  0  0  0  0
 19 20  2  0  0  0  0
 29 32  1  0  0  0  0
  8 11  1  0  0  0  0
 38 39  1  0  0  0  0
 18 21  1  0  0  0  0
 21 22  1  0  0  0  0
 28 29  1  0  0  0  0
  7  8  1  0  0  0  0
 17 18  1  0  0  0  0
  3  4  1  0  0  0  0
  3  5  1  0  0  0  0
  3  6  1  0  0  0  0
 32 35  1  0  0  0  0
 32 36  1  0  0  0  0
 32 37  1  0  0  0  0
 11 14  1  0  0  0  0
 11 15  1  0  0  0  0
 11 16  1  0  0  0  0
 39 41  1  0  0  0  0
 39 42  1  0  0  0  0
 39 43  1  0  0  0  0
 21 25  1  0  0  0  0
 21 26  1  0  0  0  0
 29 34  1  0  0  0  0
  8 13  1  0  0  0  0
 18 24  1  0  0  0  0
 38 40  1  0  0  0  0
  7 12  1  0  0  0  0
 28 33  1  0  0  0  0
 17 23  1  0  0  0  0
 22 27  1  0  0  0  0
M  END
$$$$

  -OEChem-05262214473D

 43 42  0     1  0  0  0  0  0999 V2000
    0.7424   -1.0926    4.5665 C   0  0  0  0  0  0  0  0  0  0  0  0
    0.1409   -0.5364    5.4779 O   0  0  0  0  0  0  0  0  0  0  0  0
    1.7940   -2.1023    4.8871 C   0  0  0  0  0  0  0  0  0  0  0  0
    2.7935   -1.6502    4.9904 H   0  0  0  0  0  0  0  0  0  0  0  0
    1.6064   -2.6156    5.8438 H   0  0  0  0  0  0  0  0  0  0  0  0
    1.9156   -2.9078    4.1453 H   0  0  0  0  0  0  0  0  0  0  0  0
    0.5488   -0.8838    3.2109 N   0  0  0  0  0  0  0  0  0  0  0  0
   -0.4159    0.0446    2.6829 C   0  0  2  0  0  0  0  0  0  0  0  0
   -0.7551   -0.3867    1.2623 C   0  0  0  0  0  0  0  0  0  0  0  0
   -0.0106   -1.0851    0.5774 O   0  0  0  0  0  0  0  0  0  0  0  0
    0.1168    1.4689    2.7060 C   0  0  0  0  0  0  0  0  0  0  0  0
    1.1183   -1.4145    2.5542 H   0  0  0  0  0  0  0  0  0  0  0  0
   -1.3088   -0.0350    3.3125 H   0  0  0  0  0  0  0  0  0  0  0  0
    1.0116    1.5681    2.0808 H   0  0  0  0  0  0  0  0  0  0  0  0
   -0.6289    2.1775    2.3307 H   0  0  0  0  0  0  0  0  0  0  0  0
    0.3882    1.7670    3.7245 H   0  0  0  0  0  0  0  0  0  0  0  0
   -1.9689    0.1350    0.8298 N   0  0  0  0  0  0  0  0  0  0  0  0
   -2.5039   -0.1183   -0.4830 C   0  0  2  0  0  0  0  0  0  0  0  0
   -1.5100    0.4077   -1.5127 C   0  0  0  0  0  0  0  0  0  0  0  0
   -1.0046   -0.3023   -2.3796 O   0  0  0  0  0  0  0  0  0  0  0  0
   -3.8874    0.4998   -0.6576 C   0  0  0  0  0  0  0  0  0  0  0  0
   -3.8019    1.9196   -0.6130 O   0  0  0  0  0  0  0  0  0  0  0  0
   -2.5276    0.6894    1.4750 H   0  0  0  0  0  0  0  0  0  0  0  0
   -2.5740   -1.2076   -0.5825 H   0  0  0  0  0  0  0  0  0  0  0  0
   -4.5662    0.1756    0.1377 H   0  0  0  0  0  0  0  0  0  0  0  0
   -4.3172    0.2150   -1.6238 H   0  0  0  0  0  0  0  0  0  0  0  0
   -3.2166    2.1862   -1.3397 H   0  0  0  0  0  0  0  0  0  0  0  0
   -1.2881    1.7707   -1.3755 N   0  0  0  0  0  0  0  0  0  0  0  0
   -0.4105    2.5125   -2.2508 C   0  0  2  0  0  0  0  0  0  0  0  0
   -0.5028    1.8973   -3.6409 C   0  0  0  0  0  0  0  0  0  0  0  0
   -0.8753    0.7429   -3.8402 O   0  0  0  0  0  0  0  0  0  0  0  0
    1.0227    2.4943   -1.7424 C   0  0  0  0  0  0  0  0  0  0  0  0
   -1.7814    2.2866   -0.6529 H   0  0  0  0  0  0  0  0  0  0  0  0
   -0.7879    3.5405   -2.2799 H   0  0  0  0  0  0  0  0  0  0  0  0
    1.4180    1.4726   -1.7063 H   0  0  0  0  0  0  0  0  0  0  0  0
    1.6814    3.0808   -2.3914 H   0  0  0  0  0  0  0  0  0  0  0  0
    1.0826    2.9098   -0.7307 H   0  0  0  0  0  0  0  0  0  0  0  0
   -0.0794    2.7749   -4.6292 N   0  0  0  0  0  0  0  0  0  0  0  0
   -0.0602    2.4217   -6.0295 C   0  0  0  0  0  0  0  0  0  0  0  0
    0.1947    3.7193   -4.3748 H   0  0  0  0  0  0  0  0  0  0  0  0
    0.9297    2.0214   -6.2937 H   0  0  0  0  0  0  0  0  0  0  0  0
   -0.8283    1.6592   -6.2257 H   0  0  0  0  0  0  0  0  0  0  0  0
   -0.2678    3.3158   -6.6358 H   0  0  0  0  0  0  0  0  0  0  0  0
  1  3  1  0  0  0  0
  1  7  1  0  0  0  0
  1  2  2  0  0  0  0
 29 30  1  0  0  0  0
 30 38  1  0  0  0  0
 30 31  2  0  0  0  0
  8  9  1  0  0  0  0
  9 17  1  0  0  0  0
  9 10  2  0  0  0  0
 18 19  1  0  0  0  0
 19 28  1  0  0  0  0
 19 20  2  0  0  0  0
 29 32  1  0  0  0  0
  8 11  1  0  0  0  0
 38 39  1  0  0  0  0
 18 21  1  0  0  0  0
 21 22  1  0  0  0  0
 28 29  1  0  0  0  0
  7  8  1  0  0  0  0
 17 18  1  0  0  0  0
  3  4  1  0  0  0  0
  3  5  1  0  0  0  0
  3  6  1  0  0  0  0
 32 35  1  0  0  0  0
 32 36  1  0  0  0  0
 32 37  1  0  0  0  0
 11 14  1  0  0  0  0
 11 15  1  0  0  0  0
 11 16  1  0  0  0  0
 39 41  1  0  0  0  0
 39 42  1  0  0  0  0
 39 43  1  0  0  0  0
 21 25  1  0  0  0  0
 21 26  1  0  0  0  0
 29 34  1  0  0  0  0
  8 13  1  0  0  0  0
 18 24  1  0  0  0  0
 38 40  1  0  0  0  0
  7 12  1  0  0  0  0
 28 33  1  0  0  0  0
 17 23  1  0  0  0  0
 22 27  1  0  0  0  0
M  END
$$$$

  -OEChem-05262214473D

 43 42  0     1  0  0  0  0  0999 V2000
    0.7424   -1.0926    4.5665 C   0  0  0  0  0  0  0  0  0  0  0  0
    0.1409   -0.5364    5.4779 O   0  0  0  0  0  0  0  0  0  0  0  0
    1.7940   -2.1023    4.8871 C   0  0  0  0  0  0  0  0  0  0  0  0
    2.7935   -1.6502    4.9904 H   0  0  0  0  0  0  0  0  0  0  0  0
    1.6064   -2.6156    5.8438 H   0  0  0  0  0  0  0  0  0  0  0  0
    1.9156   -2.9078    4.1453 H   0  0  0  0  0  0  0  0  0  0  0  0
    0.5488   -0.8838    3.2109 N   0  0  0  0  0  0  0  0  0  0  0  0
   -0.4159    0.0446    2.6829 C   0  0  2  0  0  0  0  0  0  0  0  0
   -0.7551   -0.3867    1.2623 C   0  0  0  0  0  0  0  0  0  0  0  0
   -0.0106   -1.0851    0.5774 O   0  0  0  0  0  0  0  0  0  0  0  0
    0.1168    1.4689    2.7060 C   0  0  0  0  0  0  0  0  0  0  0  0
    1.1183   -1.4145    2.5542 H   0  0  0  0  0  0  0  0  0  0  0  0
   -1.3088   -0.0350    3.3125 H   0  0  0  0  0  0  0  0  0  0  0  0
    1.0116    1.5681    2.0808 H   0  0  0  0  0  0  0  0  0  0  0  0
   -0.6289    2.1775    2.3307 H   0  0  0  0  0  0  0  0  0  0  0  0
    0.3882    1.7670    3.7245 H   0  0  0  0  0  0  0  0  0  0  0  0
   -1.9689    0.1350    0.8298 N   0  0  0  0  0  0  0  0  0  0  0  0
   -2.5039   -0.1183   -0.4830 C   0  0  2  0  0  0  0  0  0  0  0  0
   -1.5100    0.4077   -1.5127 C   0  0  0  0  0  0  0  0  0  0  0  0
   -1.2084   -0.2123   -2.5304 O   0  0  0  0  0  0  0  0  0  0  0  0
   -3.8874    0.4998   -0.6576 C   0  0  0  0  0  0  0  0  0  0  0  0
   -3.8019    1.9196   -0.6130 O   0  0  0  0  0  0  0  0  0  0  0  0
   -2.5276    0.6894    1.4750 H   0  0  0  0  0  0  0  0  0  0  0  0
   -2.5740   -1.2076   -0.5825 H   0  0  0  0  0  0  0  0  0  0  0  0
   -4.5662    0.1756    0.1377 H   0  0  0  0  0  0  0  0  0  0  0  0
   -4.3172    0.2150   -1.6238 H   0  0  0  0  0  0  0  0  0  0  0  0
   -3.2166    2.1862   -1.3397 H   0  0  0  0  0  0  0  0  0  0  0  0
   -1.0336    1.6685   -1.1821 N   0  0  0  0  0  0  0  0  0  0  0  0
   -0.1029    2.3960   -2.0134 C   0  0  2  0  0  0  0  0  0  0  0  0
   -0.4089    2.0602   -3.4670 C   0  0  0  0  0  0  0  0  0  0  0  0
   -0.9995    1.0379   -3.8093 O   0  0  0  0  0  0  0  0  0  0  0  0
    1.3367    2.0490   -1.6668 C   0  0  0  0  0  0  0  0  0  0  0  0
   -1.3694    2.1237   -0.3384 H   0  0  0  0  0  0  0  0  0  0  0  0
   -0.2875    3.4613   -1.8373 H   0  0  0  0  0  0  0  0  0  0  0  0
    1.5405    0.9855   -1.8368 H   0  0  0  0  0  0  0  0  0  0  0  0
    2.0412    2.6224   -2.2782 H   0  0  0  0  0  0  0  0  0  0  0  0
    1.5464    2.2633   -0.6133 H   0  0  0  0  0  0  0  0  0  0  0  0
    0.0930    3.0153   -4.3400 N   0  0  0  0  0  0  0  0  0  0  0  0
   -0.0568    2.9169   -5.7732 C   0  0  0  0  0  0  0  0  0  0  0  0
    0.5529    3.8406   -3.9671 H   0  0  0  0  0  0  0  0  0  0  0  0
    0.8211    2.4098   -6.2001 H   0  0  0  0  0  0  0  0  0  0  0  0
   -0.9635    2.3403   -6.0082 H   0  0  0  0  0  0  0  0  0  0  0  0
   -0.1422    3.9259   -6.2029 H   0  0  0  0  0  0  0  0  0  0  0  0
  1  3  1  0  0  0  0
  1  7  1  0  0  0  0
  1  2  2  0  0  0  0
 29 30  1  0  0  0  0
 30 38  1  0  0  0  0
 30 31  2  0  0  0  0
  8  9  1  0  0  0  0
  9 17  1  0  0  0  0
  9 10  2  0  0  0  0
 18 19  1  0  0  0  0
 19 28  1  0  0  0  0
 19 20  2  0  0  0  0
 29 32  1  0  0  0  0
  8 11  1  0  0  0  0
 38 39  1  0  0  0  0
 18 21  1  0  0  0  0
 21 22  1  0  0  0  0
 28 29  1  0  0  0  0
  7  8  1  0  0  0  0
 17 18  1  0  0  0  0
  3  4  1  0  0  0  0
  3  5  1  0  0  0  0
  3  6  1  0  0  0  0
 32 35  1  0  0  0  0
 32 36  1  0  0  0  0
 32 37  1  0  0  0  0
 11 14  1  0  0  0  0
 11 15  1  0  0  0  0
 11 16  1  0  0  0  0
 39 41  1  0  0  0  0
 39 42  1  0  0  0  0
 39 43  1  0  0  0  0
 21 25  1  0  0  0  0
 21 26  1  0  0  0  0
 29 34  1  0  0  0  0
  8 13  1  0  0  0  0
 18 24  1  0  0  0  0
 38 40  1  0  0  0  0
  7 12  1  0  0  0  0
 28 33  1  0  0  0  0
 17 23  1  0  0  0  0
 22 27  1  0  0  0  0
M  END
$$$$

  -OEChem-05262214473D

 43 42  0     1  0  0  0  0  0999 V2000
    0.7424   -1.0926    4.5665 C   0  0  0  0  0  0  0  0  0  0  0  0
    0.1409   -0.5364    5.4779 O   0  0  0  0  0  0  0  0  0  0  0  0
    1.7940   -2.1023    4.8871 C   0  0  0  0  0  0  0  0  0  0  0  0
    2.7935   -1.6502    4.9904 H   0  0  0  0  0  0  0  0  0  0  0  0
    1.6064   -2.6156    5.8438 H   0  0  0  0  0  0  0  0  0  0  0  0
    1.9156   -2.9078    4.1453 H   0  0  0  0  0  0  0  0  0  0  0  0
    0.5488   -0.8838    3.2109 N   0  0  0  0  0  0  0  0  0  0  0  0
   -0.4159    0.0446    2.6829 C   0  0  2  0  0  0  0  0  0  0  0  0
   -0.7551   -0.3867    1.2623 C   0  0  0  0  0  0  0  0  0  0  0  0
   -0.0106   -1.0851    0.5774 O   0  0  0  0  0  0  0  0  0  0  0  0
    0.1168    1.4689    2.7060 C   0  0  0  0  0  0  0  0  0  0  0  0
    1.1183   -1.4145    2.5542 H   0  0  0  0  0  0  0  0  0  0  0  0
   -1.3088   -0.0350    3.3125 H   0  0  0  0  0  0  0  0  0  0  0  0
    1.0116    1.5681    2.0808 H   0  0  0  0  0  0  0  0  0  0  0  0
   -0.6289    2.1775    2.3307 H   0  0  0  0  0  0  0  0  0  0  0  0
    0.3882    1.7670    3.7245 H   0  0  0  0  0  0  0  0  0  0  0  0
   -1.9689    0.1350    0.8298 N   0  0  0  0  0  0  0  0  0  0  0  0
   -2.5039   -0.1183   -0.4830 C   0  0  2  0  0  0  0  0  0  0  0  0
   -1.5100    0.4077   -1.5127 C   0  0  0  0  0  0  0  0  0  0  0  0
   -1.4031   -0.0643   -2.6427 O   0  0  0  0  0  0  0  0  0  0  0  0
   -3.8874    0.4998   -0.6576 C   0  0  0  0  0  0  0  0  0  0  0  0
   -3.8019    1.9196   -0.6130 O   0  0  0  0  0  0  0  0  0  0  0  0
   -2.5276    0.6894    1.4750 H   0  0  0  0  0  0  0  0  0  0  0  0
   -2.5740   -1.2076   -0.5825 H   0  0  0  0  0  0  0  0  0  0  0  0
   -4.5662    0.1756    0.1377 H   0  0  0  0  0  0  0  0  0  0  0  0
   -4.3172    0.2150   -1.6238 H   0  0  0  0  0  0  0  0  0  0  0  0
   -3.2166    2.1862   -1.3397 H   0  0  0  0  0  0  0  0  0  0  0  0
   -0.7883    1.4926   -1.0352 N   0  0  0  0  0  0  0  0  0  0  0  0
    0.1951    2.1896   -1.8312 C   0  0  2  0  0  0  0  0  0  0  0  0
   -0.2742    2.1719   -3.2799 C   0  0  0  0  0  0  0  0  0  0  0  0
   -1.0651    1.3394   -3.7187 O   0  0  0  0  0  0  0  0  0  0  0  0
    1.5689    1.5512   -1.6970 C   0  0  0  0  0  0  0  0  0  0  0  0
   -0.9719    1.8412   -0.0990 H   0  0  0  0  0  0  0  0  0  0  0  0
    0.2216    3.2227   -1.4678 H   0  0  0  0  0  0  0  0  0  0  0  0
    1.5621    0.5156   -2.0561 H   0  0  0  0  0  0  0  0  0  0  0  0
    2.3188    2.0977   -2.2783 H   0  0  0  0  0  0  0  0  0  0  0  0
    1.8919    1.5379   -0.6504 H   0  0  0  0  0  0  0  0  0  0  0  0
    0.3272    3.1686   -4.0356 N   0  0  0  0  0  0  0  0  0  0  0  0
    0.0560    3.3513   -5.4423 C   0  0  0  0  0  0  0  0  0  0  0  0
    0.9564    3.8264   -3.5848 H   0  0  0  0  0  0  0  0  0  0  0  0
    0.7924    2.7881   -6.0345 H   0  0  0  0  0  0  0  0  0  0  0  0
   -0.9556    2.9851   -5.6712 H   0  0  0  0  0  0  0  0  0  0  0  0
    0.1244    4.4202   -5.6930 H   0  0  0  0  0  0  0  0  0  0  0  0
  1  3  1  0  0  0  0
  1  7  1  0  0  0  0
  1  2  2  0  0  0  0
 29 30  1  0  0  0  0
 30 38  1  0  0  0  0
 30 31  2  0  0  0  0
  8  9  1  0  0  0  0
  9 17  1  0  0  0  0
  9 10  2  0  0  0  0
 18 19  1  0  0  0  0
 19 28  1  0  0  0  0
 19 20  2  0  0  0  0
 29 32  1  0  0  0  0
  8 11  1  0  0  0  0
 38 39  1  0  0  0  0
 18 21  1  0  0  0  0
 21 22  1  0  0  0  0
 28 29  1  0  0  0  0
  7  8  1  0  0  0  0
 17 18  1  0  0  0  0
  3  4  1  0  0  0  0
  3  5  1  0  0  0  0
  3  6  1  0  0  0  0
 32 35  1  0  0  0  0
 32 36  1  0  0  0  0
 32 37  1  0  0  0  0
 11 14  1  0  0  0  0
 11 15  1  0  0  0  0
 11 16  1  0  0  0  0
 39 41  1  0  0  0  0
 39 42  1  0  0  0  0
 39 43  1  0  0  0  0
 21 25  1  0  0  0  0
 21 26  1  0  0  0  0
 29 34  1  0  0  0  0
  8 13  1  0  0  0  0
 18 24  1  0  0  0  0
 38 40  1  0  0  0  0
  7 12  1  0  0  0  0
 28 33  1  0  0  0  0
 17 23  1  0  0  0  0
 22 27  1  0  0  0  0
M  END
$$$$

  -OEChem-05262214473D

 43 42  0     1  0  0  0  0  0999 V2000
    0.7424   -1.0926    4.5665 C   0  0  0  0  0  0  0  0  0  0  0  0
    0.1409   -0.5364    5.4779 O   0  0  0  0  0  0  0  0  0  0  0  0
    1.7940   -2.1023    4.8871 C   0  0  0  0  0  0  0  0  0  0  0  0
    2.7935   -1.6502    4.9904 H   0  0  0  0  0  0  0  0  0  0  0  0
    1.6064   -2.6156    5.8438 H   0  0  0  0  0  0  0  0  0  0  0  0
    1.9156   -2.9078    4.1453 H   0  0  0  0  0  0  0  0  0  0  0  0
    0.5488   -0.8838    3.2109 N   0  0  0  0  0  0  0  0  0  0  0  0
   -0.4159    0.0446    2.6829 C   0  0  2  0  0  0  0  0  0  0  0  0
   -0.7551   -0.3867    1.2623 C   0  0  0  0  0  0  0  0  0  0  0  0
   -0.0106   -1.0851    0.5774 O   0  0  0  0  0  0  0  0  0  0  0  0
    0.1168    1.4689    2.7060 C   0  0  0  0  0  0  0  0  0  0  0  0
    1.1183   -1.4145    2.5542 H   0  0  0  0  0  0  0  0  0  0  0  0
   -1.3088   -0.0350    3.3125 H   0  0  0  0  0  0  0  0  0  0  0  0
    1.0116    1.5681    2.0808 H   0  0  0  0  0  0  0  0  0  0  0  0
   -0.6289    2.1775    2.3307 H   0  0  0  0  0  0  0  0  0  0  0  0
    0.3882    1.7670    3.7245 H   0  0  0  0  0  0  0  0  0  0  0  0
   -1.9689    0.1350    0.8298 N   0  0  0  0  0  0  0  0  0  0  0  0
   -2.5039   -0.1183   -0.4830 C   0  0  2  0  0  0  0  0  0  0  0  0
   -1.5100    0.4077   -1.5127 C   0  0  0  0  0  0  0  0  0  0  0  0
   -1.5753    0.1316   -2.7088 O   0  0  0  0  0  0  0  0  0  0  0  0
   -3.8874    0.4998   -0.6576 C   0  0  0  0  0  0  0  0  0  0  0  0
   -3.8019    1.9196   -0.6130 O   0  0  0  0  0  0  0  0  0  0  0  0
   -2.5276    0.6894    1.4750 H   0  0  0  0  0  0  0  0  0  0  0  0
   -2.5740   -1.2076   -0.5825 H   0  0  0  0  0  0  0  0  0  0  0  0
   -4.5662    0.1756    0.1377 H   0  0  0  0  0  0  0  0  0  0  0  0
   -4.3172    0.2150   -1.6238 H   0  0  0  0  0  0  0  0  0  0  0  0
   -3.2166    2.1862   -1.3397 H   0  0  0  0  0  0  0  0  0  0  0  0
   -0.5691    1.2551   -0.9449 N   0  0  0  0  0  0  0  0  0  0  0  0
    0.4631    1.9074   -1.7166 C   0  0  2  0  0  0  0  0  0  0  0  0
   -0.1078    2.2246   -3.0925 C   0  0  0  0  0  0  0  0  0  0  0  0
   -1.0677    1.6268   -3.5744 O   0  0  0  0  0  0  0  0  0  0  0  0
    1.7035    1.0349   -1.8308 C   0  0  0  0  0  0  0  0  0  0  0  0
   -0.6158    1.4585    0.0491 H   0  0  0  0  0  0  0  0  0  0  0  0
    0.7046    2.8409   -1.1967 H   0  0  0  0  0  0  0  0  0  0  0  0
    1.4812    0.0950   -2.3491 H   0  0  0  0  0  0  0  0  0  0  0  0
    2.4953    1.5423   -2.3918 H   0  0  0  0  0  0  0  0  0  0  0  0
    2.0955    0.7831   -0.8395 H   0  0  0  0  0  0  0  0  0  0  0  0
    0.6075    3.2243   -3.7365 N   0  0  0  0  0  0  0  0  0  0  0  0
    0.2704    3.6954   -5.0596 C   0  0  0  0  0  0  0  0  0  0  0  0
    1.3779    3.6776   -3.2540 H   0  0  0  0  0  0  0  0  0  0  0  0
    0.8456    3.1307   -5.8081 H   0  0  0  0  0  0  0  0  0  0  0  0
   -0.8052    3.5497   -5.2376 H   0  0  0  0  0  0  0  0  0  0  0  0
    0.5139    4.7651   -5.1409 H   0  0  0  0  0  0  0  0  0  0  0  0
  1  3  1  0  0  0  0
  1  7  1  0  0  0  0
  1  2  2  0  0  0  0
 29 30  1  0  0  0  0
 30 38  1  0  0  0  0
 30 31  2  0  0  0  0
  8  9  1  0  0  0  0
  9 17  1  0  0  0  0
  9 10  2  0  0  0  0
 18 19  1  0  0  0  0
 19 28  1  0  0  0  0
 19 20  2  0  0  0  0
 29 32  1  0  0  0  0
  8 11  1  0  0  0  0
 38 39  1  0  0  0  0
 18 21  1  0  0  0  0
 21 22  1  0  0  0  0
 28 29  1  0  0  0  0
  7  8  1  0  0  0  0
 17 18  1  0  0  0  0
  3  4  1  0  0  0  0
  3  5  1  0  0  0  0
  3  6  1  0  0  0  0
 32 35  1  0  0  0  0
 32 36  1  0  0  0  0
 32 37  1  0  0  0  0
 11 14  1  0  0  0  0
 11 15  1  0  0  0  0
 11 16  1  0  0  0  0
 39 41  1  0  0  0  0
 39 42  1  0  0  0  0
 39 43  1  0  0  0  0
 21 25  1  0  0  0  0
 21 26  1  0  0  0  0
 29 34  1  0  0  0  0
  8 13  1  0  0  0  0
 18 24  1  0  0  0  0
 38 40  1  0  0  0  0
  7 12  1  0  0  0  0
 28 33  1  0  0  0  0
 17 23  1  0  0  0  0
 22 27  1  0  0  0  0
M  END
$$$$

  -OEChem-05262214473D

 43 42  0     1  0  0  0  0  0999 V2000
    0.7424   -1.0926    4.5665 C   0  0  0  0  0  0  0  0  0  0  0  0
    0.1409   -0.5364    5.4779 O   0  0  0  0  0  0  0  0  0  0  0  0
    1.7940   -2.1023    4.8871 C   0  0  0  0  0  0  0  0  0  0  0  0
    2.7935   -1.6502    4.9904 H   0  0  0  0  0  0  0  0  0  0  0  0
    1.6064   -2.6156    5.8438 H   0  0  0  0  0  0  0  0  0  0  0  0
    1.9156   -2.9078    4.1453 H   0  0  0  0  0  0  0  0  0  0  0  0
    0.5488   -0.8838    3.2109 N   0  0  0  0  0  0  0  0  0  0  0  0
   -0.4159    0.0446    2.6829 C   0  0  2  0  0  0  0  0  0  0  0  0
   -0.7551   -0.3867    1.2623 C   0  0  0  0  0  0  0  0  0  0  0  0
   -0.0106   -1.0851    0.5774 O   0  0  0  0  0  0  0  0  0  0  0  0
    0.1168    1.4689    2.7060 C   0  0  0  0  0  0  0  0  0  0  0  0
    1.1183   -1.4145    2.5542 H   0  0  0  0  0  0  0  0  0  0  0  0
   -1.3088   -0.0350    3.3125 H   0  0  0  0  0  0  0  0  0  0  0  0
    1.0116    1.5681    2.0808 H   0  0  0  0  0  0  0  0  0  0  0  0
   -0.6289    2.1775    2.3307 H   0  0  0  0  0  0  0  0  0  0  0  0
    0.3882    1.7670    3.7245 H   0  0  0  0  0  0  0  0  0  0  0  0
   -1.9689    0.1350    0.8298 N   0  0  0  0  0  0  0  0  0  0  0  0
   -2.5039   -0.1183   -0.4830 C   0  0  2  0  0  0  0  0  0  0  0  0
   -1.5100    0.4077   -1.5127 C   0  0  0  0  0  0  0  0  0  0  0  0
   -1.7132    0.3621   -2.7242 O   0  0  0  0  0  0  0  0  0  0  0  0
   -3.8874    0.4998   -0.6576 C   0  0  0  0  0  0  0  0  0  0  0  0
   -3.8019    1.9196   -0.6130 O   0  0  0  0  0  0  0  0  0  0  0  0
   -2.5276    0.6894    1.4750 H   0  0  0  0  0  0  0  0  0  0  0  0
   -2.5740   -1.2076   -0.5825 H   0  0  0  0  0  0  0  0  0  0  0  0
   -4.5662    0.1756    0.1377 H   0  0  0  0  0  0  0  0  0  0  0  0
   -4.3172    0.2150   -1.6238 H   0  0  0  0  0  0  0  0  0  0  0  0
   -3.2166    2.1862   -1.3397 H   0  0  0  0  0  0  0  0  0  0  0  0
   -0.3907    0.9721   -0.9173 N   0  0  0  0  0  0  0  0  0  0  0  0
    0.6829    1.5686   -1.6775 C   0  0  2  0  0  0  0  0  0  0  0  0
    0.0788    2.2147   -2.9173 C   0  0  0  0  0  0  0  0  0  0  0  0
   -1.0072    1.8805   -3.3863 O   0  0  0  0  0  0  0  0  0  0  0  0
    1.7313    0.5352   -2.0592 C   0  0  0  0  0  0  0  0  0  0  0  0
   -0.3256    1.0017    0.0959 H   0  0  0  0  0  0  0  0  0  0  0  0
    1.1286    2.3419   -1.0423 H   0  0  0  0  0  0  0  0  0  0  0  0
    1.3034   -0.2478   -2.6958 H   0  0  0  0  0  0  0  0  0  0  0  0
    2.5585    0.9942   -2.6108 H   0  0  0  0  0  0  0  0  0  0  0  0
    2.1434    0.0504   -1.1677 H   0  0  0  0  0  0  0  0  0  0  0  0
    0.9147    3.1788   -3.4633 N   0  0  0  0  0  0  0  0  0  0  0  0
    0.5719    3.9257   -4.6510 C   0  0  0  0  0  0  0  0  0  0  0  0
    1.7885    3.4044   -2.9972 H   0  0  0  0  0  0  0  0  0  0  0  0
    0.9772    3.4140   -5.5364 H   0  0  0  0  0  0  0  0  0  0  0  0
   -0.5225    3.9956   -4.7369 H   0  0  0  0  0  0  0  0  0  0  0  0
    0.9997    4.9369   -4.5842 H   0  0  0  0  0  0  0  0  0  0  0  0
  1  3  1  0  0  0  0
  1  7  1  0  0  0  0
  1  2  2  0  0  0  0
 29 30  1  0  0  0  0
 30 38  1  0  0  0  0
 30 31  2  0  0  0  0
  8  9  1  0  0  0  0
  9 17  1  0  0  0  0
  9 10  2  0  0  0  0
 18 19  1  0  0  0  0
 19 28  1  0  0  0  0
 19 20  2  0  0  0  0
 29 32  1  0  0  0  0
  8 11  1  0  0  0  0
 38 39  1  0  0  0  0
 18 21  1  0  0  0  0
 21 22  1  0  0  0  0
 28 29  1  0  0  0  0
  7  8  1  0  0  0  0
 17 18  1  0  0  0  0
  3  4  1  0  0  0  0
  3  5  1  0  0  0  0
  3  6  1  0  0  0  0
 32 35  1  0  0  0  0
 32 36  1  0  0  0  0
 32 37  1  0  0  0  0
 11 14  1  0  0  0  0
 11 15  1  0  0  0  0
 11 16  1  0  0  0  0
 39 41  1  0  0  0  0
 39 42  1  0  0  0  0
 39 43  1  0  0  0  0
 21 25  1  0  0  0  0
 21 26  1  0  0  0  0
 29 34  1  0  0  0  0
  8 13  1  0  0  0  0
 18 24  1  0  0  0  0
 38 40  1  0  0  0  0
  7 12  1  0  0  0  0
 28 33  1  0  0  0  0
 17 23  1  0  0  0  0
 22 27  1  0  0  0  0
M  END
$$$$

  -OEChem-05262214473D

 43 42  0     1  0  0  0  0  0999 V2000
    0.7424   -1.0926    4.5665 C   0  0  0  0  0  0  0  0  0  0  0  0
    0.1409   -0.5364    5.4779 O   0  0  0  0  0  0  0  0  0  0  0  0
    1.7940   -2.1023    4.8871 C   0  0  0  0  0  0  0  0  0  0  0  0
    2.7935   -1.6502    4.9904 H   0  0  0  0  0  0  0  0  0  0  0  0
    1.6064   -2.6156    5.8438 H   0  0  0  0  0  0  0  0  0  0  0  0
    1.9156   -2.9078    4.1453 H   0  0  0  0  0  0  0  0  0  0  0  0
    0.5488   -0.8838    3.2109 N   0  0  0  0  0  0  0  0  0  0  0  0
   -0.4159    0.0446    2.6829 C   0  0  2  0  0  0  0  0  0  0  0  0
   -0.7551   -0.3867    1.2623 C   0  0  0  0  0  0  0  0  0  0  0  0
   -0.0106   -1.0851    0.5774 O   0  0  0  0  0  0  0  0  0  0  0  0
    0.1168    1.4689    2.7060 C   0  0  0  0  0  0  0  0  0  0  0  0
    1.1183   -1.4145    2.5542 H   0  0  0  0  0  0  0  0  0  0  0  0
   -1.3088   -0.0350    3.3125 H   0  0  0  0  0  0  0  0  0  0  0  0
    1.0116    1.5681    2.0808 H   0  0  0  0  0  0  0  0  0  0  0  0
   -0.6289    2.1775    2.3307 H   0  0  0  0  0  0  0  0  0  0  0  0
    0.3882    1.7670    3.7245 H   0  0  0  0  0  0  0  0  0  0  0  0
   -1.9689    0.1350    0.8298 N   0  0  0  0  0  0  0  0  0  0  0  0
   -2.5039   -0.1183   -0.4830 C   0  0  2  0  0  0  0  0  0  0  0  0
   -1.5100    0.4077   -1.5127 C   0  0  0  0  0  0  0  0  0  0  0  0
   -1.8076    0.6115   -2.6879 O   0  0  0  0  0  0  0  0  0  0  0  0
   -3.8874    0.4998   -0.6576 C   0  0  0  0  0  0  0  0  0  0  0  0
   -3.8019    1.9196   -0.6130 O   0  0  0  0  0  0  0  0  0  0  0  0
   -2.5276    0.6894    1.4750 H   0  0  0  0  0  0  0  0  0  0  0  0
   -2.5740   -1.2076   -0.5825 H   0  0  0  0  0  0  0  0  0  0  0  0
   -4.5662    0.1756    0.1377 H   0  0  0  0  0  0  0  0  0  0  0  0
   -4.3172    0.2150   -1.6238 H   0  0  0  0  0  0  0  0  0  0  0  0
   -3.2166    2.1862   -1.3397 H   0  0  0  0  0  0  0  0  0  0  0  0
   -0.2654    0.6629   -0.9543 N   0  0  0  0  0  0  0  0  0  0  0  0
    0.8395    1.1964   -1.7165 C   0  0  2  0  0  0  0  0  0  0  0  0
    0.2730    2.1431   -2.7665 C   0  0  0  0  0  0  0  0  0  0  0  0
   -0.8875    2.0832   -3.1673 O   0  0  0  0  0  0  0  0  0  0  0  0
    1.6504    0.0862   -2.3667 C   0  0  0  0  0  0  0  0  0  0  0  0
   -0.1209    0.5017    0.0380 H   0  0  0  0  0  0  0  0  0  0  0  0
    1.4647    1.7598   -1.0153 H   0  0  0  0  0  0  0  0  0  0  0  0
    1.0407   -0.4893   -3.0727 H   0  0  0  0  0  0  0  0  0  0  0  0
    2.5042    0.4906   -2.9205 H   0  0  0  0  0  0  0  0  0  0  0  0
    2.0322   -0.6104   -1.6125 H   0  0  0  0  0  0  0  0  0  0  0  0
    1.2278    3.0349   -3.2346 N   0  0  0  0  0  0  0  0  0  0  0  0
    0.9398    4.0266   -4.2443 C   0  0  0  0  0  0  0  0  0  0  0  0
    2.1603    3.0255   -2.8319 H   0  0  0  0  0  0  0  0  0  0  0  0
    1.1780    3.6189   -5.2378 H   0  0  0  0  0  0  0  0  0  0  0  0
   -0.1268    4.2924   -4.2033 H   0  0  0  0  0  0  0  0  0  0  0  0
    1.5487    4.9241   -4.0608 H   0  0  0  0  0  0  0  0  0  0  0  0
  1  3  1  0  0  0  0
  1  7  1  0  0  0  0
  1  2  2  0  0  0  0
 29 30  1  0  0  0  0
 30 38  1  0  0  0  0
 30 31  2  0  0  0  0
  8  9  1  0  0  0  0
  9 17  1  0  0  0  0
  9 10  2  0  0  0  0
 18 19  1  0  0  0  0
 19 28  1  0  0  0  0
 19 20  2  0  0  0  0
 29 32  1  0  0  0  0
  8 11  1  0  0  0  0
 38 39  1  0  0  0  0
 18 21  1  0  0  0  0
 21 22  1  0  0  0  0
 28 29  1  0  0  0  0
  7  8  1  0  0  0  0
 17 18  1  0  0  0  0
  3  4  1  0  0  0  0
  3  5  1  0  0  0  0
  3  6  1  0  0  0  0
 32 35  1  0  0  0  0
 32 36  1  0  0  0  0
 32 37  1  0  0  0  0
 11 14  1  0  0  0  0
 11 15  1  0  0  0  0
 11 16  1  0  0  0  0
 39 41  1  0  0  0  0
 39 42  1  0  0  0  0
 39 43  1  0  0  0  0
 21 25  1  0  0  0  0
 21 26  1  0  0  0  0
 29 34  1  0  0  0  0
  8 13  1  0  0  0  0
 18 24  1  0  0  0  0
 38 40  1  0  0  0  0
  7 12  1  0  0  0  0
 28 33  1  0  0  0  0
 17 23  1  0  0  0  0
 22 27  1  0  0  0  0
M  END
$$$$

  -OEChem-05262214473D

 43 42  0     1  0  0  0  0  0999 V2000
    0.7424   -1.0926    4.5665 C   0  0  0  0  0  0  0  0  0  0  0  0
    0.1409   -0.5364    5.4779 O   0  0  0  0  0  0  0  0  0  0  0  0
    1.7940   -2.1023    4.8871 C   0  0  0  0  0  0  0  0  0  0  0  0
    2.7935   -1.6502    4.9904 H   0  0  0  0  0  0  0  0  0  0  0  0
    1.6064   -2.6156    5.8438 H   0  0  0  0  0  0  0  0  0  0  0  0
    1.9156   -2.9078    4.1453 H   0  0  0  0  0  0  0  0  0  0  0  0
    0.5488   -0.8838    3.2109 N   0  0  0  0  0  0  0  0  0  0  0  0
   -0.4159    0.0446    2.6829 C   0  0  2  0  0  0  0  0  0  0  0  0
   -0.7551   -0.3867    1.2623 C   0  0  0  0  0  0  0  0  0  0  0  0
   -0.0106   -1.0851    0.5774 O   0  0  0  0  0  0  0  0  0  0  0  0
    0.1168    1.4689    2.7060 C   0  0  0  0  0  0  0  0  0  0  0  0
    1.1183   -1.4145    2.5542 H   0  0  0  0  0  0  0  0  0  0  0  0
   -1.3088   -0.0350    3.3125 H   0  0  0  0  0  0  0  0  0  0  0  0
    1.0116    1.5681    2.0808 H   0  0  0  0  0  0  0  0  0  0  0  0
   -0.6289    2.1775    2.3307 H   0  0  0  0  0  0  0  0  0  0  0  0
    0.3882    1.7670    3.7245 H   0  0  0  0  0  0  0  0  0  0  0  0
   -1.9689    0.1350    0.8298 N   0  0  0  0  0  0  0  0  0  0  0  0
   -2.5039   -0.1183   -0.4830 C   0  0  2  0  0  0  0  0  0  0  0  0
   -1.5100    0.4077   -1.5127 C   0  0  0  0  0  0  0  0  0  0  0  0
   -1.8519    0.8627   -2.6023 O   0  0  0  0  0  0  0  0  0  0  0  0
   -3.8874    0.4998   -0.6576 C   0  0  0  0  0  0  0  0  0  0  0  0
   -3.8019    1.9196   -0.6130 O   0  0  0  0  0  0  0  0  0  0  0  0
   -2.5276    0.6894    1.4750 H   0  0  0  0  0  0  0  0  0  0  0  0
   -2.5740   -1.2076   -0.5825 H   0  0  0  0  0  0  0  0  0  0  0  0
   -4.5662    0.1756    0.1377 H   0  0  0  0  0  0  0  0  0  0  0  0
   -4.3172    0.2150   -1.6238 H   0  0  0  0  0  0  0  0  0  0  0  0
   -3.2166    2.1862   -1.3397 H   0  0  0  0  0  0  0  0  0  0  0  0
   -0.2018    0.3486   -1.0535 N   0  0  0  0  0  0  0  0  0  0  0  0
    0.9222    0.8161   -1.8310 C   0  0  2  0  0  0  0  0  0  0  0  0
    0.4615    2.0145   -2.6502 C   0  0  0  0  0  0  0  0  0  0  0  0
   -0.7170    2.2212   -2.9322 O   0  0  0  0  0  0  0  0  0  0  0  0
    1.4664   -0.2814   -2.7321 C   0  0  0  0  0  0  0  0  0  0  0  0
   -0.0158   -0.0072   -0.1205 H   0  0  0  0  0  0  0  0  0  0  0  0
    1.6900    1.1342   -1.1174 H   0  0  0  0  0  0  0  0  0  0  0  0
    0.7112   -0.6131   -3.4540 H   0  0  0  0  0  0  0  0  0  0  0  0
    2.3360    0.0660   -3.2997 H   0  0  0  0  0  0  0  0  0  0  0  0
    1.7696   -1.1542   -2.1438 H   0  0  0  0  0  0  0  0  0  0  0  0
    1.5256    2.8027   -3.0658 N   0  0  0  0  0  0  0  0  0  0  0  0
    1.3491    3.9911   -3.8674 C   0  0  0  0  0  0  0  0  0  0  0  0
    2.4680    2.5666   -2.7694 H   0  0  0  0  0  0  0  0  0  0  0  0
    1.4344    3.7314   -4.9329 H   0  0  0  0  0  0  0  0  0  0  0  0
    0.3549    4.4199   -3.6731 H   0  0  0  0  0  0  0  0  0  0  0  0
    2.1234    4.7275   -3.6065 H   0  0  0  0  0  0  0  0  0  0  0  0
  1  3  1  0  0  0  0
  1  7  1  0  0  0  0
  1  2  2  0  0  0  0
 29 30  1  0  0  0  0
 30 38  1  0  0  0  0
 30 31  2  0  0  0  0
  8  9  1  0  0  0  0
  9 17  1  0  0  0  0
  9 10  2  0  0  0  0
 18 19  1  0  0  0  0
 19 28  1  0  0  0  0
 19 20  2  0  0  0  0
 29 32  1  0  0  0  0
  8 11  1  0  0  0  0
 38 39  1  0  0  0  0
 18 21  1  0  0  0  0
 21 22  1  0  0  0  0
 28 29  1  0  0  0  0
  7  8  1  0  0  0  0
 17 18  1  0  0  0  0
  3  4  1  0  0  0  0
  3  5  1  0  0  0  0
  3  6  1  0  0  0  0
 32 35  1  0  0  0  0
 32 36  1  0  0  0  0
 32 37  1  0  0  0  0
 11 14  1  0  0  0  0
 11 15  1  0  0  0  0
 11 16  1  0  0  0  0
 39 41  1  0  0  0  0
 39 42  1  0  0  0  0
 39 43  1  0  0  0  0
 21 25  1  0  0  0  0
 21 26  1  0  0  0  0
 29 34  1  0  0  0  0
  8 13  1  0  0  0  0
 18 24  1  0  0  0  0
 38 40  1  0  0  0  0
  7 12  1  0  0  0  0
 28 33  1  0  0  0  0
 17 23  1  0  0  0  0
 22 27  1  0  0  0  0
M  END
$$$$

  -OEChem-05262214473D

 43 42  0     1  0  0  0  0  0999 V2000
    0.7424   -1.0926    4.5665 C   0  0  0  0  0  0  0  0  0  0  0  0
    0.1409   -0.5364    5.4779 O   0  0  0  0  0  0  0  0  0  0  0  0
    1.7940   -2.1023    4.8871 C   0  0  0  0  0  0  0  0  0  0  0  0
    2.7935   -1.6502    4.9904 H   0  0  0  0  0  0  0  0  0  0  0  0
    1.6064   -2.6156    5.8438 H   0  0  0  0  0  0  0  0  0  0  0  0
    1.9156   -2.9078    4.1453 H   0  0  0  0  0  0  0  0  0  0  0  0
    0.5488   -0.8838    3.2109 N   0  0  0  0  0  0  0  0  0  0  0  0
   -0.4159    0.0446    2.6829 C   0  0  2  0  0  0  0  0  0  0  0  0
   -0.7551   -0.3867    1.2623 C   0  0  0  0  0  0  0  0  0  0  0  0
   -0.0106   -1.0851    0.5774 O   0  0  0  0  0  0  0  0  0  0  0  0
    0.1168    1.4689    2.7060 C   0  0  0  0  0  0  0  0  0  0  0  0
    1.1183   -1.4145    2.5542 H   0  0  0  0  0  0  0  0  0  0  0  0
   -1.3088   -0.0350    3.3125 H   0  0  0  0  0  0  0  0  0  0  0  0
    1.0116    1.5681    2.0808 H   0  0  0  0  0  0  0  0  0  0  0  0
   -0.6289    2.1775    2.3307 H   0  0  0  0  0  0  0  0  0  0  0  0
    0.3882    1.7670    3.7245 H   0  0  0  0  0  0  0  0  0  0  0  0
   -1.9689    0.1350    0.8298 N   0  0  0  0  0  0  0  0  0  0  0  0
   -2.5039   -0.1183   -0.4830 C   0  0  2  0  0  0  0  0  0  0  0  0
   -1.5100    0.4077   -1.5127 C   0  0  0  0  0  0  0  0  0  0  0  0
   -1.8431    1.0986   -2.4733 O   0  0  0  0  0  0  0  0  0  0  0  0
   -3.8874    0.4998   -0.6576 C   0  0  0  0  0  0  0  0  0  0  0  0
   -3.8019    1.9196   -0.6130 O   0  0  0  0  0  0  0  0  0  0  0  0
   -2.5276    0.6894    1.4750 H   0  0  0  0  0  0  0  0  0  0  0  0
   -2.5740   -1.2076   -0.5825 H   0  0  0  0  0  0  0  0  0  0  0  0
   -4.5662    0.1756    0.1377 H   0  0  0  0  0  0  0  0  0  0  0  0
   -4.3172    0.2150   -1.6238 H   0  0  0  0  0  0  0  0  0  0  0  0
   -3.2166    2.1862   -1.3397 H   0  0  0  0  0  0  0  0  0  0  0  0
   -0.2041    0.0506   -1.2079 N   0  0  0  0  0  0  0  0  0  0  0  0
    0.9254    0.4536   -2.0131 C   0  0  2  0  0  0  0  0  0  0  0  0
    0.6316    1.8377   -2.5764 C   0  0  0  0  0  0  0  0  0  0  0  0
   -0.5071    2.2850   -2.6970 O   0  0  0  0  0  0  0  0  0  0  0  0
    1.1918   -0.5427   -3.1308 C   0  0  0  0  0  0  0  0  0  0  0  0
   -0.0173   -0.4904   -0.3688 H   0  0  0  0  0  0  0  0  0  0  0  0
    1.7893    0.5078   -1.3416 H   0  0  0  0  0  0  0  0  0  0  0  0
    0.3372   -0.6107   -3.8138 H   0  0  0  0  0  0  0  0  0  0  0  0
    2.0655   -0.2509   -3.7226 H   0  0  0  0  0  0  0  0  0  0  0  0
    1.3735   -1.5439   -2.7253 H   0  0  0  0  0  0  0  0  0  0  0  0
    1.7877    2.4978   -2.9686 N   0  0  0  0  0  0  0  0  0  0  0  0
    1.7719    3.8217   -3.5458 C   0  0  0  0  0  0  0  0  0  0  0  0
    2.6906    2.0589   -2.8139 H   0  0  0  0  0  0  0  0  0  0  0  0
    1.7290    3.7437   -4.6422 H   0  0  0  0  0  0  0  0  0  0  0  0
    0.8899    4.3695   -3.1825 H   0  0  0  0  0  0  0  0  0  0  0  0
    2.6848    4.3605   -3.2521 H   0  0  0  0  0  0  0  0  0  0  0  0
  1  3  1  0  0  0  0
  1  7  1  0  0  0  0
  1  2  2  0  0  0  0
 29 30  1  0  0  0  0
 30 38  1  0  0  0  0
 30 31  2  0  0  0  0
  8  9  1  0  0  0  0
  9 17  1  0  0  0  0
  9 10  2  0  0  0  0
 18 19  1  0  0  0  0
 19 28  1  0  0  0  0
 19 20  2  0  0  0  0
 29 32  1  0  0  0  0
  8 11  1  0  0  0  0
 38 39  1  0  0  0  0
 18 21  1  0  0  0  0
 21 22  1  0  0  0  0
 28 29  1  0  0  0  0
  7  8  1  0  0  0  0
 17 18  1  0  0  0  0
  3  4  1  0  0  0  0
  3  5  1  0  0  0  0
  3  6  1  0  0  0  0
 32 35  1  0  0  0  0
 32 36  1  0  0  0  0
 32 37  1  0  0  0  0
 11 14  1  0  0  0  0
 11 15  1  0  0  0  0
 11 16  1  0  0  0  0
 39 41  1  0  0  0  0
 39 42  1  0  0  0  0
 39 43  1  0  0  0  0
 21 25  1  0  0  0  0
 21 26  1  0  0  0  0
 29 34  1  0  0  0  0
  8 13  1  0  0  0  0
 18 24  1  0  0  0  0
 38 40  1  0  0  0  0
  7 12  1  0  0  0  0
 28 33  1  0  0  0  0
 17 23  1  0  0  0  0
 22 27  1  0  0  0  0
M  END
$$$$

  -OEChem-05262214473D

 43 42  0     1  0  0  0  0  0999 V2000
    0.7424   -1.0926    4.5665 C   0  0  0  0  0  0  0  0  0  0  0  0
    0.1409   -0.5364    5.4779 O   0  0  0  0  0  0  0  0  0  0  0  0
    1.7940   -2.1023    4.8871 C   0  0  0  0  0  0  0  0  0  0  0  0
    2.7935   -1.6502    4.9904 H   0  0  0  0  0  0  0  0  0  0  0  0
    1.6064   -2.6156    5.8438 H   0  0  0  0  0  0  0  0  0  0  0  0
    1.9156   -2.9078    4.1453 H   0  0  0  0  0  0  0  0  0  0  0  0
    0.5488   -0.8838    3.2109 N   0  0  0  0  0  0  0  0  0  0  0  0
   -0.4159    0.0446    2.6829 C   0  0  2  0  0  0  0  0  0  0  0  0
   -0.7551   -0.3867    1.2623 C   0  0  0  0  0  0  0  0  0  0  0  0
   -0.0106   -1.0851    0.5774 O   0  0  0  0  0  0  0  0  0  0  0  0
    0.1168    1.4689    2.7060 C   0  0  0  0  0  0  0  0  0  0  0  0
    1.1183   -1.4145    2.5542 H   0  0  0  0  0  0  0  0  0  0  0  0
   -1.3088   -0.0350    3.3125 H   0  0  0  0  0  0  0  0  0  0  0  0
    1.0116    1.5681    2.0808 H   0  0  0  0  0  0  0  0  0  0  0  0
   -0.6289    2.1775    2.3307 H   0  0  0  0  0  0  0  0  0  0  0  0
    0.3882    1.7670    3.7245 H   0  0  0  0  0  0  0  0  0  0  0  0
   -1.9689    0.1350    0.8298 N   0  0  0  0  0  0  0  0  0  0  0  0
   -2.5039   -0.1183   -0.4830 C   0  0  2  0  0  0  0  0  0  0  0  0
   -1.5100    0.4077   -1.5127 C   0  0  0  0  0  0  0  0  0  0  0  0
   -1.7819    1.3033   -2.3097 O   0  0  0  0  0  0  0  0  0  0  0  0
   -3.8874    0.4998   -0.6576 C   0  0  0  0  0  0  0  0  0  0  0  0
   -3.8019    1.9196   -0.6130 O   0  0  0  0  0  0  0  0  0  0  0  0
   -2.5276    0.6894    1.4750 H   0  0  0  0  0  0  0  0  0  0  0  0
   -2.5740   -1.2076   -0.5825 H   0  0  0  0  0  0  0  0  0  0  0  0
   -4.5662    0.1756    0.1377 H   0  0  0  0  0  0  0  0  0  0  0  0
   -4.3172    0.2150   -1.6238 H   0  0  0  0  0  0  0  0  0  0  0  0
   -3.2166    2.1862   -1.3397 H   0  0  0  0  0  0  0  0  0  0  0  0
   -0.2722   -0.2107   -1.4072 N   0  0  0  0  0  0  0  0  0  0  0  0
    0.8489    0.1336   -2.2505 C   0  0  2  0  0  0  0  0  0  0  0  0
    0.7715    1.6248   -2.5501 C   0  0  0  0  0  0  0  0  0  0  0  0
   -0.2722    2.2702   -2.4778 O   0  0  0  0  0  0  0  0  0  0  0  0
    0.8452   -0.6799   -3.5354 C   0  0  0  0  0  0  0  0  0  0  0  0
   -0.1255   -0.9149   -0.6901 H   0  0  0  0  0  0  0  0  0  0  0  0
    1.7556   -0.0768   -1.6728 H   0  0  0  0  0  0  0  0  0  0  0  0
   -0.0558   -0.4823   -4.1275 H   0  0  0  0  0  0  0  0  0  0  0  0
    1.7111   -0.4382   -4.1605 H   0  0  0  0  0  0  0  0  0  0  0  0
    0.8708   -1.7530   -3.3173 H   0  0  0  0  0  0  0  0  0  0  0  0
    1.9962    2.1412   -2.9495 N   0  0  0  0  0  0  0  0  0  0  0  0
    2.1794    3.5299   -3.3015 C   0  0  0  0  0  0  0  0  0  0  0  0
    2.8128    1.5372   -2.9624 H   0  0  0  0  0  0  0  0  0  0  0  0
    2.0417    3.6551   -4.3857 H   0  0  0  0  0  0  0  0  0  0  0  0
    1.4416    4.1444   -2.7649 H   0  0  0  0  0  0  0  0  0  0  0  0
    3.1946    3.8481   -3.0219 H   0  0  0  0  0  0  0  0  0  0  0  0
  1  3  1  0  0  0  0
  1  7  1  0  0  0  0
  1  2  2  0  0  0  0
 29 30  1  0  0  0  0
 30 38  1  0  0  0  0
 30 31  2  0  0  0  0
  8  9  1  0  0  0  0
  9 17  1  0  0  0  0
  9 10  2  0  0  0  0
 18 19  1  0  0  0  0
 19 28  1  0  0  0  0
 19 20  2  0  0  0  0
 29 32  1  0  0  0  0
  8 11  1  0  0  0  0
 38 39  1  0  0  0  0
 18 21  1  0  0  0  0
 21 22  1  0  0  0  0
 28 29  1  0  0  0  0
  7  8  1  0  0  0  0
 17 18  1  0  0  0  0
  3  4  1  0  0  0  0
  3  5  1  0  0  0  0
  3  6  1  0  0  0  0
 32 35  1  0  0  0  0
 32 36  1  0  0  0  0
 32 37  1  0  0  0  0
 11 14  1  0  0  0  0
 11 15  1  0  0  0  0
 11 16  1  0  0  0  0
 39 41  1  0  0  0  0
 39 42  1  0  0  0  0
 39 43  1  0  0  0  0
 21 25  1  0  0  0  0
 21 26  1  0  0  0  0
 29 34  1  0  0  0  0
  8 13  1  0  0  0  0
 18 24  1  0  0  0  0
 38 40  1  0  0  0  0
  7 12  1  0  0  0  0
 28 33  1  0  0  0  0
 17 23  1  0  0  0  0
 22 27  1  0  0  0  0
M  END
$$$$

  -OEChem-05262214473D

 43 42  0     1  0  0  0  0  0999 V2000
    0.7424   -1.0926    4.5665 C   0  0  0  0  0  0  0  0  0  0  0  0
    0.1409   -0.5364    5.4779 O   0  0  0  0  0  0  0  0  0  0  0  0
    1.7940   -2.1023    4.8871 C   0  0  0  0  0  0  0  0  0  0  0  0
    2.7935   -1.6502    4.9904 H   0  0  0  0  0  0  0  0  0  0  0  0
    1.6064   -2.6156    5.8438 H   0  0  0  0  0  0  0  0  0  0  0  0
    1.9156   -2.9078    4.1453 H   0  0  0  0  0  0  0  0  0  0  0  0
    0.5488   -0.8838    3.2109 N   0  0  0  0  0  0  0  0  0  0  0  0
   -0.4159    0.0446    2.6829 C   0  0  2  0  0  0  0  0  0  0  0  0
   -0.7551   -0.3867    1.2623 C   0  0  0  0  0  0  0  0  0  0  0  0
   -0.0106   -1.0851    0.5774 O   0  0  0  0  0  0  0  0  0  0  0  0
    0.1168    1.4689    2.7060 C   0  0  0  0  0  0  0  0  0  0  0  0
    1.1183   -1.4145    2.5542 H   0  0  0  0  0  0  0  0  0  0  0  0
   -1.3088   -0.0350    3.3125 H   0  0  0  0  0  0  0  0  0  0  0  0
    1.0116    1.5681    2.0808 H   0  0  0  0  0  0  0  0  0  0  0  0
   -0.6289    2.1775    2.3307 H   0  0  0  0  0  0  0  0  0  0  0  0
    0.3882    1.7670    3.7245 H   0  0  0  0  0  0  0  0  0  0  0  0
   -1.9689    0.1350    0.8298 N   0  0  0  0  0  0  0  0  0  0  0  0
   -2.5039   -0.1183   -0.4830 C   0  0  2  0  0  0  0  0  0  0  0  0
   -1.5100    0.4077   -1.5127 C   0  0  0  0  0  0  0  0  0  0  0  0
   -1.6724    1.4626   -2.1226 O   0  0  0  0  0  0  0  0  0  0  0  0
   -3.8874    0.4998   -0.6576 C   0  0  0  0  0  0  0  0  0  0  0  0
   -3.8019    1.9196   -0.6130 O   0  0  0  0  0  0  0  0  0  0  0  0
   -2.5276    0.6894    1.4750 H   0  0  0  0  0  0  0  0  0  0  0  0
   -2.5740   -1.2076   -0.5825 H   0  0  0  0  0  0  0  0  0  0  0  0
   -4.5662    0.1756    0.1377 H   0  0  0  0  0  0  0  0  0  0  0  0
   -4.3172    0.2150   -1.6238 H   0  0  0  0  0  0  0  0  0  0  0  0
   -3.2166    2.1862   -1.3397 H   0  0  0  0  0  0  0  0  0  0  0  0
   -0.4014   -0.4177   -1.6377 N   0  0  0  0  0  0  0  0  0  0  0  0
    0.6978   -0.1221   -2.5269 C   0  0  2  0  0  0  0  0  0  0  0  0
    0.8717    1.3903   -2.5731 C   0  0  0  0  0  0  0  0  0  0  0  0
   -0.0284    2.1779   -2.2896 O   0  0  0  0  0  0  0  0  0  0  0  0
    0.4503   -0.6835   -3.9184 C   0  0  0  0  0  0  0  0  0  0  0  0
   -0.3328   -1.2519   -1.0624 H   0  0  0  0  0  0  0  0  0  0  0  0
    1.5913   -0.5798   -2.0883 H   0  0  0  0  0  0  0  0  0  0  0  0
   -0.4409   -0.2367   -4.3738 H   0  0  0  0  0  0  0  0  0  0  0  0
    1.2970   -0.4834   -4.5833 H   0  0  0  0  0  0  0  0  0  0  0  0
    0.2959   -1.7673   -3.8795 H   0  0  0  0  0  0  0  0  0  0  0  0
    2.1370    1.7570   -3.0098 N   0  0  0  0  0  0  0  0  0  0  0  0
    2.5438    3.1356   -3.1512 C   0  0  0  0  0  0  0  0  0  0  0  0
    2.8265    1.0370   -3.2048 H   0  0  0  0  0  0  0  0  0  0  0  0
    2.3511    3.4715   -4.1808 H   0  0  0  0  0  0  0  0  0  0  0  0
    1.9725    3.7602   -2.4488 H   0  0  0  0  0  0  0  0  0  0  0  0
    3.6179    3.2252   -2.9314 H   0  0  0  0  0  0  0  0  0  0  0  0
  1  3  1  0  0  0  0
  1  7  1  0  0  0  0
  1  2  2  0  0  0  0
 29 30  1  0  0  0  0
 30 38  1  0  0  0  0
 30 31  2  0  0  0  0
  8  9  1  0  0  0  0
  9 17  1  0  0  0  0
  9 10  2  0  0  0  0
 18 19  1  0  0  0  0
 19 28  1  0  0  0  0
 19 20  2  0  0  0  0
 29 32  1  0  0  0  0
  8 11  1  0  0  0  0
 38 39  1  0  0  0  0
 18 21  1  0  0  0  0
 21 22  1  0  0  0  0
 28 29  1  0  0  0  0
  7  8  1  0  0  0  0
 17 18  1  0  0  0  0
  3  4  1  0  0  0  0
  3  5  1  0  0  0  0
  3  6  1  0  0  0  0
 32 35  1  0  0  0  0
 32 36  1  0  0  0  0
 32 37  1  0  0  0  0
 11 14  1  0  0  0  0
 11 15  1  0  0  0  0
 11 16  1  0  0  0  0
 39 41  1  0  0  0  0
 39 42  1  0  0  0  0
 39 43  1  0  0  0  0
 21 25  1  0  0  0  0
 21 26  1  0  0  0  0
 29 34  1  0  0  0  0
  8 13  1  0  0  0  0
 18 24  1  0  0  0  0
 38 40  1  0  0  0  0
  7 12  1  0  0  0  0
 28 33  1  0  0  0  0
 17 23  1  0  0  0  0
 22 27  1  0  0  0  0
M  END
$$$$

  -OEChem-05262214473D

 43 42  0     1  0  0  0  0  0999 V2000
    0.7424   -1.0926    4.5665 C   0  0  0  0  0  0  0  0  0  0  0  0
    0.1409   -0.5364    5.4779 O   0  0  0  0  0  0  0  0  0  0  0  0
    1.7940   -2.1023    4.8871 C   0  0  0  0  0  0  0  0  0  0  0  0
    2.7935   -1.6502    4.9904 H   0  0  0  0  0  0  0  0  0  0  0  0
    1.6064   -2.6156    5.8438 H   0  0  0  0  0  0  0  0  0  0  0  0
    1.9156   -2.9078    4.1453 H   0  0  0  0  0  0  0  0  0  0  0  0
    0.5488   -0.8838    3.2109 N   0  0  0  0  0  0  0  0  0  0  0  0
   -0.4159    0.0446    2.6829 C   0  0  2  0  0  0  0  0  0  0  0  0
   -0.7551   -0.3867    1.2623 C   0  0  0  0  0  0  0  0  0  0  0  0
   -0.0106   -1.0851    0.5774 O   0  0  0  0  0  0  0  0  0  0  0  0
    0.1168    1.4689    2.7060 C   0  0  0  0  0  0  0  0  0  0  0  0
    1.1183   -1.4145    2.5542 H   0  0  0  0  0  0  0  0  0  0  0  0
   -1.3088   -0.0350    3.3125 H   0  0  0  0  0  0  0  0  0  0  0  0
    1.0116    1.5681    2.0808 H   0  0  0  0  0  0  0  0  0  0  0  0
   -0.6289    2.1775    2.3307 H   0  0  0  0  0  0  0  0  0  0  0  0
    0.3882    1.7670    3.7245 H   0  0  0  0  0  0  0  0  0  0  0  0
   -1.9689    0.1350    0.8298 N   0  0  0  0  0  0  0  0  0  0  0  0
   -2.5039   -0.1183   -0.4830 C   0  0  2  0  0  0  0  0  0  0  0  0
   -1.5100    0.4077   -1.5127 C   0  0  0  0  0  0  0  0  0  0  0  0
   -1.5221    1.5658   -1.9247 O   0  0  0  0  0  0  0  0  0  0  0  0
   -3.8874    0.4998   -0.6576 C   0  0  0  0  0  0  0  0  0  0  0  0
   -3.8019    1.9196   -0.6130 O   0  0  0  0  0  0  0  0  0  0  0  0
   -2.5276    0.6894    1.4750 H   0  0  0  0  0  0  0  0  0  0  0  0
   -2.5740   -1.2076   -0.5825 H   0  0  0  0  0  0  0  0  0  0  0  0
   -4.5662    0.1756    0.1377 H   0  0  0  0  0  0  0  0  0  0  0  0
   -4.3172    0.2150   -1.6238 H   0  0  0  0  0  0  0  0  0  0  0  0
   -3.2166    2.1862   -1.3397 H   0  0  0  0  0  0  0  0  0  0  0  0
   -0.5830   -0.5561   -1.8837 N   0  0  0  0  0  0  0  0  0  0  0  0
    0.4826   -0.2960   -2.8235 C   0  0  2  0  0  0  0  0  0  0  0  0
    0.9255    1.1501   -2.6439 C   0  0  0  0  0  0  0  0  0  0  0  0
    0.2078    2.0144   -2.1451 O   0  0  0  0  0  0  0  0  0  0  0  0
    0.0341   -0.5534   -4.2537 C   0  0  0  0  0  0  0  0  0  0  0  0
   -0.6252   -1.4784   -1.4603 H   0  0  0  0  0  0  0  0  0  0  0  0
    1.3076   -0.9667   -2.5599 H   0  0  0  0  0  0  0  0  0  0  0  0
   -0.7920    0.1094   -4.5359 H   0  0  0  0  0  0  0  0  0  0  0  0
    0.8512   -0.3834   -4.9625 H   0  0  0  0  0  0  0  0  0  0  0  0
   -0.3122   -1.5857   -4.3737 H   0  0  0  0  0  0  0  0  0  0  0  0
    2.2005    1.3714   -3.1455 N   0  0  0  0  0  0  0  0  0  0  0  0
    2.8404    2.6656   -3.1051 C   0  0  0  0  0  0  0  0  0  0  0  0
    2.7306    0.5923   -3.5246 H   0  0  0  0  0  0  0  0  0  0  0  0
    2.6362    3.2056   -4.0414 H   0  0  0  0  0  0  0  0  0  0  0  0
    2.4464    3.2429   -2.2557 H   0  0  0  0  0  0  0  0  0  0  0  0
    3.9261    2.5342   -2.9870 H   0  0  0  0  0  0  0  0  0  0  0  0
  1  3  1  0  0  0  0
  1  7  1  0  0  0  0
  1  2  2  0  0  0  0
 29 30  1  0  0  0  0
 30 38  1  0  0  0  0
 30 31  2  0  0  0  0
  8  9  1  0  0  0  0
  9 17  1  0  0  0  0
  9 10  2  0  0  0  0
 18 19  1  0  0  0  0
 19 28  1  0  0  0  0
 19 20  2  0  0  0  0
 29 32  1  0  0  0  0
  8 11  1  0  0  0  0
 38 39  1  0  0  0  0
 18 21  1  0  0  0  0
 21 22  1  0  0  0  0
 28 29  1  0  0  0  0
  7  8  1  0  0  0  0
 17 18  1  0  0  0  0
  3  4  1  0  0  0  0
  3  5  1  0  0  0  0
  3  6  1  0  0  0  0
 32 35  1  0  0  0  0
 32 36  1  0  0  0  0
 32 37  1  0  0  0  0
 11 14  1  0  0  0  0
 11 15  1  0  0  0  0
 11 16  1  0  0  0  0
 39 41  1  0  0  0  0
 39 42  1  0  0  0  0
 39 43  1  0  0  0  0
 21 25  1  0  0  0  0
 21 26  1  0  0  0  0
 29 34  1  0  0  0  0
  8 13  1  0  0  0  0
 18 24  1  0  0  0  0
 38 40  1  0  0  0  0
  7 12  1  0  0  0  0
 28 33  1  0  0  0  0
 17 23  1  0  0  0  0
 22 27  1  0  0  0  0
M  END
$$$$

  -OEChem-05262214473D

 43 42  0     1  0  0  0  0  0999 V2000
    0.7424   -1.0926    4.5665 C   0  0  0  0  0  0  0  0  0  0  0  0
    0.1409   -0.5364    5.4779 O   0  0  0  0  0  0  0  0  0  0  0  0
    1.7940   -2.1023    4.8871 C   0  0  0  0  0  0  0  0  0  0  0  0
    2.7935   -1.6502    4.9904 H   0  0  0  0  0  0  0  0  0  0  0  0
    1.6064   -2.6156    5.8438 H   0  0  0  0  0  0  0  0  0  0  0  0
    1.9156   -2.9078    4.1453 H   0  0  0  0  0  0  0  0  0  0  0  0
    0.5488   -0.8838    3.2109 N   0  0  0  0  0  0  0  0  0  0  0  0
   -0.4159    0.0446    2.6829 C   0  0  2  0  0  0  0  0  0  0  0  0
   -0.7551   -0.3867    1.2623 C   0  0  0  0  0  0  0  0  0  0  0  0
   -0.0106   -1.0851    0.5774 O   0  0  0  0  0  0  0  0  0  0  0  0
    0.1168    1.4689    2.7060 C   0  0  0  0  0  0  0  0  0  0  0  0
    1.1183   -1.4145    2.5542 H   0  0  0  0  0  0  0  0  0  0  0  0
   -1.3088   -0.0350    3.3125 H   0  0  0  0  0  0  0  0  0  0  0  0
    1.0116    1.5681    2.0808 H   0  0  0  0  0  0  0  0  0  0  0  0
   -0.6289    2.1775    2.3307 H   0  0  0  0  0  0  0  0  0  0  0  0
    0.3882    1.7670    3.7245 H   0  0  0  0  0  0  0  0  0  0  0  0
   -1.9689    0.1350    0.8298 N   0  0  0  0  0  0  0  0  0  0  0  0
   -2.5039   -0.1183   -0.4830 C   0  0  2  0  0  0  0  0  0  0  0  0
   -1.5100    0.4077   -1.5127 C   0  0  0  0  0  0  0  0  0  0  0  0
   -1.3411    1.6059   -1.7297 O   0  0  0  0  0  0  0  0  0  0  0  0
   -3.8874    0.4998   -0.6576 C   0  0  0  0  0  0  0  0  0  0  0  0
   -3.8019    1.9196   -0.6130 O   0  0  0  0  0  0  0  0  0  0  0  0
   -2.5276    0.6894    1.4750 H   0  0  0  0  0  0  0  0  0  0  0  0
   -2.5740   -1.2076   -0.5825 H   0  0  0  0  0  0  0  0  0  0  0  0
   -4.5662    0.1756    0.1377 H   0  0  0  0  0  0  0  0  0  0  0  0
   -4.3172    0.2150   -1.6238 H   0  0  0  0  0  0  0  0  0  0  0  0
   -3.2166    2.1862   -1.3397 H   0  0  0  0  0  0  0  0  0  0  0  0
   -0.8046   -0.6165   -2.1284 N   0  0  0  0  0  0  0  0  0  0  0  0
    0.2178   -0.3763   -3.1202 C   0  0  2  0  0  0  0  0  0  0  0  0
    0.9292    0.9206   -2.7576 C   0  0  0  0  0  0  0  0  0  0  0  0
    0.4203    1.7908   -2.0542 O   0  0  0  0  0  0  0  0  0  0  0  0
   -0.3752   -0.2984   -4.5184 C   0  0  0  0  0  0  0  0  0  0  0  0
   -0.9828   -1.5789   -1.8568 H   0  0  0  0  0  0  0  0  0  0  0  0
    0.9238   -1.2113   -3.0553 H   0  0  0  0  0  0  0  0  0  0  0  0
   -1.0851    0.5324   -4.6027 H   0  0  0  0  0  0  0  0  0  0  0  0
    0.4043   -0.1448   -5.2720 H   0  0  0  0  0  0  0  0  0  0  0  0
   -0.9119   -1.2206   -4.7661 H   0  0  0  0  0  0  0  0  0  0  0  0
    2.1823    1.0108   -3.3473 N   0  0  0  0  0  0  0  0  0  0  0  0
    3.0488    2.1521   -3.1663 C   0  0  0  0  0  0  0  0  0  0  0  0
    2.5317    0.2335   -3.8999 H   0  0  0  0  0  0  0  0  0  0  0  0
    2.8776    2.8754   -3.9771 H   0  0  0  0  0  0  0  0  0  0  0  0
    2.8309    2.6279   -2.1987 H   0  0  0  0  0  0  0  0  0  0  0  0
    4.0980    1.8223   -3.1847 H   0  0  0  0  0  0  0  0  0  0  0  0
  1  3  1  0  0  0  0
  1  7  1  0  0  0  0
  1  2  2  0  0  0  0
 29 30  1  0  0  0  0
 30 38  1  0  0  0  0
 30 31  2  0  0  0  0
  8  9  1  0  0  0  0
  9 17  1  0  0  0  0
  9 10  2  0  0  0  0
 18 19  1  0  0  0  0
 19 28  1  0  0  0  0
 19 20  2  0  0  0  0
 29 32  1  0  0  0  0
  8 11  1  0  0  0  0
 38 39  1  0  0  0  0
 18 21  1  0  0  0  0
 21 22  1  0  0  0  0
 28 29  1  0  0  0  0
  7  8  1  0  0  0  0
 17 18  1  0  0  0  0
  3  4  1  0  0  0  0
  3  5  1  0  0  0  0
  3  6  1  0  0  0  0
 32 35  1  0  0  0  0
 32 36  1  0  0  0  0
 32 37  1  0  0  0  0
 11 14  1  0  0  0  0
 11 15  1  0  0  0  0
 11 16  1  0  0  0  0
 39 41  1  0  0  0  0
 39 42  1  0  0  0  0
 39 43  1  0  0  0  0
 21 25  1  0  0  0  0
 21 26  1  0  0  0  0
 29 34  1  0  0  0  0
  8 13  1  0  0  0  0
 18 24  1  0  0  0  0
 38 40  1  0  0  0  0
  7 12  1  0  0  0  0
 28 33  1  0  0  0  0
 17 23  1  0  0  0  0
 22 27  1  0  0  0  0
M  END
$$$$

  -OEChem-05262214473D

 43 42  0     1  0  0  0  0  0999 V2000
    0.7424   -1.0926    4.5665 C   0  0  0  0  0  0  0  0  0  0  0  0
    0.1409   -0.5364    5.4779 O   0  0  0  0  0  0  0  0  0  0  0  0
    1.7940   -2.1023    4.8871 C   0  0  0  0  0  0  0  0  0  0  0  0
    2.7935   -1.6502    4.9904 H   0  0  0  0  0  0  0  0  0  0  0  0
    1.6064   -2.6156    5.8438 H   0  0  0  0  0  0  0  0  0  0  0  0
    1.9156   -2.9078    4.1453 H   0  0  0  0  0  0  0  0  0  0  0  0
    0.5488   -0.8838    3.2109 N   0  0  0  0  0  0  0  0  0  0  0  0
   -0.4159    0.0446    2.6829 C   0  0  2  0  0  0  0  0  0  0  0  0
   -0.7551   -0.3867    1.2623 C   0  0  0  0  0  0  0  0  0  0  0  0
   -0.0106   -1.0851    0.5774 O   0  0  0  0  0  0  0  0  0  0  0  0
    0.1168    1.4689    2.7060 C   0  0  0  0  0  0  0  0  0  0  0  0
    1.1183   -1.4145    2.5542 H   0  0  0  0  0  0  0  0  0  0  0  0
   -1.3088   -0.0350    3.3125 H   0  0  0  0  0  0  0  0  0  0  0  0
    1.0116    1.5681    2.0808 H   0  0  0  0  0  0  0  0  0  0  0  0
   -0.6289    2.1775    2.3307 H   0  0  0  0  0  0  0  0  0  0  0  0
    0.3882    1.7670    3.7245 H   0  0  0  0  0  0  0  0  0  0  0  0
   -1.9689    0.1350    0.8298 N   0  0  0  0  0  0  0  0  0  0  0  0
   -2.5039   -0.1183   -0.4830 C   0  0  2  0  0  0  0  0  0  0  0  0
   -1.5100    0.4077   -1.5127 C   0  0  0  0  0  0  0  0  0  0  0  0
   -1.1420    1.5800   -1.5506 O   0  0  0  0  0  0  0  0  0  0  0  0
   -3.8874    0.4998   -0.6576 C   0  0  0  0  0  0  0  0  0  0  0  0
   -3.8019    1.9196   -0.6130 O   0  0  0  0  0  0  0  0  0  0  0  0
   -2.5276    0.6894    1.4750 H   0  0  0  0  0  0  0  0  0  0  0  0
   -2.5740   -1.2076   -0.5825 H   0  0  0  0  0  0  0  0  0  0  0  0
   -4.5662    0.1756    0.1377 H   0  0  0  0  0  0  0  0  0  0  0  0
   -4.3172    0.2150   -1.6238 H   0  0  0  0  0  0  0  0  0  0  0  0
   -3.2166    2.1862   -1.3397 H   0  0  0  0  0  0  0  0  0  0  0  0
   -1.0510   -0.5949   -2.3552 N   0  0  0  0  0  0  0  0  0  0  0  0
   -0.0786   -0.3575   -3.3966 C   0  0  2  0  0  0  0  0  0  0  0  0
    0.8825    0.7175   -2.9065 C   0  0  0  0  0  0  0  0  0  0  0  0
    0.5946    1.5224   -2.0232 O   0  0  0  0  0  0  0  0  0  0  0  0
   -0.7496    0.0641   -4.6946 C   0  0  0  0  0  0  0  0  0  0  0  0
   -1.3811   -1.5466   -2.2248 H   0  0  0  0  0  0  0  0  0  0  0  0
    0.4661   -1.2970   -3.5408 H   0  0  0  0  0  0  0  0  0  0  0  0
   -1.3003    1.0035   -4.5697 H   0  0  0  0  0  0  0  0  0  0  0  0
   -0.0133    0.2159   -5.4908 H   0  0  0  0  0  0  0  0  0  0  0  0
   -1.4624   -0.6970   -5.0299 H   0  0  0  0  0  0  0  0  0  0  0  0
    2.0837    0.6998   -3.6014 N   0  0  0  0  0  0  0  0  0  0  0  0
    3.1548    1.6300   -3.3306 C   0  0  0  0  0  0  0  0  0  0  0  0
    2.2434   -0.0151   -4.3052 H   0  0  0  0  0  0  0  0  0  0  0  0
    3.0587    2.5034   -3.9923 H   0  0  0  0  0  0  0  0  0  0  0  0
    3.1000    1.9569   -2.2818 H   0  0  0  0  0  0  0  0  0  0  0  0
    4.1220    1.1380   -3.5112 H   0  0  0  0  0  0  0  0  0  0  0  0
  1  3  1  0  0  0  0
  1  7  1  0  0  0  0
  1  2  2  0  0  0  0
 29 30  1  0  0  0  0
 30 38  1  0  0  0  0
 30 31  2  0  0  0  0
  8  9  1  0  0  0  0
  9 17  1  0  0  0  0
  9 10  2  0  0  0  0
 18 19  1  0  0  0  0
 19 28  1  0  0  0  0
 19 20  2  0  0  0  0
 29 32  1  0  0  0  0
  8 11  1  0  0  0  0
 38 39  1  0  0  0  0
 18 21  1  0  0  0  0
 21 22  1  0  0  0  0
 28 29  1  0  0  0  0
  7  8  1  0  0  0  0
 17 18  1  0  0  0  0
  3  4  1  0  0  0  0
  3  5  1  0  0  0  0
  3  6  1  0  0  0  0
 32 35  1  0  0  0  0
 32 36  1  0  0  0  0
 32 37  1  0  0  0  0
 11 14  1  0  0  0  0
 11 15  1  0  0  0  0
 11 16  1  0  0  0  0
 39 41  1  0  0  0  0
 39 42  1  0  0  0  0
 39 43  1  0  0  0  0
 21 25  1  0  0  0  0
 21 26  1  0  0  0  0
 29 34  1  0  0  0  0
  8 13  1  0  0  0  0
 18 24  1  0  0  0  0
 38 40  1  0  0  0  0
  7 12  1  0  0  0  0
 28 33  1  0  0  0  0
 17 23  1  0  0  0  0
 22 27  1  0  0  0  0
M  END
$$$$

  -OEChem-05262214473D

 43 42  0     1  0  0  0  0  0999 V2000
    0.7424   -1.0926    4.5665 C   0  0  0  0  0  0  0  0  0  0  0  0
    0.1409   -0.5364    5.4779 O   0  0  0  0  0  0  0  0  0  0  0  0
    1.7940   -2.1023    4.8871 C   0  0  0  0  0  0  0  0  0  0  0  0
    2.7935   -1.6502    4.9904 H   0  0  0  0  0  0  0  0  0  0  0  0
    1.6064   -2.6156    5.8438 H   0  0  0  0  0  0  0  0  0  0  0  0
    1.9156   -2.9078    4.1453 H   0  0  0  0  0  0  0  0  0  0  0  0
    0.5488   -0.8838    3.2109 N   0  0  0  0  0  0  0  0  0  0  0  0
   -0.4159    0.0446    2.6829 C   0  0  2  0  0  0  0  0  0  0  0  0
   -0.7551   -0.3867    1.2623 C   0  0  0  0  0  0  0  0  0  0  0  0
   -0.0106   -1.0851    0.5774 O   0  0  0  0  0  0  0  0  0  0  0  0
    0.1168    1.4689    2.7060 C   0  0  0  0  0  0  0  0  0  0  0  0
    1.1183   -1.4145    2.5542 H   0  0  0  0  0  0  0  0  0  0  0  0
   -1.3088   -0.0350    3.3125 H   0  0  0  0  0  0  0  0  0  0  0  0
    1.0116    1.5681    2.0808 H   0  0  0  0  0  0  0  0  0  0  0  0
   -0.6289    2.1775    2.3307 H   0  0  0  0  0  0  0  0  0  0  0  0
    0.3882    1.7670    3.7245 H   0  0  0  0  0  0  0  0  0  0  0  0
   -1.9689    0.1350    0.8298 N   0  0  0  0  0  0  0  0  0  0  0  0
   -2.5039   -0.1183   -0.4830 C   0  0  2  0  0  0  0  0  0  0  0  0
   -1.5100    0.4077   -1.5127 C   0  0  0  0  0  0  0  0  0  0  0  0
   -0.9381    1.4900   -1.3998 O   0  0  0  0  0  0  0  0  0  0  0  0
   -3.8874    0.4998   -0.6576 C   0  0  0  0  0  0  0  0  0  0  0  0
   -3.8019    1.9196   -0.6130 O   0  0  0  0  0  0  0  0  0  0  0  0
   -2.5276    0.6894    1.4750 H   0  0  0  0  0  0  0  0  0  0  0  0
   -2.5740   -1.2076   -0.5825 H   0  0  0  0  0  0  0  0  0  0  0  0
   -4.5662    0.1756    0.1377 H   0  0  0  0  0  0  0  0  0  0  0  0
   -4.3172    0.2150   -1.6238 H   0  0  0  0  0  0  0  0  0  0  0  0
   -3.2166    2.1862   -1.3397 H   0  0  0  0  0  0  0  0  0  0  0  0
   -1.3056   -0.4927   -2.5487 N   0  0  0  0  0  0  0  0  0  0  0  0
   -0.3862   -0.2410   -3.6340 C   0  0  2  0  0  0  0  0  0  0  0  0
    0.7886    0.5545   -3.0804 C   0  0  0  0  0  0  0  0  0  0  0  0
    0.7188    1.2274   -2.0540 O   0  0  0  0  0  0  0  0  0  0  0  0
   -1.0636    0.5094   -4.7702 C   0  0  0  0  0  0  0  0  0  0  0  0
   -1.7931   -1.3837   -2.5392 H   0  0  0  0  0  0  0  0  0  0  0  0
   -0.0343   -1.2178   -3.9834 H   0  0  0  0  0  0  0  0  0  0  0  0
   -1.4228    1.4906   -4.4391 H   0  0  0  0  0  0  0  0  0  0  0  0
   -0.3732    0.6743   -5.6040 H   0  0  0  0  0  0  0  0  0  0  0  0
   -1.9262   -0.0505   -5.1473 H   0  0  0  0  0  0  0  0  0  0  0  0
    1.9114    0.4594   -3.8906 N   0  0  0  0  0  0  0  0  0  0  0  0
    3.1514    1.1348   -3.5869 C   0  0  0  0  0  0  0  0  0  0  0  0
    1.8852   -0.1364   -4.7128 H   0  0  0  0  0  0  0  0  0  0  0  0
    3.1673    2.1150   -4.0859 H   0  0  0  0  0  0  0  0  0  0  0  0
    3.2351    1.2759   -2.4992 H   0  0  0  0  0  0  0  0  0  0  0  0
    3.9964    0.5279   -3.9441 H   0  0  0  0  0  0  0  0  0  0  0  0
  1  3  1  0  0  0  0
  1  7  1  0  0  0  0
  1  2  2  0  0  0  0
 29 30  1  0  0  0  0
 30 38  1  0  0  0  0
 30 31  2  0  0  0  0
  8  9  1  0  0  0  0
  9 17  1  0  0  0  0
  9 10  2  0  0  0  0
 18 19  1  0  0  0  0
 19 28  1  0  0  0  0
 19 20  2  0  0  0  0
 29 32  1  0  0  0  0
  8 11  1  0  0  0  0
 38 39  1  0  0  0  0
 18 21  1  0  0  0  0
 21 22  1  0  0  0  0
 28 29  1  0  0  0  0
  7  8  1  0  0  0  0
 17 18  1  0  0  0  0
  3  4  1  0  0  0  0
  3  5  1  0  0  0  0
  3  6  1  0  0  0  0
 32 35  1  0  0  0  0
 32 36  1  0  0  0  0
 32 37  1  0  0  0  0
 11 14  1  0  0  0  0
 11 15  1  0  0  0  0
 11 16  1  0  0  0  0
 39 41  1  0  0  0  0
 39 42  1  0  0  0  0
 39 43  1  0  0  0  0
 21 25  1  0  0  0  0
 21 26  1  0  0  0  0
 29 34  1  0  0  0  0
  8 13  1  0  0  0  0
 18 24  1  0  0  0  0
 38 40  1  0  0  0  0
  7 12  1  0  0  0  0
 28 33  1  0  0  0  0
 17 23  1  0  0  0  0
 22 27  1  0  0  0  0
M  END
$$$$

  -OEChem-05262214473D

 43 42  0     1  0  0  0  0  0999 V2000
    0.7424   -1.0926    4.5665 C   0  0  0  0  0  0  0  0  0  0  0  0
    0.1409   -0.5364    5.4779 O   0  0  0  0  0  0  0  0  0  0  0  0
    1.7940   -2.1023    4.8871 C   0  0  0  0  0  0  0  0  0  0  0  0
    2.7935   -1.6502    4.9904 H   0  0  0  0  0  0  0  0  0  0  0  0
    1.6064   -2.6156    5.8438 H   0  0  0  0  0  0  0  0  0  0  0  0
    1.9156   -2.9078    4.1453 H   0  0  0  0  0  0  0  0  0  0  0  0
    0.5488   -0.8838    3.2109 N   0  0  0  0  0  0  0  0  0  0  0  0
   -0.4159    0.0446    2.6829 C   0  0  2  0  0  0  0  0  0  0  0  0
   -0.7551   -0.3867    1.2623 C   0  0  0  0  0  0  0  0  0  0  0  0
   -0.0106   -1.0851    0.5774 O   0  0  0  0  0  0  0  0  0  0  0  0
    0.1168    1.4689    2.7060 C   0  0  0  0  0  0  0  0  0  0  0  0
    1.1183   -1.4145    2.5542 H   0  0  0  0  0  0  0  0  0  0  0  0
   -1.3088   -0.0350    3.3125 H   0  0  0  0  0  0  0  0  0  0  0  0
    1.0116    1.5681    2.0808 H   0  0  0  0  0  0  0  0  0  0  0  0
   -0.6289    2.1775    2.3307 H   0  0  0  0  0  0  0  0  0  0  0  0
    0.3882    1.7670    3.7245 H   0  0  0  0  0  0  0  0  0  0  0  0
   -1.9689    0.1350    0.8298 N   0  0  0  0  0  0  0  0  0  0  0  0
   -2.5039   -0.1183   -0.4830 C   0  0  2  0  0  0  0  0  0  0  0  0
   -1.5100    0.4077   -1.5127 C   0  0  0  0  0  0  0  0  0  0  0  0
   -0.7435    1.3420   -1.2875 O   0  0  0  0  0  0  0  0  0  0  0  0
   -3.8874    0.4998   -0.6576 C   0  0  0  0  0  0  0  0  0  0  0  0
   -3.8019    1.9196   -0.6130 O   0  0  0  0  0  0  0  0  0  0  0  0
   -2.5276    0.6894    1.4750 H   0  0  0  0  0  0  0  0  0  0  0  0
   -2.5740   -1.2076   -0.5825 H   0  0  0  0  0  0  0  0  0  0  0  0
   -4.5662    0.1756    0.1377 H   0  0  0  0  0  0  0  0  0  0  0  0
   -4.3172    0.2150   -1.6238 H   0  0  0  0  0  0  0  0  0  0  0  0
   -3.2166    2.1862   -1.3397 H   0  0  0  0  0  0  0  0  0  0  0  0
   -1.5508   -0.3168   -2.6956 N   0  0  0  0  0  0  0  0  0  0  0  0
   -0.6842   -0.0346   -3.8162 C   0  0  2  0  0  0  0  0  0  0  0  0
    0.6538    0.4429   -3.2675 C   0  0  0  0  0  0  0  0  0  0  0  0
    0.7845    0.9259   -2.1446 O   0  0  0  0  0  0  0  0  0  0  0  0
   -1.2958    1.0072   -4.7400 C   0  0  0  0  0  0  0  0  0  0  0  0
   -2.1907   -1.1012   -2.7787 H   0  0  0  0  0  0  0  0  0  0  0  0
   -0.5434   -0.9792   -4.3528 H   0  0  0  0  0  0  0  0  0  0  0  0
   -1.4444    1.9605   -4.2199 H   0  0  0  0  0  0  0  0  0  0  0  0
   -0.6508    1.1990   -5.6039 H   0  0  0  0  0  0  0  0  0  0  0  0
   -2.2717    0.6749   -5.1102 H   0  0  0  0  0  0  0  0  0  0  0  0
    1.6771    0.3061   -4.1950 N   0  0  0  0  0  0  0  0  0  0  0  0
    3.0386    0.7004   -3.9177 C   0  0  0  0  0  0  0  0  0  0  0  0
    1.4817   -0.1221   -5.0951 H   0  0  0  0  0  0  0  0  0  0  0  0
    3.1960    1.7366   -4.2516 H   0  0  0  0  0  0  0  0  0  0  0  0
    3.2272    0.6311   -2.8363 H   0  0  0  0  0  0  0  0  0  0  0  0
    3.7298    0.0336   -4.4540 H   0  0  0  0  0  0  0  0  0  0  0  0
  1  3  1  0  0  0  0
  1  7  1  0  0  0  0
  1  2  2  0  0  0  0
 29 30  1  0  0  0  0
 30 38  1  0  0  0  0
 30 31  2  0  0  0  0
  8  9  1  0  0  0  0
  9 17  1  0  0  0  0
  9 10  2  0  0  0  0
 18 19  1  0  0  0  0
 19 28  1  0  0  0  0
 19 20  2  0  0  0  0
 29 32  1  0  0  0  0
  8 11  1  0  0  0  0
 38 39  1  0  0  0  0
 18 21  1  0  0  0  0
 21 22  1  0  0  0  0
 28 29  1  0  0  0  0
  7  8  1  0  0  0  0
 17 18  1  0  0  0  0
  3  4  1  0  0  0  0
  3  5  1  0  0  0  0
  3  6  1  0  0  0  0
 32 35  1  0  0  0  0
 32 36  1  0  0  0  0
 32 37  1  0  0  0  0
 11 14  1  0  0  0  0
 11 15  1  0  0  0  0
 11 16  1  0  0  0  0
 39 41  1  0  0  0  0
 39 42  1  0  0  0  0
 39 43  1  0  0  0  0
 21 25  1  0  0  0  0
 21 26  1  0  0  0  0
 29 34  1  0  0  0  0
  8 13  1  0  0  0  0
 18 24  1  0  0  0  0
 38 40  1  0  0  0  0
  7 12  1  0  0  0  0
 28 33  1  0  0  0  0
 17 23  1  0  0  0  0
 22 27  1  0  0  0  0
M  END
$$$$

  -OEChem-05262214473D

 43 42  0     1  0  0  0  0  0999 V2000
    0.7424   -1.0926    4.5665 C   0  0  0  0  0  0  0  0  0  0  0  0
    0.1409   -0.5364    5.4779 O   0  0  0  0  0  0  0  0  0  0  0  0
    1.7940   -2.1023    4.8871 C   0  0  0  0  0  0  0  0  0  0  0  0
    2.7935   -1.6502    4.9904 H   0  0  0  0  0  0  0  0  0  0  0  0
    1.6064   -2.6156    5.8438 H   0  0  0  0  0  0  0  0  0  0  0  0
    1.9156   -2.9078    4.1453 H   0  0  0  0  0  0  0  0  0  0  0  0
    0.5488   -0.8838    3.2109 N   0  0  0  0  0  0  0  0  0  0  0  0
   -0.4159    0.0446    2.6829 C   0  0  2  0  0  0  0  0  0  0  0  0
   -0.7551   -0.3867    1.2623 C   0  0  0  0  0  0  0  0  0  0  0  0
   -0.0106   -1.0851    0.5774 O   0  0  0  0  0  0  0  0  0  0  0  0
    0.1168    1.4689    2.7060 C   0  0  0  0  0  0  0  0  0  0  0  0
    1.1183   -1.4145    2.5542 H   0  0  0  0  0  0  0  0  0  0  0  0
   -1.3088   -0.0350    3.3125 H   0  0  0  0  0  0  0  0  0  0  0  0
    1.0116    1.5681    2.0808 H   0  0  0  0  0  0  0  0  0  0  0  0
   -0.6289    2.1775    2.3307 H   0  0  0  0  0  0  0  0  0  0  0  0
    0.3882    1.7670    3.7245 H   0  0  0  0  0  0  0  0  0  0  0  0
   -1.9689    0.1350    0.8298 N   0  0  0  0  0  0  0  0  0  0  0  0
   -2.5039   -0.1183   -0.4830 C   0  0  2  0  0  0  0  0  0  0  0  0
   -1.5100    0.4077   -1.5127 C   0  0  0  0  0  0  0  0  0  0  0  0
   -0.5713    1.1461   -1.2214 O   0  0  0  0  0  0  0  0  0  0  0  0
   -3.8874    0.4998   -0.6576 C   0  0  0  0  0  0  0  0  0  0  0  0
   -3.8019    1.9196   -0.6130 O   0  0  0  0  0  0  0  0  0  0  0  0
   -2.5276    0.6894    1.4750 H   0  0  0  0  0  0  0  0  0  0  0  0
   -2.5740   -1.2076   -0.5825 H   0  0  0  0  0  0  0  0  0  0  0  0
   -4.5662    0.1756    0.1377 H   0  0  0  0  0  0  0  0  0  0  0  0
   -4.3172    0.2150   -1.6238 H   0  0  0  0  0  0  0  0  0  0  0  0
   -3.2166    2.1862   -1.3397 H   0  0  0  0  0  0  0  0  0  0  0  0
   -1.7701   -0.0793   -2.7859 N   0  0  0  0  0  0  0  0  0  0  0  0
   -0.9522    0.2476   -3.9308 C   0  0  2  0  0  0  0  0  0  0  0  0
    0.4875    0.3902   -3.4549 C   0  0  0  0  0  0  0  0  0  0  0  0
    0.7871    0.6385   -2.2889 O   0  0  0  0  0  0  0  0  0  0  0  0
   -1.4304    1.5235   -4.6062 C   0  0  0  0  0  0  0  0  0  0  0  0
   -2.5467   -0.7185   -2.9268 H   0  0  0  0  0  0  0  0  0  0  0  0
   -1.0264   -0.5974   -4.6240 H   0  0  0  0  0  0  0  0  0  0  0  0
   -1.3635    2.3812   -3.9269 H   0  0  0  0  0  0  0  0  0  0  0  0
   -0.8272    1.7544   -5.4904 H   0  0  0  0  0  0  0  0  0  0  0  0
   -2.4753    1.4297   -4.9211 H   0  0  0  0  0  0  0  0  0  0  0  0
    1.3968    0.2503   -4.4940 N   0  0  0  0  0  0  0  0  0  0  0  0
    2.8242    0.3563   -4.3005 C   0  0  0  0  0  0  0  0  0  0  0  0
    1.0602    0.0266   -5.4259 H   0  0  0  0  0  0  0  0  0  0  0  0
    3.1427    1.3941   -4.4780 H   0  0  0  0  0  0  0  0  0  0  0  0
    3.0768    0.0665   -3.2699 H   0  0  0  0  0  0  0  0  0  0  0  0
    3.3403   -0.3113   -5.0061 H   0  0  0  0  0  0  0  0  0  0  0  0
  1  3  1  0  0  0  0
  1  7  1  0  0  0  0
  1  2  2  0  0  0  0
 29 30  1  0  0  0  0
 30 38  1  0  0  0  0
 30 31  2  0  0  0  0
  8  9  1  0  0  0  0
  9 17  1  0  0  0  0
  9 10  2  0  0  0  0
 18 19  1  0  0  0  0
 19 28  1  0  0  0  0
 19 20  2  0  0  0  0
 29 32  1  0  0  0  0
  8 11  1  0  0  0  0
 38 39  1  0  0  0  0
 18 21  1  0  0  0  0
 21 22  1  0  0  0  0
 28 29  1  0  0  0  0
  7  8  1  0  0  0  0
 17 18  1  0  0  0  0
  3  4  1  0  0  0  0
  3  5  1  0  0  0  0
  3  6  1  0  0  0  0
 32 35  1  0  0  0  0
 32 36  1  0  0  0  0
 32 37  1  0  0  0  0
 11 14  1  0  0  0  0
 11 15  1  0  0  0  0
 11 16  1  0  0  0  0
 39 41  1  0  0  0  0
 39 42  1  0  0  0  0
 39 43  1  0  0  0  0
 21 25  1  0  0  0  0
 21 26  1  0  0  0  0
 29 34  1  0  0  0  0
  8 13  1  0  0  0  0
 18 24  1  0  0  0  0
 38 40  1  0  0  0  0
  7 12  1  0  0  0  0
 28 33  1  0  0  0  0
 17 23  1  0  0  0  0
 22 27  1  0  0  0  0
M  END
$$$$

  -OEChem-05262214473D

 43 42  0     1  0  0  0  0  0999 V2000
    0.7424   -1.0926    4.5665 C   0  0  0  0  0  0  0  0  0  0  0  0
    0.1409   -0.5364    5.4779 O   0  0  0  0  0  0  0  0  0  0  0  0
    1.7940   -2.1023    4.8871 C   0  0  0  0  0  0  0  0  0  0  0  0
    2.7935   -1.6502    4.9904 H   0  0  0  0  0  0  0  0  0  0  0  0
    1.6064   -2.6156    5.8438 H   0  0  0  0  0  0  0  0  0  0  0  0
    1.9156   -2.9078    4.1453 H   0  0  0  0  0  0  0  0  0  0  0  0
    0.5488   -0.8838    3.2109 N   0  0  0  0  0  0  0  0  0  0  0  0
   -0.4159    0.0446    2.6829 C   0  0  2  0  0  0  0  0  0  0  0  0
   -0.7551   -0.3867    1.2623 C   0  0  0  0  0  0  0  0  0  0  0  0
   -0.0106   -1.0851    0.5774 O   0  0  0  0  0  0  0  0  0  0  0  0
    0.1168    1.4689    2.7060 C   0  0  0  0  0  0  0  0  0  0  0  0
    1.1183   -1.4145    2.5542 H   0  0  0  0  0  0  0  0  0  0  0  0
   -1.3088   -0.0350    3.3125 H   0  0  0  0  0  0  0  0  0  0  0  0
    1.0116    1.5681    2.0808 H   0  0  0  0  0  0  0  0  0  0  0  0
   -0.6289    2.1775    2.3307 H   0  0  0  0  0  0  0  0  0  0  0  0
    0.3882    1.7670    3.7245 H   0  0  0  0  0  0  0  0  0  0  0  0
   -1.9689    0.1350    0.8298 N   0  0  0  0  0  0  0  0  0  0  0  0
   -2.5039   -0.1183   -0.4830 C   0  0  2  0  0  0  0  0  0  0  0  0
   -1.3789    0.0534   -1.4978 C   0  0  0  0  0  0  0  0  0  0  0  0
   -0.2233    0.3241   -1.1775 O   0  0  0  0  0  0  0  0  0  0  0  0
   -3.6936    0.7850   -0.7916 C   0  0  0  0  0  0  0  0  0  0  0  0
   -3.2740    2.1425   -0.8712 O   0  0  0  0  0  0  0  0  0  0  0  0
   -2.5276    0.6894    1.4750 H   0  0  0  0  0  0  0  0  0  0  0  0
   -2.8280   -1.1654   -0.4872 H   0  0  0  0  0  0  0  0  0  0  0  0
   -4.4568    0.7109   -0.0102 H   0  0  0  0  0  0  0  0  0  0  0  0
   -4.1458    0.5119   -1.7510 H   0  0  0  0  0  0  0  0  0  0  0  0
   -2.6177    2.1896   -1.5844 H   0  0  0  0  0  0  0  0  0  0  0  0
   -1.8088   -0.1735   -2.7975 N   0  0  0  0  0  0  0  0  0  0  0  0
   -0.9248   -0.1025   -3.9377 C   0  0  2  0  0  0  0  0  0  0  0  0
    0.4489   -0.5924   -3.4989 C   0  0  0  0  0  0  0  0  0  0  0  0
    0.8193   -0.5894   -2.3268 O   0  0  0  0  0  0  0  0  0  0  0  0
   -0.8465    1.3123   -4.4899 C   0  0  0  0  0  0  0  0  0  0  0  0
   -2.7766   -0.4322   -2.9652 H   0  0  0  0  0  0  0  0  0  0  0  0
   -1.3306   -0.7818   -4.6953 H   0  0  0  0  0  0  0  0  0  0  0  0
   -0.4422    2.0073   -3.7449 H   0  0  0  0  0  0  0  0  0  0  0  0
   -0.1985    1.3589   -5.3713 H   0  0  0  0  0  0  0  0  0  0  0  0
   -1.8397    1.6740   -4.7773 H   0  0  0  0  0  0  0  0  0  0  0  0
    1.2284   -0.9930   -4.5751 N   0  0  0  0  0  0  0  0  0  0  0  0
    2.5769   -1.4863   -4.4201 C   0  0  0  0  0  0  0  0  0  0  0  0
    0.8333   -0.9794   -5.5107 H   0  0  0  0  0  0  0  0  0  0  0  0
    3.2870   -0.6524   -4.5218 H   0  0  0  0  0  0  0  0  0  0  0  0
    2.6881   -1.9431   -3.4256 H   0  0  0  0  0  0  0  0  0  0  0  0
    2.7829   -2.2397   -5.1947 H   0  0  0  0  0  0  0  0  0  0  0  0
  1  3  1  0  0  0  0
  1  7  1  0  0  0  0
  1  2  2  0  0  0  0
 29 30  1  0  0  0  0
 30 38  1  0  0  0  0
 30 31  2  0  0  0  0
  8  9  1  0  0  0  0
  9 17  1  0  0  0  0
  9 10  2  0  0  0  0
 18 19  1  0  0  0  0
 19 28  1  0  0  0  0
 19 20  2  0  0  0  0
 29 32  1  0  0  0  0
  8 11  1  0  0  0  0
 38 39  1  0  0  0  0
 18 21  1  0  0  0  0
 21 22  1  0  0  0  0
 28 29  1  0  0  0  0
  7  8  1  0  0  0  0
 17 18  1  0  0  0  0
  3  4  1  0  0  0  0
  3  5  1  0  0  0  0
  3  6  1  0  0  0  0
 32 35  1  0  0  0  0
 32 36  1  0  0  0  0
 32 37  1  0  0  0  0
 11 14  1  0  0  0  0
 11 15  1  0  0  0  0
 11 16  1  0  0  0  0
 39 41  1  0  0  0  0
 39 42  1  0  0  0  0
 39 43  1  0  0  0  0
 21 25  1  0  0  0  0
 21 26  1  0  0  0  0
 29 34  1  0  0  0  0
  8 13  1  0  0  0  0
 18 24  1  0  0  0  0
 38 40  1  0  0  0  0
  7 12  1  0  0  0  0
 28 33  1  0  0  0  0
 17 23  1  0  0  0  0
 22 27  1  0  0  0  0
M  END
$$$$

  -OEChem-05262214473D

 43 42  0     1  0  0  0  0  0999 V2000
    0.7424   -1.0926    4.5665 C   0  0  0  0  0  0  0  0  0  0  0  0
    0.1409   -0.5364    5.4779 O   0  0  0  0  0  0  0  0  0  0  0  0
    1.7940   -2.1023    4.8871 C   0  0  0  0  0  0  0  0  0  0  0  0
    2.7935   -1.6502    4.9904 H   0  0  0  0  0  0  0  0  0  0  0  0
    1.6064   -2.6156    5.8438 H   0  0  0  0  0  0  0  0  0  0  0  0
    1.9156   -2.9078    4.1453 H   0  0  0  0  0  0  0  0  0  0  0  0
    0.5488   -0.8838    3.2109 N   0  0  0  0  0  0  0  0  0  0  0  0
   -0.4159    0.0446    2.6829 C   0  0  2  0  0  0  0  0  0  0  0  0
   -0.7551   -0.3867    1.2623 C   0  0  0  0  0  0  0  0  0  0  0  0
   -0.0106   -1.0851    0.5774 O   0  0  0  0  0  0  0  0  0  0  0  0
    0.1168    1.4689    2.7060 C   0  0  0  0  0  0  0  0  0  0  0  0
    1.1183   -1.4145    2.5542 H   0  0  0  0  0  0  0  0  0  0  0  0
   -1.3088   -0.0350    3.3125 H   0  0  0  0  0  0  0  0  0  0  0  0
    1.0116    1.5681    2.0808 H   0  0  0  0  0  0  0  0  0  0  0  0
   -0.6289    2.1775    2.3307 H   0  0  0  0  0  0  0  0  0  0  0  0
    0.3882    1.7670    3.7245 H   0  0  0  0  0  0  0  0  0  0  0  0
   -1.9689    0.1350    0.8298 N   0  0  0  0  0  0  0  0  0  0  0  0
   -2.5039   -0.1183   -0.4830 C   0  0  2  0  0  0  0  0  0  0  0  0
   -1.3789    0.0534   -1.4978 C   0  0  0  0  0  0  0  0  0  0  0  0
   -0.1899    0.0572   -1.1856 O   0  0  0  0  0  0  0  0  0  0  0  0
   -3.6936    0.7850   -0.7916 C   0  0  0  0  0  0  0  0  0  0  0  0
   -3.2740    2.1425   -0.8712 O   0  0  0  0  0  0  0  0  0  0  0  0
   -2.5276    0.6894    1.4750 H   0  0  0  0  0  0  0  0  0  0  0  0
   -2.8280   -1.1654   -0.4872 H   0  0  0  0  0  0  0  0  0  0  0  0
   -4.4568    0.7109   -0.0102 H   0  0  0  0  0  0  0  0  0  0  0  0
   -4.1458    0.5119   -1.7510 H   0  0  0  0  0  0  0  0  0  0  0  0
   -2.6177    2.1896   -1.5844 H   0  0  0  0  0  0  0  0  0  0  0  0
   -1.8580    0.1585   -2.7959 N   0  0  0  0  0  0  0  0  0  0  0  0
   -0.9895    0.2980   -3.9416 C   0  0  2  0  0  0  0  0  0  0  0  0
    0.2826   -0.4931   -3.6665 C   0  0  0  0  0  0  0  0  0  0  0  0
    0.6623   -0.7798   -2.5330 O   0  0  0  0  0  0  0  0  0  0  0  0
   -0.6715    1.7588   -4.2203 C   0  0  0  0  0  0  0  0  0  0  0  0
   -2.8582    0.1049   -2.9647 H   0  0  0  0  0  0  0  0  0  0  0  0
   -1.5173   -0.1431   -4.7942 H   0  0  0  0  0  0  0  0  0  0  0  0
   -0.1426    2.2177   -3.3771 H   0  0  0  0  0  0  0  0  0  0  0  0
   -0.0363    1.8646   -5.1060 H   0  0  0  0  0  0  0  0  0  0  0  0
   -1.5895    2.3322   -4.3885 H   0  0  0  0  0  0  0  0  0  0  0  0
    0.9665   -0.8040   -4.8334 N   0  0  0  0  0  0  0  0  0  0  0  0
    2.2096   -1.5392   -4.8362 C   0  0  0  0  0  0  0  0  0  0  0  0
    0.5683   -0.5428   -5.7307 H   0  0  0  0  0  0  0  0  0  0  0  0
    3.0534   -0.8339   -4.8115 H   0  0  0  0  0  0  0  0  0  0  0  0
    2.2514   -2.1919   -3.9518 H   0  0  0  0  0  0  0  0  0  0  0  0
    2.2709   -2.1522   -5.7476 H   0  0  0  0  0  0  0  0  0  0  0  0
  1  3  1  0  0  0  0
  1  7  1  0  0  0  0
  1  2  2  0  0  0  0
 29 30  1  0  0  0  0
 30 38  1  0  0  0  0
 30 31  2  0  0  0  0
  8  9  1  0  0  0  0
  9 17  1  0  0  0  0
  9 10  2  0  0  0  0
 18 19  1  0  0  0  0
 19 28  1  0  0  0  0
 19 20  2  0  0  0  0
 29 32  1  0  0  0  0
  8 11  1  0  0  0  0
 38 39  1  0  0  0  0
 18 21  1  0  0  0  0
 21 22  1  0  0  0  0
 28 29  1  0  0  0  0
  7  8  1  0  0  0  0
 17 18  1  0  0  0  0
  3  4  1  0  0  0  0
  3  5  1  0  0  0  0
  3  6  1  0  0  0  0
 32 35  1  0  0  0  0
 32 36  1  0  0  0  0
 32 37  1  0  0  0  0
 11 14  1  0  0  0  0
 11 15  1  0  0  0  0
 11 16  1  0  0  0  0
 39 41  1  0  0  0  0
 39 42  1  0  0  0  0
 39 43  1  0  0  0  0
 21 25  1  0  0  0  0
 21 26  1  0  0  0  0
 29 34  1  0  0  0  0
  8 13  1  0  0  0  0
 18 24  1  0  0  0  0
 38 40  1  0  0  0  0
  7 12  1  0  0  0  0
 28 33  1  0  0  0  0
 17 23  1  0  0  0  0
 22 27  1  0  0  0  0
M  END
$$$$

  -OEChem-05262214473D

 43 42  0     1  0  0  0  0  0999 V2000
    0.7424   -1.0926    4.5665 C   0  0  0  0  0  0  0  0  0  0  0  0
    0.1409   -0.5364    5.4779 O   0  0  0  0  0  0  0  0  0  0  0  0
    1.7940   -2.1023    4.8871 C   0  0  0  0  0  0  0  0  0  0  0  0
    2.7935   -1.6502    4.9904 H   0  0  0  0  0  0  0  0  0  0  0  0
    1.6064   -2.6156    5.8438 H   0  0  0  0  0  0  0  0  0  0  0  0
    1.9156   -2.9078    4.1453 H   0  0  0  0  0  0  0  0  0  0  0  0
    0.5488   -0.8838    3.2109 N   0  0  0  0  0  0  0  0  0  0  0  0
   -0.4159    0.0446    2.6829 C   0  0  2  0  0  0  0  0  0  0  0  0
   -0.7551   -0.3867    1.2623 C   0  0  0  0  0  0  0  0  0  0  0  0
   -0.0106   -1.0851    0.5774 O   0  0  0  0  0  0  0  0  0  0  0  0
    0.1168    1.4689    2.7060 C   0  0  0  0  0  0  0  0  0  0  0  0
    1.1183   -1.4145    2.5542 H   0  0  0  0  0  0  0  0  0  0  0  0
   -1.3088   -0.0350    3.3125 H   0  0  0  0  0  0  0  0  0  0  0  0
    1.0116    1.5681    2.0808 H   0  0  0  0  0  0  0  0  0  0  0  0
   -0.6289    2.1775    2.3307 H   0  0  0  0  0  0  0  0  0  0  0  0
    0.3882    1.7670    3.7245 H   0  0  0  0  0  0  0  0  0  0  0  0
   -1.9689    0.1350    0.8298 N   0  0  0  0  0  0  0  0  0  0  0  0
   -2.5039   -0.1183   -0.4830 C   0  0  2  0  0  0  0  0  0  0  0  0
   -1.3789    0.0534   -1.4978 C   0  0  0  0  0  0  0  0  0  0  0  0
   -0.2038   -0.2048   -1.2454 O   0  0  0  0  0  0  0  0  0  0  0  0
   -3.6936    0.7850   -0.7916 C   0  0  0  0  0  0  0  0  0  0  0  0
   -3.2740    2.1425   -0.8712 O   0  0  0  0  0  0  0  0  0  0  0  0
   -2.5276    0.6894    1.4750 H   0  0  0  0  0  0  0  0  0  0  0  0
   -2.8280   -1.1654   -0.4872 H   0  0  0  0  0  0  0  0  0  0  0  0
   -4.4568    0.7109   -0.0102 H   0  0  0  0  0  0  0  0  0  0  0  0
   -4.1458    0.5119   -1.7510 H   0  0  0  0  0  0  0  0  0  0  0  0
   -2.6177    2.1896   -1.5844 H   0  0  0  0  0  0  0  0  0  0  0  0
   -1.8483    0.4873   -2.7295 N   0  0  0  0  0  0  0  0  0  0  0  0
   -0.9830    0.6967   -3.8670 C   0  0  2  0  0  0  0  0  0  0  0  0
    0.1342   -0.3365   -3.8045 C   0  0  0  0  0  0  0  0  0  0  0  0
    0.4719   -0.8972   -2.7640 O   0  0  0  0  0  0  0  0  0  0  0  0
   -0.4178    2.1084   -3.8798 C   0  0  0  0  0  0  0  0  0  0  0  0
   -2.8444    0.6377   -2.8593 H   0  0  0  0  0  0  0  0  0  0  0  0
   -1.5905    0.5249   -4.7623 H   0  0  0  0  0  0  0  0  0  0  0  0
    0.1938    2.2991   -2.9904 H   0  0  0  0  0  0  0  0  0  0  0  0
    0.2151    2.2745   -4.7578 H   0  0  0  0  0  0  0  0  0  0  0  0
   -1.2232    2.8506   -3.8946 H   0  0  0  0  0  0  0  0  0  0  0  0
    0.7385   -0.5269   -5.0393 N   0  0  0  0  0  0  0  0  0  0  0  0
    1.8336   -1.4475   -5.2376 C   0  0  0  0  0  0  0  0  0  0  0  0
    0.3810   -0.0335   -5.8520 H   0  0  0  0  0  0  0  0  0  0  0  0
    2.7881   -0.9137   -5.1192 H   0  0  0  0  0  0  0  0  0  0  0  0
    1.7715   -2.2565   -4.4948 H   0  0  0  0  0  0  0  0  0  0  0  0
    1.7753   -1.8739   -6.2499 H   0  0  0  0  0  0  0  0  0  0  0  0
  1  3  1  0  0  0  0
  1  7  1  0  0  0  0
  1  2  2  0  0  0  0
 29 30  1  0  0  0  0
 30 38  1  0  0  0  0
 30 31  2  0  0  0  0
  8  9  1  0  0  0  0
  9 17  1  0  0  0  0
  9 10  2  0  0  0  0
 18 19  1  0  0  0  0
 19 28  1  0  0  0  0
 19 20  2  0  0  0  0
 29 32  1  0  0  0  0
  8 11  1  0  0  0  0
 38 39  1  0  0  0  0
 18 21  1  0  0  0  0
 21 22  1  0  0  0  0
 28 29  1  0  0  0  0
  7  8  1  0  0  0  0
 17 18  1  0  0  0  0
  3  4  1  0  0  0  0
  3  5  1  0  0  0  0
  3  6  1  0  0  0  0
 32 35  1  0  0  0  0
 32 36  1  0  0  0  0
 32 37  1  0  0  0  0
 11 14  1  0  0  0  0
 11 15  1  0  0  0  0
 11 16  1  0  0  0  0
 39 41  1  0  0  0  0
 39 42  1  0  0  0  0
 39 43  1  0  0  0  0
 21 25  1  0  0  0  0
 21 26  1  0  0  0  0
 29 34  1  0  0  0  0
  8 13  1  0  0  0  0
 18 24  1  0  0  0  0
 38 40  1  0  0  0  0
  7 12  1  0  0  0  0
 28 33  1  0  0  0  0
 17 23  1  0  0  0  0
 22 27  1  0  0  0  0
M  END
$$$$

  -OEChem-05262214473D

 43 42  0     1  0  0  0  0  0999 V2000
    0.7424   -1.0926    4.5665 C   0  0  0  0  0  0  0  0  0  0  0  0
    0.1409   -0.5364    5.4779 O   0  0  0  0  0  0  0  0  0  0  0  0
    1.7940   -2.1023    4.8871 C   0  0  0  0  0  0  0  0  0  0  0  0
    2.7935   -1.6502    4.9904 H   0  0  0  0  0  0  0  0  0  0  0  0
    1.6064   -2.6156    5.8438 H   0  0  0  0  0  0  0  0  0  0  0  0
    1.9156   -2.9078    4.1453 H   0  0  0  0  0  0  0  0  0  0  0  0
    0.5488   -0.8838    3.2109 N   0  0  0  0  0  0  0  0  0  0  0  0
   -0.4159    0.0446    2.6829 C   0  0  2  0  0  0  0  0  0  0  0  0
   -0.7551   -0.3867    1.2623 C   0  0  0  0  0  0  0  0  0  0  0  0
   -0.0106   -1.0851    0.5774 O   0  0  0  0  0  0  0  0  0  0  0  0
    0.1168    1.4689    2.7060 C   0  0  0  0  0  0  0  0  0  0  0  0
    1.1183   -1.4145    2.5542 H   0  0  0  0  0  0  0  0  0  0  0  0
   -1.3088   -0.0350    3.3125 H   0  0  0  0  0  0  0  0  0  0  0  0
    1.0116    1.5681    2.0808 H   0  0  0  0  0  0  0  0  0  0  0  0
   -0.6289    2.1775    2.3307 H   0  0  0  0  0  0  0  0  0  0  0  0
    0.3882    1.7670    3.7245 H   0  0  0  0  0  0  0  0  0  0  0  0
   -1.9689    0.1350    0.8298 N   0  0  0  0  0  0  0  0  0  0  0  0
   -2.5039   -0.1183   -0.4830 C   0  0  2  0  0  0  0  0  0  0  0  0
   -1.3789    0.0534   -1.4978 C   0  0  0  0  0  0  0  0  0  0  0  0
   -0.2641   -0.4440   -1.3527 O   0  0  0  0  0  0  0  0  0  0  0  0
   -3.6936    0.7850   -0.7916 C   0  0  0  0  0  0  0  0  0  0  0  0
   -3.2740    2.1425   -0.8712 O   0  0  0  0  0  0  0  0  0  0  0  0
   -2.5276    0.6894    1.4750 H   0  0  0  0  0  0  0  0  0  0  0  0
   -2.8280   -1.1654   -0.4872 H   0  0  0  0  0  0  0  0  0  0  0  0
   -4.4568    0.7109   -0.0102 H   0  0  0  0  0  0  0  0  0  0  0  0
   -4.1458    0.5119   -1.7510 H   0  0  0  0  0  0  0  0  0  0  0  0
   -2.6177    2.1896   -1.5844 H   0  0  0  0  0  0  0  0  0  0  0  0
   -1.7804    0.7906   -2.6028 N   0  0  0  0  0  0  0  0  0  0  0  0
   -0.9060    1.0665   -3.7190 C   0  0  2  0  0  0  0  0  0  0  0  0
    0.0138   -0.1333   -3.9036 C   0  0  0  0  0  0  0  0  0  0  0  0
    0.2610   -0.9337   -3.0040 O   0  0  0  0  0  0  0  0  0  0  0  0
   -0.1025    2.3374   -3.4915 C   0  0  0  0  0  0  0  0  0  0  0  0
   -2.7363    1.1298   -2.6561 H   0  0  0  0  0  0  0  0  0  0  0  0
   -1.5452    1.1767   -4.6018 H   0  0  0  0  0  0  0  0  0  0  0  0
    0.5440    2.2460   -2.6111 H   0  0  0  0  0  0  0  0  0  0  0  0
    0.5387    2.5606   -4.3506 H   0  0  0  0  0  0  0  0  0  0  0  0
   -0.7656    3.1940   -3.3293 H   0  0  0  0  0  0  0  0  0  0  0  0
    0.5600   -0.1808   -5.1786 N   0  0  0  0  0  0  0  0  0  0  0  0
    1.4745   -1.2175   -5.5968 C   0  0  0  0  0  0  0  0  0  0  0  0
    0.2844    0.5139   -5.8665 H   0  0  0  0  0  0  0  0  0  0  0  0
    2.5091   -0.8863   -5.4239 H   0  0  0  0  0  0  0  0  0  0  0  0
    1.2809   -2.1325   -5.0177 H   0  0  0  0  0  0  0  0  0  0  0  0
    1.3298   -1.4238   -6.6676 H   0  0  0  0  0  0  0  0  0  0  0  0
  1  3  1  0  0  0  0
  1  7  1  0  0  0  0
  1  2  2  0  0  0  0
 29 30  1  0  0  0  0
 30 38  1  0  0  0  0
 30 31  2  0  0  0  0
  8  9  1  0  0  0  0
  9 17  1  0  0  0  0
  9 10  2  0  0  0  0
 18 19  1  0  0  0  0
 19 28  1  0  0  0  0
 19 20  2  0  0  0  0
 29 32  1  0  0  0  0
  8 11  1  0  0  0  0
 38 39  1  0  0  0  0
 18 21  1  0  0  0  0
 21 22  1  0  0  0  0
 28 29  1  0  0  0  0
  7  8  1  0  0  0  0
 17 18  1  0  0  0  0
  3  4  1  0  0  0  0
  3  5  1  0  0  0  0
  3  6  1  0  0  0  0
 32 35  1  0  0  0  0
 32 36  1  0  0  0  0
 32 37  1  0  0  0  0
 11 14  1  0  0  0  0
 11 15  1  0  0  0  0
 11 16  1  0  0  0  0
 39 41  1  0  0  0  0
 39 42  1  0  0  0  0
 39 43  1  0  0  0  0
 21 25  1  0  0  0  0
 21 26  1  0  0  0  0
 29 34  1  0  0  0  0
  8 13  1  0  0  0  0
 18 24  1  0  0  0  0
 38 40  1  0  0  0  0
  7 12  1  0  0  0  0
 28 33  1  0  0  0  0
 17 23  1  0  0  0  0
 22 27  1  0  0  0  0
M  END
$$$$

  -OEChem-05262214473D

 43 42  0     1  0  0  0  0  0999 V2000
    0.7424   -1.0926    4.5665 C   0  0  0  0  0  0  0  0  0  0  0  0
    0.1409   -0.5364    5.4779 O   0  0  0  0  0  0  0  0  0  0  0  0
    1.7940   -2.1023    4.8871 C   0  0  0  0  0  0  0  0  0  0  0  0
    2.7935   -1.6502    4.9904 H   0  0  0  0  0  0  0  0  0  0  0  0
    1.6064   -2.6156    5.8438 H   0  0  0  0  0  0  0  0  0  0  0  0
    1.9156   -2.9078    4.1453 H   0  0  0  0  0  0  0  0  0  0  0  0
    0.5488   -0.8838    3.2109 N   0  0  0  0  0  0  0  0  0  0  0  0
   -0.4159    0.0446    2.6829 C   0  0  2  0  0  0  0  0  0  0  0  0
   -0.7551   -0.3867    1.2623 C   0  0  0  0  0  0  0  0  0  0  0  0
   -0.0106   -1.0851    0.5774 O   0  0  0  0  0  0  0  0  0  0  0  0
    0.1168    1.4689    2.7060 C   0  0  0  0  0  0  0  0  0  0  0  0
    1.1183   -1.4145    2.5542 H   0  0  0  0  0  0  0  0  0  0  0  0
   -1.3088   -0.0350    3.3125 H   0  0  0  0  0  0  0  0  0  0  0  0
    1.0116    1.5681    2.0808 H   0  0  0  0  0  0  0  0  0  0  0  0
   -0.6289    2.1775    2.3307 H   0  0  0  0  0  0  0  0  0  0  0  0
    0.3882    1.7670    3.7245 H   0  0  0  0  0  0  0  0  0  0  0  0
   -1.9689    0.1350    0.8298 N   0  0  0  0  0  0  0  0  0  0  0  0
   -2.5039   -0.1183   -0.4830 C   0  0  2  0  0  0  0  0  0  0  0  0
   -1.3789    0.0534   -1.4978 C   0  0  0  0  0  0  0  0  0  0  0  0
   -0.3667   -0.6442   -1.5003 O   0  0  0  0  0  0  0  0  0  0  0  0
   -3.6936    0.7850   -0.7916 C   0  0  0  0  0  0  0  0  0  0  0  0
   -3.2740    2.1425   -0.8712 O   0  0  0  0  0  0  0  0  0  0  0  0
   -2.5276    0.6894    1.4750 H   0  0  0  0  0  0  0  0  0  0  0  0
   -2.8280   -1.1654   -0.4872 H   0  0  0  0  0  0  0  0  0  0  0  0
   -4.4568    0.7109   -0.0102 H   0  0  0  0  0  0  0  0  0  0  0  0
   -4.1458    0.5119   -1.7510 H   0  0  0  0  0  0  0  0  0  0  0  0
   -2.6177    2.1896   -1.5844 H   0  0  0  0  0  0  0  0  0  0  0  0
   -1.6588    1.0477   -2.4245 N   0  0  0  0  0  0  0  0  0  0  0  0
   -0.7636    1.3821   -3.5077 C   0  0  2  0  0  0  0  0  0  0  0  0
   -0.0704    0.1026   -3.9570 C   0  0  0  0  0  0  0  0  0  0  0  0
    0.0440   -0.8868   -3.2367 O   0  0  0  0  0  0  0  0  0  0  0  0
    0.2528    2.4302   -3.0819 C   0  0  0  0  0  0  0  0  0  0  0  0
   -2.5412    1.5478   -2.3691 H   0  0  0  0  0  0  0  0  0  0  0  0
   -1.3845    1.7677   -4.3236 H   0  0  0  0  0  0  0  0  0  0  0  0
    0.8842    2.0619   -2.2651 H   0  0  0  0  0  0  0  0  0  0  0  0
    0.9125    2.7035   -3.9121 H   0  0  0  0  0  0  0  0  0  0  0  0
   -0.2481    3.3389   -2.7309 H   0  0  0  0  0  0  0  0  0  0  0  0
    0.4432    0.2109   -5.2418 N   0  0  0  0  0  0  0  0  0  0  0  0
    1.1567   -0.8649   -5.8894 C   0  0  0  0  0  0  0  0  0  0  0  0
    0.2849    1.0620   -5.7731 H   0  0  0  0  0  0  0  0  0  0  0  0
    2.2354   -0.7536   -5.7048 H   0  0  0  0  0  0  0  0  0  0  0  0
    0.8132   -1.8284   -5.4848 H   0  0  0  0  0  0  0  0  0  0  0  0
    0.9649   -0.8325   -6.9721 H   0  0  0  0  0  0  0  0  0  0  0  0
  1  3  1  0  0  0  0
  1  7  1  0  0  0  0
  1  2  2  0  0  0  0
 29 30  1  0  0  0  0
 30 38  1  0  0  0  0
 30 31  2  0  0  0  0
  8  9  1  0  0  0  0
  9 17  1  0  0  0  0
  9 10  2  0  0  0  0
 18 19  1  0  0  0  0
 19 28  1  0  0  0  0
 19 20  2  0  0  0  0
 29 32  1  0  0  0  0
  8 11  1  0  0  0  0
 38 39  1  0  0  0  0
 18 21  1  0  0  0  0
 21 22  1  0  0  0  0
 28 29  1  0  0  0  0
  7  8  1  0  0  0  0
 17 18  1  0  0  0  0
  3  4  1  0  0  0  0
  3  5  1  0  0  0  0
  3  6  1  0  0  0  0
 32 35  1  0  0  0  0
 32 36  1  0  0  0  0
 32 37  1  0  0  0  0
 11 14  1  0  0  0  0
 11 15  1  0  0  0  0
 11 16  1  0  0  0  0
 39 41  1  0  0  0  0
 39 42  1  0  0  0  0
 39 43  1  0  0  0  0
 21 25  1  0  0  0  0
 21 26  1  0  0  0  0
 29 34  1  0  0  0  0
  8 13  1  0  0  0  0
 18 24  1  0  0  0  0
 38 40  1  0  0  0  0
  7 12  1  0  0  0  0
 28 33  1  0  0  0  0
 17 23  1  0  0  0  0
 22 27  1  0  0  0  0
M  END
$$$$

  -OEChem-05262214473D

 43 42  0     1  0  0  0  0  0999 V2000
    0.7424   -1.0926    4.5665 C   0  0  0  0  0  0  0  0  0  0  0  0
    0.1409   -0.5364    5.4779 O   0  0  0  0  0  0  0  0  0  0  0  0
    1.7940   -2.1023    4.8871 C   0  0  0  0  0  0  0  0  0  0  0  0
    2.7935   -1.6502    4.9904 H   0  0  0  0  0  0  0  0  0  0  0  0
    1.6064   -2.6156    5.8438 H   0  0  0  0  0  0  0  0  0  0  0  0
    1.9156   -2.9078    4.1453 H   0  0  0  0  0  0  0  0  0  0  0  0
    0.5488   -0.8838    3.2109 N   0  0  0  0  0  0  0  0  0  0  0  0
   -0.4159    0.0446    2.6829 C   0  0  2  0  0  0  0  0  0  0  0  0
   -0.7551   -0.3867    1.2623 C   0  0  0  0  0  0  0  0  0  0  0  0
   -0.0106   -1.0851    0.5774 O   0  0  0  0  0  0  0  0  0  0  0  0
    0.1168    1.4689    2.7060 C   0  0  0  0  0  0  0  0  0  0  0  0
    1.1183   -1.4145    2.5542 H   0  0  0  0  0  0  0  0  0  0  0  0
   -1.3088   -0.0350    3.3125 H   0  0  0  0  0  0  0  0  0  0  0  0
    1.0116    1.5681    2.0808 H   0  0  0  0  0  0  0  0  0  0  0  0
   -0.6289    2.1775    2.3307 H   0  0  0  0  0  0  0  0  0  0  0  0
    0.3882    1.7670    3.7245 H   0  0  0  0  0  0  0  0  0  0  0  0
   -1.9689    0.1350    0.8298 N   0  0  0  0  0  0  0  0  0  0  0  0
   -2.5039   -0.1183   -0.4830 C   0  0  2  0  0  0  0  0  0  0  0  0
   -1.3789    0.0534   -1.4978 C   0  0  0  0  0  0  0  0  0  0  0  0
   -0.5046   -0.7917   -1.6782 O   0  0  0  0  0  0  0  0  0  0  0  0
   -3.6936    0.7850   -0.7916 C   0  0  0  0  0  0  0  0  0  0  0  0
   -3.2740    2.1425   -0.8712 O   0  0  0  0  0  0  0  0  0  0  0  0
   -2.5276    0.6894    1.4750 H   0  0  0  0  0  0  0  0  0  0  0  0
   -2.8280   -1.1654   -0.4872 H   0  0  0  0  0  0  0  0  0  0  0  0
   -4.4568    0.7109   -0.0102 H   0  0  0  0  0  0  0  0  0  0  0  0
   -4.1458    0.5119   -1.7510 H   0  0  0  0  0  0  0  0  0  0  0  0
   -2.6177    2.1896   -1.5844 H   0  0  0  0  0  0  0  0  0  0  0  0
   -1.4919    1.2410   -2.2067 N   0  0  0  0  0  0  0  0  0  0  0  0
   -0.5655    1.6221   -3.2474 C   0  0  2  0  0  0  0  0  0  0  0  0
   -0.1127    0.3552   -3.9611 C   0  0  0  0  0  0  0  0  0  0  0  0
   -0.1644   -0.7597   -3.4461 O   0  0  0  0  0  0  0  0  0  0  0  0
    0.6239    2.3803   -2.6789 C   0  0  0  0  0  0  0  0  0  0  0  0
   -2.2723    1.8630   -2.0176 H   0  0  0  0  0  0  0  0  0  0  0  0
   -1.1194    2.2579   -3.9467 H   0  0  0  0  0  0  0  0  0  0  0  0
    1.1912    1.7594   -1.9760 H   0  0  0  0  0  0  0  0  0  0  0  0
    1.3109    2.6933   -3.4721 H   0  0  0  0  0  0  0  0  0  0  0  0
    0.2943    3.2754   -2.1404 H   0  0  0  0  0  0  0  0  0  0  0  0
    0.3960    0.6215   -5.2247 N   0  0  0  0  0  0  0  0  0  0  0  0
    0.9020   -0.4138   -6.0954 C   0  0  0  0  0  0  0  0  0  0  0  0
    0.3826    1.5736   -5.5783 H   0  0  0  0  0  0  0  0  0  0  0  0
    1.9858   -0.5246   -5.9428 H   0  0  0  0  0  0  0  0  0  0  0  0
    0.4001   -1.3649   -5.8643 H   0  0  0  0  0  0  0  0  0  0  0  0
    0.7054   -0.1404   -7.1426 H   0  0  0  0  0  0  0  0  0  0  0  0
  1  3  1  0  0  0  0
  1  7  1  0  0  0  0
  1  2  2  0  0  0  0
 29 30  1  0  0  0  0
 30 38  1  0  0  0  0
 30 31  2  0  0  0  0
  8  9  1  0  0  0  0
  9 17  1  0  0  0  0
  9 10  2  0  0  0  0
 18 19  1  0  0  0  0
 19 28  1  0  0  0  0
 19 20  2  0  0  0  0
 29 32  1  0  0  0  0
  8 11  1  0  0  0  0
 38 39  1  0  0  0  0
 18 21  1  0  0  0  0
 21 22  1  0  0  0  0
 28 29  1  0  0  0  0
  7  8  1  0  0  0  0
 17 18  1  0  0  0  0
  3  4  1  0  0  0  0
  3  5  1  0  0  0  0
  3  6  1  0  0  0  0
 32 35  1  0  0  0  0
 32 36  1  0  0  0  0
 32 37  1  0  0  0  0
 11 14  1  0  0  0  0
 11 15  1  0  0  0  0
 11 16  1  0  0  0  0
 39 41  1  0  0  0  0
 39 42  1  0  0  0  0
 39 43  1  0  0  0  0
 21 25  1  0  0  0  0
 21 26  1  0  0  0  0
 29 34  1  0  0  0  0
  8 13  1  0  0  0  0
 18 24  1  0  0  0  0
 38 40  1  0  0  0  0
  7 12  1  0  0  0  0
 28 33  1  0  0  0  0
 17 23  1  0  0  0  0
 22 27  1  0  0  0  0
M  END
$$$$

  -OEChem-05262214473D

 43 42  0     1  0  0  0  0  0999 V2000
    0.7424   -1.0926    4.5665 C   0  0  0  0  0  0  0  0  0  0  0  0
    0.1409   -0.5364    5.4779 O   0  0  0  0  0  0  0  0  0  0  0  0
    1.7940   -2.1023    4.8871 C   0  0  0  0  0  0  0  0  0  0  0  0
    2.7935   -1.6502    4.9904 H   0  0  0  0  0  0  0  0  0  0  0  0
    1.6064   -2.6156    5.8438 H   0  0  0  0  0  0  0  0  0  0  0  0
    1.9156   -2.9078    4.1453 H   0  0  0  0  0  0  0  0  0  0  0  0
    0.5488   -0.8838    3.2109 N   0  0  0  0  0  0  0  0  0  0  0  0
   -0.4159    0.0446    2.6829 C   0  0  2  0  0  0  0  0  0  0  0  0
   -0.7551   -0.3867    1.2623 C   0  0  0  0  0  0  0  0  0  0  0  0
   -0.0106   -1.0851    0.5774 O   0  0  0  0  0  0  0  0  0  0  0  0
    0.1168    1.4689    2.7060 C   0  0  0  0  0  0  0  0  0  0  0  0
    1.1183   -1.4145    2.5542 H   0  0  0  0  0  0  0  0  0  0  0  0
   -1.3088   -0.0350    3.3125 H   0  0  0  0  0  0  0  0  0  0  0  0
    1.0116    1.5681    2.0808 H   0  0  0  0  0  0  0  0  0  0  0  0
   -0.6289    2.1775    2.3307 H   0  0  0  0  0  0  0  0  0  0  0  0
    0.3882    1.7670    3.7245 H   0  0  0  0  0  0  0  0  0  0  0  0
   -1.9689    0.1350    0.8298 N   0  0  0  0  0  0  0  0  0  0  0  0
   -2.5039   -0.1183   -0.4830 C   0  0  2  0  0  0  0  0  0  0  0  0
   -1.3789    0.0534   -1.4978 C   0  0  0  0  0  0  0  0  0  0  0  0
   -0.6684   -0.8765   -1.8741 O   0  0  0  0  0  0  0  0  0  0  0  0
   -3.6936    0.7850   -0.7916 C   0  0  0  0  0  0  0  0  0  0  0  0
   -3.2740    2.1425   -0.8712 O   0  0  0  0  0  0  0  0  0  0  0  0
   -2.5276    0.6894    1.4750 H   0  0  0  0  0  0  0  0  0  0  0  0
   -2.8280   -1.1654   -0.4872 H   0  0  0  0  0  0  0  0  0  0  0  0
   -4.4568    0.7109   -0.0102 H   0  0  0  0  0  0  0  0  0  0  0  0
   -4.1458    0.5119   -1.7510 H   0  0  0  0  0  0  0  0  0  0  0  0
   -2.6177    2.1896   -1.5844 H   0  0  0  0  0  0  0  0  0  0  0  0
   -1.2910    1.3574   -1.9643 N   0  0  0  0  0  0  0  0  0  0  0  0
   -0.3252    1.7701   -2.9559 C   0  0  2  0  0  0  0  0  0  0  0  0
   -0.1101    0.6073   -3.9156 C   0  0  0  0  0  0  0  0  0  0  0  0
   -0.3498   -0.5611   -3.6181 O   0  0  0  0  0  0  0  0  0  0  0  0
    0.9856    2.1913   -2.3100 C   0  0  0  0  0  0  0  0  0  0  0  0
   -1.9481    2.0541   -1.6258 H   0  0  0  0  0  0  0  0  0  0  0  0
   -0.7679    2.6137   -3.4968 H   0  0  0  0  0  0  0  0  0  0  0  0
    1.4440    1.3591   -1.7634 H   0  0  0  0  0  0  0  0  0  0  0  0
    1.7068    2.5309   -3.0607 H   0  0  0  0  0  0  0  0  0  0  0  0
    0.8244    3.0079   -1.5979 H   0  0  0  0  0  0  0  0  0  0  0  0
    0.4216    1.0229   -5.1283 N   0  0  0  0  0  0  0  0  0  0  0  0
    0.7277    0.1053   -6.2008 C   0  0  0  0  0  0  0  0  0  0  0  0
    0.5707    2.0137   -5.2952 H   0  0  0  0  0  0  0  0  0  0  0  0
    1.7771   -0.2150   -6.1217 H   0  0  0  0  0  0  0  0  0  0  0  0
    0.0700   -0.7736   -6.1302 H   0  0  0  0  0  0  0  0  0  0  0  0
    0.5690    0.6054   -7.1676 H   0  0  0  0  0  0  0  0  0  0  0  0
  1  3  1  0  0  0  0
  1  7  1  0  0  0  0
  1  2  2  0  0  0  0
 29 30  1  0  0  0  0
 30 38  1  0  0  0  0
 30 31  2  0  0  0  0
  8  9  1  0  0  0  0
  9 17  1  0  0  0  0
  9 10  2  0  0  0  0
 18 19  1  0  0  0  0
 19 28  1  0  0  0  0
 19 20  2  0  0  0  0
 29 32  1  0  0  0  0
  8 11  1  0  0  0  0
 38 39  1  0  0  0  0
 18 21  1  0  0  0  0
 21 22  1  0  0  0  0
 28 29  1  0  0  0  0
  7  8  1  0  0  0  0
 17 18  1  0  0  0  0
  3  4  1  0  0  0  0
  3  5  1  0  0  0  0
  3  6  1  0  0  0  0
 32 35  1  0  0  0  0
 32 36  1  0  0  0  0
 32 37  1  0  0  0  0
 11 14  1  0  0  0  0
 11 15  1  0  0  0  0
 11 16  1  0  0  0  0
 39 41  1  0  0  0  0
 39 42  1  0  0  0  0
 39 43  1  0  0  0  0
 21 25  1  0  0  0  0
 21 26  1  0  0  0  0
 29 34  1  0  0  0  0
  8 13  1  0  0  0  0
 18 24  1  0  0  0  0
 38 40  1  0  0  0  0
  7 12  1  0  0  0  0
 28 33  1  0  0  0  0
 17 23  1  0  0  0  0
 22 27  1  0  0  0  0
M  END
$$$$

  -OEChem-05262214473D

 43 42  0     1  0  0  0  0  0999 V2000
    0.7424   -1.0926    4.5665 C   0  0  0  0  0  0  0  0  0  0  0  0
    0.1409   -0.5364    5.4779 O   0  0  0  0  0  0  0  0  0  0  0  0
    1.7940   -2.1023    4.8871 C   0  0  0  0  0  0  0  0  0  0  0  0
    2.7935   -1.6502    4.9904 H   0  0  0  0  0  0  0  0  0  0  0  0
    1.6064   -2.6156    5.8438 H   0  0  0  0  0  0  0  0  0  0  0  0
    1.9156   -2.9078    4.1453 H   0  0  0  0  0  0  0  0  0  0  0  0
    0.5488   -0.8838    3.2109 N   0  0  0  0  0  0  0  0  0  0  0  0
   -0.4159    0.0446    2.6829 C   0  0  2  0  0  0  0  0  0  0  0  0
   -0.7551   -0.3867    1.2623 C   0  0  0  0  0  0  0  0  0  0  0  0
   -0.0106   -1.0851    0.5774 O   0  0  0  0  0  0  0  0  0  0  0  0
    0.1168    1.4689    2.7060 C   0  0  0  0  0  0  0  0  0  0  0  0
    1.1183   -1.4145    2.5542 H   0  0  0  0  0  0  0  0  0  0  0  0
   -1.3088   -0.0350    3.3125 H   0  0  0  0  0  0  0  0  0  0  0  0
    1.0116    1.5681    2.0808 H   0  0  0  0  0  0  0  0  0  0  0  0
   -0.6289    2.1775    2.3307 H   0  0  0  0  0  0  0  0  0  0  0  0
    0.3882    1.7670    3.7245 H   0  0  0  0  0  0  0  0  0  0  0  0
   -1.9689    0.1350    0.8298 N   0  0  0  0  0  0  0  0  0  0  0  0
   -2.5039   -0.1183   -0.4830 C   0  0  2  0  0  0  0  0  0  0  0  0
   -1.3789    0.0534   -1.4978 C   0  0  0  0  0  0  0  0  0  0  0  0
   -0.8469   -0.8927   -2.0748 O   0  0  0  0  0  0  0  0  0  0  0  0
   -3.6936    0.7850   -0.7916 C   0  0  0  0  0  0  0  0  0  0  0  0
   -3.2740    2.1425   -0.8712 O   0  0  0  0  0  0  0  0  0  0  0  0
   -2.5276    0.6894    1.4750 H   0  0  0  0  0  0  0  0  0  0  0  0
   -2.8280   -1.1654   -0.4872 H   0  0  0  0  0  0  0  0  0  0  0  0
   -4.4568    0.7109   -0.0102 H   0  0  0  0  0  0  0  0  0  0  0  0
   -4.1458    0.5119   -1.7510 H   0  0  0  0  0  0  0  0  0  0  0  0
   -2.6177    2.1896   -1.5844 H   0  0  0  0  0  0  0  0  0  0  0  0
   -1.0699    1.3889   -1.7138 N   0  0  0  0  0  0  0  0  0  0  0  0
   -0.0591    1.8161   -2.6532 C   0  0  2  0  0  0  0  0  0  0  0  0
   -0.0629    0.8416   -3.8236 C   0  0  0  0  0  0  0  0  0  0  0  0
   -0.4997   -0.3045   -3.7408 O   0  0  0  0  0  0  0  0  0  0  0  0
    1.3131    1.8760   -2.0002 C   0  0  0  0  0  0  0  0  0  0  0  0
   -1.5905    2.1080   -1.2203 H   0  0  0  0  0  0  0  0  0  0  0  0
   -0.3540    2.8109   -3.0045 H   0  0  0  0  0  0  0  0  0  0  0  0
    1.6255    0.8883   -1.6419 H   0  0  0  0  0  0  0  0  0  0  0  0
    2.0732    2.2272   -2.7058 H   0  0  0  0  0  0  0  0  0  0  0  0
    1.3063    2.5546   -1.1405 H   0  0  0  0  0  0  0  0  0  0  0  0
    0.5183    1.3878   -4.9594 N   0  0  0  0  0  0  0  0  0  0  0  0
    0.6457    0.6568   -6.1984 C   0  0  0  0  0  0  0  0  0  0  0  0
    0.8365    2.3523   -4.9433 H   0  0  0  0  0  0  0  0  0  0  0  0
    1.6237    0.1542   -6.2294 H   0  0  0  0  0  0  0  0  0  0  0  0
   -0.1549   -0.0947   -6.2646 H   0  0  0  0  0  0  0  0  0  0  0  0
    0.5649    1.3540   -7.0454 H   0  0  0  0  0  0  0  0  0  0  0  0
  1  3  1  0  0  0  0
  1  7  1  0  0  0  0
  1  2  2  0  0  0  0
 29 30  1  0  0  0  0
 30 38  1  0  0  0  0
 30 31  2  0  0  0  0
  8  9  1  0  0  0  0
  9 17  1  0  0  0  0
  9 10  2  0  0  0  0
 18 19  1  0  0  0  0
 19 28  1  0  0  0  0
 19 20  2  0  0  0  0
 29 32  1  0  0  0  0
  8 11  1  0  0  0  0
 38 39  1  0  0  0  0
 18 21  1  0  0  0  0
 21 22  1  0  0  0  0
 28 29  1  0  0  0  0
  7  8  1  0  0  0  0
 17 18  1  0  0  0  0
  3  4  1  0  0  0  0
  3  5  1  0  0  0  0
  3  6  1  0  0  0  0
 32 35  1  0  0  0  0
 32 36  1  0  0  0  0
 32 37  1  0  0  0  0
 11 14  1  0  0  0  0
 11 15  1  0  0  0  0
 11 16  1  0  0  0  0
 39 41  1  0  0  0  0
 39 42  1  0  0  0  0
 39 43  1  0  0  0  0
 21 25  1  0  0  0  0
 21 26  1  0  0  0  0
 29 34  1  0  0  0  0
  8 13  1  0  0  0  0
 18 24  1  0  0  0  0
 38 40  1  0  0  0  0
  7 12  1  0  0  0  0
 28 33  1  0  0  0  0
 17 23  1  0  0  0  0
 22 27  1  0  0  0  0
M  END
$$$$

  -OEChem-05262214473D

 43 42  0     1  0  0  0  0  0999 V2000
    0.7424   -1.0926    4.5665 C   0  0  0  0  0  0  0  0  0  0  0  0
    0.1409   -0.5364    5.4779 O   0  0  0  0  0  0  0  0  0  0  0  0
    1.7940   -2.1023    4.8871 C   0  0  0  0  0  0  0  0  0  0  0  0
    2.7935   -1.6502    4.9904 H   0  0  0  0  0  0  0  0  0  0  0  0
    1.6064   -2.6156    5.8438 H   0  0  0  0  0  0  0  0  0  0  0  0
    1.9156   -2.9078    4.1453 H   0  0  0  0  0  0  0  0  0  0  0  0
    0.5488   -0.8838    3.2109 N   0  0  0  0  0  0  0  0  0  0  0  0
   -0.4159    0.0446    2.6829 C   0  0  2  0  0  0  0  0  0  0  0  0
   -0.7551   -0.3867    1.2623 C   0  0  0  0  0  0  0  0  0  0  0  0
   -0.0106   -1.0851    0.5774 O   0  0  0  0  0  0  0  0  0  0  0  0
    0.1168    1.4689    2.7060 C   0  0  0  0  0  0  0  0  0  0  0  0
    1.1183   -1.4145    2.5542 H   0  0  0  0  0  0  0  0  0  0  0  0
   -1.3088   -0.0350    3.3125 H   0  0  0  0  0  0  0  0  0  0  0  0
    1.0116    1.5681    2.0808 H   0  0  0  0  0  0  0  0  0  0  0  0
   -0.6289    2.1775    2.3307 H   0  0  0  0  0  0  0  0  0  0  0  0
    0.3882    1.7670    3.7245 H   0  0  0  0  0  0  0  0  0  0  0  0
   -1.9689    0.1350    0.8298 N   0  0  0  0  0  0  0  0  0  0  0  0
   -2.5039   -0.1183   -0.4830 C   0  0  2  0  0  0  0  0  0  0  0  0
   -1.3789    0.0534   -1.4978 C   0  0  0  0  0  0  0  0  0  0  0  0
   -1.0280   -0.8394   -2.2665 O   0  0  0  0  0  0  0  0  0  0  0  0
   -3.6936    0.7850   -0.7916 C   0  0  0  0  0  0  0  0  0  0  0  0
   -3.2740    2.1425   -0.8712 O   0  0  0  0  0  0  0  0  0  0  0  0
   -2.5276    0.6894    1.4750 H   0  0  0  0  0  0  0  0  0  0  0  0
   -2.8280   -1.1654   -0.4872 H   0  0  0  0  0  0  0  0  0  0  0  0
   -4.4568    0.7109   -0.0102 H   0  0  0  0  0  0  0  0  0  0  0  0
   -4.1458    0.5119   -1.7510 H   0  0  0  0  0  0  0  0  0  0  0  0
   -2.6177    2.1896   -1.5844 H   0  0  0  0  0  0  0  0  0  0  0  0
   -0.8436    1.3335   -1.4723 N   0  0  0  0  0  0  0  0  0  0  0  0
    0.2147    1.7568   -2.3597 C   0  0  2  0  0  0  0  0  0  0  0  0
    0.0258    1.0422   -3.6913 C   0  0  0  0  0  0  0  0  0  0  0  0
   -0.6039   -0.0073   -3.8060 O   0  0  0  0  0  0  0  0  0  0  0  0
    1.5841    1.4558   -1.7708 C   0  0  0  0  0  0  0  0  0  0  0  0
   -1.2241    2.0211   -0.8288 H   0  0  0  0  0  0  0  0  0  0  0  0
    0.0942    2.8360   -2.5034 H   0  0  0  0  0  0  0  0  0  0  0  0
    1.7233    0.3791   -1.6197 H   0  0  0  0  0  0  0  0  0  0  0  0
    2.3852    1.8030   -2.4317 H   0  0  0  0  0  0  0  0  0  0  0  0
    1.7069    1.9464   -0.7992 H   0  0  0  0  0  0  0  0  0  0  0  0
    0.6794    1.6914   -4.7293 N   0  0  0  0  0  0  0  0  0  0  0  0
    0.6615    1.2031   -6.0884 C   0  0  0  0  0  0  0  0  0  0  0  0
    1.1618    2.5664   -4.5464 H   0  0  0  0  0  0  0  0  0  0  0  0
    1.5359    0.5578   -6.2583 H   0  0  0  0  0  0  0  0  0  0  0  0
   -0.2590    0.6253   -6.2582 H   0  0  0  0  0  0  0  0  0  0  0  0
    0.6936    2.0545   -6.7842 H   0  0  0  0  0  0  0  0  0  0  0  0
  1  3  1  0  0  0  0
  1  7  1  0  0  0  0
  1  2  2  0  0  0  0
 29 30  1  0  0  0  0
 30 38  1  0  0  0  0
 30 31  2  0  0  0  0
  8  9  1  0  0  0  0
  9 17  1  0  0  0  0
  9 10  2  0  0  0  0
 18 19  1  0  0  0  0
 19 28  1  0  0  0  0
 19 20  2  0  0  0  0
 29 32  1  0  0  0  0
  8 11  1  0  0  0  0
 38 39  1  0  0  0  0
 18 21  1  0  0  0  0
 21 22  1  0  0  0  0
 28 29  1  0  0  0  0
  7  8  1  0  0  0  0
 17 18  1  0  0  0  0
  3  4  1  0  0  0  0
  3  5  1  0  0  0  0
  3  6  1  0  0  0  0
 32 35  1  0  0  0  0
 32 36  1  0  0  0  0
 32 37  1  0  0  0  0
 11 14  1  0  0  0  0
 11 15  1  0  0  0  0
 11 16  1  0  0  0  0
 39 41  1  0  0  0  0
 39 42  1  0  0  0  0
 39 43  1  0  0  0  0
 21 25  1  0  0  0  0
 21 26  1  0  0  0  0
 29 34  1  0  0  0  0
  8 13  1  0  0  0  0
 18 24  1  0  0  0  0
 38 40  1  0  0  0  0
  7 12  1  0  0  0  0
 28 33  1  0  0  0  0
 17 23  1  0  0  0  0
 22 27  1  0  0  0  0
M  END
$$$$

  -OEChem-05262214473D

 43 42  0     1  0  0  0  0  0999 V2000
    0.7424   -1.0926    4.5665 C   0  0  0  0  0  0  0  0  0  0  0  0
    0.1409   -0.5364    5.4779 O   0  0  0  0  0  0  0  0  0  0  0  0
    1.7940   -2.1023    4.8871 C   0  0  0  0  0  0  0  0  0  0  0  0
    2.7935   -1.6502    4.9904 H   0  0  0  0  0  0  0  0  0  0  0  0
    1.6064   -2.6156    5.8438 H   0  0  0  0  0  0  0  0  0  0  0  0
    1.9156   -2.9078    4.1453 H   0  0  0  0  0  0  0  0  0  0  0  0
    0.5488   -0.8838    3.2109 N   0  0  0  0  0  0  0  0  0  0  0  0
   -0.4159    0.0446    2.6829 C   0  0  2  0  0  0  0  0  0  0  0  0
   -0.7551   -0.3867    1.2623 C   0  0  0  0  0  0  0  0  0  0  0  0
   -0.0106   -1.0851    0.5774 O   0  0  0  0  0  0  0  0  0  0  0  0
    0.1168    1.4689    2.7060 C   0  0  0  0  0  0  0  0  0  0  0  0
    1.1183   -1.4145    2.5542 H   0  0  0  0  0  0  0  0  0  0  0  0
   -1.3088   -0.0350    3.3125 H   0  0  0  0  0  0  0  0  0  0  0  0
    1.0116    1.5681    2.0808 H   0  0  0  0  0  0  0  0  0  0  0  0
   -0.6289    2.1775    2.3307 H   0  0  0  0  0  0  0  0  0  0  0  0
    0.3882    1.7670    3.7245 H   0  0  0  0  0  0  0  0  0  0  0  0
   -1.9689    0.1350    0.8298 N   0  0  0  0  0  0  0  0  0  0  0  0
   -2.5039   -0.1183   -0.4830 C   0  0  2  0  0  0  0  0  0  0  0  0
   -1.3789    0.0534   -1.4978 C   0  0  0  0  0  0  0  0  0  0  0  0
   -1.1993   -0.7200   -2.4362 O   0  0  0  0  0  0  0  0  0  0  0  0
   -3.6936    0.7850   -0.7916 C   0  0  0  0  0  0  0  0  0  0  0  0
   -3.2740    2.1425   -0.8712 O   0  0  0  0  0  0  0  0  0  0  0  0
   -2.5276    0.6894    1.4750 H   0  0  0  0  0  0  0  0  0  0  0  0
   -2.8280   -1.1654   -0.4872 H   0  0  0  0  0  0  0  0  0  0  0  0
   -4.4568    0.7109   -0.0102 H   0  0  0  0  0  0  0  0  0  0  0  0
   -4.1458    0.5119   -1.7510 H   0  0  0  0  0  0  0  0  0  0  0  0
   -2.6177    2.1896   -1.5844 H   0  0  0  0  0  0  0  0  0  0  0  0
   -0.6274    1.1948   -1.2562 N   0  0  0  0  0  0  0  0  0  0  0  0
    0.4775    1.5963   -2.0955 C   0  0  2  0  0  0  0  0  0  0  0  0
    0.1499    1.1955   -3.5278 C   0  0  0  0  0  0  0  0  0  0  0  0
   -0.6552    0.3101   -3.8092 O   0  0  0  0  0  0  0  0  0  0  0  0
    1.7803    0.9595   -1.6374 C   0  0  0  0  0  0  0  0  0  0  0  0
   -0.8737    1.7992   -0.4779 H   0  0  0  0  0  0  0  0  0  0  0  0
    0.5460    2.6875   -2.0276 H   0  0  0  0  0  0  0  0  0  0  0  0
    1.7306   -0.1338   -1.6984 H   0  0  0  0  0  0  0  0  0  0  0  0
    2.6215    1.2872   -2.2570 H   0  0  0  0  0  0  0  0  0  0  0  0
    1.9991    1.2248   -0.5974 H   0  0  0  0  0  0  0  0  0  0  0  0
    0.8941    1.9130   -4.4538 N   0  0  0  0  0  0  0  0  0  0  0  0
    0.7741    1.7072   -5.8783 C   0  0  0  0  0  0  0  0  0  0  0  0
    1.5244    2.6414   -4.1316 H   0  0  0  0  0  0  0  0  0  0  0  0
    1.5198    0.9683   -6.2067 H   0  0  0  0  0  0  0  0  0  0  0  0
   -0.2354    1.3376   -6.1115 H   0  0  0  0  0  0  0  0  0  0  0  0
    0.9461    2.6591   -6.4020 H   0  0  0  0  0  0  0  0  0  0  0  0
  1  3  1  0  0  0  0
  1  7  1  0  0  0  0
  1  2  2  0  0  0  0
 29 30  1  0  0  0  0
 30 38  1  0  0  0  0
 30 31  2  0  0  0  0
  8  9  1  0  0  0  0
  9 17  1  0  0  0  0
  9 10  2  0  0  0  0
 18 19  1  0  0  0  0
 19 28  1  0  0  0  0
 19 20  2  0  0  0  0
 29 32  1  0  0  0  0
  8 11  1  0  0  0  0
 38 39  1  0  0  0  0
 18 21  1  0  0  0  0
 21 22  1  0  0  0  0
 28 29  1  0  0  0  0
  7  8  1  0  0  0  0
 17 18  1  0  0  0  0
  3  4  1  0  0  0  0
  3  5  1  0  0  0  0
  3  6  1  0  0  0  0
 32 35  1  0  0  0  0
 32 36  1  0  0  0  0
 32 37  1  0  0  0  0
 11 14  1  0  0  0  0
 11 15  1  0  0  0  0
 11 16  1  0  0  0  0
 39 41  1  0  0  0  0
 39 42  1  0  0  0  0
 39 43  1  0  0  0  0
 21 25  1  0  0  0  0
 21 26  1  0  0  0  0
 29 34  1  0  0  0  0
  8 13  1  0  0  0  0
 18 24  1  0  0  0  0
 38 40  1  0  0  0  0
  7 12  1  0  0  0  0
 28 33  1  0  0  0  0
 17 23  1  0  0  0  0
 22 27  1  0  0  0  0
M  END
$$$$

  -OEChem-05262214473D

 43 42  0     1  0  0  0  0  0999 V2000
    0.7424   -1.0926    4.5665 C   0  0  0  0  0  0  0  0  0  0  0  0
    0.1409   -0.5364    5.4779 O   0  0  0  0  0  0  0  0  0  0  0  0
    1.7940   -2.1023    4.8871 C   0  0  0  0  0  0  0  0  0  0  0  0
    2.7935   -1.6502    4.9904 H   0  0  0  0  0  0  0  0  0  0  0  0
    1.6064   -2.6156    5.8438 H   0  0  0  0  0  0  0  0  0  0  0  0
    1.9156   -2.9078    4.1453 H   0  0  0  0  0  0  0  0  0  0  0  0
    0.5488   -0.8838    3.2109 N   0  0  0  0  0  0  0  0  0  0  0  0
   -0.4159    0.0446    2.6829 C   0  0  2  0  0  0  0  0  0  0  0  0
   -0.7551   -0.3867    1.2623 C   0  0  0  0  0  0  0  0  0  0  0  0
   -0.0106   -1.0851    0.5774 O   0  0  0  0  0  0  0  0  0  0  0  0
    0.1168    1.4689    2.7060 C   0  0  0  0  0  0  0  0  0  0  0  0
    1.1183   -1.4145    2.5542 H   0  0  0  0  0  0  0  0  0  0  0  0
   -1.3088   -0.0350    3.3125 H   0  0  0  0  0  0  0  0  0  0  0  0
    1.0116    1.5681    2.0808 H   0  0  0  0  0  0  0  0  0  0  0  0
   -0.6289    2.1775    2.3307 H   0  0  0  0  0  0  0  0  0  0  0  0
    0.3882    1.7670    3.7245 H   0  0  0  0  0  0  0  0  0  0  0  0
   -1.9689    0.1350    0.8298 N   0  0  0  0  0  0  0  0  0  0  0  0
   -2.5039   -0.1183   -0.4830 C   0  0  2  0  0  0  0  0  0  0  0  0
   -1.3789    0.0534   -1.4978 C   0  0  0  0  0  0  0  0  0  0  0  0
   -1.3491   -0.5428   -2.5724 O   0  0  0  0  0  0  0  0  0  0  0  0
   -3.6936    0.7850   -0.7916 C   0  0  0  0  0  0  0  0  0  0  0  0
   -3.2740    2.1425   -0.8712 O   0  0  0  0  0  0  0  0  0  0  0  0
   -2.5276    0.6894    1.4750 H   0  0  0  0  0  0  0  0  0  0  0  0
   -2.8280   -1.1654   -0.4872 H   0  0  0  0  0  0  0  0  0  0  0  0
   -4.4568    0.7109   -0.0102 H   0  0  0  0  0  0  0  0  0  0  0  0
   -4.1458    0.5119   -1.7510 H   0  0  0  0  0  0  0  0  0  0  0  0
   -2.6177    2.1896   -1.5844 H   0  0  0  0  0  0  0  0  0  0  0  0
   -0.4363    0.9823   -1.0802 N   0  0  0  0  0  0  0  0  0  0  0  0
    0.7113    1.3456   -1.8787 C   0  0  2  0  0  0  0  0  0  0  0  0
    0.3008    1.2909   -3.3443 C   0  0  0  0  0  0  0  0  0  0  0  0
   -0.6502    0.6262   -3.7502 O   0  0  0  0  0  0  0  0  0  0  0  0
    1.8881    0.4208   -1.6090 C   0  0  0  0  0  0  0  0  0  0  0  0
   -0.5632    1.4575   -0.1915 H   0  0  0  0  0  0  0  0  0  0  0  0
    0.9707    2.3753   -1.6096 H   0  0  0  0  0  0  0  0  0  0  0  0
    1.6471   -0.6155   -1.8725 H   0  0  0  0  0  0  0  0  0  0  0  0
    2.7660    0.7149   -2.1937 H   0  0  0  0  0  0  0  0  0  0  0  0
    2.1630    0.4388   -0.5488 H   0  0  0  0  0  0  0  0  0  0  0  0
    1.1477    2.0374   -4.1516 N   0  0  0  0  0  0  0  0  0  0  0  0
    0.9758    2.1345   -5.5824 C   0  0  0  0  0  0  0  0  0  0  0  0
    1.8997    2.5722   -3.7272 H   0  0  0  0  0  0  0  0  0  0  0  0
    1.5765    1.3577   -6.0780 H   0  0  0  0  0  0  0  0  0  0  0  0
   -0.0856    1.9935   -5.8344 H   0  0  0  0  0  0  0  0  0  0  0  0
    1.3053    3.1266   -5.9246 H   0  0  0  0  0  0  0  0  0  0  0  0
  1  3  1  0  0  0  0
  1  7  1  0  0  0  0
  1  2  2  0  0  0  0
 29 30  1  0  0  0  0
 30 38  1  0  0  0  0
 30 31  2  0  0  0  0
  8  9  1  0  0  0  0
  9 17  1  0  0  0  0
  9 10  2  0  0  0  0
 18 19  1  0  0  0  0
 19 28  1  0  0  0  0
 19 20  2  0  0  0  0
 29 32  1  0  0  0  0
  8 11  1  0  0  0  0
 38 39  1  0  0  0  0
 18 21  1  0  0  0  0
 21 22  1  0  0  0  0
 28 29  1  0  0  0  0
  7  8  1  0  0  0  0
 17 18  1  0  0  0  0
  3  4  1  0  0  0  0
  3  5  1  0  0  0  0
  3  6  1  0  0  0  0
 32 35  1  0  0  0  0
 32 36  1  0  0  0  0
 32 37  1  0  0  0  0
 11 14  1  0  0  0  0
 11 15  1  0  0  0  0
 11 16  1  0  0  0  0
 39 41  1  0  0  0  0
 39 42  1  0  0  0  0
 39 43  1  0  0  0  0
 21 25  1  0  0  0  0
 21 26  1  0  0  0  0
 29 34  1  0  0  0  0
  8 13  1  0  0  0  0
 18 24  1  0  0  0  0
 38 40  1  0  0  0  0
  7 12  1  0  0  0  0
 28 33  1  0  0  0  0
 17 23  1  0  0  0  0
 22 27  1  0  0  0  0
M  END
$$$$

  -OEChem-05262214473D

 43 42  0     1  0  0  0  0  0999 V2000
    0.7424   -1.0926    4.5665 C   0  0  0  0  0  0  0  0  0  0  0  0
    0.1409   -0.5364    5.4779 O   0  0  0  0  0  0  0  0  0  0  0  0
    1.7940   -2.1023    4.8871 C   0  0  0  0  0  0  0  0  0  0  0  0
    2.7935   -1.6502    4.9904 H   0  0  0  0  0  0  0  0  0  0  0  0
    1.6064   -2.6156    5.8438 H   0  0  0  0  0  0  0  0  0  0  0  0
    1.9156   -2.9078    4.1453 H   0  0  0  0  0  0  0  0  0  0  0  0
    0.5488   -0.8838    3.2109 N   0  0  0  0  0  0  0  0  0  0  0  0
   -0.4159    0.0446    2.6829 C   0  0  2  0  0  0  0  0  0  0  0  0
   -0.7551   -0.3867    1.2623 C   0  0  0  0  0  0  0  0  0  0  0  0
   -0.0106   -1.0851    0.5774 O   0  0  0  0  0  0  0  0  0  0  0  0
    0.1168    1.4689    2.7060 C   0  0  0  0  0  0  0  0  0  0  0  0
    1.1183   -1.4145    2.5542 H   0  0  0  0  0  0  0  0  0  0  0  0
   -1.3088   -0.0350    3.3125 H   0  0  0  0  0  0  0  0  0  0  0  0
    1.0116    1.5681    2.0808 H   0  0  0  0  0  0  0  0  0  0  0  0
   -0.6289    2.1775    2.3307 H   0  0  0  0  0  0  0  0  0  0  0  0
    0.3882    1.7670    3.7245 H   0  0  0  0  0  0  0  0  0  0  0  0
   -1.9689    0.1350    0.8298 N   0  0  0  0  0  0  0  0  0  0  0  0
   -2.5039   -0.1183   -0.4830 C   0  0  2  0  0  0  0  0  0  0  0  0
   -1.3789    0.0534   -1.4978 C   0  0  0  0  0  0  0  0  0  0  0  0
   -1.4674   -0.3198   -2.6657 O   0  0  0  0  0  0  0  0  0  0  0  0
   -3.6936    0.7850   -0.7916 C   0  0  0  0  0  0  0  0  0  0  0  0
   -3.2740    2.1425   -0.8712 O   0  0  0  0  0  0  0  0  0  0  0  0
   -2.5276    0.6894    1.4750 H   0  0  0  0  0  0  0  0  0  0  0  0
   -2.8280   -1.1654   -0.4872 H   0  0  0  0  0  0  0  0  0  0  0  0
   -4.4568    0.7109   -0.0102 H   0  0  0  0  0  0  0  0  0  0  0  0
   -4.1458    0.5119   -1.7510 H   0  0  0  0  0  0  0  0  0  0  0  0
   -2.6177    2.1896   -1.5844 H   0  0  0  0  0  0  0  0  0  0  0  0
   -0.2831    0.7106   -0.9564 N   0  0  0  0  0  0  0  0  0  0  0  0
    0.9004    1.0217   -1.7239 C   0  0  2  0  0  0  0  0  0  0  0  0
    0.4685    1.3220   -3.1532 C   0  0  0  0  0  0  0  0  0  0  0  0
   -0.5892    0.9194   -3.6329 O   0  0  0  0  0  0  0  0  0  0  0  0
    1.9004   -0.1235   -1.6875 C   0  0  0  0  0  0  0  0  0  0  0  0
   -0.3138    1.0193    0.0108 H   0  0  0  0  0  0  0  0  0  0  0  0
    1.3394    1.9208   -1.2779 H   0  0  0  0  0  0  0  0  0  0  0  0
    1.4783   -1.0331   -2.1303 H   0  0  0  0  0  0  0  0  0  0  0  0
    2.8088    0.1251   -2.2461 H   0  0  0  0  0  0  0  0  0  0  0  0
    2.1872   -0.3578   -0.6567 H   0  0  0  0  0  0  0  0  0  0  0  0
    1.4228    2.0562   -3.8434 N   0  0  0  0  0  0  0  0  0  0  0  0
    1.2528    2.4560   -5.2208 C   0  0  0  0  0  0  0  0  0  0  0  0
    2.2621    2.3635   -3.3608 H   0  0  0  0  0  0  0  0  0  0  0  0
    1.7021    1.6994   -5.8809 H   0  0  0  0  0  0  0  0  0  0  0  0
    0.1801    2.5484   -5.4459 H   0  0  0  0  0  0  0  0  0  0  0  0
    1.7467    3.4252   -5.3847 H   0  0  0  0  0  0  0  0  0  0  0  0
  1  3  1  0  0  0  0
  1  7  1  0  0  0  0
  1  2  2  0  0  0  0
 29 30  1  0  0  0  0
 30 38  1  0  0  0  0
 30 31  2  0  0  0  0
  8  9  1  0  0  0  0
  9 17  1  0  0  0  0
  9 10  2  0  0  0  0
 18 19  1  0  0  0  0
 19 28  1  0  0  0  0
 19 20  2  0  0  0  0
 29 32  1  0  0  0  0
  8 11  1  0  0  0  0
 38 39  1  0  0  0  0
 18 21  1  0  0  0  0
 21 22  1  0  0  0  0
 28 29  1  0  0  0  0
  7  8  1  0  0  0  0
 17 18  1  0  0  0  0
  3  4  1  0  0  0  0
  3  5  1  0  0  0  0
  3  6  1  0  0  0  0
 32 35  1  0  0  0  0
 32 36  1  0  0  0  0
 32 37  1  0  0  0  0
 11 14  1  0  0  0  0
 11 15  1  0  0  0  0
 11 16  1  0  0  0  0
 39 41  1  0  0  0  0
 39 42  1  0  0  0  0
 39 43  1  0  0  0  0
 21 25  1  0  0  0  0
 21 26  1  0  0  0  0
 29 34  1  0  0  0  0
  8 13  1  0  0  0  0
 18 24  1  0  0  0  0
 38 40  1  0  0  0  0
  7 12  1  0  0  0  0
 28 33  1  0  0  0  0
 17 23  1  0  0  0  0
 22 27  1  0  0  0  0
M  END
$$$$

  -OEChem-05262214473D

 43 42  0     1  0  0  0  0  0999 V2000
    0.7424   -1.0926    4.5665 C   0  0  0  0  0  0  0  0  0  0  0  0
    0.1409   -0.5364    5.4779 O   0  0  0  0  0  0  0  0  0  0  0  0
    1.7940   -2.1023    4.8871 C   0  0  0  0  0  0  0  0  0  0  0  0
    2.7935   -1.6502    4.9904 H   0  0  0  0  0  0  0  0  0  0  0  0
    1.6064   -2.6156    5.8438 H   0  0  0  0  0  0  0  0  0  0  0  0
    1.9156   -2.9078    4.1453 H   0  0  0  0  0  0  0  0  0  0  0  0
    0.5488   -0.8838    3.2109 N   0  0  0  0  0  0  0  0  0  0  0  0
   -0.4159    0.0446    2.6829 C   0  0  2  0  0  0  0  0  0  0  0  0
   -0.7551   -0.3867    1.2623 C   0  0  0  0  0  0  0  0  0  0  0  0
   -0.0106   -1.0851    0.5774 O   0  0  0  0  0  0  0  0  0  0  0  0
    0.1168    1.4689    2.7060 C   0  0  0  0  0  0  0  0  0  0  0  0
    1.1183   -1.4145    2.5542 H   0  0  0  0  0  0  0  0  0  0  0  0
   -1.3088   -0.0350    3.3125 H   0  0  0  0  0  0  0  0  0  0  0  0
    1.0116    1.5681    2.0808 H   0  0  0  0  0  0  0  0  0  0  0  0
   -0.6289    2.1775    2.3307 H   0  0  0  0  0  0  0  0  0  0  0  0
    0.3882    1.7670    3.7245 H   0  0  0  0  0  0  0  0  0  0  0  0
   -1.9689    0.1350    0.8298 N   0  0  0  0  0  0  0  0  0  0  0  0
   -2.5039   -0.1183   -0.4830 C   0  0  2  0  0  0  0  0  0  0  0  0
   -1.3789    0.0534   -1.4978 C   0  0  0  0  0  0  0  0  0  0  0  0
   -1.5458   -0.0663   -2.7098 O   0  0  0  0  0  0  0  0  0  0  0  0
   -3.6936    0.7850   -0.7916 C   0  0  0  0  0  0  0  0  0  0  0  0
   -3.2740    2.1425   -0.8712 O   0  0  0  0  0  0  0  0  0  0  0  0
   -2.5276    0.6894    1.4750 H   0  0  0  0  0  0  0  0  0  0  0  0
   -2.8280   -1.1654   -0.4872 H   0  0  0  0  0  0  0  0  0  0  0  0
   -4.4568    0.7109   -0.0102 H   0  0  0  0  0  0  0  0  0  0  0  0
   -4.1458    0.5119   -1.7510 H   0  0  0  0  0  0  0  0  0  0  0  0
   -2.6177    2.1896   -1.5844 H   0  0  0  0  0  0  0  0  0  0  0  0
   -0.1783    0.3981   -0.8931 N   0  0  0  0  0  0  0  0  0  0  0  0
    1.0317    0.6467   -1.6418 C   0  0  2  0  0  0  0  0  0  0  0  0
    0.6414    1.2867   -2.9675 C   0  0  0  0  0  0  0  0  0  0  0  0
   -0.4764    1.1696   -3.4655 O   0  0  0  0  0  0  0  0  0  0  0  0
    1.8161   -0.6364   -1.8678 C   0  0  0  0  0  0  0  0  0  0  0  0
   -0.1425    0.5144    0.1153 H   0  0  0  0  0  0  0  0  0  0  0  0
    1.6268    1.3549   -1.0549 H   0  0  0  0  0  0  0  0  0  0  0  0
    1.2359   -1.3582   -2.4541 H   0  0  0  0  0  0  0  0  0  0  0  0
    2.7471   -0.4419   -2.4105 H   0  0  0  0  0  0  0  0  0  0  0  0
    2.0703   -1.1109   -0.9138 H   0  0  0  0  0  0  0  0  0  0  0  0
    1.7008    1.9681   -3.5501 N   0  0  0  0  0  0  0  0  0  0  0  0
    1.5864    2.6498   -4.8182 C   0  0  0  0  0  0  0  0  0  0  0  0
    2.5869    2.0294   -3.0573 H   0  0  0  0  0  0  0  0  0  0  0  0
    1.8880    1.9703   -5.6289 H   0  0  0  0  0  0  0  0  0  0  0  0
    0.5437    2.9644   -4.9724 H   0  0  0  0  0  0  0  0  0  0  0  0
    2.2402    3.5344   -4.8191 H   0  0  0  0  0  0  0  0  0  0  0  0
  1  3  1  0  0  0  0
  1  7  1  0  0  0  0
  1  2  2  0  0  0  0
 29 30  1  0  0  0  0
 30 38  1  0  0  0  0
 30 31  2  0  0  0  0
  8  9  1  0  0  0  0
  9 17  1  0  0  0  0
  9 10  2  0  0  0  0
 18 19  1  0  0  0  0
 19 28  1  0  0  0  0
 19 20  2  0  0  0  0
 29 32  1  0  0  0  0
  8 11  1  0  0  0  0
 38 39  1  0  0  0  0
 18 21  1  0  0  0  0
 21 22  1  0  0  0  0
 28 29  1  0  0  0  0
  7  8  1  0  0  0  0
 17 18  1  0  0  0  0
  3  4  1  0  0  0  0
  3  5  1  0  0  0  0
  3  6  1  0  0  0  0
 32 35  1  0  0  0  0
 32 36  1  0  0  0  0
 32 37  1  0  0  0  0
 11 14  1  0  0  0  0
 11 15  1  0  0  0  0
 11 16  1  0  0  0  0
 39 41  1  0  0  0  0
 39 42  1  0  0  0  0
 39 43  1  0  0  0  0
 21 25  1  0  0  0  0
 21 26  1  0  0  0  0
 29 34  1  0  0  0  0
  8 13  1  0  0  0  0
 18 24  1  0  0  0  0
 38 40  1  0  0  0  0
  7 12  1  0  0  0  0
 28 33  1  0  0  0  0
 17 23  1  0  0  0  0
 22 27  1  0  0  0  0
M  END
$$$$

  -OEChem-05262214473D

 43 42  0     1  0  0  0  0  0999 V2000
    0.7424   -1.0926    4.5665 C   0  0  0  0  0  0  0  0  0  0  0  0
    0.1409   -0.5364    5.4779 O   0  0  0  0  0  0  0  0  0  0  0  0
    1.7940   -2.1023    4.8871 C   0  0  0  0  0  0  0  0  0  0  0  0
    2.7935   -1.6502    4.9904 H   0  0  0  0  0  0  0  0  0  0  0  0
    1.6064   -2.6156    5.8438 H   0  0  0  0  0  0  0  0  0  0  0  0
    1.9156   -2.9078    4.1453 H   0  0  0  0  0  0  0  0  0  0  0  0
    0.5488   -0.8838    3.2109 N   0  0  0  0  0  0  0  0  0  0  0  0
   -0.4159    0.0446    2.6829 C   0  0  2  0  0  0  0  0  0  0  0  0
   -0.7551   -0.3867    1.2623 C   0  0  0  0  0  0  0  0  0  0  0  0
   -0.0106   -1.0851    0.5774 O   0  0  0  0  0  0  0  0  0  0  0  0
    0.1168    1.4689    2.7060 C   0  0  0  0  0  0  0  0  0  0  0  0
    1.1183   -1.4145    2.5542 H   0  0  0  0  0  0  0  0  0  0  0  0
   -1.3088   -0.0350    3.3125 H   0  0  0  0  0  0  0  0  0  0  0  0
    1.0116    1.5681    2.0808 H   0  0  0  0  0  0  0  0  0  0  0  0
   -0.6289    2.1775    2.3307 H   0  0  0  0  0  0  0  0  0  0  0  0
    0.3882    1.7670    3.7245 H   0  0  0  0  0  0  0  0  0  0  0  0
   -1.9689    0.1350    0.8298 N   0  0  0  0  0  0  0  0  0  0  0  0
   -2.5039   -0.1183   -0.4830 C   0  0  2  0  0  0  0  0  0  0  0  0
   -1.3789    0.0534   -1.4978 C   0  0  0  0  0  0  0  0  0  0  0  0
   -1.5793    0.2006   -2.7017 O   0  0  0  0  0  0  0  0  0  0  0  0
   -3.6936    0.7850   -0.7916 C   0  0  0  0  0  0  0  0  0  0  0  0
   -3.2740    2.1425   -0.8712 O   0  0  0  0  0  0  0  0  0  0  0  0
   -2.5276    0.6894    1.4750 H   0  0  0  0  0  0  0  0  0  0  0  0
   -2.8280   -1.1654   -0.4872 H   0  0  0  0  0  0  0  0  0  0  0  0
   -4.4568    0.7109   -0.0102 H   0  0  0  0  0  0  0  0  0  0  0  0
   -4.1458    0.5119   -1.7510 H   0  0  0  0  0  0  0  0  0  0  0  0
   -2.6177    2.1896   -1.5844 H   0  0  0  0  0  0  0  0  0  0  0  0
   -0.1291    0.0660   -0.8947 N   0  0  0  0  0  0  0  0  0  0  0  0
    1.0964    0.2462   -1.6379 C   0  0  2  0  0  0  0  0  0  0  0  0
    0.8077    1.1874   -2.7999 C   0  0  0  0  0  0  0  0  0  0  0  0
   -0.3194    1.3600   -3.2592 O   0  0  0  0  0  0  0  0  0  0  0  0
    1.6412   -1.0829   -2.1373 C   0  0  0  0  0  0  0  0  0  0  0  0
   -0.0610   -0.0227    0.1148 H   0  0  0  0  0  0  0  0  0  0  0  0
    1.8135    0.7162   -0.9561 H   0  0  0  0  0  0  0  0  0  0  0  0
    0.9363   -1.5686   -2.8219 H   0  0  0  0  0  0  0  0  0  0  0  0
    2.5849   -0.9476   -2.6759 H   0  0  0  0  0  0  0  0  0  0  0  0
    1.8202   -1.7691   -1.3025 H   0  0  0  0  0  0  0  0  0  0  0  0
    1.9628    1.7790   -3.2917 N   0  0  0  0  0  0  0  0  0  0  0  0
    1.9537    2.7027   -4.4020 C   0  0  0  0  0  0  0  0  0  0  0  0
    2.8519    1.5929   -2.8374 H   0  0  0  0  0  0  0  0  0  0  0  0
    2.1215    2.1518   -5.3393 H   0  0  0  0  0  0  0  0  0  0  0  0
    0.9803    3.2132   -4.4462 H   0  0  0  0  0  0  0  0  0  0  0  0
    2.7522    3.4469   -4.2662 H   0  0  0  0  0  0  0  0  0  0  0  0
  1  3  1  0  0  0  0
  1  7  1  0  0  0  0
  1  2  2  0  0  0  0
 29 30  1  0  0  0  0
 30 38  1  0  0  0  0
 30 31  2  0  0  0  0
  8  9  1  0  0  0  0
  9 17  1  0  0  0  0
  9 10  2  0  0  0  0
 18 19  1  0  0  0  0
 19 28  1  0  0  0  0
 19 20  2  0  0  0  0
 29 32  1  0  0  0  0
  8 11  1  0  0  0  0
 38 39  1  0  0  0  0
 18 21  1  0  0  0  0
 21 22  1  0  0  0  0
 28 29  1  0  0  0  0
  7  8  1  0  0  0  0
 17 18  1  0  0  0  0
  3  4  1  0  0  0  0
  3  5  1  0  0  0  0
  3  6  1  0  0  0  0
 32 35  1  0  0  0  0
 32 36  1  0  0  0  0
 32 37  1  0  0  0  0
 11 14  1  0  0  0  0
 11 15  1  0  0  0  0
 11 16  1  0  0  0  0
 39 41  1  0  0  0  0
 39 42  1  0  0  0  0
 39 43  1  0  0  0  0
 21 25  1  0  0  0  0
 21 26  1  0  0  0  0
 29 34  1  0  0  0  0
  8 13  1  0  0  0  0
 18 24  1  0  0  0  0
 38 40  1  0  0  0  0
  7 12  1  0  0  0  0
 28 33  1  0  0  0  0
 17 23  1  0  0  0  0
 22 27  1  0  0  0  0
M  END
$$$$

  -OEChem-05262214473D

 43 42  0     1  0  0  0  0  0999 V2000
    0.7424   -1.0926    4.5665 C   0  0  0  0  0  0  0  0  0  0  0  0
    0.1409   -0.5364    5.4779 O   0  0  0  0  0  0  0  0  0  0  0  0
    1.7940   -2.1023    4.8871 C   0  0  0  0  0  0  0  0  0  0  0  0
    2.7935   -1.6502    4.9904 H   0  0  0  0  0  0  0  0  0  0  0  0
    1.6064   -2.6156    5.8438 H   0  0  0  0  0  0  0  0  0  0  0  0
    1.9156   -2.9078    4.1453 H   0  0  0  0  0  0  0  0  0  0  0  0
    0.5488   -0.8838    3.2109 N   0  0  0  0  0  0  0  0  0  0  0  0
   -0.4159    0.0446    2.6829 C   0  0  2  0  0  0  0  0  0  0  0  0
   -0.7551   -0.3867    1.2623 C   0  0  0  0  0  0  0  0  0  0  0  0
   -0.0106   -1.0851    0.5774 O   0  0  0  0  0  0  0  0  0  0  0  0
    0.1168    1.4689    2.7060 C   0  0  0  0  0  0  0  0  0  0  0  0
    1.1183   -1.4145    2.5542 H   0  0  0  0  0  0  0  0  0  0  0  0
   -1.3088   -0.0350    3.3125 H   0  0  0  0  0  0  0  0  0  0  0  0
    1.0116    1.5681    2.0808 H   0  0  0  0  0  0  0  0  0  0  0  0
   -0.6289    2.1775    2.3307 H   0  0  0  0  0  0  0  0  0  0  0  0
    0.3882    1.7670    3.7245 H   0  0  0  0  0  0  0  0  0  0  0  0
   -1.9689    0.1350    0.8298 N   0  0  0  0  0  0  0  0  0  0  0  0
   -2.5039   -0.1183   -0.4830 C   0  0  2  0  0  0  0  0  0  0  0  0
   -1.3789    0.0534   -1.4978 C   0  0  0  0  0  0  0  0  0  0  0  0
   -1.5653    0.4625   -2.6419 O   0  0  0  0  0  0  0  0  0  0  0  0
   -3.6936    0.7850   -0.7916 C   0  0  0  0  0  0  0  0  0  0  0  0
   -3.2740    2.1425   -0.8712 O   0  0  0  0  0  0  0  0  0  0  0  0
   -2.5276    0.6894    1.4750 H   0  0  0  0  0  0  0  0  0  0  0  0
   -2.8280   -1.1654   -0.4872 H   0  0  0  0  0  0  0  0  0  0  0  0
   -4.4568    0.7109   -0.0102 H   0  0  0  0  0  0  0  0  0  0  0  0
   -4.1458    0.5119   -1.7510 H   0  0  0  0  0  0  0  0  0  0  0  0
   -2.6177    2.1896   -1.5844 H   0  0  0  0  0  0  0  0  0  0  0  0
   -0.1388   -0.2628   -0.9612 N   0  0  0  0  0  0  0  0  0  0  0  0
    1.0900   -0.1525   -1.7125 C   0  0  2  0  0  0  0  0  0  0  0  0
    0.9561    1.0308   -2.6619 C   0  0  0  0  0  0  0  0  0  0  0  0
   -0.1290    1.4774   -3.0282 O   0  0  0  0  0  0  0  0  0  0  0  0
    1.3874   -1.4325   -2.4778 C   0  0  0  0  0  0  0  0  0  0  0  0
   -0.0747   -0.5555    0.0094 H   0  0  0  0  0  0  0  0  0  0  0  0
    1.8867    0.0482   -0.9880 H   0  0  0  0  0  0  0  0  0  0  0  0
    0.5999   -1.6500   -3.2086 H   0  0  0  0  0  0  0  0  0  0  0  0
    2.3335   -1.3575   -3.0240 H   0  0  0  0  0  0  0  0  0  0  0  0
    1.4538   -2.2875   -1.7964 H   0  0  0  0  0  0  0  0  0  0  0  0
    2.1907    1.5020   -3.0859 N   0  0  0  0  0  0  0  0  0  0  0  0
    2.3297    2.6110   -4.0007 C   0  0  0  0  0  0  0  0  0  0  0  0
    3.0391    1.0836   -2.7160 H   0  0  0  0  0  0  0  0  0  0  0  0
    2.3869    2.2316   -5.0316 H   0  0  0  0  0  0  0  0  0  0  0  0
    1.4603    3.2778   -3.9032 H   0  0  0  0  0  0  0  0  0  0  0  0
    3.2478    3.1686   -3.7639 H   0  0  0  0  0  0  0  0  0  0  0  0
  1  3  1  0  0  0  0
  1  7  1  0  0  0  0
  1  2  2  0  0  0  0
 29 30  1  0  0  0  0
 30 38  1  0  0  0  0
 30 31  2  0  0  0  0
  8  9  1  0  0  0  0
  9 17  1  0  0  0  0
  9 10  2  0  0  0  0
 18 19  1  0  0  0  0
 19 28  1  0  0  0  0
 19 20  2  0  0  0  0
 29 32  1  0  0  0  0
  8 11  1  0  0  0  0
 38 39  1  0  0  0  0
 18 21  1  0  0  0  0
 21 22  1  0  0  0  0
 28 29  1  0  0  0  0
  7  8  1  0  0  0  0
 17 18  1  0  0  0  0
  3  4  1  0  0  0  0
  3  5  1  0  0  0  0
  3  6  1  0  0  0  0
 32 35  1  0  0  0  0
 32 36  1  0  0  0  0
 32 37  1  0  0  0  0
 11 14  1  0  0  0  0
 11 15  1  0  0  0  0
 11 16  1  0  0  0  0
 39 41  1  0  0  0  0
 39 42  1  0  0  0  0
 39 43  1  0  0  0  0
 21 25  1  0  0  0  0
 21 26  1  0  0  0  0
 29 34  1  0  0  0  0
  8 13  1  0  0  0  0
 18 24  1  0  0  0  0
 38 40  1  0  0  0  0
  7 12  1  0  0  0  0
 28 33  1  0  0  0  0
 17 23  1  0  0  0  0
 22 27  1  0  0  0  0
M  END
$$$$

  -OEChem-05262214473D

 43 42  0     1  0  0  0  0  0999 V2000
    0.7424   -1.0926    4.5665 C   0  0  0  0  0  0  0  0  0  0  0  0
    0.1409   -0.5364    5.4779 O   0  0  0  0  0  0  0  0  0  0  0  0
    1.7940   -2.1023    4.8871 C   0  0  0  0  0  0  0  0  0  0  0  0
    2.7935   -1.6502    4.9904 H   0  0  0  0  0  0  0  0  0  0  0  0
    1.6064   -2.6156    5.8438 H   0  0  0  0  0  0  0  0  0  0  0  0
    1.9156   -2.9078    4.1453 H   0  0  0  0  0  0  0  0  0  0  0  0
    0.5488   -0.8838    3.2109 N   0  0  0  0  0  0  0  0  0  0  0  0
   -0.4159    0.0446    2.6829 C   0  0  2  0  0  0  0  0  0  0  0  0
   -0.7551   -0.3867    1.2623 C   0  0  0  0  0  0  0  0  0  0  0  0
   -0.0106   -1.0851    0.5774 O   0  0  0  0  0  0  0  0  0  0  0  0
    0.1168    1.4689    2.7060 C   0  0  0  0  0  0  0  0  0  0  0  0
    1.1183   -1.4145    2.5542 H   0  0  0  0  0  0  0  0  0  0  0  0
   -1.3088   -0.0350    3.3125 H   0  0  0  0  0  0  0  0  0  0  0  0
    1.0116    1.5681    2.0808 H   0  0  0  0  0  0  0  0  0  0  0  0
   -0.6289    2.1775    2.3307 H   0  0  0  0  0  0  0  0  0  0  0  0
    0.3882    1.7670    3.7245 H   0  0  0  0  0  0  0  0  0  0  0  0
   -1.9689    0.1350    0.8298 N   0  0  0  0  0  0  0  0  0  0  0  0
   -2.5039   -0.1183   -0.4830 C   0  0  2  0  0  0  0  0  0  0  0  0
   -1.3789    0.0534   -1.4978 C   0  0  0  0  0  0  0  0  0  0  0  0
   -1.5050    0.7018   -2.5345 O   0  0  0  0  0  0  0  0  0  0  0  0
   -3.6936    0.7850   -0.7916 C   0  0  0  0  0  0  0  0  0  0  0  0
   -3.2740    2.1425   -0.8712 O   0  0  0  0  0  0  0  0  0  0  0  0
   -2.5276    0.6894    1.4750 H   0  0  0  0  0  0  0  0  0  0  0  0
   -2.8280   -1.1654   -0.4872 H   0  0  0  0  0  0  0  0  0  0  0  0
   -4.4568    0.7109   -0.0102 H   0  0  0  0  0  0  0  0  0  0  0  0
   -4.1458    0.5119   -1.7510 H   0  0  0  0  0  0  0  0  0  0  0  0
   -2.6177    2.1896   -1.5844 H   0  0  0  0  0  0  0  0  0  0  0  0
   -0.2068   -0.5661   -1.0878 N   0  0  0  0  0  0  0  0  0  0  0  0
    1.0129   -0.5223   -1.8605 C   0  0  2  0  0  0  0  0  0  0  0  0
    1.0765    0.8276   -2.5628 C   0  0  0  0  0  0  0  0  0  0  0  0
    0.0819    1.5139   -2.7883 O   0  0  0  0  0  0  0  0  0  0  0  0
    1.0721   -1.6615   -2.8661 C   0  0  0  0  0  0  0  0  0  0  0  0
   -0.1829   -1.0476   -0.1938 H   0  0  0  0  0  0  0  0  0  0  0  0
    1.8415   -0.6035   -1.1485 H   0  0  0  0  0  0  0  0  0  0  0  0
    0.2497   -1.5969   -3.5879 H   0  0  0  0  0  0  0  0  0  0  0  0
    2.0099   -1.6436   -3.4312 H   0  0  0  0  0  0  0  0  0  0  0  0
    0.9963   -2.6309   -2.3618 H   0  0  0  0  0  0  0  0  0  0  0  0
    2.3692    1.1559   -2.9466 N   0  0  0  0  0  0  0  0  0  0  0  0
    2.6888    2.3810   -3.6415 C   0  0  0  0  0  0  0  0  0  0  0  0
    3.1358    0.5362   -2.7015 H   0  0  0  0  0  0  0  0  0  0  0  0
    2.6659    2.2042   -4.7269 H   0  0  0  0  0  0  0  0  0  0  0  0
    1.9508    3.1538   -3.3803 H   0  0  0  0  0  0  0  0  0  0  0  0
    3.6932    2.7185   -3.3462 H   0  0  0  0  0  0  0  0  0  0  0  0
  1  3  1  0  0  0  0
  1  7  1  0  0  0  0
  1  2  2  0  0  0  0
 29 30  1  0  0  0  0
 30 38  1  0  0  0  0
 30 31  2  0  0  0  0
  8  9  1  0  0  0  0
  9 17  1  0  0  0  0
  9 10  2  0  0  0  0
 18 19  1  0  0  0  0
 19 28  1  0  0  0  0
 19 20  2  0  0  0  0
 29 32  1  0  0  0  0
  8 11  1  0  0  0  0
 38 39  1  0  0  0  0
 18 21  1  0  0  0  0
 21 22  1  0  0  0  0
 28 29  1  0  0  0  0
  7  8  1  0  0  0  0
 17 18  1  0  0  0  0
  3  4  1  0  0  0  0
  3  5  1  0  0  0  0
  3  6  1  0  0  0  0
 32 35  1  0  0  0  0
 32 36  1  0  0  0  0
 32 37  1  0  0  0  0
 11 14  1  0  0  0  0
 11 15  1  0  0  0  0
 11 16  1  0  0  0  0
 39 41  1  0  0  0  0
 39 42  1  0  0  0  0
 39 43  1  0  0  0  0
 21 25  1  0  0  0  0
 21 26  1  0  0  0  0
 29 34  1  0  0  0  0
  8 13  1  0  0  0  0
 18 24  1  0  0  0  0
 38 40  1  0  0  0  0
  7 12  1  0  0  0  0
 28 33  1  0  0  0  0
 17 23  1  0  0  0  0
 22 27  1  0  0  0  0
M  END
$$$$

  -OEChem-05262214473D

 43 42  0     1  0  0  0  0  0999 V2000
    0.7424   -1.0926    4.5665 C   0  0  0  0  0  0  0  0  0  0  0  0
    0.1409   -0.5364    5.4779 O   0  0  0  0  0  0  0  0  0  0  0  0
    1.7940   -2.1023    4.8871 C   0  0  0  0  0  0  0  0  0  0  0  0
    2.7935   -1.6502    4.9904 H   0  0  0  0  0  0  0  0  0  0  0  0
    1.6064   -2.6156    5.8438 H   0  0  0  0  0  0  0  0  0  0  0  0
    1.9156   -2.9078    4.1453 H   0  0  0  0  0  0  0  0  0  0  0  0
    0.5488   -0.8838    3.2109 N   0  0  0  0  0  0  0  0  0  0  0  0
   -0.4159    0.0446    2.6829 C   0  0  2  0  0  0  0  0  0  0  0  0
   -0.7551   -0.3867    1.2623 C   0  0  0  0  0  0  0  0  0  0  0  0
   -0.0106   -1.0851    0.5774 O   0  0  0  0  0  0  0  0  0  0  0  0
    0.1168    1.4689    2.7060 C   0  0  0  0  0  0  0  0  0  0  0  0
    1.1183   -1.4145    2.5542 H   0  0  0  0  0  0  0  0  0  0  0  0
   -1.3088   -0.0350    3.3125 H   0  0  0  0  0  0  0  0  0  0  0  0
    1.0116    1.5681    2.0808 H   0  0  0  0  0  0  0  0  0  0  0  0
   -0.6289    2.1775    2.3307 H   0  0  0  0  0  0  0  0  0  0  0  0
    0.3882    1.7670    3.7245 H   0  0  0  0  0  0  0  0  0  0  0  0
   -1.9689    0.1350    0.8298 N   0  0  0  0  0  0  0  0  0  0  0  0
   -2.5039   -0.1183   -0.4830 C   0  0  2  0  0  0  0  0  0  0  0  0
   -1.3789    0.0534   -1.4978 C   0  0  0  0  0  0  0  0  0  0  0  0
   -1.4024    0.9020   -2.3869 O   0  0  0  0  0  0  0  0  0  0  0  0
   -3.6936    0.7850   -0.7916 C   0  0  0  0  0  0  0  0  0  0  0  0
   -3.2740    2.1425   -0.8712 O   0  0  0  0  0  0  0  0  0  0  0  0
   -2.5276    0.6894    1.4750 H   0  0  0  0  0  0  0  0  0  0  0  0
   -2.8280   -1.1654   -0.4872 H   0  0  0  0  0  0  0  0  0  0  0  0
   -4.4568    0.7109   -0.0102 H   0  0  0  0  0  0  0  0  0  0  0  0
   -4.1458    0.5119   -1.7510 H   0  0  0  0  0  0  0  0  0  0  0  0
   -2.6177    2.1896   -1.5844 H   0  0  0  0  0  0  0  0  0  0  0  0
   -0.3283   -0.8232   -1.2661 N   0  0  0  0  0  0  0  0  0  0  0  0
    0.8705   -0.8379   -2.0718 C   0  0  2  0  0  0  0  0  0  0  0  0
    1.1607    0.5917   -2.5094 C   0  0  0  0  0  0  0  0  0  0  0  0
    0.2989    1.4671   -2.5556 O   0  0  0  0  0  0  0  0  0  0  0  0
    0.7168   -1.7543   -3.2757 C   0  0  0  0  0  0  0  0  0  0  0  0
   -0.3780   -1.4655   -0.4809 H   0  0  0  0  0  0  0  0  0  0  0  0
    1.6808   -1.1946   -1.4266 H   0  0  0  0  0  0  0  0  0  0  0  0
   -0.0905   -1.4128   -3.9339 H   0  0  0  0  0  0  0  0  0  0  0  0
    1.6361   -1.7865   -3.8697 H   0  0  0  0  0  0  0  0  0  0  0  0
    0.4787   -2.7758   -2.9601 H   0  0  0  0  0  0  0  0  0  0  0  0
    2.4860    0.7642   -2.8834 N   0  0  0  0  0  0  0  0  0  0  0  0
    3.0065    2.0284   -3.3489 C   0  0  0  0  0  0  0  0  0  0  0  0
    3.1353   -0.0120   -2.7949 H   0  0  0  0  0  0  0  0  0  0  0  0
    2.9395    2.0715   -4.4460 H   0  0  0  0  0  0  0  0  0  0  0  0
    2.4185    2.8497   -2.9132 H   0  0  0  0  0  0  0  0  0  0  0  0
    4.0582    2.1273   -3.0417 H   0  0  0  0  0  0  0  0  0  0  0  0
  1  3  1  0  0  0  0
  1  7  1  0  0  0  0
  1  2  2  0  0  0  0
 29 30  1  0  0  0  0
 30 38  1  0  0  0  0
 30 31  2  0  0  0  0
  8  9  1  0  0  0  0
  9 17  1  0  0  0  0
  9 10  2  0  0  0  0
 18 19  1  0  0  0  0
 19 28  1  0  0  0  0
 19 20  2  0  0  0  0
 29 32  1  0  0  0  0
  8 11  1  0  0  0  0
 38 39  1  0  0  0  0
 18 21  1  0  0  0  0
 21 22  1  0  0  0  0
 28 29  1  0  0  0  0
  7  8  1  0  0  0  0
 17 18  1  0  0  0  0
  3  4  1  0  0  0  0
  3  5  1  0  0  0  0
  3  6  1  0  0  0  0
 32 35  1  0  0  0  0
 32 36  1  0  0  0  0
 32 37  1  0  0  0  0
 11 14  1  0  0  0  0
 11 15  1  0  0  0  0
 11 16  1  0  0  0  0
 39 41  1  0  0  0  0
 39 42  1  0  0  0  0
 39 43  1  0  0  0  0
 21 25  1  0  0  0  0
 21 26  1  0  0  0  0
 29 34  1  0  0  0  0
  8 13  1  0  0  0  0
 18 24  1  0  0  0  0
 38 40  1  0  0  0  0
  7 12  1  0  0  0  0
 28 33  1  0  0  0  0
 17 23  1  0  0  0  0
 22 27  1  0  0  0  0
M  END
$$$$

  -OEChem-05262214473D

 43 42  0     1  0  0  0  0  0999 V2000
    0.7424   -1.0926    4.5665 C   0  0  0  0  0  0  0  0  0  0  0  0
    0.1409   -0.5364    5.4779 O   0  0  0  0  0  0  0  0  0  0  0  0
    1.7940   -2.1023    4.8871 C   0  0  0  0  0  0  0  0  0  0  0  0
    2.7935   -1.6502    4.9904 H   0  0  0  0  0  0  0  0  0  0  0  0
    1.6064   -2.6156    5.8438 H   0  0  0  0  0  0  0  0  0  0  0  0
    1.9156   -2.9078    4.1453 H   0  0  0  0  0  0  0  0  0  0  0  0
    0.5488   -0.8838    3.2109 N   0  0  0  0  0  0  0  0  0  0  0  0
   -0.4159    0.0446    2.6829 C   0  0  2  0  0  0  0  0  0  0  0  0
   -0.7551   -0.3867    1.2623 C   0  0  0  0  0  0  0  0  0  0  0  0
   -0.0106   -1.0851    0.5774 O   0  0  0  0  0  0  0  0  0  0  0  0
    0.1168    1.4689    2.7060 C   0  0  0  0  0  0  0  0  0  0  0  0
    1.1183   -1.4145    2.5542 H   0  0  0  0  0  0  0  0  0  0  0  0
   -1.3088   -0.0350    3.3125 H   0  0  0  0  0  0  0  0  0  0  0  0
    1.0116    1.5681    2.0808 H   0  0  0  0  0  0  0  0  0  0  0  0
   -0.6289    2.1775    2.3307 H   0  0  0  0  0  0  0  0  0  0  0  0
    0.3882    1.7670    3.7245 H   0  0  0  0  0  0  0  0  0  0  0  0
   -1.9689    0.1350    0.8298 N   0  0  0  0  0  0  0  0  0  0  0  0
   -2.5039   -0.1183   -0.4830 C   0  0  2  0  0  0  0  0  0  0  0  0
   -1.3789    0.0534   -1.4978 C   0  0  0  0  0  0  0  0  0  0  0  0
   -1.2646    1.0495   -2.2091 O   0  0  0  0  0  0  0  0  0  0  0  0
   -3.6936    0.7850   -0.7916 C   0  0  0  0  0  0  0  0  0  0  0  0
   -3.2740    2.1425   -0.8712 O   0  0  0  0  0  0  0  0  0  0  0  0
   -2.5276    0.6894    1.4750 H   0  0  0  0  0  0  0  0  0  0  0  0
   -2.8280   -1.1654   -0.4872 H   0  0  0  0  0  0  0  0  0  0  0  0
   -4.4568    0.7109   -0.0102 H   0  0  0  0  0  0  0  0  0  0  0  0
   -4.1458    0.5119   -1.7510 H   0  0  0  0  0  0  0  0  0  0  0  0
   -2.6177    2.1896   -1.5844 H   0  0  0  0  0  0  0  0  0  0  0  0
   -0.4952   -1.0165   -1.4839 N   0  0  0  0  0  0  0  0  0  0  0  0
    0.6724   -1.0779   -2.3321 C   0  0  2  0  0  0  0  0  0  0  0  0
    1.2029    0.3391   -2.5053 C   0  0  0  0  0  0  0  0  0  0  0  0
    0.5072    1.3400   -2.3462 O   0  0  0  0  0  0  0  0  0  0  0  0
    0.3457   -1.7044   -3.6787 C   0  0  0  0  0  0  0  0  0  0  0  0
   -0.6469   -1.7808   -0.8323 H   0  0  0  0  0  0  0  0  0  0  0  0
    1.4157   -1.6848   -1.8035 H   0  0  0  0  0  0  0  0  0  0  0  0
   -0.3975   -1.1103   -4.2230 H   0  0  0  0  0  0  0  0  0  0  0  0
    1.2377   -1.7764   -4.3097 H   0  0  0  0  0  0  0  0  0  0  0  0
   -0.0636   -2.7123   -3.5507 H   0  0  0  0  0  0  0  0  0  0  0  0
    2.5333    0.3536   -2.9005 N   0  0  0  0  0  0  0  0  0  0  0  0
    3.2613    1.5772   -3.1429 C   0  0  0  0  0  0  0  0  0  0  0  0
    3.0376   -0.5235   -2.9897 H   0  0  0  0  0  0  0  0  0  0  0  0
    3.1892    1.8426   -4.2080 H   0  0  0  0  0  0  0  0  0  0  0  0
    2.8316    2.3862   -2.5338 H   0  0  0  0  0  0  0  0  0  0  0  0
    4.3177    1.4352   -2.8712 H   0  0  0  0  0  0  0  0  0  0  0  0
  1  3  1  0  0  0  0
  1  7  1  0  0  0  0
  1  2  2  0  0  0  0
 29 30  1  0  0  0  0
 30 38  1  0  0  0  0
 30 31  2  0  0  0  0
  8  9  1  0  0  0  0
  9 17  1  0  0  0  0
  9 10  2  0  0  0  0
 18 19  1  0  0  0  0
 19 28  1  0  0  0  0
 19 20  2  0  0  0  0
 29 32  1  0  0  0  0
  8 11  1  0  0  0  0
 38 39  1  0  0  0  0
 18 21  1  0  0  0  0
 21 22  1  0  0  0  0
 28 29  1  0  0  0  0
  7  8  1  0  0  0  0
 17 18  1  0  0  0  0
  3  4  1  0  0  0  0
  3  5  1  0  0  0  0
  3  6  1  0  0  0  0
 32 35  1  0  0  0  0
 32 36  1  0  0  0  0
 32 37  1  0  0  0  0
 11 14  1  0  0  0  0
 11 15  1  0  0  0  0
 11 16  1  0  0  0  0
 39 41  1  0  0  0  0
 39 42  1  0  0  0  0
 39 43  1  0  0  0  0
 21 25  1  0  0  0  0
 21 26  1  0  0  0  0
 29 34  1  0  0  0  0
  8 13  1  0  0  0  0
 18 24  1  0  0  0  0
 38 40  1  0  0  0  0
  7 12  1  0  0  0  0
 28 33  1  0  0  0  0
 17 23  1  0  0  0  0
 22 27  1  0  0  0  0
M  END
$$$$

  -OEChem-05262214473D

 43 42  0     1  0  0  0  0  0999 V2000
    0.7424   -1.0926    4.5665 C   0  0  0  0  0  0  0  0  0  0  0  0
    0.1409   -0.5364    5.4779 O   0  0  0  0  0  0  0  0  0  0  0  0
    1.7940   -2.1023    4.8871 C   0  0  0  0  0  0  0  0  0  0  0  0
    2.7935   -1.6502    4.9904 H   0  0  0  0  0  0  0  0  0  0  0  0
    1.6064   -2.6156    5.8438 H   0  0  0  0  0  0  0  0  0  0  0  0
    1.9156   -2.9078    4.1453 H   0  0  0  0  0  0  0  0  0  0  0  0
    0.5488   -0.8838    3.2109 N   0  0  0  0  0  0  0  0  0  0  0  0
   -0.4159    0.0446    2.6829 C   0  0  2  0  0  0  0  0  0  0  0  0
   -0.7551   -0.3867    1.2623 C   0  0  0  0  0  0  0  0  0  0  0  0
   -0.0106   -1.0851    0.5774 O   0  0  0  0  0  0  0  0  0  0  0  0
    0.1168    1.4689    2.7060 C   0  0  0  0  0  0  0  0  0  0  0  0
    1.1183   -1.4145    2.5542 H   0  0  0  0  0  0  0  0  0  0  0  0
   -1.3088   -0.0350    3.3125 H   0  0  0  0  0  0  0  0  0  0  0  0
    1.0116    1.5681    2.0808 H   0  0  0  0  0  0  0  0  0  0  0  0
   -0.6289    2.1775    2.3307 H   0  0  0  0  0  0  0  0  0  0  0  0
    0.3882    1.7670    3.7245 H   0  0  0  0  0  0  0  0  0  0  0  0
   -1.9689    0.1350    0.8298 N   0  0  0  0  0  0  0  0  0  0  0  0
   -2.5039   -0.1183   -0.4830 C   0  0  2  0  0  0  0  0  0  0  0  0
   -1.3789    0.0534   -1.4978 C   0  0  0  0  0  0  0  0  0  0  0  0
   -1.1008    1.1343   -2.0131 O   0  0  0  0  0  0  0  0  0  0  0  0
   -3.6936    0.7850   -0.7916 C   0  0  0  0  0  0  0  0  0  0  0  0
   -3.2740    2.1425   -0.8712 O   0  0  0  0  0  0  0  0  0  0  0  0
   -2.5276    0.6894    1.4750 H   0  0  0  0  0  0  0  0  0  0  0  0
   -2.8280   -1.1654   -0.4872 H   0  0  0  0  0  0  0  0  0  0  0  0
   -4.4568    0.7109   -0.0102 H   0  0  0  0  0  0  0  0  0  0  0  0
   -4.1458    0.5119   -1.7510 H   0  0  0  0  0  0  0  0  0  0  0  0
   -2.6177    2.1896   -1.5844 H   0  0  0  0  0  0  0  0  0  0  0  0
   -0.6961   -1.1329   -1.7263 N   0  0  0  0  0  0  0  0  0  0  0  0
    0.4321   -1.2259   -2.6235 C   0  0  2  0  0  0  0  0  0  0  0  0
    1.2004    0.0871   -2.5508 C   0  0  0  0  0  0  0  0  0  0  0  0
    0.6926    1.1413   -2.1742 O   0  0  0  0  0  0  0  0  0  0  0  0
   -0.0159   -1.5154   -4.0477 C   0  0  0  0  0  0  0  0  0  0  0  0
   -0.9711   -1.9719   -1.2241 H   0  0  0  0  0  0  0  0  0  0  0  0
    1.0641   -2.0405   -2.2535 H   0  0  0  0  0  0  0  0  0  0  0  0
   -0.6503   -0.7101   -4.4356 H   0  0  0  0  0  0  0  0  0  0  0  0
    0.8418   -1.6139   -4.7212 H   0  0  0  0  0  0  0  0  0  0  0  0
   -0.5938   -2.4448   -4.0931 H   0  0  0  0  0  0  0  0  0  0  0  0
    2.5077   -0.0478   -2.9968 N   0  0  0  0  0  0  0  0  0  0  0  0
    3.4356    1.0582   -3.0375 C   0  0  0  0  0  0  0  0  0  0  0  0
    2.8495   -0.9636   -3.2728 H   0  0  0  0  0  0  0  0  0  0  0  0
    3.3979    1.5329   -4.0290 H   0  0  0  0  0  0  0  0  0  0  0  0
    3.1618    1.7948   -2.2678 H   0  0  0  0  0  0  0  0  0  0  0  0
    4.4541    0.6894   -2.8462 H   0  0  0  0  0  0  0  0  0  0  0  0
  1  3  1  0  0  0  0
  1  7  1  0  0  0  0
  1  2  2  0  0  0  0
 29 30  1  0  0  0  0
 30 38  1  0  0  0  0
 30 31  2  0  0  0  0
  8  9  1  0  0  0  0
  9 17  1  0  0  0  0
  9 10  2  0  0  0  0
 18 19  1  0  0  0  0
 19 28  1  0  0  0  0
 19 20  2  0  0  0  0
 29 32  1  0  0  0  0
  8 11  1  0  0  0  0
 38 39  1  0  0  0  0
 18 21  1  0  0  0  0
 21 22  1  0  0  0  0
 28 29  1  0  0  0  0
  7  8  1  0  0  0  0
 17 18  1  0  0  0  0
  3  4  1  0  0  0  0
  3  5  1  0  0  0  0
  3  6  1  0  0  0  0
 32 35  1  0  0  0  0
 32 36  1  0  0  0  0
 32 37  1  0  0  0  0
 11 14  1  0  0  0  0
 11 15  1  0  0  0  0
 11 16  1  0  0  0  0
 39 41  1  0  0  0  0
 39 42  1  0  0  0  0
 39 43  1  0  0  0  0
 21 25  1  0  0  0  0
 21 26  1  0  0  0  0
 29 34  1  0  0  0  0
  8 13  1  0  0  0  0
 18 24  1  0  0  0  0
 38 40  1  0  0  0  0
  7 12  1  0  0  0  0
 28 33  1  0  0  0  0
 17 23  1  0  0  0  0
 22 27  1  0  0  0  0
M  END
$$$$

  -OEChem-05262214473D

 43 42  0     1  0  0  0  0  0999 V2000
    0.7424   -1.0926    4.5665 C   0  0  0  0  0  0  0  0  0  0  0  0
    0.1409   -0.5364    5.4779 O   0  0  0  0  0  0  0  0  0  0  0  0
    1.7940   -2.1023    4.8871 C   0  0  0  0  0  0  0  0  0  0  0  0
    2.7935   -1.6502    4.9904 H   0  0  0  0  0  0  0  0  0  0  0  0
    1.6064   -2.6156    5.8438 H   0  0  0  0  0  0  0  0  0  0  0  0
    1.9156   -2.9078    4.1453 H   0  0  0  0  0  0  0  0  0  0  0  0
    0.5488   -0.8838    3.2109 N   0  0  0  0  0  0  0  0  0  0  0  0
   -0.4159    0.0446    2.6829 C   0  0  2  0  0  0  0  0  0  0  0  0
   -0.7551   -0.3867    1.2623 C   0  0  0  0  0  0  0  0  0  0  0  0
   -0.0106   -1.0851    0.5774 O   0  0  0  0  0  0  0  0  0  0  0  0
    0.1168    1.4689    2.7060 C   0  0  0  0  0  0  0  0  0  0  0  0
    1.1183   -1.4145    2.5542 H   0  0  0  0  0  0  0  0  0  0  0  0
   -1.3088   -0.0350    3.3125 H   0  0  0  0  0  0  0  0  0  0  0  0
    1.0116    1.5681    2.0808 H   0  0  0  0  0  0  0  0  0  0  0  0
   -0.6289    2.1775    2.3307 H   0  0  0  0  0  0  0  0  0  0  0  0
    0.3882    1.7670    3.7245 H   0  0  0  0  0  0  0  0  0  0  0  0
   -1.9689    0.1350    0.8298 N   0  0  0  0  0  0  0  0  0  0  0  0
   -2.5039   -0.1183   -0.4830 C   0  0  2  0  0  0  0  0  0  0  0  0
   -1.3789    0.0534   -1.4978 C   0  0  0  0  0  0  0  0  0  0  0  0
   -0.9223    1.1505   -1.8125 O   0  0  0  0  0  0  0  0  0  0  0  0
   -3.6936    0.7850   -0.7916 C   0  0  0  0  0  0  0  0  0  0  0  0
   -3.2740    2.1425   -0.8712 O   0  0  0  0  0  0  0  0  0  0  0  0
   -2.5276    0.6894    1.4750 H   0  0  0  0  0  0  0  0  0  0  0  0
   -2.8280   -1.1654   -0.4872 H   0  0  0  0  0  0  0  0  0  0  0  0
   -4.4568    0.7109   -0.0102 H   0  0  0  0  0  0  0  0  0  0  0  0
   -4.1458    0.5119   -1.7510 H   0  0  0  0  0  0  0  0  0  0  0  0
   -2.6177    2.1896   -1.5844 H   0  0  0  0  0  0  0  0  0  0  0  0
   -0.9172   -1.1644   -1.9768 N   0  0  0  0  0  0  0  0  0  0  0  0
    0.1660   -1.2719   -2.9263 C   0  0  2  0  0  0  0  0  0  0  0  0
    1.1531   -0.1472   -2.6428 C   0  0  0  0  0  0  0  0  0  0  0  0
    0.8425    0.8847   -2.0515 O   0  0  0  0  0  0  0  0  0  0  0  0
   -0.3434   -1.2001   -4.3574 C   0  0  0  0  0  0  0  0  0  0  0  0
   -1.3286   -2.0258   -1.6296 H   0  0  0  0  0  0  0  0  0  0  0  0
    0.6502   -2.2377   -2.7457 H   0  0  0  0  0  0  0  0  0  0  0  0
   -0.8318   -0.2393   -4.5571 H   0  0  0  0  0  0  0  0  0  0  0  0
    0.4754   -1.3103   -5.0760 H   0  0  0  0  0  0  0  0  0  0  0  0
   -1.0756   -1.9915   -4.5506 H   0  0  0  0  0  0  0  0  0  0  0  0
    2.4110   -0.4127   -3.1658 N   0  0  0  0  0  0  0  0  0  0  0  0
    3.5176    0.5067   -3.0398 C   0  0  0  0  0  0  0  0  0  0  0  0
    2.5837   -1.3023   -3.6247 H   0  0  0  0  0  0  0  0  0  0  0  0
    3.5513    1.1638   -3.9214 H   0  0  0  0  0  0  0  0  0  0  0  0
    3.3866    1.1160   -2.1334 H   0  0  0  0  0  0  0  0  0  0  0  0
    4.4581   -0.0593   -2.9684 H   0  0  0  0  0  0  0  0  0  0  0  0
  1  3  1  0  0  0  0
  1  7  1  0  0  0  0
  1  2  2  0  0  0  0
 29 30  1  0  0  0  0
 30 38  1  0  0  0  0
 30 31  2  0  0  0  0
  8  9  1  0  0  0  0
  9 17  1  0  0  0  0
  9 10  2  0  0  0  0
 18 19  1  0  0  0  0
 19 28  1  0  0  0  0
 19 20  2  0  0  0  0
 29 32  1  0  0  0  0
  8 11  1  0  0  0  0
 38 39  1  0  0  0  0
 18 21  1  0  0  0  0
 21 22  1  0  0  0  0
 28 29  1  0  0  0  0
  7  8  1  0  0  0  0
 17 18  1  0  0  0  0
  3  4  1  0  0  0  0
  3  5  1  0  0  0  0
  3  6  1  0  0  0  0
 32 35  1  0  0  0  0
 32 36  1  0  0  0  0
 32 37  1  0  0  0  0
 11 14  1  0  0  0  0
 11 15  1  0  0  0  0
 11 16  1  0  0  0  0
 39 41  1  0  0  0  0
 39 42  1  0  0  0  0
 39 43  1  0  0  0  0
 21 25  1  0  0  0  0
 21 26  1  0  0  0  0
 29 34  1  0  0  0  0
  8 13  1  0  0  0  0
 18 24  1  0  0  0  0
 38 40  1  0  0  0  0
  7 12  1  0  0  0  0
 28 33  1  0  0  0  0
 17 23  1  0  0  0  0
 22 27  1  0  0  0  0
M  END
$$$$

  -OEChem-05262214473D

 43 42  0     1  0  0  0  0  0999 V2000
    0.7424   -1.0926    4.5665 C   0  0  0  0  0  0  0  0  0  0  0  0
    0.1409   -0.5364    5.4779 O   0  0  0  0  0  0  0  0  0  0  0  0
    1.7940   -2.1023    4.8871 C   0  0  0  0  0  0  0  0  0  0  0  0
    2.7935   -1.6502    4.9904 H   0  0  0  0  0  0  0  0  0  0  0  0
    1.6064   -2.6156    5.8438 H   0  0  0  0  0  0  0  0  0  0  0  0
    1.9156   -2.9078    4.1453 H   0  0  0  0  0  0  0  0  0  0  0  0
    0.5488   -0.8838    3.2109 N   0  0  0  0  0  0  0  0  0  0  0  0
   -0.4159    0.0446    2.6829 C   0  0  2  0  0  0  0  0  0  0  0  0
   -0.7551   -0.3867    1.2623 C   0  0  0  0  0  0  0  0  0  0  0  0
   -0.0106   -1.0851    0.5774 O   0  0  0  0  0  0  0  0  0  0  0  0
    0.1168    1.4689    2.7060 C   0  0  0  0  0  0  0  0  0  0  0  0
    1.1183   -1.4145    2.5542 H   0  0  0  0  0  0  0  0  0  0  0  0
   -1.3088   -0.0350    3.3125 H   0  0  0  0  0  0  0  0  0  0  0  0
    1.0116    1.5681    2.0808 H   0  0  0  0  0  0  0  0  0  0  0  0
   -0.6289    2.1775    2.3307 H   0  0  0  0  0  0  0  0  0  0  0  0
    0.3882    1.7670    3.7245 H   0  0  0  0  0  0  0  0  0  0  0  0
   -1.9689    0.1350    0.8298 N   0  0  0  0  0  0  0  0  0  0  0  0
   -2.5039   -0.1183   -0.4830 C   0  0  2  0  0  0  0  0  0  0  0  0
   -1.3789    0.0534   -1.4978 C   0  0  0  0  0  0  0  0  0  0  0  0
   -0.7412    1.0972   -1.6208 O   0  0  0  0  0  0  0  0  0  0  0  0
   -3.6936    0.7850   -0.7916 C   0  0  0  0  0  0  0  0  0  0  0  0
   -3.2740    2.1425   -0.8712 O   0  0  0  0  0  0  0  0  0  0  0  0
   -2.5276    0.6894    1.4750 H   0  0  0  0  0  0  0  0  0  0  0  0
   -2.8280   -1.1654   -0.4872 H   0  0  0  0  0  0  0  0  0  0  0  0
   -4.4568    0.7109   -0.0102 H   0  0  0  0  0  0  0  0  0  0  0  0
   -4.1458    0.5119   -1.7510 H   0  0  0  0  0  0  0  0  0  0  0  0
   -2.6177    2.1896   -1.5844 H   0  0  0  0  0  0  0  0  0  0  0  0
   -1.1436   -1.1090   -2.2183 N   0  0  0  0  0  0  0  0  0  0  0  0
   -0.1078   -1.2126   -3.2198 C   0  0  2  0  0  0  0  0  0  0  0  0
    1.0645   -0.3479   -2.7751 C   0  0  0  0  0  0  0  0  0  0  0  0
    0.9467    0.5875   -1.9863 O   0  0  0  0  0  0  0  0  0  0  0  0
   -0.6145   -0.7799   -4.5868 C   0  0  0  0  0  0  0  0  0  0  0  0
   -1.6951   -1.9388   -2.0212 H   0  0  0  0  0  0  0  0  0  0  0  0
    0.2021   -2.2629   -3.2468 H   0  0  0  0  0  0  0  0  0  0  0  0
   -0.9296    0.2699   -4.5792 H   0  0  0  0  0  0  0  0  0  0  0  0
    0.1634   -0.8861   -5.3501 H   0  0  0  0  0  0  0  0  0  0  0  0
   -1.4763   -1.3833   -4.8919 H   0  0  0  0  0  0  0  0  0  0  0  0
    2.2498   -0.7163   -3.3959 N   0  0  0  0  0  0  0  0  0  0  0  0
    3.5018   -0.0397   -3.1498 C   0  0  0  0  0  0  0  0  0  0  0  0
    2.2584   -1.5164   -4.0216 H   0  0  0  0  0  0  0  0  0  0  0  0
    3.6390    0.7602   -3.8924 H   0  0  0  0  0  0  0  0  0  0  0  0
    3.4908    0.3959   -2.1398 H   0  0  0  0  0  0  0  0  0  0  0  0
    4.3295   -0.7598   -3.2296 H   0  0  0  0  0  0  0  0  0  0  0  0
  1  3  1  0  0  0  0
  1  7  1  0  0  0  0
  1  2  2  0  0  0  0
 29 30  1  0  0  0  0
 30 38  1  0  0  0  0
 30 31  2  0  0  0  0
  8  9  1  0  0  0  0
  9 17  1  0  0  0  0
  9 10  2  0  0  0  0
 18 19  1  0  0  0  0
 19 28  1  0  0  0  0
 19 20  2  0  0  0  0
 29 32  1  0  0  0  0
  8 11  1  0  0  0  0
 38 39  1  0  0  0  0
 18 21  1  0  0  0  0
 21 22  1  0  0  0  0
 28 29  1  0  0  0  0
  7  8  1  0  0  0  0
 17 18  1  0  0  0  0
  3  4  1  0  0  0  0
  3  5  1  0  0  0  0
  3  6  1  0  0  0  0
 32 35  1  0  0  0  0
 32 36  1  0  0  0  0
 32 37  1  0  0  0  0
 11 14  1  0  0  0  0
 11 15  1  0  0  0  0
 11 16  1  0  0  0  0
 39 41  1  0  0  0  0
 39 42  1  0  0  0  0
 39 43  1  0  0  0  0
 21 25  1  0  0  0  0
 21 26  1  0  0  0  0
 29 34  1  0  0  0  0
  8 13  1  0  0  0  0
 18 24  1  0  0  0  0
 38 40  1  0  0  0  0
  7 12  1  0  0  0  0
 28 33  1  0  0  0  0
 17 23  1  0  0  0  0
 22 27  1  0  0  0  0
M  END
$$$$

  -OEChem-05262214473D

 43 42  0     1  0  0  0  0  0999 V2000
    0.7424   -1.0926    4.5665 C   0  0  0  0  0  0  0  0  0  0  0  0
    0.1409   -0.5364    5.4779 O   0  0  0  0  0  0  0  0  0  0  0  0
    1.7940   -2.1023    4.8871 C   0  0  0  0  0  0  0  0  0  0  0  0
    2.7935   -1.6502    4.9904 H   0  0  0  0  0  0  0  0  0  0  0  0
    1.6064   -2.6156    5.8438 H   0  0  0  0  0  0  0  0  0  0  0  0
    1.9156   -2.9078    4.1453 H   0  0  0  0  0  0  0  0  0  0  0  0
    0.5488   -0.8838    3.2109 N   0  0  0  0  0  0  0  0  0  0  0  0
   -0.4159    0.0446    2.6829 C   0  0  2  0  0  0  0  0  0  0  0  0
   -0.7551   -0.3867    1.2623 C   0  0  0  0  0  0  0  0  0  0  0  0
   -0.0106   -1.0851    0.5774 O   0  0  0  0  0  0  0  0  0  0  0  0
    0.1168    1.4689    2.7060 C   0  0  0  0  0  0  0  0  0  0  0  0
    1.1183   -1.4145    2.5542 H   0  0  0  0  0  0  0  0  0  0  0  0
   -1.3088   -0.0350    3.3125 H   0  0  0  0  0  0  0  0  0  0  0  0
    1.0116    1.5681    2.0808 H   0  0  0  0  0  0  0  0  0  0  0  0
   -0.6289    2.1775    2.3307 H   0  0  0  0  0  0  0  0  0  0  0  0
    0.3882    1.7670    3.7245 H   0  0  0  0  0  0  0  0  0  0  0  0
   -1.9689    0.1350    0.8298 N   0  0  0  0  0  0  0  0  0  0  0  0
   -2.5039   -0.1183   -0.4830 C   0  0  2  0  0  0  0  0  0  0  0  0
   -1.3789    0.0534   -1.4978 C   0  0  0  0  0  0  0  0  0  0  0  0
   -0.5699    0.9778   -1.4510 O   0  0  0  0  0  0  0  0  0  0  0  0
   -3.6936    0.7850   -0.7916 C   0  0  0  0  0  0  0  0  0  0  0  0
   -3.2740    2.1425   -0.8712 O   0  0  0  0  0  0  0  0  0  0  0  0
   -2.5276    0.6894    1.4750 H   0  0  0  0  0  0  0  0  0  0  0  0
   -2.8280   -1.1654   -0.4872 H   0  0  0  0  0  0  0  0  0  0  0  0
   -4.4568    0.7109   -0.0102 H   0  0  0  0  0  0  0  0  0  0  0  0
   -4.1458    0.5119   -1.7510 H   0  0  0  0  0  0  0  0  0  0  0  0
   -2.6177    2.1896   -1.5844 H   0  0  0  0  0  0  0  0  0  0  0  0
   -1.3597   -0.9703   -2.4345 N   0  0  0  0  0  0  0  0  0  0  0  0
   -0.3705   -1.0521   -3.4839 C   0  0  2  0  0  0  0  0  0  0  0  0
    0.9404   -0.5011   -2.9386 C   0  0  0  0  0  0  0  0  0  0  0  0
    0.9981    0.2701   -1.9831 O   0  0  0  0  0  0  0  0  0  0  0  0
   -0.8107   -0.2836   -4.7202 C   0  0  0  0  0  0  0  0  0  0  0  0
   -2.0455   -1.7170   -2.3721 H   0  0  0  0  0  0  0  0  0  0  0  0
   -0.2497   -2.1144   -3.7226 H   0  0  0  0  0  0  0  0  0  0  0  0
   -0.9369    0.7828   -4.5006 H   0  0  0  0  0  0  0  0  0  0  0  0
   -0.0729   -0.3702   -5.5248 H   0  0  0  0  0  0  0  0  0  0  0  0
   -1.7685   -0.6617   -5.0937 H   0  0  0  0  0  0  0  0  0  0  0  0
    2.0351   -0.9379   -3.6714 N   0  0  0  0  0  0  0  0  0  0  0  0
    3.3892   -0.5437   -3.3600 C   0  0  0  0  0  0  0  0  0  0  0  0
    1.8958   -1.5914   -4.4364 H   0  0  0  0  0  0  0  0  0  0  0  0
    3.6551    0.3497   -3.9441 H   0  0  0  0  0  0  0  0  0  0  0  0
    3.4672   -0.3164   -2.2865 H   0  0  0  0  0  0  0  0  0  0  0  0
    4.0770   -1.3644   -3.6118 H   0  0  0  0  0  0  0  0  0  0  0  0
  1  3  1  0  0  0  0
  1  7  1  0  0  0  0
  1  2  2  0  0  0  0
 29 30  1  0  0  0  0
 30 38  1  0  0  0  0
 30 31  2  0  0  0  0
  8  9  1  0  0  0  0
  9 17  1  0  0  0  0
  9 10  2  0  0  0  0
 18 19  1  0  0  0  0
 19 28  1  0  0  0  0
 19 20  2  0  0  0  0
 29 32  1  0  0  0  0
  8 11  1  0  0  0  0
 38 39  1  0  0  0  0
 18 21  1  0  0  0  0
 21 22  1  0  0  0  0
 28 29  1  0  0  0  0
  7  8  1  0  0  0  0
 17 18  1  0  0  0  0
  3  4  1  0  0  0  0
  3  5  1  0  0  0  0
  3  6  1  0  0  0  0
 32 35  1  0  0  0  0
 32 36  1  0  0  0  0
 32 37  1  0  0  0  0
 11 14  1  0  0  0  0
 11 15  1  0  0  0  0
 11 16  1  0  0  0  0
 39 41  1  0  0  0  0
 39 42  1  0  0  0  0
 39 43  1  0  0  0  0
 21 25  1  0  0  0  0
 21 26  1  0  0  0  0
 29 34  1  0  0  0  0
  8 13  1  0  0  0  0
 18 24  1  0  0  0  0
 38 40  1  0  0  0  0
  7 12  1  0  0  0  0
 28 33  1  0  0  0  0
 17 23  1  0  0  0  0
 22 27  1  0  0  0  0
M  END
$$$$

  -OEChem-05262214473D

 43 42  0     1  0  0  0  0  0999 V2000
    0.7424   -1.0926    4.5665 C   0  0  0  0  0  0  0  0  0  0  0  0
    0.1409   -0.5364    5.4779 O   0  0  0  0  0  0  0  0  0  0  0  0
    1.7940   -2.1023    4.8871 C   0  0  0  0  0  0  0  0  0  0  0  0
    2.7935   -1.6502    4.9904 H   0  0  0  0  0  0  0  0  0  0  0  0
    1.6064   -2.6156    5.8438 H   0  0  0  0  0  0  0  0  0  0  0  0
    1.9156   -2.9078    4.1453 H   0  0  0  0  0  0  0  0  0  0  0  0
    0.5488   -0.8838    3.2109 N   0  0  0  0  0  0  0  0  0  0  0  0
   -0.4159    0.0446    2.6829 C   0  0  2  0  0  0  0  0  0  0  0  0
   -0.7551   -0.3867    1.2623 C   0  0  0  0  0  0  0  0  0  0  0  0
   -0.0106   -1.0851    0.5774 O   0  0  0  0  0  0  0  0  0  0  0  0
    0.1168    1.4689    2.7060 C   0  0  0  0  0  0  0  0  0  0  0  0
    1.1183   -1.4145    2.5542 H   0  0  0  0  0  0  0  0  0  0  0  0
   -1.3088   -0.0350    3.3125 H   0  0  0  0  0  0  0  0  0  0  0  0
    1.0116    1.5681    2.0808 H   0  0  0  0  0  0  0  0  0  0  0  0
   -0.6289    2.1775    2.3307 H   0  0  0  0  0  0  0  0  0  0  0  0
    0.3882    1.7670    3.7245 H   0  0  0  0  0  0  0  0  0  0  0  0
   -1.9689    0.1350    0.8298 N   0  0  0  0  0  0  0  0  0  0  0  0
   -2.5039   -0.1183   -0.4830 C   0  0  2  0  0  0  0  0  0  0  0  0
   -1.3789    0.0534   -1.4978 C   0  0  0  0  0  0  0  0  0  0  0  0
   -0.4200    0.8006   -1.3149 O   0  0  0  0  0  0  0  0  0  0  0  0
   -3.6936    0.7850   -0.7916 C   0  0  0  0  0  0  0  0  0  0  0  0
   -3.2740    2.1425   -0.8712 O   0  0  0  0  0  0  0  0  0  0  0  0
   -2.5276    0.6894    1.4750 H   0  0  0  0  0  0  0  0  0  0  0  0
   -2.8280   -1.1654   -0.4872 H   0  0  0  0  0  0  0  0  0  0  0  0
   -4.4568    0.7109   -0.0102 H   0  0  0  0  0  0  0  0  0  0  0  0
   -4.1458    0.5119   -1.7510 H   0  0  0  0  0  0  0  0  0  0  0  0
   -2.6177    2.1896   -1.5844 H   0  0  0  0  0  0  0  0  0  0  0  0
   -1.5509   -0.7578   -2.6104 N   0  0  0  0  0  0  0  0  0  0  0  0
   -0.6044   -0.8013   -3.7008 C   0  0  2  0  0  0  0  0  0  0  0  0
    0.7894   -0.5966   -3.1221 C   0  0  0  0  0  0  0  0  0  0  0  0
    0.9931   -0.0460   -2.0421 O   0  0  0  0  0  0  0  0  0  0  0  0
   -0.9185    0.2551   -4.7486 C   0  0  0  0  0  0  0  0  0  0  0  0
   -2.3559   -1.3753   -2.6585 H   0  0  0  0  0  0  0  0  0  0  0  0
   -0.6745   -1.8022   -4.1406 H   0  0  0  0  0  0  0  0  0  0  0  0
   -0.8534    1.2645   -4.3264 H   0  0  0  0  0  0  0  0  0  0  0  0
   -0.2174    0.2021   -5.5881 H   0  0  0  0  0  0  0  0  0  0  0  0
   -1.9323    0.1243   -5.1423 H   0  0  0  0  0  0  0  0  0  0  0  0
    1.7816   -1.0623   -3.9735 N   0  0  0  0  0  0  0  0  0  0  0  0
    3.1875   -0.9710   -3.6559 C   0  0  0  0  0  0  0  0  0  0  0  0
    1.5204   -1.5222   -4.8408 H   0  0  0  0  0  0  0  0  0  0  0  0
    3.5985   -0.0397   -4.0728 H   0  0  0  0  0  0  0  0  0  0  0  0
    3.3174   -0.9723   -2.5636 H   0  0  0  0  0  0  0  0  0  0  0  0
    3.7178   -1.8319   -4.0892 H   0  0  0  0  0  0  0  0  0  0  0  0
  1  3  1  0  0  0  0
  1  7  1  0  0  0  0
  1  2  2  0  0  0  0
 29 30  1  0  0  0  0
 30 38  1  0  0  0  0
 30 31  2  0  0  0  0
  8  9  1  0  0  0  0
  9 17  1  0  0  0  0
  9 10  2  0  0  0  0
 18 19  1  0  0  0  0
 19 28  1  0  0  0  0
 19 20  2  0  0  0  0
 29 32  1  0  0  0  0
  8 11  1  0  0  0  0
 38 39  1  0  0  0  0
 18 21  1  0  0  0  0
 21 22  1  0  0  0  0
 28 29  1  0  0  0  0
  7  8  1  0  0  0  0
 17 18  1  0  0  0  0
  3  4  1  0  0  0  0
  3  5  1  0  0  0  0
  3  6  1  0  0  0  0
 32 35  1  0  0  0  0
 32 36  1  0  0  0  0
 32 37  1  0  0  0  0
 11 14  1  0  0  0  0
 11 15  1  0  0  0  0
 11 16  1  0  0  0  0
 39 41  1  0  0  0  0
 39 42  1  0  0  0  0
 39 43  1  0  0  0  0
 21 25  1  0  0  0  0
 21 26  1  0  0  0  0
 29 34  1  0  0  0  0
  8 13  1  0  0  0  0
 18 24  1  0  0  0  0
 38 40  1  0  0  0  0
  7 12  1  0  0  0  0
 28 33  1  0  0  0  0
 17 23  1  0  0  0  0
 22 27  1  0  0  0  0
M  END
$$$$

  -OEChem-05262214473D

 43 42  0     1  0  0  0  0  0999 V2000
    0.7424   -1.0926    4.5665 C   0  0  0  0  0  0  0  0  0  0  0  0
    0.1409   -0.5364    5.4779 O   0  0  0  0  0  0  0  0  0  0  0  0
    1.7940   -2.1023    4.8871 C   0  0  0  0  0  0  0  0  0  0  0  0
    2.7935   -1.6502    4.9904 H   0  0  0  0  0  0  0  0  0  0  0  0
    1.6064   -2.6156    5.8438 H   0  0  0  0  0  0  0  0  0  0  0  0
    1.9156   -2.9078    4.1453 H   0  0  0  0  0  0  0  0  0  0  0  0
    0.5488   -0.8838    3.2109 N   0  0  0  0  0  0  0  0  0  0  0  0
   -0.4159    0.0446    2.6829 C   0  0  2  0  0  0  0  0  0  0  0  0
   -0.7551   -0.3867    1.2623 C   0  0  0  0  0  0  0  0  0  0  0  0
   -0.0106   -1.0851    0.5774 O   0  0  0  0  0  0  0  0  0  0  0  0
    0.1168    1.4689    2.7060 C   0  0  0  0  0  0  0  0  0  0  0  0
    1.1183   -1.4145    2.5542 H   0  0  0  0  0  0  0  0  0  0  0  0
   -1.3088   -0.0350    3.3125 H   0  0  0  0  0  0  0  0  0  0  0  0
    1.0116    1.5681    2.0808 H   0  0  0  0  0  0  0  0  0  0  0  0
   -0.6289    2.1775    2.3307 H   0  0  0  0  0  0  0  0  0  0  0  0
    0.3882    1.7670    3.7245 H   0  0  0  0  0  0  0  0  0  0  0  0
   -1.9689    0.1350    0.8298 N   0  0  0  0  0  0  0  0  0  0  0  0
   -2.5039   -0.1183   -0.4830 C   0  0  2  0  0  0  0  0  0  0  0  0
   -1.3789    0.0534   -1.4978 C   0  0  0  0  0  0  0  0  0  0  0  0
   -0.3018    0.5776   -1.2216 O   0  0  0  0  0  0  0  0  0  0  0  0
   -3.6936    0.7850   -0.7916 C   0  0  0  0  0  0  0  0  0  0  0  0
   -3.2740    2.1425   -0.8712 O   0  0  0  0  0  0  0  0  0  0  0  0
   -2.5276    0.6894    1.4750 H   0  0  0  0  0  0  0  0  0  0  0  0
   -2.8280   -1.1654   -0.4872 H   0  0  0  0  0  0  0  0  0  0  0  0
   -4.4568    0.7109   -0.0102 H   0  0  0  0  0  0  0  0  0  0  0  0
   -4.1458    0.5119   -1.7510 H   0  0  0  0  0  0  0  0  0  0  0  0
   -2.6177    2.1896   -1.5844 H   0  0  0  0  0  0  0  0  0  0  0  0
   -1.7041   -0.4861   -2.7343 N   0  0  0  0  0  0  0  0  0  0  0  0
   -0.7935   -0.4775   -3.8556 C   0  0  2  0  0  0  0  0  0  0  0  0
    0.6218   -0.6277   -3.3133 C   0  0  0  0  0  0  0  0  0  0  0  0
    0.9321   -0.3391   -2.1593 O   0  0  0  0  0  0  0  0  0  0  0  0
   -0.9307    0.7994   -4.6701 C   0  0  0  0  0  0  0  0  0  0  0  0
   -2.6053   -0.9371   -2.8608 H   0  0  0  0  0  0  0  0  0  0  0  0
   -1.0431   -1.3477   -4.4724 H   0  0  0  0  0  0  0  0  0  0  0  0
   -0.6846    1.6821   -4.0687 H   0  0  0  0  0  0  0  0  0  0  0  0
   -0.2602    0.7918   -5.5357 H   0  0  0  0  0  0  0  0  0  0  0  0
   -1.9566    0.9209   -5.0343 H   0  0  0  0  0  0  0  0  0  0  0  0
    1.5064   -1.0811   -4.2818 N   0  0  0  0  0  0  0  0  0  0  0  0
    2.9105   -1.2925   -4.0175 C   0  0  0  0  0  0  0  0  0  0  0  0
    1.1580   -1.3134   -5.2072 H   0  0  0  0  0  0  0  0  0  0  0  0
    3.4729   -0.3815   -4.2699 H   0  0  0  0  0  0  0  0  0  0  0  0
    3.0517   -1.5271   -2.9521 H   0  0  0  0  0  0  0  0  0  0  0  0
    3.2764   -2.1304   -4.6291 H   0  0  0  0  0  0  0  0  0  0  0  0
  1  3  1  0  0  0  0
  1  7  1  0  0  0  0
  1  2  2  0  0  0  0
 29 30  1  0  0  0  0
 30 38  1  0  0  0  0
 30 31  2  0  0  0  0
  8  9  1  0  0  0  0
  9 17  1  0  0  0  0
  9 10  2  0  0  0  0
 18 19  1  0  0  0  0
 19 28  1  0  0  0  0
 19 20  2  0  0  0  0
 29 32  1  0  0  0  0
  8 11  1  0  0  0  0
 38 39  1  0  0  0  0
 18 21  1  0  0  0  0
 21 22  1  0  0  0  0
 28 29  1  0  0  0  0
  7  8  1  0  0  0  0
 17 18  1  0  0  0  0
  3  4  1  0  0  0  0
  3  5  1  0  0  0  0
  3  6  1  0  0  0  0
 32 35  1  0  0  0  0
 32 36  1  0  0  0  0
 32 37  1  0  0  0  0
 11 14  1  0  0  0  0
 11 15  1  0  0  0  0
 11 16  1  0  0  0  0
 39 41  1  0  0  0  0
 39 42  1  0  0  0  0
 39 43  1  0  0  0  0
 21 25  1  0  0  0  0
 21 26  1  0  0  0  0
 29 34  1  0  0  0  0
  8 13  1  0  0  0  0
 18 24  1  0  0  0  0
 38 40  1  0  0  0  0
  7 12  1  0  0  0  0
 28 33  1  0  0  0  0
 17 23  1  0  0  0  0
 22 27  1  0  0  0  0
M  END
$$$$

  -OEChem-05262214473D

 43 42  0     1  0  0  0  0  0999 V2000
    0.7424   -1.0926    4.5665 C   0  0  0  0  0  0  0  0  0  0  0  0
    0.1409   -0.5364    5.4779 O   0  0  0  0  0  0  0  0  0  0  0  0
    1.7940   -2.1023    4.8871 C   0  0  0  0  0  0  0  0  0  0  0  0
    2.7935   -1.6502    4.9904 H   0  0  0  0  0  0  0  0  0  0  0  0
    1.6064   -2.6156    5.8438 H   0  0  0  0  0  0  0  0  0  0  0  0
    1.9156   -2.9078    4.1453 H   0  0  0  0  0  0  0  0  0  0  0  0
    0.5488   -0.8838    3.2109 N   0  0  0  0  0  0  0  0  0  0  0  0
   -0.4159    0.0446    2.6829 C   0  0  2  0  0  0  0  0  0  0  0  0
   -0.7551   -0.3867    1.2623 C   0  0  0  0  0  0  0  0  0  0  0  0
   -0.0106   -1.0851    0.5774 O   0  0  0  0  0  0  0  0  0  0  0  0
    0.1168    1.4689    2.7060 C   0  0  0  0  0  0  0  0  0  0  0  0
    1.1183   -1.4145    2.5542 H   0  0  0  0  0  0  0  0  0  0  0  0
   -1.3088   -0.0350    3.3125 H   0  0  0  0  0  0  0  0  0  0  0  0
    1.0116    1.5681    2.0808 H   0  0  0  0  0  0  0  0  0  0  0  0
   -0.6289    2.1775    2.3307 H   0  0  0  0  0  0  0  0  0  0  0  0
    0.3882    1.7670    3.7245 H   0  0  0  0  0  0  0  0  0  0  0  0
   -1.9689    0.1350    0.8298 N   0  0  0  0  0  0  0  0  0  0  0  0
   -2.5039   -0.1183   -0.4830 C   0  0  2  0  0  0  0  0  0  0  0  0
   -1.3365   -0.3183   -1.4433 C   0  0  0  0  0  0  0  0  0  0  0  0
   -0.1613   -0.2941   -1.0835 O   0  0  0  0  0  0  0  0  0  0  0  0
   -3.4330    1.0019   -0.9397 C   0  0  0  0  0  0  0  0  0  0  0  0
   -2.6997    2.2084   -1.1179 O   0  0  0  0  0  0  0  0  0  0  0  0
   -2.5276    0.6894    1.4750 H   0  0  0  0  0  0  0  0  0  0  0  0
   -3.0677   -1.0555   -0.4107 H   0  0  0  0  0  0  0  0  0  0  0  0
   -4.2180    1.1880   -0.1996 H   0  0  0  0  0  0  0  0  0  0  0  0
   -3.9044    0.7460   -1.8945 H   0  0  0  0  0  0  0  0  0  0  0  0
   -2.0273    2.0281   -1.7938 H   0  0  0  0  0  0  0  0  0  0  0  0
   -1.7637   -0.5694   -2.7395 N   0  0  0  0  0  0  0  0  0  0  0  0
   -0.8500   -0.8231   -3.8291 C   0  0  2  0  0  0  0  0  0  0  0  0
    0.3518   -1.5733   -3.2701 C   0  0  0  0  0  0  0  0  0  0  0  0
    0.6721   -1.5379   -2.0838 O   0  0  0  0  0  0  0  0  0  0  0  0
   -0.4183    0.4705   -4.5020 C   0  0  0  0  0  0  0  0  0  0  0  0
   -2.7590   -0.6103   -2.9381 H   0  0  0  0  0  0  0  0  0  0  0  0
   -1.3799   -1.4621   -4.5439 H   0  0  0  0  0  0  0  0  0  0  0  0
    0.1144    1.1238   -3.8012 H   0  0  0  0  0  0  0  0  0  0  0  0
    0.2518    0.2746   -5.3456 H   0  0  0  0  0  0  0  0  0  0  0  0
   -1.2863    1.0232   -4.8772 H   0  0  0  0  0  0  0  0  0  0  0  0
    1.0495   -2.2522   -4.2592 N   0  0  0  0  0  0  0  0  0  0  0  0
    2.2357   -3.0287   -3.9834 C   0  0  0  0  0  0  0  0  0  0  0  0
    0.7011   -2.2418   -5.2133 H   0  0  0  0  0  0  0  0  0  0  0  0
    3.1270   -2.3986   -4.1197 H   0  0  0  0  0  0  0  0  0  0  0  0
    2.2010   -3.3953   -2.9469 H   0  0  0  0  0  0  0  0  0  0  0  0
    2.2825   -3.8840   -4.6735 H   0  0  0  0  0  0  0  0  0  0  0  0
  1  3  1  0  0  0  0
  1  7  1  0  0  0  0
  1  2  2  0  0  0  0
 29 30  1  0  0  0  0
 30 38  1  0  0  0  0
 30 31  2  0  0  0  0
  8  9  1  0  0  0  0
  9 17  1  0  0  0  0
  9 10  2  0  0  0  0
 18 19  1  0  0  0  0
 19 28  1  0  0  0  0
 19 20  2  0  0  0  0
 29 32  1  0  0  0  0
  8 11  1  0  0  0  0
 38 39  1  0  0  0  0
 18 21  1  0  0  0  0
 21 22  1  0  0  0  0
 28 29  1  0  0  0  0
  7  8  1  0  0  0  0
 17 18  1  0  0  0  0
  3  4  1  0  0  0  0
  3  5  1  0  0  0  0
  3  6  1  0  0  0  0
 32 35  1  0  0  0  0
 32 36  1  0  0  0  0
 32 37  1  0  0  0  0
 11 14  1  0  0  0  0
 11 15  1  0  0  0  0
 11 16  1  0  0  0  0
 39 41  1  0  0  0  0
 39 42  1  0  0  0  0
 39 43  1  0  0  0  0
 21 25  1  0  0  0  0
 21 26  1  0  0  0  0
 29 34  1  0  0  0  0
  8 13  1  0  0  0  0
 18 24  1  0  0  0  0
 38 40  1  0  0  0  0
  7 12  1  0  0  0  0
 28 33  1  0  0  0  0
 17 23  1  0  0  0  0
 22 27  1  0  0  0  0
M  END
$$$$

  -OEChem-05262214473D

 43 42  0     1  0  0  0  0  0999 V2000
    0.7424   -1.0926    4.5665 C   0  0  0  0  0  0  0  0  0  0  0  0
    0.1409   -0.5364    5.4779 O   0  0  0  0  0  0  0  0  0  0  0  0
    1.7940   -2.1023    4.8871 C   0  0  0  0  0  0  0  0  0  0  0  0
    2.7935   -1.6502    4.9904 H   0  0  0  0  0  0  0  0  0  0  0  0
    1.6064   -2.6156    5.8438 H   0  0  0  0  0  0  0  0  0  0  0  0
    1.9156   -2.9078    4.1453 H   0  0  0  0  0  0  0  0  0  0  0  0
    0.5488   -0.8838    3.2109 N   0  0  0  0  0  0  0  0  0  0  0  0
   -0.4159    0.0446    2.6829 C   0  0  2  0  0  0  0  0  0  0  0  0
   -0.7551   -0.3867    1.2623 C   0  0  0  0  0  0  0  0  0  0  0  0
   -0.0106   -1.0851    0.5774 O   0  0  0  0  0  0  0  0  0  0  0  0
    0.1168    1.4689    2.7060 C   0  0  0  0  0  0  0  0  0  0  0  0
    1.1183   -1.4145    2.5542 H   0  0  0  0  0  0  0  0  0  0  0  0
   -1.3088   -0.0350    3.3125 H   0  0  0  0  0  0  0  0  0  0  0  0
    1.0116    1.5681    2.0808 H   0  0  0  0  0  0  0  0  0  0  0  0
   -0.6289    2.1775    2.3307 H   0  0  0  0  0  0  0  0  0  0  0  0
    0.3882    1.7670    3.7245 H   0  0  0  0  0  0  0  0  0  0  0  0
   -1.9689    0.1350    0.8298 N   0  0  0  0  0  0  0  0  0  0  0  0
   -2.5039   -0.1183   -0.4830 C   0  0  2  0  0  0  0  0  0  0  0  0
   -1.3365   -0.3183   -1.4433 C   0  0  0  0  0  0  0  0  0  0  0  0
   -0.1922   -0.5608   -1.0654 O   0  0  0  0  0  0  0  0  0  0  0  0
   -3.4330    1.0019   -0.9397 C   0  0  0  0  0  0  0  0  0  0  0  0
   -2.6997    2.2084   -1.1179 O   0  0  0  0  0  0  0  0  0  0  0  0
   -2.5276    0.6894    1.4750 H   0  0  0  0  0  0  0  0  0  0  0  0
   -3.0677   -1.0555   -0.4107 H   0  0  0  0  0  0  0  0  0  0  0  0
   -4.2180    1.1880   -0.1996 H   0  0  0  0  0  0  0  0  0  0  0  0
   -3.9044    0.7460   -1.8945 H   0  0  0  0  0  0  0  0  0  0  0  0
   -2.0273    2.0281   -1.7938 H   0  0  0  0  0  0  0  0  0  0  0  0
   -1.7325   -0.2366   -2.7708 N   0  0  0  0  0  0  0  0  0  0  0  0
   -0.8172   -0.4212   -3.8730 C   0  0  2  0  0  0  0  0  0  0  0  0
    0.2197   -1.4554   -3.4552 C   0  0  0  0  0  0  0  0  0  0  0  0
    0.4814   -1.7062   -2.2806 O   0  0  0  0  0  0  0  0  0  0  0  0
   -0.1513    0.8888   -4.2645 C   0  0  0  0  0  0  0  0  0  0  0  0
   -2.7103   -0.0718   -2.9909 H   0  0  0  0  0  0  0  0  0  0  0  0
   -1.4056   -0.8109   -4.7108 H   0  0  0  0  0  0  0  0  0  0  0  0
    0.4428    1.2946   -3.4375 H   0  0  0  0  0  0  0  0  0  0  0  0
    0.5206    0.7527   -5.1184 H   0  0  0  0  0  0  0  0  0  0  0  0
   -0.9000    1.6407   -4.5361 H   0  0  0  0  0  0  0  0  0  0  0  0
    0.8491   -2.0345   -4.5482 N   0  0  0  0  0  0  0  0  0  0  0  0
    1.8807   -3.0363   -4.4133 C   0  0  0  0  0  0  0  0  0  0  0  0
    0.5553   -1.7801   -5.4866 H   0  0  0  0  0  0  0  0  0  0  0  0
    2.8669   -2.5490   -4.4046 H   0  0  0  0  0  0  0  0  0  0  0  0
    1.7358   -3.5873   -3.4724 H   0  0  0  0  0  0  0  0  0  0  0  0
    1.8252   -3.7359   -5.2603 H   0  0  0  0  0  0  0  0  0  0  0  0
  1  3  1  0  0  0  0
  1  7  1  0  0  0  0
  1  2  2  0  0  0  0
 29 30  1  0  0  0  0
 30 38  1  0  0  0  0
 30 31  2  0  0  0  0
  8  9  1  0  0  0  0
  9 17  1  0  0  0  0
  9 10  2  0  0  0  0
 18 19  1  0  0  0  0
 19 28  1  0  0  0  0
 19 20  2  0  0  0  0
 29 32  1  0  0  0  0
  8 11  1  0  0  0  0
 38 39  1  0  0  0  0
 18 21  1  0  0  0  0
 21 22  1  0  0  0  0
 28 29  1  0  0  0  0
  7  8  1  0  0  0  0
 17 18  1  0  0  0  0
  3  4  1  0  0  0  0
  3  5  1  0  0  0  0
  3  6  1  0  0  0  0
 32 35  1  0  0  0  0
 32 36  1  0  0  0  0
 32 37  1  0  0  0  0
 11 14  1  0  0  0  0
 11 15  1  0  0  0  0
 11 16  1  0  0  0  0
 39 41  1  0  0  0  0
 39 42  1  0  0  0  0
 39 43  1  0  0  0  0
 21 25  1  0  0  0  0
 21 26  1  0  0  0  0
 29 34  1  0  0  0  0
  8 13  1  0  0  0  0
 18 24  1  0  0  0  0
 38 40  1  0  0  0  0
  7 12  1  0  0  0  0
 28 33  1  0  0  0  0
 17 23  1  0  0  0  0
 22 27  1  0  0  0  0
M  END
$$$$

  -OEChem-05262214473D

 43 42  0     1  0  0  0  0  0999 V2000
    0.7424   -1.0926    4.5665 C   0  0  0  0  0  0  0  0  0  0  0  0
    0.1409   -0.5364    5.4779 O   0  0  0  0  0  0  0  0  0  0  0  0
    1.7940   -2.1023    4.8871 C   0  0  0  0  0  0  0  0  0  0  0  0
    2.7935   -1.6502    4.9904 H   0  0  0  0  0  0  0  0  0  0  0  0
    1.6064   -2.6156    5.8438 H   0  0  0  0  0  0  0  0  0  0  0  0
    1.9156   -2.9078    4.1453 H   0  0  0  0  0  0  0  0  0  0  0  0
    0.5488   -0.8838    3.2109 N   0  0  0  0  0  0  0  0  0  0  0  0
   -0.4159    0.0446    2.6829 C   0  0  2  0  0  0  0  0  0  0  0  0
   -0.7551   -0.3867    1.2623 C   0  0  0  0  0  0  0  0  0  0  0  0
   -0.0106   -1.0851    0.5774 O   0  0  0  0  0  0  0  0  0  0  0  0
    0.1168    1.4689    2.7060 C   0  0  0  0  0  0  0  0  0  0  0  0
    1.1183   -1.4145    2.5542 H   0  0  0  0  0  0  0  0  0  0  0  0
   -1.3088   -0.0350    3.3125 H   0  0  0  0  0  0  0  0  0  0  0  0
    1.0116    1.5681    2.0808 H   0  0  0  0  0  0  0  0  0  0  0  0
   -0.6289    2.1775    2.3307 H   0  0  0  0  0  0  0  0  0  0  0  0
    0.3882    1.7670    3.7245 H   0  0  0  0  0  0  0  0  0  0  0  0
   -1.9689    0.1350    0.8298 N   0  0  0  0  0  0  0  0  0  0  0  0
   -2.5039   -0.1183   -0.4830 C   0  0  2  0  0  0  0  0  0  0  0  0
   -1.3365   -0.3183   -1.4433 C   0  0  0  0  0  0  0  0  0  0  0  0
   -0.2660   -0.8169   -1.1019 O   0  0  0  0  0  0  0  0  0  0  0  0
   -3.4330    1.0019   -0.9397 C   0  0  0  0  0  0  0  0  0  0  0  0
   -2.6997    2.2084   -1.1179 O   0  0  0  0  0  0  0  0  0  0  0  0
   -2.5276    0.6894    1.4750 H   0  0  0  0  0  0  0  0  0  0  0  0
   -3.0677   -1.0555   -0.4107 H   0  0  0  0  0  0  0  0  0  0  0  0
   -4.2180    1.1880   -0.1996 H   0  0  0  0  0  0  0  0  0  0  0  0
   -3.9044    0.7460   -1.8945 H   0  0  0  0  0  0  0  0  0  0  0  0
   -2.0273    2.0281   -1.7938 H   0  0  0  0  0  0  0  0  0  0  0  0
   -1.6470    0.0858   -2.7341 N   0  0  0  0  0  0  0  0  0  0  0  0
   -0.7186   -0.0295   -3.8346 C   0  0  2  0  0  0  0  0  0  0  0  0
    0.1176   -1.2833   -3.6151 C   0  0  0  0  0  0  0  0  0  0  0  0
    0.2765   -1.7987   -2.5104 O   0  0  0  0  0  0  0  0  0  0  0  0
    0.1668    1.2022   -3.9431 C   0  0  0  0  0  0  0  0  0  0  0  0
   -2.5736    0.4509   -2.9336 H   0  0  0  0  0  0  0  0  0  0  0  0
   -1.3187   -0.1446   -4.7439 H   0  0  0  0  0  0  0  0  0  0  0  0
    0.7756    1.3340   -3.0412 H   0  0  0  0  0  0  0  0  0  0  0  0
    0.8504    1.1256   -4.7951 H   0  0  0  0  0  0  0  0  0  0  0  0
   -0.4377    2.1066   -4.0712 H   0  0  0  0  0  0  0  0  0  0  0  0
    0.7008   -1.7342   -4.7910 N   0  0  0  0  0  0  0  0  0  0  0  0
    1.5512   -2.9005   -4.8422 C   0  0  0  0  0  0  0  0  0  0  0  0
    0.4990   -1.2561   -5.6641 H   0  0  0  0  0  0  0  0  0  0  0  0
    2.6008   -2.5953   -4.7184 H   0  0  0  0  0  0  0  0  0  0  0  0
    1.2730   -3.5928   -4.0339 H   0  0  0  0  0  0  0  0  0  0  0  0
    1.4274   -3.4020   -5.8133 H   0  0  0  0  0  0  0  0  0  0  0  0
  1  3  1  0  0  0  0
  1  7  1  0  0  0  0
  1  2  2  0  0  0  0
 29 30  1  0  0  0  0
 30 38  1  0  0  0  0
 30 31  2  0  0  0  0
  8  9  1  0  0  0  0
  9 17  1  0  0  0  0
  9 10  2  0  0  0  0
 18 19  1  0  0  0  0
 19 28  1  0  0  0  0
 19 20  2  0  0  0  0
 29 32  1  0  0  0  0
  8 11  1  0  0  0  0
 38 39  1  0  0  0  0
 18 21  1  0  0  0  0
 21 22  1  0  0  0  0
 28 29  1  0  0  0  0
  7  8  1  0  0  0  0
 17 18  1  0  0  0  0
  3  4  1  0  0  0  0
  3  5  1  0  0  0  0
  3  6  1  0  0  0  0
 32 35  1  0  0  0  0
 32 36  1  0  0  0  0
 32 37  1  0  0  0  0
 11 14  1  0  0  0  0
 11 15  1  0  0  0  0
 11 16  1  0  0  0  0
 39 41  1  0  0  0  0
 39 42  1  0  0  0  0
 39 43  1  0  0  0  0
 21 25  1  0  0  0  0
 21 26  1  0  0  0  0
 29 34  1  0  0  0  0
  8 13  1  0  0  0  0
 18 24  1  0  0  0  0
 38 40  1  0  0  0  0
  7 12  1  0  0  0  0
 28 33  1  0  0  0  0
 17 23  1  0  0  0  0
 22 27  1  0  0  0  0
M  END
$$$$

  -OEChem-05262214473D

 43 42  0     1  0  0  0  0  0999 V2000
    0.7424   -1.0926    4.5665 C   0  0  0  0  0  0  0  0  0  0  0  0
    0.1409   -0.5364    5.4779 O   0  0  0  0  0  0  0  0  0  0  0  0
    1.7940   -2.1023    4.8871 C   0  0  0  0  0  0  0  0  0  0  0  0
    2.7935   -1.6502    4.9904 H   0  0  0  0  0  0  0  0  0  0  0  0
    1.6064   -2.6156    5.8438 H   0  0  0  0  0  0  0  0  0  0  0  0
    1.9156   -2.9078    4.1453 H   0  0  0  0  0  0  0  0  0  0  0  0
    0.5488   -0.8838    3.2109 N   0  0  0  0  0  0  0  0  0  0  0  0
   -0.4159    0.0446    2.6829 C   0  0  2  0  0  0  0  0  0  0  0  0
   -0.7551   -0.3867    1.2623 C   0  0  0  0  0  0  0  0  0  0  0  0
   -0.0106   -1.0851    0.5774 O   0  0  0  0  0  0  0  0  0  0  0  0
    0.1168    1.4689    2.7060 C   0  0  0  0  0  0  0  0  0  0  0  0
    1.1183   -1.4145    2.5542 H   0  0  0  0  0  0  0  0  0  0  0  0
   -1.3088   -0.0350    3.3125 H   0  0  0  0  0  0  0  0  0  0  0  0
    1.0116    1.5681    2.0808 H   0  0  0  0  0  0  0  0  0  0  0  0
   -0.6289    2.1775    2.3307 H   0  0  0  0  0  0  0  0  0  0  0  0
    0.3882    1.7670    3.7245 H   0  0  0  0  0  0  0  0  0  0  0  0
   -1.9689    0.1350    0.8298 N   0  0  0  0  0  0  0  0  0  0  0  0
   -2.5039   -0.1183   -0.4830 C   0  0  2  0  0  0  0  0  0  0  0  0
   -1.3365   -0.3183   -1.4433 C   0  0  0  0  0  0  0  0  0  0  0  0
   -0.3779   -1.0451   -1.1904 O   0  0  0  0  0  0  0  0  0  0  0  0
   -3.4330    1.0019   -0.9397 C   0  0  0  0  0  0  0  0  0  0  0  0
   -2.6997    2.2084   -1.1179 O   0  0  0  0  0  0  0  0  0  0  0  0
   -2.5276    0.6894    1.4750 H   0  0  0  0  0  0  0  0  0  0  0  0
   -3.0677   -1.0555   -0.4107 H   0  0  0  0  0  0  0  0  0  0  0  0
   -4.2180    1.1880   -0.1996 H   0  0  0  0  0  0  0  0  0  0  0  0
   -3.9044    0.7460   -1.8945 H   0  0  0  0  0  0  0  0  0  0  0  0
   -2.0273    2.0281   -1.7938 H   0  0  0  0  0  0  0  0  0  0  0  0
   -1.5131    0.3761   -2.6317 N   0  0  0  0  0  0  0  0  0  0  0  0
   -0.5608    0.3251   -3.7166 C   0  0  2  0  0  0  0  0  0  0  0  0
    0.0525   -1.0688   -3.7389 C   0  0  0  0  0  0  0  0  0  0  0  0
    0.0712   -1.8092   -2.7578 O   0  0  0  0  0  0  0  0  0  0  0  0
    0.5141    1.3894   -3.5598 C   0  0  0  0  0  0  0  0  0  0  0  0
   -2.3583    0.9221   -2.7701 H   0  0  0  0  0  0  0  0  0  0  0  0
   -1.1249    0.4913   -4.6408 H   0  0  0  0  0  0  0  0  0  0  0  0
    1.0899    1.2393   -2.6393 H   0  0  0  0  0  0  0  0  0  0  0  0
    1.2188    1.3680   -4.3977 H   0  0  0  0  0  0  0  0  0  0  0  0
    0.0689    2.3891   -3.5141 H   0  0  0  0  0  0  0  0  0  0  0  0
    0.6148   -1.3720   -4.9710 N   0  0  0  0  0  0  0  0  0  0  0  0
    1.2696   -2.6307   -5.2407 C   0  0  0  0  0  0  0  0  0  0  0  0
    0.5361   -0.7057   -5.7337 H   0  0  0  0  0  0  0  0  0  0  0  0
    2.3469   -2.5346   -5.0397 H   0  0  0  0  0  0  0  0  0  0  0  0
    0.8442   -3.4114   -4.5930 H   0  0  0  0  0  0  0  0  0  0  0  0
    1.1165   -2.9051   -6.2948 H   0  0  0  0  0  0  0  0  0  0  0  0
  1  3  1  0  0  0  0
  1  7  1  0  0  0  0
  1  2  2  0  0  0  0
 29 30  1  0  0  0  0
 30 38  1  0  0  0  0
 30 31  2  0  0  0  0
  8  9  1  0  0  0  0
  9 17  1  0  0  0  0
  9 10  2  0  0  0  0
 18 19  1  0  0  0  0
 19 28  1  0  0  0  0
 19 20  2  0  0  0  0
 29 32  1  0  0  0  0
  8 11  1  0  0  0  0
 38 39  1  0  0  0  0
 18 21  1  0  0  0  0
 21 22  1  0  0  0  0
 28 29  1  0  0  0  0
  7  8  1  0  0  0  0
 17 18  1  0  0  0  0
  3  4  1  0  0  0  0
  3  5  1  0  0  0  0
  3  6  1  0  0  0  0
 32 35  1  0  0  0  0
 32 36  1  0  0  0  0
 32 37  1  0  0  0  0
 11 14  1  0  0  0  0
 11 15  1  0  0  0  0
 11 16  1  0  0  0  0
 39 41  1  0  0  0  0
 39 42  1  0  0  0  0
 39 43  1  0  0  0  0
 21 25  1  0  0  0  0
 21 26  1  0  0  0  0
 29 34  1  0  0  0  0
  8 13  1  0  0  0  0
 18 24  1  0  0  0  0
 38 40  1  0  0  0  0
  7 12  1  0  0  0  0
 28 33  1  0  0  0  0
 17 23  1  0  0  0  0
 22 27  1  0  0  0  0
M  END
$$$$

  -OEChem-05262214473D

 43 42  0     1  0  0  0  0  0999 V2000
    0.7424   -1.0926    4.5665 C   0  0  0  0  0  0  0  0  0  0  0  0
    0.1409   -0.5364    5.4779 O   0  0  0  0  0  0  0  0  0  0  0  0
    1.7940   -2.1023    4.8871 C   0  0  0  0  0  0  0  0  0  0  0  0
    2.7935   -1.6502    4.9904 H   0  0  0  0  0  0  0  0  0  0  0  0
    1.6064   -2.6156    5.8438 H   0  0  0  0  0  0  0  0  0  0  0  0
    1.9156   -2.9078    4.1453 H   0  0  0  0  0  0  0  0  0  0  0  0
    0.5488   -0.8838    3.2109 N   0  0  0  0  0  0  0  0  0  0  0  0
   -0.4159    0.0446    2.6829 C   0  0  2  0  0  0  0  0  0  0  0  0
   -0.7551   -0.3867    1.2623 C   0  0  0  0  0  0  0  0  0  0  0  0
   -0.0106   -1.0851    0.5774 O   0  0  0  0  0  0  0  0  0  0  0  0
    0.1168    1.4689    2.7060 C   0  0  0  0  0  0  0  0  0  0  0  0
    1.1183   -1.4145    2.5542 H   0  0  0  0  0  0  0  0  0  0  0  0
   -1.3088   -0.0350    3.3125 H   0  0  0  0  0  0  0  0  0  0  0  0
    1.0116    1.5681    2.0808 H   0  0  0  0  0  0  0  0  0  0  0  0
   -0.6289    2.1775    2.3307 H   0  0  0  0  0  0  0  0  0  0  0  0
    0.3882    1.7670    3.7245 H   0  0  0  0  0  0  0  0  0  0  0  0
   -1.9689    0.1350    0.8298 N   0  0  0  0  0  0  0  0  0  0  0  0
   -2.5039   -0.1183   -0.4830 C   0  0  2  0  0  0  0  0  0  0  0  0
   -1.3365   -0.3183   -1.4433 C   0  0  0  0  0  0  0  0  0  0  0  0
   -0.5202   -1.2297   -1.3248 O   0  0  0  0  0  0  0  0  0  0  0  0
   -3.4330    1.0019   -0.9397 C   0  0  0  0  0  0  0  0  0  0  0  0
   -2.6997    2.2084   -1.1179 O   0  0  0  0  0  0  0  0  0  0  0  0
   -2.5276    0.6894    1.4750 H   0  0  0  0  0  0  0  0  0  0  0  0
   -3.0677   -1.0555   -0.4107 H   0  0  0  0  0  0  0  0  0  0  0  0
   -4.2180    1.1880   -0.1996 H   0  0  0  0  0  0  0  0  0  0  0  0
   -3.9044    0.7460   -1.8945 H   0  0  0  0  0  0  0  0  0  0  0  0
   -2.0273    2.0281   -1.7938 H   0  0  0  0  0  0  0  0  0  0  0  0
   -1.3399    0.6144   -2.4708 N   0  0  0  0  0  0  0  0  0  0  0  0
   -0.3545    0.6185   -3.5270 C   0  0  2  0  0  0  0  0  0  0  0  0
    0.0288   -0.8264   -3.8182 C   0  0  0  0  0  0  0  0  0  0  0  0
   -0.1203   -1.7367   -3.0057 O   0  0  0  0  0  0  0  0  0  0  0  0
    0.8672    1.4376   -3.1407 C   0  0  0  0  0  0  0  0  0  0  0  0
   -2.0791    1.3098   -2.5114 H   0  0  0  0  0  0  0  0  0  0  0  0
   -0.8377    1.0536   -4.4086 H   0  0  0  0  0  0  0  0  0  0  0  0
    1.3645    1.0169   -2.2592 H   0  0  0  0  0  0  0  0  0  0  0  0
    1.6007    1.4634   -3.9533 H   0  0  0  0  0  0  0  0  0  0  0  0
    0.5855    2.4691   -2.9028 H   0  0  0  0  0  0  0  0  0  0  0  0
    0.5968   -0.9723   -5.0761 N   0  0  0  0  0  0  0  0  0  0  0  0
    1.0552   -2.2452   -5.5817 C   0  0  0  0  0  0  0  0  0  0  0  0
    0.6639   -0.1663   -5.6906 H   0  0  0  0  0  0  0  0  0  0  0  0
    2.1224   -2.3709   -5.3467 H   0  0  0  0  0  0  0  0  0  0  0  0
    0.4785   -3.0555   -5.1116 H   0  0  0  0  0  0  0  0  0  0  0  0
    0.9135   -2.2791   -6.6720 H   0  0  0  0  0  0  0  0  0  0  0  0
  1  3  1  0  0  0  0
  1  7  1  0  0  0  0
  1  2  2  0  0  0  0
 29 30  1  0  0  0  0
 30 38  1  0  0  0  0
 30 31  2  0  0  0  0
  8  9  1  0  0  0  0
  9 17  1  0  0  0  0
  9 10  2  0  0  0  0
 18 19  1  0  0  0  0
 19 28  1  0  0  0  0
 19 20  2  0  0  0  0
 29 32  1  0  0  0  0
  8 11  1  0  0  0  0
 38 39  1  0  0  0  0
 18 21  1  0  0  0  0
 21 22  1  0  0  0  0
 28 29  1  0  0  0  0
  7  8  1  0  0  0  0
 17 18  1  0  0  0  0
  3  4  1  0  0  0  0
  3  5  1  0  0  0  0
  3  6  1  0  0  0  0
 32 35  1  0  0  0  0
 32 36  1  0  0  0  0
 32 37  1  0  0  0  0
 11 14  1  0  0  0  0
 11 15  1  0  0  0  0
 11 16  1  0  0  0  0
 39 41  1  0  0  0  0
 39 42  1  0  0  0  0
 39 43  1  0  0  0  0
 21 25  1  0  0  0  0
 21 26  1  0  0  0  0
 29 34  1  0  0  0  0
  8 13  1  0  0  0  0
 18 24  1  0  0  0  0
 38 40  1  0  0  0  0
  7 12  1  0  0  0  0
 28 33  1  0  0  0  0
 17 23  1  0  0  0  0
 22 27  1  0  0  0  0
M  END
$$$$

  -OEChem-05262214473D

 43 42  0     1  0  0  0  0  0999 V2000
    0.7424   -1.0926    4.5665 C   0  0  0  0  0  0  0  0  0  0  0  0
    0.1409   -0.5364    5.4779 O   0  0  0  0  0  0  0  0  0  0  0  0
    1.7940   -2.1023    4.8871 C   0  0  0  0  0  0  0  0  0  0  0  0
    2.7935   -1.6502    4.9904 H   0  0  0  0  0  0  0  0  0  0  0  0
    1.6064   -2.6156    5.8438 H   0  0  0  0  0  0  0  0  0  0  0  0
    1.9156   -2.9078    4.1453 H   0  0  0  0  0  0  0  0  0  0  0  0
    0.5488   -0.8838    3.2109 N   0  0  0  0  0  0  0  0  0  0  0  0
   -0.4159    0.0446    2.6829 C   0  0  2  0  0  0  0  0  0  0  0  0
   -0.7551   -0.3867    1.2623 C   0  0  0  0  0  0  0  0  0  0  0  0
   -0.0106   -1.0851    0.5774 O   0  0  0  0  0  0  0  0  0  0  0  0
    0.1168    1.4689    2.7060 C   0  0  0  0  0  0  0  0  0  0  0  0
    1.1183   -1.4145    2.5542 H   0  0  0  0  0  0  0  0  0  0  0  0
   -1.3088   -0.0350    3.3125 H   0  0  0  0  0  0  0  0  0  0  0  0
    1.0116    1.5681    2.0808 H   0  0  0  0  0  0  0  0  0  0  0  0
   -0.6289    2.1775    2.3307 H   0  0  0  0  0  0  0  0  0  0  0  0
    0.3882    1.7670    3.7245 H   0  0  0  0  0  0  0  0  0  0  0  0
   -1.9689    0.1350    0.8298 N   0  0  0  0  0  0  0  0  0  0  0  0
   -2.5039   -0.1183   -0.4830 C   0  0  2  0  0  0  0  0  0  0  0  0
   -1.3365   -0.3183   -1.4433 C   0  0  0  0  0  0  0  0  0  0  0  0
   -0.6831   -1.3582   -1.4961 O   0  0  0  0  0  0  0  0  0  0  0  0
   -3.4330    1.0019   -0.9397 C   0  0  0  0  0  0  0  0  0  0  0  0
   -2.6997    2.2084   -1.1179 O   0  0  0  0  0  0  0  0  0  0  0  0
   -2.5276    0.6894    1.4750 H   0  0  0  0  0  0  0  0  0  0  0  0
   -3.0677   -1.0555   -0.4107 H   0  0  0  0  0  0  0  0  0  0  0  0
   -4.2180    1.1880   -0.1996 H   0  0  0  0  0  0  0  0  0  0  0  0
   -3.9044    0.7460   -1.8945 H   0  0  0  0  0  0  0  0  0  0  0  0
   -2.0273    2.0281   -1.7938 H   0  0  0  0  0  0  0  0  0  0  0  0
   -1.1393    0.7844   -2.2623 N   0  0  0  0  0  0  0  0  0  0  0  0
   -0.1139    0.8307   -3.2787 C   0  0  2  0  0  0  0  0  0  0  0  0
    0.0481   -0.5727   -3.8476 C   0  0  0  0  0  0  0  0  0  0  0  0
   -0.2851   -1.5865   -3.2374 O   0  0  0  0  0  0  0  0  0  0  0  0
    1.2018    1.3437   -2.7143 C   0  0  0  0  0  0  0  0  0  0  0  0
   -1.7551    1.5875   -2.1753 H   0  0  0  0  0  0  0  0  0  0  0  0
   -0.4764    1.5039   -4.0632 H   0  0  0  0  0  0  0  0  0  0  0  0
    1.5806    0.6821   -1.9268 H   0  0  0  0  0  0  0  0  0  0  0  0
    1.9701    1.4052   -3.4922 H   0  0  0  0  0  0  0  0  0  0  0  0
    1.0767    2.3410   -2.2789 H   0  0  0  0  0  0  0  0  0  0  0  0
    0.6482   -0.5625   -5.0990 N   0  0  0  0  0  0  0  0  0  0  0  0
    0.9224   -1.7703   -5.8419 C   0  0  0  0  0  0  0  0  0  0  0  0
    0.8739    0.3253   -5.5377 H   0  0  0  0  0  0  0  0  0  0  0  0
    1.9427   -2.1153   -5.6183 H   0  0  0  0  0  0  0  0  0  0  0  0
    0.2008   -2.5493   -5.5545 H   0  0  0  0  0  0  0  0  0  0  0  0
    0.8322   -1.5665   -6.9191 H   0  0  0  0  0  0  0  0  0  0  0  0
  1  3  1  0  0  0  0
  1  7  1  0  0  0  0
  1  2  2  0  0  0  0
 29 30  1  0  0  0  0
 30 38  1  0  0  0  0
 30 31  2  0  0  0  0
  8  9  1  0  0  0  0
  9 17  1  0  0  0  0
  9 10  2  0  0  0  0
 18 19  1  0  0  0  0
 19 28  1  0  0  0  0
 19 20  2  0  0  0  0
 29 32  1  0  0  0  0
  8 11  1  0  0  0  0
 38 39  1  0  0  0  0
 18 21  1  0  0  0  0
 21 22  1  0  0  0  0
 28 29  1  0  0  0  0
  7  8  1  0  0  0  0
 17 18  1  0  0  0  0
  3  4  1  0  0  0  0
  3  5  1  0  0  0  0
  3  6  1  0  0  0  0
 32 35  1  0  0  0  0
 32 36  1  0  0  0  0
 32 37  1  0  0  0  0
 11 14  1  0  0  0  0
 11 15  1  0  0  0  0
 11 16  1  0  0  0  0
 39 41  1  0  0  0  0
 39 42  1  0  0  0  0
 39 43  1  0  0  0  0
 21 25  1  0  0  0  0
 21 26  1  0  0  0  0
 29 34  1  0  0  0  0
  8 13  1  0  0  0  0
 18 24  1  0  0  0  0
 38 40  1  0  0  0  0
  7 12  1  0  0  0  0
 28 33  1  0  0  0  0
 17 23  1  0  0  0  0
 22 27  1  0  0  0  0
M  END
$$$$

  -OEChem-05262214473D

 43 42  0     1  0  0  0  0  0999 V2000
    0.7424   -1.0926    4.5665 C   0  0  0  0  0  0  0  0  0  0  0  0
    0.1409   -0.5364    5.4779 O   0  0  0  0  0  0  0  0  0  0  0  0
    1.7940   -2.1023    4.8871 C   0  0  0  0  0  0  0  0  0  0  0  0
    2.7935   -1.6502    4.9904 H   0  0  0  0  0  0  0  0  0  0  0  0
    1.6064   -2.6156    5.8438 H   0  0  0  0  0  0  0  0  0  0  0  0
    1.9156   -2.9078    4.1453 H   0  0  0  0  0  0  0  0  0  0  0  0
    0.5488   -0.8838    3.2109 N   0  0  0  0  0  0  0  0  0  0  0  0
   -0.4159    0.0446    2.6829 C   0  0  2  0  0  0  0  0  0  0  0  0
   -0.7551   -0.3867    1.2623 C   0  0  0  0  0  0  0  0  0  0  0  0
   -0.0106   -1.0851    0.5774 O   0  0  0  0  0  0  0  0  0  0  0  0
    0.1168    1.4689    2.7060 C   0  0  0  0  0  0  0  0  0  0  0  0
    1.1183   -1.4145    2.5542 H   0  0  0  0  0  0  0  0  0  0  0  0
   -1.3088   -0.0350    3.3125 H   0  0  0  0  0  0  0  0  0  0  0  0
    1.0116    1.5681    2.0808 H   0  0  0  0  0  0  0  0  0  0  0  0
   -0.6289    2.1775    2.3307 H   0  0  0  0  0  0  0  0  0  0  0  0
    0.3882    1.7670    3.7245 H   0  0  0  0  0  0  0  0  0  0  0  0
   -1.9689    0.1350    0.8298 N   0  0  0  0  0  0  0  0  0  0  0  0
   -2.5039   -0.1183   -0.4830 C   0  0  2  0  0  0  0  0  0  0  0  0
   -1.3365   -0.3183   -1.4433 C   0  0  0  0  0  0  0  0  0  0  0  0
   -0.8556   -1.4218   -1.6926 O   0  0  0  0  0  0  0  0  0  0  0  0
   -3.4330    1.0019   -0.9397 C   0  0  0  0  0  0  0  0  0  0  0  0
   -2.6997    2.2084   -1.1179 O   0  0  0  0  0  0  0  0  0  0  0  0
   -2.5276    0.6894    1.4750 H   0  0  0  0  0  0  0  0  0  0  0  0
   -3.0677   -1.0555   -0.4107 H   0  0  0  0  0  0  0  0  0  0  0  0
   -4.2180    1.1880   -0.1996 H   0  0  0  0  0  0  0  0  0  0  0  0
   -3.9044    0.7460   -1.8945 H   0  0  0  0  0  0  0  0  0  0  0  0
   -2.0273    2.0281   -1.7938 H   0  0  0  0  0  0  0  0  0  0  0  0
   -0.9248    0.8747   -2.0204 N   0  0  0  0  0  0  0  0  0  0  0  0
    0.1447    0.9473   -2.9886 C   0  0  2  0  0  0  0  0  0  0  0  0
    0.1091   -0.3250   -3.8250 C   0  0  0  0  0  0  0  0  0  0  0  0
   -0.4120   -1.3685   -3.4369 O   0  0  0  0  0  0  0  0  0  0  0  0
    1.4953    1.1139   -2.3098 C   0  0  0  0  0  0  0  0  0  0  0  0
   -1.4081    1.7363   -1.7845 H   0  0  0  0  0  0  0  0  0  0  0  0
   -0.0658    1.8115   -3.6281 H   0  0  0  0  0  0  0  0  0  0  0  0
    1.7235    0.2575   -1.6647 H   0  0  0  0  0  0  0  0  0  0  0  0
    2.3017    1.1974   -3.0458 H   0  0  0  0  0  0  0  0  0  0  0  0
    1.5091    2.0135   -1.6851 H   0  0  0  0  0  0  0  0  0  0  0  0
    0.7653   -0.1706   -5.0381 N   0  0  0  0  0  0  0  0  0  0  0  0
    0.8804   -1.2384   -6.0038 C   0  0  0  0  0  0  0  0  0  0  0  0
    1.1517    0.7357   -5.2854 H   0  0  0  0  0  0  0  0  0  0  0  0
    1.8200   -1.7853   -5.8362 H   0  0  0  0  0  0  0  0  0  0  0  0
    0.0302   -1.9273   -5.8914 H   0  0  0  0  0  0  0  0  0  0  0  0
    0.8783   -0.8160   -7.0194 H   0  0  0  0  0  0  0  0  0  0  0  0
  1  3  1  0  0  0  0
  1  7  1  0  0  0  0
  1  2  2  0  0  0  0
 29 30  1  0  0  0  0
 30 38  1  0  0  0  0
 30 31  2  0  0  0  0
  8  9  1  0  0  0  0
  9 17  1  0  0  0  0
  9 10  2  0  0  0  0
 18 19  1  0  0  0  0
 19 28  1  0  0  0  0
 19 20  2  0  0  0  0
 29 32  1  0  0  0  0
  8 11  1  0  0  0  0
 38 39  1  0  0  0  0
 18 21  1  0  0  0  0
 21 22  1  0  0  0  0
 28 29  1  0  0  0  0
  7  8  1  0  0  0  0
 17 18  1  0  0  0  0
  3  4  1  0  0  0  0
  3  5  1  0  0  0  0
  3  6  1  0  0  0  0
 32 35  1  0  0  0  0
 32 36  1  0  0  0  0
 32 37  1  0  0  0  0
 11 14  1  0  0  0  0
 11 15  1  0  0  0  0
 11 16  1  0  0  0  0
 39 41  1  0  0  0  0
 39 42  1  0  0  0  0
 39 43  1  0  0  0  0
 21 25  1  0  0  0  0
 21 26  1  0  0  0  0
 29 34  1  0  0  0  0
  8 13  1  0  0  0  0
 18 24  1  0  0  0  0
 38 40  1  0  0  0  0
  7 12  1  0  0  0  0
 28 33  1  0  0  0  0
 17 23  1  0  0  0  0
 22 27  1  0  0  0  0
M  END
$$$$

  -OEChem-05262214473D

 43 42  0     1  0  0  0  0  0999 V2000
    0.7424   -1.0926    4.5665 C   0  0  0  0  0  0  0  0  0  0  0  0
    0.1409   -0.5364    5.4779 O   0  0  0  0  0  0  0  0  0  0  0  0
    1.7940   -2.1023    4.8871 C   0  0  0  0  0  0  0  0  0  0  0  0
    2.7935   -1.6502    4.9904 H   0  0  0  0  0  0  0  0  0  0  0  0
    1.6064   -2.6156    5.8438 H   0  0  0  0  0  0  0  0  0  0  0  0
    1.9156   -2.9078    4.1453 H   0  0  0  0  0  0  0  0  0  0  0  0
    0.5488   -0.8838    3.2109 N   0  0  0  0  0  0  0  0  0  0  0  0
   -0.4159    0.0446    2.6829 C   0  0  2  0  0  0  0  0  0  0  0  0
   -0.7551   -0.3867    1.2623 C   0  0  0  0  0  0  0  0  0  0  0  0
   -0.0106   -1.0851    0.5774 O   0  0  0  0  0  0  0  0  0  0  0  0
    0.1168    1.4689    2.7060 C   0  0  0  0  0  0  0  0  0  0  0  0
    1.1183   -1.4145    2.5542 H   0  0  0  0  0  0  0  0  0  0  0  0
   -1.3088   -0.0350    3.3125 H   0  0  0  0  0  0  0  0  0  0  0  0
    1.0116    1.5681    2.0808 H   0  0  0  0  0  0  0  0  0  0  0  0
   -0.6289    2.1775    2.3307 H   0  0  0  0  0  0  0  0  0  0  0  0
    0.3882    1.7670    3.7245 H   0  0  0  0  0  0  0  0  0  0  0  0
   -1.9689    0.1350    0.8298 N   0  0  0  0  0  0  0  0  0  0  0  0
   -2.5039   -0.1183   -0.4830 C   0  0  2  0  0  0  0  0  0  0  0  0
   -1.3365   -0.3183   -1.4433 C   0  0  0  0  0  0  0  0  0  0  0  0
   -1.0259   -1.4162   -1.9008 O   0  0  0  0  0  0  0  0  0  0  0  0
   -3.4330    1.0019   -0.9397 C   0  0  0  0  0  0  0  0  0  0  0  0
   -2.6997    2.2084   -1.1179 O   0  0  0  0  0  0  0  0  0  0  0  0
   -2.5276    0.6894    1.4750 H   0  0  0  0  0  0  0  0  0  0  0  0
   -3.0677   -1.0555   -0.4107 H   0  0  0  0  0  0  0  0  0  0  0  0
   -4.2180    1.1880   -0.1996 H   0  0  0  0  0  0  0  0  0  0  0  0
   -3.9044    0.7460   -1.8945 H   0  0  0  0  0  0  0  0  0  0  0  0
   -2.0273    2.0281   -1.7938 H   0  0  0  0  0  0  0  0  0  0  0  0
   -0.7112    0.8790   -1.7616 N   0  0  0  0  0  0  0  0  0  0  0  0
    0.4036    0.9603   -2.6766 C   0  0  2  0  0  0  0  0  0  0  0  0
    0.2076   -0.1001   -3.7521 C   0  0  0  0  0  0  0  0  0  0  0  0
   -0.4922   -1.0978   -3.5908 O   0  0  0  0  0  0  0  0  0  0  0  0
    1.7275    0.7639   -1.9545 C   0  0  0  0  0  0  0  0  0  0  0  0
   -1.0621    1.7461   -1.3659 H   0  0  0  0  0  0  0  0  0  0  0  0
    0.3662    1.9554   -3.1329 H   0  0  0  0  0  0  0  0  0  0  0  0
    1.7834   -0.2278   -1.4908 H   0  0  0  0  0  0  0  0  0  0  0  0
    2.5730    0.8542   -2.6445 H   0  0  0  0  0  0  0  0  0  0  0  0
    1.8533    1.5091   -1.1616 H   0  0  0  0  0  0  0  0  0  0  0  0
    0.9404    0.1769   -4.8977 N   0  0  0  0  0  0  0  0  0  0  0  0
    0.9320   -0.6857   -6.0561 C   0  0  0  0  0  0  0  0  0  0  0  0
    1.4784    1.0368   -4.9510 H   0  0  0  0  0  0  0  0  0  0  0  0
    1.7626   -1.4034   -5.9855 H   0  0  0  0  0  0  0  0  0  0  0  0
   -0.0217   -1.2320   -6.0994 H   0  0  0  0  0  0  0  0  0  0  0  0
    1.0485   -0.0787   -6.9660 H   0  0  0  0  0  0  0  0  0  0  0  0
  1  3  1  0  0  0  0
  1  7  1  0  0  0  0
  1  2  2  0  0  0  0
 29 30  1  0  0  0  0
 30 38  1  0  0  0  0
 30 31  2  0  0  0  0
  8  9  1  0  0  0  0
  9 17  1  0  0  0  0
  9 10  2  0  0  0  0
 18 19  1  0  0  0  0
 19 28  1  0  0  0  0
 19 20  2  0  0  0  0
 29 32  1  0  0  0  0
  8 11  1  0  0  0  0
 38 39  1  0  0  0  0
 18 21  1  0  0  0  0
 21 22  1  0  0  0  0
 28 29  1  0  0  0  0
  7  8  1  0  0  0  0
 17 18  1  0  0  0  0
  3  4  1  0  0  0  0
  3  5  1  0  0  0  0
  3  6  1  0  0  0  0
 32 35  1  0  0  0  0
 32 36  1  0  0  0  0
 32 37  1  0  0  0  0
 11 14  1  0  0  0  0
 11 15  1  0  0  0  0
 11 16  1  0  0  0  0
 39 41  1  0  0  0  0
 39 42  1  0  0  0  0
 39 43  1  0  0  0  0
 21 25  1  0  0  0  0
 21 26  1  0  0  0  0
 29 34  1  0  0  0  0
  8 13  1  0  0  0  0
 18 24  1  0  0  0  0
 38 40  1  0  0  0  0
  7 12  1  0  0  0  0
 28 33  1  0  0  0  0
 17 23  1  0  0  0  0
 22 27  1  0  0  0  0
M  END
$$$$

  -OEChem-05262214473D

 43 42  0     1  0  0  0  0  0999 V2000
    0.7424   -1.0926    4.5665 C   0  0  0  0  0  0  0  0  0  0  0  0
    0.1409   -0.5364    5.4779 O   0  0  0  0  0  0  0  0  0  0  0  0
    1.7940   -2.1023    4.8871 C   0  0  0  0  0  0  0  0  0  0  0  0
    2.7935   -1.6502    4.9904 H   0  0  0  0  0  0  0  0  0  0  0  0
    1.6064   -2.6156    5.8438 H   0  0  0  0  0  0  0  0  0  0  0  0
    1.9156   -2.9078    4.1453 H   0  0  0  0  0  0  0  0  0  0  0  0
    0.5488   -0.8838    3.2109 N   0  0  0  0  0  0  0  0  0  0  0  0
   -0.4159    0.0446    2.6829 C   0  0  2  0  0  0  0  0  0  0  0  0
   -0.7551   -0.3867    1.2623 C   0  0  0  0  0  0  0  0  0  0  0  0
   -0.0106   -1.0851    0.5774 O   0  0  0  0  0  0  0  0  0  0  0  0
    0.1168    1.4689    2.7060 C   0  0  0  0  0  0  0  0  0  0  0  0
    1.1183   -1.4145    2.5542 H   0  0  0  0  0  0  0  0  0  0  0  0
   -1.3088   -0.0350    3.3125 H   0  0  0  0  0  0  0  0  0  0  0  0
    1.0116    1.5681    2.0808 H   0  0  0  0  0  0  0  0  0  0  0  0
   -0.6289    2.1775    2.3307 H   0  0  0  0  0  0  0  0  0  0  0  0
    0.3882    1.7670    3.7245 H   0  0  0  0  0  0  0  0  0  0  0  0
   -1.9689    0.1350    0.8298 N   0  0  0  0  0  0  0  0  0  0  0  0
   -2.5039   -0.1183   -0.4830 C   0  0  2  0  0  0  0  0  0  0  0  0
   -1.3365   -0.3183   -1.4433 C   0  0  0  0  0  0  0  0  0  0  0  0
   -1.1824   -1.3417   -2.1066 O   0  0  0  0  0  0  0  0  0  0  0  0
   -3.4330    1.0019   -0.9397 C   0  0  0  0  0  0  0  0  0  0  0  0
   -2.6997    2.2084   -1.1179 O   0  0  0  0  0  0  0  0  0  0  0  0
   -2.5276    0.6894    1.4750 H   0  0  0  0  0  0  0  0  0  0  0  0
   -3.0677   -1.0555   -0.4107 H   0  0  0  0  0  0  0  0  0  0  0  0
   -4.2180    1.1880   -0.1996 H   0  0  0  0  0  0  0  0  0  0  0  0
   -3.9044    0.7460   -1.8945 H   0  0  0  0  0  0  0  0  0  0  0  0
   -2.0273    2.0281   -1.7938 H   0  0  0  0  0  0  0  0  0  0  0  0
   -0.5129    0.7970   -1.5035 N   0  0  0  0  0  0  0  0  0  0  0  0
    0.6452    0.8688   -2.3638 C   0  0  2  0  0  0  0  0  0  0  0  0
    0.3369    0.0866   -3.6337 C   0  0  0  0  0  0  0  0  0  0  0  0
   -0.5203   -0.7927   -3.6885 O   0  0  0  0  0  0  0  0  0  0  0  0
    1.8828    0.3176   -1.6729 C   0  0  0  0  0  0  0  0  0  0  0  0
   -0.7404    1.6162   -0.9478 H   0  0  0  0  0  0  0  0  0  0  0  0
    0.7902    1.9260   -2.6114 H   0  0  0  0  0  0  0  0  0  0  0  0
    1.7562   -0.7407   -1.4170 H   0  0  0  0  0  0  0  0  0  0  0  0
    2.7655    0.3989   -2.3157 H   0  0  0  0  0  0  0  0  0  0  0  0
    2.0858    0.8620   -0.7443 H   0  0  0  0  0  0  0  0  0  0  0  0
    1.1613    0.4562   -4.6873 N   0  0  0  0  0  0  0  0  0  0  0  0
    1.0738   -0.1499   -5.9954 C   0  0  0  0  0  0  0  0  0  0  0  0
    1.8316    1.2082   -4.5573 H   0  0  0  0  0  0  0  0  0  0  0  0
    1.7746   -0.9956   -6.0559 H   0  0  0  0  0  0  0  0  0  0  0  0
    0.0484   -0.5107   -6.1643 H   0  0  0  0  0  0  0  0  0  0  0  0
    1.3313    0.5952   -6.7625 H   0  0  0  0  0  0  0  0  0  0  0  0
  1  3  1  0  0  0  0
  1  7  1  0  0  0  0
  1  2  2  0  0  0  0
 29 30  1  0  0  0  0
 30 38  1  0  0  0  0
 30 31  2  0  0  0  0
  8  9  1  0  0  0  0
  9 17  1  0  0  0  0
  9 10  2  0  0  0  0
 18 19  1  0  0  0  0
 19 28  1  0  0  0  0
 19 20  2  0  0  0  0
 29 32  1  0  0  0  0
  8 11  1  0  0  0  0
 38 39  1  0  0  0  0
 18 21  1  0  0  0  0
 21 22  1  0  0  0  0
 28 29  1  0  0  0  0
  7  8  1  0  0  0  0
 17 18  1  0  0  0  0
  3  4  1  0  0  0  0
  3  5  1  0  0  0  0
  3  6  1  0  0  0  0
 32 35  1  0  0  0  0
 32 36  1  0  0  0  0
 32 37  1  0  0  0  0
 11 14  1  0  0  0  0
 11 15  1  0  0  0  0
 11 16  1  0  0  0  0
 39 41  1  0  0  0  0
 39 42  1  0  0  0  0
 39 43  1  0  0  0  0
 21 25  1  0  0  0  0
 21 26  1  0  0  0  0
 29 34  1  0  0  0  0
  8 13  1  0  0  0  0
 18 24  1  0  0  0  0
 38 40  1  0  0  0  0
  7 12  1  0  0  0  0
 28 33  1  0  0  0  0
 17 23  1  0  0  0  0
 22 27  1  0  0  0  0
M  END
$$$$

  -OEChem-05262214473D

 43 42  0     1  0  0  0  0  0999 V2000
    0.7424   -1.0926    4.5665 C   0  0  0  0  0  0  0  0  0  0  0  0
    0.1409   -0.5364    5.4779 O   0  0  0  0  0  0  0  0  0  0  0  0
    1.7940   -2.1023    4.8871 C   0  0  0  0  0  0  0  0  0  0  0  0
    2.7935   -1.6502    4.9904 H   0  0  0  0  0  0  0  0  0  0  0  0
    1.6064   -2.6156    5.8438 H   0  0  0  0  0  0  0  0  0  0  0  0
    1.9156   -2.9078    4.1453 H   0  0  0  0  0  0  0  0  0  0  0  0
    0.5488   -0.8838    3.2109 N   0  0  0  0  0  0  0  0  0  0  0  0
   -0.4159    0.0446    2.6829 C   0  0  2  0  0  0  0  0  0  0  0  0
   -0.7551   -0.3867    1.2623 C   0  0  0  0  0  0  0  0  0  0  0  0
   -0.0106   -1.0851    0.5774 O   0  0  0  0  0  0  0  0  0  0  0  0
    0.1168    1.4689    2.7060 C   0  0  0  0  0  0  0  0  0  0  0  0
    1.1183   -1.4145    2.5542 H   0  0  0  0  0  0  0  0  0  0  0  0
   -1.3088   -0.0350    3.3125 H   0  0  0  0  0  0  0  0  0  0  0  0
    1.0116    1.5681    2.0808 H   0  0  0  0  0  0  0  0  0  0  0  0
   -0.6289    2.1775    2.3307 H   0  0  0  0  0  0  0  0  0  0  0  0
    0.3882    1.7670    3.7245 H   0  0  0  0  0  0  0  0  0  0  0  0
   -1.9689    0.1350    0.8298 N   0  0  0  0  0  0  0  0  0  0  0  0
   -2.5039   -0.1183   -0.4830 C   0  0  2  0  0  0  0  0  0  0  0  0
   -1.3365   -0.3183   -1.4433 C   0  0  0  0  0  0  0  0  0  0  0  0
   -1.3145   -1.2035   -2.2959 O   0  0  0  0  0  0  0  0  0  0  0  0
   -3.4330    1.0019   -0.9397 C   0  0  0  0  0  0  0  0  0  0  0  0
   -2.6997    2.2084   -1.1179 O   0  0  0  0  0  0  0  0  0  0  0  0
   -2.5276    0.6894    1.4750 H   0  0  0  0  0  0  0  0  0  0  0  0
   -3.0677   -1.0555   -0.4107 H   0  0  0  0  0  0  0  0  0  0  0  0
   -4.2180    1.1880   -0.1996 H   0  0  0  0  0  0  0  0  0  0  0  0
   -3.9044    0.7460   -1.8945 H   0  0  0  0  0  0  0  0  0  0  0  0
   -2.0273    2.0281   -1.7938 H   0  0  0  0  0  0  0  0  0  0  0  0
   -0.3435    0.6343   -1.2637 N   0  0  0  0  0  0  0  0  0  0  0  0
    0.8531    0.6790   -2.0716 C   0  0  2  0  0  0  0  0  0  0  0  0
    0.4883    0.2224   -3.4780 C   0  0  0  0  0  0  0  0  0  0  0  0
   -0.4944   -0.4741   -3.7234 O   0  0  0  0  0  0  0  0  0  0  0  0
    1.9504   -0.1947   -1.4840 C   0  0  0  0  0  0  0  0  0  0  0  0
   -0.4651    1.3554   -0.5588 H   0  0  0  0  0  0  0  0  0  0  0  0
    1.1772    1.7251   -2.0991 H   0  0  0  0  0  0  0  0  0  0  0  0
    1.6439   -1.2464   -1.4483 H   0  0  0  0  0  0  0  0  0  0  0  0
    2.8660   -0.1374   -2.0818 H   0  0  0  0  0  0  0  0  0  0  0  0
    2.1906    0.1164   -0.4616 H   0  0  0  0  0  0  0  0  0  0  0  0
    1.4131    0.6482   -4.4212 N   0  0  0  0  0  0  0  0  0  0  0  0
    1.2959    0.3325   -5.8257 C   0  0  0  0  0  0  0  0  0  0  0  0
    2.1874    1.2381   -4.1310 H   0  0  0  0  0  0  0  0  0  0  0  0
    1.8550   -0.5896   -6.0427 H   0  0  0  0  0  0  0  0  0  0  0  0
    0.2360    0.1874   -6.0817 H   0  0  0  0  0  0  0  0  0  0  0  0
    1.7074    1.1596   -6.4229 H   0  0  0  0  0  0  0  0  0  0  0  0
  1  3  1  0  0  0  0
  1  7  1  0  0  0  0
  1  2  2  0  0  0  0
 29 30  1  0  0  0  0
 30 38  1  0  0  0  0
 30 31  2  0  0  0  0
  8  9  1  0  0  0  0
  9 17  1  0  0  0  0
  9 10  2  0  0  0  0
 18 19  1  0  0  0  0
 19 28  1  0  0  0  0
 19 20  2  0  0  0  0
 29 32  1  0  0  0  0
  8 11  1  0  0  0  0
 38 39  1  0  0  0  0
 18 21  1  0  0  0  0
 21 22  1  0  0  0  0
 28 29  1  0  0  0  0
  7  8  1  0  0  0  0
 17 18  1  0  0  0  0
  3  4  1  0  0  0  0
  3  5  1  0  0  0  0
  3  6  1  0  0  0  0
 32 35  1  0  0  0  0
 32 36  1  0  0  0  0
 32 37  1  0  0  0  0
 11 14  1  0  0  0  0
 11 15  1  0  0  0  0
 11 16  1  0  0  0  0
 39 41  1  0  0  0  0
 39 42  1  0  0  0  0
 39 43  1  0  0  0  0
 21 25  1  0  0  0  0
 21 26  1  0  0  0  0
 29 34  1  0  0  0  0
  8 13  1  0  0  0  0
 18 24  1  0  0  0  0
 38 40  1  0  0  0  0
  7 12  1  0  0  0  0
 28 33  1  0  0  0  0
 17 23  1  0  0  0  0
 22 27  1  0  0  0  0
M  END
$$$$

  -OEChem-05262214473D

 43 42  0     1  0  0  0  0  0999 V2000
    0.7424   -1.0926    4.5665 C   0  0  0  0  0  0  0  0  0  0  0  0
    0.1409   -0.5364    5.4779 O   0  0  0  0  0  0  0  0  0  0  0  0
    1.7940   -2.1023    4.8871 C   0  0  0  0  0  0  0  0  0  0  0  0
    2.7935   -1.6502    4.9904 H   0  0  0  0  0  0  0  0  0  0  0  0
    1.6064   -2.6156    5.8438 H   0  0  0  0  0  0  0  0  0  0  0  0
    1.9156   -2.9078    4.1453 H   0  0  0  0  0  0  0  0  0  0  0  0
    0.5488   -0.8838    3.2109 N   0  0  0  0  0  0  0  0  0  0  0  0
   -0.4159    0.0446    2.6829 C   0  0  2  0  0  0  0  0  0  0  0  0
   -0.7551   -0.3867    1.2623 C   0  0  0  0  0  0  0  0  0  0  0  0
   -0.0106   -1.0851    0.5774 O   0  0  0  0  0  0  0  0  0  0  0  0
    0.1168    1.4689    2.7060 C   0  0  0  0  0  0  0  0  0  0  0  0
    1.1183   -1.4145    2.5542 H   0  0  0  0  0  0  0  0  0  0  0  0
   -1.3088   -0.0350    3.3125 H   0  0  0  0  0  0  0  0  0  0  0  0
    1.0116    1.5681    2.0808 H   0  0  0  0  0  0  0  0  0  0  0  0
   -0.6289    2.1775    2.3307 H   0  0  0  0  0  0  0  0  0  0  0  0
    0.3882    1.7670    3.7245 H   0  0  0  0  0  0  0  0  0  0  0  0
   -1.9689    0.1350    0.8298 N   0  0  0  0  0  0  0  0  0  0  0  0
   -2.5039   -0.1183   -0.4830 C   0  0  2  0  0  0  0  0  0  0  0  0
   -1.3365   -0.3183   -1.4433 C   0  0  0  0  0  0  0  0  0  0  0  0
   -1.4132   -1.0110   -2.4559 O   0  0  0  0  0  0  0  0  0  0  0  0
   -3.4330    1.0019   -0.9397 C   0  0  0  0  0  0  0  0  0  0  0  0
   -2.6997    2.2084   -1.1179 O   0  0  0  0  0  0  0  0  0  0  0  0
   -2.5276    0.6894    1.4750 H   0  0  0  0  0  0  0  0  0  0  0  0
   -3.0677   -1.0555   -0.4107 H   0  0  0  0  0  0  0  0  0  0  0  0
   -4.2180    1.1880   -0.1996 H   0  0  0  0  0  0  0  0  0  0  0  0
   -3.9044    0.7460   -1.8945 H   0  0  0  0  0  0  0  0  0  0  0  0
   -2.0273    2.0281   -1.7938 H   0  0  0  0  0  0  0  0  0  0  0  0
   -0.2146    0.4021   -1.0586 N   0  0  0  0  0  0  0  0  0  0  0  0
    1.0130    0.4039   -1.8199 C   0  0  2  0  0  0  0  0  0  0  0  0
    0.6514    0.2981   -3.2956 C   0  0  0  0  0  0  0  0  0  0  0  0
   -0.4163   -0.1636   -3.6931 O   0  0  0  0  0  0  0  0  0  0  0  0
    1.9258   -0.7379   -1.4007 C   0  0  0  0  0  0  0  0  0  0  0  0
   -0.2548    0.9815   -0.2253 H   0  0  0  0  0  0  0  0  0  0  0  0
    1.5009    1.3664   -1.6310 H   0  0  0  0  0  0  0  0  0  0  0  0
    1.4540   -1.7104   -1.5825 H   0  0  0  0  0  0  0  0  0  0  0  0
    2.8678   -0.7181   -1.9587 H   0  0  0  0  0  0  0  0  0  0  0  0
    2.1608   -0.6770   -0.3326 H   0  0  0  0  0  0  0  0  0  0  0  0
    1.6785    0.7400   -4.1176 N   0  0  0  0  0  0  0  0  0  0  0  0
    1.5834    0.7287   -5.5587 C   0  0  0  0  0  0  0  0  0  0  0  0
    2.5215    1.1245   -3.7013 H   0  0  0  0  0  0  0  0  0  0  0  0
    1.9983   -0.2133   -5.9468 H   0  0  0  0  0  0  0  0  0  0  0  0
    0.5282    0.8148   -5.8571 H   0  0  0  0  0  0  0  0  0  0  0  0
    2.1512    1.5763   -5.9702 H   0  0  0  0  0  0  0  0  0  0  0  0
  1  3  1  0  0  0  0
  1  7  1  0  0  0  0
  1  2  2  0  0  0  0
 29 30  1  0  0  0  0
 30 38  1  0  0  0  0
 30 31  2  0  0  0  0
  8  9  1  0  0  0  0
  9 17  1  0  0  0  0
  9 10  2  0  0  0  0
 18 19  1  0  0  0  0
 19 28  1  0  0  0  0
 19 20  2  0  0  0  0
 29 32  1  0  0  0  0
  8 11  1  0  0  0  0
 38 39  1  0  0  0  0
 18 21  1  0  0  0  0
 21 22  1  0  0  0  0
 28 29  1  0  0  0  0
  7  8  1  0  0  0  0
 17 18  1  0  0  0  0
  3  4  1  0  0  0  0
  3  5  1  0  0  0  0
  3  6  1  0  0  0  0
 32 35  1  0  0  0  0
 32 36  1  0  0  0  0
 32 37  1  0  0  0  0
 11 14  1  0  0  0  0
 11 15  1  0  0  0  0
 11 16  1  0  0  0  0
 39 41  1  0  0  0  0
 39 42  1  0  0  0  0
 39 43  1  0  0  0  0
 21 25  1  0  0  0  0
 21 26  1  0  0  0  0
 29 34  1  0  0  0  0
  8 13  1  0  0  0  0
 18 24  1  0  0  0  0
 38 40  1  0  0  0  0
  7 12  1  0  0  0  0
 28 33  1  0  0  0  0
 17 23  1  0  0  0  0
 22 27  1  0  0  0  0
M  END
$$$$

  -OEChem-05262214473D

 43 42  0     1  0  0  0  0  0999 V2000
    0.7424   -1.0926    4.5665 C   0  0  0  0  0  0  0  0  0  0  0  0
    0.1409   -0.5364    5.4779 O   0  0  0  0  0  0  0  0  0  0  0  0
    1.7940   -2.1023    4.8871 C   0  0  0  0  0  0  0  0  0  0  0  0
    2.7935   -1.6502    4.9904 H   0  0  0  0  0  0  0  0  0  0  0  0
    1.6064   -2.6156    5.8438 H   0  0  0  0  0  0  0  0  0  0  0  0
    1.9156   -2.9078    4.1453 H   0  0  0  0  0  0  0  0  0  0  0  0
    0.5488   -0.8838    3.2109 N   0  0  0  0  0  0  0  0  0  0  0  0
   -0.4159    0.0446    2.6829 C   0  0  2  0  0  0  0  0  0  0  0  0
   -0.7551   -0.3867    1.2623 C   0  0  0  0  0  0  0  0  0  0  0  0
   -0.0106   -1.0851    0.5774 O   0  0  0  0  0  0  0  0  0  0  0  0
    0.1168    1.4689    2.7060 C   0  0  0  0  0  0  0  0  0  0  0  0
    1.1183   -1.4145    2.5542 H   0  0  0  0  0  0  0  0  0  0  0  0
   -1.3088   -0.0350    3.3125 H   0  0  0  0  0  0  0  0  0  0  0  0
    1.0116    1.5681    2.0808 H   0  0  0  0  0  0  0  0  0  0  0  0
   -0.6289    2.1775    2.3307 H   0  0  0  0  0  0  0  0  0  0  0  0
    0.3882    1.7670    3.7245 H   0  0  0  0  0  0  0  0  0  0  0  0
   -1.9689    0.1350    0.8298 N   0  0  0  0  0  0  0  0  0  0  0  0
   -2.5039   -0.1183   -0.4830 C   0  0  2  0  0  0  0  0  0  0  0  0
   -1.3365   -0.3183   -1.4433 C   0  0  0  0  0  0  0  0  0  0  0  0
   -1.4716   -0.7772   -2.5757 O   0  0  0  0  0  0  0  0  0  0  0  0
   -3.4330    1.0019   -0.9397 C   0  0  0  0  0  0  0  0  0  0  0  0
   -2.6997    2.2084   -1.1179 O   0  0  0  0  0  0  0  0  0  0  0  0
   -2.5276    0.6894    1.4750 H   0  0  0  0  0  0  0  0  0  0  0  0
   -3.0677   -1.0555   -0.4107 H   0  0  0  0  0  0  0  0  0  0  0  0
   -4.2180    1.1880   -0.1996 H   0  0  0  0  0  0  0  0  0  0  0  0
   -3.9044    0.7460   -1.8945 H   0  0  0  0  0  0  0  0  0  0  0  0
   -2.0273    2.0281   -1.7938 H   0  0  0  0  0  0  0  0  0  0  0  0
   -0.1348    0.1161   -0.9021 N   0  0  0  0  0  0  0  0  0  0  0  0
    1.1141    0.0623   -1.6259 C   0  0  2  0  0  0  0  0  0  0  0  0
    0.8150    0.3084   -3.0988 C   0  0  0  0  0  0  0  0  0  0  0  0
   -0.2913    0.1175   -3.5996 O   0  0  0  0  0  0  0  0  0  0  0  0
    1.8107   -1.2751   -1.4288 C   0  0  0  0  0  0  0  0  0  0  0  0
   -0.1240    0.5200    0.0298 H   0  0  0  0  0  0  0  0  0  0  0  0
    1.7392    0.8744   -1.2389 H   0  0  0  0  0  0  0  0  0  0  0  0
    1.1995   -2.1010   -1.8106 H   0  0  0  0  0  0  0  0  0  0  0  0
    2.7707   -1.3037   -1.9548 H   0  0  0  0  0  0  0  0  0  0  0  0
    1.9983   -1.4640   -0.3663 H   0  0  0  0  0  0  0  0  0  0  0  0
    1.9396    0.7252   -3.7972 N   0  0  0  0  0  0  0  0  0  0  0  0
    1.9166    1.0116   -5.2126 C   0  0  0  0  0  0  0  0  0  0  0  0
    2.8111    0.8752   -3.2973 H   0  0  0  0  0  0  0  0  0  0  0  0
    2.1949    0.1079   -5.7747 H   0  0  0  0  0  0  0  0  0  0  0  0
    0.9051    1.3288   -5.5060 H   0  0  0  0  0  0  0  0  0  0  0  0
    2.6324    1.8167   -5.4353 H   0  0  0  0  0  0  0  0  0  0  0  0
  1  3  1  0  0  0  0
  1  7  1  0  0  0  0
  1  2  2  0  0  0  0
 29 30  1  0  0  0  0
 30 38  1  0  0  0  0
 30 31  2  0  0  0  0
  8  9  1  0  0  0  0
  9 17  1  0  0  0  0
  9 10  2  0  0  0  0
 18 19  1  0  0  0  0
 19 28  1  0  0  0  0
 19 20  2  0  0  0  0
 29 32  1  0  0  0  0
  8 11  1  0  0  0  0
 38 39  1  0  0  0  0
 18 21  1  0  0  0  0
 21 22  1  0  0  0  0
 28 29  1  0  0  0  0
  7  8  1  0  0  0  0
 17 18  1  0  0  0  0
  3  4  1  0  0  0  0
  3  5  1  0  0  0  0
  3  6  1  0  0  0  0
 32 35  1  0  0  0  0
 32 36  1  0  0  0  0
 32 37  1  0  0  0  0
 11 14  1  0  0  0  0
 11 15  1  0  0  0  0
 11 16  1  0  0  0  0
 39 41  1  0  0  0  0
 39 42  1  0  0  0  0
 39 43  1  0  0  0  0
 21 25  1  0  0  0  0
 21 26  1  0  0  0  0
 29 34  1  0  0  0  0
  8 13  1  0  0  0  0
 18 24  1  0  0  0  0
 38 40  1  0  0  0  0
  7 12  1  0  0  0  0
 28 33  1  0  0  0  0
 17 23  1  0  0  0  0
 22 27  1  0  0  0  0
M  END
$$$$

  -OEChem-05262214473D

 43 42  0     1  0  0  0  0  0999 V2000
    0.7424   -1.0926    4.5665 C   0  0  0  0  0  0  0  0  0  0  0  0
    0.1409   -0.5364    5.4779 O   0  0  0  0  0  0  0  0  0  0  0  0
    1.7940   -2.1023    4.8871 C   0  0  0  0  0  0  0  0  0  0  0  0
    2.7935   -1.6502    4.9904 H   0  0  0  0  0  0  0  0  0  0  0  0
    1.6064   -2.6156    5.8438 H   0  0  0  0  0  0  0  0  0  0  0  0
    1.9156   -2.9078    4.1453 H   0  0  0  0  0  0  0  0  0  0  0  0
    0.5488   -0.8838    3.2109 N   0  0  0  0  0  0  0  0  0  0  0  0
   -0.4159    0.0446    2.6829 C   0  0  2  0  0  0  0  0  0  0  0  0
   -0.7551   -0.3867    1.2623 C   0  0  0  0  0  0  0  0  0  0  0  0
   -0.0106   -1.0851    0.5774 O   0  0  0  0  0  0  0  0  0  0  0  0
    0.1168    1.4689    2.7060 C   0  0  0  0  0  0  0  0  0  0  0  0
    1.1183   -1.4145    2.5542 H   0  0  0  0  0  0  0  0  0  0  0  0
   -1.3088   -0.0350    3.3125 H   0  0  0  0  0  0  0  0  0  0  0  0
    1.0116    1.5681    2.0808 H   0  0  0  0  0  0  0  0  0  0  0  0
   -0.6289    2.1775    2.3307 H   0  0  0  0  0  0  0  0  0  0  0  0
    0.3882    1.7670    3.7245 H   0  0  0  0  0  0  0  0  0  0  0  0
   -1.9689    0.1350    0.8298 N   0  0  0  0  0  0  0  0  0  0  0  0
   -2.5039   -0.1183   -0.4830 C   0  0  2  0  0  0  0  0  0  0  0  0
   -1.3365   -0.3183   -1.4433 C   0  0  0  0  0  0  0  0  0  0  0  0
   -1.4859   -0.5182   -2.6470 O   0  0  0  0  0  0  0  0  0  0  0  0
   -3.4330    1.0019   -0.9397 C   0  0  0  0  0  0  0  0  0  0  0  0
   -2.6997    2.2084   -1.1179 O   0  0  0  0  0  0  0  0  0  0  0  0
   -2.5276    0.6894    1.4750 H   0  0  0  0  0  0  0  0  0  0  0  0
   -3.0677   -1.0555   -0.4107 H   0  0  0  0  0  0  0  0  0  0  0  0
   -4.2180    1.1880   -0.1996 H   0  0  0  0  0  0  0  0  0  0  0  0
   -3.9044    0.7460   -1.8945 H   0  0  0  0  0  0  0  0  0  0  0  0
   -2.0273    2.0281   -1.7938 H   0  0  0  0  0  0  0  0  0  0  0  0
   -0.1097   -0.2042   -0.8049 N   0  0  0  0  0  0  0  0  0  0  0  0
    1.1495   -0.3226   -1.5027 C   0  0  2  0  0  0  0  0  0  0  0  0
    0.9681    0.2528   -2.9011 C   0  0  0  0  0  0  0  0  0  0  0  0
   -0.1278    0.3502   -3.4494 O   0  0  0  0  0  0  0  0  0  0  0  0
    1.6129   -1.7696   -1.5663 C   0  0  0  0  0  0  0  0  0  0  0  0
   -0.0815    0.0024    0.1892 H   0  0  0  0  0  0  0  0  0  0  0  0
    1.8758    0.2827   -0.9495 H   0  0  0  0  0  0  0  0  0  0  0  0
    0.8977   -2.3916   -2.1169 H   0  0  0  0  0  0  0  0  0  0  0  0
    2.5813   -1.8544   -2.0704 H   0  0  0  0  0  0  0  0  0  0  0  0
    1.7142   -2.1910   -0.5603 H   0  0  0  0  0  0  0  0  0  0  0  0
    2.1785    0.6048   -3.4817 N   0  0  0  0  0  0  0  0  0  0  0  0
    2.2729    1.1619   -4.8108 C   0  0  0  0  0  0  0  0  0  0  0  0
    3.0364    0.5071   -2.9467 H   0  0  0  0  0  0  0  0  0  0  0  0
    2.4313    0.3520   -5.5381 H   0  0  0  0  0  0  0  0  0  0  0  0
    1.3409    1.6941   -5.0522 H   0  0  0  0  0  0  0  0  0  0  0  0
    3.1182    1.8644   -4.8546 H   0  0  0  0  0  0  0  0  0  0  0  0
  1  3  1  0  0  0  0
  1  7  1  0  0  0  0
  1  2  2  0  0  0  0
 29 30  1  0  0  0  0
 30 38  1  0  0  0  0
 30 31  2  0  0  0  0
  8  9  1  0  0  0  0
  9 17  1  0  0  0  0
  9 10  2  0  0  0  0
 18 19  1  0  0  0  0
 19 28  1  0  0  0  0
 19 20  2  0  0  0  0
 29 32  1  0  0  0  0
  8 11  1  0  0  0  0
 38 39  1  0  0  0  0
 18 21  1  0  0  0  0
 21 22  1  0  0  0  0
 28 29  1  0  0  0  0
  7  8  1  0  0  0  0
 17 18  1  0  0  0  0
  3  4  1  0  0  0  0
  3  5  1  0  0  0  0
  3  6  1  0  0  0  0
 32 35  1  0  0  0  0
 32 36  1  0  0  0  0
 32 37  1  0  0  0  0
 11 14  1  0  0  0  0
 11 15  1  0  0  0  0
 11 16  1  0  0  0  0
 39 41  1  0  0  0  0
 39 42  1  0  0  0  0
 39 43  1  0  0  0  0
 21 25  1  0  0  0  0
 21 26  1  0  0  0  0
 29 34  1  0  0  0  0
  8 13  1  0  0  0  0
 18 24  1  0  0  0  0
 38 40  1  0  0  0  0
  7 12  1  0  0  0  0
 28 33  1  0  0  0  0
 17 23  1  0  0  0  0
 22 27  1  0  0  0  0
M  END
$$$$

  -OEChem-05262214473D

 43 42  0     1  0  0  0  0  0999 V2000
    0.7424   -1.0926    4.5665 C   0  0  0  0  0  0  0  0  0  0  0  0
    0.1409   -0.5364    5.4779 O   0  0  0  0  0  0  0  0  0  0  0  0
    1.7940   -2.1023    4.8871 C   0  0  0  0  0  0  0  0  0  0  0  0
    2.7935   -1.6502    4.9904 H   0  0  0  0  0  0  0  0  0  0  0  0
    1.6064   -2.6156    5.8438 H   0  0  0  0  0  0  0  0  0  0  0  0
    1.9156   -2.9078    4.1453 H   0  0  0  0  0  0  0  0  0  0  0  0
    0.5488   -0.8838    3.2109 N   0  0  0  0  0  0  0  0  0  0  0  0
   -0.4159    0.0446    2.6829 C   0  0  2  0  0  0  0  0  0  0  0  0
   -0.7551   -0.3867    1.2623 C   0  0  0  0  0  0  0  0  0  0  0  0
   -0.0106   -1.0851    0.5774 O   0  0  0  0  0  0  0  0  0  0  0  0
    0.1168    1.4689    2.7060 C   0  0  0  0  0  0  0  0  0  0  0  0
    1.1183   -1.4145    2.5542 H   0  0  0  0  0  0  0  0  0  0  0  0
   -1.3088   -0.0350    3.3125 H   0  0  0  0  0  0  0  0  0  0  0  0
    1.0116    1.5681    2.0808 H   0  0  0  0  0  0  0  0  0  0  0  0
   -0.6289    2.1775    2.3307 H   0  0  0  0  0  0  0  0  0  0  0  0
    0.3882    1.7670    3.7245 H   0  0  0  0  0  0  0  0  0  0  0  0
   -1.9689    0.1350    0.8298 N   0  0  0  0  0  0  0  0  0  0  0  0
   -2.5039   -0.1183   -0.4830 C   0  0  2  0  0  0  0  0  0  0  0  0
   -1.3365   -0.3183   -1.4433 C   0  0  0  0  0  0  0  0  0  0  0  0
   -1.4551   -0.2515   -2.6650 O   0  0  0  0  0  0  0  0  0  0  0  0
   -3.4330    1.0019   -0.9397 C   0  0  0  0  0  0  0  0  0  0  0  0
   -2.6997    2.2084   -1.1179 O   0  0  0  0  0  0  0  0  0  0  0  0
   -2.5276    0.6894    1.4750 H   0  0  0  0  0  0  0  0  0  0  0  0
   -3.0677   -1.0555   -0.4107 H   0  0  0  0  0  0  0  0  0  0  0  0
   -4.2180    1.1880   -0.1996 H   0  0  0  0  0  0  0  0  0  0  0  0
   -3.9044    0.7460   -1.8945 H   0  0  0  0  0  0  0  0  0  0  0  0
   -2.0273    2.0281   -1.7938 H   0  0  0  0  0  0  0  0  0  0  0  0
   -0.1409   -0.5369   -0.7736 N   0  0  0  0  0  0  0  0  0  0  0  0
    1.1167   -0.7246   -1.4588 C   0  0  2  0  0  0  0  0  0  0  0  0
    1.1001    0.1349   -2.7160 C   0  0  0  0  0  0  0  0  0  0  0  0
    0.0629    0.5185   -3.2527 O   0  0  0  0  0  0  0  0  0  0  0  0
    1.3459   -2.1879   -1.8038 C   0  0  0  0  0  0  0  0  0  0  0  0
   -0.1303   -0.5361    0.2421 H   0  0  0  0  0  0  0  0  0  0  0  0
    1.9016   -0.3685   -0.7826 H   0  0  0  0  0  0  0  0  0  0  0  0
    0.5693   -2.5624   -2.4806 H   0  0  0  0  0  0  0  0  0  0  0  0
    2.3125   -2.3324   -2.2976 H   0  0  0  0  0  0  0  0  0  0  0  0
    1.3279   -2.8085   -0.9014 H   0  0  0  0  0  0  0  0  0  0  0  0
    2.3789    0.3871   -3.1927 N   0  0  0  0  0  0  0  0  0  0  0  0
    2.6278    1.1695   -4.3809 C   0  0  0  0  0  0  0  0  0  0  0  0
    3.1822    0.0454   -2.6733 H   0  0  0  0  0  0  0  0  0  0  0  0
    2.6914    0.5024   -5.2532 H   0  0  0  0  0  0  0  0  0  0  0  0
    1.8061    1.8861   -4.5267 H   0  0  0  0  0  0  0  0  0  0  0  0
    3.5755    1.7163   -4.2678 H   0  0  0  0  0  0  0  0  0  0  0  0
  1  3  1  0  0  0  0
  1  7  1  0  0  0  0
  1  2  2  0  0  0  0
 29 30  1  0  0  0  0
 30 38  1  0  0  0  0
 30 31  2  0  0  0  0
  8  9  1  0  0  0  0
  9 17  1  0  0  0  0
  9 10  2  0  0  0  0
 18 19  1  0  0  0  0
 19 28  1  0  0  0  0
 19 20  2  0  0  0  0
 29 32  1  0  0  0  0
  8 11  1  0  0  0  0
 38 39  1  0  0  0  0
 18 21  1  0  0  0  0
 21 22  1  0  0  0  0
 28 29  1  0  0  0  0
  7  8  1  0  0  0  0
 17 18  1  0  0  0  0
  3  4  1  0  0  0  0
  3  5  1  0  0  0  0
  3  6  1  0  0  0  0
 32 35  1  0  0  0  0
 32 36  1  0  0  0  0
 32 37  1  0  0  0  0
 11 14  1  0  0  0  0
 11 15  1  0  0  0  0
 11 16  1  0  0  0  0
 39 41  1  0  0  0  0
 39 42  1  0  0  0  0
 39 43  1  0  0  0  0
 21 25  1  0  0  0  0
 21 26  1  0  0  0  0
 29 34  1  0  0  0  0
  8 13  1  0  0  0  0
 18 24  1  0  0  0  0
 38 40  1  0  0  0  0
  7 12  1  0  0  0  0
 28 33  1  0  0  0  0
 17 23  1  0  0  0  0
 22 27  1  0  0  0  0
M  END
$$$$

  -OEChem-05262214473D

 43 42  0     1  0  0  0  0  0999 V2000
    0.7424   -1.0926    4.5665 C   0  0  0  0  0  0  0  0  0  0  0  0
    0.1409   -0.5364    5.4779 O   0  0  0  0  0  0  0  0  0  0  0  0
    1.7940   -2.1023    4.8871 C   0  0  0  0  0  0  0  0  0  0  0  0
    2.7935   -1.6502    4.9904 H   0  0  0  0  0  0  0  0  0  0  0  0
    1.6064   -2.6156    5.8438 H   0  0  0  0  0  0  0  0  0  0  0  0
    1.9156   -2.9078    4.1453 H   0  0  0  0  0  0  0  0  0  0  0  0
    0.5488   -0.8838    3.2109 N   0  0  0  0  0  0  0  0  0  0  0  0
   -0.4159    0.0446    2.6829 C   0  0  2  0  0  0  0  0  0  0  0  0
   -0.7551   -0.3867    1.2623 C   0  0  0  0  0  0  0  0  0  0  0  0
   -0.0106   -1.0851    0.5774 O   0  0  0  0  0  0  0  0  0  0  0  0
    0.1168    1.4689    2.7060 C   0  0  0  0  0  0  0  0  0  0  0  0
    1.1183   -1.4145    2.5542 H   0  0  0  0  0  0  0  0  0  0  0  0
   -1.3088   -0.0350    3.3125 H   0  0  0  0  0  0  0  0  0  0  0  0
    1.0116    1.5681    2.0808 H   0  0  0  0  0  0  0  0  0  0  0  0
   -0.6289    2.1775    2.3307 H   0  0  0  0  0  0  0  0  0  0  0  0
    0.3882    1.7670    3.7245 H   0  0  0  0  0  0  0  0  0  0  0  0
   -1.9689    0.1350    0.8298 N   0  0  0  0  0  0  0  0  0  0  0  0
   -2.5039   -0.1183   -0.4830 C   0  0  2  0  0  0  0  0  0  0  0  0
   -1.3365   -0.3183   -1.4433 C   0  0  0  0  0  0  0  0  0  0  0  0
   -1.3812    0.0046   -2.6286 O   0  0  0  0  0  0  0  0  0  0  0  0
   -3.4330    1.0019   -0.9397 C   0  0  0  0  0  0  0  0  0  0  0  0
   -2.6997    2.2084   -1.1179 O   0  0  0  0  0  0  0  0  0  0  0  0
   -2.5276    0.6894    1.4750 H   0  0  0  0  0  0  0  0  0  0  0  0
   -3.0677   -1.0555   -0.4107 H   0  0  0  0  0  0  0  0  0  0  0  0
   -4.2180    1.1880   -0.1996 H   0  0  0  0  0  0  0  0  0  0  0  0
   -3.9044    0.7460   -1.8945 H   0  0  0  0  0  0  0  0  0  0  0  0
   -2.0273    2.0281   -1.7938 H   0  0  0  0  0  0  0  0  0  0  0  0
   -0.2264   -0.8594   -0.8103 N   0  0  0  0  0  0  0  0  0  0  0  0
    1.0181   -1.1162   -1.4972 C   0  0  2  0  0  0  0  0  0  0  0  0
    1.2022   -0.0372   -2.5561 C   0  0  0  0  0  0  0  0  0  0  0  0
    0.2678    0.6110   -3.0228 O   0  0  0  0  0  0  0  0  0  0  0  0
    1.0279   -2.5013   -2.1251 C   0  0  0  0  0  0  0  0  0  0  0  0
   -0.2669   -1.0588    0.1848 H   0  0  0  0  0  0  0  0  0  0  0  0
    1.8146   -1.0348   -0.7496 H   0  0  0  0  0  0  0  0  0  0  0  0
    0.2366   -2.6018   -2.8769 H   0  0  0  0  0  0  0  0  0  0  0  0
    1.9826   -2.7054   -2.6209 H   0  0  0  0  0  0  0  0  0  0  0  0
    0.8656   -3.2744   -1.3663 H   0  0  0  0  0  0  0  0  0  0  0  0
    2.5272    0.0868   -2.9499 N   0  0  0  0  0  0  0  0  0  0  0  0
    2.9573    1.0337   -3.9521 C   0  0  0  0  0  0  0  0  0  0  0  0
    3.2385   -0.4785   -2.4958 H   0  0  0  0  0  0  0  0  0  0  0  0
    2.9575    0.5488   -4.9394 H   0  0  0  0  0  0  0  0  0  0  0  0
    2.2689    1.8916   -3.9652 H   0  0  0  0  0  0  0  0  0  0  0  0
    3.9732    1.3825   -3.7148 H   0  0  0  0  0  0  0  0  0  0  0  0
  1  3  1  0  0  0  0
  1  7  1  0  0  0  0
  1  2  2  0  0  0  0
 29 30  1  0  0  0  0
 30 38  1  0  0  0  0
 30 31  2  0  0  0  0
  8  9  1  0  0  0  0
  9 17  1  0  0  0  0
  9 10  2  0  0  0  0
 18 19  1  0  0  0  0
 19 28  1  0  0  0  0
 19 20  2  0  0  0  0
 29 32  1  0  0  0  0
  8 11  1  0  0  0  0
 38 39  1  0  0  0  0
 18 21  1  0  0  0  0
 21 22  1  0  0  0  0
 28 29  1  0  0  0  0
  7  8  1  0  0  0  0
 17 18  1  0  0  0  0
  3  4  1  0  0  0  0
  3  5  1  0  0  0  0
  3  6  1  0  0  0  0
 32 35  1  0  0  0  0
 32 36  1  0  0  0  0
 32 37  1  0  0  0  0
 11 14  1  0  0  0  0
 11 15  1  0  0  0  0
 11 16  1  0  0  0  0
 39 41  1  0  0  0  0
 39 42  1  0  0  0  0
 39 43  1  0  0  0  0
 21 25  1  0  0  0  0
 21 26  1  0  0  0  0
 29 34  1  0  0  0  0
  8 13  1  0  0  0  0
 18 24  1  0  0  0  0
 38 40  1  0  0  0  0
  7 12  1  0  0  0  0
 28 33  1  0  0  0  0
 17 23  1  0  0  0  0
 22 27  1  0  0  0  0
M  END
$$$$

  -OEChem-05262214473D

 43 42  0     1  0  0  0  0  0999 V2000
    0.7424   -1.0926    4.5665 C   0  0  0  0  0  0  0  0  0  0  0  0
    0.1409   -0.5364    5.4779 O   0  0  0  0  0  0  0  0  0  0  0  0
    1.7940   -2.1023    4.8871 C   0  0  0  0  0  0  0  0  0  0  0  0
    2.7935   -1.6502    4.9904 H   0  0  0  0  0  0  0  0  0  0  0  0
    1.6064   -2.6156    5.8438 H   0  0  0  0  0  0  0  0  0  0  0  0
    1.9156   -2.9078    4.1453 H   0  0  0  0  0  0  0  0  0  0  0  0
    0.5488   -0.8838    3.2109 N   0  0  0  0  0  0  0  0  0  0  0  0
   -0.4159    0.0446    2.6829 C   0  0  2  0  0  0  0  0  0  0  0  0
   -0.7551   -0.3867    1.2623 C   0  0  0  0  0  0  0  0  0  0  0  0
   -0.0106   -1.0851    0.5774 O   0  0  0  0  0  0  0  0  0  0  0  0
    0.1168    1.4689    2.7060 C   0  0  0  0  0  0  0  0  0  0  0  0
    1.1183   -1.4145    2.5542 H   0  0  0  0  0  0  0  0  0  0  0  0
   -1.3088   -0.0350    3.3125 H   0  0  0  0  0  0  0  0  0  0  0  0
    1.0116    1.5681    2.0808 H   0  0  0  0  0  0  0  0  0  0  0  0
   -0.6289    2.1775    2.3307 H   0  0  0  0  0  0  0  0  0  0  0  0
    0.3882    1.7670    3.7245 H   0  0  0  0  0  0  0  0  0  0  0  0
   -1.9689    0.1350    0.8298 N   0  0  0  0  0  0  0  0  0  0  0  0
   -2.5039   -0.1183   -0.4830 C   0  0  2  0  0  0  0  0  0  0  0  0
   -1.3365   -0.3183   -1.4433 C   0  0  0  0  0  0  0  0  0  0  0  0
   -1.2693    0.2328   -2.5401 O   0  0  0  0  0  0  0  0  0  0  0  0
   -3.4330    1.0019   -0.9397 C   0  0  0  0  0  0  0  0  0  0  0  0
   -2.6997    2.2084   -1.1179 O   0  0  0  0  0  0  0  0  0  0  0  0
   -2.5276    0.6894    1.4750 H   0  0  0  0  0  0  0  0  0  0  0  0
   -3.0677   -1.0555   -0.4107 H   0  0  0  0  0  0  0  0  0  0  0  0
   -4.2180    1.1880   -0.1996 H   0  0  0  0  0  0  0  0  0  0  0  0
   -3.9044    0.7460   -1.8945 H   0  0  0  0  0  0  0  0  0  0  0  0
   -2.0273    2.0281   -1.7938 H   0  0  0  0  0  0  0  0  0  0  0  0
   -0.3603   -1.1497   -0.9126 N   0  0  0  0  0  0  0  0  0  0  0  0
    0.8602   -1.4709   -1.6152 C   0  0  2  0  0  0  0  0  0  0  0  0
    1.2673   -0.2518   -2.4323 C   0  0  0  0  0  0  0  0  0  0  0  0
    0.4731    0.6215   -2.7754 O   0  0  0  0  0  0  0  0  0  0  0  0
    0.6805   -2.6885   -2.5084 C   0  0  0  0  0  0  0  0  0  0  0  0
   -0.4822   -1.5300    0.0212 H   0  0  0  0  0  0  0  0  0  0  0  0
    1.6209   -1.6707   -0.8527 H   0  0  0  0  0  0  0  0  0  0  0  0
   -0.0778   -2.5071   -3.2788 H   0  0  0  0  0  0  0  0  0  0  0  0
    1.6142   -2.9478   -3.0183 H   0  0  0  0  0  0  0  0  0  0  0  0
    0.3589   -3.5569   -1.9234 H   0  0  0  0  0  0  0  0  0  0  0  0
    2.6133   -0.2755   -2.7699 N   0  0  0  0  0  0  0  0  0  0  0  0
    3.2389    0.7639   -3.5536 C   0  0  0  0  0  0  0  0  0  0  0  0
    3.2014   -1.0290   -2.4263 H   0  0  0  0  0  0  0  0  0  0  0  0
    3.2114    0.4880   -4.6181 H   0  0  0  0  0  0  0  0  0  0  0  0
    2.6978    1.7102   -3.4061 H   0  0  0  0  0  0  0  0  0  0  0  0
    4.2842    0.8855   -3.2334 H   0  0  0  0  0  0  0  0  0  0  0  0
  1  3  1  0  0  0  0
  1  7  1  0  0  0  0
  1  2  2  0  0  0  0
 29 30  1  0  0  0  0
 30 38  1  0  0  0  0
 30 31  2  0  0  0  0
  8  9  1  0  0  0  0
  9 17  1  0  0  0  0
  9 10  2  0  0  0  0
 18 19  1  0  0  0  0
 19 28  1  0  0  0  0
 19 20  2  0  0  0  0
 29 32  1  0  0  0  0
  8 11  1  0  0  0  0
 38 39  1  0  0  0  0
 18 21  1  0  0  0  0
 21 22  1  0  0  0  0
 28 29  1  0  0  0  0
  7  8  1  0  0  0  0
 17 18  1  0  0  0  0
  3  4  1  0  0  0  0
  3  5  1  0  0  0  0
  3  6  1  0  0  0  0
 32 35  1  0  0  0  0
 32 36  1  0  0  0  0
 32 37  1  0  0  0  0
 11 14  1  0  0  0  0
 11 15  1  0  0  0  0
 11 16  1  0  0  0  0
 39 41  1  0  0  0  0
 39 42  1  0  0  0  0
 39 43  1  0  0  0  0
 21 25  1  0  0  0  0
 21 26  1  0  0  0  0
 29 34  1  0  0  0  0
  8 13  1  0  0  0  0
 18 24  1  0  0  0  0
 38 40  1  0  0  0  0
  7 12  1  0  0  0  0
 28 33  1  0  0  0  0
 17 23  1  0  0  0  0
 22 27  1  0  0  0  0
M  END
$$$$

  -OEChem-05262214473D

 43 42  0     1  0  0  0  0  0999 V2000
    0.7424   -1.0926    4.5665 C   0  0  0  0  0  0  0  0  0  0  0  0
    0.1409   -0.5364    5.4779 O   0  0  0  0  0  0  0  0  0  0  0  0
    1.7940   -2.1023    4.8871 C   0  0  0  0  0  0  0  0  0  0  0  0
    2.7935   -1.6502    4.9904 H   0  0  0  0  0  0  0  0  0  0  0  0
    1.6064   -2.6156    5.8438 H   0  0  0  0  0  0  0  0  0  0  0  0
    1.9156   -2.9078    4.1453 H   0  0  0  0  0  0  0  0  0  0  0  0
    0.5488   -0.8838    3.2109 N   0  0  0  0  0  0  0  0  0  0  0  0
   -0.4159    0.0446    2.6829 C   0  0  2  0  0  0  0  0  0  0  0  0
   -0.7551   -0.3867    1.2623 C   0  0  0  0  0  0  0  0  0  0  0  0
   -0.0106   -1.0851    0.5774 O   0  0  0  0  0  0  0  0  0  0  0  0
    0.1168    1.4689    2.7060 C   0  0  0  0  0  0  0  0  0  0  0  0
    1.1183   -1.4145    2.5542 H   0  0  0  0  0  0  0  0  0  0  0  0
   -1.3088   -0.0350    3.3125 H   0  0  0  0  0  0  0  0  0  0  0  0
    1.0116    1.5681    2.0808 H   0  0  0  0  0  0  0  0  0  0  0  0
   -0.6289    2.1775    2.3307 H   0  0  0  0  0  0  0  0  0  0  0  0
    0.3882    1.7670    3.7245 H   0  0  0  0  0  0  0  0  0  0  0  0
   -1.9689    0.1350    0.8298 N   0  0  0  0  0  0  0  0  0  0  0  0
   -2.5039   -0.1183   -0.4830 C   0  0  2  0  0  0  0  0  0  0  0  0
   -1.3365   -0.3183   -1.4433 C   0  0  0  0  0  0  0  0  0  0  0  0
   -1.1271    0.4174   -2.4056 O   0  0  0  0  0  0  0  0  0  0  0  0
   -3.4330    1.0019   -0.9397 C   0  0  0  0  0  0  0  0  0  0  0  0
   -2.6997    2.2084   -1.1179 O   0  0  0  0  0  0  0  0  0  0  0  0
   -2.5276    0.6894    1.4750 H   0  0  0  0  0  0  0  0  0  0  0  0
   -3.0677   -1.0555   -0.4107 H   0  0  0  0  0  0  0  0  0  0  0  0
   -4.2180    1.1880   -0.1996 H   0  0  0  0  0  0  0  0  0  0  0  0
   -3.9044    0.7460   -1.8945 H   0  0  0  0  0  0  0  0  0  0  0  0
   -2.0273    2.0281   -1.7938 H   0  0  0  0  0  0  0  0  0  0  0  0
   -0.5335   -1.3879   -1.0735 N   0  0  0  0  0  0  0  0  0  0  0  0
    0.6540   -1.7643   -1.8048 C   0  0  2  0  0  0  0  0  0  0  0  0
    1.2910   -0.4941   -2.3530 C   0  0  0  0  0  0  0  0  0  0  0  0
    0.6646    0.5490   -2.5275 O   0  0  0  0  0  0  0  0  0  0  0  0
    0.3275   -2.7368   -2.9275 C   0  0  0  0  0  0  0  0  0  0  0  0
   -0.7614   -1.9177   -0.2374 H   0  0  0  0  0  0  0  0  0  0  0  0
    1.3336   -2.2330   -1.0848 H   0  0  0  0  0  0  0  0  0  0  0  0
   -0.3524   -2.2848   -3.6589 H   0  0  0  0  0  0  0  0  0  0  0  0
    1.2323   -3.0431   -3.4627 H   0  0  0  0  0  0  0  0  0  0  0  0
   -0.1576   -3.6368   -2.5347 H   0  0  0  0  0  0  0  0  0  0  0  0
    2.6312   -0.6751   -2.6648 N   0  0  0  0  0  0  0  0  0  0  0  0
    3.4534    0.3784   -3.2126 C   0  0  0  0  0  0  0  0  0  0  0  0
    3.0735   -1.5684   -2.4694 H   0  0  0  0  0  0  0  0  0  0  0  0
    3.4359    0.3243   -4.3111 H   0  0  0  0  0  0  0  0  0  0  0  0
    3.0635    1.3543   -2.8875 H   0  0  0  0  0  0  0  0  0  0  0  0
    4.4872    0.2595   -2.8562 H   0  0  0  0  0  0  0  0  0  0  0  0
  1  3  1  0  0  0  0
  1  7  1  0  0  0  0
  1  2  2  0  0  0  0
 29 30  1  0  0  0  0
 30 38  1  0  0  0  0
 30 31  2  0  0  0  0
  8  9  1  0  0  0  0
  9 17  1  0  0  0  0
  9 10  2  0  0  0  0
 18 19  1  0  0  0  0
 19 28  1  0  0  0  0
 19 20  2  0  0  0  0
 29 32  1  0  0  0  0
  8 11  1  0  0  0  0
 38 39  1  0  0  0  0
 18 21  1  0  0  0  0
 21 22  1  0  0  0  0
 28 29  1  0  0  0  0
  7  8  1  0  0  0  0
 17 18  1  0  0  0  0
  3  4  1  0  0  0  0
  3  5  1  0  0  0  0
  3  6  1  0  0  0  0
 32 35  1  0  0  0  0
 32 36  1  0  0  0  0
 32 37  1  0  0  0  0
 11 14  1  0  0  0  0
 11 15  1  0  0  0  0
 11 16  1  0  0  0  0
 39 41  1  0  0  0  0
 39 42  1  0  0  0  0
 39 43  1  0  0  0  0
 21 25  1  0  0  0  0
 21 26  1  0  0  0  0
 29 34  1  0  0  0  0
  8 13  1  0  0  0  0
 18 24  1  0  0  0  0
 38 40  1  0  0  0  0
  7 12  1  0  0  0  0
 28 33  1  0  0  0  0
 17 23  1  0  0  0  0
 22 27  1  0  0  0  0
M  END
$$$$

  -OEChem-05262214473D

 43 42  0     1  0  0  0  0  0999 V2000
    0.7424   -1.0926    4.5665 C   0  0  0  0  0  0  0  0  0  0  0  0
    0.1409   -0.5364    5.4779 O   0  0  0  0  0  0  0  0  0  0  0  0
    1.7940   -2.1023    4.8871 C   0  0  0  0  0  0  0  0  0  0  0  0
    2.7935   -1.6502    4.9904 H   0  0  0  0  0  0  0  0  0  0  0  0
    1.6064   -2.6156    5.8438 H   0  0  0  0  0  0  0  0  0  0  0  0
    1.9156   -2.9078    4.1453 H   0  0  0  0  0  0  0  0  0  0  0  0
    0.5488   -0.8838    3.2109 N   0  0  0  0  0  0  0  0  0  0  0  0
   -0.4159    0.0446    2.6829 C   0  0  2  0  0  0  0  0  0  0  0  0
   -0.7551   -0.3867    1.2623 C   0  0  0  0  0  0  0  0  0  0  0  0
   -0.0106   -1.0851    0.5774 O   0  0  0  0  0  0  0  0  0  0  0  0
    0.1168    1.4689    2.7060 C   0  0  0  0  0  0  0  0  0  0  0  0
    1.1183   -1.4145    2.5542 H   0  0  0  0  0  0  0  0  0  0  0  0
   -1.3088   -0.0350    3.3125 H   0  0  0  0  0  0  0  0  0  0  0  0
    1.0116    1.5681    2.0808 H   0  0  0  0  0  0  0  0  0  0  0  0
   -0.6289    2.1775    2.3307 H   0  0  0  0  0  0  0  0  0  0  0  0
    0.3882    1.7670    3.7245 H   0  0  0  0  0  0  0  0  0  0  0  0
   -1.9689    0.1350    0.8298 N   0  0  0  0  0  0  0  0  0  0  0  0
   -2.5039   -0.1183   -0.4830 C   0  0  2  0  0  0  0  0  0  0  0  0
   -1.3365   -0.3183   -1.4433 C   0  0  0  0  0  0  0  0  0  0  0  0
   -0.9642    0.5459   -2.2343 O   0  0  0  0  0  0  0  0  0  0  0  0
   -3.4330    1.0019   -0.9397 C   0  0  0  0  0  0  0  0  0  0  0  0
   -2.6997    2.2084   -1.1179 O   0  0  0  0  0  0  0  0  0  0  0  0
   -2.5276    0.6894    1.4750 H   0  0  0  0  0  0  0  0  0  0  0  0
   -3.0677   -1.0555   -0.4107 H   0  0  0  0  0  0  0  0  0  0  0  0
   -4.2180    1.1880   -0.1996 H   0  0  0  0  0  0  0  0  0  0  0  0
   -3.9044    0.7460   -1.8945 H   0  0  0  0  0  0  0  0  0  0  0  0
   -2.0273    2.0281   -1.7938 H   0  0  0  0  0  0  0  0  0  0  0  0
   -0.7341   -1.5580   -1.2820 N   0  0  0  0  0  0  0  0  0  0  0  0
    0.4134   -1.9765   -2.0531 C   0  0  2  0  0  0  0  0  0  0  0  0
    1.2717   -0.7478   -2.3236 C   0  0  0  0  0  0  0  0  0  0  0  0
    0.8294    0.3987   -2.2959 O   0  0  0  0  0  0  0  0  0  0  0  0
   -0.0072   -2.6428   -3.3539 C   0  0  0  0  0  0  0  0  0  0  0  0
   -1.0855   -2.1954   -0.5736 H   0  0  0  0  0  0  0  0  0  0  0  0
    0.9723   -2.6833   -1.4302 H   0  0  0  0  0  0  0  0  0  0  0  0
   -0.5685   -1.9499   -3.9913 H   0  0  0  0  0  0  0  0  0  0  0  0
    0.8630   -2.9849   -3.9238 H   0  0  0  0  0  0  0  0  0  0  0  0
   -0.6489   -3.5087   -3.1585 H   0  0  0  0  0  0  0  0  0  0  0  0
    2.5799   -1.0849   -2.6419 N   0  0  0  0  0  0  0  0  0  0  0  0
    3.5862   -0.0964   -2.9523 C   0  0  0  0  0  0  0  0  0  0  0  0
    2.8635   -2.0600   -2.6223 H   0  0  0  0  0  0  0  0  0  0  0  0
    3.6156    0.0687   -4.0395 H   0  0  0  0  0  0  0  0  0  0  0  0
    3.3411    0.8481   -2.4446 H   0  0  0  0  0  0  0  0  0  0  0  0
    4.5685   -0.4531   -2.6090 H   0  0  0  0  0  0  0  0  0  0  0  0
  1  3  1  0  0  0  0
  1  7  1  0  0  0  0
  1  2  2  0  0  0  0
 29 30  1  0  0  0  0
 30 38  1  0  0  0  0
 30 31  2  0  0  0  0
  8  9  1  0  0  0  0
  9 17  1  0  0  0  0
  9 10  2  0  0  0  0
 18 19  1  0  0  0  0
 19 28  1  0  0  0  0
 19 20  2  0  0  0  0
 29 32  1  0  0  0  0
  8 11  1  0  0  0  0
 38 39  1  0  0  0  0
 18 21  1  0  0  0  0
 21 22  1  0  0  0  0
 28 29  1  0  0  0  0
  7  8  1  0  0  0  0
 17 18  1  0  0  0  0
  3  4  1  0  0  0  0
  3  5  1  0  0  0  0
  3  6  1  0  0  0  0
 32 35  1  0  0  0  0
 32 36  1  0  0  0  0
 32 37  1  0  0  0  0
 11 14  1  0  0  0  0
 11 15  1  0  0  0  0
 11 16  1  0  0  0  0
 39 41  1  0  0  0  0
 39 42  1  0  0  0  0
 39 43  1  0  0  0  0
 21 25  1  0  0  0  0
 21 26  1  0  0  0  0
 29 34  1  0  0  0  0
  8 13  1  0  0  0  0
 18 24  1  0  0  0  0
 38 40  1  0  0  0  0
  7 12  1  0  0  0  0
 28 33  1  0  0  0  0
 17 23  1  0  0  0  0
 22 27  1  0  0  0  0
M  END
$$$$

  -OEChem-05262214473D

 43 42  0     1  0  0  0  0  0999 V2000
    0.7424   -1.0926    4.5665 C   0  0  0  0  0  0  0  0  0  0  0  0
    0.1409   -0.5364    5.4779 O   0  0  0  0  0  0  0  0  0  0  0  0
    1.7940   -2.1023    4.8871 C   0  0  0  0  0  0  0  0  0  0  0  0
    2.7935   -1.6502    4.9904 H   0  0  0  0  0  0  0  0  0  0  0  0
    1.6064   -2.6156    5.8438 H   0  0  0  0  0  0  0  0  0  0  0  0
    1.9156   -2.9078    4.1453 H   0  0  0  0  0  0  0  0  0  0  0  0
    0.5488   -0.8838    3.2109 N   0  0  0  0  0  0  0  0  0  0  0  0
   -0.4159    0.0446    2.6829 C   0  0  2  0  0  0  0  0  0  0  0  0
   -0.7551   -0.3867    1.2623 C   0  0  0  0  0  0  0  0  0  0  0  0
   -0.0106   -1.0851    0.5774 O   0  0  0  0  0  0  0  0  0  0  0  0
    0.1168    1.4689    2.7060 C   0  0  0  0  0  0  0  0  0  0  0  0
    1.1183   -1.4145    2.5542 H   0  0  0  0  0  0  0  0  0  0  0  0
   -1.3088   -0.0350    3.3125 H   0  0  0  0  0  0  0  0  0  0  0  0
    1.0116    1.5681    2.0808 H   0  0  0  0  0  0  0  0  0  0  0  0
   -0.6289    2.1775    2.3307 H   0  0  0  0  0  0  0  0  0  0  0  0
    0.3882    1.7670    3.7245 H   0  0  0  0  0  0  0  0  0  0  0  0
   -1.9689    0.1350    0.8298 N   0  0  0  0  0  0  0  0  0  0  0  0
   -2.5039   -0.1183   -0.4830 C   0  0  2  0  0  0  0  0  0  0  0  0
   -1.3365   -0.3183   -1.4433 C   0  0  0  0  0  0  0  0  0  0  0  0
   -0.7917    0.6095   -2.0379 O   0  0  0  0  0  0  0  0  0  0  0  0
   -3.4330    1.0019   -0.9397 C   0  0  0  0  0  0  0  0  0  0  0  0
   -2.6997    2.2084   -1.1179 O   0  0  0  0  0  0  0  0  0  0  0  0
   -2.5276    0.6894    1.4750 H   0  0  0  0  0  0  0  0  0  0  0  0
   -3.0677   -1.0555   -0.4107 H   0  0  0  0  0  0  0  0  0  0  0  0
   -4.2180    1.1880   -0.1996 H   0  0  0  0  0  0  0  0  0  0  0  0
   -3.9044    0.7460   -1.8945 H   0  0  0  0  0  0  0  0  0  0  0  0
   -2.0273    2.0281   -1.7938 H   0  0  0  0  0  0  0  0  0  0  0  0
   -0.9486   -1.6482   -1.5239 N   0  0  0  0  0  0  0  0  0  0  0  0
    0.1548   -2.0931   -2.3432 C   0  0  2  0  0  0  0  0  0  0  0  0
    1.2107   -0.9956   -2.3461 C   0  0  0  0  0  0  0  0  0  0  0  0
    0.9562    0.1808   -2.0963 O   0  0  0  0  0  0  0  0  0  0  0  0
   -0.3006   -2.4130   -3.7585 C   0  0  0  0  0  0  0  0  0  0  0  0
   -1.4324   -2.3442   -0.9643 H   0  0  0  0  0  0  0  0  0  0  0  0
    0.5617   -2.9909   -1.8653 H   0  0  0  0  0  0  0  0  0  0  0  0
   -0.7114   -1.5254   -4.2534 H   0  0  0  0  0  0  0  0  0  0  0  0
    0.5314   -2.7772   -4.3702 H   0  0  0  0  0  0  0  0  0  0  0  0
   -1.0813   -3.1813   -3.7524 H   0  0  0  0  0  0  0  0  0  0  0  0
    2.4627   -1.4769   -2.7028 N   0  0  0  0  0  0  0  0  0  0  0  0
    3.6282   -0.6284   -2.7905 C   0  0  0  0  0  0  0  0  0  0  0  0
    2.5857   -2.4704   -2.8746 H   0  0  0  0  0  0  0  0  0  0  0  0
    3.7383   -0.2613   -3.8216 H   0  0  0  0  0  0  0  0  0  0  0  0
    3.5117    0.2262   -2.1077 H   0  0  0  0  0  0  0  0  0  0  0  0
    4.5224   -1.2036   -2.5087 H   0  0  0  0  0  0  0  0  0  0  0  0
  1  3  1  0  0  0  0
  1  7  1  0  0  0  0
  1  2  2  0  0  0  0
 29 30  1  0  0  0  0
 30 38  1  0  0  0  0
 30 31  2  0  0  0  0
  8  9  1  0  0  0  0
  9 17  1  0  0  0  0
  9 10  2  0  0  0  0
 18 19  1  0  0  0  0
 19 28  1  0  0  0  0
 19 20  2  0  0  0  0
 29 32  1  0  0  0  0
  8 11  1  0  0  0  0
 38 39  1  0  0  0  0
 18 21  1  0  0  0  0
 21 22  1  0  0  0  0
 28 29  1  0  0  0  0
  7  8  1  0  0  0  0
 17 18  1  0  0  0  0
  3  4  1  0  0  0  0
  3  5  1  0  0  0  0
  3  6  1  0  0  0  0
 32 35  1  0  0  0  0
 32 36  1  0  0  0  0
 32 37  1  0  0  0  0
 11 14  1  0  0  0  0
 11 15  1  0  0  0  0
 11 16  1  0  0  0  0
 39 41  1  0  0  0  0
 39 42  1  0  0  0  0
 39 43  1  0  0  0  0
 21 25  1  0  0  0  0
 21 26  1  0  0  0  0
 29 34  1  0  0  0  0
  8 13  1  0  0  0  0
 18 24  1  0  0  0  0
 38 40  1  0  0  0  0
  7 12  1  0  0  0  0
 28 33  1  0  0  0  0
 17 23  1  0  0  0  0
 22 27  1  0  0  0  0
M  END
$$$$

  -OEChem-05262214473D

 43 42  0     1  0  0  0  0  0999 V2000
    0.7424   -1.0926    4.5665 C   0  0  0  0  0  0  0  0  0  0  0  0
    0.1409   -0.5364    5.4779 O   0  0  0  0  0  0  0  0  0  0  0  0
    1.7940   -2.1023    4.8871 C   0  0  0  0  0  0  0  0  0  0  0  0
    2.7935   -1.6502    4.9904 H   0  0  0  0  0  0  0  0  0  0  0  0
    1.6064   -2.6156    5.8438 H   0  0  0  0  0  0  0  0  0  0  0  0
    1.9156   -2.9078    4.1453 H   0  0  0  0  0  0  0  0  0  0  0  0
    0.5488   -0.8838    3.2109 N   0  0  0  0  0  0  0  0  0  0  0  0
   -0.4159    0.0446    2.6829 C   0  0  2  0  0  0  0  0  0  0  0  0
   -0.7551   -0.3867    1.2623 C   0  0  0  0  0  0  0  0  0  0  0  0
   -0.0106   -1.0851    0.5774 O   0  0  0  0  0  0  0  0  0  0  0  0
    0.1168    1.4689    2.7060 C   0  0  0  0  0  0  0  0  0  0  0  0
    1.1183   -1.4145    2.5542 H   0  0  0  0  0  0  0  0  0  0  0  0
   -1.3088   -0.0350    3.3125 H   0  0  0  0  0  0  0  0  0  0  0  0
    1.0116    1.5681    2.0808 H   0  0  0  0  0  0  0  0  0  0  0  0
   -0.6289    2.1775    2.3307 H   0  0  0  0  0  0  0  0  0  0  0  0
    0.3882    1.7670    3.7245 H   0  0  0  0  0  0  0  0  0  0  0  0
   -1.9689    0.1350    0.8298 N   0  0  0  0  0  0  0  0  0  0  0  0
   -2.5039   -0.1183   -0.4830 C   0  0  2  0  0  0  0  0  0  0  0  0
   -1.3365   -0.3183   -1.4433 C   0  0  0  0  0  0  0  0  0  0  0  0
   -0.6213    0.6039   -1.8296 O   0  0  0  0  0  0  0  0  0  0  0  0
   -3.4330    1.0019   -0.9397 C   0  0  0  0  0  0  0  0  0  0  0  0
   -2.6997    2.2084   -1.1179 O   0  0  0  0  0  0  0  0  0  0  0  0
   -2.5276    0.6894    1.4750 H   0  0  0  0  0  0  0  0  0  0  0  0
   -3.0677   -1.0555   -0.4107 H   0  0  0  0  0  0  0  0  0  0  0  0
   -4.2180    1.1880   -0.1996 H   0  0  0  0  0  0  0  0  0  0  0  0
   -3.9044    0.7460   -1.8945 H   0  0  0  0  0  0  0  0  0  0  0  0
   -2.0273    2.0281   -1.7938 H   0  0  0  0  0  0  0  0  0  0  0  0
   -1.1622   -1.6525   -1.7828 N   0  0  0  0  0  0  0  0  0  0  0  0
   -0.1041   -2.1060   -2.6553 C   0  0  2  0  0  0  0  0  0  0  0  0
    1.1122   -1.2205   -2.4191 C   0  0  0  0  0  0  0  0  0  0  0  0
    1.0365   -0.0899   -1.9424 O   0  0  0  0  0  0  0  0  0  0  0  0
   -0.5329   -2.0630   -4.1137 C   0  0  0  0  0  0  0  0  0  0  0  0
   -1.7785   -2.3540   -1.3830 H   0  0  0  0  0  0  0  0  0  0  0  0
    0.1297   -3.1349   -2.3605 H   0  0  0  0  0  0  0  0  0  0  0  0
   -0.7713   -1.0401   -4.4272 H   0  0  0  0  0  0  0  0  0  0  0  0
    0.2601   -2.4339   -4.7715 H   0  0  0  0  0  0  0  0  0  0  0  0
   -1.4255   -2.6768   -4.2758 H   0  0  0  0  0  0  0  0  0  0  0  0
    2.2877   -1.8243   -2.8432 N   0  0  0  0  0  0  0  0  0  0  0  0
    3.5765   -1.1811   -2.7382 C   0  0  0  0  0  0  0  0  0  0  0  0
    2.2591   -2.7715   -3.2089 H   0  0  0  0  0  0  0  0  0  0  0  0
    3.7956   -0.6432   -3.6723 H   0  0  0  0  0  0  0  0  0  0  0  0
    3.5637   -0.4692   -1.8997 H   0  0  0  0  0  0  0  0  0  0  0  0
    4.3522   -1.9409   -2.5622 H   0  0  0  0  0  0  0  0  0  0  0  0
  1  3  1  0  0  0  0
  1  7  1  0  0  0  0
  1  2  2  0  0  0  0
 29 30  1  0  0  0  0
 30 38  1  0  0  0  0
 30 31  2  0  0  0  0
  8  9  1  0  0  0  0
  9 17  1  0  0  0  0
  9 10  2  0  0  0  0
 18 19  1  0  0  0  0
 19 28  1  0  0  0  0
 19 20  2  0  0  0  0
 29 32  1  0  0  0  0
  8 11  1  0  0  0  0
 38 39  1  0  0  0  0
 18 21  1  0  0  0  0
 21 22  1  0  0  0  0
 28 29  1  0  0  0  0
  7  8  1  0  0  0  0
 17 18  1  0  0  0  0
  3  4  1  0  0  0  0
  3  5  1  0  0  0  0
  3  6  1  0  0  0  0
 32 35  1  0  0  0  0
 32 36  1  0  0  0  0
 32 37  1  0  0  0  0
 11 14  1  0  0  0  0
 11 15  1  0  0  0  0
 11 16  1  0  0  0  0
 39 41  1  0  0  0  0
 39 42  1  0  0  0  0
 39 43  1  0  0  0  0
 21 25  1  0  0  0  0
 21 26  1  0  0  0  0
 29 34  1  0  0  0  0
  8 13  1  0  0  0  0
 18 24  1  0  0  0  0
 38 40  1  0  0  0  0
  7 12  1  0  0  0  0
 28 33  1  0  0  0  0
 17 23  1  0  0  0  0
 22 27  1  0  0  0  0
M  END
$$$$

  -OEChem-05262214473D

 43 42  0     1  0  0  0  0  0999 V2000
    0.7424   -1.0926    4.5665 C   0  0  0  0  0  0  0  0  0  0  0  0
    0.1409   -0.5364    5.4779 O   0  0  0  0  0  0  0  0  0  0  0  0
    1.7940   -2.1023    4.8871 C   0  0  0  0  0  0  0  0  0  0  0  0
    2.7935   -1.6502    4.9904 H   0  0  0  0  0  0  0  0  0  0  0  0
    1.6064   -2.6156    5.8438 H   0  0  0  0  0  0  0  0  0  0  0  0
    1.9156   -2.9078    4.1453 H   0  0  0  0  0  0  0  0  0  0  0  0
    0.5488   -0.8838    3.2109 N   0  0  0  0  0  0  0  0  0  0  0  0
   -0.4159    0.0446    2.6829 C   0  0  2  0  0  0  0  0  0  0  0  0
   -0.7551   -0.3867    1.2623 C   0  0  0  0  0  0  0  0  0  0  0  0
   -0.0106   -1.0851    0.5774 O   0  0  0  0  0  0  0  0  0  0  0  0
    0.1168    1.4689    2.7060 C   0  0  0  0  0  0  0  0  0  0  0  0
    1.1183   -1.4145    2.5542 H   0  0  0  0  0  0  0  0  0  0  0  0
   -1.3088   -0.0350    3.3125 H   0  0  0  0  0  0  0  0  0  0  0  0
    1.0116    1.5681    2.0808 H   0  0  0  0  0  0  0  0  0  0  0  0
   -0.6289    2.1775    2.3307 H   0  0  0  0  0  0  0  0  0  0  0  0
    0.3882    1.7670    3.7245 H   0  0  0  0  0  0  0  0  0  0  0  0
   -1.9689    0.1350    0.8298 N   0  0  0  0  0  0  0  0  0  0  0  0
   -2.5039   -0.1183   -0.4830 C   0  0  2  0  0  0  0  0  0  0  0  0
   -1.3365   -0.3183   -1.4433 C   0  0  0  0  0  0  0  0  0  0  0  0
   -0.4648    0.5294   -1.6238 O   0  0  0  0  0  0  0  0  0  0  0  0
   -3.4330    1.0019   -0.9397 C   0  0  0  0  0  0  0  0  0  0  0  0
   -2.6997    2.2084   -1.1179 O   0  0  0  0  0  0  0  0  0  0  0  0
   -2.5276    0.6894    1.4750 H   0  0  0  0  0  0  0  0  0  0  0  0
   -3.0677   -1.0555   -0.4107 H   0  0  0  0  0  0  0  0  0  0  0  0
   -4.2180    1.1880   -0.1996 H   0  0  0  0  0  0  0  0  0  0  0  0
   -3.9044    0.7460   -1.8945 H   0  0  0  0  0  0  0  0  0  0  0  0
   -2.0273    2.0281   -1.7938 H   0  0  0  0  0  0  0  0  0  0  0  0
   -1.3605   -1.5705   -2.0409 N   0  0  0  0  0  0  0  0  0  0  0  0
   -0.3457   -2.0145   -2.9680 C   0  0  2  0  0  0  0  0  0  0  0  0
    0.9829   -1.4072   -2.5374 C   0  0  0  0  0  0  0  0  0  0  0  0
    1.0646   -0.3950   -1.8447 O   0  0  0  0  0  0  0  0  0  0  0  0
   -0.6881   -1.6167   -4.3953 C   0  0  0  0  0  0  0  0  0  0  0  0
   -2.1001   -2.2241   -1.8011 H   0  0  0  0  0  0  0  0  0  0  0  0
   -0.2943   -3.1054   -2.8820 H   0  0  0  0  0  0  0  0  0  0  0  0
   -0.7441   -0.5271   -4.5010 H   0  0  0  0  0  0  0  0  0  0  0  0
    0.0676   -1.9787   -5.1003 H   0  0  0  0  0  0  0  0  0  0  0  0
   -1.6579   -2.0297   -4.6931 H   0  0  0  0  0  0  0  0  0  0  0  0
    2.0667   -2.1036   -3.0536 N   0  0  0  0  0  0  0  0  0  0  0  0
    3.4348   -1.7169   -2.7989 C   0  0  0  0  0  0  0  0  0  0  0  0
    1.9058   -2.9428   -3.6027 H   0  0  0  0  0  0  0  0  0  0  0  0
    3.7837   -1.0510   -3.6019 H   0  0  0  0  0  0  0  0  0  0  0  0
    3.4935   -1.1905   -1.8348 H   0  0  0  0  0  0  0  0  0  0  0  0
    4.0694   -2.6148   -2.7656 H   0  0  0  0  0  0  0  0  0  0  0  0
  1  3  1  0  0  0  0
  1  7  1  0  0  0  0
  1  2  2  0  0  0  0
 29 30  1  0  0  0  0
 30 38  1  0  0  0  0
 30 31  2  0  0  0  0
  8  9  1  0  0  0  0
  9 17  1  0  0  0  0
  9 10  2  0  0  0  0
 18 19  1  0  0  0  0
 19 28  1  0  0  0  0
 19 20  2  0  0  0  0
 29 32  1  0  0  0  0
  8 11  1  0  0  0  0
 38 39  1  0  0  0  0
 18 21  1  0  0  0  0
 21 22  1  0  0  0  0
 28 29  1  0  0  0  0
  7  8  1  0  0  0  0
 17 18  1  0  0  0  0
  3  4  1  0  0  0  0
  3  5  1  0  0  0  0
  3  6  1  0  0  0  0
 32 35  1  0  0  0  0
 32 36  1  0  0  0  0
 32 37  1  0  0  0  0
 11 14  1  0  0  0  0
 11 15  1  0  0  0  0
 11 16  1  0  0  0  0
 39 41  1  0  0  0  0
 39 42  1  0  0  0  0
 39 43  1  0  0  0  0
 21 25  1  0  0  0  0
 21 26  1  0  0  0  0
 29 34  1  0  0  0  0
  8 13  1  0  0  0  0
 18 24  1  0  0  0  0
 38 40  1  0  0  0  0
  7 12  1  0  0  0  0
 28 33  1  0  0  0  0
 17 23  1  0  0  0  0
 22 27  1  0  0  0  0
M  END
$$$$

  -OEChem-05262214473D

 43 42  0     1  0  0  0  0  0999 V2000
    0.7424   -1.0926    4.5665 C   0  0  0  0  0  0  0  0  0  0  0  0
    0.1409   -0.5364    5.4779 O   0  0  0  0  0  0  0  0  0  0  0  0
    1.7940   -2.1023    4.8871 C   0  0  0  0  0  0  0  0  0  0  0  0
    2.7935   -1.6502    4.9904 H   0  0  0  0  0  0  0  0  0  0  0  0
    1.6064   -2.6156    5.8438 H   0  0  0  0  0  0  0  0  0  0  0  0
    1.9156   -2.9078    4.1453 H   0  0  0  0  0  0  0  0  0  0  0  0
    0.5488   -0.8838    3.2109 N   0  0  0  0  0  0  0  0  0  0  0  0
   -0.4159    0.0446    2.6829 C   0  0  2  0  0  0  0  0  0  0  0  0
   -0.7551   -0.3867    1.2623 C   0  0  0  0  0  0  0  0  0  0  0  0
   -0.0106   -1.0851    0.5774 O   0  0  0  0  0  0  0  0  0  0  0  0
    0.1168    1.4689    2.7060 C   0  0  0  0  0  0  0  0  0  0  0  0
    1.1183   -1.4145    2.5542 H   0  0  0  0  0  0  0  0  0  0  0  0
   -1.3088   -0.0350    3.3125 H   0  0  0  0  0  0  0  0  0  0  0  0
    1.0116    1.5681    2.0808 H   0  0  0  0  0  0  0  0  0  0  0  0
   -0.6289    2.1775    2.3307 H   0  0  0  0  0  0  0  0  0  0  0  0
    0.3882    1.7670    3.7245 H   0  0  0  0  0  0  0  0  0  0  0  0
   -1.9689    0.1350    0.8298 N   0  0  0  0  0  0  0  0  0  0  0  0
   -2.5039   -0.1183   -0.4830 C   0  0  2  0  0  0  0  0  0  0  0  0
   -1.3365   -0.3183   -1.4433 C   0  0  0  0  0  0  0  0  0  0  0  0
   -0.3327    0.3912   -1.4345 O   0  0  0  0  0  0  0  0  0  0  0  0
   -3.4330    1.0019   -0.9397 C   0  0  0  0  0  0  0  0  0  0  0  0
   -2.6997    2.2084   -1.1179 O   0  0  0  0  0  0  0  0  0  0  0  0
   -2.5276    0.6894    1.4750 H   0  0  0  0  0  0  0  0  0  0  0  0
   -3.0677   -1.0555   -0.4107 H   0  0  0  0  0  0  0  0  0  0  0  0
   -4.2180    1.1880   -0.1996 H   0  0  0  0  0  0  0  0  0  0  0  0
   -3.9044    0.7460   -1.8945 H   0  0  0  0  0  0  0  0  0  0  0  0
   -2.0273    2.0281   -1.7938 H   0  0  0  0  0  0  0  0  0  0  0  0
   -1.5299   -1.4079   -2.2807 N   0  0  0  0  0  0  0  0  0  0  0  0
   -0.5536   -1.8248   -3.2602 C   0  0  2  0  0  0  0  0  0  0  0  0
    0.8315   -1.5430   -2.6932 C   0  0  0  0  0  0  0  0  0  0  0  0
    1.0387   -0.7136   -1.8098 O   0  0  0  0  0  0  0  0  0  0  0  0
   -0.7557   -1.1045   -4.5842 C   0  0  0  0  0  0  0  0  0  0  0  0
   -2.3755   -1.9633   -2.1901 H   0  0  0  0  0  0  0  0  0  0  0  0
   -0.6812   -2.9045   -3.3943 H   0  0  0  0  0  0  0  0  0  0  0  0
   -0.6318   -0.0214   -4.4698 H   0  0  0  0  0  0  0  0  0  0  0  0
   -0.0330   -1.4424   -5.3342 H   0  0  0  0  0  0  0  0  0  0  0  0
   -1.7628   -1.2841   -4.9759 H   0  0  0  0  0  0  0  0  0  0  0  0
    1.8150   -2.2957   -3.3197 N   0  0  0  0  0  0  0  0  0  0  0  0
    3.2126   -2.1993   -2.9685 C   0  0  0  0  0  0  0  0  0  0  0  0
    1.5501   -2.9728   -4.0290 H   0  0  0  0  0  0  0  0  0  0  0  0
    3.7033   -1.4569   -3.6151 H   0  0  0  0  0  0  0  0  0  0  0  0
    3.3059   -1.8886   -1.9175 H   0  0  0  0  0  0  0  0  0  0  0  0
    3.6933   -3.1792   -3.1053 H   0  0  0  0  0  0  0  0  0  0  0  0
  1  3  1  0  0  0  0
  1  7  1  0  0  0  0
  1  2  2  0  0  0  0
 29 30  1  0  0  0  0
 30 38  1  0  0  0  0
 30 31  2  0  0  0  0
  8  9  1  0  0  0  0
  9 17  1  0  0  0  0
  9 10  2  0  0  0  0
 18 19  1  0  0  0  0
 19 28  1  0  0  0  0
 19 20  2  0  0  0  0
 29 32  1  0  0  0  0
  8 11  1  0  0  0  0
 38 39  1  0  0  0  0
 18 21  1  0  0  0  0
 21 22  1  0  0  0  0
 28 29  1  0  0  0  0
  7  8  1  0  0  0  0
 17 18  1  0  0  0  0
  3  4  1  0  0  0  0
  3  5  1  0  0  0  0
  3  6  1  0  0  0  0
 32 35  1  0  0  0  0
 32 36  1  0  0  0  0
 32 37  1  0  0  0  0
 11 14  1  0  0  0  0
 11 15  1  0  0  0  0
 11 16  1  0  0  0  0
 39 41  1  0  0  0  0
 39 42  1  0  0  0  0
 39 43  1  0  0  0  0
 21 25  1  0  0  0  0
 21 26  1  0  0  0  0
 29 34  1  0  0  0  0
  8 13  1  0  0  0  0
 18 24  1  0  0  0  0
 38 40  1  0  0  0  0
  7 12  1  0  0  0  0
 28 33  1  0  0  0  0
 17 23  1  0  0  0  0
 22 27  1  0  0  0  0
M  END
$$$$

  -OEChem-05262214473D

 43 42  0     1  0  0  0  0  0999 V2000
    0.7424   -1.0926    4.5665 C   0  0  0  0  0  0  0  0  0  0  0  0
    0.1409   -0.5364    5.4779 O   0  0  0  0  0  0  0  0  0  0  0  0
    1.7940   -2.1023    4.8871 C   0  0  0  0  0  0  0  0  0  0  0  0
    2.7935   -1.6502    4.9904 H   0  0  0  0  0  0  0  0  0  0  0  0
    1.6064   -2.6156    5.8438 H   0  0  0  0  0  0  0  0  0  0  0  0
    1.9156   -2.9078    4.1453 H   0  0  0  0  0  0  0  0  0  0  0  0
    0.5488   -0.8838    3.2109 N   0  0  0  0  0  0  0  0  0  0  0  0
   -0.4159    0.0446    2.6829 C   0  0  2  0  0  0  0  0  0  0  0  0
   -0.7551   -0.3867    1.2623 C   0  0  0  0  0  0  0  0  0  0  0  0
   -0.0106   -1.0851    0.5774 O   0  0  0  0  0  0  0  0  0  0  0  0
    0.1168    1.4689    2.7060 C   0  0  0  0  0  0  0  0  0  0  0  0
    1.1183   -1.4145    2.5542 H   0  0  0  0  0  0  0  0  0  0  0  0
   -1.3088   -0.0350    3.3125 H   0  0  0  0  0  0  0  0  0  0  0  0
    1.0116    1.5681    2.0808 H   0  0  0  0  0  0  0  0  0  0  0  0
   -0.6289    2.1775    2.3307 H   0  0  0  0  0  0  0  0  0  0  0  0
    0.3882    1.7670    3.7245 H   0  0  0  0  0  0  0  0  0  0  0  0
   -1.9689    0.1350    0.8298 N   0  0  0  0  0  0  0  0  0  0  0  0
   -2.5039   -0.1183   -0.4830 C   0  0  2  0  0  0  0  0  0  0  0  0
   -1.3365   -0.3183   -1.4433 C   0  0  0  0  0  0  0  0  0  0  0  0
   -0.2341    0.1987   -1.2745 O   0  0  0  0  0  0  0  0  0  0  0  0
   -3.4330    1.0019   -0.9397 C   0  0  0  0  0  0  0  0  0  0  0  0
   -2.6997    2.2084   -1.1179 O   0  0  0  0  0  0  0  0  0  0  0  0
   -2.5276    0.6894    1.4750 H   0  0  0  0  0  0  0  0  0  0  0  0
   -3.0677   -1.0555   -0.4107 H   0  0  0  0  0  0  0  0  0  0  0  0
   -4.2180    1.1880   -0.1996 H   0  0  0  0  0  0  0  0  0  0  0  0
   -3.9044    0.7460   -1.8945 H   0  0  0  0  0  0  0  0  0  0  0  0
   -2.0273    2.0281   -1.7938 H   0  0  0  0  0  0  0  0  0  0  0  0
   -1.6589   -1.1756   -2.4858 N   0  0  0  0  0  0  0  0  0  0  0  0
   -0.7135   -1.5497   -3.5119 C   0  0  2  0  0  0  0  0  0  0  0  0
    0.6685   -1.6186   -2.8756 C   0  0  0  0  0  0  0  0  0  0  0  0
    0.9606   -1.0241   -1.8401 O   0  0  0  0  0  0  0  0  0  0  0  0
   -0.7312   -0.5612   -4.6675 C   0  0  0  0  0  0  0  0  0  0  0  0
   -2.5857   -1.5894   -2.5235 H   0  0  0  0  0  0  0  0  0  0  0  0
   -1.0049   -2.5458   -3.8625 H   0  0  0  0  0  0  0  0  0  0  0  0
   -0.4419    0.4426   -4.3355 H   0  0  0  0  0  0  0  0  0  0  0  0
   -0.0347   -0.8617   -5.4573 H   0  0  0  0  0  0  0  0  0  0  0  0
   -1.7330   -0.4908   -5.1048 H   0  0  0  0  0  0  0  0  0  0  0  0
    1.5495   -2.3874   -3.6233 N   0  0  0  0  0  0  0  0  0  0  0  0
    2.9251   -2.5955   -3.2355 C   0  0  0  0  0  0  0  0  0  0  0  0
    1.2160   -2.8592   -4.4587 H   0  0  0  0  0  0  0  0  0  0  0  0
    3.5599   -1.8333   -3.7110 H   0  0  0  0  0  0  0  0  0  0  0  0
    3.0137   -2.5160   -2.1420 H   0  0  0  0  0  0  0  0  0  0  0  0
    3.2495   -3.5959   -3.5580 H   0  0  0  0  0  0  0  0  0  0  0  0
  1  3  1  0  0  0  0
  1  7  1  0  0  0  0
  1  2  2  0  0  0  0
 29 30  1  0  0  0  0
 30 38  1  0  0  0  0
 30 31  2  0  0  0  0
  8  9  1  0  0  0  0
  9 17  1  0  0  0  0
  9 10  2  0  0  0  0
 18 19  1  0  0  0  0
 19 28  1  0  0  0  0
 19 20  2  0  0  0  0
 29 32  1  0  0  0  0
  8 11  1  0  0  0  0
 38 39  1  0  0  0  0
 18 21  1  0  0  0  0
 21 22  1  0  0  0  0
 28 29  1  0  0  0  0
  7  8  1  0  0  0  0
 17 18  1  0  0  0  0
  3  4  1  0  0  0  0
  3  5  1  0  0  0  0
  3  6  1  0  0  0  0
 32 35  1  0  0  0  0
 32 36  1  0  0  0  0
 32 37  1  0  0  0  0
 11 14  1  0  0  0  0
 11 15  1  0  0  0  0
 11 16  1  0  0  0  0
 39 41  1  0  0  0  0
 39 42  1  0  0  0  0
 39 43  1  0  0  0  0
 21 25  1  0  0  0  0
 21 26  1  0  0  0  0
 29 34  1  0  0  0  0
  8 13  1  0  0  0  0
 18 24  1  0  0  0  0
 38 40  1  0  0  0  0
  7 12  1  0  0  0  0
 28 33  1  0  0  0  0
 17 23  1  0  0  0  0
 22 27  1  0  0  0  0
M  END
$$$$

  -OEChem-05262214473D

 43 42  0     1  0  0  0  0  0999 V2000
    0.7424   -1.0926    4.5665 C   0  0  0  0  0  0  0  0  0  0  0  0
    0.1409   -0.5364    5.4779 O   0  0  0  0  0  0  0  0  0  0  0  0
    1.7940   -2.1023    4.8871 C   0  0  0  0  0  0  0  0  0  0  0  0
    2.7935   -1.6502    4.9904 H   0  0  0  0  0  0  0  0  0  0  0  0
    1.6064   -2.6156    5.8438 H   0  0  0  0  0  0  0  0  0  0  0  0
    1.9156   -2.9078    4.1453 H   0  0  0  0  0  0  0  0  0  0  0  0
    0.5488   -0.8838    3.2109 N   0  0  0  0  0  0  0  0  0  0  0  0
   -0.4159    0.0446    2.6829 C   0  0  2  0  0  0  0  0  0  0  0  0
   -0.7551   -0.3867    1.2623 C   0  0  0  0  0  0  0  0  0  0  0  0
   -0.0106   -1.0851    0.5774 O   0  0  0  0  0  0  0  0  0  0  0  0
    0.1168    1.4689    2.7060 C   0  0  0  0  0  0  0  0  0  0  0  0
    1.1183   -1.4145    2.5542 H   0  0  0  0  0  0  0  0  0  0  0  0
   -1.3088   -0.0350    3.3125 H   0  0  0  0  0  0  0  0  0  0  0  0
    1.0116    1.5681    2.0808 H   0  0  0  0  0  0  0  0  0  0  0  0
   -0.6289    2.1775    2.3307 H   0  0  0  0  0  0  0  0  0  0  0  0
    0.3882    1.7670    3.7245 H   0  0  0  0  0  0  0  0  0  0  0  0
   -1.9689    0.1350    0.8298 N   0  0  0  0  0  0  0  0  0  0  0  0
   -2.5039   -0.1183   -0.4830 C   0  0  2  0  0  0  0  0  0  0  0  0
   -1.3365   -0.3183   -1.4433 C   0  0  0  0  0  0  0  0  0  0  0  0
   -0.1756   -0.0351   -1.1548 O   0  0  0  0  0  0  0  0  0  0  0  0
   -3.4330    1.0019   -0.9397 C   0  0  0  0  0  0  0  0  0  0  0  0
   -2.6997    2.2084   -1.1179 O   0  0  0  0  0  0  0  0  0  0  0  0
   -2.5276    0.6894    1.4750 H   0  0  0  0  0  0  0  0  0  0  0  0
   -3.0677   -1.0555   -0.4107 H   0  0  0  0  0  0  0  0  0  0  0  0
   -4.2180    1.1880   -0.1996 H   0  0  0  0  0  0  0  0  0  0  0  0
   -3.9044    0.7460   -1.8945 H   0  0  0  0  0  0  0  0  0  0  0  0
   -2.0273    2.0281   -1.7938 H   0  0  0  0  0  0  0  0  0  0  0  0
   -1.7386   -0.8896   -2.6423 N   0  0  0  0  0  0  0  0  0  0  0  0
   -0.8146   -1.2081   -3.7060 C   0  0  2  0  0  0  0  0  0  0  0  0
    0.5048   -1.6290   -3.0724 C   0  0  0  0  0  0  0  0  0  0  0  0
    0.8355   -1.3052   -1.9336 O   0  0  0  0  0  0  0  0  0  0  0  0
   -0.6161   -0.0240   -4.6394 C   0  0  0  0  0  0  0  0  0  0  0  0
   -2.7165   -1.1279   -2.7786 H   0  0  0  0  0  0  0  0  0  0  0  0
   -1.2432   -2.0539   -4.2546 H   0  0  0  0  0  0  0  0  0  0  0  0
   -0.1874    0.8331   -4.1075 H   0  0  0  0  0  0  0  0  0  0  0  0
    0.0624   -0.2760   -5.4612 H   0  0  0  0  0  0  0  0  0  0  0  0
   -1.5704    0.2962   -5.0712 H   0  0  0  0  0  0  0  0  0  0  0  0
    1.2884   -2.3726   -3.9437 N   0  0  0  0  0  0  0  0  0  0  0  0
    2.5919   -2.8784   -3.5817 C   0  0  0  0  0  0  0  0  0  0  0  0
    0.9264   -2.6099   -4.8627 H   0  0  0  0  0  0  0  0  0  0  0  0
    3.3634   -2.1545   -3.8831 H   0  0  0  0  0  0  0  0  0  0  0  0
    2.6369   -3.0299   -2.4931 H   0  0  0  0  0  0  0  0  0  0  0  0
    2.7683   -3.8363   -4.0929 H   0  0  0  0  0  0  0  0  0  0  0  0
  1  3  1  0  0  0  0
  1  7  1  0  0  0  0
  1  2  2  0  0  0  0
 29 30  1  0  0  0  0
 30 38  1  0  0  0  0
 30 31  2  0  0  0  0
  8  9  1  0  0  0  0
  9 17  1  0  0  0  0
  9 10  2  0  0  0  0
 18 19  1  0  0  0  0
 19 28  1  0  0  0  0
 19 20  2  0  0  0  0
 29 32  1  0  0  0  0
  8 11  1  0  0  0  0
 38 39  1  0  0  0  0
 18 21  1  0  0  0  0
 21 22  1  0  0  0  0
 28 29  1  0  0  0  0
  7  8  1  0  0  0  0
 17 18  1  0  0  0  0
  3  4  1  0  0  0  0
  3  5  1  0  0  0  0
  3  6  1  0  0  0  0
 32 35  1  0  0  0  0
 32 36  1  0  0  0  0
 32 37  1  0  0  0  0
 11 14  1  0  0  0  0
 11 15  1  0  0  0  0
 11 16  1  0  0  0  0
 39 41  1  0  0  0  0
 39 42  1  0  0  0  0
 39 43  1  0  0  0  0
 21 25  1  0  0  0  0
 21 26  1  0  0  0  0
 29 34  1  0  0  0  0
  8 13  1  0  0  0  0
 18 24  1  0  0  0  0
 38 40  1  0  0  0  0
  7 12  1  0  0  0  0
 28 33  1  0  0  0  0
 17 23  1  0  0  0  0
 22 27  1  0  0  0  0
M  END
$$$$

  -OEChem-05262214473D

 43 42  0     1  0  0  0  0  0999 V2000
    0.7424   -1.0926    4.5665 C   0  0  0  0  0  0  0  0  0  0  0  0
    0.1409   -0.5364    5.4779 O   0  0  0  0  0  0  0  0  0  0  0  0
    1.7940   -2.1023    4.8871 C   0  0  0  0  0  0  0  0  0  0  0  0
    2.7935   -1.6502    4.9904 H   0  0  0  0  0  0  0  0  0  0  0  0
    1.6064   -2.6156    5.8438 H   0  0  0  0  0  0  0  0  0  0  0  0
    1.9156   -2.9078    4.1453 H   0  0  0  0  0  0  0  0  0  0  0  0
    0.5488   -0.8838    3.2109 N   0  0  0  0  0  0  0  0  0  0  0  0
   -0.4159    0.0446    2.6829 C   0  0  2  0  0  0  0  0  0  0  0  0
   -0.7551   -0.3867    1.2623 C   0  0  0  0  0  0  0  0  0  0  0  0
   -0.0106   -1.0851    0.5774 O   0  0  0  0  0  0  0  0  0  0  0  0
    0.1168    1.4689    2.7060 C   0  0  0  0  0  0  0  0  0  0  0  0
    1.1183   -1.4145    2.5542 H   0  0  0  0  0  0  0  0  0  0  0  0
   -1.3088   -0.0350    3.3125 H   0  0  0  0  0  0  0  0  0  0  0  0
    1.0116    1.5681    2.0808 H   0  0  0  0  0  0  0  0  0  0  0  0
   -0.6289    2.1775    2.3307 H   0  0  0  0  0  0  0  0  0  0  0  0
    0.3882    1.7670    3.7245 H   0  0  0  0  0  0  0  0  0  0  0  0
   -1.9689    0.1350    0.8298 N   0  0  0  0  0  0  0  0  0  0  0  0
   -2.5039   -0.1183   -0.4830 C   0  0  2  0  0  0  0  0  0  0  0  0
   -1.3858   -0.6821   -1.3530 C   0  0  0  0  0  0  0  0  0  0  0  0
   -0.2516   -0.8968   -0.9304 O   0  0  0  0  0  0  0  0  0  0  0  0
   -3.1234    1.1356   -1.0916 C   0  0  0  0  0  0  0  0  0  0  0  0
   -2.1182    2.1128   -1.3364 O   0  0  0  0  0  0  0  0  0  0  0  0
   -2.5276    0.6894    1.4750 H   0  0  0  0  0  0  0  0  0  0  0  0
   -3.2768   -0.8854   -0.3583 H   0  0  0  0  0  0  0  0  0  0  0  0
   -3.8661    1.5743   -0.4175 H   0  0  0  0  0  0  0  0  0  0  0  0
   -3.6094    0.9013   -2.0447 H   0  0  0  0  0  0  0  0  0  0  0  0
   -1.4855    1.7126   -1.9537 H   0  0  0  0  0  0  0  0  0  0  0  0
   -1.8162   -0.9568   -2.6434 N   0  0  0  0  0  0  0  0  0  0  0  0
   -0.9527   -1.5264   -3.6516 C   0  0  2  0  0  0  0  0  0  0  0  0
    0.0161   -2.4759   -2.9591 C   0  0  0  0  0  0  0  0  0  0  0  0
    0.2951   -2.3960   -1.7646 O   0  0  0  0  0  0  0  0  0  0  0  0
   -0.2027   -0.4447   -4.4132 C   0  0  0  0  0  0  0  0  0  0  0  0
   -2.7853   -0.7839   -2.8939 H   0  0  0  0  0  0  0  0  0  0  0  0
   -1.5949   -2.0931   -4.3346 H   0  0  0  0  0  0  0  0  0  0  0  0
    0.4461    0.1336   -3.7453 H   0  0  0  0  0  0  0  0  0  0  0  0
    0.4297   -0.8765   -5.1959 H   0  0  0  0  0  0  0  0  0  0  0  0
   -0.9009    0.2544   -4.8859 H   0  0  0  0  0  0  0  0  0  0  0  0
    0.5653   -3.3960   -3.8412 N   0  0  0  0  0  0  0  0  0  0  0  0
    1.5223   -4.3960   -3.4289 C   0  0  0  0  0  0  0  0  0  0  0  0
    0.2619   -3.4014   -4.8106 H   0  0  0  0  0  0  0  0  0  0  0  0
    2.5421   -4.0089   -3.5706 H   0  0  0  0  0  0  0  0  0  0  0  0
    1.3660   -4.6371   -2.3670 H   0  0  0  0  0  0  0  0  0  0  0  0
    1.3875   -5.3042   -4.0348 H   0  0  0  0  0  0  0  0  0  0  0  0
  1  3  1  0  0  0  0
  1  7  1  0  0  0  0
  1  2  2  0  0  0  0
 29 30  1  0  0  0  0
 30 38  1  0  0  0  0
 30 31  2  0  0  0  0
  8  9  1  0  0  0  0
  9 17  1  0  0  0  0
  9 10  2  0  0  0  0
 18 19  1  0  0  0  0
 19 28  1  0  0  0  0
 19 20  2  0  0  0  0
 29 32  1  0  0  0  0
  8 11  1  0  0  0  0
 38 39  1  0  0  0  0
 18 21  1  0  0  0  0
 21 22  1  0  0  0  0
 28 29  1  0  0  0  0
  7  8  1  0  0  0  0
 17 18  1  0  0  0  0
  3  4  1  0  0  0  0
  3  5  1  0  0  0  0
  3  6  1  0  0  0  0
 32 35  1  0  0  0  0
 32 36  1  0  0  0  0
 32 37  1  0  0  0  0
 11 14  1  0  0  0  0
 11 15  1  0  0  0  0
 11 16  1  0  0  0  0
 39 41  1  0  0  0  0
 39 42  1  0  0  0  0
 39 43  1  0  0  0  0
 21 25  1  0  0  0  0
 21 26  1  0  0  0  0
 29 34  1  0  0  0  0
  8 13  1  0  0  0  0
 18 24  1  0  0  0  0
 38 40  1  0  0  0  0
  7 12  1  0  0  0  0
 28 33  1  0  0  0  0
 17 23  1  0  0  0  0
 22 27  1  0  0  0  0
M  END
$$$$

  -OEChem-05262214473D

 43 42  0     1  0  0  0  0  0999 V2000
    0.7424   -1.0926    4.5665 C   0  0  0  0  0  0  0  0  0  0  0  0
    0.1409   -0.5364    5.4779 O   0  0  0  0  0  0  0  0  0  0  0  0
    1.7940   -2.1023    4.8871 C   0  0  0  0  0  0  0  0  0  0  0  0
    2.7935   -1.6502    4.9904 H   0  0  0  0  0  0  0  0  0  0  0  0
    1.6064   -2.6156    5.8438 H   0  0  0  0  0  0  0  0  0  0  0  0
    1.9156   -2.9078    4.1453 H   0  0  0  0  0  0  0  0  0  0  0  0
    0.5488   -0.8838    3.2109 N   0  0  0  0  0  0  0  0  0  0  0  0
   -0.4159    0.0446    2.6829 C   0  0  2  0  0  0  0  0  0  0  0  0
   -0.7551   -0.3867    1.2623 C   0  0  0  0  0  0  0  0  0  0  0  0
   -0.0106   -1.0851    0.5774 O   0  0  0  0  0  0  0  0  0  0  0  0
    0.1168    1.4689    2.7060 C   0  0  0  0  0  0  0  0  0  0  0  0
    1.1183   -1.4145    2.5542 H   0  0  0  0  0  0  0  0  0  0  0  0
   -1.3088   -0.0350    3.3125 H   0  0  0  0  0  0  0  0  0  0  0  0
    1.0116    1.5681    2.0808 H   0  0  0  0  0  0  0  0  0  0  0  0
   -0.6289    2.1775    2.3307 H   0  0  0  0  0  0  0  0  0  0  0  0
    0.3882    1.7670    3.7245 H   0  0  0  0  0  0  0  0  0  0  0  0
   -1.9689    0.1350    0.8298 N   0  0  0  0  0  0  0  0  0  0  0  0
   -2.5039   -0.1183   -0.4830 C   0  0  2  0  0  0  0  0  0  0  0  0
   -1.3858   -0.6821   -1.3530 C   0  0  0  0  0  0  0  0  0  0  0  0
   -0.3457   -1.1457   -0.8900 O   0  0  0  0  0  0  0  0  0  0  0  0
   -3.1234    1.1356   -1.0916 C   0  0  0  0  0  0  0  0  0  0  0  0
   -2.1182    2.1128   -1.3364 O   0  0  0  0  0  0  0  0  0  0  0  0
   -2.5276    0.6894    1.4750 H   0  0  0  0  0  0  0  0  0  0  0  0
   -3.2768   -0.8854   -0.3583 H   0  0  0  0  0  0  0  0  0  0  0  0
   -3.8661    1.5743   -0.4175 H   0  0  0  0  0  0  0  0  0  0  0  0
   -3.6094    0.9013   -2.0447 H   0  0  0  0  0  0  0  0  0  0  0  0
   -1.4855    1.7126   -1.9537 H   0  0  0  0  0  0  0  0  0  0  0  0
   -1.7056   -0.6455   -2.7029 N   0  0  0  0  0  0  0  0  0  0  0  0
   -0.8237   -1.1498   -3.7298 C   0  0  2  0  0  0  0  0  0  0  0  0
   -0.0778   -2.3498   -3.1614 C   0  0  0  0  0  0  0  0  0  0  0  0
    0.0766   -2.5342   -1.9559 O   0  0  0  0  0  0  0  0  0  0  0  0
    0.1480   -0.0786   -4.1998 C   0  0  0  0  0  0  0  0  0  0  0  0
   -2.6079   -0.2799   -2.9925 H   0  0  0  0  0  0  0  0  0  0  0  0
   -1.4591   -1.4743   -4.5610 H   0  0  0  0  0  0  0  0  0  0  0  0
    0.7932    0.2590   -3.3805 H   0  0  0  0  0  0  0  0  0  0  0  0
    0.7967   -0.4540   -4.9981 H   0  0  0  0  0  0  0  0  0  0  0  0
   -0.3904    0.7959   -4.5808 H   0  0  0  0  0  0  0  0  0  0  0  0
    0.4324   -3.1679   -4.1597 N   0  0  0  0  0  0  0  0  0  0  0  0
    1.1906   -4.3640   -3.8759 C   0  0  0  0  0  0  0  0  0  0  0  0
    0.2397   -2.9486   -5.1326 H   0  0  0  0  0  0  0  0  0  0  0  0
    2.2635   -4.1224   -3.8551 H   0  0  0  0  0  0  0  0  0  0  0  0
    0.8867   -4.7674   -2.8987 H   0  0  0  0  0  0  0  0  0  0  0  0
    0.9988   -5.1137   -4.6577 H   0  0  0  0  0  0  0  0  0  0  0  0
  1  3  1  0  0  0  0
  1  7  1  0  0  0  0
  1  2  2  0  0  0  0
 29 30  1  0  0  0  0
 30 38  1  0  0  0  0
 30 31  2  0  0  0  0
  8  9  1  0  0  0  0
  9 17  1  0  0  0  0
  9 10  2  0  0  0  0
 18 19  1  0  0  0  0
 19 28  1  0  0  0  0
 19 20  2  0  0  0  0
 29 32  1  0  0  0  0
  8 11  1  0  0  0  0
 38 39  1  0  0  0  0
 18 21  1  0  0  0  0
 21 22  1  0  0  0  0
 28 29  1  0  0  0  0
  7  8  1  0  0  0  0
 17 18  1  0  0  0  0
  3  4  1  0  0  0  0
  3  5  1  0  0  0  0
  3  6  1  0  0  0  0
 32 35  1  0  0  0  0
 32 36  1  0  0  0  0
 32 37  1  0  0  0  0
 11 14  1  0  0  0  0
 11 15  1  0  0  0  0
 11 16  1  0  0  0  0
 39 41  1  0  0  0  0
 39 42  1  0  0  0  0
 39 43  1  0  0  0  0
 21 25  1  0  0  0  0
 21 26  1  0  0  0  0
 29 34  1  0  0  0  0
  8 13  1  0  0  0  0
 18 24  1  0  0  0  0
 38 40  1  0  0  0  0
  7 12  1  0  0  0  0
 28 33  1  0  0  0  0
 17 23  1  0  0  0  0
 22 27  1  0  0  0  0
M  END
$$$$

  -OEChem-05262214473D

 43 42  0     1  0  0  0  0  0999 V2000
    0.7424   -1.0926    4.5665 C   0  0  0  0  0  0  0  0  0  0  0  0
    0.1409   -0.5364    5.4779 O   0  0  0  0  0  0  0  0  0  0  0  0
    1.7940   -2.1023    4.8871 C   0  0  0  0  0  0  0  0  0  0  0  0
    2.7935   -1.6502    4.9904 H   0  0  0  0  0  0  0  0  0  0  0  0
    1.6064   -2.6156    5.8438 H   0  0  0  0  0  0  0  0  0  0  0  0
    1.9156   -2.9078    4.1453 H   0  0  0  0  0  0  0  0  0  0  0  0
    0.5488   -0.8838    3.2109 N   0  0  0  0  0  0  0  0  0  0  0  0
   -0.4159    0.0446    2.6829 C   0  0  2  0  0  0  0  0  0  0  0  0
   -0.7551   -0.3867    1.2623 C   0  0  0  0  0  0  0  0  0  0  0  0
   -0.0106   -1.0851    0.5774 O   0  0  0  0  0  0  0  0  0  0  0  0
    0.1168    1.4689    2.7060 C   0  0  0  0  0  0  0  0  0  0  0  0
    1.1183   -1.4145    2.5542 H   0  0  0  0  0  0  0  0  0  0  0  0
   -1.3088   -0.0350    3.3125 H   0  0  0  0  0  0  0  0  0  0  0  0
    1.0116    1.5681    2.0808 H   0  0  0  0  0  0  0  0  0  0  0  0
   -0.6289    2.1775    2.3307 H   0  0  0  0  0  0  0  0  0  0  0  0
    0.3882    1.7670    3.7245 H   0  0  0  0  0  0  0  0  0  0  0  0
   -1.9689    0.1350    0.8298 N   0  0  0  0  0  0  0  0  0  0  0  0
   -2.5039   -0.1183   -0.4830 C   0  0  2  0  0  0  0  0  0  0  0  0
   -1.3858   -0.6821   -1.3530 C   0  0  0  0  0  0  0  0  0  0  0  0
   -0.4771   -1.3798   -0.9072 O   0  0  0  0  0  0  0  0  0  0  0  0
   -3.1234    1.1356   -1.0916 C   0  0  0  0  0  0  0  0  0  0  0  0
   -2.1182    2.1128   -1.3364 O   0  0  0  0  0  0  0  0  0  0  0  0
   -2.5276    0.6894    1.4750 H   0  0  0  0  0  0  0  0  0  0  0  0
   -3.2768   -0.8854   -0.3583 H   0  0  0  0  0  0  0  0  0  0  0  0
   -3.8661    1.5743   -0.4175 H   0  0  0  0  0  0  0  0  0  0  0  0
   -3.6094    0.9013   -2.0447 H   0  0  0  0  0  0  0  0  0  0  0  0
   -1.4855    1.7126   -1.9537 H   0  0  0  0  0  0  0  0  0  0  0  0
   -1.5470   -0.3499   -2.6907 N   0  0  0  0  0  0  0  0  0  0  0  0
   -0.6360   -0.7903   -3.7215 C   0  0  2  0  0  0  0  0  0  0  0  0
   -0.1304   -2.1758   -3.3418 C   0  0  0  0  0  0  0  0  0  0  0  0
   -0.1365   -2.5991   -2.1877 O   0  0  0  0  0  0  0  0  0  0  0  0
    0.5204    0.1828   -3.8905 C   0  0  0  0  0  0  0  0  0  0  0  0
   -2.3527    0.1994   -2.9751 H   0  0  0  0  0  0  0  0  0  0  0  0
   -1.2149   -0.8537   -4.6493 H   0  0  0  0  0  0  0  0  0  0  0  0
    1.1121    0.2596   -2.9710 H   0  0  0  0  0  0  0  0  0  0  0  0
    1.1947   -0.1376   -4.6916 H   0  0  0  0  0  0  0  0  0  0  0  0
    0.1534    1.1856   -4.1344 H   0  0  0  0  0  0  0  0  0  0  0  0
    0.3682   -2.8676   -4.4367 N   0  0  0  0  0  0  0  0  0  0  0  0
    0.9176   -4.1993   -4.3334 C   0  0  0  0  0  0  0  0  0  0  0  0
    0.3159   -2.4469   -5.3598 H   0  0  0  0  0  0  0  0  0  0  0  0
    2.0048   -4.1370   -4.1780 H   0  0  0  0  0  0  0  0  0  0  0  0
    0.4552   -4.7216   -3.4828 H   0  0  0  0  0  0  0  0  0  0  0  0
    0.7111   -4.7541   -5.2605 H   0  0  0  0  0  0  0  0  0  0  0  0
  1  3  1  0  0  0  0
  1  7  1  0  0  0  0
  1  2  2  0  0  0  0
 29 30  1  0  0  0  0
 30 38  1  0  0  0  0
 30 31  2  0  0  0  0
  8  9  1  0  0  0  0
  9 17  1  0  0  0  0
  9 10  2  0  0  0  0
 18 19  1  0  0  0  0
 19 28  1  0  0  0  0
 19 20  2  0  0  0  0
 29 32  1  0  0  0  0
  8 11  1  0  0  0  0
 38 39  1  0  0  0  0
 18 21  1  0  0  0  0
 21 22  1  0  0  0  0
 28 29  1  0  0  0  0
  7  8  1  0  0  0  0
 17 18  1  0  0  0  0
  3  4  1  0  0  0  0
  3  5  1  0  0  0  0
  3  6  1  0  0  0  0
 32 35  1  0  0  0  0
 32 36  1  0  0  0  0
 32 37  1  0  0  0  0
 11 14  1  0  0  0  0
 11 15  1  0  0  0  0
 11 16  1  0  0  0  0
 39 41  1  0  0  0  0
 39 42  1  0  0  0  0
 39 43  1  0  0  0  0
 21 25  1  0  0  0  0
 21 26  1  0  0  0  0
 29 34  1  0  0  0  0
  8 13  1  0  0  0  0
 18 24  1  0  0  0  0
 38 40  1  0  0  0  0
  7 12  1  0  0  0  0
 28 33  1  0  0  0  0
 17 23  1  0  0  0  0
 22 27  1  0  0  0  0
M  END
$$$$

  -OEChem-05262214473D

 43 42  0     1  0  0  0  0  0999 V2000
    0.7424   -1.0926    4.5665 C   0  0  0  0  0  0  0  0  0  0  0  0
    0.1409   -0.5364    5.4779 O   0  0  0  0  0  0  0  0  0  0  0  0
    1.7940   -2.1023    4.8871 C   0  0  0  0  0  0  0  0  0  0  0  0
    2.7935   -1.6502    4.9904 H   0  0  0  0  0  0  0  0  0  0  0  0
    1.6064   -2.6156    5.8438 H   0  0  0  0  0  0  0  0  0  0  0  0
    1.9156   -2.9078    4.1453 H   0  0  0  0  0  0  0  0  0  0  0  0
    0.5488   -0.8838    3.2109 N   0  0  0  0  0  0  0  0  0  0  0  0
   -0.4159    0.0446    2.6829 C   0  0  2  0  0  0  0  0  0  0  0  0
   -0.7551   -0.3867    1.2623 C   0  0  0  0  0  0  0  0  0  0  0  0
   -0.0106   -1.0851    0.5774 O   0  0  0  0  0  0  0  0  0  0  0  0
    0.1168    1.4689    2.7060 C   0  0  0  0  0  0  0  0  0  0  0  0
    1.1183   -1.4145    2.5542 H   0  0  0  0  0  0  0  0  0  0  0  0
   -1.3088   -0.0350    3.3125 H   0  0  0  0  0  0  0  0  0  0  0  0
    1.0116    1.5681    2.0808 H   0  0  0  0  0  0  0  0  0  0  0  0
   -0.6289    2.1775    2.3307 H   0  0  0  0  0  0  0  0  0  0  0  0
    0.3882    1.7670    3.7245 H   0  0  0  0  0  0  0  0  0  0  0  0
   -1.9689    0.1350    0.8298 N   0  0  0  0  0  0  0  0  0  0  0  0
   -2.5039   -0.1183   -0.4830 C   0  0  2  0  0  0  0  0  0  0  0  0
   -1.3858   -0.6821   -1.3530 C   0  0  0  0  0  0  0  0  0  0  0  0
   -0.6370   -1.5832   -0.9809 O   0  0  0  0  0  0  0  0  0  0  0  0
   -3.1234    1.1356   -1.0916 C   0  0  0  0  0  0  0  0  0  0  0  0
   -2.1182    2.1128   -1.3364 O   0  0  0  0  0  0  0  0  0  0  0  0
   -2.5276    0.6894    1.4750 H   0  0  0  0  0  0  0  0  0  0  0  0
   -3.2768   -0.8854   -0.3583 H   0  0  0  0  0  0  0  0  0  0  0  0
   -3.8661    1.5743   -0.4175 H   0  0  0  0  0  0  0  0  0  0  0  0
   -3.6094    0.9013   -2.0447 H   0  0  0  0  0  0  0  0  0  0  0  0
   -1.4855    1.7126   -1.9537 H   0  0  0  0  0  0  0  0  0  0  0  0
   -1.3514   -0.0901   -2.6077 N   0  0  0  0  0  0  0  0  0  0  0  0
   -0.4023   -0.4723   -3.6273 C   0  0  2  0  0  0  0  0  0  0  0  0
   -0.1383   -1.9657   -3.4881 C   0  0  0  0  0  0  0  0  0  0  0  0
   -0.3298   -2.5863   -2.4444 O   0  0  0  0  0  0  0  0  0  0  0  0
    0.8891    0.3216   -3.5066 C   0  0  0  0  0  0  0  0  0  0  0  0
   -2.0371    0.6213   -2.8430 H   0  0  0  0  0  0  0  0  0  0  0  0
   -0.8789   -0.2736   -4.5934 H   0  0  0  0  0  0  0  0  0  0  0  0
    1.3810    0.1354   -2.5449 H   0  0  0  0  0  0  0  0  0  0  0  0
    1.5966    0.0511   -4.2975 H   0  0  0  0  0  0  0  0  0  0  0  0
    0.6936    1.3970   -3.5772 H   0  0  0  0  0  0  0  0  0  0  0  0
    0.3771   -2.5155   -4.6535 N   0  0  0  0  0  0  0  0  0  0  0  0
    0.7221   -3.9131   -4.7701 C   0  0  0  0  0  0  0  0  0  0  0  0
    0.4853   -1.9304   -5.4767 H   0  0  0  0  0  0  0  0  0  0  0  0
    1.7838   -4.0516   -4.5175 H   0  0  0  0  0  0  0  0  0  0  0  0
    0.1012   -4.5028   -4.0796 H   0  0  0  0  0  0  0  0  0  0  0  0
    0.5439   -4.2498   -5.8020 H   0  0  0  0  0  0  0  0  0  0  0  0
  1  3  1  0  0  0  0
  1  7  1  0  0  0  0
  1  2  2  0  0  0  0
 29 30  1  0  0  0  0
 30 38  1  0  0  0  0
 30 31  2  0  0  0  0
  8  9  1  0  0  0  0
  9 17  1  0  0  0  0
  9 10  2  0  0  0  0
 18 19  1  0  0  0  0
 19 28  1  0  0  0  0
 19 20  2  0  0  0  0
 29 32  1  0  0  0  0
  8 11  1  0  0  0  0
 38 39  1  0  0  0  0
 18 21  1  0  0  0  0
 21 22  1  0  0  0  0
 28 29  1  0  0  0  0
  7  8  1  0  0  0  0
 17 18  1  0  0  0  0
  3  4  1  0  0  0  0
  3  5  1  0  0  0  0
  3  6  1  0  0  0  0
 32 35  1  0  0  0  0
 32 36  1  0  0  0  0
 32 37  1  0  0  0  0
 11 14  1  0  0  0  0
 11 15  1  0  0  0  0
 11 16  1  0  0  0  0
 39 41  1  0  0  0  0
 39 42  1  0  0  0  0
 39 43  1  0  0  0  0
 21 25  1  0  0  0  0
 21 26  1  0  0  0  0
 29 34  1  0  0  0  0
  8 13  1  0  0  0  0
 18 24  1  0  0  0  0
 38 40  1  0  0  0  0
  7 12  1  0  0  0  0
 28 33  1  0  0  0  0
 17 23  1  0  0  0  0
 22 27  1  0  0  0  0
M  END
$$$$

  -OEChem-05262214473D

 43 42  0     1  0  0  0  0  0999 V2000
    0.7424   -1.0926    4.5665 C   0  0  0  0  0  0  0  0  0  0  0  0
    0.1409   -0.5364    5.4779 O   0  0  0  0  0  0  0  0  0  0  0  0
    1.7940   -2.1023    4.8871 C   0  0  0  0  0  0  0  0  0  0  0  0
    2.7935   -1.6502    4.9904 H   0  0  0  0  0  0  0  0  0  0  0  0
    1.6064   -2.6156    5.8438 H   0  0  0  0  0  0  0  0  0  0  0  0
    1.9156   -2.9078    4.1453 H   0  0  0  0  0  0  0  0  0  0  0  0
    0.5488   -0.8838    3.2109 N   0  0  0  0  0  0  0  0  0  0  0  0
   -0.4159    0.0446    2.6829 C   0  0  2  0  0  0  0  0  0  0  0  0
   -0.7551   -0.3867    1.2623 C   0  0  0  0  0  0  0  0  0  0  0  0
   -0.0106   -1.0851    0.5774 O   0  0  0  0  0  0  0  0  0  0  0  0
    0.1168    1.4689    2.7060 C   0  0  0  0  0  0  0  0  0  0  0  0
    1.1183   -1.4145    2.5542 H   0  0  0  0  0  0  0  0  0  0  0  0
   -1.3088   -0.0350    3.3125 H   0  0  0  0  0  0  0  0  0  0  0  0
    1.0116    1.5681    2.0808 H   0  0  0  0  0  0  0  0  0  0  0  0
   -0.6289    2.1775    2.3307 H   0  0  0  0  0  0  0  0  0  0  0  0
    0.3882    1.7670    3.7245 H   0  0  0  0  0  0  0  0  0  0  0  0
   -1.9689    0.1350    0.8298 N   0  0  0  0  0  0  0  0  0  0  0  0
   -2.5039   -0.1183   -0.4830 C   0  0  2  0  0  0  0  0  0  0  0  0
   -1.3858   -0.6821   -1.3530 C   0  0  0  0  0  0  0  0  0  0  0  0
   -0.8145   -1.7422   -1.1060 O   0  0  0  0  0  0  0  0  0  0  0  0
   -3.1234    1.1356   -1.0916 C   0  0  0  0  0  0  0  0  0  0  0  0
   -2.1182    2.1128   -1.3364 O   0  0  0  0  0  0  0  0  0  0  0  0
   -2.5276    0.6894    1.4750 H   0  0  0  0  0  0  0  0  0  0  0  0
   -3.2768   -0.8854   -0.3583 H   0  0  0  0  0  0  0  0  0  0  0  0
   -3.8661    1.5743   -0.4175 H   0  0  0  0  0  0  0  0  0  0  0  0
   -3.6094    0.9013   -2.0447 H   0  0  0  0  0  0  0  0  0  0  0  0
   -1.4855    1.7126   -1.9537 H   0  0  0  0  0  0  0  0  0  0  0  0
   -1.1321    0.1162   -2.4594 N   0  0  0  0  0  0  0  0  0  0  0  0
   -0.1387   -0.2175   -3.4536 C   0  0  2  0  0  0  0  0  0  0  0  0
   -0.1009   -1.7339   -3.5903 C   0  0  0  0  0  0  0  0  0  0  0  0
   -0.4900   -2.4967   -2.7084 O   0  0  0  0  0  0  0  0  0  0  0  0
    1.2291    0.3283   -3.0742 C   0  0  0  0  0  0  0  0  0  0  0  0
   -1.6825    0.9573   -2.6050 H   0  0  0  0  0  0  0  0  0  0  0  0
   -0.4741    0.2265   -4.3972 H   0  0  0  0  0  0  0  0  0  0  0  0
    1.5817   -0.1052   -2.1312 H   0  0  0  0  0  0  0  0  0  0  0  0
    1.9748    0.0992   -3.8425 H   0  0  0  0  0  0  0  0  0  0  0  0
    1.1932    1.4157   -2.9472 H   0  0  0  0  0  0  0  0  0  0  0  0
    0.4584   -2.1355   -4.7952 N   0  0  0  0  0  0  0  0  0  0  0  0
    0.6173   -3.5249   -5.1563 C   0  0  0  0  0  0  0  0  0  0  0  0
    0.7365   -1.4343   -5.4755 H   0  0  0  0  0  0  0  0  0  0  0  0
    1.6153   -3.8720   -4.8504 H   0  0  0  0  0  0  0  0  0  0  0  0
   -0.1514   -4.1258   -4.6484 H   0  0  0  0  0  0  0  0  0  0  0  0
    0.5088   -3.6353   -6.2454 H   0  0  0  0  0  0  0  0  0  0  0  0
  1  3  1  0  0  0  0
  1  7  1  0  0  0  0
  1  2  2  0  0  0  0
 29 30  1  0  0  0  0
 30 38  1  0  0  0  0
 30 31  2  0  0  0  0
  8  9  1  0  0  0  0
  9 17  1  0  0  0  0
  9 10  2  0  0  0  0
 18 19  1  0  0  0  0
 19 28  1  0  0  0  0
 19 20  2  0  0  0  0
 29 32  1  0  0  0  0
  8 11  1  0  0  0  0
 38 39  1  0  0  0  0
 18 21  1  0  0  0  0
 21 22  1  0  0  0  0
 28 29  1  0  0  0  0
  7  8  1  0  0  0  0
 17 18  1  0  0  0  0
  3  4  1  0  0  0  0
  3  5  1  0  0  0  0
  3  6  1  0  0  0  0
 32 35  1  0  0  0  0
 32 36  1  0  0  0  0
 32 37  1  0  0  0  0
 11 14  1  0  0  0  0
 11 15  1  0  0  0  0
 11 16  1  0  0  0  0
 39 41  1  0  0  0  0
 39 42  1  0  0  0  0
 39 43  1  0  0  0  0
 21 25  1  0  0  0  0
 21 26  1  0  0  0  0
 29 34  1  0  0  0  0
  8 13  1  0  0  0  0
 18 24  1  0  0  0  0
 38 40  1  0  0  0  0
  7 12  1  0  0  0  0
 28 33  1  0  0  0  0
 17 23  1  0  0  0  0
 22 27  1  0  0  0  0
M  END
$$$$

  -OEChem-05262214473D

 43 42  0     1  0  0  0  0  0999 V2000
    0.7424   -1.0926    4.5665 C   0  0  0  0  0  0  0  0  0  0  0  0
    0.1409   -0.5364    5.4779 O   0  0  0  0  0  0  0  0  0  0  0  0
    1.7940   -2.1023    4.8871 C   0  0  0  0  0  0  0  0  0  0  0  0
    2.7935   -1.6502    4.9904 H   0  0  0  0  0  0  0  0  0  0  0  0
    1.6064   -2.6156    5.8438 H   0  0  0  0  0  0  0  0  0  0  0  0
    1.9156   -2.9078    4.1453 H   0  0  0  0  0  0  0  0  0  0  0  0
    0.5488   -0.8838    3.2109 N   0  0  0  0  0  0  0  0  0  0  0  0
   -0.4159    0.0446    2.6829 C   0  0  2  0  0  0  0  0  0  0  0  0
   -0.7551   -0.3867    1.2623 C   0  0  0  0  0  0  0  0  0  0  0  0
   -0.0106   -1.0851    0.5774 O   0  0  0  0  0  0  0  0  0  0  0  0
    0.1168    1.4689    2.7060 C   0  0  0  0  0  0  0  0  0  0  0  0
    1.1183   -1.4145    2.5542 H   0  0  0  0  0  0  0  0  0  0  0  0
   -1.3088   -0.0350    3.3125 H   0  0  0  0  0  0  0  0  0  0  0  0
    1.0116    1.5681    2.0808 H   0  0  0  0  0  0  0  0  0  0  0  0
   -0.6289    2.1775    2.3307 H   0  0  0  0  0  0  0  0  0  0  0  0
    0.3882    1.7670    3.7245 H   0  0  0  0  0  0  0  0  0  0  0  0
   -1.9689    0.1350    0.8298 N   0  0  0  0  0  0  0  0  0  0  0  0
   -2.5039   -0.1183   -0.4830 C   0  0  2  0  0  0  0  0  0  0  0  0
   -1.3858   -0.6821   -1.3530 C   0  0  0  0  0  0  0  0  0  0  0  0
   -0.9974   -1.8457   -1.2740 O   0  0  0  0  0  0  0  0  0  0  0  0
   -3.1234    1.1356   -1.0916 C   0  0  0  0  0  0  0  0  0  0  0  0
   -2.1182    2.1128   -1.3364 O   0  0  0  0  0  0  0  0  0  0  0  0
   -2.5276    0.6894    1.4750 H   0  0  0  0  0  0  0  0  0  0  0  0
   -3.2768   -0.8854   -0.3583 H   0  0  0  0  0  0  0  0  0  0  0  0
   -3.8661    1.5743   -0.4175 H   0  0  0  0  0  0  0  0  0  0  0  0
   -3.6094    0.9013   -2.0447 H   0  0  0  0  0  0  0  0  0  0  0  0
   -1.4855    1.7126   -1.9537 H   0  0  0  0  0  0  0  0  0  0  0  0
   -0.9039    0.2549   -2.2561 N   0  0  0  0  0  0  0  0  0  0  0  0
    0.1370   -0.0433   -3.2123 C   0  0  2  0  0  0  0  0  0  0  0  0
   -0.0207   -1.4960   -3.6414 C   0  0  0  0  0  0  0  0  0  0  0  0
   -0.6063   -2.3364   -2.9617 O   0  0  0  0  0  0  0  0  0  0  0  0
    1.5170    0.2026   -2.6226 C   0  0  0  0  0  0  0  0  0  0  0  0
   -1.3132    1.1842   -2.2775 H   0  0  0  0  0  0  0  0  0  0  0  0
   -0.0279    0.6126   -4.0740 H   0  0  0  0  0  0  0  0  0  0  0  0
    1.7004   -0.4457   -1.7580 H   0  0  0  0  0  0  0  0  0  0  0  0
    2.3038    0.0035   -3.3577 H   0  0  0  0  0  0  0  0  0  0  0  0
    1.6183    1.2404   -2.2873 H   0  0  0  0  0  0  0  0  0  0  0  0
    0.6067   -1.7536   -4.8522 N   0  0  0  0  0  0  0  0  0  0  0  0
    0.6104   -3.0611   -5.4658 C   0  0  0  0  0  0  0  0  0  0  0  0
    1.0522   -0.9924   -5.3560 H   0  0  0  0  0  0  0  0  0  0  0  0
    1.5110   -3.6104   -5.1539 H   0  0  0  0  0  0  0  0  0  0  0  0
   -0.2852   -3.6165   -5.1505 H   0  0  0  0  0  0  0  0  0  0  0  0
    0.6081   -2.9524   -6.5604 H   0  0  0  0  0  0  0  0  0  0  0  0
  1  3  1  0  0  0  0
  1  7  1  0  0  0  0
  1  2  2  0  0  0  0
 29 30  1  0  0  0  0
 30 38  1  0  0  0  0
 30 31  2  0  0  0  0
  8  9  1  0  0  0  0
  9 17  1  0  0  0  0
  9 10  2  0  0  0  0
 18 19  1  0  0  0  0
 19 28  1  0  0  0  0
 19 20  2  0  0  0  0
 29 32  1  0  0  0  0
  8 11  1  0  0  0  0
 38 39  1  0  0  0  0
 18 21  1  0  0  0  0
 21 22  1  0  0  0  0
 28 29  1  0  0  0  0
  7  8  1  0  0  0  0
 17 18  1  0  0  0  0
  3  4  1  0  0  0  0
  3  5  1  0  0  0  0
  3  6  1  0  0  0  0
 32 35  1  0  0  0  0
 32 36  1  0  0  0  0
 32 37  1  0  0  0  0
 11 14  1  0  0  0  0
 11 15  1  0  0  0  0
 11 16  1  0  0  0  0
 39 41  1  0  0  0  0
 39 42  1  0  0  0  0
 39 43  1  0  0  0  0
 21 25  1  0  0  0  0
 21 26  1  0  0  0  0
 29 34  1  0  0  0  0
  8 13  1  0  0  0  0
 18 24  1  0  0  0  0
 38 40  1  0  0  0  0
  7 12  1  0  0  0  0
 28 33  1  0  0  0  0
 17 23  1  0  0  0  0
 22 27  1  0  0  0  0
M  END
$$$$

  -OEChem-05262214473D

 43 42  0     1  0  0  0  0  0999 V2000
    0.7424   -1.0926    4.5665 C   0  0  0  0  0  0  0  0  0  0  0  0
    0.1409   -0.5364    5.4779 O   0  0  0  0  0  0  0  0  0  0  0  0
    1.7940   -2.1023    4.8871 C   0  0  0  0  0  0  0  0  0  0  0  0
    2.7935   -1.6502    4.9904 H   0  0  0  0  0  0  0  0  0  0  0  0
    1.6064   -2.6156    5.8438 H   0  0  0  0  0  0  0  0  0  0  0  0
    1.9156   -2.9078    4.1453 H   0  0  0  0  0  0  0  0  0  0  0  0
    0.5488   -0.8838    3.2109 N   0  0  0  0  0  0  0  0  0  0  0  0
   -0.4159    0.0446    2.6829 C   0  0  2  0  0  0  0  0  0  0  0  0
   -0.7551   -0.3867    1.2623 C   0  0  0  0  0  0  0  0  0  0  0  0
   -0.0106   -1.0851    0.5774 O   0  0  0  0  0  0  0  0  0  0  0  0
    0.1168    1.4689    2.7060 C   0  0  0  0  0  0  0  0  0  0  0  0
    1.1183   -1.4145    2.5542 H   0  0  0  0  0  0  0  0  0  0  0  0
   -1.3088   -0.0350    3.3125 H   0  0  0  0  0  0  0  0  0  0  0  0
    1.0116    1.5681    2.0808 H   0  0  0  0  0  0  0  0  0  0  0  0
   -0.6289    2.1775    2.3307 H   0  0  0  0  0  0  0  0  0  0  0  0
    0.3882    1.7670    3.7245 H   0  0  0  0  0  0  0  0  0  0  0  0
   -1.9689    0.1350    0.8298 N   0  0  0  0  0  0  0  0  0  0  0  0
   -2.5039   -0.1183   -0.4830 C   0  0  2  0  0  0  0  0  0  0  0  0
   -1.3858   -0.6821   -1.3530 C   0  0  0  0  0  0  0  0  0  0  0  0
   -1.1733   -1.8869   -1.4734 O   0  0  0  0  0  0  0  0  0  0  0  0
   -3.1234    1.1356   -1.0916 C   0  0  0  0  0  0  0  0  0  0  0  0
   -2.1182    2.1128   -1.3364 O   0  0  0  0  0  0  0  0  0  0  0  0
   -2.5276    0.6894    1.4750 H   0  0  0  0  0  0  0  0  0  0  0  0
   -3.2768   -0.8854   -0.3583 H   0  0  0  0  0  0  0  0  0  0  0  0
   -3.8661    1.5743   -0.4175 H   0  0  0  0  0  0  0  0  0  0  0  0
   -3.6094    0.9013   -2.0447 H   0  0  0  0  0  0  0  0  0  0  0  0
   -1.4855    1.7126   -1.9537 H   0  0  0  0  0  0  0  0  0  0  0  0
   -0.6825    0.3166   -2.0115 N   0  0  0  0  0  0  0  0  0  0  0  0
    0.4058    0.0385   -2.9197 C   0  0  2  0  0  0  0  0  0  0  0  0
    0.0967   -1.2684   -3.6379 C   0  0  0  0  0  0  0  0  0  0  0  0
   -0.6708   -2.1163   -3.1872 O   0  0  0  0  0  0  0  0  0  0  0  0
    1.7334   -0.0471   -2.1828 C   0  0  0  0  0  0  0  0  0  0  0  0
   -0.9544    1.2867   -1.8827 H   0  0  0  0  0  0  0  0  0  0  0  0
    0.4291    0.8583   -3.6459 H   0  0  0  0  0  0  0  0  0  0  0  0
    1.7290   -0.8630   -1.4507 H   0  0  0  0  0  0  0  0  0  0  0  0
    2.5610   -0.2296   -2.8761 H   0  0  0  0  0  0  0  0  0  0  0  0
    1.9399    0.8831   -1.6425 H   0  0  0  0  0  0  0  0  0  0  0  0
    0.8117   -1.3958   -4.8206 N   0  0  0  0  0  0  0  0  0  0  0  0
    0.7018   -2.5534   -5.6773 C   0  0  0  0  0  0  0  0  0  0  0  0
    1.4110   -0.6349   -5.1266 H   0  0  0  0  0  0  0  0  0  0  0  0
    1.4779   -3.2848   -5.4075 H   0  0  0  0  0  0  0  0  0  0  0  0
   -0.2912   -3.0095   -5.5516 H   0  0  0  0  0  0  0  0  0  0  0  0
    0.8349   -2.2476   -6.7255 H   0  0  0  0  0  0  0  0  0  0  0  0
  1  3  1  0  0  0  0
  1  7  1  0  0  0  0
  1  2  2  0  0  0  0
 29 30  1  0  0  0  0
 30 38  1  0  0  0  0
 30 31  2  0  0  0  0
  8  9  1  0  0  0  0
  9 17  1  0  0  0  0
  9 10  2  0  0  0  0
 18 19  1  0  0  0  0
 19 28  1  0  0  0  0
 19 20  2  0  0  0  0
 29 32  1  0  0  0  0
  8 11  1  0  0  0  0
 38 39  1  0  0  0  0
 18 21  1  0  0  0  0
 21 22  1  0  0  0  0
 28 29  1  0  0  0  0
  7  8  1  0  0  0  0
 17 18  1  0  0  0  0
  3  4  1  0  0  0  0
  3  5  1  0  0  0  0
  3  6  1  0  0  0  0
 32 35  1  0  0  0  0
 32 36  1  0  0  0  0
 32 37  1  0  0  0  0
 11 14  1  0  0  0  0
 11 15  1  0  0  0  0
 11 16  1  0  0  0  0
 39 41  1  0  0  0  0
 39 42  1  0  0  0  0
 39 43  1  0  0  0  0
 21 25  1  0  0  0  0
 21 26  1  0  0  0  0
 29 34  1  0  0  0  0
  8 13  1  0  0  0  0
 18 24  1  0  0  0  0
 38 40  1  0  0  0  0
  7 12  1  0  0  0  0
 28 33  1  0  0  0  0
 17 23  1  0  0  0  0
 22 27  1  0  0  0  0
M  END
$$$$

  -OEChem-05262214473D

 43 42  0     1  0  0  0  0  0999 V2000
    0.7424   -1.0926    4.5665 C   0  0  0  0  0  0  0  0  0  0  0  0
    0.1409   -0.5364    5.4779 O   0  0  0  0  0  0  0  0  0  0  0  0
    1.7940   -2.1023    4.8871 C   0  0  0  0  0  0  0  0  0  0  0  0
    2.7935   -1.6502    4.9904 H   0  0  0  0  0  0  0  0  0  0  0  0
    1.6064   -2.6156    5.8438 H   0  0  0  0  0  0  0  0  0  0  0  0
    1.9156   -2.9078    4.1453 H   0  0  0  0  0  0  0  0  0  0  0  0
    0.5488   -0.8838    3.2109 N   0  0  0  0  0  0  0  0  0  0  0  0
   -0.4159    0.0446    2.6829 C   0  0  2  0  0  0  0  0  0  0  0  0
   -0.7551   -0.3867    1.2623 C   0  0  0  0  0  0  0  0  0  0  0  0
   -0.0106   -1.0851    0.5774 O   0  0  0  0  0  0  0  0  0  0  0  0
    0.1168    1.4689    2.7060 C   0  0  0  0  0  0  0  0  0  0  0  0
    1.1183   -1.4145    2.5542 H   0  0  0  0  0  0  0  0  0  0  0  0
   -1.3088   -0.0350    3.3125 H   0  0  0  0  0  0  0  0  0  0  0  0
    1.0116    1.5681    2.0808 H   0  0  0  0  0  0  0  0  0  0  0  0
   -0.6289    2.1775    2.3307 H   0  0  0  0  0  0  0  0  0  0  0  0
    0.3882    1.7670    3.7245 H   0  0  0  0  0  0  0  0  0  0  0  0
   -1.9689    0.1350    0.8298 N   0  0  0  0  0  0  0  0  0  0  0  0
   -2.5039   -0.1183   -0.4830 C   0  0  2  0  0  0  0  0  0  0  0  0
   -1.3858   -0.6821   -1.3530 C   0  0  0  0  0  0  0  0  0  0  0  0
   -1.3302   -1.8628   -1.6906 O   0  0  0  0  0  0  0  0  0  0  0  0
   -3.1234    1.1356   -1.0916 C   0  0  0  0  0  0  0  0  0  0  0  0
   -2.1182    2.1128   -1.3364 O   0  0  0  0  0  0  0  0  0  0  0  0
   -2.5276    0.6894    1.4750 H   0  0  0  0  0  0  0  0  0  0  0  0
   -3.2768   -0.8854   -0.3583 H   0  0  0  0  0  0  0  0  0  0  0  0
   -3.8661    1.5743   -0.4175 H   0  0  0  0  0  0  0  0  0  0  0  0
   -3.6094    0.9013   -2.0447 H   0  0  0  0  0  0  0  0  0  0  0  0
   -1.4855    1.7126   -1.9537 H   0  0  0  0  0  0  0  0  0  0  0  0
   -0.4829    0.2971   -1.7424 N   0  0  0  0  0  0  0  0  0  0  0  0
    0.6496    0.0222   -2.5958 C   0  0  2  0  0  0  0  0  0  0  0  0
    0.2434   -1.0666   -3.5802 C   0  0  0  0  0  0  0  0  0  0  0  0
   -0.6789   -1.8514   -3.3693 O   0  0  0  0  0  0  0  0  0  0  0  0
    1.8634   -0.4037   -1.7846 C   0  0  0  0  0  0  0  0  0  0  0  0
   -0.6304    1.2578   -1.4476 H   0  0  0  0  0  0  0  0  0  0  0  0
    0.8659    0.9469   -3.1420 H   0  0  0  0  0  0  0  0  0  0  0  0
    1.6656   -1.3286   -1.2305 H   0  0  0  0  0  0  0  0  0  0  0  0
    2.7290   -0.5841   -2.4305 H   0  0  0  0  0  0  0  0  0  0  0  0
    2.1360    0.3680   -1.0567 H   0  0  0  0  0  0  0  0  0  0  0  0
    1.0596   -1.0864   -4.7025 N   0  0  0  0  0  0  0  0  0  0  0  0
    0.8854   -2.0363   -5.7765 C   0  0  0  0  0  0  0  0  0  0  0  0
    1.7884   -0.3861   -4.8028 H   0  0  0  0  0  0  0  0  0  0  0  0
    1.5183   -2.9173   -5.5938 H   0  0  0  0  0  0  0  0  0  0  0  0
   -0.1690   -2.3461   -5.8244 H   0  0  0  0  0  0  0  0  0  0  0  0
    1.1740   -1.5690   -6.7296 H   0  0  0  0  0  0  0  0  0  0  0  0
  1  3  1  0  0  0  0
  1  7  1  0  0  0  0
  1  2  2  0  0  0  0
 29 30  1  0  0  0  0
 30 38  1  0  0  0  0
 30 31  2  0  0  0  0
  8  9  1  0  0  0  0
  9 17  1  0  0  0  0
  9 10  2  0  0  0  0
 18 19  1  0  0  0  0
 19 28  1  0  0  0  0
 19 20  2  0  0  0  0
 29 32  1  0  0  0  0
  8 11  1  0  0  0  0
 38 39  1  0  0  0  0
 18 21  1  0  0  0  0
 21 22  1  0  0  0  0
 28 29  1  0  0  0  0
  7  8  1  0  0  0  0
 17 18  1  0  0  0  0
  3  4  1  0  0  0  0
  3  5  1  0  0  0  0
  3  6  1  0  0  0  0
 32 35  1  0  0  0  0
 32 36  1  0  0  0  0
 32 37  1  0  0  0  0
 11 14  1  0  0  0  0
 11 15  1  0  0  0  0
 11 16  1  0  0  0  0
 39 41  1  0  0  0  0
 39 42  1  0  0  0  0
 39 43  1  0  0  0  0
 21 25  1  0  0  0  0
 21 26  1  0  0  0  0
 29 34  1  0  0  0  0
  8 13  1  0  0  0  0
 18 24  1  0  0  0  0
 38 40  1  0  0  0  0
  7 12  1  0  0  0  0
 28 33  1  0  0  0  0
 17 23  1  0  0  0  0
 22 27  1  0  0  0  0
M  END
$$$$

  -OEChem-05262214473D

 43 42  0     1  0  0  0  0  0999 V2000
    0.7424   -1.0926    4.5665 C   0  0  0  0  0  0  0  0  0  0  0  0
    0.1409   -0.5364    5.4779 O   0  0  0  0  0  0  0  0  0  0  0  0
    1.7940   -2.1023    4.8871 C   0  0  0  0  0  0  0  0  0  0  0  0
    2.7935   -1.6502    4.9904 H   0  0  0  0  0  0  0  0  0  0  0  0
    1.6064   -2.6156    5.8438 H   0  0  0  0  0  0  0  0  0  0  0  0
    1.9156   -2.9078    4.1453 H   0  0  0  0  0  0  0  0  0  0  0  0
    0.5488   -0.8838    3.2109 N   0  0  0  0  0  0  0  0  0  0  0  0
   -0.4159    0.0446    2.6829 C   0  0  2  0  0  0  0  0  0  0  0  0
   -0.7551   -0.3867    1.2623 C   0  0  0  0  0  0  0  0  0  0  0  0
   -0.0106   -1.0851    0.5774 O   0  0  0  0  0  0  0  0  0  0  0  0
    0.1168    1.4689    2.7060 C   0  0  0  0  0  0  0  0  0  0  0  0
    1.1183   -1.4145    2.5542 H   0  0  0  0  0  0  0  0  0  0  0  0
   -1.3088   -0.0350    3.3125 H   0  0  0  0  0  0  0  0  0  0  0  0
    1.0116    1.5681    2.0808 H   0  0  0  0  0  0  0  0  0  0  0  0
   -0.6289    2.1775    2.3307 H   0  0  0  0  0  0  0  0  0  0  0  0
    0.3882    1.7670    3.7245 H   0  0  0  0  0  0  0  0  0  0  0  0
   -1.9689    0.1350    0.8298 N   0  0  0  0  0  0  0  0  0  0  0  0
   -2.5039   -0.1183   -0.4830 C   0  0  2  0  0  0  0  0  0  0  0  0
   -1.3858   -0.6821   -1.3530 C   0  0  0  0  0  0  0  0  0  0  0  0
   -1.4575   -1.7752   -1.9109 O   0  0  0  0  0  0  0  0  0  0  0  0
   -3.1234    1.1356   -1.0916 C   0  0  0  0  0  0  0  0  0  0  0  0
   -2.1182    2.1128   -1.3364 O   0  0  0  0  0  0  0  0  0  0  0  0
   -2.5276    0.6894    1.4750 H   0  0  0  0  0  0  0  0  0  0  0  0
   -3.2768   -0.8854   -0.3583 H   0  0  0  0  0  0  0  0  0  0  0  0
   -3.8661    1.5743   -0.4175 H   0  0  0  0  0  0  0  0  0  0  0  0
   -3.6094    0.9013   -2.0447 H   0  0  0  0  0  0  0  0  0  0  0  0
   -1.4855    1.7126   -1.9537 H   0  0  0  0  0  0  0  0  0  0  0  0
   -0.3187    0.1977   -1.4670 N   0  0  0  0  0  0  0  0  0  0  0  0
    0.8517   -0.0910   -2.2628 C   0  0  2  0  0  0  0  0  0  0  0  0
    0.4094   -0.9042   -3.4721 C   0  0  0  0  0  0  0  0  0  0  0  0
   -0.6302   -1.5598   -3.4957 O   0  0  0  0  0  0  0  0  0  0  0  0
    1.8982   -0.8430   -1.4552 C   0  0  0  0  0  0  0  0  0  0  0  0
   -0.3633    1.0995   -1.0017 H   0  0  0  0  0  0  0  0  0  0  0  0
    1.2527    0.8723   -2.5966 H   0  0  0  0  0  0  0  0  0  0  0  0
    1.5146   -1.8108   -1.1121 H   0  0  0  0  0  0  0  0  0  0  0  0
    2.7962   -1.0359   -2.0514 H   0  0  0  0  0  0  0  0  0  0  0  0
    2.1933   -0.2696   -0.5698 H   0  0  0  0  0  0  0  0  0  0  0  0
    1.3334   -0.8466   -4.5061 N   0  0  0  0  0  0  0  0  0  0  0  0
    1.1485   -1.5451   -5.7566 C   0  0  0  0  0  0  0  0  0  0  0  0
    2.1587   -0.2629   -4.4067 H   0  0  0  0  0  0  0  0  0  0  0  0
    1.6294   -2.5329   -5.7001 H   0  0  0  0  0  0  0  0  0  0  0  0
    0.0731   -1.6716   -5.9503 H   0  0  0  0  0  0  0  0  0  0  0  0
    1.6020   -0.9628   -6.5722 H   0  0  0  0  0  0  0  0  0  0  0  0
  1  3  1  0  0  0  0
  1  7  1  0  0  0  0
  1  2  2  0  0  0  0
 29 30  1  0  0  0  0
 30 38  1  0  0  0  0
 30 31  2  0  0  0  0
  8  9  1  0  0  0  0
  9 17  1  0  0  0  0
  9 10  2  0  0  0  0
 18 19  1  0  0  0  0
 19 28  1  0  0  0  0
 19 20  2  0  0  0  0
 29 32  1  0  0  0  0
  8 11  1  0  0  0  0
 38 39  1  0  0  0  0
 18 21  1  0  0  0  0
 21 22  1  0  0  0  0
 28 29  1  0  0  0  0
  7  8  1  0  0  0  0
 17 18  1  0  0  0  0
  3  4  1  0  0  0  0
  3  5  1  0  0  0  0
  3  6  1  0  0  0  0
 32 35  1  0  0  0  0
 32 36  1  0  0  0  0
 32 37  1  0  0  0  0
 11 14  1  0  0  0  0
 11 15  1  0  0  0  0
 11 16  1  0  0  0  0
 39 41  1  0  0  0  0
 39 42  1  0  0  0  0
 39 43  1  0  0  0  0
 21 25  1  0  0  0  0
 21 26  1  0  0  0  0
 29 34  1  0  0  0  0
  8 13  1  0  0  0  0
 18 24  1  0  0  0  0
 38 40  1  0  0  0  0
  7 12  1  0  0  0  0
 28 33  1  0  0  0  0
 17 23  1  0  0  0  0
 22 27  1  0  0  0  0
M  END
$$$$

  -OEChem-05262214473D

 43 42  0     1  0  0  0  0  0999 V2000
    0.7424   -1.0926    4.5665 C   0  0  0  0  0  0  0  0  0  0  0  0
    0.1409   -0.5364    5.4779 O   0  0  0  0  0  0  0  0  0  0  0  0
    1.7940   -2.1023    4.8871 C   0  0  0  0  0  0  0  0  0  0  0  0
    2.7935   -1.6502    4.9904 H   0  0  0  0  0  0  0  0  0  0  0  0
    1.6064   -2.6156    5.8438 H   0  0  0  0  0  0  0  0  0  0  0  0
    1.9156   -2.9078    4.1453 H   0  0  0  0  0  0  0  0  0  0  0  0
    0.5488   -0.8838    3.2109 N   0  0  0  0  0  0  0  0  0  0  0  0
   -0.4159    0.0446    2.6829 C   0  0  2  0  0  0  0  0  0  0  0  0
   -0.7551   -0.3867    1.2623 C   0  0  0  0  0  0  0  0  0  0  0  0
   -0.0106   -1.0851    0.5774 O   0  0  0  0  0  0  0  0  0  0  0  0
    0.1168    1.4689    2.7060 C   0  0  0  0  0  0  0  0  0  0  0  0
    1.1183   -1.4145    2.5542 H   0  0  0  0  0  0  0  0  0  0  0  0
   -1.3088   -0.0350    3.3125 H   0  0  0  0  0  0  0  0  0  0  0  0
    1.0116    1.5681    2.0808 H   0  0  0  0  0  0  0  0  0  0  0  0
   -0.6289    2.1775    2.3307 H   0  0  0  0  0  0  0  0  0  0  0  0
    0.3882    1.7670    3.7245 H   0  0  0  0  0  0  0  0  0  0  0  0
   -1.9689    0.1350    0.8298 N   0  0  0  0  0  0  0  0  0  0  0  0
   -2.5039   -0.1183   -0.4830 C   0  0  2  0  0  0  0  0  0  0  0  0
   -1.3858   -0.6821   -1.3530 C   0  0  0  0  0  0  0  0  0  0  0  0
   -1.5463   -1.6299   -2.1192 O   0  0  0  0  0  0  0  0  0  0  0  0
   -3.1234    1.1356   -1.0916 C   0  0  0  0  0  0  0  0  0  0  0  0
   -2.1182    2.1128   -1.3364 O   0  0  0  0  0  0  0  0  0  0  0  0
   -2.5276    0.6894    1.4750 H   0  0  0  0  0  0  0  0  0  0  0  0
   -3.2768   -0.8854   -0.3583 H   0  0  0  0  0  0  0  0  0  0  0  0
   -3.8661    1.5743   -0.4175 H   0  0  0  0  0  0  0  0  0  0  0  0
   -3.6094    0.9013   -2.0447 H   0  0  0  0  0  0  0  0  0  0  0  0
   -1.4855    1.7126   -1.9537 H   0  0  0  0  0  0  0  0  0  0  0  0
   -0.2012    0.0252   -1.2042 N   0  0  0  0  0  0  0  0  0  0  0  0
    0.9984   -0.2933   -1.9432 C   0  0  2  0  0  0  0  0  0  0  0  0
    0.5834   -0.7925   -3.3209 C   0  0  0  0  0  0  0  0  0  0  0  0
   -0.5280   -1.2613   -3.5578 O   0  0  0  0  0  0  0  0  0  0  0  0
    1.8354   -1.3349   -1.2171 C   0  0  0  0  0  0  0  0  0  0  0  0
   -0.1714    0.8225   -0.5756 H   0  0  0  0  0  0  0  0  0  0  0  0
    1.5630    0.6396   -2.0469 H   0  0  0  0  0  0  0  0  0  0  0  0
    1.2862   -2.2767   -1.1038 H   0  0  0  0  0  0  0  0  0  0  0  0
    2.7581   -1.5542   -1.7644 H   0  0  0  0  0  0  0  0  0  0  0  0
    2.1079   -0.9864   -0.2151 H   0  0  0  0  0  0  0  0  0  0  0  0
    1.6144   -0.6927   -4.2446 N   0  0  0  0  0  0  0  0  0  0  0  0
    1.4733   -1.1133   -5.6190 C   0  0  0  0  0  0  0  0  0  0  0  0
    2.4967   -0.2738   -3.9653 H   0  0  0  0  0  0  0  0  0  0  0  0
    1.8036   -2.1578   -5.7192 H   0  0  0  0  0  0  0  0  0  0  0  0
    0.4186   -1.0319   -5.9208 H   0  0  0  0  0  0  0  0  0  0  0  0
    2.0900   -0.4704   -6.2643 H   0  0  0  0  0  0  0  0  0  0  0  0
  1  3  1  0  0  0  0
  1  7  1  0  0  0  0
  1  2  2  0  0  0  0
 29 30  1  0  0  0  0
 30 38  1  0  0  0  0
 30 31  2  0  0  0  0
  8  9  1  0  0  0  0
  9 17  1  0  0  0  0
  9 10  2  0  0  0  0
 18 19  1  0  0  0  0
 19 28  1  0  0  0  0
 19 20  2  0  0  0  0
 29 32  1  0  0  0  0
  8 11  1  0  0  0  0
 38 39  1  0  0  0  0
 18 21  1  0  0  0  0
 21 22  1  0  0  0  0
 28 29  1  0  0  0  0
  7  8  1  0  0  0  0
 17 18  1  0  0  0  0
  3  4  1  0  0  0  0
  3  5  1  0  0  0  0
  3  6  1  0  0  0  0
 32 35  1  0  0  0  0
 32 36  1  0  0  0  0
 32 37  1  0  0  0  0
 11 14  1  0  0  0  0
 11 15  1  0  0  0  0
 11 16  1  0  0  0  0
 39 41  1  0  0  0  0
 39 42  1  0  0  0  0
 39 43  1  0  0  0  0
 21 25  1  0  0  0  0
 21 26  1  0  0  0  0
 29 34  1  0  0  0  0
  8 13  1  0  0  0  0
 18 24  1  0  0  0  0
 38 40  1  0  0  0  0
  7 12  1  0  0  0  0
 28 33  1  0  0  0  0
 17 23  1  0  0  0  0
 22 27  1  0  0  0  0
M  END
$$$$

  -OEChem-05262214473D

 43 42  0     1  0  0  0  0  0999 V2000
    0.7424   -1.0926    4.5665 C   0  0  0  0  0  0  0  0  0  0  0  0
    0.1409   -0.5364    5.4779 O   0  0  0  0  0  0  0  0  0  0  0  0
    1.7940   -2.1023    4.8871 C   0  0  0  0  0  0  0  0  0  0  0  0
    2.7935   -1.6502    4.9904 H   0  0  0  0  0  0  0  0  0  0  0  0
    1.6064   -2.6156    5.8438 H   0  0  0  0  0  0  0  0  0  0  0  0
    1.9156   -2.9078    4.1453 H   0  0  0  0  0  0  0  0  0  0  0  0
    0.5488   -0.8838    3.2109 N   0  0  0  0  0  0  0  0  0  0  0  0
   -0.4159    0.0446    2.6829 C   0  0  2  0  0  0  0  0  0  0  0  0
   -0.7551   -0.3867    1.2623 C   0  0  0  0  0  0  0  0  0  0  0  0
   -0.0106   -1.0851    0.5774 O   0  0  0  0  0  0  0  0  0  0  0  0
    0.1168    1.4689    2.7060 C   0  0  0  0  0  0  0  0  0  0  0  0
    1.1183   -1.4145    2.5542 H   0  0  0  0  0  0  0  0  0  0  0  0
   -1.3088   -0.0350    3.3125 H   0  0  0  0  0  0  0  0  0  0  0  0
    1.0116    1.5681    2.0808 H   0  0  0  0  0  0  0  0  0  0  0  0
   -0.6289    2.1775    2.3307 H   0  0  0  0  0  0  0  0  0  0  0  0
    0.3882    1.7670    3.7245 H   0  0  0  0  0  0  0  0  0  0  0  0
   -1.9689    0.1350    0.8298 N   0  0  0  0  0  0  0  0  0  0  0  0
   -2.5039   -0.1183   -0.4830 C   0  0  2  0  0  0  0  0  0  0  0  0
   -1.3858   -0.6821   -1.3530 C   0  0  0  0  0  0  0  0  0  0  0  0
   -1.5907   -1.4369   -2.3014 O   0  0  0  0  0  0  0  0  0  0  0  0
   -3.1234    1.1356   -1.0916 C   0  0  0  0  0  0  0  0  0  0  0  0
   -2.1182    2.1128   -1.3364 O   0  0  0  0  0  0  0  0  0  0  0  0
   -2.5276    0.6894    1.4750 H   0  0  0  0  0  0  0  0  0  0  0  0
   -3.2768   -0.8854   -0.3583 H   0  0  0  0  0  0  0  0  0  0  0  0
   -3.8661    1.5743   -0.4175 H   0  0  0  0  0  0  0  0  0  0  0  0
   -3.6094    0.9013   -2.0447 H   0  0  0  0  0  0  0  0  0  0  0  0
   -1.4855    1.7126   -1.9537 H   0  0  0  0  0  0  0  0  0  0  0  0
   -0.1383   -0.2087   -0.9718 N   0  0  0  0  0  0  0  0  0  0  0  0
    1.0795   -0.5711   -1.6589 C   0  0  2  0  0  0  0  0  0  0  0  0
    0.7534   -0.7389   -3.1371 C   0  0  0  0  0  0  0  0  0  0  0  0
   -0.3793   -0.9762   -3.5514 O   0  0  0  0  0  0  0  0  0  0  0  0
    1.6794   -1.8460   -1.0865 C   0  0  0  0  0  0  0  0  0  0  0  0
   -0.0677    0.4457   -0.1982 H   0  0  0  0  0  0  0  0  0  0  0  0
    1.7759    0.2647   -1.5305 H   0  0  0  0  0  0  0  0  0  0  0  0
    0.9959   -2.6946   -1.2060 H   0  0  0  0  0  0  0  0  0  0  0  0
    2.6173   -2.1037   -1.5893 H   0  0  0  0  0  0  0  0  0  0  0  0
    1.8856   -1.7335   -0.0166 H   0  0  0  0  0  0  0  0  0  0  0  0
    1.8836   -0.6352   -3.9359 N   0  0  0  0  0  0  0  0  0  0  0  0
    1.8376   -0.7703   -5.3731 C   0  0  0  0  0  0  0  0  0  0  0  0
    2.7793   -0.4181   -3.5087 H   0  0  0  0  0  0  0  0  0  0  0  0
    2.0292   -1.8176   -5.6498 H   0  0  0  0  0  0  0  0  0  0  0  0
    0.8440   -0.4707   -5.7378 H   0  0  0  0  0  0  0  0  0  0  0  0
    2.6046   -0.1252   -5.8266 H   0  0  0  0  0  0  0  0  0  0  0  0
  1  3  1  0  0  0  0
  1  7  1  0  0  0  0
  1  2  2  0  0  0  0
 29 30  1  0  0  0  0
 30 38  1  0  0  0  0
 30 31  2  0  0  0  0
  8  9  1  0  0  0  0
  9 17  1  0  0  0  0
  9 10  2  0  0  0  0
 18 19  1  0  0  0  0
 19 28  1  0  0  0  0
 19 20  2  0  0  0  0
 29 32  1  0  0  0  0
  8 11  1  0  0  0  0
 38 39  1  0  0  0  0
 18 21  1  0  0  0  0
 21 22  1  0  0  0  0
 28 29  1  0  0  0  0
  7  8  1  0  0  0  0
 17 18  1  0  0  0  0
  3  4  1  0  0  0  0
  3  5  1  0  0  0  0
  3  6  1  0  0  0  0
 32 35  1  0  0  0  0
 32 36  1  0  0  0  0
 32 37  1  0  0  0  0
 11 14  1  0  0  0  0
 11 15  1  0  0  0  0
 11 16  1  0  0  0  0
 39 41  1  0  0  0  0
 39 42  1  0  0  0  0
 39 43  1  0  0  0  0
 21 25  1  0  0  0  0
 21 26  1  0  0  0  0
 29 34  1  0  0  0  0
  8 13  1  0  0  0  0
 18 24  1  0  0  0  0
 38 40  1  0  0  0  0
  7 12  1  0  0  0  0
 28 33  1  0  0  0  0
 17 23  1  0  0  0  0
 22 27  1  0  0  0  0
M  END
$$$$

  -OEChem-05262214473D

 43 42  0     1  0  0  0  0  0999 V2000
    0.7424   -1.0926    4.5665 C   0  0  0  0  0  0  0  0  0  0  0  0
    0.1409   -0.5364    5.4779 O   0  0  0  0  0  0  0  0  0  0  0  0
    1.7940   -2.1023    4.8871 C   0  0  0  0  0  0  0  0  0  0  0  0
    2.7935   -1.6502    4.9904 H   0  0  0  0  0  0  0  0  0  0  0  0
    1.6064   -2.6156    5.8438 H   0  0  0  0  0  0  0  0  0  0  0  0
    1.9156   -2.9078    4.1453 H   0  0  0  0  0  0  0  0  0  0  0  0
    0.5488   -0.8838    3.2109 N   0  0  0  0  0  0  0  0  0  0  0  0
   -0.4159    0.0446    2.6829 C   0  0  2  0  0  0  0  0  0  0  0  0
   -0.7551   -0.3867    1.2623 C   0  0  0  0  0  0  0  0  0  0  0  0
   -0.0106   -1.0851    0.5774 O   0  0  0  0  0  0  0  0  0  0  0  0
    0.1168    1.4689    2.7060 C   0  0  0  0  0  0  0  0  0  0  0  0
    1.1183   -1.4145    2.5542 H   0  0  0  0  0  0  0  0  0  0  0  0
   -1.3088   -0.0350    3.3125 H   0  0  0  0  0  0  0  0  0  0  0  0
    1.0116    1.5681    2.0808 H   0  0  0  0  0  0  0  0  0  0  0  0
   -0.6289    2.1775    2.3307 H   0  0  0  0  0  0  0  0  0  0  0  0
    0.3882    1.7670    3.7245 H   0  0  0  0  0  0  0  0  0  0  0  0
   -1.9689    0.1350    0.8298 N   0  0  0  0  0  0  0  0  0  0  0  0
   -2.5039   -0.1183   -0.4830 C   0  0  2  0  0  0  0  0  0  0  0  0
   -1.3858   -0.6821   -1.3530 C   0  0  0  0  0  0  0  0  0  0  0  0
   -1.5877   -1.2094   -2.4450 O   0  0  0  0  0  0  0  0  0  0  0  0
   -3.1234    1.1356   -1.0916 C   0  0  0  0  0  0  0  0  0  0  0  0
   -2.1182    2.1128   -1.3364 O   0  0  0  0  0  0  0  0  0  0  0  0
   -2.5276    0.6894    1.4750 H   0  0  0  0  0  0  0  0  0  0  0  0
   -3.2768   -0.8854   -0.3583 H   0  0  0  0  0  0  0  0  0  0  0  0
   -3.8661    1.5743   -0.4175 H   0  0  0  0  0  0  0  0  0  0  0  0
   -3.6094    0.9013   -2.0447 H   0  0  0  0  0  0  0  0  0  0  0  0
   -1.4855    1.7126   -1.9537 H   0  0  0  0  0  0  0  0  0  0  0  0
   -0.1343   -0.4880   -0.7857 N   0  0  0  0  0  0  0  0  0  0  0  0
    1.0897   -0.9054   -1.4292 C   0  0  2  0  0  0  0  0  0  0  0  0
    0.9081   -0.7471   -2.9330 C   0  0  0  0  0  0  0  0  0  0  0  0
   -0.1941   -0.7241   -3.4768 O   0  0  0  0  0  0  0  0  0  0  0  0
    1.4406   -2.3414   -1.0722 C   0  0  0  0  0  0  0  0  0  0  0  0
   -0.0593   -0.0052    0.1048 H   0  0  0  0  0  0  0  0  0  0  0  0
    1.8767   -0.2268   -1.0824 H   0  0  0  0  0  0  0  0  0  0  0  0
    0.6636   -3.0360   -1.4118 H   0  0  0  0  0  0  0  0  0  0  0  0
    2.3834   -2.6469   -1.5379 H   0  0  0  0  0  0  0  0  0  0  0  0
    1.5416   -2.4599    0.0120 H   0  0  0  0  0  0  0  0  0  0  0  0
    2.1226   -0.6780   -3.6010 N   0  0  0  0  0  0  0  0  0  0  0  0
    2.2167   -0.5395   -5.0356 C   0  0  0  0  0  0  0  0  0  0  0  0
    2.9872   -0.6858   -3.0679 H   0  0  0  0  0  0  0  0  0  0  0  0
    2.2906   -1.5355   -5.4966 H   0  0  0  0  0  0  0  0  0  0  0  0
    1.3203   -0.0262   -5.4138 H   0  0  0  0  0  0  0  0  0  0  0  0
    3.1107    0.0491   -5.2891 H   0  0  0  0  0  0  0  0  0  0  0  0
  1  3  1  0  0  0  0
  1  7  1  0  0  0  0
  1  2  2  0  0  0  0
 29 30  1  0  0  0  0
 30 38  1  0  0  0  0
 30 31  2  0  0  0  0
  8  9  1  0  0  0  0
  9 17  1  0  0  0  0
  9 10  2  0  0  0  0
 18 19  1  0  0  0  0
 19 28  1  0  0  0  0
 19 20  2  0  0  0  0
 29 32  1  0  0  0  0
  8 11  1  0  0  0  0
 38 39  1  0  0  0  0
 18 21  1  0  0  0  0
 21 22  1  0  0  0  0
 28 29  1  0  0  0  0
  7  8  1  0  0  0  0
 17 18  1  0  0  0  0
  3  4  1  0  0  0  0
  3  5  1  0  0  0  0
  3  6  1  0  0  0  0
 32 35  1  0  0  0  0
 32 36  1  0  0  0  0
 32 37  1  0  0  0  0
 11 14  1  0  0  0  0
 11 15  1  0  0  0  0
 11 16  1  0  0  0  0
 39 41  1  0  0  0  0
 39 42  1  0  0  0  0
 39 43  1  0  0  0  0
 21 25  1  0  0  0  0
 21 26  1  0  0  0  0
 29 34  1  0  0  0  0
  8 13  1  0  0  0  0
 18 24  1  0  0  0  0
 38 40  1  0  0  0  0
  7 12  1  0  0  0  0
 28 33  1  0  0  0  0
 17 23  1  0  0  0  0
 22 27  1  0  0  0  0
M  END
$$$$

  -OEChem-05262214473D

 43 42  0     1  0  0  0  0  0999 V2000
    0.7424   -1.0926    4.5665 C   0  0  0  0  0  0  0  0  0  0  0  0
    0.1409   -0.5364    5.4779 O   0  0  0  0  0  0  0  0  0  0  0  0
    1.7940   -2.1023    4.8871 C   0  0  0  0  0  0  0  0  0  0  0  0
    2.7935   -1.6502    4.9904 H   0  0  0  0  0  0  0  0  0  0  0  0
    1.6064   -2.6156    5.8438 H   0  0  0  0  0  0  0  0  0  0  0  0
    1.9156   -2.9078    4.1453 H   0  0  0  0  0  0  0  0  0  0  0  0
    0.5488   -0.8838    3.2109 N   0  0  0  0  0  0  0  0  0  0  0  0
   -0.4159    0.0446    2.6829 C   0  0  2  0  0  0  0  0  0  0  0  0
   -0.7551   -0.3867    1.2623 C   0  0  0  0  0  0  0  0  0  0  0  0
   -0.0106   -1.0851    0.5774 O   0  0  0  0  0  0  0  0  0  0  0  0
    0.1168    1.4689    2.7060 C   0  0  0  0  0  0  0  0  0  0  0  0
    1.1183   -1.4145    2.5542 H   0  0  0  0  0  0  0  0  0  0  0  0
   -1.3088   -0.0350    3.3125 H   0  0  0  0  0  0  0  0  0  0  0  0
    1.0116    1.5681    2.0808 H   0  0  0  0  0  0  0  0  0  0  0  0
   -0.6289    2.1775    2.3307 H   0  0  0  0  0  0  0  0  0  0  0  0
    0.3882    1.7670    3.7245 H   0  0  0  0  0  0  0  0  0  0  0  0
   -1.9689    0.1350    0.8298 N   0  0  0  0  0  0  0  0  0  0  0  0
   -2.5039   -0.1183   -0.4830 C   0  0  2  0  0  0  0  0  0  0  0  0
   -1.3858   -0.6821   -1.3530 C   0  0  0  0  0  0  0  0  0  0  0  0
   -1.5375   -0.9628   -2.5402 O   0  0  0  0  0  0  0  0  0  0  0  0
   -3.1234    1.1356   -1.0916 C   0  0  0  0  0  0  0  0  0  0  0  0
   -2.1182    2.1128   -1.3364 O   0  0  0  0  0  0  0  0  0  0  0  0
   -2.5276    0.6894    1.4750 H   0  0  0  0  0  0  0  0  0  0  0  0
   -3.2768   -0.8854   -0.3583 H   0  0  0  0  0  0  0  0  0  0  0  0
   -3.8661    1.5743   -0.4175 H   0  0  0  0  0  0  0  0  0  0  0  0
   -3.6094    0.9013   -2.0447 H   0  0  0  0  0  0  0  0  0  0  0  0
   -1.4855    1.7126   -1.9537 H   0  0  0  0  0  0  0  0  0  0  0  0
   -0.1895   -0.7936   -0.6586 N   0  0  0  0  0  0  0  0  0  0  0  0
    1.0282   -1.2734   -1.2698 C   0  0  2  0  0  0  0  0  0  0  0  0
    1.0366   -0.8167   -2.7227 C   0  0  0  0  0  0  0  0  0  0  0  0
    0.0148   -0.5220   -3.3392 O   0  0  0  0  0  0  0  0  0  0  0  0
    1.1355   -2.7874   -1.1754 C   0  0  0  0  0  0  0  0  0  0  0  0
   -0.1468   -0.4994    0.3126 H   0  0  0  0  0  0  0  0  0  0  0  0
    1.8585   -0.8016   -0.7333 H   0  0  0  0  0  0  0  0  0  0  0  0
    0.3119   -3.2776   -1.7072 H   0  0  0  0  0  0  0  0  0  0  0  0
    2.0724   -3.1468   -1.6137 H   0  0  0  0  0  0  0  0  0  0  0  0
    1.0993   -3.1162   -0.1312 H   0  0  0  0  0  0  0  0  0  0  0  0
    2.3151   -0.8182   -3.2628 N   0  0  0  0  0  0  0  0  0  0  0  0
    2.5846   -0.4365   -4.6294 C   0  0  0  0  0  0  0  0  0  0  0  0
    3.1064   -1.0588   -2.6731 H   0  0  0  0  0  0  0  0  0  0  0  0
    2.5702   -1.3306   -5.2700 H   0  0  0  0  0  0  0  0  0  0  0  0
    1.8150    0.2714   -4.9709 H   0  0  0  0  0  0  0  0  0  0  0  0
    3.5739    0.0408   -4.6885 H   0  0  0  0  0  0  0  0  0  0  0  0
  1  3  1  0  0  0  0
  1  7  1  0  0  0  0
  1  2  2  0  0  0  0
 29 30  1  0  0  0  0
 30 38  1  0  0  0  0
 30 31  2  0  0  0  0
  8  9  1  0  0  0  0
  9 17  1  0  0  0  0
  9 10  2  0  0  0  0
 18 19  1  0  0  0  0
 19 28  1  0  0  0  0
 19 20  2  0  0  0  0
 29 32  1  0  0  0  0
  8 11  1  0  0  0  0
 38 39  1  0  0  0  0
 18 21  1  0  0  0  0
 21 22  1  0  0  0  0
 28 29  1  0  0  0  0
  7  8  1  0  0  0  0
 17 18  1  0  0  0  0
  3  4  1  0  0  0  0
  3  5  1  0  0  0  0
  3  6  1  0  0  0  0
 32 35  1  0  0  0  0
 32 36  1  0  0  0  0
 32 37  1  0  0  0  0
 11 14  1  0  0  0  0
 11 15  1  0  0  0  0
 11 16  1  0  0  0  0
 39 41  1  0  0  0  0
 39 42  1  0  0  0  0
 39 43  1  0  0  0  0
 21 25  1  0  0  0  0
 21 26  1  0  0  0  0
 29 34  1  0  0  0  0
  8 13  1  0  0  0  0
 18 24  1  0  0  0  0
 38 40  1  0  0  0  0
  7 12  1  0  0  0  0
 28 33  1  0  0  0  0
 17 23  1  0  0  0  0
 22 27  1  0  0  0  0
M  END
$$$$

  -OEChem-05262214473D

 43 42  0     1  0  0  0  0  0999 V2000
    0.7424   -1.0926    4.5665 C   0  0  0  0  0  0  0  0  0  0  0  0
    0.1409   -0.5364    5.4779 O   0  0  0  0  0  0  0  0  0  0  0  0
    1.7940   -2.1023    4.8871 C   0  0  0  0  0  0  0  0  0  0  0  0
    2.7935   -1.6502    4.9904 H   0  0  0  0  0  0  0  0  0  0  0  0
    1.6064   -2.6156    5.8438 H   0  0  0  0  0  0  0  0  0  0  0  0
    1.9156   -2.9078    4.1453 H   0  0  0  0  0  0  0  0  0  0  0  0
    0.5488   -0.8838    3.2109 N   0  0  0  0  0  0  0  0  0  0  0  0
   -0.4159    0.0446    2.6829 C   0  0  2  0  0  0  0  0  0  0  0  0
   -0.7551   -0.3867    1.2623 C   0  0  0  0  0  0  0  0  0  0  0  0
   -0.0106   -1.0851    0.5774 O   0  0  0  0  0  0  0  0  0  0  0  0
    0.1168    1.4689    2.7060 C   0  0  0  0  0  0  0  0  0  0  0  0
    1.1183   -1.4145    2.5542 H   0  0  0  0  0  0  0  0  0  0  0  0
   -1.3088   -0.0350    3.3125 H   0  0  0  0  0  0  0  0  0  0  0  0
    1.0116    1.5681    2.0808 H   0  0  0  0  0  0  0  0  0  0  0  0
   -0.6289    2.1775    2.3307 H   0  0  0  0  0  0  0  0  0  0  0  0
    0.3882    1.7670    3.7245 H   0  0  0  0  0  0  0  0  0  0  0  0
   -1.9689    0.1350    0.8298 N   0  0  0  0  0  0  0  0  0  0  0  0
   -2.5039   -0.1183   -0.4830 C   0  0  2  0  0  0  0  0  0  0  0  0
   -1.3858   -0.6821   -1.3530 C   0  0  0  0  0  0  0  0  0  0  0  0
   -1.4434   -0.7140   -2.5805 O   0  0  0  0  0  0  0  0  0  0  0  0
   -3.1234    1.1356   -1.0916 C   0  0  0  0  0  0  0  0  0  0  0  0
   -2.1182    2.1128   -1.3364 O   0  0  0  0  0  0  0  0  0  0  0  0
   -2.5276    0.6894    1.4750 H   0  0  0  0  0  0  0  0  0  0  0  0
   -3.2768   -0.8854   -0.3583 H   0  0  0  0  0  0  0  0  0  0  0  0
   -3.8661    1.5743   -0.4175 H   0  0  0  0  0  0  0  0  0  0  0  0
   -3.6094    0.9013   -2.0447 H   0  0  0  0  0  0  0  0  0  0  0  0
   -1.4855    1.7126   -1.9537 H   0  0  0  0  0  0  0  0  0  0  0  0
   -0.3002   -1.1049   -0.5991 N   0  0  0  0  0  0  0  0  0  0  0  0
    0.8991   -1.6499   -1.1916 C   0  0  2  0  0  0  0  0  0  0  0  0
    1.1305   -0.9427   -2.5205 C   0  0  0  0  0  0  0  0  0  0  0  0
    0.2333   -0.3838   -3.1480 O   0  0  0  0  0  0  0  0  0  0  0  0
    0.7848   -3.1535   -1.3888 C   0  0  0  0  0  0  0  0  0  0  0  0
   -0.3241   -1.0034    0.4113 H   0  0  0  0  0  0  0  0  0  0  0  0
    1.7228   -1.4203   -0.5068 H   0  0  0  0  0  0  0  0  0  0  0  0
   -0.0352   -3.4030   -2.0720 H   0  0  0  0  0  0  0  0  0  0  0  0
    1.7054   -3.5694   -1.8115 H   0  0  0  0  0  0  0  0  0  0  0  0
    0.5888   -3.6577   -0.4363 H   0  0  0  0  0  0  0  0  0  0  0  0
    2.4480   -1.0462   -2.9443 N   0  0  0  0  0  0  0  0  0  0  0  0
    2.9163   -0.4685   -4.1824 C   0  0  0  0  0  0  0  0  0  0  0  0
    3.1286   -1.5115   -2.3511 H   0  0  0  0  0  0  0  0  0  0  0  0
    2.8488   -1.2171   -4.9856 H   0  0  0  0  0  0  0  0  0  0  0  0
    2.2944    0.4017   -4.4392 H   0  0  0  0  0  0  0  0  0  0  0  0
    3.9626   -0.1497   -4.0655 H   0  0  0  0  0  0  0  0  0  0  0  0
  1  3  1  0  0  0  0
  1  7  1  0  0  0  0
  1  2  2  0  0  0  0
 29 30  1  0  0  0  0
 30 38  1  0  0  0  0
 30 31  2  0  0  0  0
  8  9  1  0  0  0  0
  9 17  1  0  0  0  0
  9 10  2  0  0  0  0
 18 19  1  0  0  0  0
 19 28  1  0  0  0  0
 19 20  2  0  0  0  0
 29 32  1  0  0  0  0
  8 11  1  0  0  0  0
 38 39  1  0  0  0  0
 18 21  1  0  0  0  0
 21 22  1  0  0  0  0
 28 29  1  0  0  0  0
  7  8  1  0  0  0  0
 17 18  1  0  0  0  0
  3  4  1  0  0  0  0
  3  5  1  0  0  0  0
  3  6  1  0  0  0  0
 32 35  1  0  0  0  0
 32 36  1  0  0  0  0
 32 37  1  0  0  0  0
 11 14  1  0  0  0  0
 11 15  1  0  0  0  0
 11 16  1  0  0  0  0
 39 41  1  0  0  0  0
 39 42  1  0  0  0  0
 39 43  1  0  0  0  0
 21 25  1  0  0  0  0
 21 26  1  0  0  0  0
 29 34  1  0  0  0  0
  8 13  1  0  0  0  0
 18 24  1  0  0  0  0
 38 40  1  0  0  0  0
  7 12  1  0  0  0  0
 28 33  1  0  0  0  0
 17 23  1  0  0  0  0
 22 27  1  0  0  0  0
M  END
$$$$

  -OEChem-05262214473D

 43 42  0     1  0  0  0  0  0999 V2000
    0.7424   -1.0926    4.5665 C   0  0  0  0  0  0  0  0  0  0  0  0
    0.1409   -0.5364    5.4779 O   0  0  0  0  0  0  0  0  0  0  0  0
    1.7940   -2.1023    4.8871 C   0  0  0  0  0  0  0  0  0  0  0  0
    2.7935   -1.6502    4.9904 H   0  0  0  0  0  0  0  0  0  0  0  0
    1.6064   -2.6156    5.8438 H   0  0  0  0  0  0  0  0  0  0  0  0
    1.9156   -2.9078    4.1453 H   0  0  0  0  0  0  0  0  0  0  0  0
    0.5488   -0.8838    3.2109 N   0  0  0  0  0  0  0  0  0  0  0  0
   -0.4159    0.0446    2.6829 C   0  0  2  0  0  0  0  0  0  0  0  0
   -0.7551   -0.3867    1.2623 C   0  0  0  0  0  0  0  0  0  0  0  0
   -0.0106   -1.0851    0.5774 O   0  0  0  0  0  0  0  0  0  0  0  0
    0.1168    1.4689    2.7060 C   0  0  0  0  0  0  0  0  0  0  0  0
    1.1183   -1.4145    2.5542 H   0  0  0  0  0  0  0  0  0  0  0  0
   -1.3088   -0.0350    3.3125 H   0  0  0  0  0  0  0  0  0  0  0  0
    1.0116    1.5681    2.0808 H   0  0  0  0  0  0  0  0  0  0  0  0
   -0.6289    2.1775    2.3307 H   0  0  0  0  0  0  0  0  0  0  0  0
    0.3882    1.7670    3.7245 H   0  0  0  0  0  0  0  0  0  0  0  0
   -1.9689    0.1350    0.8298 N   0  0  0  0  0  0  0  0  0  0  0  0
   -2.5039   -0.1183   -0.4830 C   0  0  2  0  0  0  0  0  0  0  0  0
   -1.3858   -0.6821   -1.3530 C   0  0  0  0  0  0  0  0  0  0  0  0
   -1.3120   -0.4798   -2.5633 O   0  0  0  0  0  0  0  0  0  0  0  0
   -3.1234    1.1356   -1.0916 C   0  0  0  0  0  0  0  0  0  0  0  0
   -2.1182    2.1128   -1.3364 O   0  0  0  0  0  0  0  0  0  0  0  0
   -2.5276    0.6894    1.4750 H   0  0  0  0  0  0  0  0  0  0  0  0
   -3.2768   -0.8854   -0.3583 H   0  0  0  0  0  0  0  0  0  0  0  0
   -3.8661    1.5743   -0.4175 H   0  0  0  0  0  0  0  0  0  0  0  0
   -3.6094    0.9013   -2.0447 H   0  0  0  0  0  0  0  0  0  0  0  0
   -1.4855    1.7126   -1.9537 H   0  0  0  0  0  0  0  0  0  0  0  0
   -0.4587   -1.4005   -0.6113 N   0  0  0  0  0  0  0  0  0  0  0  0
    0.7114   -2.0095   -1.1999 C   0  0  2  0  0  0  0  0  0  0  0  0
    1.1831   -1.1167   -2.3400 C   0  0  0  0  0  0  0  0  0  0  0  0
    0.4464   -0.3189   -2.9161 O   0  0  0  0  0  0  0  0  0  0  0  0
    0.4124   -3.4149   -1.6980 C   0  0  0  0  0  0  0  0  0  0  0  0
   -0.5793   -1.4827    0.3939 H   0  0  0  0  0  0  0  0  0  0  0  0
    1.4785   -2.0409   -0.4185 H   0  0  0  0  0  0  0  0  0  0  0  0
   -0.3541   -3.4036   -2.4815 H   0  0  0  0  0  0  0  0  0  0  0  0
    1.3074   -3.8858   -2.1180 H   0  0  0  0  0  0  0  0  0  0  0  0
    0.0450   -4.0474   -0.8827 H   0  0  0  0  0  0  0  0  0  0  0  0
    2.5121   -1.3465   -2.6672 N   0  0  0  0  0  0  0  0  0  0  0  0
    3.1892   -0.6332   -3.7250 C   0  0  0  0  0  0  0  0  0  0  0  0
    3.0524   -2.0133   -2.1239 H   0  0  0  0  0  0  0  0  0  0  0  0
    3.1074   -1.2025   -4.6626 H   0  0  0  0  0  0  0  0  0  0  0  0
    2.7258    0.3559   -3.8551 H   0  0  0  0  0  0  0  0  0  0  0  0
    4.2503   -0.5093   -3.4627 H   0  0  0  0  0  0  0  0  0  0  0  0
  1  3  1  0  0  0  0
  1  7  1  0  0  0  0
  1  2  2  0  0  0  0
 29 30  1  0  0  0  0
 30 38  1  0  0  0  0
 30 31  2  0  0  0  0
  8  9  1  0  0  0  0
  9 17  1  0  0  0  0
  9 10  2  0  0  0  0
 18 19  1  0  0  0  0
 19 28  1  0  0  0  0
 19 20  2  0  0  0  0
 29 32  1  0  0  0  0
  8 11  1  0  0  0  0
 38 39  1  0  0  0  0
 18 21  1  0  0  0  0
 21 22  1  0  0  0  0
 28 29  1  0  0  0  0
  7  8  1  0  0  0  0
 17 18  1  0  0  0  0
  3  4  1  0  0  0  0
  3  5  1  0  0  0  0
  3  6  1  0  0  0  0
 32 35  1  0  0  0  0
 32 36  1  0  0  0  0
 32 37  1  0  0  0  0
 11 14  1  0  0  0  0
 11 15  1  0  0  0  0
 11 16  1  0  0  0  0
 39 41  1  0  0  0  0
 39 42  1  0  0  0  0
 39 43  1  0  0  0  0
 21 25  1  0  0  0  0
 21 26  1  0  0  0  0
 29 34  1  0  0  0  0
  8 13  1  0  0  0  0
 18 24  1  0  0  0  0
 38 40  1  0  0  0  0
  7 12  1  0  0  0  0
 28 33  1  0  0  0  0
 17 23  1  0  0  0  0
 22 27  1  0  0  0  0
M  END
$$$$

  -OEChem-05262214473D

 43 42  0     1  0  0  0  0  0999 V2000
    0.7424   -1.0926    4.5665 C   0  0  0  0  0  0  0  0  0  0  0  0
    0.1409   -0.5364    5.4779 O   0  0  0  0  0  0  0  0  0  0  0  0
    1.7940   -2.1023    4.8871 C   0  0  0  0  0  0  0  0  0  0  0  0
    2.7935   -1.6502    4.9904 H   0  0  0  0  0  0  0  0  0  0  0  0
    1.6064   -2.6156    5.8438 H   0  0  0  0  0  0  0  0  0  0  0  0
    1.9156   -2.9078    4.1453 H   0  0  0  0  0  0  0  0  0  0  0  0
    0.5488   -0.8838    3.2109 N   0  0  0  0  0  0  0  0  0  0  0  0
   -0.4159    0.0446    2.6829 C   0  0  2  0  0  0  0  0  0  0  0  0
   -0.7551   -0.3867    1.2623 C   0  0  0  0  0  0  0  0  0  0  0  0
   -0.0106   -1.0851    0.5774 O   0  0  0  0  0  0  0  0  0  0  0  0
    0.1168    1.4689    2.7060 C   0  0  0  0  0  0  0  0  0  0  0  0
    1.1183   -1.4145    2.5542 H   0  0  0  0  0  0  0  0  0  0  0  0
   -1.3088   -0.0350    3.3125 H   0  0  0  0  0  0  0  0  0  0  0  0
    1.0116    1.5681    2.0808 H   0  0  0  0  0  0  0  0  0  0  0  0
   -0.6289    2.1775    2.3307 H   0  0  0  0  0  0  0  0  0  0  0  0
    0.3882    1.7670    3.7245 H   0  0  0  0  0  0  0  0  0  0  0  0
   -1.9689    0.1350    0.8298 N   0  0  0  0  0  0  0  0  0  0  0  0
   -2.5039   -0.1183   -0.4830 C   0  0  2  0  0  0  0  0  0  0  0  0
   -1.3858   -0.6821   -1.3530 C   0  0  0  0  0  0  0  0  0  0  0  0
   -1.1520   -0.2764   -2.4896 O   0  0  0  0  0  0  0  0  0  0  0  0
   -3.1234    1.1356   -1.0916 C   0  0  0  0  0  0  0  0  0  0  0  0
   -2.1182    2.1128   -1.3364 O   0  0  0  0  0  0  0  0  0  0  0  0
   -2.5276    0.6894    1.4750 H   0  0  0  0  0  0  0  0  0  0  0  0
   -3.2768   -0.8854   -0.3583 H   0  0  0  0  0  0  0  0  0  0  0  0
   -3.8661    1.5743   -0.4175 H   0  0  0  0  0  0  0  0  0  0  0  0
   -3.6094    0.9013   -2.0447 H   0  0  0  0  0  0  0  0  0  0  0  0
   -1.4855    1.7126   -1.9537 H   0  0  0  0  0  0  0  0  0  0  0  0
   -0.6543   -1.6603   -0.6943 N   0  0  0  0  0  0  0  0  0  0  0  0
    0.4778   -2.3275   -1.2941 C   0  0  2  0  0  0  0  0  0  0  0  0
    1.1910   -1.3268   -2.1937 C   0  0  0  0  0  0  0  0  0  0  0  0
    0.6397   -0.3317   -2.6595 O   0  0  0  0  0  0  0  0  0  0  0  0
    0.0437   -3.5537   -2.0819 C   0  0  0  0  0  0  0  0  0  0  0  0
   -0.8949   -1.9047    0.2617 H   0  0  0  0  0  0  0  0  0  0  0  0
    1.1426   -2.6211   -0.4744 H   0  0  0  0  0  0  0  0  0  0  0  0
   -0.6230   -3.2794   -2.9076 H   0  0  0  0  0  0  0  0  0  0  0  0
    0.9055   -4.0745   -2.5121 H   0  0  0  0  0  0  0  0  0  0  0  0
   -0.4952   -4.2588   -1.4399 H   0  0  0  0  0  0  0  0  0  0  0  0
    2.5033   -1.6986   -2.4504 N   0  0  0  0  0  0  0  0  0  0  0  0
    3.3847   -0.9194   -3.2882 C   0  0  0  0  0  0  0  0  0  0  0  0
    2.8830   -2.5298   -2.0069 H   0  0  0  0  0  0  0  0  0  0  0  0
    3.3285   -1.2880   -4.3231 H   0  0  0  0  0  0  0  0  0  0  0  0
    3.0798    0.1371   -3.2583 H   0  0  0  0  0  0  0  0  0  0  0  0
    4.4174   -1.0136   -2.9212 H   0  0  0  0  0  0  0  0  0  0  0  0
  1  3  1  0  0  0  0
  1  7  1  0  0  0  0
  1  2  2  0  0  0  0
 29 30  1  0  0  0  0
 30 38  1  0  0  0  0
 30 31  2  0  0  0  0
  8  9  1  0  0  0  0
  9 17  1  0  0  0  0
  9 10  2  0  0  0  0
 18 19  1  0  0  0  0
 19 28  1  0  0  0  0
 19 20  2  0  0  0  0
 29 32  1  0  0  0  0
  8 11  1  0  0  0  0
 38 39  1  0  0  0  0
 18 21  1  0  0  0  0
 21 22  1  0  0  0  0
 28 29  1  0  0  0  0
  7  8  1  0  0  0  0
 17 18  1  0  0  0  0
  3  4  1  0  0  0  0
  3  5  1  0  0  0  0
  3  6  1  0  0  0  0
 32 35  1  0  0  0  0
 32 36  1  0  0  0  0
 32 37  1  0  0  0  0
 11 14  1  0  0  0  0
 11 15  1  0  0  0  0
 11 16  1  0  0  0  0
 39 41  1  0  0  0  0
 39 42  1  0  0  0  0
 39 43  1  0  0  0  0
 21 25  1  0  0  0  0
 21 26  1  0  0  0  0
 29 34  1  0  0  0  0
  8 13  1  0  0  0  0
 18 24  1  0  0  0  0
 38 40  1  0  0  0  0
  7 12  1  0  0  0  0
 28 33  1  0  0  0  0
 17 23  1  0  0  0  0
 22 27  1  0  0  0  0
M  END
$$$$

  -OEChem-05262214473D

 43 42  0     1  0  0  0  0  0999 V2000
    0.7424   -1.0926    4.5665 C   0  0  0  0  0  0  0  0  0  0  0  0
    0.1409   -0.5364    5.4779 O   0  0  0  0  0  0  0  0  0  0  0  0
    1.7940   -2.1023    4.8871 C   0  0  0  0  0  0  0  0  0  0  0  0
    2.7935   -1.6502    4.9904 H   0  0  0  0  0  0  0  0  0  0  0  0
    1.6064   -2.6156    5.8438 H   0  0  0  0  0  0  0  0  0  0  0  0
    1.9156   -2.9078    4.1453 H   0  0  0  0  0  0  0  0  0  0  0  0
    0.5488   -0.8838    3.2109 N   0  0  0  0  0  0  0  0  0  0  0  0
   -0.4159    0.0446    2.6829 C   0  0  2  0  0  0  0  0  0  0  0  0
   -0.7551   -0.3867    1.2623 C   0  0  0  0  0  0  0  0  0  0  0  0
   -0.0106   -1.0851    0.5774 O   0  0  0  0  0  0  0  0  0  0  0  0
    0.1168    1.4689    2.7060 C   0  0  0  0  0  0  0  0  0  0  0  0
    1.1183   -1.4145    2.5542 H   0  0  0  0  0  0  0  0  0  0  0  0
   -1.3088   -0.0350    3.3125 H   0  0  0  0  0  0  0  0  0  0  0  0
    1.0116    1.5681    2.0808 H   0  0  0  0  0  0  0  0  0  0  0  0
   -0.6289    2.1775    2.3307 H   0  0  0  0  0  0  0  0  0  0  0  0
    0.3882    1.7670    3.7245 H   0  0  0  0  0  0  0  0  0  0  0  0
   -1.9689    0.1350    0.8298 N   0  0  0  0  0  0  0  0  0  0  0  0
   -2.5039   -0.1183   -0.4830 C   0  0  2  0  0  0  0  0  0  0  0  0
   -1.3858   -0.6821   -1.3530 C   0  0  0  0  0  0  0  0  0  0  0  0
   -0.9746   -0.1174   -2.3646 O   0  0  0  0  0  0  0  0  0  0  0  0
   -3.1234    1.1356   -1.0916 C   0  0  0  0  0  0  0  0  0  0  0  0
   -2.1182    2.1128   -1.3364 O   0  0  0  0  0  0  0  0  0  0  0  0
   -2.5276    0.6894    1.4750 H   0  0  0  0  0  0  0  0  0  0  0  0
   -3.2768   -0.8854   -0.3583 H   0  0  0  0  0  0  0  0  0  0  0  0
   -3.8661    1.5743   -0.4175 H   0  0  0  0  0  0  0  0  0  0  0  0
   -3.6094    0.9013   -2.0447 H   0  0  0  0  0  0  0  0  0  0  0  0
   -1.4855    1.7126   -1.9537 H   0  0  0  0  0  0  0  0  0  0  0  0
   -0.8737   -1.8665   -0.8426 N   0  0  0  0  0  0  0  0  0  0  0  0
    0.2142   -2.5823   -1.4678 C   0  0  2  0  0  0  0  0  0  0  0  0
    1.1536   -1.5587   -2.0916 C   0  0  0  0  0  0  0  0  0  0  0  0
    0.8000   -0.4213   -2.3954 O   0  0  0  0  0  0  0  0  0  0  0  0
   -0.2962   -3.5604   -2.5144 C   0  0  0  0  0  0  0  0  0  0  0  0
   -1.2495   -2.2406    0.0238 H   0  0  0  0  0  0  0  0  0  0  0  0
    0.7377   -3.1212   -0.6706 H   0  0  0  0  0  0  0  0  0  0  0  0
   -0.8237   -3.0388   -3.3213 H   0  0  0  0  0  0  0  0  0  0  0  0
    0.5272   -4.1226   -2.9671 H   0  0  0  0  0  0  0  0  0  0  0  0
   -0.9948   -4.2775   -2.0699 H   0  0  0  0  0  0  0  0  0  0  0  0
    2.4220   -2.0786   -2.3087 N   0  0  0  0  0  0  0  0  0  0  0  0
    3.4895   -1.3077   -2.9020 C   0  0  0  0  0  0  0  0  0  0  0  0
    2.6319   -3.0259   -2.0082 H   0  0  0  0  0  0  0  0  0  0  0  0
    3.4970   -1.4675   -3.9903 H   0  0  0  0  0  0  0  0  0  0  0  0
    3.3324   -0.2399   -2.6895 H   0  0  0  0  0  0  0  0  0  0  0  0
    4.4525   -1.6281   -2.4778 H   0  0  0  0  0  0  0  0  0  0  0  0
  1  3  1  0  0  0  0
  1  7  1  0  0  0  0
  1  2  2  0  0  0  0
 29 30  1  0  0  0  0
 30 38  1  0  0  0  0
 30 31  2  0  0  0  0
  8  9  1  0  0  0  0
  9 17  1  0  0  0  0
  9 10  2  0  0  0  0
 18 19  1  0  0  0  0
 19 28  1  0  0  0  0
 19 20  2  0  0  0  0
 29 32  1  0  0  0  0
  8 11  1  0  0  0  0
 38 39  1  0  0  0  0
 18 21  1  0  0  0  0
 21 22  1  0  0  0  0
 28 29  1  0  0  0  0
  7  8  1  0  0  0  0
 17 18  1  0  0  0  0
  3  4  1  0  0  0  0
  3  5  1  0  0  0  0
  3  6  1  0  0  0  0
 32 35  1  0  0  0  0
 32 36  1  0  0  0  0
 32 37  1  0  0  0  0
 11 14  1  0  0  0  0
 11 15  1  0  0  0  0
 11 16  1  0  0  0  0
 39 41  1  0  0  0  0
 39 42  1  0  0  0  0
 39 43  1  0  0  0  0
 21 25  1  0  0  0  0
 21 26  1  0  0  0  0
 29 34  1  0  0  0  0
  8 13  1  0  0  0  0
 18 24  1  0  0  0  0
 38 40  1  0  0  0  0
  7 12  1  0  0  0  0
 28 33  1  0  0  0  0
 17 23  1  0  0  0  0
 22 27  1  0  0  0  0
M  END
$$$$

  -OEChem-05262214473D

 43 42  0     1  0  0  0  0  0999 V2000
    0.7424   -1.0926    4.5665 C   0  0  0  0  0  0  0  0  0  0  0  0
    0.1409   -0.5364    5.4779 O   0  0  0  0  0  0  0  0  0  0  0  0
    1.7940   -2.1023    4.8871 C   0  0  0  0  0  0  0  0  0  0  0  0
    2.7935   -1.6502    4.9904 H   0  0  0  0  0  0  0  0  0  0  0  0
    1.6064   -2.6156    5.8438 H   0  0  0  0  0  0  0  0  0  0  0  0
    1.9156   -2.9078    4.1453 H   0  0  0  0  0  0  0  0  0  0  0  0
    0.5488   -0.8838    3.2109 N   0  0  0  0  0  0  0  0  0  0  0  0
   -0.4159    0.0446    2.6829 C   0  0  2  0  0  0  0  0  0  0  0  0
   -0.7551   -0.3867    1.2623 C   0  0  0  0  0  0  0  0  0  0  0  0
   -0.0106   -1.0851    0.5774 O   0  0  0  0  0  0  0  0  0  0  0  0
    0.1168    1.4689    2.7060 C   0  0  0  0  0  0  0  0  0  0  0  0
    1.1183   -1.4145    2.5542 H   0  0  0  0  0  0  0  0  0  0  0  0
   -1.3088   -0.0350    3.3125 H   0  0  0  0  0  0  0  0  0  0  0  0
    1.0116    1.5681    2.0808 H   0  0  0  0  0  0  0  0  0  0  0  0
   -0.6289    2.1775    2.3307 H   0  0  0  0  0  0  0  0  0  0  0  0
    0.3882    1.7670    3.7245 H   0  0  0  0  0  0  0  0  0  0  0  0
   -1.9689    0.1350    0.8298 N   0  0  0  0  0  0  0  0  0  0  0  0
   -2.5039   -0.1183   -0.4830 C   0  0  2  0  0  0  0  0  0  0  0  0
   -1.3858   -0.6821   -1.3530 C   0  0  0  0  0  0  0  0  0  0  0  0
   -0.7917   -0.0139   -2.1966 O   0  0  0  0  0  0  0  0  0  0  0  0
   -3.1234    1.1356   -1.0916 C   0  0  0  0  0  0  0  0  0  0  0  0
   -2.1182    2.1128   -1.3364 O   0  0  0  0  0  0  0  0  0  0  0  0
   -2.5276    0.6894    1.4750 H   0  0  0  0  0  0  0  0  0  0  0  0
   -3.2768   -0.8854   -0.3583 H   0  0  0  0  0  0  0  0  0  0  0  0
   -3.8661    1.5743   -0.4175 H   0  0  0  0  0  0  0  0  0  0  0  0
   -3.6094    0.9013   -2.0447 H   0  0  0  0  0  0  0  0  0  0  0  0
   -1.4855    1.7126   -1.9537 H   0  0  0  0  0  0  0  0  0  0  0  0
   -1.1018   -2.0053   -1.0459 N   0  0  0  0  0  0  0  0  0  0  0  0
   -0.0615   -2.7565   -1.7091 C   0  0  2  0  0  0  0  0  0  0  0  0
    1.0735   -1.7965   -2.0404 C   0  0  0  0  0  0  0  0  0  0  0  0
    0.9163   -0.5816   -2.1421 O   0  0  0  0  0  0  0  0  0  0  0  0
   -0.5842   -3.4347   -2.9659 C   0  0  0  0  0  0  0  0  0  0  0  0
   -1.6188   -2.4675   -0.3037 H   0  0  0  0  0  0  0  0  0  0  0  0
    0.2915   -3.5073   -0.9938 H   0  0  0  0  0  0  0  0  0  0  0  0
   -0.9424   -2.6983   -3.6945 H   0  0  0  0  0  0  0  0  0  0  0  0
    0.1983   -4.0268   -3.4519 H   0  0  0  0  0  0  0  0  0  0  0  0
   -1.4199   -4.1022   -2.7298 H   0  0  0  0  0  0  0  0  0  0  0  0
    2.2737   -2.4605   -2.2517 N   0  0  0  0  0  0  0  0  0  0  0  0
    3.4964   -1.7714   -2.5926 C   0  0  0  0  0  0  0  0  0  0  0  0
    2.3161   -3.4678   -2.1276 H   0  0  0  0  0  0  0  0  0  0  0  0
    3.6013   -1.7291   -3.6867 H   0  0  0  0  0  0  0  0  0  0  0  0
    3.4662   -0.7492   -2.1874 H   0  0  0  0  0  0  0  0  0  0  0  0
    4.3533   -2.3110   -2.1628 H   0  0  0  0  0  0  0  0  0  0  0  0
  1  3  1  0  0  0  0
  1  7  1  0  0  0  0
  1  2  2  0  0  0  0
 29 30  1  0  0  0  0
 30 38  1  0  0  0  0
 30 31  2  0  0  0  0
  8  9  1  0  0  0  0
  9 17  1  0  0  0  0
  9 10  2  0  0  0  0
 18 19  1  0  0  0  0
 19 28  1  0  0  0  0
 19 20  2  0  0  0  0
 29 32  1  0  0  0  0
  8 11  1  0  0  0  0
 38 39  1  0  0  0  0
 18 21  1  0  0  0  0
 21 22  1  0  0  0  0
 28 29  1  0  0  0  0
  7  8  1  0  0  0  0
 17 18  1  0  0  0  0
  3  4  1  0  0  0  0
  3  5  1  0  0  0  0
  3  6  1  0  0  0  0
 32 35  1  0  0  0  0
 32 36  1  0  0  0  0
 32 37  1  0  0  0  0
 11 14  1  0  0  0  0
 11 15  1  0  0  0  0
 11 16  1  0  0  0  0
 39 41  1  0  0  0  0
 39 42  1  0  0  0  0
 39 43  1  0  0  0  0
 21 25  1  0  0  0  0
 21 26  1  0  0  0  0
 29 34  1  0  0  0  0
  8 13  1  0  0  0  0
 18 24  1  0  0  0  0
 38 40  1  0  0  0  0
  7 12  1  0  0  0  0
 28 33  1  0  0  0  0
 17 23  1  0  0  0  0
 22 27  1  0  0  0  0
M  END
$$$$

  -OEChem-05262214473D

 43 42  0     1  0  0  0  0  0999 V2000
    0.7424   -1.0926    4.5665 C   0  0  0  0  0  0  0  0  0  0  0  0
    0.1409   -0.5364    5.4779 O   0  0  0  0  0  0  0  0  0  0  0  0
    1.7940   -2.1023    4.8871 C   0  0  0  0  0  0  0  0  0  0  0  0
    2.7935   -1.6502    4.9904 H   0  0  0  0  0  0  0  0  0  0  0  0
    1.6064   -2.6156    5.8438 H   0  0  0  0  0  0  0  0  0  0  0  0
    1.9156   -2.9078    4.1453 H   0  0  0  0  0  0  0  0  0  0  0  0
    0.5488   -0.8838    3.2109 N   0  0  0  0  0  0  0  0  0  0  0  0
   -0.4159    0.0446    2.6829 C   0  0  2  0  0  0  0  0  0  0  0  0
   -0.7551   -0.3867    1.2623 C   0  0  0  0  0  0  0  0  0  0  0  0
   -0.0106   -1.0851    0.5774 O   0  0  0  0  0  0  0  0  0  0  0  0
    0.1168    1.4689    2.7060 C   0  0  0  0  0  0  0  0  0  0  0  0
    1.1183   -1.4145    2.5542 H   0  0  0  0  0  0  0  0  0  0  0  0
   -1.3088   -0.0350    3.3125 H   0  0  0  0  0  0  0  0  0  0  0  0
    1.0116    1.5681    2.0808 H   0  0  0  0  0  0  0  0  0  0  0  0
   -0.6289    2.1775    2.3307 H   0  0  0  0  0  0  0  0  0  0  0  0
    0.3882    1.7670    3.7245 H   0  0  0  0  0  0  0  0  0  0  0  0
   -1.9689    0.1350    0.8298 N   0  0  0  0  0  0  0  0  0  0  0  0
   -2.5039   -0.1183   -0.4830 C   0  0  2  0  0  0  0  0  0  0  0  0
   -1.3858   -0.6821   -1.3530 C   0  0  0  0  0  0  0  0  0  0  0  0
   -0.6158    0.0273   -1.9972 O   0  0  0  0  0  0  0  0  0  0  0  0
   -3.1234    1.1356   -1.0916 C   0  0  0  0  0  0  0  0  0  0  0  0
   -2.1182    2.1128   -1.3364 O   0  0  0  0  0  0  0  0  0  0  0  0
   -2.5276    0.6894    1.4750 H   0  0  0  0  0  0  0  0  0  0  0  0
   -3.2768   -0.8854   -0.3583 H   0  0  0  0  0  0  0  0  0  0  0  0
   -3.8661    1.5743   -0.4175 H   0  0  0  0  0  0  0  0  0  0  0  0
   -3.6094    0.9013   -2.0447 H   0  0  0  0  0  0  0  0  0  0  0  0
   -1.4855    1.7126   -1.9537 H   0  0  0  0  0  0  0  0  0  0  0  0
   -1.3233   -2.0670   -1.2905 N   0  0  0  0  0  0  0  0  0  0  0  0
   -0.3304   -2.8383   -2.0017 C   0  0  2  0  0  0  0  0  0  0  0  0
    0.9560   -2.0241   -2.0439 C   0  0  0  0  0  0  0  0  0  0  0  0
    0.9807   -0.8017   -1.9167 O   0  0  0  0  0  0  0  0  0  0  0  0
   -0.8005   -3.1850   -3.4058 C   0  0  0  0  0  0  0  0  0  0  0  0
   -1.9776   -2.5701   -0.6985 H   0  0  0  0  0  0  0  0  0  0  0  0
   -0.1655   -3.7530   -1.4219 H   0  0  0  0  0  0  0  0  0  0  0  0
   -0.9710   -2.2810   -4.0018 H   0  0  0  0  0  0  0  0  0  0  0  0
   -0.0589   -3.7938   -3.9335 H   0  0  0  0  0  0  0  0  0  0  0  0
   -1.7415   -3.7448   -3.3746 H   0  0  0  0  0  0  0  0  0  0  0  0
    2.0687   -2.8183   -2.2834 N   0  0  0  0  0  0  0  0  0  0  0  0
    3.4050   -2.2792   -2.3810 C   0  0  0  0  0  0  0  0  0  0  0  0
    1.9573   -3.8253   -2.3570 H   0  0  0  0  0  0  0  0  0  0  0  0
    3.6344   -2.0547   -3.4332 H   0  0  0  0  0  0  0  0  0  0  0  0
    3.4723   -1.3563   -1.7863 H   0  0  0  0  0  0  0  0  0  0  0  0
    4.1264   -3.0158   -1.9977 H   0  0  0  0  0  0  0  0  0  0  0  0
  1  3  1  0  0  0  0
  1  7  1  0  0  0  0
  1  2  2  0  0  0  0
 29 30  1  0  0  0  0
 30 38  1  0  0  0  0
 30 31  2  0  0  0  0
  8  9  1  0  0  0  0
  9 17  1  0  0  0  0
  9 10  2  0  0  0  0
 18 19  1  0  0  0  0
 19 28  1  0  0  0  0
 19 20  2  0  0  0  0
 29 32  1  0  0  0  0
  8 11  1  0  0  0  0
 38 39  1  0  0  0  0
 18 21  1  0  0  0  0
 21 22  1  0  0  0  0
 28 29  1  0  0  0  0
  7  8  1  0  0  0  0
 17 18  1  0  0  0  0
  3  4  1  0  0  0  0
  3  5  1  0  0  0  0
  3  6  1  0  0  0  0
 32 35  1  0  0  0  0
 32 36  1  0  0  0  0
 32 37  1  0  0  0  0
 11 14  1  0  0  0  0
 11 15  1  0  0  0  0
 11 16  1  0  0  0  0
 39 41  1  0  0  0  0
 39 42  1  0  0  0  0
 39 43  1  0  0  0  0
 21 25  1  0  0  0  0
 21 26  1  0  0  0  0
 29 34  1  0  0  0  0
  8 13  1  0  0  0  0
 18 24  1  0  0  0  0
 38 40  1  0  0  0  0
  7 12  1  0  0  0  0
 28 33  1  0  0  0  0
 17 23  1  0  0  0  0
 22 27  1  0  0  0  0
M  END
$$$$

  -OEChem-05262214473D

 43 42  0     1  0  0  0  0  0999 V2000
    0.7424   -1.0926    4.5665 C   0  0  0  0  0  0  0  0  0  0  0  0
    0.1409   -0.5364    5.4779 O   0  0  0  0  0  0  0  0  0  0  0  0
    1.7940   -2.1023    4.8871 C   0  0  0  0  0  0  0  0  0  0  0  0
    2.7935   -1.6502    4.9904 H   0  0  0  0  0  0  0  0  0  0  0  0
    1.6064   -2.6156    5.8438 H   0  0  0  0  0  0  0  0  0  0  0  0
    1.9156   -2.9078    4.1453 H   0  0  0  0  0  0  0  0  0  0  0  0
    0.5488   -0.8838    3.2109 N   0  0  0  0  0  0  0  0  0  0  0  0
   -0.4159    0.0446    2.6829 C   0  0  2  0  0  0  0  0  0  0  0  0
   -0.7551   -0.3867    1.2623 C   0  0  0  0  0  0  0  0  0  0  0  0
   -0.0106   -1.0851    0.5774 O   0  0  0  0  0  0  0  0  0  0  0  0
    0.1168    1.4689    2.7060 C   0  0  0  0  0  0  0  0  0  0  0  0
    1.1183   -1.4145    2.5542 H   0  0  0  0  0  0  0  0  0  0  0  0
   -1.3088   -0.0350    3.3125 H   0  0  0  0  0  0  0  0  0  0  0  0
    1.0116    1.5681    2.0808 H   0  0  0  0  0  0  0  0  0  0  0  0
   -0.6289    2.1775    2.3307 H   0  0  0  0  0  0  0  0  0  0  0  0
    0.3882    1.7670    3.7245 H   0  0  0  0  0  0  0  0  0  0  0  0
   -1.9689    0.1350    0.8298 N   0  0  0  0  0  0  0  0  0  0  0  0
   -2.5039   -0.1183   -0.4830 C   0  0  2  0  0  0  0  0  0  0  0  0
   -1.3858   -0.6821   -1.3530 C   0  0  0  0  0  0  0  0  0  0  0  0
   -0.4589    0.0032   -1.7800 O   0  0  0  0  0  0  0  0  0  0  0  0
   -3.1234    1.1356   -1.0916 C   0  0  0  0  0  0  0  0  0  0  0  0
   -2.1182    2.1128   -1.3364 O   0  0  0  0  0  0  0  0  0  0  0  0
   -2.5276    0.6894    1.4750 H   0  0  0  0  0  0  0  0  0  0  0  0
   -3.2768   -0.8854   -0.3583 H   0  0  0  0  0  0  0  0  0  0  0  0
   -3.8661    1.5743   -0.4175 H   0  0  0  0  0  0  0  0  0  0  0  0
   -3.6094    0.9013   -2.0447 H   0  0  0  0  0  0  0  0  0  0  0  0
   -1.4855    1.7126   -1.9537 H   0  0  0  0  0  0  0  0  0  0  0  0
   -1.5229   -2.0475   -1.5596 N   0  0  0  0  0  0  0  0  0  0  0  0
   -0.5742   -2.8220   -2.3256 C   0  0  2  0  0  0  0  0  0  0  0  0
    0.8093   -2.2260   -2.1016 C   0  0  0  0  0  0  0  0  0  0  0  0
    0.9888   -1.0666   -1.7346 O   0  0  0  0  0  0  0  0  0  0  0  0
   -0.9305   -2.8284   -3.8040 C   0  0  0  0  0  0  0  0  0  0  0  0
   -2.3017   -2.5412   -1.1336 H   0  0  0  0  0  0  0  0  0  0  0  0
   -0.6023   -3.8416   -1.9259 H   0  0  0  0  0  0  0  0  0  0  0  0
   -0.9076   -1.8154   -4.2220 H   0  0  0  0  0  0  0  0  0  0  0  0
   -0.2269   -3.4392   -4.3791 H   0  0  0  0  0  0  0  0  0  0  0  0
   -1.9376   -3.2298   -3.9604 H   0  0  0  0  0  0  0  0  0  0  0  0
    1.8208   -3.1277   -2.4014 N   0  0  0  0  0  0  0  0  0  0  0  0
    3.2215   -2.7962   -2.2818 C   0  0  0  0  0  0  0  0  0  0  0  0
    1.5799   -4.0741   -2.6808 H   0  0  0  0  0  0  0  0  0  0  0  0
    3.5940   -2.4222   -3.2469 H   0  0  0  0  0  0  0  0  0  0  0  0
    3.3500   -2.0196   -1.5135 H   0  0  0  0  0  0  0  0  0  0  0  0
    3.7874   -3.6944   -1.9937 H   0  0  0  0  0  0  0  0  0  0  0  0
  1  3  1  0  0  0  0
  1  7  1  0  0  0  0
  1  2  2  0  0  0  0
 29 30  1  0  0  0  0
 30 38  1  0  0  0  0
 30 31  2  0  0  0  0
  8  9  1  0  0  0  0
  9 17  1  0  0  0  0
  9 10  2  0  0  0  0
 18 19  1  0  0  0  0
 19 28  1  0  0  0  0
 19 20  2  0  0  0  0
 29 32  1  0  0  0  0
  8 11  1  0  0  0  0
 38 39  1  0  0  0  0
 18 21  1  0  0  0  0
 21 22  1  0  0  0  0
 28 29  1  0  0  0  0
  7  8  1  0  0  0  0
 17 18  1  0  0  0  0
  3  4  1  0  0  0  0
  3  5  1  0  0  0  0
  3  6  1  0  0  0  0
 32 35  1  0  0  0  0
 32 36  1  0  0  0  0
 32 37  1  0  0  0  0
 11 14  1  0  0  0  0
 11 15  1  0  0  0  0
 11 16  1  0  0  0  0
 39 41  1  0  0  0  0
 39 42  1  0  0  0  0
 39 43  1  0  0  0  0
 21 25  1  0  0  0  0
 21 26  1  0  0  0  0
 29 34  1  0  0  0  0
  8 13  1  0  0  0  0
 18 24  1  0  0  0  0
 38 40  1  0  0  0  0
  7 12  1  0  0  0  0
 28 33  1  0  0  0  0
 17 23  1  0  0  0  0
 22 27  1  0  0  0  0
M  END
$$$$

  -OEChem-05262214473D

 43 42  0     1  0  0  0  0  0999 V2000
    0.7424   -1.0926    4.5665 C   0  0  0  0  0  0  0  0  0  0  0  0
    0.1409   -0.5364    5.4779 O   0  0  0  0  0  0  0  0  0  0  0  0
    1.7940   -2.1023    4.8871 C   0  0  0  0  0  0  0  0  0  0  0  0
    2.7935   -1.6502    4.9904 H   0  0  0  0  0  0  0  0  0  0  0  0
    1.6064   -2.6156    5.8438 H   0  0  0  0  0  0  0  0  0  0  0  0
    1.9156   -2.9078    4.1453 H   0  0  0  0  0  0  0  0  0  0  0  0
    0.5488   -0.8838    3.2109 N   0  0  0  0  0  0  0  0  0  0  0  0
   -0.4159    0.0446    2.6829 C   0  0  2  0  0  0  0  0  0  0  0  0
   -0.7551   -0.3867    1.2623 C   0  0  0  0  0  0  0  0  0  0  0  0
   -0.0106   -1.0851    0.5774 O   0  0  0  0  0  0  0  0  0  0  0  0
    0.1168    1.4689    2.7060 C   0  0  0  0  0  0  0  0  0  0  0  0
    1.1183   -1.4145    2.5542 H   0  0  0  0  0  0  0  0  0  0  0  0
   -1.3088   -0.0350    3.3125 H   0  0  0  0  0  0  0  0  0  0  0  0
    1.0116    1.5681    2.0808 H   0  0  0  0  0  0  0  0  0  0  0  0
   -0.6289    2.1775    2.3307 H   0  0  0  0  0  0  0  0  0  0  0  0
    0.3882    1.7670    3.7245 H   0  0  0  0  0  0  0  0  0  0  0  0
   -1.9689    0.1350    0.8298 N   0  0  0  0  0  0  0  0  0  0  0  0
   -2.5039   -0.1183   -0.4830 C   0  0  2  0  0  0  0  0  0  0  0  0
   -1.3858   -0.6821   -1.3530 C   0  0  0  0  0  0  0  0  0  0  0  0
   -0.3316   -0.0845   -1.5597 O   0  0  0  0  0  0  0  0  0  0  0  0
   -3.1234    1.1356   -1.0916 C   0  0  0  0  0  0  0  0  0  0  0  0
   -2.1182    2.1128   -1.3364 O   0  0  0  0  0  0  0  0  0  0  0  0
   -2.5276    0.6894    1.4750 H   0  0  0  0  0  0  0  0  0  0  0  0
   -3.2768   -0.8854   -0.3583 H   0  0  0  0  0  0  0  0  0  0  0  0
   -3.8661    1.5743   -0.4175 H   0  0  0  0  0  0  0  0  0  0  0  0
   -3.6094    0.9013   -2.0447 H   0  0  0  0  0  0  0  0  0  0  0  0
   -1.4855    1.7126   -1.9537 H   0  0  0  0  0  0  0  0  0  0  0  0
   -1.6870   -1.9481   -1.8350 N   0  0  0  0  0  0  0  0  0  0  0  0
   -0.7763   -2.7088   -2.6586 C   0  0  2  0  0  0  0  0  0  0  0  0
    0.6433   -2.3883   -2.2098 C   0  0  0  0  0  0  0  0  0  0  0  0
    0.9402   -1.3582   -1.6081 O   0  0  0  0  0  0  0  0  0  0  0  0
   -0.9653   -2.3891   -4.1333 C   0  0  0  0  0  0  0  0  0  0  0  0
   -2.5687   -2.3828   -1.5795 H   0  0  0  0  0  0  0  0  0  0  0  0
   -0.9890   -3.7670   -2.4712 H   0  0  0  0  0  0  0  0  0  0  0  0
   -0.7566   -1.3332   -4.3404 H   0  0  0  0  0  0  0  0  0  0  0  0
   -0.2941   -2.9874   -4.7582 H   0  0  0  0  0  0  0  0  0  0  0  0
   -1.9949   -2.5922   -4.4473 H   0  0  0  0  0  0  0  0  0  0  0  0
    1.5470   -3.3675   -2.5979 N   0  0  0  0  0  0  0  0  0  0  0  0
    2.9583   -3.2874   -2.3017 C   0  0  0  0  0  0  0  0  0  0  0  0
    1.2096   -4.1972   -3.0769 H   0  0  0  0  0  0  0  0  0  0  0  0
    3.4829   -2.8067   -3.1406 H   0  0  0  0  0  0  0  0  0  0  0  0
    3.1079   -2.6941   -1.3876 H   0  0  0  0  0  0  0  0  0  0  0  0
    3.3593   -4.3006   -2.1510 H   0  0  0  0  0  0  0  0  0  0  0  0
  1  3  1  0  0  0  0
  1  7  1  0  0  0  0
  1  2  2  0  0  0  0
 29 30  1  0  0  0  0
 30 38  1  0  0  0  0
 30 31  2  0  0  0  0
  8  9  1  0  0  0  0
  9 17  1  0  0  0  0
  9 10  2  0  0  0  0
 18 19  1  0  0  0  0
 19 28  1  0  0  0  0
 19 20  2  0  0  0  0
 29 32  1  0  0  0  0
  8 11  1  0  0  0  0
 38 39  1  0  0  0  0
 18 21  1  0  0  0  0
 21 22  1  0  0  0  0
 28 29  1  0  0  0  0
  7  8  1  0  0  0  0
 17 18  1  0  0  0  0
  3  4  1  0  0  0  0
  3  5  1  0  0  0  0
  3  6  1  0  0  0  0
 32 35  1  0  0  0  0
 32 36  1  0  0  0  0
 32 37  1  0  0  0  0
 11 14  1  0  0  0  0
 11 15  1  0  0  0  0
 11 16  1  0  0  0  0
 39 41  1  0  0  0  0
 39 42  1  0  0  0  0
 39 43  1  0  0  0  0
 21 25  1  0  0  0  0
 21 26  1  0  0  0  0
 29 34  1  0  0  0  0
  8 13  1  0  0  0  0
 18 24  1  0  0  0  0
 38 40  1  0  0  0  0
  7 12  1  0  0  0  0
 28 33  1  0  0  0  0
 17 23  1  0  0  0  0
 22 27  1  0  0  0  0
M  END
$$$$

  -OEChem-05262214473D

 43 42  0     1  0  0  0  0  0999 V2000
    0.7424   -1.0926    4.5665 C   0  0  0  0  0  0  0  0  0  0  0  0
    0.1409   -0.5364    5.4779 O   0  0  0  0  0  0  0  0  0  0  0  0
    1.7940   -2.1023    4.8871 C   0  0  0  0  0  0  0  0  0  0  0  0
    2.7935   -1.6502    4.9904 H   0  0  0  0  0  0  0  0  0  0  0  0
    1.6064   -2.6156    5.8438 H   0  0  0  0  0  0  0  0  0  0  0  0
    1.9156   -2.9078    4.1453 H   0  0  0  0  0  0  0  0  0  0  0  0
    0.5488   -0.8838    3.2109 N   0  0  0  0  0  0  0  0  0  0  0  0
   -0.4159    0.0446    2.6829 C   0  0  2  0  0  0  0  0  0  0  0  0
   -0.7551   -0.3867    1.2623 C   0  0  0  0  0  0  0  0  0  0  0  0
   -0.0106   -1.0851    0.5774 O   0  0  0  0  0  0  0  0  0  0  0  0
    0.1168    1.4689    2.7060 C   0  0  0  0  0  0  0  0  0  0  0  0
    1.1183   -1.4145    2.5542 H   0  0  0  0  0  0  0  0  0  0  0  0
   -1.3088   -0.0350    3.3125 H   0  0  0  0  0  0  0  0  0  0  0  0
    1.0116    1.5681    2.0808 H   0  0  0  0  0  0  0  0  0  0  0  0
   -0.6289    2.1775    2.3307 H   0  0  0  0  0  0  0  0  0  0  0  0
    0.3882    1.7670    3.7245 H   0  0  0  0  0  0  0  0  0  0  0  0
   -1.9689    0.1350    0.8298 N   0  0  0  0  0  0  0  0  0  0  0  0
   -2.5039   -0.1183   -0.4830 C   0  0  2  0  0  0  0  0  0  0  0  0
   -1.3858   -0.6821   -1.3530 C   0  0  0  0  0  0  0  0  0  0  0  0
   -0.2428   -0.2297   -1.3513 O   0  0  0  0  0  0  0  0  0  0  0  0
   -3.1234    1.1356   -1.0916 C   0  0  0  0  0  0  0  0  0  0  0  0
   -2.1182    2.1128   -1.3364 O   0  0  0  0  0  0  0  0  0  0  0  0
   -2.5276    0.6894    1.4750 H   0  0  0  0  0  0  0  0  0  0  0  0
   -3.2768   -0.8854   -0.3583 H   0  0  0  0  0  0  0  0  0  0  0  0
   -3.8661    1.5743   -0.4175 H   0  0  0  0  0  0  0  0  0  0  0  0
   -3.6094    0.9013   -2.0447 H   0  0  0  0  0  0  0  0  0  0  0  0
   -1.4855    1.7126   -1.9537 H   0  0  0  0  0  0  0  0  0  0  0  0
   -1.8045   -1.7756   -2.0978 N   0  0  0  0  0  0  0  0  0  0  0  0
   -0.9229   -2.5065   -2.9782 C   0  0  2  0  0  0  0  0  0  0  0  0
    0.4694   -2.5001   -2.3609 C   0  0  0  0  0  0  0  0  0  0  0  0
    0.8380   -1.6568   -1.5460 O   0  0  0  0  0  0  0  0  0  0  0  0
   -0.9026   -1.8972   -4.3714 C   0  0  0  0  0  0  0  0  0  0  0  0
   -2.7606   -2.1058   -2.0056 H   0  0  0  0  0  0  0  0  0  0  0  0
   -1.2994   -3.5343   -3.0209 H   0  0  0  0  0  0  0  0  0  0  0  0
   -0.5282   -0.8673   -4.3488 H   0  0  0  0  0  0  0  0  0  0  0  0
   -0.2560   -2.4691   -5.0452 H   0  0  0  0  0  0  0  0  0  0  0  0
   -1.9095   -1.8754   -4.8020 H   0  0  0  0  0  0  0  0  0  0  0  0
    1.2659   -3.5214   -2.8594 N   0  0  0  0  0  0  0  0  0  0  0  0
    2.6335   -3.7192   -2.4393 C   0  0  0  0  0  0  0  0  0  0  0  0
    0.8717   -4.1863   -3.5183 H   0  0  0  0  0  0  0  0  0  0  0  0
    3.3086   -3.1817   -3.1215 H   0  0  0  0  0  0  0  0  0  0  0  0
    2.7624   -3.3338   -1.4171 H   0  0  0  0  0  0  0  0  0  0  0  0
    2.8714   -4.7930   -2.4590 H   0  0  0  0  0  0  0  0  0  0  0  0
  1  3  1  0  0  0  0
  1  7  1  0  0  0  0
  1  2  2  0  0  0  0
 29 30  1  0  0  0  0
 30 38  1  0  0  0  0
 30 31  2  0  0  0  0
  8  9  1  0  0  0  0
  9 17  1  0  0  0  0
  9 10  2  0  0  0  0
 18 19  1  0  0  0  0
 19 28  1  0  0  0  0
 19 20  2  0  0  0  0
 29 32  1  0  0  0  0
  8 11  1  0  0  0  0
 38 39  1  0  0  0  0
 18 21  1  0  0  0  0
 21 22  1  0  0  0  0
 28 29  1  0  0  0  0
  7  8  1  0  0  0  0
 17 18  1  0  0  0  0
  3  4  1  0  0  0  0
  3  5  1  0  0  0  0
  3  6  1  0  0  0  0
 32 35  1  0  0  0  0
 32 36  1  0  0  0  0
 32 37  1  0  0  0  0
 11 14  1  0  0  0  0
 11 15  1  0  0  0  0
 11 16  1  0  0  0  0
 39 41  1  0  0  0  0
 39 42  1  0  0  0  0
 39 43  1  0  0  0  0
 21 25  1  0  0  0  0
 21 26  1  0  0  0  0
 29 34  1  0  0  0  0
  8 13  1  0  0  0  0
 18 24  1  0  0  0  0
 38 40  1  0  0  0  0
  7 12  1  0  0  0  0
 28 33  1  0  0  0  0
 17 23  1  0  0  0  0
 22 27  1  0  0  0  0
M  END
$$$$

  -OEChem-05262214473D

 43 42  0     1  0  0  0  0  0999 V2000
    0.7424   -1.0926    4.5665 C   0  0  0  0  0  0  0  0  0  0  0  0
    0.1409   -0.5364    5.4779 O   0  0  0  0  0  0  0  0  0  0  0  0
    1.7940   -2.1023    4.8871 C   0  0  0  0  0  0  0  0  0  0  0  0
    2.7935   -1.6502    4.9904 H   0  0  0  0  0  0  0  0  0  0  0  0
    1.6064   -2.6156    5.8438 H   0  0  0  0  0  0  0  0  0  0  0  0
    1.9156   -2.9078    4.1453 H   0  0  0  0  0  0  0  0  0  0  0  0
    0.5488   -0.8838    3.2109 N   0  0  0  0  0  0  0  0  0  0  0  0
   -0.4159    0.0446    2.6829 C   0  0  2  0  0  0  0  0  0  0  0  0
   -0.7551   -0.3867    1.2623 C   0  0  0  0  0  0  0  0  0  0  0  0
   -0.0106   -1.0851    0.5774 O   0  0  0  0  0  0  0  0  0  0  0  0
    0.1168    1.4689    2.7060 C   0  0  0  0  0  0  0  0  0  0  0  0
    1.1183   -1.4145    2.5542 H   0  0  0  0  0  0  0  0  0  0  0  0
   -1.3088   -0.0350    3.3125 H   0  0  0  0  0  0  0  0  0  0  0  0
    1.0116    1.5681    2.0808 H   0  0  0  0  0  0  0  0  0  0  0  0
   -0.6289    2.1775    2.3307 H   0  0  0  0  0  0  0  0  0  0  0  0
    0.3882    1.7670    3.7245 H   0  0  0  0  0  0  0  0  0  0  0  0
   -1.9689    0.1350    0.8298 N   0  0  0  0  0  0  0  0  0  0  0  0
   -2.5039   -0.1183   -0.4830 C   0  0  2  0  0  0  0  0  0  0  0  0
   -1.3858   -0.6821   -1.3530 C   0  0  0  0  0  0  0  0  0  0  0  0
   -0.1983   -0.4227   -1.1692 O   0  0  0  0  0  0  0  0  0  0  0  0
   -3.1234    1.1356   -1.0916 C   0  0  0  0  0  0  0  0  0  0  0  0
   -2.1182    2.1128   -1.3364 O   0  0  0  0  0  0  0  0  0  0  0  0
   -2.5276    0.6894    1.4750 H   0  0  0  0  0  0  0  0  0  0  0  0
   -3.2768   -0.8854   -0.3583 H   0  0  0  0  0  0  0  0  0  0  0  0
   -3.8661    1.5743   -0.4175 H   0  0  0  0  0  0  0  0  0  0  0  0
   -3.6094    0.9013   -2.0447 H   0  0  0  0  0  0  0  0  0  0  0  0
   -1.4855    1.7126   -1.9537 H   0  0  0  0  0  0  0  0  0  0  0  0
   -1.8674   -1.5417   -2.3302 N   0  0  0  0  0  0  0  0  0  0  0  0
   -1.0041   -2.2287   -3.2625 C   0  0  2  0  0  0  0  0  0  0  0  0
    0.2993   -2.5537   -2.5448 C   0  0  0  0  0  0  0  0  0  0  0  0
    0.6892   -1.9418   -1.5525 O   0  0  0  0  0  0  0  0  0  0  0  0
   -0.7465   -1.3861   -4.5021 C   0  0  0  0  0  0  0  0  0  0  0  0
   -2.8643   -1.7290   -2.3830 H   0  0  0  0  0  0  0  0  0  0  0  0
   -1.5122   -3.1594   -3.5373 H   0  0  0  0  0  0  0  0  0  0  0  0
   -0.2379   -0.4494   -4.2465 H   0  0  0  0  0  0  0  0  0  0  0  0
   -0.1152   -1.9197   -5.2203 H   0  0  0  0  0  0  0  0  0  0  0  0
   -1.6872   -1.1283   -5.0004 H   0  0  0  0  0  0  0  0  0  0  0  0
    0.9967   -3.5789   -3.1681 N   0  0  0  0  0  0  0  0  0  0  0  0
    2.2692   -4.0622   -2.6852 C   0  0  0  0  0  0  0  0  0  0  0  0
    0.5891   -4.0421   -3.9750 H   0  0  0  0  0  0  0  0  0  0  0  0
    3.0831   -3.5219   -3.1909 H   0  0  0  0  0  0  0  0  0  0  0  0
    2.3370   -3.8950   -1.6001 H   0  0  0  0  0  0  0  0  0  0  0  0
    2.3568   -5.1382   -2.8966 H   0  0  0  0  0  0  0  0  0  0  0  0
  1  3  1  0  0  0  0
  1  7  1  0  0  0  0
  1  2  2  0  0  0  0
 29 30  1  0  0  0  0
 30 38  1  0  0  0  0
 30 31  2  0  0  0  0
  8  9  1  0  0  0  0
  9 17  1  0  0  0  0
  9 10  2  0  0  0  0
 18 19  1  0  0  0  0
 19 28  1  0  0  0  0
 19 20  2  0  0  0  0
 29 32  1  0  0  0  0
  8 11  1  0  0  0  0
 38 39  1  0  0  0  0
 18 21  1  0  0  0  0
 21 22  1  0  0  0  0
 28 29  1  0  0  0  0
  7  8  1  0  0  0  0
 17 18  1  0  0  0  0
  3  4  1  0  0  0  0
  3  5  1  0  0  0  0
  3  6  1  0  0  0  0
 32 35  1  0  0  0  0
 32 36  1  0  0  0  0
 32 37  1  0  0  0  0
 11 14  1  0  0  0  0
 11 15  1  0  0  0  0
 11 16  1  0  0  0  0
 39 41  1  0  0  0  0
 39 42  1  0  0  0  0
 39 43  1  0  0  0  0
 21 25  1  0  0  0  0
 21 26  1  0  0  0  0
 29 34  1  0  0  0  0
  8 13  1  0  0  0  0
 18 24  1  0  0  0  0
 38 40  1  0  0  0  0
  7 12  1  0  0  0  0
 28 33  1  0  0  0  0
 17 23  1  0  0  0  0
 22 27  1  0  0  0  0
M  END
$$$$

  -OEChem-05262214473D

 43 42  0     1  0  0  0  0  0999 V2000
    0.7424   -1.0926    4.5665 C   0  0  0  0  0  0  0  0  0  0  0  0
    0.1409   -0.5364    5.4779 O   0  0  0  0  0  0  0  0  0  0  0  0
    1.7940   -2.1023    4.8871 C   0  0  0  0  0  0  0  0  0  0  0  0
    2.7935   -1.6502    4.9904 H   0  0  0  0  0  0  0  0  0  0  0  0
    1.6064   -2.6156    5.8438 H   0  0  0  0  0  0  0  0  0  0  0  0
    1.9156   -2.9078    4.1453 H   0  0  0  0  0  0  0  0  0  0  0  0
    0.5488   -0.8838    3.2109 N   0  0  0  0  0  0  0  0  0  0  0  0
   -0.4159    0.0446    2.6829 C   0  0  2  0  0  0  0  0  0  0  0  0
   -0.7551   -0.3867    1.2623 C   0  0  0  0  0  0  0  0  0  0  0  0
   -0.0106   -1.0851    0.5774 O   0  0  0  0  0  0  0  0  0  0  0  0
    0.1168    1.4689    2.7060 C   0  0  0  0  0  0  0  0  0  0  0  0
    1.1183   -1.4145    2.5542 H   0  0  0  0  0  0  0  0  0  0  0  0
   -1.3088   -0.0350    3.3125 H   0  0  0  0  0  0  0  0  0  0  0  0
    1.0116    1.5681    2.0808 H   0  0  0  0  0  0  0  0  0  0  0  0
   -0.6289    2.1775    2.3307 H   0  0  0  0  0  0  0  0  0  0  0  0
    0.3882    1.7670    3.7245 H   0  0  0  0  0  0  0  0  0  0  0  0
   -1.9689    0.1350    0.8298 N   0  0  0  0  0  0  0  0  0  0  0  0
   -2.5039   -0.1183   -0.4830 C   0  0  2  0  0  0  0  0  0  0  0  0
   -1.3858   -0.6821   -1.3530 C   0  0  0  0  0  0  0  0  0  0  0  0
   -0.2014   -0.6502   -1.0256 O   0  0  0  0  0  0  0  0  0  0  0  0
   -3.1234    1.1356   -1.0916 C   0  0  0  0  0  0  0  0  0  0  0  0
   -2.1182    2.1128   -1.3364 O   0  0  0  0  0  0  0  0  0  0  0  0
   -2.5276    0.6894    1.4750 H   0  0  0  0  0  0  0  0  0  0  0  0
   -3.2768   -0.8854   -0.3583 H   0  0  0  0  0  0  0  0  0  0  0  0
   -3.8661    1.5743   -0.4175 H   0  0  0  0  0  0  0  0  0  0  0  0
   -3.6094    0.9013   -2.0447 H   0  0  0  0  0  0  0  0  0  0  0  0
   -1.4855    1.7126   -1.9537 H   0  0  0  0  0  0  0  0  0  0  0  0
   -1.8714   -1.2624   -2.5163 N   0  0  0  0  0  0  0  0  0  0  0  0
   -1.0142   -1.8944   -3.4922 C   0  0  2  0  0  0  0  0  0  0  0  0
    0.1447   -2.5454   -2.7488 C   0  0  0  0  0  0  0  0  0  0  0  0
    0.5041   -2.1939   -1.6270 O   0  0  0  0  0  0  0  0  0  0  0  0
   -0.5078   -0.8907   -4.5163 C   0  0  0  0  0  0  0  0  0  0  0  0
   -2.8727   -1.2782   -2.6860 H   0  0  0  0  0  0  0  0  0  0  0  0
   -1.6130   -2.6678   -3.9854 H   0  0  0  0  0  0  0  0  0  0  0  0
    0.0944   -0.1080   -4.0407 H   0  0  0  0  0  0  0  0  0  0  0  0
    0.1186   -1.3765   -5.2717 H   0  0  0  0  0  0  0  0  0  0  0  0
   -1.3432   -0.4019   -5.0291 H   0  0  0  0  0  0  0  0  0  0  0  0
    0.7577   -3.5361   -3.5030 N   0  0  0  0  0  0  0  0  0  0  0  0
    1.8902   -4.2931   -3.0228 C   0  0  0  0  0  0  0  0  0  0  0  0
    0.3811   -3.7744   -4.4157 H   0  0  0  0  0  0  0  0  0  0  0  0
    2.8216   -3.8040   -3.3441 H   0  0  0  0  0  0  0  0  0  0  0  0
    1.8607   -4.3395   -1.9241 H   0  0  0  0  0  0  0  0  0  0  0  0
    1.8507   -5.3125   -3.4341 H   0  0  0  0  0  0  0  0  0  0  0  0
  1  3  1  0  0  0  0
  1  7  1  0  0  0  0
  1  2  2  0  0  0  0
 29 30  1  0  0  0  0
 30 38  1  0  0  0  0
 30 31  2  0  0  0  0
  8  9  1  0  0  0  0
  9 17  1  0  0  0  0
  9 10  2  0  0  0  0
 18 19  1  0  0  0  0
 19 28  1  0  0  0  0
 19 20  2  0  0  0  0
 29 32  1  0  0  0  0
  8 11  1  0  0  0  0
 38 39  1  0  0  0  0
 18 21  1  0  0  0  0
 21 22  1  0  0  0  0
 28 29  1  0  0  0  0
  7  8  1  0  0  0  0
 17 18  1  0  0  0  0
  3  4  1  0  0  0  0
  3  5  1  0  0  0  0
  3  6  1  0  0  0  0
 32 35  1  0  0  0  0
 32 36  1  0  0  0  0
 32 37  1  0  0  0  0
 11 14  1  0  0  0  0
 11 15  1  0  0  0  0
 11 16  1  0  0  0  0
 39 41  1  0  0  0  0
 39 42  1  0  0  0  0
 39 43  1  0  0  0  0
 21 25  1  0  0  0  0
 21 26  1  0  0  0  0
 29 34  1  0  0  0  0
  8 13  1  0  0  0  0
 18 24  1  0  0  0  0
 38 40  1  0  0  0  0
  7 12  1  0  0  0  0
 28 33  1  0  0  0  0
 17 23  1  0  0  0  0
 22 27  1  0  0  0  0
M  END
$$$$

  -OEChem-05262214473D

 43 42  0     1  0  0  0  0  0999 V2000
    0.7424   -1.0926    4.5665 C   0  0  0  0  0  0  0  0  0  0  0  0
    0.1409   -0.5364    5.4779 O   0  0  0  0  0  0  0  0  0  0  0  0
    1.7940   -2.1023    4.8871 C   0  0  0  0  0  0  0  0  0  0  0  0
    2.7935   -1.6502    4.9904 H   0  0  0  0  0  0  0  0  0  0  0  0
    1.6064   -2.6156    5.8438 H   0  0  0  0  0  0  0  0  0  0  0  0
    1.9156   -2.9078    4.1453 H   0  0  0  0  0  0  0  0  0  0  0  0
    0.5488   -0.8838    3.2109 N   0  0  0  0  0  0  0  0  0  0  0  0
   -0.4159    0.0446    2.6829 C   0  0  2  0  0  0  0  0  0  0  0  0
   -0.7551   -0.3867    1.2623 C   0  0  0  0  0  0  0  0  0  0  0  0
   -0.0106   -1.0851    0.5774 O   0  0  0  0  0  0  0  0  0  0  0  0
    0.1168    1.4689    2.7060 C   0  0  0  0  0  0  0  0  0  0  0  0
    1.1183   -1.4145    2.5542 H   0  0  0  0  0  0  0  0  0  0  0  0
   -1.3088   -0.0350    3.3125 H   0  0  0  0  0  0  0  0  0  0  0  0
    1.0116    1.5681    2.0808 H   0  0  0  0  0  0  0  0  0  0  0  0
   -0.6289    2.1775    2.3307 H   0  0  0  0  0  0  0  0  0  0  0  0
    0.3882    1.7670    3.7245 H   0  0  0  0  0  0  0  0  0  0  0  0
   -1.9689    0.1350    0.8298 N   0  0  0  0  0  0  0  0  0  0  0  0
   -2.5039   -0.1183   -0.4830 C   0  0  2  0  0  0  0  0  0  0  0  0
   -1.5233   -1.0132   -1.2331 C   0  0  0  0  0  0  0  0  0  0  0  0
   -0.4880   -1.4430   -0.7287 O   0  0  0  0  0  0  0  0  0  0  0  0
   -2.7859    1.1772   -1.2372 C   0  0  0  0  0  0  0  0  0  0  0  0
   -1.5692    1.8623   -1.5119 O   0  0  0  0  0  0  0  0  0  0  0  0
   -2.5276    0.6894    1.4750 H   0  0  0  0  0  0  0  0  0  0  0  0
   -3.4411   -0.6668   -0.3335 H   0  0  0  0  0  0  0  0  0  0  0  0
   -3.4252    1.8434   -0.6491 H   0  0  0  0  0  0  0  0  0  0  0  0
   -3.2810    0.9673   -2.1913 H   0  0  0  0  0  0  0  0  0  0  0  0
   -1.0294    1.2647   -2.0532 H   0  0  0  0  0  0  0  0  0  0  0  0
   -1.9627   -1.3093   -2.5157 N   0  0  0  0  0  0  0  0  0  0  0  0
   -1.2260   -2.1645   -3.4171 C   0  0  2  0  0  0  0  0  0  0  0  0
   -0.5353   -3.2386   -2.5872 C   0  0  0  0  0  0  0  0  0  0  0  0
   -0.2860   -3.1052   -1.3910 O   0  0  0  0  0  0  0  0  0  0  0  0
   -0.2144   -1.3712   -4.2297 C   0  0  0  0  0  0  0  0  0  0  0  0
   -2.8536   -0.9411   -2.8357 H   0  0  0  0  0  0  0  0  0  0  0  0
   -1.9610   -2.6317   -4.0814 H   0  0  0  0  0  0  0  0  0  0  0  0
    0.5303   -0.8956   -3.5810 H   0  0  0  0  0  0  0  0  0  0  0  0
    0.3231   -2.0160   -4.9326 H   0  0  0  0  0  0  0  0  0  0  0  0
   -0.7095   -0.5799   -4.8029 H   0  0  0  0  0  0  0  0  0  0  0  0
   -0.1914   -4.3463   -3.3495 N   0  0  0  0  0  0  0  0  0  0  0  0
    0.4853   -5.4951   -2.7942 C   0  0  0  0  0  0  0  0  0  0  0  0
   -0.4542   -4.3792   -4.3301 H   0  0  0  0  0  0  0  0  0  0  0  0
    1.5722   -5.3735   -2.9121 H   0  0  0  0  0  0  0  0  0  0  0  0
    0.2402   -5.5838   -1.7256 H   0  0  0  0  0  0  0  0  0  0  0  0
    0.1588   -6.4033   -3.3220 H   0  0  0  0  0  0  0  0  0  0  0  0
  1  3  1  0  0  0  0
  1  7  1  0  0  0  0
  1  2  2  0  0  0  0
 29 30  1  0  0  0  0
 30 38  1  0  0  0  0
 30 31  2  0  0  0  0
  8  9  1  0  0  0  0
  9 17  1  0  0  0  0
  9 10  2  0  0  0  0
 18 19  1  0  0  0  0
 19 28  1  0  0  0  0
 19 20  2  0  0  0  0
 29 32  1  0  0  0  0
  8 11  1  0  0  0  0
 38 39  1  0  0  0  0
 18 21  1  0  0  0  0
 21 22  1  0  0  0  0
 28 29  1  0  0  0  0
  7  8  1  0  0  0  0
 17 18  1  0  0  0  0
  3  4  1  0  0  0  0
  3  5  1  0  0  0  0
  3  6  1  0  0  0  0
 32 35  1  0  0  0  0
 32 36  1  0  0  0  0
 32 37  1  0  0  0  0
 11 14  1  0  0  0  0
 11 15  1  0  0  0  0
 11 16  1  0  0  0  0
 39 41  1  0  0  0  0
 39 42  1  0  0  0  0
 39 43  1  0  0  0  0
 21 25  1  0  0  0  0
 21 26  1  0  0  0  0
 29 34  1  0  0  0  0
  8 13  1  0  0  0  0
 18 24  1  0  0  0  0
 38 40  1  0  0  0  0
  7 12  1  0  0  0  0
 28 33  1  0  0  0  0
 17 23  1  0  0  0  0
 22 27  1  0  0  0  0
M  END
$$$$

  -OEChem-05262214473D

 43 42  0     1  0  0  0  0  0999 V2000
    0.7424   -1.0926    4.5665 C   0  0  0  0  0  0  0  0  0  0  0  0
    0.1409   -0.5364    5.4779 O   0  0  0  0  0  0  0  0  0  0  0  0
    1.7940   -2.1023    4.8871 C   0  0  0  0  0  0  0  0  0  0  0  0
    2.7935   -1.6502    4.9904 H   0  0  0  0  0  0  0  0  0  0  0  0
    1.6064   -2.6156    5.8438 H   0  0  0  0  0  0  0  0  0  0  0  0
    1.9156   -2.9078    4.1453 H   0  0  0  0  0  0  0  0  0  0  0  0
    0.5488   -0.8838    3.2109 N   0  0  0  0  0  0  0  0  0  0  0  0
   -0.4159    0.0446    2.6829 C   0  0  2  0  0  0  0  0  0  0  0  0
   -0.7551   -0.3867    1.2623 C   0  0  0  0  0  0  0  0  0  0  0  0
   -0.0106   -1.0851    0.5774 O   0  0  0  0  0  0  0  0  0  0  0  0
    0.1168    1.4689    2.7060 C   0  0  0  0  0  0  0  0  0  0  0  0
    1.1183   -1.4145    2.5542 H   0  0  0  0  0  0  0  0  0  0  0  0
   -1.3088   -0.0350    3.3125 H   0  0  0  0  0  0  0  0  0  0  0  0
    1.0116    1.5681    2.0808 H   0  0  0  0  0  0  0  0  0  0  0  0
   -0.6289    2.1775    2.3307 H   0  0  0  0  0  0  0  0  0  0  0  0
    0.3882    1.7670    3.7245 H   0  0  0  0  0  0  0  0  0  0  0  0
   -1.9689    0.1350    0.8298 N   0  0  0  0  0  0  0  0  0  0  0  0
   -2.5039   -0.1183   -0.4830 C   0  0  2  0  0  0  0  0  0  0  0  0
   -1.5233   -1.0132   -1.2331 C   0  0  0  0  0  0  0  0  0  0  0  0
   -0.6399   -1.6575   -0.6713 O   0  0  0  0  0  0  0  0  0  0  0  0
   -2.7859    1.1772   -1.2372 C   0  0  0  0  0  0  0  0  0  0  0  0
   -1.5692    1.8623   -1.5119 O   0  0  0  0  0  0  0  0  0  0  0  0
   -2.5276    0.6894    1.4750 H   0  0  0  0  0  0  0  0  0  0  0  0
   -3.4411   -0.6668   -0.3335 H   0  0  0  0  0  0  0  0  0  0  0  0
   -3.4252    1.8434   -0.6491 H   0  0  0  0  0  0  0  0  0  0  0  0
   -3.2810    0.9673   -2.1913 H   0  0  0  0  0  0  0  0  0  0  0  0
   -1.0294    1.2647   -2.0532 H   0  0  0  0  0  0  0  0  0  0  0  0
   -1.7791   -1.0403   -2.5968 N   0  0  0  0  0  0  0  0  0  0  0  0
   -1.0084   -1.8384   -3.5217 C   0  0  2  0  0  0  0  0  0  0  0  0
   -0.5895   -3.1153   -2.8051 C   0  0  0  0  0  0  0  0  0  0  0  0
   -0.5245   -3.2072   -1.5810 O   0  0  0  0  0  0  0  0  0  0  0  0
    0.2059   -1.0774   -4.0306 C   0  0  0  0  0  0  0  0  0  0  0  0
   -2.5580   -0.5053   -2.9693 H   0  0  0  0  0  0  0  0  0  0  0  0
   -1.6742   -2.0881   -4.3549 H   0  0  0  0  0  0  0  0  0  0  0  0
    0.8847   -0.8185   -3.2099 H   0  0  0  0  0  0  0  0  0  0  0  0
    0.7733   -1.6731   -4.7533 H   0  0  0  0  0  0  0  0  0  0  0  0
   -0.0955   -0.1446   -4.5195 H   0  0  0  0  0  0  0  0  0  0  0  0
   -0.2552   -4.1271   -3.6944 N   0  0  0  0  0  0  0  0  0  0  0  0
    0.1862   -5.4321   -3.2605 C   0  0  0  0  0  0  0  0  0  0  0  0
   -0.3570   -3.9689   -4.6925 H   0  0  0  0  0  0  0  0  0  0  0  0
    1.2844   -5.4471   -3.2005 H   0  0  0  0  0  0  0  0  0  0  0  0
   -0.2381   -5.6518   -2.2697 H   0  0  0  0  0  0  0  0  0  0  0  0
   -0.1520   -6.1916   -3.9808 H   0  0  0  0  0  0  0  0  0  0  0  0
  1  3  1  0  0  0  0
  1  7  1  0  0  0  0
  1  2  2  0  0  0  0
 29 30  1  0  0  0  0
 30 38  1  0  0  0  0
 30 31  2  0  0  0  0
  8  9  1  0  0  0  0
  9 17  1  0  0  0  0
  9 10  2  0  0  0  0
 18 19  1  0  0  0  0
 19 28  1  0  0  0  0
 19 20  2  0  0  0  0
 29 32  1  0  0  0  0
  8 11  1  0  0  0  0
 38 39  1  0  0  0  0
 18 21  1  0  0  0  0
 21 22  1  0  0  0  0
 28 29  1  0  0  0  0
  7  8  1  0  0  0  0
 17 18  1  0  0  0  0
  3  4  1  0  0  0  0
  3  5  1  0  0  0  0
  3  6  1  0  0  0  0
 32 35  1  0  0  0  0
 32 36  1  0  0  0  0
 32 37  1  0  0  0  0
 11 14  1  0  0  0  0
 11 15  1  0  0  0  0
 11 16  1  0  0  0  0
 39 41  1  0  0  0  0
 39 42  1  0  0  0  0
 39 43  1  0  0  0  0
 21 25  1  0  0  0  0
 21 26  1  0  0  0  0
 29 34  1  0  0  0  0
  8 13  1  0  0  0  0
 18 24  1  0  0  0  0
 38 40  1  0  0  0  0
  7 12  1  0  0  0  0
 28 33  1  0  0  0  0
 17 23  1  0  0  0  0
 22 27  1  0  0  0  0
M  END
$$$$

  -OEChem-05262214473D

 43 42  0     1  0  0  0  0  0999 V2000
    0.7424   -1.0926    4.5665 C   0  0  0  0  0  0  0  0  0  0  0  0
    0.1409   -0.5364    5.4779 O   0  0  0  0  0  0  0  0  0  0  0  0
    1.7940   -2.1023    4.8871 C   0  0  0  0  0  0  0  0  0  0  0  0
    2.7935   -1.6502    4.9904 H   0  0  0  0  0  0  0  0  0  0  0  0
    1.6064   -2.6156    5.8438 H   0  0  0  0  0  0  0  0  0  0  0  0
    1.9156   -2.9078    4.1453 H   0  0  0  0  0  0  0  0  0  0  0  0
    0.5488   -0.8838    3.2109 N   0  0  0  0  0  0  0  0  0  0  0  0
   -0.4159    0.0446    2.6829 C   0  0  2  0  0  0  0  0  0  0  0  0
   -0.7551   -0.3867    1.2623 C   0  0  0  0  0  0  0  0  0  0  0  0
   -0.0106   -1.0851    0.5774 O   0  0  0  0  0  0  0  0  0  0  0  0
    0.1168    1.4689    2.7060 C   0  0  0  0  0  0  0  0  0  0  0  0
    1.1183   -1.4145    2.5542 H   0  0  0  0  0  0  0  0  0  0  0  0
   -1.3088   -0.0350    3.3125 H   0  0  0  0  0  0  0  0  0  0  0  0
    1.0116    1.5681    2.0808 H   0  0  0  0  0  0  0  0  0  0  0  0
   -0.6289    2.1775    2.3307 H   0  0  0  0  0  0  0  0  0  0  0  0
    0.3882    1.7670    3.7245 H   0  0  0  0  0  0  0  0  0  0  0  0
   -1.9689    0.1350    0.8298 N   0  0  0  0  0  0  0  0  0  0  0  0
   -2.5039   -0.1183   -0.4830 C   0  0  2  0  0  0  0  0  0  0  0  0
   -1.5233   -1.0132   -1.2331 C   0  0  0  0  0  0  0  0  0  0  0  0
   -0.8227   -1.8549   -0.6747 O   0  0  0  0  0  0  0  0  0  0  0  0
   -2.7859    1.1772   -1.2372 C   0  0  0  0  0  0  0  0  0  0  0  0
   -1.5692    1.8623   -1.5119 O   0  0  0  0  0  0  0  0  0  0  0  0
   -2.5276    0.6894    1.4750 H   0  0  0  0  0  0  0  0  0  0  0  0
   -3.4411   -0.6668   -0.3335 H   0  0  0  0  0  0  0  0  0  0  0  0
   -3.4252    1.8434   -0.6491 H   0  0  0  0  0  0  0  0  0  0  0  0
   -3.2810    0.9673   -2.1913 H   0  0  0  0  0  0  0  0  0  0  0  0
   -1.0294    1.2647   -2.0532 H   0  0  0  0  0  0  0  0  0  0  0  0
   -1.5553   -0.7902   -2.6024 N   0  0  0  0  0  0  0  0  0  0  0  0
   -0.7408   -1.5338   -3.5353 C   0  0  2  0  0  0  0  0  0  0  0  0
   -0.5930   -2.9531   -3.0033 C   0  0  0  0  0  0  0  0  0  0  0  0
   -0.7389   -3.2437   -1.8178 O   0  0  0  0  0  0  0  0  0  0  0  0
    0.6191   -0.8802   -3.7257 C   0  0  0  0  0  0  0  0  0  0  0  0
   -2.1968   -0.0997   -2.9810 H   0  0  0  0  0  0  0  0  0  0  0  0
   -1.2863   -1.5541   -4.4851 H   0  0  0  0  0  0  0  0  0  0  0  0
    1.1805   -0.8508   -2.7846 H   0  0  0  0  0  0  0  0  0  0  0  0
    1.2245   -1.4290   -4.4546 H   0  0  0  0  0  0  0  0  0  0  0  0
    0.5101    0.1505   -4.0800 H   0  0  0  0  0  0  0  0  0  0  0  0
   -0.2366   -3.8499   -4.0008 N   0  0  0  0  0  0  0  0  0  0  0  0
   -0.0240   -5.2555   -3.7458 C   0  0  0  0  0  0  0  0  0  0  0  0
   -0.1558   -3.5246   -4.9596 H   0  0  0  0  0  0  0  0  0  0  0  0
    1.0409   -5.4335   -3.5350 H   0  0  0  0  0  0  0  0  0  0  0  0
   -0.6261   -5.5660   -2.8792 H   0  0  0  0  0  0  0  0  0  0  0  0
   -0.3251   -5.8379   -4.6291 H   0  0  0  0  0  0  0  0  0  0  0  0
  1  3  1  0  0  0  0
  1  7  1  0  0  0  0
  1  2  2  0  0  0  0
 29 30  1  0  0  0  0
 30 38  1  0  0  0  0
 30 31  2  0  0  0  0
  8  9  1  0  0  0  0
  9 17  1  0  0  0  0
  9 10  2  0  0  0  0
 18 19  1  0  0  0  0
 19 28  1  0  0  0  0
 19 20  2  0  0  0  0
 29 32  1  0  0  0  0
  8 11  1  0  0  0  0
 38 39  1  0  0  0  0
 18 21  1  0  0  0  0
 21 22  1  0  0  0  0
 28 29  1  0  0  0  0
  7  8  1  0  0  0  0
 17 18  1  0  0  0  0
  3  4  1  0  0  0  0
  3  5  1  0  0  0  0
  3  6  1  0  0  0  0
 32 35  1  0  0  0  0
 32 36  1  0  0  0  0
 32 37  1  0  0  0  0
 11 14  1  0  0  0  0
 11 15  1  0  0  0  0
 11 16  1  0  0  0  0
 39 41  1  0  0  0  0
 39 42  1  0  0  0  0
 39 43  1  0  0  0  0
 21 25  1  0  0  0  0
 21 26  1  0  0  0  0
 29 34  1  0  0  0  0
  8 13  1  0  0  0  0
 18 24  1  0  0  0  0
 38 40  1  0  0  0  0
  7 12  1  0  0  0  0
 28 33  1  0  0  0  0
 17 23  1  0  0  0  0
 22 27  1  0  0  0  0
M  END
$$$$

  -OEChem-05262214473D

 43 42  0     1  0  0  0  0  0999 V2000
    0.7424   -1.0926    4.5665 C   0  0  0  0  0  0  0  0  0  0  0  0
    0.1409   -0.5364    5.4779 O   0  0  0  0  0  0  0  0  0  0  0  0
    1.7940   -2.1023    4.8871 C   0  0  0  0  0  0  0  0  0  0  0  0
    2.7935   -1.6502    4.9904 H   0  0  0  0  0  0  0  0  0  0  0  0
    1.6064   -2.6156    5.8438 H   0  0  0  0  0  0  0  0  0  0  0  0
    1.9156   -2.9078    4.1453 H   0  0  0  0  0  0  0  0  0  0  0  0
    0.5488   -0.8838    3.2109 N   0  0  0  0  0  0  0  0  0  0  0  0
   -0.4159    0.0446    2.6829 C   0  0  2  0  0  0  0  0  0  0  0  0
   -0.7551   -0.3867    1.2623 C   0  0  0  0  0  0  0  0  0  0  0  0
   -0.0106   -1.0851    0.5774 O   0  0  0  0  0  0  0  0  0  0  0  0
    0.1168    1.4689    2.7060 C   0  0  0  0  0  0  0  0  0  0  0  0
    1.1183   -1.4145    2.5542 H   0  0  0  0  0  0  0  0  0  0  0  0
   -1.3088   -0.0350    3.3125 H   0  0  0  0  0  0  0  0  0  0  0  0
    1.0116    1.5681    2.0808 H   0  0  0  0  0  0  0  0  0  0  0  0
   -0.6289    2.1775    2.3307 H   0  0  0  0  0  0  0  0  0  0  0  0
    0.3882    1.7670    3.7245 H   0  0  0  0  0  0  0  0  0  0  0  0
   -1.9689    0.1350    0.8298 N   0  0  0  0  0  0  0  0  0  0  0  0
   -2.5039   -0.1183   -0.4830 C   0  0  2  0  0  0  0  0  0  0  0  0
   -1.5233   -1.0132   -1.2331 C   0  0  0  0  0  0  0  0  0  0  0  0
   -1.0239   -2.0218   -0.7387 O   0  0  0  0  0  0  0  0  0  0  0  0
   -2.7859    1.1772   -1.2372 C   0  0  0  0  0  0  0  0  0  0  0  0
   -1.5692    1.8623   -1.5119 O   0  0  0  0  0  0  0  0  0  0  0  0
   -2.5276    0.6894    1.4750 H   0  0  0  0  0  0  0  0  0  0  0  0
   -3.4411   -0.6668   -0.3335 H   0  0  0  0  0  0  0  0  0  0  0  0
   -3.4252    1.8434   -0.6491 H   0  0  0  0  0  0  0  0  0  0  0  0
   -3.2810    0.9673   -2.1913 H   0  0  0  0  0  0  0  0  0  0  0  0
   -1.0294    1.2647   -2.0532 H   0  0  0  0  0  0  0  0  0  0  0  0
   -1.3063   -0.5763   -2.5322 N   0  0  0  0  0  0  0  0  0  0  0  0
   -0.4415   -1.2713   -3.4572 C   0  0  2  0  0  0  0  0  0  0  0  0
   -0.5456   -2.7630   -3.1682 C   0  0  0  0  0  0  0  0  0  0  0  0
   -0.9148   -3.2123   -2.0852 O   0  0  0  0  0  0  0  0  0  0  0  0
    0.9970   -0.7932   -3.3355 C   0  0  0  0  0  0  0  0  0  0  0  0
   -1.7944    0.2480   -2.8698 H   0  0  0  0  0  0  0  0  0  0  0  0
   -0.8239   -1.0659   -4.4630 H   0  0  0  0  0  0  0  0  0  0  0  0
    1.3974   -0.9905   -2.3344 H   0  0  0  0  0  0  0  0  0  0  0  0
    1.6461   -1.3005   -4.0569 H   0  0  0  0  0  0  0  0  0  0  0  0
    1.0658    0.2853   -3.5143 H   0  0  0  0  0  0  0  0  0  0  0  0
   -0.1367   -3.5335   -4.2477 N   0  0  0  0  0  0  0  0  0  0  0  0
   -0.1307   -4.9774   -4.2172 C   0  0  0  0  0  0  0  0  0  0  0  0
    0.1357   -3.0766   -5.1131 H   0  0  0  0  0  0  0  0  0  0  0  0
    0.8582   -5.3337   -3.8929 H   0  0  0  0  0  0  0  0  0  0  0  0
   -0.8973   -5.3323   -3.5126 H   0  0  0  0  0  0  0  0  0  0  0  0
   -0.3488   -5.3662   -5.2228 H   0  0  0  0  0  0  0  0  0  0  0  0
  1  3  1  0  0  0  0
  1  7  1  0  0  0  0
  1  2  2  0  0  0  0
 29 30  1  0  0  0  0
 30 38  1  0  0  0  0
 30 31  2  0  0  0  0
  8  9  1  0  0  0  0
  9 17  1  0  0  0  0
  9 10  2  0  0  0  0
 18 19  1  0  0  0  0
 19 28  1  0  0  0  0
 19 20  2  0  0  0  0
 29 32  1  0  0  0  0
  8 11  1  0  0  0  0
 38 39  1  0  0  0  0
 18 21  1  0  0  0  0
 21 22  1  0  0  0  0
 28 29  1  0  0  0  0
  7  8  1  0  0  0  0
 17 18  1  0  0  0  0
  3  4  1  0  0  0  0
  3  5  1  0  0  0  0
  3  6  1  0  0  0  0
 32 35  1  0  0  0  0
 32 36  1  0  0  0  0
 32 37  1  0  0  0  0
 11 14  1  0  0  0  0
 11 15  1  0  0  0  0
 11 16  1  0  0  0  0
 39 41  1  0  0  0  0
 39 42  1  0  0  0  0
 39 43  1  0  0  0  0
 21 25  1  0  0  0  0
 21 26  1  0  0  0  0
 29 34  1  0  0  0  0
  8 13  1  0  0  0  0
 18 24  1  0  0  0  0
 38 40  1  0  0  0  0
  7 12  1  0  0  0  0
 28 33  1  0  0  0  0
 17 23  1  0  0  0  0
 22 27  1  0  0  0  0
M  END
$$$$

  -OEChem-05262214473D

 43 42  0     1  0  0  0  0  0999 V2000
    0.7424   -1.0926    4.5665 C   0  0  0  0  0  0  0  0  0  0  0  0
    0.1409   -0.5364    5.4779 O   0  0  0  0  0  0  0  0  0  0  0  0
    1.7940   -2.1023    4.8871 C   0  0  0  0  0  0  0  0  0  0  0  0
    2.7935   -1.6502    4.9904 H   0  0  0  0  0  0  0  0  0  0  0  0
    1.6064   -2.6156    5.8438 H   0  0  0  0  0  0  0  0  0  0  0  0
    1.9156   -2.9078    4.1453 H   0  0  0  0  0  0  0  0  0  0  0  0
    0.5488   -0.8838    3.2109 N   0  0  0  0  0  0  0  0  0  0  0  0
   -0.4159    0.0446    2.6829 C   0  0  2  0  0  0  0  0  0  0  0  0
   -0.7551   -0.3867    1.2623 C   0  0  0  0  0  0  0  0  0  0  0  0
   -0.0106   -1.0851    0.5774 O   0  0  0  0  0  0  0  0  0  0  0  0
    0.1168    1.4689    2.7060 C   0  0  0  0  0  0  0  0  0  0  0  0
    1.1183   -1.4145    2.5542 H   0  0  0  0  0  0  0  0  0  0  0  0
   -1.3088   -0.0350    3.3125 H   0  0  0  0  0  0  0  0  0  0  0  0
    1.0116    1.5681    2.0808 H   0  0  0  0  0  0  0  0  0  0  0  0
   -0.6289    2.1775    2.3307 H   0  0  0  0  0  0  0  0  0  0  0  0
    0.3882    1.7670    3.7245 H   0  0  0  0  0  0  0  0  0  0  0  0
   -1.9689    0.1350    0.8298 N   0  0  0  0  0  0  0  0  0  0  0  0
   -2.5039   -0.1183   -0.4830 C   0  0  2  0  0  0  0  0  0  0  0  0
   -1.5233   -1.0132   -1.2331 C   0  0  0  0  0  0  0  0  0  0  0  0
   -1.2297   -2.1467   -0.8587 O   0  0  0  0  0  0  0  0  0  0  0  0
   -2.7859    1.1772   -1.2372 C   0  0  0  0  0  0  0  0  0  0  0  0
   -1.5692    1.8623   -1.5119 O   0  0  0  0  0  0  0  0  0  0  0  0
   -2.5276    0.6894    1.4750 H   0  0  0  0  0  0  0  0  0  0  0  0
   -3.4411   -0.6668   -0.3335 H   0  0  0  0  0  0  0  0  0  0  0  0
   -3.4252    1.8434   -0.6491 H   0  0  0  0  0  0  0  0  0  0  0  0
   -3.2810    0.9673   -2.1913 H   0  0  0  0  0  0  0  0  0  0  0  0
   -1.0294    1.2647   -2.0532 H   0  0  0  0  0  0  0  0  0  0  0  0
   -1.0493   -0.4130   -2.3910 N   0  0  0  0  0  0  0  0  0  0  0  0
   -0.1308   -1.0689   -3.2926 C   0  0  2  0  0  0  0  0  0  0  0  0
   -0.4506   -2.5579   -3.2887 C   0  0  0  0  0  0  0  0  0  0  0  0
   -1.0400   -3.1150   -2.3650 O   0  0  0  0  0  0  0  0  0  0  0  0
    1.3139   -0.8222   -2.8867 C   0  0  0  0  0  0  0  0  0  0  0  0
   -1.3784    0.5142   -2.6435 H   0  0  0  0  0  0  0  0  0  0  0  0
   -0.3185   -0.6570   -4.2901 H   0  0  0  0  0  0  0  0  0  0  0  0
    1.5208   -1.2279   -1.8897 H   0  0  0  0  0  0  0  0  0  0  0  0
    2.0093   -1.2961   -3.5873 H   0  0  0  0  0  0  0  0  0  0  0  0
    1.5338    0.2506   -2.8611 H   0  0  0  0  0  0  0  0  0  0  0  0
    0.0375   -3.1994   -4.4184 N   0  0  0  0  0  0  0  0  0  0  0  0
   -0.1268   -4.6168   -4.6424 C   0  0  0  0  0  0  0  0  0  0  0  0
    0.4976   -2.6554   -5.1425 H   0  0  0  0  0  0  0  0  0  0  0  0
    0.7488   -5.1545   -4.2498 H   0  0  0  0  0  0  0  0  0  0  0  0
   -1.0334   -4.9666   -4.1268 H   0  0  0  0  0  0  0  0  0  0  0  0
   -0.2215   -4.8088   -5.7213 H   0  0  0  0  0  0  0  0  0  0  0  0
  1  3  1  0  0  0  0
  1  7  1  0  0  0  0
  1  2  2  0  0  0  0
 29 30  1  0  0  0  0
 30 38  1  0  0  0  0
 30 31  2  0  0  0  0
  8  9  1  0  0  0  0
  9 17  1  0  0  0  0
  9 10  2  0  0  0  0
 18 19  1  0  0  0  0
 19 28  1  0  0  0  0
 19 20  2  0  0  0  0
 29 32  1  0  0  0  0
  8 11  1  0  0  0  0
 38 39  1  0  0  0  0
 18 21  1  0  0  0  0
 21 22  1  0  0  0  0
 28 29  1  0  0  0  0
  7  8  1  0  0  0  0
 17 18  1  0  0  0  0
  3  4  1  0  0  0  0
  3  5  1  0  0  0  0
  3  6  1  0  0  0  0
 32 35  1  0  0  0  0
 32 36  1  0  0  0  0
 32 37  1  0  0  0  0
 11 14  1  0  0  0  0
 11 15  1  0  0  0  0
 11 16  1  0  0  0  0
 39 41  1  0  0  0  0
 39 42  1  0  0  0  0
 39 43  1  0  0  0  0
 21 25  1  0  0  0  0
 21 26  1  0  0  0  0
 29 34  1  0  0  0  0
  8 13  1  0  0  0  0
 18 24  1  0  0  0  0
 38 40  1  0  0  0  0
  7 12  1  0  0  0  0
 28 33  1  0  0  0  0
 17 23  1  0  0  0  0
 22 27  1  0  0  0  0
M  END
$$$$

  -OEChem-05262214473D

 43 42  0     1  0  0  0  0  0999 V2000
    0.7424   -1.0926    4.5665 C   0  0  0  0  0  0  0  0  0  0  0  0
    0.1409   -0.5364    5.4779 O   0  0  0  0  0  0  0  0  0  0  0  0
    1.7940   -2.1023    4.8871 C   0  0  0  0  0  0  0  0  0  0  0  0
    2.7935   -1.6502    4.9904 H   0  0  0  0  0  0  0  0  0  0  0  0
    1.6064   -2.6156    5.8438 H   0  0  0  0  0  0  0  0  0  0  0  0
    1.9156   -2.9078    4.1453 H   0  0  0  0  0  0  0  0  0  0  0  0
    0.5488   -0.8838    3.2109 N   0  0  0  0  0  0  0  0  0  0  0  0
   -0.4159    0.0446    2.6829 C   0  0  2  0  0  0  0  0  0  0  0  0
   -0.7551   -0.3867    1.2623 C   0  0  0  0  0  0  0  0  0  0  0  0
   -0.0106   -1.0851    0.5774 O   0  0  0  0  0  0  0  0  0  0  0  0
    0.1168    1.4689    2.7060 C   0  0  0  0  0  0  0  0  0  0  0  0
    1.1183   -1.4145    2.5542 H   0  0  0  0  0  0  0  0  0  0  0  0
   -1.3088   -0.0350    3.3125 H   0  0  0  0  0  0  0  0  0  0  0  0
    1.0116    1.5681    2.0808 H   0  0  0  0  0  0  0  0  0  0  0  0
   -0.6289    2.1775    2.3307 H   0  0  0  0  0  0  0  0  0  0  0  0
    0.3882    1.7670    3.7245 H   0  0  0  0  0  0  0  0  0  0  0  0
   -1.9689    0.1350    0.8298 N   0  0  0  0  0  0  0  0  0  0  0  0
   -2.5039   -0.1183   -0.4830 C   0  0  2  0  0  0  0  0  0  0  0  0
   -1.5233   -1.0132   -1.2331 C   0  0  0  0  0  0  0  0  0  0  0  0
   -1.4262   -2.2212   -1.0268 O   0  0  0  0  0  0  0  0  0  0  0  0
   -2.7859    1.1772   -1.2372 C   0  0  0  0  0  0  0  0  0  0  0  0
   -1.5692    1.8623   -1.5119 O   0  0  0  0  0  0  0  0  0  0  0  0
   -2.5276    0.6894    1.4750 H   0  0  0  0  0  0  0  0  0  0  0  0
   -3.4411   -0.6668   -0.3335 H   0  0  0  0  0  0  0  0  0  0  0  0
   -3.4252    1.8434   -0.6491 H   0  0  0  0  0  0  0  0  0  0  0  0
   -3.2810    0.9673   -2.1913 H   0  0  0  0  0  0  0  0  0  0  0  0
   -1.0294    1.2647   -2.0532 H   0  0  0  0  0  0  0  0  0  0  0  0
   -0.8017   -0.3116   -2.1884 N   0  0  0  0  0  0  0  0  0  0  0  0
    0.1700   -0.9403   -3.0527 C   0  0  2  0  0  0  0  0  0  0  0  0
   -0.3145   -2.3518   -3.3566 C   0  0  0  0  0  0  0  0  0  0  0  0
   -1.1061   -2.9585   -2.6380 O   0  0  0  0  0  0  0  0  0  0  0  0
    1.5481   -0.9652   -2.4099 C   0  0  0  0  0  0  0  0  0  0  0  0
   -0.9770    0.6806   -2.3173 H   0  0  0  0  0  0  0  0  0  0  0  0
    0.1955   -0.3551   -3.9784 H   0  0  0  0  0  0  0  0  0  0  0  0
    1.5422   -1.5470   -1.4810 H   0  0  0  0  0  0  0  0  0  0  0  0
    2.2893   -1.4163   -3.0778 H   0  0  0  0  0  0  0  0  0  0  0  0
    1.8822    0.0488   -2.1649 H   0  0  0  0  0  0  0  0  0  0  0  0
    0.2743   -2.8706   -4.5013 N   0  0  0  0  0  0  0  0  0  0  0  0
   -0.0126   -4.1981   -4.9925 C   0  0  0  0  0  0  0  0  0  0  0  0
    0.9052   -2.2898   -5.0458 H   0  0  0  0  0  0  0  0  0  0  0  0
    0.7201   -4.9081   -4.5812 H   0  0  0  0  0  0  0  0  0  0  0  0
   -1.0249   -4.4938   -4.6798 H   0  0  0  0  0  0  0  0  0  0  0  0
    0.0482   -4.2037   -6.0908 H   0  0  0  0  0  0  0  0  0  0  0  0
  1  3  1  0  0  0  0
  1  7  1  0  0  0  0
  1  2  2  0  0  0  0
 29 30  1  0  0  0  0
 30 38  1  0  0  0  0
 30 31  2  0  0  0  0
  8  9  1  0  0  0  0
  9 17  1  0  0  0  0
  9 10  2  0  0  0  0
 18 19  1  0  0  0  0
 19 28  1  0  0  0  0
 19 20  2  0  0  0  0
 29 32  1  0  0  0  0
  8 11  1  0  0  0  0
 38 39  1  0  0  0  0
 18 21  1  0  0  0  0
 21 22  1  0  0  0  0
 28 29  1  0  0  0  0
  7  8  1  0  0  0  0
 17 18  1  0  0  0  0
  3  4  1  0  0  0  0
  3  5  1  0  0  0  0
  3  6  1  0  0  0  0
 32 35  1  0  0  0  0
 32 36  1  0  0  0  0
 32 37  1  0  0  0  0
 11 14  1  0  0  0  0
 11 15  1  0  0  0  0
 11 16  1  0  0  0  0
 39 41  1  0  0  0  0
 39 42  1  0  0  0  0
 39 43  1  0  0  0  0
 21 25  1  0  0  0  0
 21 26  1  0  0  0  0
 29 34  1  0  0  0  0
  8 13  1  0  0  0  0
 18 24  1  0  0  0  0
 38 40  1  0  0  0  0
  7 12  1  0  0  0  0
 28 33  1  0  0  0  0
 17 23  1  0  0  0  0
 22 27  1  0  0  0  0
M  END
$$$$

  -OEChem-05262214473D

 43 42  0     1  0  0  0  0  0999 V2000
    0.7424   -1.0926    4.5665 C   0  0  0  0  0  0  0  0  0  0  0  0
    0.1409   -0.5364    5.4779 O   0  0  0  0  0  0  0  0  0  0  0  0
    1.7940   -2.1023    4.8871 C   0  0  0  0  0  0  0  0  0  0  0  0
    2.7935   -1.6502    4.9904 H   0  0  0  0  0  0  0  0  0  0  0  0
    1.6064   -2.6156    5.8438 H   0  0  0  0  0  0  0  0  0  0  0  0
    1.9156   -2.9078    4.1453 H   0  0  0  0  0  0  0  0  0  0  0  0
    0.5488   -0.8838    3.2109 N   0  0  0  0  0  0  0  0  0  0  0  0
   -0.4159    0.0446    2.6829 C   0  0  2  0  0  0  0  0  0  0  0  0
   -0.7551   -0.3867    1.2623 C   0  0  0  0  0  0  0  0  0  0  0  0
   -0.0106   -1.0851    0.5774 O   0  0  0  0  0  0  0  0  0  0  0  0
    0.1168    1.4689    2.7060 C   0  0  0  0  0  0  0  0  0  0  0  0
    1.1183   -1.4145    2.5542 H   0  0  0  0  0  0  0  0  0  0  0  0
   -1.3088   -0.0350    3.3125 H   0  0  0  0  0  0  0  0  0  0  0  0
    1.0116    1.5681    2.0808 H   0  0  0  0  0  0  0  0  0  0  0  0
   -0.6289    2.1775    2.3307 H   0  0  0  0  0  0  0  0  0  0  0  0
    0.3882    1.7670    3.7245 H   0  0  0  0  0  0  0  0  0  0  0  0
   -1.9689    0.1350    0.8298 N   0  0  0  0  0  0  0  0  0  0  0  0
   -2.5039   -0.1183   -0.4830 C   0  0  2  0  0  0  0  0  0  0  0  0
   -1.5233   -1.0132   -1.2331 C   0  0  0  0  0  0  0  0  0  0  0  0
   -1.6000   -2.2401   -1.2313 O   0  0  0  0  0  0  0  0  0  0  0  0
   -2.7859    1.1772   -1.2372 C   0  0  0  0  0  0  0  0  0  0  0  0
   -1.5692    1.8623   -1.5119 O   0  0  0  0  0  0  0  0  0  0  0  0
   -2.5276    0.6894    1.4750 H   0  0  0  0  0  0  0  0  0  0  0  0
   -3.4411   -0.6668   -0.3335 H   0  0  0  0  0  0  0  0  0  0  0  0
   -3.4252    1.8434   -0.6491 H   0  0  0  0  0  0  0  0  0  0  0  0
   -3.2810    0.9673   -2.1913 H   0  0  0  0  0  0  0  0  0  0  0  0
   -1.0294    1.2647   -2.0532 H   0  0  0  0  0  0  0  0  0  0  0  0
   -0.5804   -0.2788   -1.9382 N   0  0  0  0  0  0  0  0  0  0  0  0
    0.4405   -0.8944   -2.7538 C   0  0  2  0  0  0  0  0  0  0  0  0
   -0.1464   -2.1589   -3.3671 C   0  0  0  0  0  0  0  0  0  0  0  0
   -1.1086   -2.7536   -2.8858 O   0  0  0  0  0  0  0  0  0  0  0  0
    1.6836   -1.2125   -1.9376 C   0  0  0  0  0  0  0  0  0  0  0  0
   -0.6177    0.7360   -1.9136 H   0  0  0  0  0  0  0  0  0  0  0  0
    0.6831   -0.1808   -3.5489 H   0  0  0  0  0  0  0  0  0  0  0  0
    1.4602   -1.9260   -1.1361 H   0  0  0  0  0  0  0  0  0  0  0  0
    2.4671   -1.6529   -2.5632 H   0  0  0  0  0  0  0  0  0  0  0  0
    2.0873   -0.3064   -1.4730 H   0  0  0  0  0  0  0  0  0  0  0  0
    0.5575   -2.5693   -4.4906 N   0  0  0  0  0  0  0  0  0  0  0  0
    0.2043   -3.7500   -5.2436 C   0  0  0  0  0  0  0  0  0  0  0  0
    1.3308   -2.0047   -4.8296 H   0  0  0  0  0  0  0  0  0  0  0  0
    0.7741   -4.6113   -4.8647 H   0  0  0  0  0  0  0  0  0  0  0  0
   -0.8725   -3.9462   -5.1340 H   0  0  0  0  0  0  0  0  0  0  0  0
    0.4419   -3.5920   -6.3059 H   0  0  0  0  0  0  0  0  0  0  0  0
  1  3  1  0  0  0  0
  1  7  1  0  0  0  0
  1  2  2  0  0  0  0
 29 30  1  0  0  0  0
 30 38  1  0  0  0  0
 30 31  2  0  0  0  0
  8  9  1  0  0  0  0
  9 17  1  0  0  0  0
  9 10  2  0  0  0  0
 18 19  1  0  0  0  0
 19 28  1  0  0  0  0
 19 20  2  0  0  0  0
 29 32  1  0  0  0  0
  8 11  1  0  0  0  0
 38 39  1  0  0  0  0
 18 21  1  0  0  0  0
 21 22  1  0  0  0  0
 28 29  1  0  0  0  0
  7  8  1  0  0  0  0
 17 18  1  0  0  0  0
  3  4  1  0  0  0  0
  3  5  1  0  0  0  0
  3  6  1  0  0  0  0
 32 35  1  0  0  0  0
 32 36  1  0  0  0  0
 32 37  1  0  0  0  0
 11 14  1  0  0  0  0
 11 15  1  0  0  0  0
 11 16  1  0  0  0  0
 39 41  1  0  0  0  0
 39 42  1  0  0  0  0
 39 43  1  0  0  0  0
 21 25  1  0  0  0  0
 21 26  1  0  0  0  0
 29 34  1  0  0  0  0
  8 13  1  0  0  0  0
 18 24  1  0  0  0  0
 38 40  1  0  0  0  0
  7 12  1  0  0  0  0
 28 33  1  0  0  0  0
 17 23  1  0  0  0  0
 22 27  1  0  0  0  0
M  END
$$$$

  -OEChem-05262214473D

 43 42  0     1  0  0  0  0  0999 V2000
    0.7424   -1.0926    4.5665 C   0  0  0  0  0  0  0  0  0  0  0  0
    0.1409   -0.5364    5.4779 O   0  0  0  0  0  0  0  0  0  0  0  0
    1.7940   -2.1023    4.8871 C   0  0  0  0  0  0  0  0  0  0  0  0
    2.7935   -1.6502    4.9904 H   0  0  0  0  0  0  0  0  0  0  0  0
    1.6064   -2.6156    5.8438 H   0  0  0  0  0  0  0  0  0  0  0  0
    1.9156   -2.9078    4.1453 H   0  0  0  0  0  0  0  0  0  0  0  0
    0.5488   -0.8838    3.2109 N   0  0  0  0  0  0  0  0  0  0  0  0
   -0.4159    0.0446    2.6829 C   0  0  2  0  0  0  0  0  0  0  0  0
   -0.7551   -0.3867    1.2623 C   0  0  0  0  0  0  0  0  0  0  0  0
   -0.0106   -1.0851    0.5774 O   0  0  0  0  0  0  0  0  0  0  0  0
    0.1168    1.4689    2.7060 C   0  0  0  0  0  0  0  0  0  0  0  0
    1.1183   -1.4145    2.5542 H   0  0  0  0  0  0  0  0  0  0  0  0
   -1.3088   -0.0350    3.3125 H   0  0  0  0  0  0  0  0  0  0  0  0
    1.0116    1.5681    2.0808 H   0  0  0  0  0  0  0  0  0  0  0  0
   -0.6289    2.1775    2.3307 H   0  0  0  0  0  0  0  0  0  0  0  0
    0.3882    1.7670    3.7245 H   0  0  0  0  0  0  0  0  0  0  0  0
   -1.9689    0.1350    0.8298 N   0  0  0  0  0  0  0  0  0  0  0  0
   -2.5039   -0.1183   -0.4830 C   0  0  2  0  0  0  0  0  0  0  0  0
   -1.5233   -1.0132   -1.2331 C   0  0  0  0  0  0  0  0  0  0  0  0
   -1.7392   -2.2022   -1.4585 O   0  0  0  0  0  0  0  0  0  0  0  0
   -2.7859    1.1772   -1.2372 C   0  0  0  0  0  0  0  0  0  0  0  0
   -1.5692    1.8623   -1.5119 O   0  0  0  0  0  0  0  0  0  0  0  0
   -2.5276    0.6894    1.4750 H   0  0  0  0  0  0  0  0  0  0  0  0
   -3.4411   -0.6668   -0.3335 H   0  0  0  0  0  0  0  0  0  0  0  0
   -3.4252    1.8434   -0.6491 H   0  0  0  0  0  0  0  0  0  0  0  0
   -3.2810    0.9673   -2.1913 H   0  0  0  0  0  0  0  0  0  0  0  0
   -1.0294    1.2647   -2.0532 H   0  0  0  0  0  0  0  0  0  0  0  0
   -0.4005   -0.3169   -1.6575 N   0  0  0  0  0  0  0  0  0  0  0  0
    0.6623   -0.9342   -2.4165 C   0  0  2  0  0  0  0  0  0  0  0  0
    0.0421   -1.9921   -3.3196 C   0  0  0  0  0  0  0  0  0  0  0  0
   -1.0472   -2.5140   -3.0914 O   0  0  0  0  0  0  0  0  0  0  0  0
    1.7113   -1.5473   -1.5020 C   0  0  0  0  0  0  0  0  0  0  0  0
   -0.3248    0.6765   -1.4599 H   0  0  0  0  0  0  0  0  0  0  0  0
    1.1110   -0.1461   -3.0309 H   0  0  0  0  0  0  0  0  0  0  0  0
    1.2803   -2.3391   -0.8785 H   0  0  0  0  0  0  0  0  0  0  0  0
    2.5305   -1.9897   -2.0785 H   0  0  0  0  0  0  0  0  0  0  0  0
    2.1350   -0.7908   -0.8327 H   0  0  0  0  0  0  0  0  0  0  0  0
    0.8677   -2.3161   -4.3871 N   0  0  0  0  0  0  0  0  0  0  0  0
    0.5089   -3.3030   -5.3787 C   0  0  0  0  0  0  0  0  0  0  0  0
    1.7454   -1.8194   -4.5087 H   0  0  0  0  0  0  0  0  0  0  0  0
    0.9072   -4.2842   -5.0810 H   0  0  0  0  0  0  0  0  0  0  0  0
   -0.5866   -3.3610   -5.4584 H   0  0  0  0  0  0  0  0  0  0  0  0
    0.9327   -3.0154   -6.3522 H   0  0  0  0  0  0  0  0  0  0  0  0
  1  3  1  0  0  0  0
  1  7  1  0  0  0  0
  1  2  2  0  0  0  0
 29 30  1  0  0  0  0
 30 38  1  0  0  0  0
 30 31  2  0  0  0  0
  8  9  1  0  0  0  0
  9 17  1  0  0  0  0
  9 10  2  0  0  0  0
 18 19  1  0  0  0  0
 19 28  1  0  0  0  0
 19 20  2  0  0  0  0
 29 32  1  0  0  0  0
  8 11  1  0  0  0  0
 38 39  1  0  0  0  0
 18 21  1  0  0  0  0
 21 22  1  0  0  0  0
 28 29  1  0  0  0  0
  7  8  1  0  0  0  0
 17 18  1  0  0  0  0
  3  4  1  0  0  0  0
  3  5  1  0  0  0  0
  3  6  1  0  0  0  0
 32 35  1  0  0  0  0
 32 36  1  0  0  0  0
 32 37  1  0  0  0  0
 11 14  1  0  0  0  0
 11 15  1  0  0  0  0
 11 16  1  0  0  0  0
 39 41  1  0  0  0  0
 39 42  1  0  0  0  0
 39 43  1  0  0  0  0
 21 25  1  0  0  0  0
 21 26  1  0  0  0  0
 29 34  1  0  0  0  0
  8 13  1  0  0  0  0
 18 24  1  0  0  0  0
 38 40  1  0  0  0  0
  7 12  1  0  0  0  0
 28 33  1  0  0  0  0
 17 23  1  0  0  0  0
 22 27  1  0  0  0  0
M  END
$$$$

  -OEChem-05262214473D

 43 42  0     1  0  0  0  0  0999 V2000
    0.7424   -1.0926    4.5665 C   0  0  0  0  0  0  0  0  0  0  0  0
    0.1409   -0.5364    5.4779 O   0  0  0  0  0  0  0  0  0  0  0  0
    1.7940   -2.1023    4.8871 C   0  0  0  0  0  0  0  0  0  0  0  0
    2.7935   -1.6502    4.9904 H   0  0  0  0  0  0  0  0  0  0  0  0
    1.6064   -2.6156    5.8438 H   0  0  0  0  0  0  0  0  0  0  0  0
    1.9156   -2.9078    4.1453 H   0  0  0  0  0  0  0  0  0  0  0  0
    0.5488   -0.8838    3.2109 N   0  0  0  0  0  0  0  0  0  0  0  0
   -0.4159    0.0446    2.6829 C   0  0  2  0  0  0  0  0  0  0  0  0
   -0.7551   -0.3867    1.2623 C   0  0  0  0  0  0  0  0  0  0  0  0
   -0.0106   -1.0851    0.5774 O   0  0  0  0  0  0  0  0  0  0  0  0
    0.1168    1.4689    2.7060 C   0  0  0  0  0  0  0  0  0  0  0  0
    1.1183   -1.4145    2.5542 H   0  0  0  0  0  0  0  0  0  0  0  0
   -1.3088   -0.0350    3.3125 H   0  0  0  0  0  0  0  0  0  0  0  0
    1.0116    1.5681    2.0808 H   0  0  0  0  0  0  0  0  0  0  0  0
   -0.6289    2.1775    2.3307 H   0  0  0  0  0  0  0  0  0  0  0  0
    0.3882    1.7670    3.7245 H   0  0  0  0  0  0  0  0  0  0  0  0
   -1.9689    0.1350    0.8298 N   0  0  0  0  0  0  0  0  0  0  0  0
   -2.5039   -0.1183   -0.4830 C   0  0  2  0  0  0  0  0  0  0  0  0
   -1.5233   -1.0132   -1.2331 C   0  0  0  0  0  0  0  0  0  0  0  0
   -1.8343   -2.1101   -1.6927 O   0  0  0  0  0  0  0  0  0  0  0  0
   -2.7859    1.1772   -1.2372 C   0  0  0  0  0  0  0  0  0  0  0  0
   -1.5692    1.8623   -1.5119 O   0  0  0  0  0  0  0  0  0  0  0  0
   -2.5276    0.6894    1.4750 H   0  0  0  0  0  0  0  0  0  0  0  0
   -3.4411   -0.6668   -0.3335 H   0  0  0  0  0  0  0  0  0  0  0  0
   -3.4252    1.8434   -0.6491 H   0  0  0  0  0  0  0  0  0  0  0  0
   -3.2810    0.9673   -2.1913 H   0  0  0  0  0  0  0  0  0  0  0  0
   -1.0294    1.2647   -2.0532 H   0  0  0  0  0  0  0  0  0  0  0  0
   -0.2742   -0.4234   -1.3653 N   0  0  0  0  0  0  0  0  0  0  0  0
    0.8202   -1.0570   -2.0635 C   0  0  2  0  0  0  0  0  0  0  0  0
    0.2382   -1.8629   -3.2173 C   0  0  0  0  0  0  0  0  0  0  0  0
   -0.9262   -2.2562   -3.2407 O   0  0  0  0  0  0  0  0  0  0  0  0
    1.6293   -1.9467   -1.1327 C   0  0  0  0  0  0  0  0  0  0  0  0
   -0.1185    0.5063   -0.9870 H   0  0  0  0  0  0  0  0  0  0  0  0
    1.4501   -0.2532   -2.4599 H   0  0  0  0  0  0  0  0  0  0  0  0
    1.0149   -2.7580   -0.7257 H   0  0  0  0  0  0  0  0  0  0  0  0
    2.4753   -2.4037   -1.6567 H   0  0  0  0  0  0  0  0  0  0  0  0
    2.0223   -1.3713   -0.2875 H   0  0  0  0  0  0  0  0  0  0  0  0
    1.1839   -2.1282   -4.1979 N   0  0  0  0  0  0  0  0  0  0  0  0
    0.8806   -2.8875   -5.3884 C   0  0  0  0  0  0  0  0  0  0  0  0
    2.1207   -1.7466   -4.1049 H   0  0  0  0  0  0  0  0  0  0  0  0
    1.1102   -3.9493   -5.2152 H   0  0  0  0  0  0  0  0  0  0  0  0
   -0.1867   -2.7781   -5.6310 H   0  0  0  0  0  0  0  0  0  0  0  0
    1.4873   -2.5133   -6.2263 H   0  0  0  0  0  0  0  0  0  0  0  0
  1  3  1  0  0  0  0
  1  7  1  0  0  0  0
  1  2  2  0  0  0  0
 29 30  1  0  0  0  0
 30 38  1  0  0  0  0
 30 31  2  0  0  0  0
  8  9  1  0  0  0  0
  9 17  1  0  0  0  0
  9 10  2  0  0  0  0
 18 19  1  0  0  0  0
 19 28  1  0  0  0  0
 19 20  2  0  0  0  0
 29 32  1  0  0  0  0
  8 11  1  0  0  0  0
 38 39  1  0  0  0  0
 18 21  1  0  0  0  0
 21 22  1  0  0  0  0
 28 29  1  0  0  0  0
  7  8  1  0  0  0  0
 17 18  1  0  0  0  0
  3  4  1  0  0  0  0
  3  5  1  0  0  0  0
  3  6  1  0  0  0  0
 32 35  1  0  0  0  0
 32 36  1  0  0  0  0
 32 37  1  0  0  0  0
 11 14  1  0  0  0  0
 11 15  1  0  0  0  0
 11 16  1  0  0  0  0
 39 41  1  0  0  0  0
 39 42  1  0  0  0  0
 39 43  1  0  0  0  0
 21 25  1  0  0  0  0
 21 26  1  0  0  0  0
 29 34  1  0  0  0  0
  8 13  1  0  0  0  0
 18 24  1  0  0  0  0
 38 40  1  0  0  0  0
  7 12  1  0  0  0  0
 28 33  1  0  0  0  0
 17 23  1  0  0  0  0
 22 27  1  0  0  0  0
M  END
$$$$

  -OEChem-05262214473D

 43 42  0     1  0  0  0  0  0999 V2000
    0.7424   -1.0926    4.5665 C   0  0  0  0  0  0  0  0  0  0  0  0
    0.1409   -0.5364    5.4779 O   0  0  0  0  0  0  0  0  0  0  0  0
    1.7940   -2.1023    4.8871 C   0  0  0  0  0  0  0  0  0  0  0  0
    2.7935   -1.6502    4.9904 H   0  0  0  0  0  0  0  0  0  0  0  0
    1.6064   -2.6156    5.8438 H   0  0  0  0  0  0  0  0  0  0  0  0
    1.9156   -2.9078    4.1453 H   0  0  0  0  0  0  0  0  0  0  0  0
    0.5488   -0.8838    3.2109 N   0  0  0  0  0  0  0  0  0  0  0  0
   -0.4159    0.0446    2.6829 C   0  0  2  0  0  0  0  0  0  0  0  0
   -0.7551   -0.3867    1.2623 C   0  0  0  0  0  0  0  0  0  0  0  0
   -0.0106   -1.0851    0.5774 O   0  0  0  0  0  0  0  0  0  0  0  0
    0.1168    1.4689    2.7060 C   0  0  0  0  0  0  0  0  0  0  0  0
    1.1183   -1.4145    2.5542 H   0  0  0  0  0  0  0  0  0  0  0  0
   -1.3088   -0.0350    3.3125 H   0  0  0  0  0  0  0  0  0  0  0  0
    1.0116    1.5681    2.0808 H   0  0  0  0  0  0  0  0  0  0  0  0
   -0.6289    2.1775    2.3307 H   0  0  0  0  0  0  0  0  0  0  0  0
    0.3882    1.7670    3.7245 H   0  0  0  0  0  0  0  0  0  0  0  0
   -1.9689    0.1350    0.8298 N   0  0  0  0  0  0  0  0  0  0  0  0
   -2.5039   -0.1183   -0.4830 C   0  0  2  0  0  0  0  0  0  0  0  0
   -1.5233   -1.0132   -1.2331 C   0  0  0  0  0  0  0  0  0  0  0  0
   -1.8788   -1.9701   -1.9181 O   0  0  0  0  0  0  0  0  0  0  0  0
   -2.7859    1.1772   -1.2372 C   0  0  0  0  0  0  0  0  0  0  0  0
   -1.5692    1.8623   -1.5119 O   0  0  0  0  0  0  0  0  0  0  0  0
   -2.5276    0.6894    1.4750 H   0  0  0  0  0  0  0  0  0  0  0  0
   -3.4411   -0.6668   -0.3335 H   0  0  0  0  0  0  0  0  0  0  0  0
   -3.4252    1.8434   -0.6491 H   0  0  0  0  0  0  0  0  0  0  0  0
   -3.2810    0.9673   -2.1913 H   0  0  0  0  0  0  0  0  0  0  0  0
   -1.0294    1.2647   -2.0532 H   0  0  0  0  0  0  0  0  0  0  0  0
   -0.2101   -0.5910   -1.0816 N   0  0  0  0  0  0  0  0  0  0  0  0
    0.9034   -1.2545   -1.7191 C   0  0  2  0  0  0  0  0  0  0  0  0
    0.4286   -1.7801   -3.0673 C   0  0  0  0  0  0  0  0  0  0  0  0
   -0.7538   -1.9978   -3.3237 O   0  0  0  0  0  0  0  0  0  0  0  0
    1.4432   -2.3835   -0.8549 C   0  0  0  0  0  0  0  0  0  0  0  0
   -0.0127    0.2369   -0.5273 H   0  0  0  0  0  0  0  0  0  0  0  0
    1.6773   -0.4948   -1.8746 H   0  0  0  0  0  0  0  0  0  0  0  0
    0.6819   -3.1543   -0.6882 H   0  0  0  0  0  0  0  0  0  0  0  0
    2.3051   -2.8669   -1.3266 H   0  0  0  0  0  0  0  0  0  0  0  0
    1.7566   -2.0084    0.1253 H   0  0  0  0  0  0  0  0  0  0  0  0
    1.4845   -2.0185   -3.9358 N   0  0  0  0  0  0  0  0  0  0  0  0
    1.2941   -2.5319   -5.2723 C   0  0  0  0  0  0  0  0  0  0  0  0
    2.4311   -1.7913   -3.6458 H   0  0  0  0  0  0  0  0  0  0  0  0
    1.3693   -3.6292   -5.2583 H   0  0  0  0  0  0  0  0  0  0  0  0
    0.3000   -2.2374   -5.6399 H   0  0  0  0  0  0  0  0  0  0  0  0
    2.0677   -2.1199   -5.9369 H   0  0  0  0  0  0  0  0  0  0  0  0
  1  3  1  0  0  0  0
  1  7  1  0  0  0  0
  1  2  2  0  0  0  0
 29 30  1  0  0  0  0
 30 38  1  0  0  0  0
 30 31  2  0  0  0  0
  8  9  1  0  0  0  0
  9 17  1  0  0  0  0
  9 10  2  0  0  0  0
 18 19  1  0  0  0  0
 19 28  1  0  0  0  0
 19 20  2  0  0  0  0
 29 32  1  0  0  0  0
  8 11  1  0  0  0  0
 38 39  1  0  0  0  0
 18 21  1  0  0  0  0
 21 22  1  0  0  0  0
 28 29  1  0  0  0  0
  7  8  1  0  0  0  0
 17 18  1  0  0  0  0
  3  4  1  0  0  0  0
  3  5  1  0  0  0  0
  3  6  1  0  0  0  0
 32 35  1  0  0  0  0
 32 36  1  0  0  0  0
 32 37  1  0  0  0  0
 11 14  1  0  0  0  0
 11 15  1  0  0  0  0
 11 16  1  0  0  0  0
 39 41  1  0  0  0  0
 39 42  1  0  0  0  0
 39 43  1  0  0  0  0
 21 25  1  0  0  0  0
 21 26  1  0  0  0  0
 29 34  1  0  0  0  0
  8 13  1  0  0  0  0
 18 24  1  0  0  0  0
 38 40  1  0  0  0  0
  7 12  1  0  0  0  0
 28 33  1  0  0  0  0
 17 23  1  0  0  0  0
 22 27  1  0  0  0  0
M  END
$$$$

  -OEChem-05262214473D

 43 42  0     1  0  0  0  0  0999 V2000
    0.7424   -1.0926    4.5665 C   0  0  0  0  0  0  0  0  0  0  0  0
    0.1409   -0.5364    5.4779 O   0  0  0  0  0  0  0  0  0  0  0  0
    1.7940   -2.1023    4.8871 C   0  0  0  0  0  0  0  0  0  0  0  0
    2.7935   -1.6502    4.9904 H   0  0  0  0  0  0  0  0  0  0  0  0
    1.6064   -2.6156    5.8438 H   0  0  0  0  0  0  0  0  0  0  0  0
    1.9156   -2.9078    4.1453 H   0  0  0  0  0  0  0  0  0  0  0  0
    0.5488   -0.8838    3.2109 N   0  0  0  0  0  0  0  0  0  0  0  0
   -0.4159    0.0446    2.6829 C   0  0  2  0  0  0  0  0  0  0  0  0
   -0.7551   -0.3867    1.2623 C   0  0  0  0  0  0  0  0  0  0  0  0
   -0.0106   -1.0851    0.5774 O   0  0  0  0  0  0  0  0  0  0  0  0
    0.1168    1.4689    2.7060 C   0  0  0  0  0  0  0  0  0  0  0  0
    1.1183   -1.4145    2.5542 H   0  0  0  0  0  0  0  0  0  0  0  0
   -1.3088   -0.0350    3.3125 H   0  0  0  0  0  0  0  0  0  0  0  0
    1.0116    1.5681    2.0808 H   0  0  0  0  0  0  0  0  0  0  0  0
   -0.6289    2.1775    2.3307 H   0  0  0  0  0  0  0  0  0  0  0  0
    0.3882    1.7670    3.7245 H   0  0  0  0  0  0  0  0  0  0  0  0
   -1.9689    0.1350    0.8298 N   0  0  0  0  0  0  0  0  0  0  0  0
   -2.5039   -0.1183   -0.4830 C   0  0  2  0  0  0  0  0  0  0  0  0
   -1.5233   -1.0132   -1.2331 C   0  0  0  0  0  0  0  0  0  0  0  0
   -1.8698   -1.7916   -2.1192 O   0  0  0  0  0  0  0  0  0  0  0  0
   -2.7859    1.1772   -1.2372 C   0  0  0  0  0  0  0  0  0  0  0  0
   -1.5692    1.8623   -1.5119 O   0  0  0  0  0  0  0  0  0  0  0  0
   -2.5276    0.6894    1.4750 H   0  0  0  0  0  0  0  0  0  0  0  0
   -3.4411   -0.6668   -0.3335 H   0  0  0  0  0  0  0  0  0  0  0  0
   -3.4252    1.8434   -0.6491 H   0  0  0  0  0  0  0  0  0  0  0  0
   -3.2810    0.9673   -2.1913 H   0  0  0  0  0  0  0  0  0  0  0  0
   -1.0294    1.2647   -2.0532 H   0  0  0  0  0  0  0  0  0  0  0  0
   -0.2127   -0.8082   -0.8258 N   0  0  0  0  0  0  0  0  0  0  0  0
    0.9064   -1.5132   -1.4066 C   0  0  2  0  0  0  0  0  0  0  0  0
    0.6002   -1.7494   -2.8796 C   0  0  0  0  0  0  0  0  0  0  0  0
   -0.5417   -1.7562   -3.3347 O   0  0  0  0  0  0  0  0  0  0  0  0
    1.1655   -2.8280   -0.6876 C   0  0  0  0  0  0  0  0  0  0  0  0
   -0.0146   -0.1133   -0.1120 H   0  0  0  0  0  0  0  0  0  0  0  0
    1.7770   -0.8546   -1.3150 H   0  0  0  0  0  0  0  0  0  0  0  0
    0.3041   -3.5009   -0.7685 H   0  0  0  0  0  0  0  0  0  0  0  0
    2.0316   -3.3475   -1.1106 H   0  0  0  0  0  0  0  0  0  0  0  0
    1.3562   -2.6587    0.3776 H   0  0  0  0  0  0  0  0  0  0  0  0
    1.7490   -1.9944   -3.6187 N   0  0  0  0  0  0  0  0  0  0  0  0
    1.7210   -2.2604   -5.0380 C   0  0  0  0  0  0  0  0  0  0  0  0
    2.6555   -1.9504   -3.1626 H   0  0  0  0  0  0  0  0  0  0  0  0
    1.6669   -3.3459   -5.2072 H   0  0  0  0  0  0  0  0  0  0  0  0
    0.8404   -1.7755   -5.4845 H   0  0  0  0  0  0  0  0  0  0  0  0
    2.6345   -1.8619   -5.5037 H   0  0  0  0  0  0  0  0  0  0  0  0
  1  3  1  0  0  0  0
  1  7  1  0  0  0  0
  1  2  2  0  0  0  0
 29 30  1  0  0  0  0
 30 38  1  0  0  0  0
 30 31  2  0  0  0  0
  8  9  1  0  0  0  0
  9 17  1  0  0  0  0
  9 10  2  0  0  0  0
 18 19  1  0  0  0  0
 19 28  1  0  0  0  0
 19 20  2  0  0  0  0
 29 32  1  0  0  0  0
  8 11  1  0  0  0  0
 38 39  1  0  0  0  0
 18 21  1  0  0  0  0
 21 22  1  0  0  0  0
 28 29  1  0  0  0  0
  7  8  1  0  0  0  0
 17 18  1  0  0  0  0
  3  4  1  0  0  0  0
  3  5  1  0  0  0  0
  3  6  1  0  0  0  0
 32 35  1  0  0  0  0
 32 36  1  0  0  0  0
 32 37  1  0  0  0  0
 11 14  1  0  0  0  0
 11 15  1  0  0  0  0
 11 16  1  0  0  0  0
 39 41  1  0  0  0  0
 39 42  1  0  0  0  0
 39 43  1  0  0  0  0
 21 25  1  0  0  0  0
 21 26  1  0  0  0  0
 29 34  1  0  0  0  0
  8 13  1  0  0  0  0
 18 24  1  0  0  0  0
 38 40  1  0  0  0  0
  7 12  1  0  0  0  0
 28 33  1  0  0  0  0
 17 23  1  0  0  0  0
 22 27  1  0  0  0  0
M  END
$$$$

  -OEChem-05262214473D

 43 42  0     1  0  0  0  0  0999 V2000
    0.7424   -1.0926    4.5665 C   0  0  0  0  0  0  0  0  0  0  0  0
    0.1409   -0.5364    5.4779 O   0  0  0  0  0  0  0  0  0  0  0  0
    1.7940   -2.1023    4.8871 C   0  0  0  0  0  0  0  0  0  0  0  0
    2.7935   -1.6502    4.9904 H   0  0  0  0  0  0  0  0  0  0  0  0
    1.6064   -2.6156    5.8438 H   0  0  0  0  0  0  0  0  0  0  0  0
    1.9156   -2.9078    4.1453 H   0  0  0  0  0  0  0  0  0  0  0  0
    0.5488   -0.8838    3.2109 N   0  0  0  0  0  0  0  0  0  0  0  0
   -0.4159    0.0446    2.6829 C   0  0  2  0  0  0  0  0  0  0  0  0
   -0.7551   -0.3867    1.2623 C   0  0  0  0  0  0  0  0  0  0  0  0
   -0.0106   -1.0851    0.5774 O   0  0  0  0  0  0  0  0  0  0  0  0
    0.1168    1.4689    2.7060 C   0  0  0  0  0  0  0  0  0  0  0  0
    1.1183   -1.4145    2.5542 H   0  0  0  0  0  0  0  0  0  0  0  0
   -1.3088   -0.0350    3.3125 H   0  0  0  0  0  0  0  0  0  0  0  0
    1.0116    1.5681    2.0808 H   0  0  0  0  0  0  0  0  0  0  0  0
   -0.6289    2.1775    2.3307 H   0  0  0  0  0  0  0  0  0  0  0  0
    0.3882    1.7670    3.7245 H   0  0  0  0  0  0  0  0  0  0  0  0
   -1.9689    0.1350    0.8298 N   0  0  0  0  0  0  0  0  0  0  0  0
   -2.5039   -0.1183   -0.4830 C   0  0  2  0  0  0  0  0  0  0  0  0
   -1.5233   -1.0132   -1.2331 C   0  0  0  0  0  0  0  0  0  0  0  0
   -1.8078   -1.5869   -2.2824 O   0  0  0  0  0  0  0  0  0  0  0  0
   -2.7859    1.1772   -1.2372 C   0  0  0  0  0  0  0  0  0  0  0  0
   -1.5692    1.8623   -1.5119 O   0  0  0  0  0  0  0  0  0  0  0  0
   -2.5276    0.6894    1.4750 H   0  0  0  0  0  0  0  0  0  0  0  0
   -3.4411   -0.6668   -0.3335 H   0  0  0  0  0  0  0  0  0  0  0  0
   -3.4252    1.8434   -0.6491 H   0  0  0  0  0  0  0  0  0  0  0  0
   -3.2810    0.9673   -2.1913 H   0  0  0  0  0  0  0  0  0  0  0  0
   -1.0294    1.2647   -2.0532 H   0  0  0  0  0  0  0  0  0  0  0  0
   -0.2817   -1.0603   -0.6152 N   0  0  0  0  0  0  0  0  0  0  0  0
    0.8288   -1.8154   -1.1473 C   0  0  2  0  0  0  0  0  0  0  0  0
    0.7413   -1.7728   -2.6672 C   0  0  0  0  0  0  0  0  0  0  0  0
   -0.3045   -1.5481   -3.2728 O   0  0  0  0  0  0  0  0  0  0  0  0
    0.8153   -3.2498   -0.6421 C   0  0  0  0  0  0  0  0  0  0  0  0
   -0.1241   -0.5205    0.2306 H   0  0  0  0  0  0  0  0  0  0  0  0
    1.7425   -1.3080   -0.8191 H   0  0  0  0  0  0  0  0  0  0  0  0
   -0.0927   -3.7743   -0.9611 H   0  0  0  0  0  0  0  0  0  0  0  0
    1.6735   -3.8129   -1.0236 H   0  0  0  0  0  0  0  0  0  0  0  0
    0.8483   -3.2778    0.4523 H   0  0  0  0  0  0  0  0  0  0  0  0
    1.9594   -2.0576   -3.2683 N   0  0  0  0  0  0  0  0  0  0  0  0
    2.1324   -2.0914   -4.7018 C   0  0  0  0  0  0  0  0  0  0  0  0
    2.7786   -2.2131   -2.6882 H   0  0  0  0  0  0  0  0  0  0  0  0
    1.9827   -3.1187   -5.0656 H   0  0  0  0  0  0  0  0  0  0  0  0
    1.3975   -1.4240   -5.1755 H   0  0  0  0  0  0  0  0  0  0  0  0
    3.1490   -1.7570   -4.9563 H   0  0  0  0  0  0  0  0  0  0  0  0
  1  3  1  0  0  0  0
  1  7  1  0  0  0  0
  1  2  2  0  0  0  0
 29 30  1  0  0  0  0
 30 38  1  0  0  0  0
 30 31  2  0  0  0  0
  8  9  1  0  0  0  0
  9 17  1  0  0  0  0
  9 10  2  0  0  0  0
 18 19  1  0  0  0  0
 19 28  1  0  0  0  0
 19 20  2  0  0  0  0
 29 32  1  0  0  0  0
  8 11  1  0  0  0  0
 38 39  1  0  0  0  0
 18 21  1  0  0  0  0
 21 22  1  0  0  0  0
 28 29  1  0  0  0  0
  7  8  1  0  0  0  0
 17 18  1  0  0  0  0
  3  4  1  0  0  0  0
  3  5  1  0  0  0  0
  3  6  1  0  0  0  0
 32 35  1  0  0  0  0
 32 36  1  0  0  0  0
 32 37  1  0  0  0  0
 11 14  1  0  0  0  0
 11 15  1  0  0  0  0
 11 16  1  0  0  0  0
 39 41  1  0  0  0  0
 39 42  1  0  0  0  0
 39 43  1  0  0  0  0
 21 25  1  0  0  0  0
 21 26  1  0  0  0  0
 29 34  1  0  0  0  0
  8 13  1  0  0  0  0
 18 24  1  0  0  0  0
 38 40  1  0  0  0  0
  7 12  1  0  0  0  0
 28 33  1  0  0  0  0
 17 23  1  0  0  0  0
 22 27  1  0  0  0  0
M  END
$$$$

  -OEChem-05262214473D

 43 42  0     1  0  0  0  0  0999 V2000
    0.7424   -1.0926    4.5665 C   0  0  0  0  0  0  0  0  0  0  0  0
    0.1409   -0.5364    5.4779 O   0  0  0  0  0  0  0  0  0  0  0  0
    1.7940   -2.1023    4.8871 C   0  0  0  0  0  0  0  0  0  0  0  0
    2.7935   -1.6502    4.9904 H   0  0  0  0  0  0  0  0  0  0  0  0
    1.6064   -2.6156    5.8438 H   0  0  0  0  0  0  0  0  0  0  0  0
    1.9156   -2.9078    4.1453 H   0  0  0  0  0  0  0  0  0  0  0  0
    0.5488   -0.8838    3.2109 N   0  0  0  0  0  0  0  0  0  0  0  0
   -0.4159    0.0446    2.6829 C   0  0  2  0  0  0  0  0  0  0  0  0
   -0.7551   -0.3867    1.2623 C   0  0  0  0  0  0  0  0  0  0  0  0
   -0.0106   -1.0851    0.5774 O   0  0  0  0  0  0  0  0  0  0  0  0
    0.1168    1.4689    2.7060 C   0  0  0  0  0  0  0  0  0  0  0  0
    1.1183   -1.4145    2.5542 H   0  0  0  0  0  0  0  0  0  0  0  0
   -1.3088   -0.0350    3.3125 H   0  0  0  0  0  0  0  0  0  0  0  0
    1.0116    1.5681    2.0808 H   0  0  0  0  0  0  0  0  0  0  0  0
   -0.6289    2.1775    2.3307 H   0  0  0  0  0  0  0  0  0  0  0  0
    0.3882    1.7670    3.7245 H   0  0  0  0  0  0  0  0  0  0  0  0
   -1.9689    0.1350    0.8298 N   0  0  0  0  0  0  0  0  0  0  0  0
   -2.5039   -0.1183   -0.4830 C   0  0  2  0  0  0  0  0  0  0  0  0
   -1.5233   -1.0132   -1.2331 C   0  0  0  0  0  0  0  0  0  0  0  0
   -1.6971   -1.3698   -2.3966 O   0  0  0  0  0  0  0  0  0  0  0  0
   -2.7859    1.1772   -1.2372 C   0  0  0  0  0  0  0  0  0  0  0  0
   -1.5692    1.8623   -1.5119 O   0  0  0  0  0  0  0  0  0  0  0  0
   -2.5276    0.6894    1.4750 H   0  0  0  0  0  0  0  0  0  0  0  0
   -3.4411   -0.6668   -0.3335 H   0  0  0  0  0  0  0  0  0  0  0  0
   -3.4252    1.8434   -0.6491 H   0  0  0  0  0  0  0  0  0  0  0  0
   -3.2810    0.9673   -2.1913 H   0  0  0  0  0  0  0  0  0  0  0  0
   -1.0294    1.2647   -2.0532 H   0  0  0  0  0  0  0  0  0  0  0  0
   -0.4124   -1.3301   -0.4643 N   0  0  0  0  0  0  0  0  0  0  0  0
    0.6761   -2.1407   -0.9590 C   0  0  2  0  0  0  0  0  0  0  0  0
    0.8425   -1.8487   -2.4444 C   0  0  0  0  0  0  0  0  0  0  0  0
   -0.0583   -1.3876   -3.1424 O   0  0  0  0  0  0  0  0  0  0  0  0
    0.4165   -3.6202   -0.7216 C   0  0  0  0  0  0  0  0  0  0  0  0
   -0.3338   -0.9569    0.4771 H   0  0  0  0  0  0  0  0  0  0  0  0
    1.5762   -1.8240   -0.4209 H   0  0  0  0  0  0  0  0  0  0  0  0
   -0.4816   -3.9558   -1.2530 H   0  0  0  0  0  0  0  0  0  0  0  0
    1.2551   -4.2313   -1.0714 H   0  0  0  0  0  0  0  0  0  0  0  0
    0.2675   -3.8236    0.3443 H   0  0  0  0  0  0  0  0  0  0  0  0
    2.1014   -2.2038   -2.9083 N   0  0  0  0  0  0  0  0  0  0  0  0
    2.5003   -2.0366   -4.2863 C   0  0  0  0  0  0  0  0  0  0  0  0
    2.7921   -2.5615   -2.2550 H   0  0  0  0  0  0  0  0  0  0  0  0
    2.2951   -2.9630   -4.8430 H   0  0  0  0  0  0  0  0  0  0  0  0
    1.9335   -1.2069   -4.7339 H   0  0  0  0  0  0  0  0  0  0  0  0
    3.5762   -1.8123   -4.3318 H   0  0  0  0  0  0  0  0  0  0  0  0
  1  3  1  0  0  0  0
  1  7  1  0  0  0  0
  1  2  2  0  0  0  0
 29 30  1  0  0  0  0
 30 38  1  0  0  0  0
 30 31  2  0  0  0  0
  8  9  1  0  0  0  0
  9 17  1  0  0  0  0
  9 10  2  0  0  0  0
 18 19  1  0  0  0  0
 19 28  1  0  0  0  0
 19 20  2  0  0  0  0
 29 32  1  0  0  0  0
  8 11  1  0  0  0  0
 38 39  1  0  0  0  0
 18 21  1  0  0  0  0
 21 22  1  0  0  0  0
 28 29  1  0  0  0  0
  7  8  1  0  0  0  0
 17 18  1  0  0  0  0
  3  4  1  0  0  0  0
  3  5  1  0  0  0  0
  3  6  1  0  0  0  0
 32 35  1  0  0  0  0
 32 36  1  0  0  0  0
 32 37  1  0  0  0  0
 11 14  1  0  0  0  0
 11 15  1  0  0  0  0
 11 16  1  0  0  0  0
 39 41  1  0  0  0  0
 39 42  1  0  0  0  0
 39 43  1  0  0  0  0
 21 25  1  0  0  0  0
 21 26  1  0  0  0  0
 29 34  1  0  0  0  0
  8 13  1  0  0  0  0
 18 24  1  0  0  0  0
 38 40  1  0  0  0  0
  7 12  1  0  0  0  0
 28 33  1  0  0  0  0
 17 23  1  0  0  0  0
 22 27  1  0  0  0  0
M  END
$$$$

  -OEChem-05262214473D

 43 42  0     1  0  0  0  0  0999 V2000
    0.7424   -1.0926    4.5665 C   0  0  0  0  0  0  0  0  0  0  0  0
    0.1409   -0.5364    5.4779 O   0  0  0  0  0  0  0  0  0  0  0  0
    1.7940   -2.1023    4.8871 C   0  0  0  0  0  0  0  0  0  0  0  0
    2.7935   -1.6502    4.9904 H   0  0  0  0  0  0  0  0  0  0  0  0
    1.6064   -2.6156    5.8438 H   0  0  0  0  0  0  0  0  0  0  0  0
    1.9156   -2.9078    4.1453 H   0  0  0  0  0  0  0  0  0  0  0  0
    0.5488   -0.8838    3.2109 N   0  0  0  0  0  0  0  0  0  0  0  0
   -0.4159    0.0446    2.6829 C   0  0  2  0  0  0  0  0  0  0  0  0
   -0.7551   -0.3867    1.2623 C   0  0  0  0  0  0  0  0  0  0  0  0
   -0.0106   -1.0851    0.5774 O   0  0  0  0  0  0  0  0  0  0  0  0
    0.1168    1.4689    2.7060 C   0  0  0  0  0  0  0  0  0  0  0  0
    1.1183   -1.4145    2.5542 H   0  0  0  0  0  0  0  0  0  0  0  0
   -1.3088   -0.0350    3.3125 H   0  0  0  0  0  0  0  0  0  0  0  0
    1.0116    1.5681    2.0808 H   0  0  0  0  0  0  0  0  0  0  0  0
   -0.6289    2.1775    2.3307 H   0  0  0  0  0  0  0  0  0  0  0  0
    0.3882    1.7670    3.7245 H   0  0  0  0  0  0  0  0  0  0  0  0
   -1.9689    0.1350    0.8298 N   0  0  0  0  0  0  0  0  0  0  0  0
   -2.5039   -0.1183   -0.4830 C   0  0  2  0  0  0  0  0  0  0  0  0
   -1.5233   -1.0132   -1.2331 C   0  0  0  0  0  0  0  0  0  0  0  0
   -1.5452   -1.1553   -2.4539 O   0  0  0  0  0  0  0  0  0  0  0  0
   -2.7859    1.1772   -1.2372 C   0  0  0  0  0  0  0  0  0  0  0  0
   -1.5692    1.8623   -1.5119 O   0  0  0  0  0  0  0  0  0  0  0  0
   -2.5276    0.6894    1.4750 H   0  0  0  0  0  0  0  0  0  0  0  0
   -3.4411   -0.6668   -0.3335 H   0  0  0  0  0  0  0  0  0  0  0  0
   -3.4252    1.8434   -0.6491 H   0  0  0  0  0  0  0  0  0  0  0  0
   -3.2810    0.9673   -2.1913 H   0  0  0  0  0  0  0  0  0  0  0  0
   -1.0294    1.2647   -2.0532 H   0  0  0  0  0  0  0  0  0  0  0  0
   -0.5959   -1.5991   -0.3832 N   0  0  0  0  0  0  0  0  0  0  0  0
    0.4585   -2.4667   -0.8544 C   0  0  2  0  0  0  0  0  0  0  0  0
    0.8966   -1.9719   -2.2266 C   0  0  0  0  0  0  0  0  0  0  0  0
    0.1802   -1.2856   -2.9524 O   0  0  0  0  0  0  0  0  0  0  0  0
   -0.0039   -3.9140   -0.9206 C   0  0  0  0  0  0  0  0  0  0  0  0
   -0.6293   -1.3927    0.6108 H   0  0  0  0  0  0  0  0  0  0  0  0
    1.2893   -2.3676   -0.1474 H   0  0  0  0  0  0  0  0  0  0  0  0
   -0.8360   -4.0330   -1.6241 H   0  0  0  0  0  0  0  0  0  0  0  0
    0.8049   -4.5742   -1.2507 H   0  0  0  0  0  0  0  0  0  0  0  0
   -0.3466   -4.2589    0.0609 H   0  0  0  0  0  0  0  0  0  0  0  0
    2.1652   -2.4230   -2.5634 N   0  0  0  0  0  0  0  0  0  0  0  0
    2.7994   -2.0996   -3.8201 C   0  0  0  0  0  0  0  0  0  0  0  0
    2.6949   -2.9718   -1.8926 H   0  0  0  0  0  0  0  0  0  0  0  0
    2.5829   -2.8894   -4.5546 H   0  0  0  0  0  0  0  0  0  0  0  0
    2.4117   -1.1389   -4.1898 H   0  0  0  0  0  0  0  0  0  0  0  0
    3.8869   -2.0240   -3.6730 H   0  0  0  0  0  0  0  0  0  0  0  0
  1  3  1  0  0  0  0
  1  7  1  0  0  0  0
  1  2  2  0  0  0  0
 29 30  1  0  0  0  0
 30 38  1  0  0  0  0
 30 31  2  0  0  0  0
  8  9  1  0  0  0  0
  9 17  1  0  0  0  0
  9 10  2  0  0  0  0
 18 19  1  0  0  0  0
 19 28  1  0  0  0  0
 19 20  2  0  0  0  0
 29 32  1  0  0  0  0
  8 11  1  0  0  0  0
 38 39  1  0  0  0  0
 18 21  1  0  0  0  0
 21 22  1  0  0  0  0
 28 29  1  0  0  0  0
  7  8  1  0  0  0  0
 17 18  1  0  0  0  0
  3  4  1  0  0  0  0
  3  5  1  0  0  0  0
  3  6  1  0  0  0  0
 32 35  1  0  0  0  0
 32 36  1  0  0  0  0
 32 37  1  0  0  0  0
 11 14  1  0  0  0  0
 11 15  1  0  0  0  0
 11 16  1  0  0  0  0
 39 41  1  0  0  0  0
 39 42  1  0  0  0  0
 39 43  1  0  0  0  0
 21 25  1  0  0  0  0
 21 26  1  0  0  0  0
 29 34  1  0  0  0  0
  8 13  1  0  0  0  0
 18 24  1  0  0  0  0
 38 40  1  0  0  0  0
  7 12  1  0  0  0  0
 28 33  1  0  0  0  0
 17 23  1  0  0  0  0
 22 27  1  0  0  0  0
M  END
$$$$

  -OEChem-05262214473D

 43 42  0     1  0  0  0  0  0999 V2000
    0.7424   -1.0926    4.5665 C   0  0  0  0  0  0  0  0  0  0  0  0
    0.1409   -0.5364    5.4779 O   0  0  0  0  0  0  0  0  0  0  0  0
    1.7940   -2.1023    4.8871 C   0  0  0  0  0  0  0  0  0  0  0  0
    2.7935   -1.6502    4.9904 H   0  0  0  0  0  0  0  0  0  0  0  0
    1.6064   -2.6156    5.8438 H   0  0  0  0  0  0  0  0  0  0  0  0
    1.9156   -2.9078    4.1453 H   0  0  0  0  0  0  0  0  0  0  0  0
    0.5488   -0.8838    3.2109 N   0  0  0  0  0  0  0  0  0  0  0  0
   -0.4159    0.0446    2.6829 C   0  0  2  0  0  0  0  0  0  0  0  0
   -0.7551   -0.3867    1.2623 C   0  0  0  0  0  0  0  0  0  0  0  0
   -0.0106   -1.0851    0.5774 O   0  0  0  0  0  0  0  0  0  0  0  0
    0.1168    1.4689    2.7060 C   0  0  0  0  0  0  0  0  0  0  0  0
    1.1183   -1.4145    2.5542 H   0  0  0  0  0  0  0  0  0  0  0  0
   -1.3088   -0.0350    3.3125 H   0  0  0  0  0  0  0  0  0  0  0  0
    1.0116    1.5681    2.0808 H   0  0  0  0  0  0  0  0  0  0  0  0
   -0.6289    2.1775    2.3307 H   0  0  0  0  0  0  0  0  0  0  0  0
    0.3882    1.7670    3.7245 H   0  0  0  0  0  0  0  0  0  0  0  0
   -1.9689    0.1350    0.8298 N   0  0  0  0  0  0  0  0  0  0  0  0
   -2.5039   -0.1183   -0.4830 C   0  0  2  0  0  0  0  0  0  0  0  0
   -1.5233   -1.0132   -1.2331 C   0  0  0  0  0  0  0  0  0  0  0  0
   -1.3624   -0.9579   -2.4505 O   0  0  0  0  0  0  0  0  0  0  0  0
   -2.7859    1.1772   -1.2372 C   0  0  0  0  0  0  0  0  0  0  0  0
   -1.5692    1.8623   -1.5119 O   0  0  0  0  0  0  0  0  0  0  0  0
   -2.5276    0.6894    1.4750 H   0  0  0  0  0  0  0  0  0  0  0  0
   -3.4411   -0.6668   -0.3335 H   0  0  0  0  0  0  0  0  0  0  0  0
   -3.4252    1.8434   -0.6491 H   0  0  0  0  0  0  0  0  0  0  0  0
   -3.2810    0.9673   -2.1913 H   0  0  0  0  0  0  0  0  0  0  0  0
   -1.0294    1.2647   -2.0532 H   0  0  0  0  0  0  0  0  0  0  0  0
   -0.8198   -1.8492   -0.3775 N   0  0  0  0  0  0  0  0  0  0  0  0
    0.1909   -2.7714   -0.8408 C   0  0  2  0  0  0  0  0  0  0  0  0
    0.9002   -2.1342   -2.0284 C   0  0  0  0  0  0  0  0  0  0  0  0
    0.3947   -1.2491   -2.7156 O   0  0  0  0  0  0  0  0  0  0  0  0
   -0.4171   -4.1111   -1.2256 C   0  0  0  0  0  0  0  0  0  0  0  0
   -0.9906   -1.7983    0.6224 H   0  0  0  0  0  0  0  0  0  0  0  0
    0.9015   -2.9017   -0.0173 H   0  0  0  0  0  0  0  0  0  0  0  0
   -1.1317   -4.0006   -2.0494 H   0  0  0  0  0  0  0  0  0  0  0  0
    0.3537   -4.8183   -1.5494 H   0  0  0  0  0  0  0  0  0  0  0  0
   -0.9521   -4.5540   -0.3786 H   0  0  0  0  0  0  0  0  0  0  0  0
    2.1465   -2.7002   -2.2570 N   0  0  0  0  0  0  0  0  0  0  0  0
    3.0095   -2.2762   -3.3347 C   0  0  0  0  0  0  0  0  0  0  0  0
    2.4937   -3.4161   -1.6255 H   0  0  0  0  0  0  0  0  0  0  0  0
    2.8265   -2.9029   -4.2200 H   0  0  0  0  0  0  0  0  0  0  0  0
    2.7997   -1.2247   -3.5803 H   0  0  0  0  0  0  0  0  0  0  0  0
    4.0601   -2.3778   -3.0247 H   0  0  0  0  0  0  0  0  0  0  0  0
  1  3  1  0  0  0  0
  1  7  1  0  0  0  0
  1  2  2  0  0  0  0
 29 30  1  0  0  0  0
 30 38  1  0  0  0  0
 30 31  2  0  0  0  0
  8  9  1  0  0  0  0
  9 17  1  0  0  0  0
  9 10  2  0  0  0  0
 18 19  1  0  0  0  0
 19 28  1  0  0  0  0
 19 20  2  0  0  0  0
 29 32  1  0  0  0  0
  8 11  1  0  0  0  0
 38 39  1  0  0  0  0
 18 21  1  0  0  0  0
 21 22  1  0  0  0  0
 28 29  1  0  0  0  0
  7  8  1  0  0  0  0
 17 18  1  0  0  0  0
  3  4  1  0  0  0  0
  3  5  1  0  0  0  0
  3  6  1  0  0  0  0
 32 35  1  0  0  0  0
 32 36  1  0  0  0  0
 32 37  1  0  0  0  0
 11 14  1  0  0  0  0
 11 15  1  0  0  0  0
 11 16  1  0  0  0  0
 39 41  1  0  0  0  0
 39 42  1  0  0  0  0
 39 43  1  0  0  0  0
 21 25  1  0  0  0  0
 21 26  1  0  0  0  0
 29 34  1  0  0  0  0
  8 13  1  0  0  0  0
 18 24  1  0  0  0  0
 38 40  1  0  0  0  0
  7 12  1  0  0  0  0
 28 33  1  0  0  0  0
 17 23  1  0  0  0  0
 22 27  1  0  0  0  0
M  END
$$$$

  -OEChem-05262214473D

 43 42  0     1  0  0  0  0  0999 V2000
    0.7424   -1.0926    4.5665 C   0  0  0  0  0  0  0  0  0  0  0  0
    0.1409   -0.5364    5.4779 O   0  0  0  0  0  0  0  0  0  0  0  0
    1.7940   -2.1023    4.8871 C   0  0  0  0  0  0  0  0  0  0  0  0
    2.7935   -1.6502    4.9904 H   0  0  0  0  0  0  0  0  0  0  0  0
    1.6064   -2.6156    5.8438 H   0  0  0  0  0  0  0  0  0  0  0  0
    1.9156   -2.9078    4.1453 H   0  0  0  0  0  0  0  0  0  0  0  0
    0.5488   -0.8838    3.2109 N   0  0  0  0  0  0  0  0  0  0  0  0
   -0.4159    0.0446    2.6829 C   0  0  2  0  0  0  0  0  0  0  0  0
   -0.7551   -0.3867    1.2623 C   0  0  0  0  0  0  0  0  0  0  0  0
   -0.0106   -1.0851    0.5774 O   0  0  0  0  0  0  0  0  0  0  0  0
    0.1168    1.4689    2.7060 C   0  0  0  0  0  0  0  0  0  0  0  0
    1.1183   -1.4145    2.5542 H   0  0  0  0  0  0  0  0  0  0  0  0
   -1.3088   -0.0350    3.3125 H   0  0  0  0  0  0  0  0  0  0  0  0
    1.0116    1.5681    2.0808 H   0  0  0  0  0  0  0  0  0  0  0  0
   -0.6289    2.1775    2.3307 H   0  0  0  0  0  0  0  0  0  0  0  0
    0.3882    1.7670    3.7245 H   0  0  0  0  0  0  0  0  0  0  0  0
   -1.9689    0.1350    0.8298 N   0  0  0  0  0  0  0  0  0  0  0  0
   -2.5039   -0.1183   -0.4830 C   0  0  2  0  0  0  0  0  0  0  0  0
   -1.5233   -1.0132   -1.2331 C   0  0  0  0  0  0  0  0  0  0  0  0
   -1.1612   -0.7910   -2.3866 O   0  0  0  0  0  0  0  0  0  0  0  0
   -2.7859    1.1772   -1.2372 C   0  0  0  0  0  0  0  0  0  0  0  0
   -1.5692    1.8623   -1.5119 O   0  0  0  0  0  0  0  0  0  0  0  0
   -2.5276    0.6894    1.4750 H   0  0  0  0  0  0  0  0  0  0  0  0
   -3.4411   -0.6668   -0.3335 H   0  0  0  0  0  0  0  0  0  0  0  0
   -3.4252    1.8434   -0.6491 H   0  0  0  0  0  0  0  0  0  0  0  0
   -3.2810    0.9673   -2.1913 H   0  0  0  0  0  0  0  0  0  0  0  0
   -1.0294    1.2647   -2.0532 H   0  0  0  0  0  0  0  0  0  0  0  0
   -1.0687   -2.0631   -0.4477 N   0  0  0  0  0  0  0  0  0  0  0  0
   -0.1084   -3.0338   -0.9189 C   0  0  2  0  0  0  0  0  0  0  0  0
    0.8528   -2.3243   -1.8635 C   0  0  0  0  0  0  0  0  0  0  0  0
    0.5705   -1.2805   -2.4482 O   0  0  0  0  0  0  0  0  0  0  0  0
   -0.7950   -4.1982   -1.6158 C   0  0  0  0  0  0  0  0  0  0  0  0
   -1.3930   -2.1461    0.5113 H   0  0  0  0  0  0  0  0  0  0  0  0
    0.4391   -3.3898   -0.0394 H   0  0  0  0  0  0  0  0  0  0  0  0
   -1.3487   -3.8610   -2.4996 H   0  0  0  0  0  0  0  0  0  0  0  0
   -0.0679   -4.9469   -1.9471 H   0  0  0  0  0  0  0  0  0  0  0  0
   -1.5078   -4.6888   -0.9443 H   0  0  0  0  0  0  0  0  0  0  0  0
    2.0467   -3.0166   -2.0101 N   0  0  0  0  0  0  0  0  0  0  0  0
    3.1163   -2.5543   -2.8634 C   0  0  0  0  0  0  0  0  0  0  0  0
    2.2022   -3.8640   -1.4721 H   0  0  0  0  0  0  0  0  0  0  0  0
    3.0092   -3.0027   -3.8621 H   0  0  0  0  0  0  0  0  0  0  0  0
    3.0710   -1.4584   -2.9468 H   0  0  0  0  0  0  0  0  0  0  0  0
    4.0837   -2.8494   -2.4310 H   0  0  0  0  0  0  0  0  0  0  0  0
  1  3  1  0  0  0  0
  1  7  1  0  0  0  0
  1  2  2  0  0  0  0
 29 30  1  0  0  0  0
 30 38  1  0  0  0  0
 30 31  2  0  0  0  0
  8  9  1  0  0  0  0
  9 17  1  0  0  0  0
  9 10  2  0  0  0  0
 18 19  1  0  0  0  0
 19 28  1  0  0  0  0
 19 20  2  0  0  0  0
 29 32  1  0  0  0  0
  8 11  1  0  0  0  0
 38 39  1  0  0  0  0
 18 21  1  0  0  0  0
 21 22  1  0  0  0  0
 28 29  1  0  0  0  0
  7  8  1  0  0  0  0
 17 18  1  0  0  0  0
  3  4  1  0  0  0  0
  3  5  1  0  0  0  0
  3  6  1  0  0  0  0
 32 35  1  0  0  0  0
 32 36  1  0  0  0  0
 32 37  1  0  0  0  0
 11 14  1  0  0  0  0
 11 15  1  0  0  0  0
 11 16  1  0  0  0  0
 39 41  1  0  0  0  0
 39 42  1  0  0  0  0
 39 43  1  0  0  0  0
 21 25  1  0  0  0  0
 21 26  1  0  0  0  0
 29 34  1  0  0  0  0
  8 13  1  0  0  0  0
 18 24  1  0  0  0  0
 38 40  1  0  0  0  0
  7 12  1  0  0  0  0
 28 33  1  0  0  0  0
 17 23  1  0  0  0  0
 22 27  1  0  0  0  0
M  END
$$$$

  -OEChem-05262214473D

 43 42  0     1  0  0  0  0  0999 V2000
    0.7424   -1.0926    4.5665 C   0  0  0  0  0  0  0  0  0  0  0  0
    0.1409   -0.5364    5.4779 O   0  0  0  0  0  0  0  0  0  0  0  0
    1.7940   -2.1023    4.8871 C   0  0  0  0  0  0  0  0  0  0  0  0
    2.7935   -1.6502    4.9904 H   0  0  0  0  0  0  0  0  0  0  0  0
    1.6064   -2.6156    5.8438 H   0  0  0  0  0  0  0  0  0  0  0  0
    1.9156   -2.9078    4.1453 H   0  0  0  0  0  0  0  0  0  0  0  0
    0.5488   -0.8838    3.2109 N   0  0  0  0  0  0  0  0  0  0  0  0
   -0.4159    0.0446    2.6829 C   0  0  2  0  0  0  0  0  0  0  0  0
   -0.7551   -0.3867    1.2623 C   0  0  0  0  0  0  0  0  0  0  0  0
   -0.0106   -1.0851    0.5774 O   0  0  0  0  0  0  0  0  0  0  0  0
    0.1168    1.4689    2.7060 C   0  0  0  0  0  0  0  0  0  0  0  0
    1.1183   -1.4145    2.5542 H   0  0  0  0  0  0  0  0  0  0  0  0
   -1.3088   -0.0350    3.3125 H   0  0  0  0  0  0  0  0  0  0  0  0
    1.0116    1.5681    2.0808 H   0  0  0  0  0  0  0  0  0  0  0  0
   -0.6289    2.1775    2.3307 H   0  0  0  0  0  0  0  0  0  0  0  0
    0.3882    1.7670    3.7245 H   0  0  0  0  0  0  0  0  0  0  0  0
   -1.9689    0.1350    0.8298 N   0  0  0  0  0  0  0  0  0  0  0  0
   -2.5039   -0.1183   -0.4830 C   0  0  2  0  0  0  0  0  0  0  0  0
   -1.5233   -1.0132   -1.2331 C   0  0  0  0  0  0  0  0  0  0  0  0
   -0.9553   -0.6661   -2.2665 O   0  0  0  0  0  0  0  0  0  0  0  0
   -2.7859    1.1772   -1.2372 C   0  0  0  0  0  0  0  0  0  0  0  0
   -1.5692    1.8623   -1.5119 O   0  0  0  0  0  0  0  0  0  0  0  0
   -2.5276    0.6894    1.4750 H   0  0  0  0  0  0  0  0  0  0  0  0
   -3.4411   -0.6668   -0.3335 H   0  0  0  0  0  0  0  0  0  0  0  0
   -3.4252    1.8434   -0.6491 H   0  0  0  0  0  0  0  0  0  0  0  0
   -3.2810    0.9673   -2.1913 H   0  0  0  0  0  0  0  0  0  0  0  0
   -1.0294    1.2647   -2.0532 H   0  0  0  0  0  0  0  0  0  0  0  0
   -1.3257   -2.2264   -0.5889 N   0  0  0  0  0  0  0  0  0  0  0  0
   -0.4191   -3.2363   -1.0835 C   0  0  2  0  0  0  0  0  0  0  0  0
    0.7578   -2.5294   -1.7430 C   0  0  0  0  0  0  0  0  0  0  0  0
    0.6958   -1.3778   -2.1684 O   0  0  0  0  0  0  0  0  0  0  0  0
   -1.1118   -4.1692   -2.0646 C   0  0  0  0  0  0  0  0  0  0  0  0
   -1.8090   -2.4122    0.2849 H   0  0  0  0  0  0  0  0  0  0  0  0
   -0.0663   -3.7987   -0.2122 H   0  0  0  0  0  0  0  0  0  0  0  0
   -1.4721   -3.6235   -2.9443 H   0  0  0  0  0  0  0  0  0  0  0  0
   -0.4310   -4.9512   -2.4167 H   0  0  0  0  0  0  0  0  0  0  0  0
   -1.9758   -4.6541   -1.5975 H   0  0  0  0  0  0  0  0  0  0  0  0
    1.8724   -3.3507   -1.8393 N   0  0  0  0  0  0  0  0  0  0  0  0
    3.1124   -2.9149   -2.4382 C   0  0  0  0  0  0  0  0  0  0  0  0
    1.8403   -4.2852   -1.4427 H   0  0  0  0  0  0  0  0  0  0  0  0
    3.1186   -3.1819   -3.5053 H   0  0  0  0  0  0  0  0  0  0  0  0
    3.2070   -1.8241   -2.3327 H   0  0  0  0  0  0  0  0  0  0  0  0
    3.9564   -3.4068   -1.9324 H   0  0  0  0  0  0  0  0  0  0  0  0
  1  3  1  0  0  0  0
  1  7  1  0  0  0  0
  1  2  2  0  0  0  0
 29 30  1  0  0  0  0
 30 38  1  0  0  0  0
 30 31  2  0  0  0  0
  8  9  1  0  0  0  0
  9 17  1  0  0  0  0
  9 10  2  0  0  0  0
 18 19  1  0  0  0  0
 19 28  1  0  0  0  0
 19 20  2  0  0  0  0
 29 32  1  0  0  0  0
  8 11  1  0  0  0  0
 38 39  1  0  0  0  0
 18 21  1  0  0  0  0
 21 22  1  0  0  0  0
 28 29  1  0  0  0  0
  7  8  1  0  0  0  0
 17 18  1  0  0  0  0
  3  4  1  0  0  0  0
  3  5  1  0  0  0  0
  3  6  1  0  0  0  0
 32 35  1  0  0  0  0
 32 36  1  0  0  0  0
 32 37  1  0  0  0  0
 11 14  1  0  0  0  0
 11 15  1  0  0  0  0
 11 16  1  0  0  0  0
 39 41  1  0  0  0  0
 39 42  1  0  0  0  0
 39 43  1  0  0  0  0
 21 25  1  0  0  0  0
 21 26  1  0  0  0  0
 29 34  1  0  0  0  0
  8 13  1  0  0  0  0
 18 24  1  0  0  0  0
 38 40  1  0  0  0  0
  7 12  1  0  0  0  0
 28 33  1  0  0  0  0
 17 23  1  0  0  0  0
 22 27  1  0  0  0  0
M  END
$$$$

  -OEChem-05262214473D

 43 42  0     1  0  0  0  0  0999 V2000
    0.7424   -1.0926    4.5665 C   0  0  0  0  0  0  0  0  0  0  0  0
    0.1409   -0.5364    5.4779 O   0  0  0  0  0  0  0  0  0  0  0  0
    1.7940   -2.1023    4.8871 C   0  0  0  0  0  0  0  0  0  0  0  0
    2.7935   -1.6502    4.9904 H   0  0  0  0  0  0  0  0  0  0  0  0
    1.6064   -2.6156    5.8438 H   0  0  0  0  0  0  0  0  0  0  0  0
    1.9156   -2.9078    4.1453 H   0  0  0  0  0  0  0  0  0  0  0  0
    0.5488   -0.8838    3.2109 N   0  0  0  0  0  0  0  0  0  0  0  0
   -0.4159    0.0446    2.6829 C   0  0  2  0  0  0  0  0  0  0  0  0
   -0.7551   -0.3867    1.2623 C   0  0  0  0  0  0  0  0  0  0  0  0
   -0.0106   -1.0851    0.5774 O   0  0  0  0  0  0  0  0  0  0  0  0
    0.1168    1.4689    2.7060 C   0  0  0  0  0  0  0  0  0  0  0  0
    1.1183   -1.4145    2.5542 H   0  0  0  0  0  0  0  0  0  0  0  0
   -1.3088   -0.0350    3.3125 H   0  0  0  0  0  0  0  0  0  0  0  0
    1.0116    1.5681    2.0808 H   0  0  0  0  0  0  0  0  0  0  0  0
   -0.6289    2.1775    2.3307 H   0  0  0  0  0  0  0  0  0  0  0  0
    0.3882    1.7670    3.7245 H   0  0  0  0  0  0  0  0  0  0  0  0
   -1.9689    0.1350    0.8298 N   0  0  0  0  0  0  0  0  0  0  0  0
   -2.5039   -0.1183   -0.4830 C   0  0  2  0  0  0  0  0  0  0  0  0
   -1.5233   -1.0132   -1.2331 C   0  0  0  0  0  0  0  0  0  0  0  0
   -0.7588   -0.5916   -2.0985 O   0  0  0  0  0  0  0  0  0  0  0  0
   -2.7859    1.1772   -1.2372 C   0  0  0  0  0  0  0  0  0  0  0  0
   -1.5692    1.8623   -1.5119 O   0  0  0  0  0  0  0  0  0  0  0  0
   -2.5276    0.6894    1.4750 H   0  0  0  0  0  0  0  0  0  0  0  0
   -3.4411   -0.6668   -0.3335 H   0  0  0  0  0  0  0  0  0  0  0  0
   -3.4252    1.8434   -0.6491 H   0  0  0  0  0  0  0  0  0  0  0  0
   -3.2810    0.9673   -2.1913 H   0  0  0  0  0  0  0  0  0  0  0  0
   -1.0294    1.2647   -2.0532 H   0  0  0  0  0  0  0  0  0  0  0  0
   -1.5733   -2.3279   -0.7915 N   0  0  0  0  0  0  0  0  0  0  0  0
   -0.7199   -3.3648   -1.3234 C   0  0  2  0  0  0  0  0  0  0  0  0
    0.6216   -2.7355   -1.6751 C   0  0  0  0  0  0  0  0  0  0  0  0
    0.7619   -1.5342   -1.8954 O   0  0  0  0  0  0  0  0  0  0  0  0
   -1.3460   -4.0262   -2.5413 C   0  0  0  0  0  0  0  0  0  0  0  0
   -2.2104   -2.5786   -0.0412 H   0  0  0  0  0  0  0  0  0  0  0  0
   -0.5804   -4.1006   -0.5240 H   0  0  0  0  0  0  0  0  0  0  0  0
   -1.4935   -3.3044   -3.3530 H   0  0  0  0  0  0  0  0  0  0  0  0
   -0.7111   -4.8310   -2.9262 H   0  0  0  0  0  0  0  0  0  0  0  0
   -2.3242   -4.4523   -2.2937 H   0  0  0  0  0  0  0  0  0  0  0  0
    1.6357   -3.6795   -1.7565 N   0  0  0  0  0  0  0  0  0  0  0  0
    2.9982   -3.3336   -2.0881 C   0  0  0  0  0  0  0  0  0  0  0  0
    1.4327   -4.6508   -1.5393 H   0  0  0  0  0  0  0  0  0  0  0  0
    3.1472   -3.4283   -3.1738 H   0  0  0  0  0  0  0  0  0  0  0  0
    3.1985   -2.2969   -1.7797 H   0  0  0  0  0  0  0  0  0  0  0  0
    3.6867   -4.0120   -1.5630 H   0  0  0  0  0  0  0  0  0  0  0  0
  1  3  1  0  0  0  0
  1  7  1  0  0  0  0
  1  2  2  0  0  0  0
 29 30  1  0  0  0  0
 30 38  1  0  0  0  0
 30 31  2  0  0  0  0
  8  9  1  0  0  0  0
  9 17  1  0  0  0  0
  9 10  2  0  0  0  0
 18 19  1  0  0  0  0
 19 28  1  0  0  0  0
 19 20  2  0  0  0  0
 29 32  1  0  0  0  0
  8 11  1  0  0  0  0
 38 39  1  0  0  0  0
 18 21  1  0  0  0  0
 21 22  1  0  0  0  0
 28 29  1  0  0  0  0
  7  8  1  0  0  0  0
 17 18  1  0  0  0  0
  3  4  1  0  0  0  0
  3  5  1  0  0  0  0
  3  6  1  0  0  0  0
 32 35  1  0  0  0  0
 32 36  1  0  0  0  0
 32 37  1  0  0  0  0
 11 14  1  0  0  0  0
 11 15  1  0  0  0  0
 11 16  1  0  0  0  0
 39 41  1  0  0  0  0
 39 42  1  0  0  0  0
 39 43  1  0  0  0  0
 21 25  1  0  0  0  0
 21 26  1  0  0  0  0
 29 34  1  0  0  0  0
  8 13  1  0  0  0  0
 18 24  1  0  0  0  0
 38 40  1  0  0  0  0
  7 12  1  0  0  0  0
 28 33  1  0  0  0  0
 17 23  1  0  0  0  0
 22 27  1  0  0  0  0
M  END
$$$$

  -OEChem-05262214473D

 43 42  0     1  0  0  0  0  0999 V2000
    0.7424   -1.0926    4.5665 C   0  0  0  0  0  0  0  0  0  0  0  0
    0.1409   -0.5364    5.4779 O   0  0  0  0  0  0  0  0  0  0  0  0
    1.7940   -2.1023    4.8871 C   0  0  0  0  0  0  0  0  0  0  0  0
    2.7935   -1.6502    4.9904 H   0  0  0  0  0  0  0  0  0  0  0  0
    1.6064   -2.6156    5.8438 H   0  0  0  0  0  0  0  0  0  0  0  0
    1.9156   -2.9078    4.1453 H   0  0  0  0  0  0  0  0  0  0  0  0
    0.5488   -0.8838    3.2109 N   0  0  0  0  0  0  0  0  0  0  0  0
   -0.4159    0.0446    2.6829 C   0  0  2  0  0  0  0  0  0  0  0  0
   -0.7551   -0.3867    1.2623 C   0  0  0  0  0  0  0  0  0  0  0  0
   -0.0106   -1.0851    0.5774 O   0  0  0  0  0  0  0  0  0  0  0  0
    0.1168    1.4689    2.7060 C   0  0  0  0  0  0  0  0  0  0  0  0
    1.1183   -1.4145    2.5542 H   0  0  0  0  0  0  0  0  0  0  0  0
   -1.3088   -0.0350    3.3125 H   0  0  0  0  0  0  0  0  0  0  0  0
    1.0116    1.5681    2.0808 H   0  0  0  0  0  0  0  0  0  0  0  0
   -0.6289    2.1775    2.3307 H   0  0  0  0  0  0  0  0  0  0  0  0
    0.3882    1.7670    3.7245 H   0  0  0  0  0  0  0  0  0  0  0  0
   -1.9689    0.1350    0.8298 N   0  0  0  0  0  0  0  0  0  0  0  0
   -2.5039   -0.1183   -0.4830 C   0  0  2  0  0  0  0  0  0  0  0  0
   -1.5233   -1.0132   -1.2331 C   0  0  0  0  0  0  0  0  0  0  0  0
   -0.5851   -0.5727   -1.8939 O   0  0  0  0  0  0  0  0  0  0  0  0
   -2.7859    1.1772   -1.2372 C   0  0  0  0  0  0  0  0  0  0  0  0
   -1.5692    1.8623   -1.5119 O   0  0  0  0  0  0  0  0  0  0  0  0
   -2.5276    0.6894    1.4750 H   0  0  0  0  0  0  0  0  0  0  0  0
   -3.4411   -0.6668   -0.3335 H   0  0  0  0  0  0  0  0  0  0  0  0
   -3.4252    1.8434   -0.6491 H   0  0  0  0  0  0  0  0  0  0  0  0
   -3.2810    0.9673   -2.1913 H   0  0  0  0  0  0  0  0  0  0  0  0
   -1.0294    1.2647   -2.0532 H   0  0  0  0  0  0  0  0  0  0  0  0
   -1.7946   -2.3606   -1.0417 N   0  0  0  0  0  0  0  0  0  0  0  0
   -0.9904   -3.4108   -1.6223 C   0  0  2  0  0  0  0  0  0  0  0  0
    0.4536   -2.9284   -1.6646 C   0  0  0  0  0  0  0  0  0  0  0  0
    0.7643   -1.7392   -1.6476 O   0  0  0  0  0  0  0  0  0  0  0  0
   -1.4816   -3.7788   -3.0137 C   0  0  0  0  0  0  0  0  0  0  0  0
   -2.5697   -2.6340   -0.4449 H   0  0  0  0  0  0  0  0  0  0  0  0
   -1.0680   -4.2749   -0.9535 H   0  0  0  0  0  0  0  0  0  0  0  0
   -1.4115   -2.9254   -3.6979 H   0  0  0  0  0  0  0  0  0  0  0  0
   -0.8888   -4.5944   -3.4408 H   0  0  0  0  0  0  0  0  0  0  0  0
   -2.5293   -4.0971   -2.9856 H   0  0  0  0  0  0  0  0  0  0  0  0
    1.3525   -3.9808   -1.7672 N   0  0  0  0  0  0  0  0  0  0  0  0
    2.7813   -3.7817   -1.8369 C   0  0  0  0  0  0  0  0  0  0  0  0
    1.0071   -4.9360   -1.7555 H   0  0  0  0  0  0  0  0  0  0  0  0
    3.0932   -3.7252   -2.8903 H   0  0  0  0  0  0  0  0  0  0  0  0
    3.0462   -2.8445   -1.3255 H   0  0  0  0  0  0  0  0  0  0  0  0
    3.2930   -4.6237   -1.3478 H   0  0  0  0  0  0  0  0  0  0  0  0
  1  3  1  0  0  0  0
  1  7  1  0  0  0  0
  1  2  2  0  0  0  0
 29 30  1  0  0  0  0
 30 38  1  0  0  0  0
 30 31  2  0  0  0  0
  8  9  1  0  0  0  0
  9 17  1  0  0  0  0
  9 10  2  0  0  0  0
 18 19  1  0  0  0  0
 19 28  1  0  0  0  0
 19 20  2  0  0  0  0
 29 32  1  0  0  0  0
  8 11  1  0  0  0  0
 38 39  1  0  0  0  0
 18 21  1  0  0  0  0
 21 22  1  0  0  0  0
 28 29  1  0  0  0  0
  7  8  1  0  0  0  0
 17 18  1  0  0  0  0
  3  4  1  0  0  0  0
  3  5  1  0  0  0  0
  3  6  1  0  0  0  0
 32 35  1  0  0  0  0
 32 36  1  0  0  0  0
 32 37  1  0  0  0  0
 11 14  1  0  0  0  0
 11 15  1  0  0  0  0
 11 16  1  0  0  0  0
 39 41  1  0  0  0  0
 39 42  1  0  0  0  0
 39 43  1  0  0  0  0
 21 25  1  0  0  0  0
 21 26  1  0  0  0  0
 29 34  1  0  0  0  0
  8 13  1  0  0  0  0
 18 24  1  0  0  0  0
 38 40  1  0  0  0  0
  7 12  1  0  0  0  0
 28 33  1  0  0  0  0
 17 23  1  0  0  0  0
 22 27  1  0  0  0  0
M  END
$$$$

  -OEChem-05262214473D

 43 42  0     1  0  0  0  0  0999 V2000
    0.7424   -1.0926    4.5665 C   0  0  0  0  0  0  0  0  0  0  0  0
    0.1409   -0.5364    5.4779 O   0  0  0  0  0  0  0  0  0  0  0  0
    1.7940   -2.1023    4.8871 C   0  0  0  0  0  0  0  0  0  0  0  0
    2.7935   -1.6502    4.9904 H   0  0  0  0  0  0  0  0  0  0  0  0
    1.6064   -2.6156    5.8438 H   0  0  0  0  0  0  0  0  0  0  0  0
    1.9156   -2.9078    4.1453 H   0  0  0  0  0  0  0  0  0  0  0  0
    0.5488   -0.8838    3.2109 N   0  0  0  0  0  0  0  0  0  0  0  0
   -0.4159    0.0446    2.6829 C   0  0  2  0  0  0  0  0  0  0  0  0
   -0.7551   -0.3867    1.2623 C   0  0  0  0  0  0  0  0  0  0  0  0
   -0.0106   -1.0851    0.5774 O   0  0  0  0  0  0  0  0  0  0  0  0
    0.1168    1.4689    2.7060 C   0  0  0  0  0  0  0  0  0  0  0  0
    1.1183   -1.4145    2.5542 H   0  0  0  0  0  0  0  0  0  0  0  0
   -1.3088   -0.0350    3.3125 H   0  0  0  0  0  0  0  0  0  0  0  0
    1.0116    1.5681    2.0808 H   0  0  0  0  0  0  0  0  0  0  0  0
   -0.6289    2.1775    2.3307 H   0  0  0  0  0  0  0  0  0  0  0  0
    0.3882    1.7670    3.7245 H   0  0  0  0  0  0  0  0  0  0  0  0
   -1.9689    0.1350    0.8298 N   0  0  0  0  0  0  0  0  0  0  0  0
   -2.5039   -0.1183   -0.4830 C   0  0  2  0  0  0  0  0  0  0  0  0
   -1.5233   -1.0132   -1.2331 C   0  0  0  0  0  0  0  0  0  0  0  0
   -0.4459   -0.6106   -1.6668 O   0  0  0  0  0  0  0  0  0  0  0  0
   -2.7859    1.1772   -1.2372 C   0  0  0  0  0  0  0  0  0  0  0  0
   -1.5692    1.8623   -1.5119 O   0  0  0  0  0  0  0  0  0  0  0  0
   -2.5276    0.6894    1.4750 H   0  0  0  0  0  0  0  0  0  0  0  0
   -3.4411   -0.6668   -0.3335 H   0  0  0  0  0  0  0  0  0  0  0  0
   -3.4252    1.8434   -0.6491 H   0  0  0  0  0  0  0  0  0  0  0  0
   -3.2810    0.9673   -2.1913 H   0  0  0  0  0  0  0  0  0  0  0  0
   -1.0294    1.2647   -2.0532 H   0  0  0  0  0  0  0  0  0  0  0  0
   -1.9746   -2.3225   -1.3225 N   0  0  0  0  0  0  0  0  0  0  0  0
   -1.2122   -3.3710   -1.9596 C   0  0  2  0  0  0  0  0  0  0  0  0
    0.2650   -3.0952   -1.7121 C   0  0  0  0  0  0  0  0  0  0  0  0
    0.7029   -1.9788   -1.4420 O   0  0  0  0  0  0  0  0  0  0  0  0
   -1.5093   -3.4441   -3.4493 C   0  0  0  0  0  0  0  0  0  0  0  0
   -2.8625   -2.5746   -0.8986 H   0  0  0  0  0  0  0  0  0  0  0  0
   -1.4959   -4.3097   -1.4714 H   0  0  0  0  0  0  0  0  0  0  0  0
   -1.2316   -2.5124   -3.9555 H   0  0  0  0  0  0  0  0  0  0  0  0
   -0.9523   -4.2577   -3.9255 H   0  0  0  0  0  0  0  0  0  0  0  0
   -2.5771   -3.6128   -3.6259 H   0  0  0  0  0  0  0  0  0  0  0  0
    1.0423   -4.2340   -1.8707 N   0  0  0  0  0  0  0  0  0  0  0  0
    2.4766   -4.2287   -1.7019 C   0  0  0  0  0  0  0  0  0  0  0  0
    0.5925   -5.1213   -2.0764 H   0  0  0  0  0  0  0  0  0  0  0  0
    2.9601   -4.0522   -2.6741 H   0  0  0  0  0  0  0  0  0  0  0  0
    2.7603   -3.4297   -1.0011 H   0  0  0  0  0  0  0  0  0  0  0  0
    2.8022   -5.2002   -1.3016 H   0  0  0  0  0  0  0  0  0  0  0  0
  1  3  1  0  0  0  0
  1  7  1  0  0  0  0
  1  2  2  0  0  0  0
 29 30  1  0  0  0  0
 30 38  1  0  0  0  0
 30 31  2  0  0  0  0
  8  9  1  0  0  0  0
  9 17  1  0  0  0  0
  9 10  2  0  0  0  0
 18 19  1  0  0  0  0
 19 28  1  0  0  0  0
 19 20  2  0  0  0  0
 29 32  1  0  0  0  0
  8 11  1  0  0  0  0
 38 39  1  0  0  0  0
 18 21  1  0  0  0  0
 21 22  1  0  0  0  0
 28 29  1  0  0  0  0
  7  8  1  0  0  0  0
 17 18  1  0  0  0  0
  3  4  1  0  0  0  0
  3  5  1  0  0  0  0
  3  6  1  0  0  0  0
 32 35  1  0  0  0  0
 32 36  1  0  0  0  0
 32 37  1  0  0  0  0
 11 14  1  0  0  0  0
 11 15  1  0  0  0  0
 11 16  1  0  0  0  0
 39 41  1  0  0  0  0
 39 42  1  0  0  0  0
 39 43  1  0  0  0  0
 21 25  1  0  0  0  0
 21 26  1  0  0  0  0
 29 34  1  0  0  0  0
  8 13  1  0  0  0  0
 18 24  1  0  0  0  0
 38 40  1  0  0  0  0
  7 12  1  0  0  0  0
 28 33  1  0  0  0  0
 17 23  1  0  0  0  0
 22 27  1  0  0  0  0
M  END
$$$$

  -OEChem-05262214473D

 43 42  0     1  0  0  0  0  0999 V2000
    0.7424   -1.0926    4.5665 C   0  0  0  0  0  0  0  0  0  0  0  0
    0.1409   -0.5364    5.4779 O   0  0  0  0  0  0  0  0  0  0  0  0
    1.7940   -2.1023    4.8871 C   0  0  0  0  0  0  0  0  0  0  0  0
    2.7935   -1.6502    4.9904 H   0  0  0  0  0  0  0  0  0  0  0  0
    1.6064   -2.6156    5.8438 H   0  0  0  0  0  0  0  0  0  0  0  0
    1.9156   -2.9078    4.1453 H   0  0  0  0  0  0  0  0  0  0  0  0
    0.5488   -0.8838    3.2109 N   0  0  0  0  0  0  0  0  0  0  0  0
   -0.4159    0.0446    2.6829 C   0  0  2  0  0  0  0  0  0  0  0  0
   -0.7551   -0.3867    1.2623 C   0  0  0  0  0  0  0  0  0  0  0  0
   -0.0106   -1.0851    0.5774 O   0  0  0  0  0  0  0  0  0  0  0  0
    0.1168    1.4689    2.7060 C   0  0  0  0  0  0  0  0  0  0  0  0
    1.1183   -1.4145    2.5542 H   0  0  0  0  0  0  0  0  0  0  0  0
   -1.3088   -0.0350    3.3125 H   0  0  0  0  0  0  0  0  0  0  0  0
    1.0116    1.5681    2.0808 H   0  0  0  0  0  0  0  0  0  0  0  0
   -0.6289    2.1775    2.3307 H   0  0  0  0  0  0  0  0  0  0  0  0
    0.3882    1.7670    3.7245 H   0  0  0  0  0  0  0  0  0  0  0  0
   -1.9689    0.1350    0.8298 N   0  0  0  0  0  0  0  0  0  0  0  0
   -2.5039   -0.1183   -0.4830 C   0  0  2  0  0  0  0  0  0  0  0  0
   -1.5233   -1.0132   -1.2331 C   0  0  0  0  0  0  0  0  0  0  0  0
   -0.3508   -0.7027   -1.4326 O   0  0  0  0  0  0  0  0  0  0  0  0
   -2.7859    1.1772   -1.2372 C   0  0  0  0  0  0  0  0  0  0  0  0
   -1.5692    1.8623   -1.5119 O   0  0  0  0  0  0  0  0  0  0  0  0
   -2.5276    0.6894    1.4750 H   0  0  0  0  0  0  0  0  0  0  0  0
   -3.4411   -0.6668   -0.3335 H   0  0  0  0  0  0  0  0  0  0  0  0
   -3.4252    1.8434   -0.6491 H   0  0  0  0  0  0  0  0  0  0  0  0
   -3.2810    0.9673   -2.1913 H   0  0  0  0  0  0  0  0  0  0  0  0
   -1.0294    1.2647   -2.0532 H   0  0  0  0  0  0  0  0  0  0  0  0
   -2.1009   -2.2160   -1.6146 N   0  0  0  0  0  0  0  0  0  0  0  0
   -1.3701   -3.2481   -2.3126 C   0  0  2  0  0  0  0  0  0  0  0  0
    0.0689   -3.2244   -1.8144 C   0  0  0  0  0  0  0  0  0  0  0  0
    0.5819   -2.2366   -1.2927 O   0  0  0  0  0  0  0  0  0  0  0  0
   -1.4273   -3.0447   -3.8186 C   0  0  0  0  0  0  0  0  0  0  0  0
   -3.0689   -2.4043   -1.3715 H   0  0  0  0  0  0  0  0  0  0  0  0
   -1.8350   -4.2026   -2.0425 H   0  0  0  0  0  0  0  0  0  0  0  0
   -0.9662   -2.0934   -4.1083 H   0  0  0  0  0  0  0  0  0  0  0  0
   -0.8970   -3.8436   -4.3473 H   0  0  0  0  0  0  0  0  0  0  0  0
   -2.4643   -3.0323   -4.1711 H   0  0  0  0  0  0  0  0  0  0  0  0
    0.7261   -4.4219   -2.0599 N   0  0  0  0  0  0  0  0  0  0  0  0
    2.1049   -4.6442   -1.6921 C   0  0  0  0  0  0  0  0  0  0  0  0
    0.2172   -5.1940   -2.4802 H   0  0  0  0  0  0  0  0  0  0  0  0
    2.7571   -4.3872   -2.5398 H   0  0  0  0  0  0  0  0  0  0  0  0
    2.3603   -4.0126   -0.8285 H   0  0  0  0  0  0  0  0  0  0  0  0
    2.2477   -5.7023   -1.4275 H   0  0  0  0  0  0  0  0  0  0  0  0
  1  3  1  0  0  0  0
  1  7  1  0  0  0  0
  1  2  2  0  0  0  0
 29 30  1  0  0  0  0
 30 38  1  0  0  0  0
 30 31  2  0  0  0  0
  8  9  1  0  0  0  0
  9 17  1  0  0  0  0
  9 10  2  0  0  0  0
 18 19  1  0  0  0  0
 19 28  1  0  0  0  0
 19 20  2  0  0  0  0
 29 32  1  0  0  0  0
  8 11  1  0  0  0  0
 38 39  1  0  0  0  0
 18 21  1  0  0  0  0
 21 22  1  0  0  0  0
 28 29  1  0  0  0  0
  7  8  1  0  0  0  0
 17 18  1  0  0  0  0
  3  4  1  0  0  0  0
  3  5  1  0  0  0  0
  3  6  1  0  0  0  0
 32 35  1  0  0  0  0
 32 36  1  0  0  0  0
 32 37  1  0  0  0  0
 11 14  1  0  0  0  0
 11 15  1  0  0  0  0
 11 16  1  0  0  0  0
 39 41  1  0  0  0  0
 39 42  1  0  0  0  0
 39 43  1  0  0  0  0
 21 25  1  0  0  0  0
 21 26  1  0  0  0  0
 29 34  1  0  0  0  0
  8 13  1  0  0  0  0
 18 24  1  0  0  0  0
 38 40  1  0  0  0  0
  7 12  1  0  0  0  0
 28 33  1  0  0  0  0
 17 23  1  0  0  0  0
 22 27  1  0  0  0  0
M  END
$$$$

  -OEChem-05262214473D

 43 42  0     1  0  0  0  0  0999 V2000
    0.7424   -1.0926    4.5665 C   0  0  0  0  0  0  0  0  0  0  0  0
    0.1409   -0.5364    5.4779 O   0  0  0  0  0  0  0  0  0  0  0  0
    1.7940   -2.1023    4.8871 C   0  0  0  0  0  0  0  0  0  0  0  0
    2.7935   -1.6502    4.9904 H   0  0  0  0  0  0  0  0  0  0  0  0
    1.6064   -2.6156    5.8438 H   0  0  0  0  0  0  0  0  0  0  0  0
    1.9156   -2.9078    4.1453 H   0  0  0  0  0  0  0  0  0  0  0  0
    0.5488   -0.8838    3.2109 N   0  0  0  0  0  0  0  0  0  0  0  0
   -0.4159    0.0446    2.6829 C   0  0  2  0  0  0  0  0  0  0  0  0
   -0.7551   -0.3867    1.2623 C   0  0  0  0  0  0  0  0  0  0  0  0
   -0.0106   -1.0851    0.5774 O   0  0  0  0  0  0  0  0  0  0  0  0
    0.1168    1.4689    2.7060 C   0  0  0  0  0  0  0  0  0  0  0  0
    1.1183   -1.4145    2.5542 H   0  0  0  0  0  0  0  0  0  0  0  0
   -1.3088   -0.0350    3.3125 H   0  0  0  0  0  0  0  0  0  0  0  0
    1.0116    1.5681    2.0808 H   0  0  0  0  0  0  0  0  0  0  0  0
   -0.6289    2.1775    2.3307 H   0  0  0  0  0  0  0  0  0  0  0  0
    0.3882    1.7670    3.7245 H   0  0  0  0  0  0  0  0  0  0  0  0
   -1.9689    0.1350    0.8298 N   0  0  0  0  0  0  0  0  0  0  0  0
   -2.5039   -0.1183   -0.4830 C   0  0  2  0  0  0  0  0  0  0  0  0
   -1.5233   -1.0132   -1.2331 C   0  0  0  0  0  0  0  0  0  0  0  0
   -0.3062   -0.8427   -1.2072 O   0  0  0  0  0  0  0  0  0  0  0  0
   -2.7859    1.1772   -1.2372 C   0  0  0  0  0  0  0  0  0  0  0  0
   -1.5692    1.8623   -1.5119 O   0  0  0  0  0  0  0  0  0  0  0  0
   -2.5276    0.6894    1.4750 H   0  0  0  0  0  0  0  0  0  0  0  0
   -3.4411   -0.6668   -0.3335 H   0  0  0  0  0  0  0  0  0  0  0  0
   -3.4252    1.8434   -0.6491 H   0  0  0  0  0  0  0  0  0  0  0  0
   -3.2810    0.9673   -2.1913 H   0  0  0  0  0  0  0  0  0  0  0  0
   -1.0294    1.2647   -2.0532 H   0  0  0  0  0  0  0  0  0  0  0  0
   -2.1649   -2.0484   -1.8983 N   0  0  0  0  0  0  0  0  0  0  0  0
   -1.4533   -3.0507   -2.6570 C   0  0  2  0  0  0  0  0  0  0  0  0
   -0.1214   -3.3072   -1.9644 C   0  0  0  0  0  0  0  0  0  0  0  0
    0.4095   -2.4950   -1.2097 O   0  0  0  0  0  0  0  0  0  0  0  0
   -1.2411   -2.6079   -4.0963 C   0  0  0  0  0  0  0  0  0  0  0  0
   -3.1747   -2.1349   -1.8313 H   0  0  0  0  0  0  0  0  0  0  0  0
   -2.0621   -3.9609   -2.6277 H   0  0  0  0  0  0  0  0  0  0  0  0
   -0.6332   -1.6971   -4.1458 H   0  0  0  0  0  0  0  0  0  0  0  0
   -0.7269   -3.3805   -4.6774 H   0  0  0  0  0  0  0  0  0  0  0  0
   -2.1987   -2.3952   -4.5839 H   0  0  0  0  0  0  0  0  0  0  0  0
    0.4255   -4.5316   -2.3220 N   0  0  0  0  0  0  0  0  0  0  0  0
    1.6915   -4.9998   -1.8083 C   0  0  0  0  0  0  0  0  0  0  0  0
   -0.0932   -5.1493   -2.9393 H   0  0  0  0  0  0  0  0  0  0  0  0
    2.4980   -4.7072   -2.4968 H   0  0  0  0  0  0  0  0  0  0  0  0
    1.8736   -4.5533   -0.8196 H   0  0  0  0  0  0  0  0  0  0  0  0
    1.6673   -6.0957   -1.7169 H   0  0  0  0  0  0  0  0  0  0  0  0
  1  3  1  0  0  0  0
  1  7  1  0  0  0  0
  1  2  2  0  0  0  0
 29 30  1  0  0  0  0
 30 38  1  0  0  0  0
 30 31  2  0  0  0  0
  8  9  1  0  0  0  0
  9 17  1  0  0  0  0
  9 10  2  0  0  0  0
 18 19  1  0  0  0  0
 19 28  1  0  0  0  0
 19 20  2  0  0  0  0
 29 32  1  0  0  0  0
  8 11  1  0  0  0  0
 38 39  1  0  0  0  0
 18 21  1  0  0  0  0
 21 22  1  0  0  0  0
 28 29  1  0  0  0  0
  7  8  1  0  0  0  0
 17 18  1  0  0  0  0
  3  4  1  0  0  0  0
  3  5  1  0  0  0  0
  3  6  1  0  0  0  0
 32 35  1  0  0  0  0
 32 36  1  0  0  0  0
 32 37  1  0  0  0  0
 11 14  1  0  0  0  0
 11 15  1  0  0  0  0
 11 16  1  0  0  0  0
 39 41  1  0  0  0  0
 39 42  1  0  0  0  0
 39 43  1  0  0  0  0
 21 25  1  0  0  0  0
 21 26  1  0  0  0  0
 29 34  1  0  0  0  0
  8 13  1  0  0  0  0
 18 24  1  0  0  0  0
 38 40  1  0  0  0  0
  7 12  1  0  0  0  0
 28 33  1  0  0  0  0
 17 23  1  0  0  0  0
 22 27  1  0  0  0  0
M  END
$$$$

  -OEChem-05262214473D

 43 42  0     1  0  0  0  0  0999 V2000
    0.7424   -1.0926    4.5665 C   0  0  0  0  0  0  0  0  0  0  0  0
    0.1409   -0.5364    5.4779 O   0  0  0  0  0  0  0  0  0  0  0  0
    1.7940   -2.1023    4.8871 C   0  0  0  0  0  0  0  0  0  0  0  0
    2.7935   -1.6502    4.9904 H   0  0  0  0  0  0  0  0  0  0  0  0
    1.6064   -2.6156    5.8438 H   0  0  0  0  0  0  0  0  0  0  0  0
    1.9156   -2.9078    4.1453 H   0  0  0  0  0  0  0  0  0  0  0  0
    0.5488   -0.8838    3.2109 N   0  0  0  0  0  0  0  0  0  0  0  0
   -0.4159    0.0446    2.6829 C   0  0  2  0  0  0  0  0  0  0  0  0
   -0.7551   -0.3867    1.2623 C   0  0  0  0  0  0  0  0  0  0  0  0
   -0.0106   -1.0851    0.5774 O   0  0  0  0  0  0  0  0  0  0  0  0
    0.1168    1.4689    2.7060 C   0  0  0  0  0  0  0  0  0  0  0  0
    1.1183   -1.4145    2.5542 H   0  0  0  0  0  0  0  0  0  0  0  0
   -1.3088   -0.0350    3.3125 H   0  0  0  0  0  0  0  0  0  0  0  0
    1.0116    1.5681    2.0808 H   0  0  0  0  0  0  0  0  0  0  0  0
   -0.6289    2.1775    2.3307 H   0  0  0  0  0  0  0  0  0  0  0  0
    0.3882    1.7670    3.7245 H   0  0  0  0  0  0  0  0  0  0  0  0
   -1.9689    0.1350    0.8298 N   0  0  0  0  0  0  0  0  0  0  0  0
   -2.5039   -0.1183   -0.4830 C   0  0  2  0  0  0  0  0  0  0  0  0
   -1.5233   -1.0132   -1.2331 C   0  0  0  0  0  0  0  0  0  0  0  0
   -0.3152   -1.0212   -1.0061 O   0  0  0  0  0  0  0  0  0  0  0  0
   -2.7859    1.1772   -1.2372 C   0  0  0  0  0  0  0  0  0  0  0  0
   -1.5692    1.8623   -1.5119 O   0  0  0  0  0  0  0  0  0  0  0  0
   -2.5276    0.6894    1.4750 H   0  0  0  0  0  0  0  0  0  0  0  0
   -3.4411   -0.6668   -0.3335 H   0  0  0  0  0  0  0  0  0  0  0  0
   -3.4252    1.8434   -0.6491 H   0  0  0  0  0  0  0  0  0  0  0  0
   -3.2810    0.9673   -2.1913 H   0  0  0  0  0  0  0  0  0  0  0  0
   -1.0294    1.2647   -2.0532 H   0  0  0  0  0  0  0  0  0  0  0  0
   -2.1624   -1.8312   -2.1541 N   0  0  0  0  0  0  0  0  0  0  0  0
   -1.4563   -2.7920   -2.9695 C   0  0  2  0  0  0  0  0  0  0  0  0
   -0.2930   -3.3379   -2.1521 C   0  0  0  0  0  0  0  0  0  0  0  0
    0.1975   -2.7365   -1.1987 O   0  0  0  0  0  0  0  0  0  0  0  0
   -0.9635   -2.1634   -4.2637 C   0  0  0  0  0  0  0  0  0  0  0  0
   -3.1728   -1.7847   -2.2466 H   0  0  0  0  0  0  0  0  0  0  0  0
   -2.1619   -3.6011   -3.1874 H   0  0  0  0  0  0  0  0  0  0  0  0
   -0.2554   -1.3505   -4.0655 H   0  0  0  0  0  0  0  0  0  0  0  0
   -0.4534   -2.8998   -4.8934 H   0  0  0  0  0  0  0  0  0  0  0  0
   -1.7982   -1.7449   -4.8362 H   0  0  0  0  0  0  0  0  0  0  0  0
    0.1610   -4.5557   -2.6391 N   0  0  0  0  0  0  0  0  0  0  0  0
    1.2645   -5.2713   -2.0425 C   0  0  0  0  0  0  0  0  0  0  0  0
   -0.3176   -4.9902   -3.4225 H   0  0  0  0  0  0  0  0  0  0  0  0
    2.2004   -4.9905   -2.5478 H   0  0  0  0  0  0  0  0  0  0  0  0
    1.3333   -5.0152   -0.9750 H   0  0  0  0  0  0  0  0  0  0  0  0
    1.1005   -6.3537   -2.1501 H   0  0  0  0  0  0  0  0  0  0  0  0
  1  3  1  0  0  0  0
  1  7  1  0  0  0  0
  1  2  2  0  0  0  0
 29 30  1  0  0  0  0
 30 38  1  0  0  0  0
 30 31  2  0  0  0  0
  8  9  1  0  0  0  0
  9 17  1  0  0  0  0
  9 10  2  0  0  0  0
 18 19  1  0  0  0  0
 19 28  1  0  0  0  0
 19 20  2  0  0  0  0
 29 32  1  0  0  0  0
  8 11  1  0  0  0  0
 38 39  1  0  0  0  0
 18 21  1  0  0  0  0
 21 22  1  0  0  0  0
 28 29  1  0  0  0  0
  7  8  1  0  0  0  0
 17 18  1  0  0  0  0
  3  4  1  0  0  0  0
  3  5  1  0  0  0  0
  3  6  1  0  0  0  0
 32 35  1  0  0  0  0
 32 36  1  0  0  0  0
 32 37  1  0  0  0  0
 11 14  1  0  0  0  0
 11 15  1  0  0  0  0
 11 16  1  0  0  0  0
 39 41  1  0  0  0  0
 39 42  1  0  0  0  0
 39 43  1  0  0  0  0
 21 25  1  0  0  0  0
 21 26  1  0  0  0  0
 29 34  1  0  0  0  0
  8 13  1  0  0  0  0
 18 24  1  0  0  0  0
 38 40  1  0  0  0  0
  7 12  1  0  0  0  0
 28 33  1  0  0  0  0
 17 23  1  0  0  0  0
 22 27  1  0  0  0  0
M  END
$$$$

  -OEChem-05262214473D

 43 42  0     1  0  0  0  0  0999 V2000
    0.7424   -1.0926    4.5665 C   0  0  0  0  0  0  0  0  0  0  0  0
    0.1409   -0.5364    5.4779 O   0  0  0  0  0  0  0  0  0  0  0  0
    1.7940   -2.1023    4.8871 C   0  0  0  0  0  0  0  0  0  0  0  0
    2.7935   -1.6502    4.9904 H   0  0  0  0  0  0  0  0  0  0  0  0
    1.6064   -2.6156    5.8438 H   0  0  0  0  0  0  0  0  0  0  0  0
    1.9156   -2.9078    4.1453 H   0  0  0  0  0  0  0  0  0  0  0  0
    0.5488   -0.8838    3.2109 N   0  0  0  0  0  0  0  0  0  0  0  0
   -0.4159    0.0446    2.6829 C   0  0  2  0  0  0  0  0  0  0  0  0
   -0.7551   -0.3867    1.2623 C   0  0  0  0  0  0  0  0  0  0  0  0
   -0.0106   -1.0851    0.5774 O   0  0  0  0  0  0  0  0  0  0  0  0
    0.1168    1.4689    2.7060 C   0  0  0  0  0  0  0  0  0  0  0  0
    1.1183   -1.4145    2.5542 H   0  0  0  0  0  0  0  0  0  0  0  0
   -1.3088   -0.0350    3.3125 H   0  0  0  0  0  0  0  0  0  0  0  0
    1.0116    1.5681    2.0808 H   0  0  0  0  0  0  0  0  0  0  0  0
   -0.6289    2.1775    2.3307 H   0  0  0  0  0  0  0  0  0  0  0  0
    0.3882    1.7670    3.7245 H   0  0  0  0  0  0  0  0  0  0  0  0
   -1.9689    0.1350    0.8298 N   0  0  0  0  0  0  0  0  0  0  0  0
   -2.5039   -0.1183   -0.4830 C   0  0  2  0  0  0  0  0  0  0  0  0
   -1.5233   -1.0132   -1.2331 C   0  0  0  0  0  0  0  0  0  0  0  0
   -0.3772   -1.2259   -0.8428 O   0  0  0  0  0  0  0  0  0  0  0  0
   -2.7859    1.1772   -1.2372 C   0  0  0  0  0  0  0  0  0  0  0  0
   -1.5692    1.8623   -1.5119 O   0  0  0  0  0  0  0  0  0  0  0  0
   -2.5276    0.6894    1.4750 H   0  0  0  0  0  0  0  0  0  0  0  0
   -3.4411   -0.6668   -0.3335 H   0  0  0  0  0  0  0  0  0  0  0  0
   -3.4252    1.8434   -0.6491 H   0  0  0  0  0  0  0  0  0  0  0  0
   -3.2810    0.9673   -2.1913 H   0  0  0  0  0  0  0  0  0  0  0  0
   -1.0294    1.2647   -2.0532 H   0  0  0  0  0  0  0  0  0  0  0  0
   -2.0934   -1.5791   -2.3647 N   0  0  0  0  0  0  0  0  0  0  0  0
   -1.3787   -2.4897   -3.2288 C   0  0  2  0  0  0  0  0  0  0  0  0
   -0.4342   -3.3145   -2.3645 C   0  0  0  0  0  0  0  0  0  0  0  0
   -0.0397   -2.9447   -1.2606 O   0  0  0  0  0  0  0  0  0  0  0  0
   -0.6133   -1.7416   -4.3091 C   0  0  0  0  0  0  0  0  0  0  0  0
   -3.0633   -1.3775   -2.5892 H   0  0  0  0  0  0  0  0  0  0  0  0
   -2.1274   -3.1478   -3.6832 H   0  0  0  0  0  0  0  0  0  0  0  0
    0.1414   -1.0771   -3.8729 H   0  0  0  0  0  0  0  0  0  0  0  0
   -0.0953   -2.4344   -4.9804 H   0  0  0  0  0  0  0  0  0  0  0  0
   -1.2903   -1.1257   -4.9109 H   0  0  0  0  0  0  0  0  0  0  0  0
   -0.0494   -4.4924   -2.9895 N   0  0  0  0  0  0  0  0  0  0  0  0
    0.8531   -5.4403   -2.3788 C   0  0  0  0  0  0  0  0  0  0  0  0
   -0.4407   -4.7275   -3.8969 H   0  0  0  0  0  0  0  0  0  0  0  0
    1.8846   -5.2177   -2.6895 H   0  0  0  0  0  0  0  0  0  0  0  0
    0.7761   -5.3667   -1.2840 H   0  0  0  0  0  0  0  0  0  0  0  0
    0.5859   -6.4586   -2.6975 H   0  0  0  0  0  0  0  0  0  0  0  0
  1  3  1  0  0  0  0
  1  7  1  0  0  0  0
  1  2  2  0  0  0  0
 29 30  1  0  0  0  0
 30 38  1  0  0  0  0
 30 31  2  0  0  0  0
  8  9  1  0  0  0  0
  9 17  1  0  0  0  0
  9 10  2  0  0  0  0
 18 19  1  0  0  0  0
 19 28  1  0  0  0  0
 19 20  2  0  0  0  0
 29 32  1  0  0  0  0
  8 11  1  0  0  0  0
 38 39  1  0  0  0  0
 18 21  1  0  0  0  0
 21 22  1  0  0  0  0
 28 29  1  0  0  0  0
  7  8  1  0  0  0  0
 17 18  1  0  0  0  0
  3  4  1  0  0  0  0
  3  5  1  0  0  0  0
  3  6  1  0  0  0  0
 32 35  1  0  0  0  0
 32 36  1  0  0  0  0
 32 37  1  0  0  0  0
 11 14  1  0  0  0  0
 11 15  1  0  0  0  0
 11 16  1  0  0  0  0
 39 41  1  0  0  0  0
 39 42  1  0  0  0  0
 39 43  1  0  0  0  0
 21 25  1  0  0  0  0
 21 26  1  0  0  0  0
 29 34  1  0  0  0  0
  8 13  1  0  0  0  0
 18 24  1  0  0  0  0
 38 40  1  0  0  0  0
  7 12  1  0  0  0  0
 28 33  1  0  0  0  0
 17 23  1  0  0  0  0
 22 27  1  0  0  0  0
M  END
$$$$

  -OEChem-05262214473D

 43 42  0     1  0  0  0  0  0999 V2000
    0.7424   -1.0926    4.5665 C   0  0  0  0  0  0  0  0  0  0  0  0
    0.1409   -0.5364    5.4779 O   0  0  0  0  0  0  0  0  0  0  0  0
    1.7940   -2.1023    4.8871 C   0  0  0  0  0  0  0  0  0  0  0  0
    2.7935   -1.6502    4.9904 H   0  0  0  0  0  0  0  0  0  0  0  0
    1.6064   -2.6156    5.8438 H   0  0  0  0  0  0  0  0  0  0  0  0
    1.9156   -2.9078    4.1453 H   0  0  0  0  0  0  0  0  0  0  0  0
    0.5488   -0.8838    3.2109 N   0  0  0  0  0  0  0  0  0  0  0  0
   -0.4159    0.0446    2.6829 C   0  0  2  0  0  0  0  0  0  0  0  0
   -0.7551   -0.3867    1.2623 C   0  0  0  0  0  0  0  0  0  0  0  0
   -0.0106   -1.0851    0.5774 O   0  0  0  0  0  0  0  0  0  0  0  0
    0.1168    1.4689    2.7060 C   0  0  0  0  0  0  0  0  0  0  0  0
    1.1183   -1.4145    2.5542 H   0  0  0  0  0  0  0  0  0  0  0  0
   -1.3088   -0.0350    3.3125 H   0  0  0  0  0  0  0  0  0  0  0  0
    1.0116    1.5681    2.0808 H   0  0  0  0  0  0  0  0  0  0  0  0
   -0.6289    2.1775    2.3307 H   0  0  0  0  0  0  0  0  0  0  0  0
    0.3882    1.7670    3.7245 H   0  0  0  0  0  0  0  0  0  0  0  0
   -1.9689    0.1350    0.8298 N   0  0  0  0  0  0  0  0  0  0  0  0
   -2.5039   -0.1183   -0.4830 C   0  0  2  0  0  0  0  0  0  0  0  0
   -1.7398   -1.2891   -1.0917 C   0  0  0  0  0  0  0  0  0  0  0  0
   -0.8543   -1.8954   -0.4921 O   0  0  0  0  0  0  0  0  0  0  0  0
   -2.4434    1.1237   -1.3664 C   0  0  0  0  0  0  0  0  0  0  0  0
   -1.0899    1.4739   -1.6322 O   0  0  0  0  0  0  0  0  0  0  0  0
   -2.5276    0.6894    1.4750 H   0  0  0  0  0  0  0  0  0  0  0  0
   -3.5492   -0.4144   -0.3381 H   0  0  0  0  0  0  0  0  0  0  0  0
   -2.9253    1.9771   -0.8786 H   0  0  0  0  0  0  0  0  0  0  0  0
   -2.9416    0.9395   -2.3242 H   0  0  0  0  0  0  0  0  0  0  0  0
   -0.6899    0.7148   -2.0854 H   0  0  0  0  0  0  0  0  0  0  0  0
   -2.1931   -1.6030   -2.3651 N   0  0  0  0  0  0  0  0  0  0  0  0
   -1.6511   -2.6937   -3.1417 C   0  0  2  0  0  0  0  0  0  0  0  0
   -1.2648   -3.8095   -2.1798 C   0  0  0  0  0  0  0  0  0  0  0  0
   -1.0317   -3.6172   -0.9883 O   0  0  0  0  0  0  0  0  0  0  0  0
   -0.4527   -2.2456   -3.9638 C   0  0  0  0  0  0  0  0  0  0  0  0
   -2.9593   -1.0713   -2.7675 H   0  0  0  0  0  0  0  0  0  0  0  0
   -2.4533   -3.0412   -3.8018 H   0  0  0  0  0  0  0  0  0  0  0  0
    0.3614   -1.8939   -3.3196 H   0  0  0  0  0  0  0  0  0  0  0  0
   -0.0607   -3.0662   -4.5736 H   0  0  0  0  0  0  0  0  0  0  0  0
   -0.7254   -1.4230   -4.6338 H   0  0  0  0  0  0  0  0  0  0  0  0
   -1.1689   -5.0384   -2.8176 N   0  0  0  0  0  0  0  0  0  0  0  0
   -0.8045   -6.2510   -2.1227 C   0  0  0  0  0  0  0  0  0  0  0  0
   -1.3984   -5.1084   -3.8046 H   0  0  0  0  0  0  0  0  0  0  0  0
    0.2834   -6.3994   -2.1889 H   0  0  0  0  0  0  0  0  0  0  0  0
   -1.0999   -6.1709   -1.0662 H   0  0  0  0  0  0  0  0  0  0  0  0
   -1.3199   -7.1066   -2.5837 H   0  0  0  0  0  0  0  0  0  0  0  0
  1  3  1  0  0  0  0
  1  7  1  0  0  0  0
  1  2  2  0  0  0  0
 29 30  1  0  0  0  0
 30 38  1  0  0  0  0
 30 31  2  0  0  0  0
  8  9  1  0  0  0  0
  9 17  1  0  0  0  0
  9 10  2  0  0  0  0
 18 19  1  0  0  0  0
 19 28  1  0  0  0  0
 19 20  2  0  0  0  0
 29 32  1  0  0  0  0
  8 11  1  0  0  0  0
 38 39  1  0  0  0  0
 18 21  1  0  0  0  0
 21 22  1  0  0  0  0
 28 29  1  0  0  0  0
  7  8  1  0  0  0  0
 17 18  1  0  0  0  0
  3  4  1  0  0  0  0
  3  5  1  0  0  0  0
  3  6  1  0  0  0  0
 32 35  1  0  0  0  0
 32 36  1  0  0  0  0
 32 37  1  0  0  0  0
 11 14  1  0  0  0  0
 11 15  1  0  0  0  0
 11 16  1  0  0  0  0
 39 41  1  0  0  0  0
 39 42  1  0  0  0  0
 39 43  1  0  0  0  0
 21 25  1  0  0  0  0
 21 26  1  0  0  0  0
 29 34  1  0  0  0  0
  8 13  1  0  0  0  0
 18 24  1  0  0  0  0
 38 40  1  0  0  0  0
  7 12  1  0  0  0  0
 28 33  1  0  0  0  0
 17 23  1  0  0  0  0
 22 27  1  0  0  0  0
M  END
$$$$

  -OEChem-05262214473D

 43 42  0     1  0  0  0  0  0999 V2000
    0.7424   -1.0926    4.5665 C   0  0  0  0  0  0  0  0  0  0  0  0
    0.1409   -0.5364    5.4779 O   0  0  0  0  0  0  0  0  0  0  0  0
    1.7940   -2.1023    4.8871 C   0  0  0  0  0  0  0  0  0  0  0  0
    2.7935   -1.6502    4.9904 H   0  0  0  0  0  0  0  0  0  0  0  0
    1.6064   -2.6156    5.8438 H   0  0  0  0  0  0  0  0  0  0  0  0
    1.9156   -2.9078    4.1453 H   0  0  0  0  0  0  0  0  0  0  0  0
    0.5488   -0.8838    3.2109 N   0  0  0  0  0  0  0  0  0  0  0  0
   -0.4159    0.0446    2.6829 C   0  0  2  0  0  0  0  0  0  0  0  0
   -0.7551   -0.3867    1.2623 C   0  0  0  0  0  0  0  0  0  0  0  0
   -0.0106   -1.0851    0.5774 O   0  0  0  0  0  0  0  0  0  0  0  0
    0.1168    1.4689    2.7060 C   0  0  0  0  0  0  0  0  0  0  0  0
    1.1183   -1.4145    2.5542 H   0  0  0  0  0  0  0  0  0  0  0  0
   -1.3088   -0.0350    3.3125 H   0  0  0  0  0  0  0  0  0  0  0  0
    1.0116    1.5681    2.0808 H   0  0  0  0  0  0  0  0  0  0  0  0
   -0.6289    2.1775    2.3307 H   0  0  0  0  0  0  0  0  0  0  0  0
    0.3882    1.7670    3.7245 H   0  0  0  0  0  0  0  0  0  0  0  0
   -1.9689    0.1350    0.8298 N   0  0  0  0  0  0  0  0  0  0  0  0
   -2.5039   -0.1183   -0.4830 C   0  0  2  0  0  0  0  0  0  0  0  0
   -1.7398   -1.2891   -1.0917 C   0  0  0  0  0  0  0  0  0  0  0  0
   -1.0548   -2.0615   -0.4243 O   0  0  0  0  0  0  0  0  0  0  0  0
   -2.4434    1.1237   -1.3664 C   0  0  0  0  0  0  0  0  0  0  0  0
   -1.0899    1.4739   -1.6322 O   0  0  0  0  0  0  0  0  0  0  0  0
   -2.5276    0.6894    1.4750 H   0  0  0  0  0  0  0  0  0  0  0  0
   -3.5492   -0.4144   -0.3381 H   0  0  0  0  0  0  0  0  0  0  0  0
   -2.9253    1.9771   -0.8786 H   0  0  0  0  0  0  0  0  0  0  0  0
   -2.9416    0.9395   -2.3242 H   0  0  0  0  0  0  0  0  0  0  0  0
   -0.6899    0.7148   -2.0854 H   0  0  0  0  0  0  0  0  0  0  0  0
   -1.9481   -1.3940   -2.4596 N   0  0  0  0  0  0  0  0  0  0  0  0
   -1.3587   -2.4399   -3.2628 C   0  0  2  0  0  0  0  0  0  0  0  0
   -1.2806   -3.6998   -2.4107 C   0  0  0  0  0  0  0  0  0  0  0  0
   -1.2810   -3.6794   -1.1816 O   0  0  0  0  0  0  0  0  0  0  0  0
    0.0185   -2.0395   -3.7686 C   0  0  0  0  0  0  0  0  0  0  0  0
   -2.5641   -0.7325   -2.9230 H   0  0  0  0  0  0  0  0  0  0  0  0
   -2.0361   -2.6104   -4.1067 H   0  0  0  0  0  0  0  0  0  0  0  0
    0.7111   -1.8644   -2.9373 H   0  0  0  0  0  0  0  0  0  0  0  0
    0.4519   -2.8216   -4.4007 H   0  0  0  0  0  0  0  0  0  0  0  0
   -0.0353   -1.1168   -4.3564 H   0  0  0  0  0  0  0  0  0  0  0  0
   -1.1669   -4.8466   -3.1840 N   0  0  0  0  0  0  0  0  0  0  0  0
   -1.0640   -6.1676   -2.6091 C   0  0  0  0  0  0  0  0  0  0  0  0
   -1.1940   -4.7712   -4.1966 H   0  0  0  0  0  0  0  0  0  0  0  0
   -0.0037   -6.4327   -2.4854 H   0  0  0  0  0  0  0  0  0  0  0  0
   -1.5618   -6.1802   -1.6283 H   0  0  0  0  0  0  0  0  0  0  0  0
   -1.5487   -6.8962   -3.2757 H   0  0  0  0  0  0  0  0  0  0  0  0
  1  3  1  0  0  0  0
  1  7  1  0  0  0  0
  1  2  2  0  0  0  0
 29 30  1  0  0  0  0
 30 38  1  0  0  0  0
 30 31  2  0  0  0  0
  8  9  1  0  0  0  0
  9 17  1  0  0  0  0
  9 10  2  0  0  0  0
 18 19  1  0  0  0  0
 19 28  1  0  0  0  0
 19 20  2  0  0  0  0
 29 32  1  0  0  0  0
  8 11  1  0  0  0  0
 38 39  1  0  0  0  0
 18 21  1  0  0  0  0
 21 22  1  0  0  0  0
 28 29  1  0  0  0  0
  7  8  1  0  0  0  0
 17 18  1  0  0  0  0
  3  4  1  0  0  0  0
  3  5  1  0  0  0  0
  3  6  1  0  0  0  0
 32 35  1  0  0  0  0
 32 36  1  0  0  0  0
 32 37  1  0  0  0  0
 11 14  1  0  0  0  0
 11 15  1  0  0  0  0
 11 16  1  0  0  0  0
 39 41  1  0  0  0  0
 39 42  1  0  0  0  0
 39 43  1  0  0  0  0
 21 25  1  0  0  0  0
 21 26  1  0  0  0  0
 29 34  1  0  0  0  0
  8 13  1  0  0  0  0
 18 24  1  0  0  0  0
 38 40  1  0  0  0  0
  7 12  1  0  0  0  0
 28 33  1  0  0  0  0
 17 23  1  0  0  0  0
 22 27  1  0  0  0  0
M  END
$$$$

  -OEChem-05262214473D

 43 42  0     1  0  0  0  0  0999 V2000
    0.7424   -1.0926    4.5665 C   0  0  0  0  0  0  0  0  0  0  0  0
    0.1409   -0.5364    5.4779 O   0  0  0  0  0  0  0  0  0  0  0  0
    1.7940   -2.1023    4.8871 C   0  0  0  0  0  0  0  0  0  0  0  0
    2.7935   -1.6502    4.9904 H   0  0  0  0  0  0  0  0  0  0  0  0
    1.6064   -2.6156    5.8438 H   0  0  0  0  0  0  0  0  0  0  0  0
    1.9156   -2.9078    4.1453 H   0  0  0  0  0  0  0  0  0  0  0  0
    0.5488   -0.8838    3.2109 N   0  0  0  0  0  0  0  0  0  0  0  0
   -0.4159    0.0446    2.6829 C   0  0  2  0  0  0  0  0  0  0  0  0
   -0.7551   -0.3867    1.2623 C   0  0  0  0  0  0  0  0  0  0  0  0
   -0.0106   -1.0851    0.5774 O   0  0  0  0  0  0  0  0  0  0  0  0
    0.1168    1.4689    2.7060 C   0  0  0  0  0  0  0  0  0  0  0  0
    1.1183   -1.4145    2.5542 H   0  0  0  0  0  0  0  0  0  0  0  0
   -1.3088   -0.0350    3.3125 H   0  0  0  0  0  0  0  0  0  0  0  0
    1.0116    1.5681    2.0808 H   0  0  0  0  0  0  0  0  0  0  0  0
   -0.6289    2.1775    2.3307 H   0  0  0  0  0  0  0  0  0  0  0  0
    0.3882    1.7670    3.7245 H   0  0  0  0  0  0  0  0  0  0  0  0
   -1.9689    0.1350    0.8298 N   0  0  0  0  0  0  0  0  0  0  0  0
   -2.5039   -0.1183   -0.4830 C   0  0  2  0  0  0  0  0  0  0  0  0
   -1.7398   -1.2891   -1.0917 C   0  0  0  0  0  0  0  0  0  0  0  0
   -1.2792   -2.2100   -0.4202 O   0  0  0  0  0  0  0  0  0  0  0  0
   -2.4434    1.1237   -1.3664 C   0  0  0  0  0  0  0  0  0  0  0  0
   -1.0899    1.4739   -1.6322 O   0  0  0  0  0  0  0  0  0  0  0  0
   -2.5276    0.6894    1.4750 H   0  0  0  0  0  0  0  0  0  0  0  0
   -3.5492   -0.4144   -0.3381 H   0  0  0  0  0  0  0  0  0  0  0  0
   -2.9253    1.9771   -0.8786 H   0  0  0  0  0  0  0  0  0  0  0  0
   -2.9416    0.9395   -2.3242 H   0  0  0  0  0  0  0  0  0  0  0  0
   -0.6899    0.7148   -2.0854 H   0  0  0  0  0  0  0  0  0  0  0  0
   -1.6711   -1.2051   -2.4751 N   0  0  0  0  0  0  0  0  0  0  0  0
   -1.0260   -2.2092   -3.2888 C   0  0  2  0  0  0  0  0  0  0  0  0
   -1.2386   -3.5622   -2.6227 C   0  0  0  0  0  0  0  0  0  0  0  0
   -1.4898   -3.6886   -1.4260 O   0  0  0  0  0  0  0  0  0  0  0  0
    0.4561   -1.9145   -3.4597 C   0  0  0  0  0  0  0  0  0  0  0  0
   -2.1165   -0.4259   -2.9507 H   0  0  0  0  0  0  0  0  0  0  0  0
   -1.5280   -2.1979   -4.2623 H   0  0  0  0  0  0  0  0  0  0  0  0
    0.9760   -1.9216   -2.4947 H   0  0  0  0  0  0  0  0  0  0  0  0
    0.9378   -2.6607   -4.1001 H   0  0  0  0  0  0  0  0  0  0  0  0
    0.6078   -0.9283   -3.9116 H   0  0  0  0  0  0  0  0  0  0  0  0
   -1.0723   -4.6140   -3.5127 N   0  0  0  0  0  0  0  0  0  0  0  0
   -1.2094   -5.9970   -3.1197 C   0  0  0  0  0  0  0  0  0  0  0  0
   -0.8839   -4.4158   -4.4909 H   0  0  0  0  0  0  0  0  0  0  0  0
   -0.2254   -6.3966   -2.8332 H   0  0  0  0  0  0  0  0  0  0  0  0
   -1.8973   -6.0685   -2.2642 H   0  0  0  0  0  0  0  0  0  0  0  0
   -1.6104   -6.5795   -3.9622 H   0  0  0  0  0  0  0  0  0  0  0  0
  1  3  1  0  0  0  0
  1  7  1  0  0  0  0
  1  2  2  0  0  0  0
 29 30  1  0  0  0  0
 30 38  1  0  0  0  0
 30 31  2  0  0  0  0
  8  9  1  0  0  0  0
  9 17  1  0  0  0  0
  9 10  2  0  0  0  0
 18 19  1  0  0  0  0
 19 28  1  0  0  0  0
 19 20  2  0  0  0  0
 29 32  1  0  0  0  0
  8 11  1  0  0  0  0
 38 39  1  0  0  0  0
 18 21  1  0  0  0  0
 21 22  1  0  0  0  0
 28 29  1  0  0  0  0
  7  8  1  0  0  0  0
 17 18  1  0  0  0  0
  3  4  1  0  0  0  0
  3  5  1  0  0  0  0
  3  6  1  0  0  0  0
 32 35  1  0  0  0  0
 32 36  1  0  0  0  0
 32 37  1  0  0  0  0
 11 14  1  0  0  0  0
 11 15  1  0  0  0  0
 11 16  1  0  0  0  0
 39 41  1  0  0  0  0
 39 42  1  0  0  0  0
 39 43  1  0  0  0  0
 21 25  1  0  0  0  0
 21 26  1  0  0  0  0
 29 34  1  0  0  0  0
  8 13  1  0  0  0  0
 18 24  1  0  0  0  0
 38 40  1  0  0  0  0
  7 12  1  0  0  0  0
 28 33  1  0  0  0  0
 17 23  1  0  0  0  0
 22 27  1  0  0  0  0
M  END
$$$$

  -OEChem-05262214473D

 43 42  0     1  0  0  0  0  0999 V2000
    0.7424   -1.0926    4.5665 C   0  0  0  0  0  0  0  0  0  0  0  0
    0.1409   -0.5364    5.4779 O   0  0  0  0  0  0  0  0  0  0  0  0
    1.7940   -2.1023    4.8871 C   0  0  0  0  0  0  0  0  0  0  0  0
    2.7935   -1.6502    4.9904 H   0  0  0  0  0  0  0  0  0  0  0  0
    1.6064   -2.6156    5.8438 H   0  0  0  0  0  0  0  0  0  0  0  0
    1.9156   -2.9078    4.1453 H   0  0  0  0  0  0  0  0  0  0  0  0
    0.5488   -0.8838    3.2109 N   0  0  0  0  0  0  0  0  0  0  0  0
   -0.4159    0.0446    2.6829 C   0  0  2  0  0  0  0  0  0  0  0  0
   -0.7551   -0.3867    1.2623 C   0  0  0  0  0  0  0  0  0  0  0  0
   -0.0106   -1.0851    0.5774 O   0  0  0  0  0  0  0  0  0  0  0  0
    0.1168    1.4689    2.7060 C   0  0  0  0  0  0  0  0  0  0  0  0
    1.1183   -1.4145    2.5542 H   0  0  0  0  0  0  0  0  0  0  0  0
   -1.3088   -0.0350    3.3125 H   0  0  0  0  0  0  0  0  0  0  0  0
    1.0116    1.5681    2.0808 H   0  0  0  0  0  0  0  0  0  0  0  0
   -0.6289    2.1775    2.3307 H   0  0  0  0  0  0  0  0  0  0  0  0
    0.3882    1.7670    3.7245 H   0  0  0  0  0  0  0  0  0  0  0  0
   -1.9689    0.1350    0.8298 N   0  0  0  0  0  0  0  0  0  0  0  0
   -2.5039   -0.1183   -0.4830 C   0  0  2  0  0  0  0  0  0  0  0  0
   -1.7398   -1.2891   -1.0917 C   0  0  0  0  0  0  0  0  0  0  0  0
   -1.5120   -2.3308   -0.4801 O   0  0  0  0  0  0  0  0  0  0  0  0
   -2.4434    1.1237   -1.3664 C   0  0  0  0  0  0  0  0  0  0  0  0
   -1.0899    1.4739   -1.6322 O   0  0  0  0  0  0  0  0  0  0  0  0
   -2.5276    0.6894    1.4750 H   0  0  0  0  0  0  0  0  0  0  0  0
   -3.5492   -0.4144   -0.3381 H   0  0  0  0  0  0  0  0  0  0  0  0
   -2.9253    1.9771   -0.8786 H   0  0  0  0  0  0  0  0  0  0  0  0
   -2.9416    0.9395   -2.3242 H   0  0  0  0  0  0  0  0  0  0  0  0
   -0.6899    0.7148   -2.0854 H   0  0  0  0  0  0  0  0  0  0  0  0
   -1.3810   -1.0493   -2.4106 N   0  0  0  0  0  0  0  0  0  0  0  0
   -0.6756   -2.0175   -3.2178 C   0  0  2  0  0  0  0  0  0  0  0  0
   -1.1418   -3.4062   -2.8012 C   0  0  0  0  0  0  0  0  0  0  0  0
   -1.6439   -3.6443   -1.7047 O   0  0  0  0  0  0  0  0  0  0  0  0
    0.8304   -1.8790   -3.0581 C   0  0  0  0  0  0  0  0  0  0  0  0
   -1.6469   -0.1724   -2.8488 H   0  0  0  0  0  0  0  0  0  0  0  0
   -0.9637   -1.8317   -4.2583 H   0  0  0  0  0  0  0  0  0  0  0  0
    1.1380   -2.0616   -2.0220 H   0  0  0  0  0  0  0  0  0  0  0  0
    1.3641   -2.5945   -3.6923 H   0  0  0  0  0  0  0  0  0  0  0  0
    1.1601   -0.8704   -3.3298 H   0  0  0  0  0  0  0  0  0  0  0  0
   -0.8917   -4.3565   -3.7813 N   0  0  0  0  0  0  0  0  0  0  0  0
   -1.2308   -5.7511   -3.6196 C   0  0  0  0  0  0  0  0  0  0  0  0
   -0.4891   -4.0663   -4.6675 H   0  0  0  0  0  0  0  0  0  0  0  0
   -0.3669   -6.2938   -3.2085 H   0  0  0  0  0  0  0  0  0  0  0  0
   -2.0834   -5.8435   -2.9307 H   0  0  0  0  0  0  0  0  0  0  0  0
   -1.5009   -6.1783   -4.5966 H   0  0  0  0  0  0  0  0  0  0  0  0
  1  3  1  0  0  0  0
  1  7  1  0  0  0  0
  1  2  2  0  0  0  0
 29 30  1  0  0  0  0
 30 38  1  0  0  0  0
 30 31  2  0  0  0  0
  8  9  1  0  0  0  0
  9 17  1  0  0  0  0
  9 10  2  0  0  0  0
 18 19  1  0  0  0  0
 19 28  1  0  0  0  0
 19 20  2  0  0  0  0
 29 32  1  0  0  0  0
  8 11  1  0  0  0  0
 38 39  1  0  0  0  0
 18 21  1  0  0  0  0
 21 22  1  0  0  0  0
 28 29  1  0  0  0  0
  7  8  1  0  0  0  0
 17 18  1  0  0  0  0
  3  4  1  0  0  0  0
  3  5  1  0  0  0  0
  3  6  1  0  0  0  0
 32 35  1  0  0  0  0
 32 36  1  0  0  0  0
 32 37  1  0  0  0  0
 11 14  1  0  0  0  0
 11 15  1  0  0  0  0
 11 16  1  0  0  0  0
 39 41  1  0  0  0  0
 39 42  1  0  0  0  0
 39 43  1  0  0  0  0
 21 25  1  0  0  0  0
 21 26  1  0  0  0  0
 29 34  1  0  0  0  0
  8 13  1  0  0  0  0
 18 24  1  0  0  0  0
 38 40  1  0  0  0  0
  7 12  1  0  0  0  0
 28 33  1  0  0  0  0
 17 23  1  0  0  0  0
 22 27  1  0  0  0  0
M  END
$$$$

  -OEChem-05262214473D

 43 42  0     1  0  0  0  0  0999 V2000
    0.7424   -1.0926    4.5665 C   0  0  0  0  0  0  0  0  0  0  0  0
    0.1409   -0.5364    5.4779 O   0  0  0  0  0  0  0  0  0  0  0  0
    1.7940   -2.1023    4.8871 C   0  0  0  0  0  0  0  0  0  0  0  0
    2.7935   -1.6502    4.9904 H   0  0  0  0  0  0  0  0  0  0  0  0
    1.6064   -2.6156    5.8438 H   0  0  0  0  0  0  0  0  0  0  0  0
    1.9156   -2.9078    4.1453 H   0  0  0  0  0  0  0  0  0  0  0  0
    0.5488   -0.8838    3.2109 N   0  0  0  0  0  0  0  0  0  0  0  0
   -0.4159    0.0446    2.6829 C   0  0  2  0  0  0  0  0  0  0  0  0
   -0.7551   -0.3867    1.2623 C   0  0  0  0  0  0  0  0  0  0  0  0
   -0.0106   -1.0851    0.5774 O   0  0  0  0  0  0  0  0  0  0  0  0
    0.1168    1.4689    2.7060 C   0  0  0  0  0  0  0  0  0  0  0  0
    1.1183   -1.4145    2.5542 H   0  0  0  0  0  0  0  0  0  0  0  0
   -1.3088   -0.0350    3.3125 H   0  0  0  0  0  0  0  0  0  0  0  0
    1.0116    1.5681    2.0808 H   0  0  0  0  0  0  0  0  0  0  0  0
   -0.6289    2.1775    2.3307 H   0  0  0  0  0  0  0  0  0  0  0  0
    0.3882    1.7670    3.7245 H   0  0  0  0  0  0  0  0  0  0  0  0
   -1.9689    0.1350    0.8298 N   0  0  0  0  0  0  0  0  0  0  0  0
   -2.5039   -0.1183   -0.4830 C   0  0  2  0  0  0  0  0  0  0  0  0
   -1.7398   -1.2891   -1.0917 C   0  0  0  0  0  0  0  0  0  0  0  0
   -1.7375   -2.4157   -0.5999 O   0  0  0  0  0  0  0  0  0  0  0  0
   -2.4434    1.1237   -1.3664 C   0  0  0  0  0  0  0  0  0  0  0  0
   -1.0899    1.4739   -1.6322 O   0  0  0  0  0  0  0  0  0  0  0  0
   -2.5276    0.6894    1.4750 H   0  0  0  0  0  0  0  0  0  0  0  0
   -3.5492   -0.4144   -0.3381 H   0  0  0  0  0  0  0  0  0  0  0  0
   -2.9253    1.9771   -0.8786 H   0  0  0  0  0  0  0  0  0  0  0  0
   -2.9416    0.9395   -2.3242 H   0  0  0  0  0  0  0  0  0  0  0  0
   -0.6899    0.7148   -2.0854 H   0  0  0  0  0  0  0  0  0  0  0  0
   -1.0974   -0.9371   -2.2703 N   0  0  0  0  0  0  0  0  0  0  0  0
   -0.3314   -1.8776   -3.0548 C   0  0  2  0  0  0  0  0  0  0  0  0
   -0.9966   -3.2423   -2.9342 C   0  0  0  0  0  0  0  0  0  0  0  0
   -1.7328   -3.5494   -1.9989 O   0  0  0  0  0  0  0  0  0  0  0  0
    1.1158   -1.9355   -2.5912 C   0  0  0  0  0  0  0  0  0  0  0  0
   -1.1874    0.0107   -2.6242 H   0  0  0  0  0  0  0  0  0  0  0  0
   -0.3816   -1.5368   -4.0947 H   0  0  0  0  0  0  0  0  0  0  0  0
    1.1861   -2.2749   -1.5513 H   0  0  0  0  0  0  0  0  0  0  0  0
    1.7017   -2.6275   -3.2051 H   0  0  0  0  0  0  0  0  0  0  0  0
    1.5838   -0.9469   -2.6505 H   0  0  0  0  0  0  0  0  0  0  0  0
   -0.6372   -4.0916   -3.9713 N   0  0  0  0  0  0  0  0  0  0  0  0
   -1.1267   -5.4464   -4.0748 C   0  0  0  0  0  0  0  0  0  0  0  0
   -0.0365   -3.7466   -4.7143 H   0  0  0  0  0  0  0  0  0  0  0  0
   -0.4182   -6.1312   -3.5857 H   0  0  0  0  0  0  0  0  0  0  0  0
   -2.1074   -5.5205   -3.5822 H   0  0  0  0  0  0  0  0  0  0  0  0
   -1.2276   -5.7197   -5.1356 H   0  0  0  0  0  0  0  0  0  0  0  0
  1  3  1  0  0  0  0
  1  7  1  0  0  0  0
  1  2  2  0  0  0  0
 29 30  1  0  0  0  0
 30 38  1  0  0  0  0
 30 31  2  0  0  0  0
  8  9  1  0  0  0  0
  9 17  1  0  0  0  0
  9 10  2  0  0  0  0
 18 19  1  0  0  0  0
 19 28  1  0  0  0  0
 19 20  2  0  0  0  0
 29 32  1  0  0  0  0
  8 11  1  0  0  0  0
 38 39  1  0  0  0  0
 18 21  1  0  0  0  0
 21 22  1  0  0  0  0
 28 29  1  0  0  0  0
  7  8  1  0  0  0  0
 17 18  1  0  0  0  0
  3  4  1  0  0  0  0
  3  5  1  0  0  0  0
  3  6  1  0  0  0  0
 32 35  1  0  0  0  0
 32 36  1  0  0  0  0
 32 37  1  0  0  0  0
 11 14  1  0  0  0  0
 11 15  1  0  0  0  0
 11 16  1  0  0  0  0
 39 41  1  0  0  0  0
 39 42  1  0  0  0  0
 39 43  1  0  0  0  0
 21 25  1  0  0  0  0
 21 26  1  0  0  0  0
 29 34  1  0  0  0  0
  8 13  1  0  0  0  0
 18 24  1  0  0  0  0
 38 40  1  0  0  0  0
  7 12  1  0  0  0  0
 28 33  1  0  0  0  0
 17 23  1  0  0  0  0
 22 27  1  0  0  0  0
M  END
$$$$

  -OEChem-05262214473D

 43 42  0     1  0  0  0  0  0999 V2000
    0.7424   -1.0926    4.5665 C   0  0  0  0  0  0  0  0  0  0  0  0
    0.1409   -0.5364    5.4779 O   0  0  0  0  0  0  0  0  0  0  0  0
    1.7940   -2.1023    4.8871 C   0  0  0  0  0  0  0  0  0  0  0  0
    2.7935   -1.6502    4.9904 H   0  0  0  0  0  0  0  0  0  0  0  0
    1.6064   -2.6156    5.8438 H   0  0  0  0  0  0  0  0  0  0  0  0
    1.9156   -2.9078    4.1453 H   0  0  0  0  0  0  0  0  0  0  0  0
    0.5488   -0.8838    3.2109 N   0  0  0  0  0  0  0  0  0  0  0  0
   -0.4159    0.0446    2.6829 C   0  0  2  0  0  0  0  0  0  0  0  0
   -0.7551   -0.3867    1.2623 C   0  0  0  0  0  0  0  0  0  0  0  0
   -0.0106   -1.0851    0.5774 O   0  0  0  0  0  0  0  0  0  0  0  0
    0.1168    1.4689    2.7060 C   0  0  0  0  0  0  0  0  0  0  0  0
    1.1183   -1.4145    2.5542 H   0  0  0  0  0  0  0  0  0  0  0  0
   -1.3088   -0.0350    3.3125 H   0  0  0  0  0  0  0  0  0  0  0  0
    1.0116    1.5681    2.0808 H   0  0  0  0  0  0  0  0  0  0  0  0
   -0.6289    2.1775    2.3307 H   0  0  0  0  0  0  0  0  0  0  0  0
    0.3882    1.7670    3.7245 H   0  0  0  0  0  0  0  0  0  0  0  0
   -1.9689    0.1350    0.8298 N   0  0  0  0  0  0  0  0  0  0  0  0
   -2.5039   -0.1183   -0.4830 C   0  0  2  0  0  0  0  0  0  0  0  0
   -1.7398   -1.2891   -1.0917 C   0  0  0  0  0  0  0  0  0  0  0  0
   -1.9402   -2.4589   -0.7714 O   0  0  0  0  0  0  0  0  0  0  0  0
   -2.4434    1.1237   -1.3664 C   0  0  0  0  0  0  0  0  0  0  0  0
   -1.0899    1.4739   -1.6322 O   0  0  0  0  0  0  0  0  0  0  0  0
   -2.5276    0.6894    1.4750 H   0  0  0  0  0  0  0  0  0  0  0  0
   -3.5492   -0.4144   -0.3381 H   0  0  0  0  0  0  0  0  0  0  0  0
   -2.9253    1.9771   -0.8786 H   0  0  0  0  0  0  0  0  0  0  0  0
   -2.9416    0.9395   -2.3242 H   0  0  0  0  0  0  0  0  0  0  0  0
   -0.6899    0.7148   -2.0854 H   0  0  0  0  0  0  0  0  0  0  0  0
   -0.8398   -0.8763   -2.0639 N   0  0  0  0  0  0  0  0  0  0  0  0
   -0.0170   -1.7992   -2.8107 C   0  0  2  0  0  0  0  0  0  0  0  0
   -0.8131   -3.0818   -3.0125 C   0  0  0  0  0  0  0  0  0  0  0  0
   -1.7504   -3.4104   -2.2883 O   0  0  0  0  0  0  0  0  0  0  0  0
    1.2928   -2.0801   -2.0908 C   0  0  0  0  0  0  0  0  0  0  0  0
   -0.7692    0.1109   -2.2921 H   0  0  0  0  0  0  0  0  0  0  0  0
    0.1786   -1.3334   -3.7827 H   0  0  0  0  0  0  0  0  0  0  0  0
    1.1170   -2.5469   -1.1148 H   0  0  0  0  0  0  0  0  0  0  0  0
    1.9276   -2.7574   -2.6717 H   0  0  0  0  0  0  0  0  0  0  0  0
    1.8503   -1.1528   -1.9201 H   0  0  0  0  0  0  0  0  0  0  0  0
   -0.3262   -3.8373   -4.0700 N   0  0  0  0  0  0  0  0  0  0  0  0
   -0.9042   -5.1039   -4.4544 C   0  0  0  0  0  0  0  0  0  0  0  0
    0.4429   -3.4785   -4.6280 H   0  0  0  0  0  0  0  0  0  0  0  0
   -0.3761   -5.9199   -3.9393 H   0  0  0  0  0  0  0  0  0  0  0  0
   -1.9678   -5.1215   -4.1744 H   0  0  0  0  0  0  0  0  0  0  0  0
   -0.8091   -5.2351   -5.5424 H   0  0  0  0  0  0  0  0  0  0  0  0
  1  3  1  0  0  0  0
  1  7  1  0  0  0  0
  1  2  2  0  0  0  0
 29 30  1  0  0  0  0
 30 38  1  0  0  0  0
 30 31  2  0  0  0  0
  8  9  1  0  0  0  0
  9 17  1  0  0  0  0
  9 10  2  0  0  0  0
 18 19  1  0  0  0  0
 19 28  1  0  0  0  0
 19 20  2  0  0  0  0
 29 32  1  0  0  0  0
  8 11  1  0  0  0  0
 38 39  1  0  0  0  0
 18 21  1  0  0  0  0
 21 22  1  0  0  0  0
 28 29  1  0  0  0  0
  7  8  1  0  0  0  0
 17 18  1  0  0  0  0
  3  4  1  0  0  0  0
  3  5  1  0  0  0  0
  3  6  1  0  0  0  0
 32 35  1  0  0  0  0
 32 36  1  0  0  0  0
 32 37  1  0  0  0  0
 11 14  1  0  0  0  0
 11 15  1  0  0  0  0
 11 16  1  0  0  0  0
 39 41  1  0  0  0  0
 39 42  1  0  0  0  0
 39 43  1  0  0  0  0
 21 25  1  0  0  0  0
 21 26  1  0  0  0  0
 29 34  1  0  0  0  0
  8 13  1  0  0  0  0
 18 24  1  0  0  0  0
 38 40  1  0  0  0  0
  7 12  1  0  0  0  0
 28 33  1  0  0  0  0
 17 23  1  0  0  0  0
 22 27  1  0  0  0  0
M  END
$$$$

  -OEChem-05262214473D

 43 42  0     1  0  0  0  0  0999 V2000
    0.7424   -1.0926    4.5665 C   0  0  0  0  0  0  0  0  0  0  0  0
    0.1409   -0.5364    5.4779 O   0  0  0  0  0  0  0  0  0  0  0  0
    1.7940   -2.1023    4.8871 C   0  0  0  0  0  0  0  0  0  0  0  0
    2.7935   -1.6502    4.9904 H   0  0  0  0  0  0  0  0  0  0  0  0
    1.6064   -2.6156    5.8438 H   0  0  0  0  0  0  0  0  0  0  0  0
    1.9156   -2.9078    4.1453 H   0  0  0  0  0  0  0  0  0  0  0  0
    0.5488   -0.8838    3.2109 N   0  0  0  0  0  0  0  0  0  0  0  0
   -0.4159    0.0446    2.6829 C   0  0  2  0  0  0  0  0  0  0  0  0
   -0.7551   -0.3867    1.2623 C   0  0  0  0  0  0  0  0  0  0  0  0
   -0.0106   -1.0851    0.5774 O   0  0  0  0  0  0  0  0  0  0  0  0
    0.1168    1.4689    2.7060 C   0  0  0  0  0  0  0  0  0  0  0  0
    1.1183   -1.4145    2.5542 H   0  0  0  0  0  0  0  0  0  0  0  0
   -1.3088   -0.0350    3.3125 H   0  0  0  0  0  0  0  0  0  0  0  0
    1.0116    1.5681    2.0808 H   0  0  0  0  0  0  0  0  0  0  0  0
   -0.6289    2.1775    2.3307 H   0  0  0  0  0  0  0  0  0  0  0  0
    0.3882    1.7670    3.7245 H   0  0  0  0  0  0  0  0  0  0  0  0
   -1.9689    0.1350    0.8298 N   0  0  0  0  0  0  0  0  0  0  0  0
   -2.5039   -0.1183   -0.4830 C   0  0  2  0  0  0  0  0  0  0  0  0
   -1.7398   -1.2891   -1.0917 C   0  0  0  0  0  0  0  0  0  0  0  0
   -2.1064   -2.4574   -0.9830 O   0  0  0  0  0  0  0  0  0  0  0  0
   -2.4434    1.1237   -1.3664 C   0  0  0  0  0  0  0  0  0  0  0  0
   -1.0899    1.4739   -1.6322 O   0  0  0  0  0  0  0  0  0  0  0  0
   -2.5276    0.6894    1.4750 H   0  0  0  0  0  0  0  0  0  0  0  0
   -3.5492   -0.4144   -0.3381 H   0  0  0  0  0  0  0  0  0  0  0  0
   -2.9253    1.9771   -0.8786 H   0  0  0  0  0  0  0  0  0  0  0  0
   -2.9416    0.9395   -2.3242 H   0  0  0  0  0  0  0  0  0  0  0  0
   -0.6899    0.7148   -2.0854 H   0  0  0  0  0  0  0  0  0  0  0  0
   -0.6257   -0.8709   -1.8055 N   0  0  0  0  0  0  0  0  0  0  0  0
    0.2464   -1.7876   -2.5024 C   0  0  2  0  0  0  0  0  0  0  0  0
   -0.6036   -2.9355   -3.0309 C   0  0  0  0  0  0  0  0  0  0  0  0
   -1.6955   -3.2368   -2.5534 O   0  0  0  0  0  0  0  0  0  0  0  0
    1.3495   -2.3029   -1.5911 C   0  0  0  0  0  0  0  0  0  0  0  0
   -0.4210    0.1215   -1.8752 H   0  0  0  0  0  0  0  0  0  0  0  0
    0.6788   -1.2352   -3.3437 H   0  0  0  0  0  0  0  0  0  0  0  0
    0.9354   -2.8592   -0.7422 H   0  0  0  0  0  0  0  0  0  0  0  0
    2.0263   -2.9754   -2.1284 H   0  0  0  0  0  0  0  0  0  0  0  0
    1.9413   -1.4738   -1.1883 H   0  0  0  0  0  0  0  0  0  0  0  0
    0.0200   -3.6111   -4.0706 N   0  0  0  0  0  0  0  0  0  0  0  0
   -0.5784   -4.7468   -4.7323 C   0  0  0  0  0  0  0  0  0  0  0  0
    0.9166   -3.2803   -4.4147 H   0  0  0  0  0  0  0  0  0  0  0  0
   -0.2433   -5.6743   -4.2450 H   0  0  0  0  0  0  0  0  0  0  0  0
   -1.6741   -4.6737   -4.6670 H   0  0  0  0  0  0  0  0  0  0  0  0
   -0.2740   -4.7574   -5.7893 H   0  0  0  0  0  0  0  0  0  0  0  0
  1  3  1  0  0  0  0
  1  7  1  0  0  0  0
  1  2  2  0  0  0  0
 29 30  1  0  0  0  0
 30 38  1  0  0  0  0
 30 31  2  0  0  0  0
  8  9  1  0  0  0  0
  9 17  1  0  0  0  0
  9 10  2  0  0  0  0
 18 19  1  0  0  0  0
 19 28  1  0  0  0  0
 19 20  2  0  0  0  0
 29 32  1  0  0  0  0
  8 11  1  0  0  0  0
 38 39  1  0  0  0  0
 18 21  1  0  0  0  0
 21 22  1  0  0  0  0
 28 29  1  0  0  0  0
  7  8  1  0  0  0  0
 17 18  1  0  0  0  0
  3  4  1  0  0  0  0
  3  5  1  0  0  0  0
  3  6  1  0  0  0  0
 32 35  1  0  0  0  0
 32 36  1  0  0  0  0
 32 37  1  0  0  0  0
 11 14  1  0  0  0  0
 11 15  1  0  0  0  0
 11 16  1  0  0  0  0
 39 41  1  0  0  0  0
 39 42  1  0  0  0  0
 39 43  1  0  0  0  0
 21 25  1  0  0  0  0
 21 26  1  0  0  0  0
 29 34  1  0  0  0  0
  8 13  1  0  0  0  0
 18 24  1  0  0  0  0
 38 40  1  0  0  0  0
  7 12  1  0  0  0  0
 28 33  1  0  0  0  0
 17 23  1  0  0  0  0
 22 27  1  0  0  0  0
M  END
$$$$

  -OEChem-05262214473D

 43 42  0     1  0  0  0  0  0999 V2000
    0.7424   -1.0926    4.5665 C   0  0  0  0  0  0  0  0  0  0  0  0
    0.1409   -0.5364    5.4779 O   0  0  0  0  0  0  0  0  0  0  0  0
    1.7940   -2.1023    4.8871 C   0  0  0  0  0  0  0  0  0  0  0  0
    2.7935   -1.6502    4.9904 H   0  0  0  0  0  0  0  0  0  0  0  0
    1.6064   -2.6156    5.8438 H   0  0  0  0  0  0  0  0  0  0  0  0
    1.9156   -2.9078    4.1453 H   0  0  0  0  0  0  0  0  0  0  0  0
    0.5488   -0.8838    3.2109 N   0  0  0  0  0  0  0  0  0  0  0  0
   -0.4159    0.0446    2.6829 C   0  0  2  0  0  0  0  0  0  0  0  0
   -0.7551   -0.3867    1.2623 C   0  0  0  0  0  0  0  0  0  0  0  0
   -0.0106   -1.0851    0.5774 O   0  0  0  0  0  0  0  0  0  0  0  0
    0.1168    1.4689    2.7060 C   0  0  0  0  0  0  0  0  0  0  0  0
    1.1183   -1.4145    2.5542 H   0  0  0  0  0  0  0  0  0  0  0  0
   -1.3088   -0.0350    3.3125 H   0  0  0  0  0  0  0  0  0  0  0  0
    1.0116    1.5681    2.0808 H   0  0  0  0  0  0  0  0  0  0  0  0
   -0.6289    2.1775    2.3307 H   0  0  0  0  0  0  0  0  0  0  0  0
    0.3882    1.7670    3.7245 H   0  0  0  0  0  0  0  0  0  0  0  0
   -1.9689    0.1350    0.8298 N   0  0  0  0  0  0  0  0  0  0  0  0
   -2.5039   -0.1183   -0.4830 C   0  0  2  0  0  0  0  0  0  0  0  0
   -1.7398   -1.2891   -1.0917 C   0  0  0  0  0  0  0  0  0  0  0  0
   -2.2248   -2.4113   -1.2202 O   0  0  0  0  0  0  0  0  0  0  0  0
   -2.4434    1.1237   -1.3664 C   0  0  0  0  0  0  0  0  0  0  0  0
   -1.0899    1.4739   -1.6322 O   0  0  0  0  0  0  0  0  0  0  0  0
   -2.5276    0.6894    1.4750 H   0  0  0  0  0  0  0  0  0  0  0  0
   -3.5492   -0.4144   -0.3381 H   0  0  0  0  0  0  0  0  0  0  0  0
   -2.9253    1.9771   -0.8786 H   0  0  0  0  0  0  0  0  0  0  0  0
   -2.9416    0.9395   -2.3242 H   0  0  0  0  0  0  0  0  0  0  0  0
   -0.6899    0.7148   -2.0854 H   0  0  0  0  0  0  0  0  0  0  0  0
   -0.4696   -0.9213   -1.5127 N   0  0  0  0  0  0  0  0  0  0  0  0
    0.4407   -1.8437   -2.1507 C   0  0  2  0  0  0  0  0  0  0  0  0
   -0.3825   -2.8135   -2.9880 C   0  0  0  0  0  0  0  0  0  0  0  0
   -1.5719   -3.0404   -2.7760 O   0  0  0  0  0  0  0  0  0  0  0  0
    1.2818   -2.5888   -1.1260 C   0  0  0  0  0  0  0  0  0  0  0  0
   -0.1663    0.0417   -1.4020 H   0  0  0  0  0  0  0  0  0  0  0  0
    1.0848   -1.2489   -2.8075 H   0  0  0  0  0  0  0  0  0  0  0  0
    0.6537   -3.1904   -0.4588 H   0  0  0  0  0  0  0  0  0  0  0  0
    1.9912   -3.2666   -1.6123 H   0  0  0  0  0  0  0  0  0  0  0  0
    1.8505   -1.8883   -0.5050 H   0  0  0  0  0  0  0  0  0  0  0  0
    0.3779   -3.4282   -3.9729 N   0  0  0  0  0  0  0  0  0  0  0  0
   -0.1717   -4.3995   -4.8897 C   0  0  0  0  0  0  0  0  0  0  0  0
    1.3522   -3.1654   -4.0888 H   0  0  0  0  0  0  0  0  0  0  0  0
   -0.0289   -5.4111   -4.4821 H   0  0  0  0  0  0  0  0  0  0  0  0
   -1.2462   -4.2076   -5.0263 H   0  0  0  0  0  0  0  0  0  0  0  0
    0.3413   -4.3194   -5.8595 H   0  0  0  0  0  0  0  0  0  0  0  0
  1  3  1  0  0  0  0
  1  7  1  0  0  0  0
  1  2  2  0  0  0  0
 29 30  1  0  0  0  0
 30 38  1  0  0  0  0
 30 31  2  0  0  0  0
  8  9  1  0  0  0  0
  9 17  1  0  0  0  0
  9 10  2  0  0  0  0
 18 19  1  0  0  0  0
 19 28  1  0  0  0  0
 19 20  2  0  0  0  0
 29 32  1  0  0  0  0
  8 11  1  0  0  0  0
 38 39  1  0  0  0  0
 18 21  1  0  0  0  0
 21 22  1  0  0  0  0
 28 29  1  0  0  0  0
  7  8  1  0  0  0  0
 17 18  1  0  0  0  0
  3  4  1  0  0  0  0
  3  5  1  0  0  0  0
  3  6  1  0  0  0  0
 32 35  1  0  0  0  0
 32 36  1  0  0  0  0
 32 37  1  0  0  0  0
 11 14  1  0  0  0  0
 11 15  1  0  0  0  0
 11 16  1  0  0  0  0
 39 41  1  0  0  0  0
 39 42  1  0  0  0  0
 39 43  1  0  0  0  0
 21 25  1  0  0  0  0
 21 26  1  0  0  0  0
 29 34  1  0  0  0  0
  8 13  1  0  0  0  0
 18 24  1  0  0  0  0
 38 40  1  0  0  0  0
  7 12  1  0  0  0  0
 28 33  1  0  0  0  0
 17 23  1  0  0  0  0
 22 27  1  0  0  0  0
M  END
$$$$

  -OEChem-05262214473D

 43 42  0     1  0  0  0  0  0999 V2000
    0.7424   -1.0926    4.5665 C   0  0  0  0  0  0  0  0  0  0  0  0
    0.1409   -0.5364    5.4779 O   0  0  0  0  0  0  0  0  0  0  0  0
    1.7940   -2.1023    4.8871 C   0  0  0  0  0  0  0  0  0  0  0  0
    2.7935   -1.6502    4.9904 H   0  0  0  0  0  0  0  0  0  0  0  0
    1.6064   -2.6156    5.8438 H   0  0  0  0  0  0  0  0  0  0  0  0
    1.9156   -2.9078    4.1453 H   0  0  0  0  0  0  0  0  0  0  0  0
    0.5488   -0.8838    3.2109 N   0  0  0  0  0  0  0  0  0  0  0  0
   -0.4159    0.0446    2.6829 C   0  0  2  0  0  0  0  0  0  0  0  0
   -0.7551   -0.3867    1.2623 C   0  0  0  0  0  0  0  0  0  0  0  0
   -0.0106   -1.0851    0.5774 O   0  0  0  0  0  0  0  0  0  0  0  0
    0.1168    1.4689    2.7060 C   0  0  0  0  0  0  0  0  0  0  0  0
    1.1183   -1.4145    2.5542 H   0  0  0  0  0  0  0  0  0  0  0  0
   -1.3088   -0.0350    3.3125 H   0  0  0  0  0  0  0  0  0  0  0  0
    1.0116    1.5681    2.0808 H   0  0  0  0  0  0  0  0  0  0  0  0
   -0.6289    2.1775    2.3307 H   0  0  0  0  0  0  0  0  0  0  0  0
    0.3882    1.7670    3.7245 H   0  0  0  0  0  0  0  0  0  0  0  0
   -1.9689    0.1350    0.8298 N   0  0  0  0  0  0  0  0  0  0  0  0
   -2.5039   -0.1183   -0.4830 C   0  0  2  0  0  0  0  0  0  0  0  0
   -1.7398   -1.2891   -1.0917 C   0  0  0  0  0  0  0  0  0  0  0  0
   -2.2872   -2.3238   -1.4669 O   0  0  0  0  0  0  0  0  0  0  0  0
   -2.4434    1.1237   -1.3664 C   0  0  0  0  0  0  0  0  0  0  0  0
   -1.0899    1.4739   -1.6322 O   0  0  0  0  0  0  0  0  0  0  0  0
   -2.5276    0.6894    1.4750 H   0  0  0  0  0  0  0  0  0  0  0  0
   -3.5492   -0.4144   -0.3381 H   0  0  0  0  0  0  0  0  0  0  0  0
   -2.9253    1.9771   -0.8786 H   0  0  0  0  0  0  0  0  0  0  0  0
   -2.9416    0.9395   -2.3242 H   0  0  0  0  0  0  0  0  0  0  0  0
   -0.6899    0.7148   -2.0854 H   0  0  0  0  0  0  0  0  0  0  0  0
   -0.3824   -1.0241   -1.2053 N   0  0  0  0  0  0  0  0  0  0  0  0
    0.5527   -1.9635   -1.7796 C   0  0  2  0  0  0  0  0  0  0  0  0
   -0.1649   -2.7240   -2.8869 C   0  0  0  0  0  0  0  0  0  0  0  0
   -1.3880   -2.8346   -2.9409 O   0  0  0  0  0  0  0  0  0  0  0  0
    1.0945   -2.9183   -0.7273 C   0  0  0  0  0  0  0  0  0  0  0  0
   -0.0226   -0.1231   -0.9047 H   0  0  0  0  0  0  0  0  0  0  0  0
    1.3690   -1.3737   -2.2106 H   0  0  0  0  0  0  0  0  0  0  0  0
    0.2911   -3.5179   -0.2841 H   0  0  0  0  0  0  0  0  0  0  0  0
    1.8246   -3.6112   -1.1585 H   0  0  0  0  0  0  0  0  0  0  0  0
    1.5843   -2.3679    0.0833 H   0  0  0  0  0  0  0  0  0  0  0  0
    0.7232   -3.3012   -3.7838 N   0  0  0  0  0  0  0  0  0  0  0  0
    0.2884   -4.0856   -4.9159 C   0  0  0  0  0  0  0  0  0  0  0  0
    1.7201   -3.1417   -3.6725 H   0  0  0  0  0  0  0  0  0  0  0  0
    0.2525   -5.1483   -4.6343 H   0  0  0  0  0  0  0  0  0  0  0  0
   -0.7133   -3.7550   -5.2279 H   0  0  0  0  0  0  0  0  0  0  0  0
    0.9948   -3.9506   -5.7483 H   0  0  0  0  0  0  0  0  0  0  0  0
  1  3  1  0  0  0  0
  1  7  1  0  0  0  0
  1  2  2  0  0  0  0
 29 30  1  0  0  0  0
 30 38  1  0  0  0  0
 30 31  2  0  0  0  0
  8  9  1  0  0  0  0
  9 17  1  0  0  0  0
  9 10  2  0  0  0  0
 18 19  1  0  0  0  0
 19 28  1  0  0  0  0
 19 20  2  0  0  0  0
 29 32  1  0  0  0  0
  8 11  1  0  0  0  0
 38 39  1  0  0  0  0
 18 21  1  0  0  0  0
 21 22  1  0  0  0  0
 28 29  1  0  0  0  0
  7  8  1  0  0  0  0
 17 18  1  0  0  0  0
  3  4  1  0  0  0  0
  3  5  1  0  0  0  0
  3  6  1  0  0  0  0
 32 35  1  0  0  0  0
 32 36  1  0  0  0  0
 32 37  1  0  0  0  0
 11 14  1  0  0  0  0
 11 15  1  0  0  0  0
 11 16  1  0  0  0  0
 39 41  1  0  0  0  0
 39 42  1  0  0  0  0
 39 43  1  0  0  0  0
 21 25  1  0  0  0  0
 21 26  1  0  0  0  0
 29 34  1  0  0  0  0
  8 13  1  0  0  0  0
 18 24  1  0  0  0  0
 38 40  1  0  0  0  0
  7 12  1  0  0  0  0
 28 33  1  0  0  0  0
 17 23  1  0  0  0  0
 22 27  1  0  0  0  0
M  END
$$$$

  -OEChem-05262214473D

 43 42  0     1  0  0  0  0  0999 V2000
    0.7424   -1.0926    4.5665 C   0  0  0  0  0  0  0  0  0  0  0  0
    0.1409   -0.5364    5.4779 O   0  0  0  0  0  0  0  0  0  0  0  0
    1.7940   -2.1023    4.8871 C   0  0  0  0  0  0  0  0  0  0  0  0
    2.7935   -1.6502    4.9904 H   0  0  0  0  0  0  0  0  0  0  0  0
    1.6064   -2.6156    5.8438 H   0  0  0  0  0  0  0  0  0  0  0  0
    1.9156   -2.9078    4.1453 H   0  0  0  0  0  0  0  0  0  0  0  0
    0.5488   -0.8838    3.2109 N   0  0  0  0  0  0  0  0  0  0  0  0
   -0.4159    0.0446    2.6829 C   0  0  2  0  0  0  0  0  0  0  0  0
   -0.7551   -0.3867    1.2623 C   0  0  0  0  0  0  0  0  0  0  0  0
   -0.0106   -1.0851    0.5774 O   0  0  0  0  0  0  0  0  0  0  0  0
    0.1168    1.4689    2.7060 C   0  0  0  0  0  0  0  0  0  0  0  0
    1.1183   -1.4145    2.5542 H   0  0  0  0  0  0  0  0  0  0  0  0
   -1.3088   -0.0350    3.3125 H   0  0  0  0  0  0  0  0  0  0  0  0
    1.0116    1.5681    2.0808 H   0  0  0  0  0  0  0  0  0  0  0  0
   -0.6289    2.1775    2.3307 H   0  0  0  0  0  0  0  0  0  0  0  0
    0.3882    1.7670    3.7245 H   0  0  0  0  0  0  0  0  0  0  0  0
   -1.9689    0.1350    0.8298 N   0  0  0  0  0  0  0  0  0  0  0  0
   -2.5039   -0.1183   -0.4830 C   0  0  2  0  0  0  0  0  0  0  0  0
   -1.7398   -1.2891   -1.0917 C   0  0  0  0  0  0  0  0  0  0  0  0
   -2.2895   -2.2008   -1.7062 O   0  0  0  0  0  0  0  0  0  0  0  0
   -2.4434    1.1237   -1.3664 C   0  0  0  0  0  0  0  0  0  0  0  0
   -1.0899    1.4739   -1.6322 O   0  0  0  0  0  0  0  0  0  0  0  0
   -2.5276    0.6894    1.4750 H   0  0  0  0  0  0  0  0  0  0  0  0
   -3.5492   -0.4144   -0.3381 H   0  0  0  0  0  0  0  0  0  0  0  0
   -2.9253    1.9771   -0.8786 H   0  0  0  0  0  0  0  0  0  0  0  0
   -2.9416    0.9395   -2.3242 H   0  0  0  0  0  0  0  0  0  0  0  0
   -0.6899    0.7148   -2.0854 H   0  0  0  0  0  0  0  0  0  0  0  0
   -0.3697   -1.1723   -0.9044 N   0  0  0  0  0  0  0  0  0  0  0  0
    0.5748   -2.1389   -1.4145 C   0  0  2  0  0  0  0  0  0  0  0  0
    0.0345   -2.6732   -2.7343 C   0  0  0  0  0  0  0  0  0  0  0  0
   -1.1563   -2.6334   -3.0370 O   0  0  0  0  0  0  0  0  0  0  0  0
    0.8004   -3.2690   -0.4221 C   0  0  0  0  0  0  0  0  0  0  0  0
    0.0003   -0.3616   -0.4171 H   0  0  0  0  0  0  0  0  0  0  0  0
    1.5121   -1.6010   -1.5938 H   0  0  0  0  0  0  0  0  0  0  0  0
   -0.1278   -3.8195   -0.2299 H   0  0  0  0  0  0  0  0  0  0  0  0
    1.5379   -3.9858   -0.7980 H   0  0  0  0  0  0  0  0  0  0  0  0
    1.1606   -2.8799    0.5363 H   0  0  0  0  0  0  0  0  0  0  0  0
    1.0322   -3.2388   -3.5160 N   0  0  0  0  0  0  0  0  0  0  0  0
    0.7704   -3.8265   -4.8091 C   0  0  0  0  0  0  0  0  0  0  0  0
    1.9952   -3.2108   -3.1942 H   0  0  0  0  0  0  0  0  0  0  0  0
    0.5817   -4.9038   -4.6914 H   0  0  0  0  0  0  0  0  0  0  0  0
   -0.1118   -3.3467   -5.2580 H   0  0  0  0  0  0  0  0  0  0  0  0
    1.6421   -3.6765   -5.4631 H   0  0  0  0  0  0  0  0  0  0  0  0
  1  3  1  0  0  0  0
  1  7  1  0  0  0  0
  1  2  2  0  0  0  0
 29 30  1  0  0  0  0
 30 38  1  0  0  0  0
 30 31  2  0  0  0  0
  8  9  1  0  0  0  0
  9 17  1  0  0  0  0
  9 10  2  0  0  0  0
 18 19  1  0  0  0  0
 19 28  1  0  0  0  0
 19 20  2  0  0  0  0
 29 32  1  0  0  0  0
  8 11  1  0  0  0  0
 38 39  1  0  0  0  0
 18 21  1  0  0  0  0
 21 22  1  0  0  0  0
 28 29  1  0  0  0  0
  7  8  1  0  0  0  0
 17 18  1  0  0  0  0
  3  4  1  0  0  0  0
  3  5  1  0  0  0  0
  3  6  1  0  0  0  0
 32 35  1  0  0  0  0
 32 36  1  0  0  0  0
 32 37  1  0  0  0  0
 11 14  1  0  0  0  0
 11 15  1  0  0  0  0
 11 16  1  0  0  0  0
 39 41  1  0  0  0  0
 39 42  1  0  0  0  0
 39 43  1  0  0  0  0
 21 25  1  0  0  0  0
 21 26  1  0  0  0  0
 29 34  1  0  0  0  0
  8 13  1  0  0  0  0
 18 24  1  0  0  0  0
 38 40  1  0  0  0  0
  7 12  1  0  0  0  0
 28 33  1  0  0  0  0
 17 23  1  0  0  0  0
 22 27  1  0  0  0  0
M  END
$$$$

  -OEChem-05262214473D

 43 42  0     1  0  0  0  0  0999 V2000
    0.7424   -1.0926    4.5665 C   0  0  0  0  0  0  0  0  0  0  0  0
    0.1409   -0.5364    5.4779 O   0  0  0  0  0  0  0  0  0  0  0  0
    1.7940   -2.1023    4.8871 C   0  0  0  0  0  0  0  0  0  0  0  0
    2.7935   -1.6502    4.9904 H   0  0  0  0  0  0  0  0  0  0  0  0
    1.6064   -2.6156    5.8438 H   0  0  0  0  0  0  0  0  0  0  0  0
    1.9156   -2.9078    4.1453 H   0  0  0  0  0  0  0  0  0  0  0  0
    0.5488   -0.8838    3.2109 N   0  0  0  0  0  0  0  0  0  0  0  0
   -0.4159    0.0446    2.6829 C   0  0  2  0  0  0  0  0  0  0  0  0
   -0.7551   -0.3867    1.2623 C   0  0  0  0  0  0  0  0  0  0  0  0
   -0.0106   -1.0851    0.5774 O   0  0  0  0  0  0  0  0  0  0  0  0
    0.1168    1.4689    2.7060 C   0  0  0  0  0  0  0  0  0  0  0  0
    1.1183   -1.4145    2.5542 H   0  0  0  0  0  0  0  0  0  0  0  0
   -1.3088   -0.0350    3.3125 H   0  0  0  0  0  0  0  0  0  0  0  0
    1.0116    1.5681    2.0808 H   0  0  0  0  0  0  0  0  0  0  0  0
   -0.6289    2.1775    2.3307 H   0  0  0  0  0  0  0  0  0  0  0  0
    0.3882    1.7670    3.7245 H   0  0  0  0  0  0  0  0  0  0  0  0
   -1.9689    0.1350    0.8298 N   0  0  0  0  0  0  0  0  0  0  0  0
   -2.5039   -0.1183   -0.4830 C   0  0  2  0  0  0  0  0  0  0  0  0
   -1.7398   -1.2891   -1.0917 C   0  0  0  0  0  0  0  0  0  0  0  0
   -2.2314   -2.0508   -1.9219 O   0  0  0  0  0  0  0  0  0  0  0  0
   -2.4434    1.1237   -1.3664 C   0  0  0  0  0  0  0  0  0  0  0  0
   -1.0899    1.4739   -1.6322 O   0  0  0  0  0  0  0  0  0  0  0  0
   -2.5276    0.6894    1.4750 H   0  0  0  0  0  0  0  0  0  0  0  0
   -3.5492   -0.4144   -0.3381 H   0  0  0  0  0  0  0  0  0  0  0  0
   -2.9253    1.9771   -0.8786 H   0  0  0  0  0  0  0  0  0  0  0  0
   -2.9416    0.9395   -2.3242 H   0  0  0  0  0  0  0  0  0  0  0  0
   -0.6899    0.7148   -2.0854 H   0  0  0  0  0  0  0  0  0  0  0  0
   -0.4326   -1.3558   -0.6305 N   0  0  0  0  0  0  0  0  0  0  0  0
    0.5054   -2.3580   -1.0801 C   0  0  2  0  0  0  0  0  0  0  0  0
    0.2020   -2.6645   -2.5408 C   0  0  0  0  0  0  0  0  0  0  0  0
   -0.8926   -2.4505   -3.0577 O   0  0  0  0  0  0  0  0  0  0  0  0
    0.4193   -3.6169   -0.2313 C   0  0  0  0  0  0  0  0  0  0  0  0
   -0.0991   -0.6576    0.0275 H   0  0  0  0  0  0  0  0  0  0  0  0
    1.5042   -1.9154   -0.9991 H   0  0  0  0  0  0  0  0  0  0  0  0
   -0.5743   -4.0745   -0.2998 H   0  0  0  0  0  0  0  0  0  0  0  0
    1.1507   -4.3647   -0.5553 H   0  0  0  0  0  0  0  0  0  0  0  0
    0.6085   -3.3895    0.8233 H   0  0  0  0  0  0  0  0  0  0  0  0
    1.2838   -3.2451   -3.1878 N   0  0  0  0  0  0  0  0  0  0  0  0
    1.2416   -3.6399   -4.5765 C   0  0  0  0  0  0  0  0  0  0  0  0
    2.1587   -3.3680   -2.6866 H   0  0  0  0  0  0  0  0  0  0  0  0
    0.9363   -4.6942   -4.6493 H   0  0  0  0  0  0  0  0  0  0  0  0
    0.5174   -3.0106   -5.1146 H   0  0  0  0  0  0  0  0  0  0  0  0
    2.2389   -3.5155   -5.0235 H   0  0  0  0  0  0  0  0  0  0  0  0
  1  3  1  0  0  0  0
  1  7  1  0  0  0  0
  1  2  2  0  0  0  0
 29 30  1  0  0  0  0
 30 38  1  0  0  0  0
 30 31  2  0  0  0  0
  8  9  1  0  0  0  0
  9 17  1  0  0  0  0
  9 10  2  0  0  0  0
 18 19  1  0  0  0  0
 19 28  1  0  0  0  0
 19 20  2  0  0  0  0
 29 32  1  0  0  0  0
  8 11  1  0  0  0  0
 38 39  1  0  0  0  0
 18 21  1  0  0  0  0
 21 22  1  0  0  0  0
 28 29  1  0  0  0  0
  7  8  1  0  0  0  0
 17 18  1  0  0  0  0
  3  4  1  0  0  0  0
  3  5  1  0  0  0  0
  3  6  1  0  0  0  0
 32 35  1  0  0  0  0
 32 36  1  0  0  0  0
 32 37  1  0  0  0  0
 11 14  1  0  0  0  0
 11 15  1  0  0  0  0
 11 16  1  0  0  0  0
 39 41  1  0  0  0  0
 39 42  1  0  0  0  0
 39 43  1  0  0  0  0
 21 25  1  0  0  0  0
 21 26  1  0  0  0  0
 29 34  1  0  0  0  0
  8 13  1  0  0  0  0
 18 24  1  0  0  0  0
 38 40  1  0  0  0  0
  7 12  1  0  0  0  0
 28 33  1  0  0  0  0
 17 23  1  0  0  0  0
 22 27  1  0  0  0  0
M  END
$$$$

  -OEChem-05262214473D

 43 42  0     1  0  0  0  0  0999 V2000
    0.7424   -1.0926    4.5665 C   0  0  0  0  0  0  0  0  0  0  0  0
    0.1409   -0.5364    5.4779 O   0  0  0  0  0  0  0  0  0  0  0  0
    1.7940   -2.1023    4.8871 C   0  0  0  0  0  0  0  0  0  0  0  0
    2.7935   -1.6502    4.9904 H   0  0  0  0  0  0  0  0  0  0  0  0
    1.6064   -2.6156    5.8438 H   0  0  0  0  0  0  0  0  0  0  0  0
    1.9156   -2.9078    4.1453 H   0  0  0  0  0  0  0  0  0  0  0  0
    0.5488   -0.8838    3.2109 N   0  0  0  0  0  0  0  0  0  0  0  0
   -0.4159    0.0446    2.6829 C   0  0  2  0  0  0  0  0  0  0  0  0
   -0.7551   -0.3867    1.2623 C   0  0  0  0  0  0  0  0  0  0  0  0
   -0.0106   -1.0851    0.5774 O   0  0  0  0  0  0  0  0  0  0  0  0
    0.1168    1.4689    2.7060 C   0  0  0  0  0  0  0  0  0  0  0  0
    1.1183   -1.4145    2.5542 H   0  0  0  0  0  0  0  0  0  0  0  0
   -1.3088   -0.0350    3.3125 H   0  0  0  0  0  0  0  0  0  0  0  0
    1.0116    1.5681    2.0808 H   0  0  0  0  0  0  0  0  0  0  0  0
   -0.6289    2.1775    2.3307 H   0  0  0  0  0  0  0  0  0  0  0  0
    0.3882    1.7670    3.7245 H   0  0  0  0  0  0  0  0  0  0  0  0
   -1.9689    0.1350    0.8298 N   0  0  0  0  0  0  0  0  0  0  0  0
   -2.5039   -0.1183   -0.4830 C   0  0  2  0  0  0  0  0  0  0  0  0
   -1.7398   -1.2891   -1.0917 C   0  0  0  0  0  0  0  0  0  0  0  0
   -2.1169   -1.8839   -2.0992 O   0  0  0  0  0  0  0  0  0  0  0  0
   -2.4434    1.1237   -1.3664 C   0  0  0  0  0  0  0  0  0  0  0  0
   -1.0899    1.4739   -1.6322 O   0  0  0  0  0  0  0  0  0  0  0  0
   -2.5276    0.6894    1.4750 H   0  0  0  0  0  0  0  0  0  0  0  0
   -3.5492   -0.4144   -0.3381 H   0  0  0  0  0  0  0  0  0  0  0  0
   -2.9253    1.9771   -0.8786 H   0  0  0  0  0  0  0  0  0  0  0  0
   -2.9416    0.9395   -2.3242 H   0  0  0  0  0  0  0  0  0  0  0  0
   -0.6899    0.7148   -2.0854 H   0  0  0  0  0  0  0  0  0  0  0  0
   -0.5668   -1.5620   -0.4022 N   0  0  0  0  0  0  0  0  0  0  0  0
    0.3493   -2.6058   -0.7994 C   0  0  2  0  0  0  0  0  0  0  0  0
    0.3262   -2.6985   -2.3194 C   0  0  0  0  0  0  0  0  0  0  0  0
   -0.6148   -2.2984   -3.0016 O   0  0  0  0  0  0  0  0  0  0  0  0
   -0.0226   -3.9383   -0.1678 C   0  0  0  0  0  0  0  0  0  0  0  0
   -0.3141   -0.9909    0.3988 H   0  0  0  0  0  0  0  0  0  0  0  0
    1.3459   -2.2953   -0.4670 H   0  0  0  0  0  0  0  0  0  0  0  0
   -1.0181   -4.2657   -0.4892 H   0  0  0  0  0  0  0  0  0  0  0  0
    0.6893   -4.7221   -0.4470 H   0  0  0  0  0  0  0  0  0  0  0  0
   -0.0345   -3.8619    0.9248 H   0  0  0  0  0  0  0  0  0  0  0  0
    1.4611   -3.3198   -2.8217 N   0  0  0  0  0  0  0  0  0  0  0  0
    1.6697   -3.5386   -4.2340 C   0  0  0  0  0  0  0  0  0  0  0  0
    2.1995   -3.6026   -2.1841 H   0  0  0  0  0  0  0  0  0  0  0  0
    1.2921   -4.5339   -4.5111 H   0  0  0  0  0  0  0  0  0  0  0  0
    1.1314   -2.7696   -4.8074 H   0  0  0  0  0  0  0  0  0  0  0  0
    2.7447   -3.4786   -4.4593 H   0  0  0  0  0  0  0  0  0  0  0  0
  1  3  1  0  0  0  0
  1  7  1  0  0  0  0
  1  2  2  0  0  0  0
 29 30  1  0  0  0  0
 30 38  1  0  0  0  0
 30 31  2  0  0  0  0
  8  9  1  0  0  0  0
  9 17  1  0  0  0  0
  9 10  2  0  0  0  0
 18 19  1  0  0  0  0
 19 28  1  0  0  0  0
 19 20  2  0  0  0  0
 29 32  1  0  0  0  0
  8 11  1  0  0  0  0
 38 39  1  0  0  0  0
 18 21  1  0  0  0  0
 21 22  1  0  0  0  0
 28 29  1  0  0  0  0
  7  8  1  0  0  0  0
 17 18  1  0  0  0  0
  3  4  1  0  0  0  0
  3  5  1  0  0  0  0
  3  6  1  0  0  0  0
 32 35  1  0  0  0  0
 32 36  1  0  0  0  0
 32 37  1  0  0  0  0
 11 14  1  0  0  0  0
 11 15  1  0  0  0  0
 11 16  1  0  0  0  0
 39 41  1  0  0  0  0
 39 42  1  0  0  0  0
 39 43  1  0  0  0  0
 21 25  1  0  0  0  0
 21 26  1  0  0  0  0
 29 34  1  0  0  0  0
  8 13  1  0  0  0  0
 18 24  1  0  0  0  0
 38 40  1  0  0  0  0
  7 12  1  0  0  0  0
 28 33  1  0  0  0  0
 17 23  1  0  0  0  0
 22 27  1  0  0  0  0
M  END
$$$$

  -OEChem-05262214473D

 43 42  0     1  0  0  0  0  0999 V2000
    0.7424   -1.0926    4.5665 C   0  0  0  0  0  0  0  0  0  0  0  0
    0.1409   -0.5364    5.4779 O   0  0  0  0  0  0  0  0  0  0  0  0
    1.7940   -2.1023    4.8871 C   0  0  0  0  0  0  0  0  0  0  0  0
    2.7935   -1.6502    4.9904 H   0  0  0  0  0  0  0  0  0  0  0  0
    1.6064   -2.6156    5.8438 H   0  0  0  0  0  0  0  0  0  0  0  0
    1.9156   -2.9078    4.1453 H   0  0  0  0  0  0  0  0  0  0  0  0
    0.5488   -0.8838    3.2109 N   0  0  0  0  0  0  0  0  0  0  0  0
   -0.4159    0.0446    2.6829 C   0  0  2  0  0  0  0  0  0  0  0  0
   -0.7551   -0.3867    1.2623 C   0  0  0  0  0  0  0  0  0  0  0  0
   -0.0106   -1.0851    0.5774 O   0  0  0  0  0  0  0  0  0  0  0  0
    0.1168    1.4689    2.7060 C   0  0  0  0  0  0  0  0  0  0  0  0
    1.1183   -1.4145    2.5542 H   0  0  0  0  0  0  0  0  0  0  0  0
   -1.3088   -0.0350    3.3125 H   0  0  0  0  0  0  0  0  0  0  0  0
    1.0116    1.5681    2.0808 H   0  0  0  0  0  0  0  0  0  0  0  0
   -0.6289    2.1775    2.3307 H   0  0  0  0  0  0  0  0  0  0  0  0
    0.3882    1.7670    3.7245 H   0  0  0  0  0  0  0  0  0  0  0  0
   -1.9689    0.1350    0.8298 N   0  0  0  0  0  0  0  0  0  0  0  0
   -2.5039   -0.1183   -0.4830 C   0  0  2  0  0  0  0  0  0  0  0  0
   -1.7398   -1.2891   -1.0917 C   0  0  0  0  0  0  0  0  0  0  0  0
   -1.9538   -1.7115   -2.2261 O   0  0  0  0  0  0  0  0  0  0  0  0
   -2.4434    1.1237   -1.3664 C   0  0  0  0  0  0  0  0  0  0  0  0
   -1.0899    1.4739   -1.6322 O   0  0  0  0  0  0  0  0  0  0  0  0
   -2.5276    0.6894    1.4750 H   0  0  0  0  0  0  0  0  0  0  0  0
   -3.5492   -0.4144   -0.3381 H   0  0  0  0  0  0  0  0  0  0  0  0
   -2.9253    1.9771   -0.8786 H   0  0  0  0  0  0  0  0  0  0  0  0
   -2.9416    0.9395   -2.3242 H   0  0  0  0  0  0  0  0  0  0  0  0
   -0.6899    0.7148   -2.0854 H   0  0  0  0  0  0  0  0  0  0  0  0
   -0.7631   -1.7770   -0.2351 N   0  0  0  0  0  0  0  0  0  0  0  0
    0.1172   -2.8655   -0.5914 C   0  0  2  0  0  0  0  0  0  0  0  0
    0.3987   -2.7729   -2.0853 C   0  0  0  0  0  0  0  0  0  0  0  0
   -0.3420   -2.1875   -2.8725 O   0  0  0  0  0  0  0  0  0  0  0  0
   -0.4952   -4.2113   -0.2360 C   0  0  0  0  0  0  0  0  0  0  0  0
   -0.6299   -1.3388    0.6715 H   0  0  0  0  0  0  0  0  0  0  0  0
    1.0480   -2.7150   -0.0337 H   0  0  0  0  0  0  0  0  0  0  0  0
   -1.4288   -4.3799   -0.7851 H   0  0  0  0  0  0  0  0  0  0  0  0
    0.1851   -5.0338   -0.4805 H   0  0  0  0  0  0  0  0  0  0  0  0
   -0.7245   -4.2649    0.8337 H   0  0  0  0  0  0  0  0  0  0  0  0
    1.5518   -3.4577   -2.4424 N   0  0  0  0  0  0  0  0  0  0  0  0
    2.0257   -3.5293   -3.8049 C   0  0  0  0  0  0  0  0  0  0  0  0
    2.1148   -3.8986   -1.7211 H   0  0  0  0  0  0  0  0  0  0  0  0
    1.6248   -4.4337   -4.2860 H   0  0  0  0  0  0  0  0  0  0  0  0
    1.6884   -2.6400   -4.3575 H   0  0  0  0  0  0  0  0  0  0  0  0
    3.1250   -3.5685   -3.8091 H   0  0  0  0  0  0  0  0  0  0  0  0
  1  3  1  0  0  0  0
  1  7  1  0  0  0  0
  1  2  2  0  0  0  0
 29 30  1  0  0  0  0
 30 38  1  0  0  0  0
 30 31  2  0  0  0  0
  8  9  1  0  0  0  0
  9 17  1  0  0  0  0
  9 10  2  0  0  0  0
 18 19  1  0  0  0  0
 19 28  1  0  0  0  0
 19 20  2  0  0  0  0
 29 32  1  0  0  0  0
  8 11  1  0  0  0  0
 38 39  1  0  0  0  0
 18 21  1  0  0  0  0
 21 22  1  0  0  0  0
 28 29  1  0  0  0  0
  7  8  1  0  0  0  0
 17 18  1  0  0  0  0
  3  4  1  0  0  0  0
  3  5  1  0  0  0  0
  3  6  1  0  0  0  0
 32 35  1  0  0  0  0
 32 36  1  0  0  0  0
 32 37  1  0  0  0  0
 11 14  1  0  0  0  0
 11 15  1  0  0  0  0
 11 16  1  0  0  0  0
 39 41  1  0  0  0  0
 39 42  1  0  0  0  0
 39 43  1  0  0  0  0
 21 25  1  0  0  0  0
 21 26  1  0  0  0  0
 29 34  1  0  0  0  0
  8 13  1  0  0  0  0
 18 24  1  0  0  0  0
 38 40  1  0  0  0  0
  7 12  1  0  0  0  0
 28 33  1  0  0  0  0
 17 23  1  0  0  0  0
 22 27  1  0  0  0  0
M  END
$$$$

  -OEChem-05262214473D

 43 42  0     1  0  0  0  0  0999 V2000
    0.7424   -1.0926    4.5665 C   0  0  0  0  0  0  0  0  0  0  0  0
    0.1409   -0.5364    5.4779 O   0  0  0  0  0  0  0  0  0  0  0  0
    1.7940   -2.1023    4.8871 C   0  0  0  0  0  0  0  0  0  0  0  0
    2.7935   -1.6502    4.9904 H   0  0  0  0  0  0  0  0  0  0  0  0
    1.6064   -2.6156    5.8438 H   0  0  0  0  0  0  0  0  0  0  0  0
    1.9156   -2.9078    4.1453 H   0  0  0  0  0  0  0  0  0  0  0  0
    0.5488   -0.8838    3.2109 N   0  0  0  0  0  0  0  0  0  0  0  0
   -0.4159    0.0446    2.6829 C   0  0  2  0  0  0  0  0  0  0  0  0
   -0.7551   -0.3867    1.2623 C   0  0  0  0  0  0  0  0  0  0  0  0
   -0.0106   -1.0851    0.5774 O   0  0  0  0  0  0  0  0  0  0  0  0
    0.1168    1.4689    2.7060 C   0  0  0  0  0  0  0  0  0  0  0  0
    1.1183   -1.4145    2.5542 H   0  0  0  0  0  0  0  0  0  0  0  0
   -1.3088   -0.0350    3.3125 H   0  0  0  0  0  0  0  0  0  0  0  0
    1.0116    1.5681    2.0808 H   0  0  0  0  0  0  0  0  0  0  0  0
   -0.6289    2.1775    2.3307 H   0  0  0  0  0  0  0  0  0  0  0  0
    0.3882    1.7670    3.7245 H   0  0  0  0  0  0  0  0  0  0  0  0
   -1.9689    0.1350    0.8298 N   0  0  0  0  0  0  0  0  0  0  0  0
   -2.5039   -0.1183   -0.4830 C   0  0  2  0  0  0  0  0  0  0  0  0
   -1.7398   -1.2891   -1.0917 C   0  0  0  0  0  0  0  0  0  0  0  0
   -1.7533   -1.5454   -2.2938 O   0  0  0  0  0  0  0  0  0  0  0  0
   -2.4434    1.1237   -1.3664 C   0  0  0  0  0  0  0  0  0  0  0  0
   -1.0899    1.4739   -1.6322 O   0  0  0  0  0  0  0  0  0  0  0  0
   -2.5276    0.6894    1.4750 H   0  0  0  0  0  0  0  0  0  0  0  0
   -3.5492   -0.4144   -0.3381 H   0  0  0  0  0  0  0  0  0  0  0  0
   -2.9253    1.9771   -0.8786 H   0  0  0  0  0  0  0  0  0  0  0  0
   -2.9416    0.9395   -2.3242 H   0  0  0  0  0  0  0  0  0  0  0  0
   -0.6899    0.7148   -2.0854 H   0  0  0  0  0  0  0  0  0  0  0  0
   -1.0080   -1.9860   -0.1406 N   0  0  0  0  0  0  0  0  0  0  0  0
   -0.1752   -3.1193   -0.4703 C   0  0  2  0  0  0  0  0  0  0  0  0
    0.4145   -2.8827   -1.8544 C   0  0  0  0  0  0  0  0  0  0  0  0
   -0.0927   -2.1253   -2.6791 O   0  0  0  0  0  0  0  0  0  0  0  0
   -0.9665   -4.4174   -0.4312 C   0  0  0  0  0  0  0  0  0  0  0  0
   -1.0251   -1.6776    0.8270 H   0  0  0  0  0  0  0  0  0  0  0  0
    0.6308   -3.1458    0.2711 H   0  0  0  0  0  0  0  0  0  0  0  0
   -1.7786   -4.4095   -1.1674 H   0  0  0  0  0  0  0  0  0  0  0  0
   -0.3274   -5.2784   -0.6534 H   0  0  0  0  0  0  0  0  0  0  0  0
   -1.4146   -4.5711    0.5563 H   0  0  0  0  0  0  0  0  0  0  0  0
    1.5499   -3.6495   -2.0760 N   0  0  0  0  0  0  0  0  0  0  0  0
    2.2852   -3.6128   -3.3185 C   0  0  0  0  0  0  0  0  0  0  0  0
    1.9105   -4.2358   -1.3290 H   0  0  0  0  0  0  0  0  0  0  0  0
    1.9119   -4.4005   -3.9895 H   0  0  0  0  0  0  0  0  0  0  0  0
    2.1503   -2.6307   -3.7954 H   0  0  0  0  0  0  0  0  0  0  0  0
    3.3538   -3.7789   -3.1171 H   0  0  0  0  0  0  0  0  0  0  0  0
  1  3  1  0  0  0  0
  1  7  1  0  0  0  0
  1  2  2  0  0  0  0
 29 30  1  0  0  0  0
 30 38  1  0  0  0  0
 30 31  2  0  0  0  0
  8  9  1  0  0  0  0
  9 17  1  0  0  0  0
  9 10  2  0  0  0  0
 18 19  1  0  0  0  0
 19 28  1  0  0  0  0
 19 20  2  0  0  0  0
 29 32  1  0  0  0  0
  8 11  1  0  0  0  0
 38 39  1  0  0  0  0
 18 21  1  0  0  0  0
 21 22  1  0  0  0  0
 28 29  1  0  0  0  0
  7  8  1  0  0  0  0
 17 18  1  0  0  0  0
  3  4  1  0  0  0  0
  3  5  1  0  0  0  0
  3  6  1  0  0  0  0
 32 35  1  0  0  0  0
 32 36  1  0  0  0  0
 32 37  1  0  0  0  0
 11 14  1  0  0  0  0
 11 15  1  0  0  0  0
 11 16  1  0  0  0  0
 39 41  1  0  0  0  0
 39 42  1  0  0  0  0
 39 43  1  0  0  0  0
 21 25  1  0  0  0  0
 21 26  1  0  0  0  0
 29 34  1  0  0  0  0
  8 13  1  0  0  0  0
 18 24  1  0  0  0  0
 38 40  1  0  0  0  0
  7 12  1  0  0  0  0
 28 33  1  0  0  0  0
 17 23  1  0  0  0  0
 22 27  1  0  0  0  0
M  END
$$$$

  -OEChem-05262214473D

 43 42  0     1  0  0  0  0  0999 V2000
    0.7424   -1.0926    4.5665 C   0  0  0  0  0  0  0  0  0  0  0  0
    0.1409   -0.5364    5.4779 O   0  0  0  0  0  0  0  0  0  0  0  0
    1.7940   -2.1023    4.8871 C   0  0  0  0  0  0  0  0  0  0  0  0
    2.7935   -1.6502    4.9904 H   0  0  0  0  0  0  0  0  0  0  0  0
    1.6064   -2.6156    5.8438 H   0  0  0  0  0  0  0  0  0  0  0  0
    1.9156   -2.9078    4.1453 H   0  0  0  0  0  0  0  0  0  0  0  0
    0.5488   -0.8838    3.2109 N   0  0  0  0  0  0  0  0  0  0  0  0
   -0.4159    0.0446    2.6829 C   0  0  2  0  0  0  0  0  0  0  0  0
   -0.7551   -0.3867    1.2623 C   0  0  0  0  0  0  0  0  0  0  0  0
   -0.0106   -1.0851    0.5774 O   0  0  0  0  0  0  0  0  0  0  0  0
    0.1168    1.4689    2.7060 C   0  0  0  0  0  0  0  0  0  0  0  0
    1.1183   -1.4145    2.5542 H   0  0  0  0  0  0  0  0  0  0  0  0
   -1.3088   -0.0350    3.3125 H   0  0  0  0  0  0  0  0  0  0  0  0
    1.0116    1.5681    2.0808 H   0  0  0  0  0  0  0  0  0  0  0  0
   -0.6289    2.1775    2.3307 H   0  0  0  0  0  0  0  0  0  0  0  0
    0.3882    1.7670    3.7245 H   0  0  0  0  0  0  0  0  0  0  0  0
   -1.9689    0.1350    0.8298 N   0  0  0  0  0  0  0  0  0  0  0  0
   -2.5039   -0.1183   -0.4830 C   0  0  2  0  0  0  0  0  0  0  0  0
   -1.7398   -1.2891   -1.0917 C   0  0  0  0  0  0  0  0  0  0  0  0
   -1.5290   -1.3969   -2.2979 O   0  0  0  0  0  0  0  0  0  0  0  0
   -2.4434    1.1237   -1.3664 C   0  0  0  0  0  0  0  0  0  0  0  0
   -1.0899    1.4739   -1.6322 O   0  0  0  0  0  0  0  0  0  0  0  0
   -2.5276    0.6894    1.4750 H   0  0  0  0  0  0  0  0  0  0  0  0
   -3.5492   -0.4144   -0.3381 H   0  0  0  0  0  0  0  0  0  0  0  0
   -2.9253    1.9771   -0.8786 H   0  0  0  0  0  0  0  0  0  0  0  0
   -2.9416    0.9395   -2.3242 H   0  0  0  0  0  0  0  0  0  0  0  0
   -0.6899    0.7148   -2.0854 H   0  0  0  0  0  0  0  0  0  0  0  0
   -1.2851   -2.1749   -0.1251 N   0  0  0  0  0  0  0  0  0  0  0  0
   -0.5079   -3.3499   -0.4443 C   0  0  2  0  0  0  0  0  0  0  0  0
    0.3726   -3.0202   -1.6424 C   0  0  0  0  0  0  0  0  0  0  0  0
    0.1161   -2.1161   -2.4348 O   0  0  0  0  0  0  0  0  0  0  0  0
   -1.4041   -4.5425   -0.7402 C   0  0  0  0  0  0  0  0  0  0  0  0
   -1.4728   -1.9842    0.8548 H   0  0  0  0  0  0  0  0  0  0  0  0
    0.1227   -3.5583    0.4268 H   0  0  0  0  0  0  0  0  0  0  0  0
   -2.0435   -4.3523   -1.6100 H   0  0  0  0  0  0  0  0  0  0  0  0
   -0.8134   -5.4393   -0.9540 H   0  0  0  0  0  0  0  0  0  0  0  0
   -2.0577   -4.7596    0.1116 H   0  0  0  0  0  0  0  0  0  0  0  0
    1.4553   -3.8821   -1.7473 N   0  0  0  0  0  0  0  0  0  0  0  0
    2.4306   -3.7833   -2.8080 C   0  0  0  0  0  0  0  0  0  0  0  0
    1.6003   -4.5913   -1.0347 H   0  0  0  0  0  0  0  0  0  0  0  0
    2.1337   -4.4365   -3.6418 H   0  0  0  0  0  0  0  0  0  0  0  0
    2.4857   -2.7424   -3.1594 H   0  0  0  0  0  0  0  0  0  0  0  0
    3.4155   -4.0955   -2.4305 H   0  0  0  0  0  0  0  0  0  0  0  0
  1  3  1  0  0  0  0
  1  7  1  0  0  0  0
  1  2  2  0  0  0  0
 29 30  1  0  0  0  0
 30 38  1  0  0  0  0
 30 31  2  0  0  0  0
  8  9  1  0  0  0  0
  9 17  1  0  0  0  0
  9 10  2  0  0  0  0
 18 19  1  0  0  0  0
 19 28  1  0  0  0  0
 19 20  2  0  0  0  0
 29 32  1  0  0  0  0
  8 11  1  0  0  0  0
 38 39  1  0  0  0  0
 18 21  1  0  0  0  0
 21 22  1  0  0  0  0
 28 29  1  0  0  0  0
  7  8  1  0  0  0  0
 17 18  1  0  0  0  0
  3  4  1  0  0  0  0
  3  5  1  0  0  0  0
  3  6  1  0  0  0  0
 32 35  1  0  0  0  0
 32 36  1  0  0  0  0
 32 37  1  0  0  0  0
 11 14  1  0  0  0  0
 11 15  1  0  0  0  0
 11 16  1  0  0  0  0
 39 41  1  0  0  0  0
 39 42  1  0  0  0  0
 39 43  1  0  0  0  0
 21 25  1  0  0  0  0
 21 26  1  0  0  0  0
 29 34  1  0  0  0  0
  8 13  1  0  0  0  0
 18 24  1  0  0  0  0
 38 40  1  0  0  0  0
  7 12  1  0  0  0  0
 28 33  1  0  0  0  0
 17 23  1  0  0  0  0
 22 27  1  0  0  0  0
M  END
$$$$

  -OEChem-05262214473D

 43 42  0     1  0  0  0  0  0999 V2000
    0.7424   -1.0926    4.5665 C   0  0  0  0  0  0  0  0  0  0  0  0
    0.1409   -0.5364    5.4779 O   0  0  0  0  0  0  0  0  0  0  0  0
    1.7940   -2.1023    4.8871 C   0  0  0  0  0  0  0  0  0  0  0  0
    2.7935   -1.6502    4.9904 H   0  0  0  0  0  0  0  0  0  0  0  0
    1.6064   -2.6156    5.8438 H   0  0  0  0  0  0  0  0  0  0  0  0
    1.9156   -2.9078    4.1453 H   0  0  0  0  0  0  0  0  0  0  0  0
    0.5488   -0.8838    3.2109 N   0  0  0  0  0  0  0  0  0  0  0  0
   -0.4159    0.0446    2.6829 C   0  0  2  0  0  0  0  0  0  0  0  0
   -0.7551   -0.3867    1.2623 C   0  0  0  0  0  0  0  0  0  0  0  0
   -0.0106   -1.0851    0.5774 O   0  0  0  0  0  0  0  0  0  0  0  0
    0.1168    1.4689    2.7060 C   0  0  0  0  0  0  0  0  0  0  0  0
    1.1183   -1.4145    2.5542 H   0  0  0  0  0  0  0  0  0  0  0  0
   -1.3088   -0.0350    3.3125 H   0  0  0  0  0  0  0  0  0  0  0  0
    1.0116    1.5681    2.0808 H   0  0  0  0  0  0  0  0  0  0  0  0
   -0.6289    2.1775    2.3307 H   0  0  0  0  0  0  0  0  0  0  0  0
    0.3882    1.7670    3.7245 H   0  0  0  0  0  0  0  0  0  0  0  0
   -1.9689    0.1350    0.8298 N   0  0  0  0  0  0  0  0  0  0  0  0
   -2.5039   -0.1183   -0.4830 C   0  0  2  0  0  0  0  0  0  0  0  0
   -1.7398   -1.2891   -1.0917 C   0  0  0  0  0  0  0  0  0  0  0  0
   -1.2962   -1.2760   -2.2380 O   0  0  0  0  0  0  0  0  0  0  0  0
   -2.4434    1.1237   -1.3664 C   0  0  0  0  0  0  0  0  0  0  0  0
   -1.0899    1.4739   -1.6322 O   0  0  0  0  0  0  0  0  0  0  0  0
   -2.5276    0.6894    1.4750 H   0  0  0  0  0  0  0  0  0  0  0  0
   -3.5492   -0.4144   -0.3381 H   0  0  0  0  0  0  0  0  0  0  0  0
   -2.9253    1.9771   -0.8786 H   0  0  0  0  0  0  0  0  0  0  0  0
   -2.9416    0.9395   -2.3242 H   0  0  0  0  0  0  0  0  0  0  0  0
   -0.6899    0.7148   -2.0854 H   0  0  0  0  0  0  0  0  0  0  0  0
   -1.5752   -2.3307   -0.1897 N   0  0  0  0  0  0  0  0  0  0  0  0
   -0.8583   -3.5417   -0.5153 C   0  0  2  0  0  0  0  0  0  0  0  0
    0.2757   -3.1763   -1.4639 C   0  0  0  0  0  0  0  0  0  0  0  0
    0.2702   -2.1604   -2.1560 O   0  0  0  0  0  0  0  0  0  0  0  0
   -1.7784   -4.5779   -1.1418 C   0  0  0  0  0  0  0  0  0  0  0  0
   -1.9423   -2.2377    0.7528 H   0  0  0  0  0  0  0  0  0  0  0  0
   -0.4416   -3.9245    0.4227 H   0  0  0  0  0  0  0  0  0  0  0  0
   -2.2055   -4.2123   -2.0827 H   0  0  0  0  0  0  0  0  0  0  0  0
   -1.2397   -5.5055   -1.3618 H   0  0  0  0  0  0  0  0  0  0  0  0
   -2.6099   -4.8176   -0.4703 H   0  0  0  0  0  0  0  0  0  0  0  0
    1.2746   -4.1397   -1.4787 N   0  0  0  0  0  0  0  0  0  0  0  0
    2.4520   -4.0293   -2.3080 C   0  0  0  0  0  0  0  0  0  0  0  0
    1.2055   -4.9408   -0.8581 H   0  0  0  0  0  0  0  0  0  0  0  0
    2.2751   -4.5393   -3.2665 H   0  0  0  0  0  0  0  0  0  0  0  0
    2.6718   -2.9675   -2.4930 H   0  0  0  0  0  0  0  0  0  0  0  0
    3.3060   -4.4968   -1.7962 H   0  0  0  0  0  0  0  0  0  0  0  0
  1  3  1  0  0  0  0
  1  7  1  0  0  0  0
  1  2  2  0  0  0  0
 29 30  1  0  0  0  0
 30 38  1  0  0  0  0
 30 31  2  0  0  0  0
  8  9  1  0  0  0  0
  9 17  1  0  0  0  0
  9 10  2  0  0  0  0
 18 19  1  0  0  0  0
 19 28  1  0  0  0  0
 19 20  2  0  0  0  0
 29 32  1  0  0  0  0
  8 11  1  0  0  0  0
 38 39  1  0  0  0  0
 18 21  1  0  0  0  0
 21 22  1  0  0  0  0
 28 29  1  0  0  0  0
  7  8  1  0  0  0  0
 17 18  1  0  0  0  0
  3  4  1  0  0  0  0
  3  5  1  0  0  0  0
  3  6  1  0  0  0  0
 32 35  1  0  0  0  0
 32 36  1  0  0  0  0
 32 37  1  0  0  0  0
 11 14  1  0  0  0  0
 11 15  1  0  0  0  0
 11 16  1  0  0  0  0
 39 41  1  0  0  0  0
 39 42  1  0  0  0  0
 39 43  1  0  0  0  0
 21 25  1  0  0  0  0
 21 26  1  0  0  0  0
 29 34  1  0  0  0  0
  8 13  1  0  0  0  0
 18 24  1  0  0  0  0
 38 40  1  0  0  0  0
  7 12  1  0  0  0  0
 28 33  1  0  0  0  0
 17 23  1  0  0  0  0
 22 27  1  0  0  0  0
M  END
$$$$

  -OEChem-05262214473D

 43 42  0     1  0  0  0  0  0999 V2000
    0.7424   -1.0926    4.5665 C   0  0  0  0  0  0  0  0  0  0  0  0
    0.1409   -0.5364    5.4779 O   0  0  0  0  0  0  0  0  0  0  0  0
    1.7940   -2.1023    4.8871 C   0  0  0  0  0  0  0  0  0  0  0  0
    2.7935   -1.6502    4.9904 H   0  0  0  0  0  0  0  0  0  0  0  0
    1.6064   -2.6156    5.8438 H   0  0  0  0  0  0  0  0  0  0  0  0
    1.9156   -2.9078    4.1453 H   0  0  0  0  0  0  0  0  0  0  0  0
    0.5488   -0.8838    3.2109 N   0  0  0  0  0  0  0  0  0  0  0  0
   -0.4159    0.0446    2.6829 C   0  0  2  0  0  0  0  0  0  0  0  0
   -0.7551   -0.3867    1.2623 C   0  0  0  0  0  0  0  0  0  0  0  0
   -0.0106   -1.0851    0.5774 O   0  0  0  0  0  0  0  0  0  0  0  0
    0.1168    1.4689    2.7060 C   0  0  0  0  0  0  0  0  0  0  0  0
    1.1183   -1.4145    2.5542 H   0  0  0  0  0  0  0  0  0  0  0  0
   -1.3088   -0.0350    3.3125 H   0  0  0  0  0  0  0  0  0  0  0  0
    1.0116    1.5681    2.0808 H   0  0  0  0  0  0  0  0  0  0  0  0
   -0.6289    2.1775    2.3307 H   0  0  0  0  0  0  0  0  0  0  0  0
    0.3882    1.7670    3.7245 H   0  0  0  0  0  0  0  0  0  0  0  0
   -1.9689    0.1350    0.8298 N   0  0  0  0  0  0  0  0  0  0  0  0
   -2.5039   -0.1183   -0.4830 C   0  0  2  0  0  0  0  0  0  0  0  0
   -1.7398   -1.2891   -1.0917 C   0  0  0  0  0  0  0  0  0  0  0  0
   -1.0707   -1.1912   -2.1182 O   0  0  0  0  0  0  0  0  0  0  0  0
   -2.4434    1.1237   -1.3664 C   0  0  0  0  0  0  0  0  0  0  0  0
   -1.0899    1.4739   -1.6322 O   0  0  0  0  0  0  0  0  0  0  0  0
   -2.5276    0.6894    1.4750 H   0  0  0  0  0  0  0  0  0  0  0  0
   -3.5492   -0.4144   -0.3381 H   0  0  0  0  0  0  0  0  0  0  0  0
   -2.9253    1.9771   -0.8786 H   0  0  0  0  0  0  0  0  0  0  0  0
   -2.9416    0.9395   -2.3242 H   0  0  0  0  0  0  0  0  0  0  0  0
   -0.6899    0.7148   -2.0854 H   0  0  0  0  0  0  0  0  0  0  0  0
   -1.8588   -2.4429   -0.3299 N   0  0  0  0  0  0  0  0  0  0  0  0
   -1.2025   -3.6816   -0.6783 C   0  0  2  0  0  0  0  0  0  0  0  0
    0.1306   -3.3401   -1.3309 C   0  0  0  0  0  0  0  0  0  0  0  0
    0.3591   -2.2553   -1.8619 O   0  0  0  0  0  0  0  0  0  0  0  0
   -2.0638   -4.5215   -1.6087 C   0  0  0  0  0  0  0  0  0  0  0  0
   -2.4018   -2.4208    0.5282 H   0  0  0  0  0  0  0  0  0  0  0  0
   -1.0237   -4.2194    0.2591 H   0  0  0  0  0  0  0  0  0  0  0  0
   -2.2536   -3.9990   -2.5534 H   0  0  0  0  0  0  0  0  0  0  0  0
   -1.5773   -5.4726   -1.8490 H   0  0  0  0  0  0  0  0  0  0  0  0
   -3.0337   -4.7410   -1.1496 H   0  0  0  0  0  0  0  0  0  0  0  0
    1.0202   -4.4046   -1.2887 N   0  0  0  0  0  0  0  0  0  0  0  0
    2.3478   -4.3339   -1.8528 C   0  0  0  0  0  0  0  0  0  0  0  0
    0.7529   -5.2604   -0.8113 H   0  0  0  0  0  0  0  0  0  0  0  0
    2.3265   -4.7019   -2.8892 H   0  0  0  0  0  0  0  0  0  0  0  0
    2.6959   -3.2905   -1.8414 H   0  0  0  0  0  0  0  0  0  0  0  0
    3.0327   -4.9554   -1.2572 H   0  0  0  0  0  0  0  0  0  0  0  0
  1  3  1  0  0  0  0
  1  7  1  0  0  0  0
  1  2  2  0  0  0  0
 29 30  1  0  0  0  0
 30 38  1  0  0  0  0
 30 31  2  0  0  0  0
  8  9  1  0  0  0  0
  9 17  1  0  0  0  0
  9 10  2  0  0  0  0
 18 19  1  0  0  0  0
 19 28  1  0  0  0  0
 19 20  2  0  0  0  0
 29 32  1  0  0  0  0
  8 11  1  0  0  0  0
 38 39  1  0  0  0  0
 18 21  1  0  0  0  0
 21 22  1  0  0  0  0
 28 29  1  0  0  0  0
  7  8  1  0  0  0  0
 17 18  1  0  0  0  0
  3  4  1  0  0  0  0
  3  5  1  0  0  0  0
  3  6  1  0  0  0  0
 32 35  1  0  0  0  0
 32 36  1  0  0  0  0
 32 37  1  0  0  0  0
 11 14  1  0  0  0  0
 11 15  1  0  0  0  0
 11 16  1  0  0  0  0
 39 41  1  0  0  0  0
 39 42  1  0  0  0  0
 39 43  1  0  0  0  0
 21 25  1  0  0  0  0
 21 26  1  0  0  0  0
 29 34  1  0  0  0  0
  8 13  1  0  0  0  0
 18 24  1  0  0  0  0
 38 40  1  0  0  0  0
  7 12  1  0  0  0  0
 28 33  1  0  0  0  0
 17 23  1  0  0  0  0
 22 27  1  0  0  0  0
M  END
$$$$

  -OEChem-05262214473D

 43 42  0     1  0  0  0  0  0999 V2000
    0.7424   -1.0926    4.5665 C   0  0  0  0  0  0  0  0  0  0  0  0
    0.1409   -0.5364    5.4779 O   0  0  0  0  0  0  0  0  0  0  0  0
    1.7940   -2.1023    4.8871 C   0  0  0  0  0  0  0  0  0  0  0  0
    2.7935   -1.6502    4.9904 H   0  0  0  0  0  0  0  0  0  0  0  0
    1.6064   -2.6156    5.8438 H   0  0  0  0  0  0  0  0  0  0  0  0
    1.9156   -2.9078    4.1453 H   0  0  0  0  0  0  0  0  0  0  0  0
    0.5488   -0.8838    3.2109 N   0  0  0  0  0  0  0  0  0  0  0  0
   -0.4159    0.0446    2.6829 C   0  0  2  0  0  0  0  0  0  0  0  0
   -0.7551   -0.3867    1.2623 C   0  0  0  0  0  0  0  0  0  0  0  0
   -0.0106   -1.0851    0.5774 O   0  0  0  0  0  0  0  0  0  0  0  0
    0.1168    1.4689    2.7060 C   0  0  0  0  0  0  0  0  0  0  0  0
    1.1183   -1.4145    2.5542 H   0  0  0  0  0  0  0  0  0  0  0  0
   -1.3088   -0.0350    3.3125 H   0  0  0  0  0  0  0  0  0  0  0  0
    1.0116    1.5681    2.0808 H   0  0  0  0  0  0  0  0  0  0  0  0
   -0.6289    2.1775    2.3307 H   0  0  0  0  0  0  0  0  0  0  0  0
    0.3882    1.7670    3.7245 H   0  0  0  0  0  0  0  0  0  0  0  0
   -1.9689    0.1350    0.8298 N   0  0  0  0  0  0  0  0  0  0  0  0
   -2.5039   -0.1183   -0.4830 C   0  0  2  0  0  0  0  0  0  0  0  0
   -1.7398   -1.2891   -1.0917 C   0  0  0  0  0  0  0  0  0  0  0  0
   -0.8679   -1.1480   -1.9467 O   0  0  0  0  0  0  0  0  0  0  0  0
   -2.4434    1.1237   -1.3664 C   0  0  0  0  0  0  0  0  0  0  0  0
   -1.0899    1.4739   -1.6322 O   0  0  0  0  0  0  0  0  0  0  0  0
   -2.5276    0.6894    1.4750 H   0  0  0  0  0  0  0  0  0  0  0  0
   -3.5492   -0.4144   -0.3381 H   0  0  0  0  0  0  0  0  0  0  0  0
   -2.9253    1.9771   -0.8786 H   0  0  0  0  0  0  0  0  0  0  0  0
   -2.9416    0.9395   -2.3242 H   0  0  0  0  0  0  0  0  0  0  0  0
   -0.6899    0.7148   -2.0854 H   0  0  0  0  0  0  0  0  0  0  0  0
   -2.1164   -2.5037   -0.5363 N   0  0  0  0  0  0  0  0  0  0  0  0
   -1.5170   -3.7600   -0.9224 C   0  0  2  0  0  0  0  0  0  0  0  0
   -0.0530   -3.5007   -1.2526 C   0  0  0  0  0  0  0  0  0  0  0  0
    0.3767   -2.3943   -1.5725 O   0  0  0  0  0  0  0  0  0  0  0  0
   -2.2408   -4.3769   -2.1090 C   0  0  0  0  0  0  0  0  0  0  0  0
   -2.8200   -2.5211    0.1961 H   0  0  0  0  0  0  0  0  0  0  0  0
   -1.5839   -4.4229   -0.0528 H   0  0  0  0  0  0  0  0  0  0  0  0
   -2.1845   -3.7269   -2.9899 H   0  0  0  0  0  0  0  0  0  0  0  0
   -1.8031   -5.3427   -2.3824 H   0  0  0  0  0  0  0  0  0  0  0  0
   -3.3002   -4.5352   -1.8800 H   0  0  0  0  0  0  0  0  0  0  0  0
    0.7092   -4.6588   -1.1900 N   0  0  0  0  0  0  0  0  0  0  0  0
    2.1253   -4.6764   -1.4733 C   0  0  0  0  0  0  0  0  0  0  0  0
    0.2735   -5.5285   -0.8976 H   0  0  0  0  0  0  0  0  0  0  0  0
    2.2843   -4.9132   -2.5357 H   0  0  0  0  0  0  0  0  0  0  0  0
    2.5563   -3.6895   -1.2492 H   0  0  0  0  0  0  0  0  0  0  0  0
    2.6142   -5.4400   -0.8504 H   0  0  0  0  0  0  0  0  0  0  0  0
  1  3  1  0  0  0  0
  1  7  1  0  0  0  0
  1  2  2  0  0  0  0
 29 30  1  0  0  0  0
 30 38  1  0  0  0  0
 30 31  2  0  0  0  0
  8  9  1  0  0  0  0
  9 17  1  0  0  0  0
  9 10  2  0  0  0  0
 18 19  1  0  0  0  0
 19 28  1  0  0  0  0
 19 20  2  0  0  0  0
 29 32  1  0  0  0  0
  8 11  1  0  0  0  0
 38 39  1  0  0  0  0
 18 21  1  0  0  0  0
 21 22  1  0  0  0  0
 28 29  1  0  0  0  0
  7  8  1  0  0  0  0
 17 18  1  0  0  0  0
  3  4  1  0  0  0  0
  3  5  1  0  0  0  0
  3  6  1  0  0  0  0
 32 35  1  0  0  0  0
 32 36  1  0  0  0  0
 32 37  1  0  0  0  0
 11 14  1  0  0  0  0
 11 15  1  0  0  0  0
 11 16  1  0  0  0  0
 39 41  1  0  0  0  0
 39 42  1  0  0  0  0
 39 43  1  0  0  0  0
 21 25  1  0  0  0  0
 21 26  1  0  0  0  0
 29 34  1  0  0  0  0
  8 13  1  0  0  0  0
 18 24  1  0  0  0  0
 38 40  1  0  0  0  0
  7 12  1  0  0  0  0
 28 33  1  0  0  0  0
 17 23  1  0  0  0  0
 22 27  1  0  0  0  0
M  END
$$$$

  -OEChem-05262214473D

 43 42  0     1  0  0  0  0  0999 V2000
    0.7424   -1.0926    4.5665 C   0  0  0  0  0  0  0  0  0  0  0  0
    0.1409   -0.5364    5.4779 O   0  0  0  0  0  0  0  0  0  0  0  0
    1.7940   -2.1023    4.8871 C   0  0  0  0  0  0  0  0  0  0  0  0
    2.7935   -1.6502    4.9904 H   0  0  0  0  0  0  0  0  0  0  0  0
    1.6064   -2.6156    5.8438 H   0  0  0  0  0  0  0  0  0  0  0  0
    1.9156   -2.9078    4.1453 H   0  0  0  0  0  0  0  0  0  0  0  0
    0.5488   -0.8838    3.2109 N   0  0  0  0  0  0  0  0  0  0  0  0
   -0.4159    0.0446    2.6829 C   0  0  2  0  0  0  0  0  0  0  0  0
   -0.7551   -0.3867    1.2623 C   0  0  0  0  0  0  0  0  0  0  0  0
   -0.0106   -1.0851    0.5774 O   0  0  0  0  0  0  0  0  0  0  0  0
    0.1168    1.4689    2.7060 C   0  0  0  0  0  0  0  0  0  0  0  0
    1.1183   -1.4145    2.5542 H   0  0  0  0  0  0  0  0  0  0  0  0
   -1.3088   -0.0350    3.3125 H   0  0  0  0  0  0  0  0  0  0  0  0
    1.0116    1.5681    2.0808 H   0  0  0  0  0  0  0  0  0  0  0  0
   -0.6289    2.1775    2.3307 H   0  0  0  0  0  0  0  0  0  0  0  0
    0.3882    1.7670    3.7245 H   0  0  0  0  0  0  0  0  0  0  0  0
   -1.9689    0.1350    0.8298 N   0  0  0  0  0  0  0  0  0  0  0  0
   -2.5039   -0.1183   -0.4830 C   0  0  2  0  0  0  0  0  0  0  0  0
   -1.7398   -1.2891   -1.0917 C   0  0  0  0  0  0  0  0  0  0  0  0
   -0.7017   -1.1495   -1.7351 O   0  0  0  0  0  0  0  0  0  0  0  0
   -2.4434    1.1237   -1.3664 C   0  0  0  0  0  0  0  0  0  0  0  0
   -1.0899    1.4739   -1.6322 O   0  0  0  0  0  0  0  0  0  0  0  0
   -2.5276    0.6894    1.4750 H   0  0  0  0  0  0  0  0  0  0  0  0
   -3.5492   -0.4144   -0.3381 H   0  0  0  0  0  0  0  0  0  0  0  0
   -2.9253    1.9771   -0.8786 H   0  0  0  0  0  0  0  0  0  0  0  0
   -2.9416    0.9395   -2.3242 H   0  0  0  0  0  0  0  0  0  0  0  0
   -0.6899    0.7148   -2.0854 H   0  0  0  0  0  0  0  0  0  0  0  0
   -2.3305   -2.5091   -0.7947 N   0  0  0  0  0  0  0  0  0  0  0  0
   -1.7803   -3.7715   -1.2307 C   0  0  2  0  0  0  0  0  0  0  0  0
   -0.2624   -3.6469   -1.2342 C   0  0  0  0  0  0  0  0  0  0  0  0
    0.3218   -2.5679   -1.3074 O   0  0  0  0  0  0  0  0  0  0  0  0
   -2.2974   -4.1540   -2.6088 C   0  0  0  0  0  0  0  0  0  0  0  0
   -3.1682   -2.5317   -0.2207 H   0  0  0  0  0  0  0  0  0  0  0  0
   -2.0841   -4.5211   -0.4919 H   0  0  0  0  0  0  0  0  0  0  0  0
   -2.0029   -3.4147   -3.3625 H   0  0  0  0  0  0  0  0  0  0  0  0
   -1.9018   -5.1247   -2.9257 H   0  0  0  0  0  0  0  0  0  0  0  0
   -3.3911   -4.2141   -2.6118 H   0  0  0  0  0  0  0  0  0  0  0  0
    0.3630   -4.8851   -1.1895 N   0  0  0  0  0  0  0  0  0  0  0  0
    1.7996   -5.0335   -1.1953 C   0  0  0  0  0  0  0  0  0  0  0  0
   -0.2002   -5.7268   -1.1109 H   0  0  0  0  0  0  0  0  0  0  0  0
    2.1516   -5.1588   -2.2299 H   0  0  0  0  0  0  0  0  0  0  0  0
    2.2625   -4.1373   -0.7567 H   0  0  0  0  0  0  0  0  0  0  0  0
    2.0791   -5.9176   -0.6035 H   0  0  0  0  0  0  0  0  0  0  0  0
  1  3  1  0  0  0  0
  1  7  1  0  0  0  0
  1  2  2  0  0  0  0
 29 30  1  0  0  0  0
 30 38  1  0  0  0  0
 30 31  2  0  0  0  0
  8  9  1  0  0  0  0
  9 17  1  0  0  0  0
  9 10  2  0  0  0  0
 18 19  1  0  0  0  0
 19 28  1  0  0  0  0
 19 20  2  0  0  0  0
 29 32  1  0  0  0  0
  8 11  1  0  0  0  0
 38 39  1  0  0  0  0
 18 21  1  0  0  0  0
 21 22  1  0  0  0  0
 28 29  1  0  0  0  0
  7  8  1  0  0  0  0
 17 18  1  0  0  0  0
  3  4  1  0  0  0  0
  3  5  1  0  0  0  0
  3  6  1  0  0  0  0
 32 35  1  0  0  0  0
 32 36  1  0  0  0  0
 32 37  1  0  0  0  0
 11 14  1  0  0  0  0
 11 15  1  0  0  0  0
 11 16  1  0  0  0  0
 39 41  1  0  0  0  0
 39 42  1  0  0  0  0
 39 43  1  0  0  0  0
 21 25  1  0  0  0  0
 21 26  1  0  0  0  0
 29 34  1  0  0  0  0
  8 13  1  0  0  0  0
 18 24  1  0  0  0  0
 38 40  1  0  0  0  0
  7 12  1  0  0  0  0
 28 33  1  0  0  0  0
 17 23  1  0  0  0  0
 22 27  1  0  0  0  0
M  END
$$$$

  -OEChem-05262214473D

 43 42  0     1  0  0  0  0  0999 V2000
    0.7424   -1.0926    4.5665 C   0  0  0  0  0  0  0  0  0  0  0  0
    0.1409   -0.5364    5.4779 O   0  0  0  0  0  0  0  0  0  0  0  0
    1.7940   -2.1023    4.8871 C   0  0  0  0  0  0  0  0  0  0  0  0
    2.7935   -1.6502    4.9904 H   0  0  0  0  0  0  0  0  0  0  0  0
    1.6064   -2.6156    5.8438 H   0  0  0  0  0  0  0  0  0  0  0  0
    1.9156   -2.9078    4.1453 H   0  0  0  0  0  0  0  0  0  0  0  0
    0.5488   -0.8838    3.2109 N   0  0  0  0  0  0  0  0  0  0  0  0
   -0.4159    0.0446    2.6829 C   0  0  2  0  0  0  0  0  0  0  0  0
   -0.7551   -0.3867    1.2623 C   0  0  0  0  0  0  0  0  0  0  0  0
   -0.0106   -1.0851    0.5774 O   0  0  0  0  0  0  0  0  0  0  0  0
    0.1168    1.4689    2.7060 C   0  0  0  0  0  0  0  0  0  0  0  0
    1.1183   -1.4145    2.5542 H   0  0  0  0  0  0  0  0  0  0  0  0
   -1.3088   -0.0350    3.3125 H   0  0  0  0  0  0  0  0  0  0  0  0
    1.0116    1.5681    2.0808 H   0  0  0  0  0  0  0  0  0  0  0  0
   -0.6289    2.1775    2.3307 H   0  0  0  0  0  0  0  0  0  0  0  0
    0.3882    1.7670    3.7245 H   0  0  0  0  0  0  0  0  0  0  0  0
   -1.9689    0.1350    0.8298 N   0  0  0  0  0  0  0  0  0  0  0  0
   -2.5039   -0.1183   -0.4830 C   0  0  2  0  0  0  0  0  0  0  0  0
   -1.7398   -1.2891   -1.0917 C   0  0  0  0  0  0  0  0  0  0  0  0
   -0.5833   -1.1956   -1.4979 O   0  0  0  0  0  0  0  0  0  0  0  0
   -2.4434    1.1237   -1.3664 C   0  0  0  0  0  0  0  0  0  0  0  0
   -1.0899    1.4739   -1.6322 O   0  0  0  0  0  0  0  0  0  0  0  0
   -2.5276    0.6894    1.4750 H   0  0  0  0  0  0  0  0  0  0  0  0
   -3.5492   -0.4144   -0.3381 H   0  0  0  0  0  0  0  0  0  0  0  0
   -2.9253    1.9771   -0.8786 H   0  0  0  0  0  0  0  0  0  0  0  0
   -2.9416    0.9395   -2.3242 H   0  0  0  0  0  0  0  0  0  0  0  0
   -0.6899    0.7148   -2.0854 H   0  0  0  0  0  0  0  0  0  0  0  0
   -2.4865   -2.4587   -1.0875 N   0  0  0  0  0  0  0  0  0  0  0  0
   -1.9746   -3.7155   -1.5824 C   0  0  2  0  0  0  0  0  0  0  0  0
   -0.4835   -3.7689   -1.2771 C   0  0  0  0  0  0  0  0  0  0  0  0
    0.1982   -2.7643   -1.0848 O   0  0  0  0  0  0  0  0  0  0  0  0
   -2.2298   -3.8681   -3.0739 C   0  0  0  0  0  0  0  0  0  0  0  0
   -3.4229   -2.4519   -0.6940 H   0  0  0  0  0  0  0  0  0  0  0  0
   -2.4901   -4.5073   -1.0281 H   0  0  0  0  0  0  0  0  0  0  0  0
   -1.7212   -3.0835   -3.6458 H   0  0  0  0  0  0  0  0  0  0  0  0
   -1.8667   -4.8334   -3.4418 H   0  0  0  0  0  0  0  0  0  0  0  0
   -3.3004   -3.7996   -3.2951 H   0  0  0  0  0  0  0  0  0  0  0  0
    0.0050   -5.0679   -1.2871 N   0  0  0  0  0  0  0  0  0  0  0  0
    1.3928   -5.3809   -1.0379 C   0  0  0  0  0  0  0  0  0  0  0  0
   -0.6358   -5.8417   -1.4368 H   0  0  0  0  0  0  0  0  0  0  0  0
    1.9372   -5.4220   -1.9929 H   0  0  0  0  0  0  0  0  0  0  0  0
    1.8346   -4.6034   -0.3974 H   0  0  0  0  0  0  0  0  0  0  0  0
    1.4638   -6.3557   -0.5333 H   0  0  0  0  0  0  0  0  0  0  0  0
  1  3  1  0  0  0  0
  1  7  1  0  0  0  0
  1  2  2  0  0  0  0
 29 30  1  0  0  0  0
 30 38  1  0  0  0  0
 30 31  2  0  0  0  0
  8  9  1  0  0  0  0
  9 17  1  0  0  0  0
  9 10  2  0  0  0  0
 18 19  1  0  0  0  0
 19 28  1  0  0  0  0
 19 20  2  0  0  0  0
 29 32  1  0  0  0  0
  8 11  1  0  0  0  0
 38 39  1  0  0  0  0
 18 21  1  0  0  0  0
 21 22  1  0  0  0  0
 28 29  1  0  0  0  0
  7  8  1  0  0  0  0
 17 18  1  0  0  0  0
  3  4  1  0  0  0  0
  3  5  1  0  0  0  0
  3  6  1  0  0  0  0
 32 35  1  0  0  0  0
 32 36  1  0  0  0  0
 32 37  1  0  0  0  0
 11 14  1  0  0  0  0
 11 15  1  0  0  0  0
 11 16  1  0  0  0  0
 39 41  1  0  0  0  0
 39 42  1  0  0  0  0
 39 43  1  0  0  0  0
 21 25  1  0  0  0  0
 21 26  1  0  0  0  0
 29 34  1  0  0  0  0
  8 13  1  0  0  0  0
 18 24  1  0  0  0  0
 38 40  1  0  0  0  0
  7 12  1  0  0  0  0
 28 33  1  0  0  0  0
 17 23  1  0  0  0  0
 22 27  1  0  0  0  0
M  END
$$$$

  -OEChem-05262214473D

 43 42  0     1  0  0  0  0  0999 V2000
    0.7424   -1.0926    4.5665 C   0  0  0  0  0  0  0  0  0  0  0  0
    0.1409   -0.5364    5.4779 O   0  0  0  0  0  0  0  0  0  0  0  0
    1.7940   -2.1023    4.8871 C   0  0  0  0  0  0  0  0  0  0  0  0
    2.7935   -1.6502    4.9904 H   0  0  0  0  0  0  0  0  0  0  0  0
    1.6064   -2.6156    5.8438 H   0  0  0  0  0  0  0  0  0  0  0  0
    1.9156   -2.9078    4.1453 H   0  0  0  0  0  0  0  0  0  0  0  0
    0.5488   -0.8838    3.2109 N   0  0  0  0  0  0  0  0  0  0  0  0
   -0.4159    0.0446    2.6829 C   0  0  2  0  0  0  0  0  0  0  0  0
   -0.7551   -0.3867    1.2623 C   0  0  0  0  0  0  0  0  0  0  0  0
   -0.0106   -1.0851    0.5774 O   0  0  0  0  0  0  0  0  0  0  0  0
    0.1168    1.4689    2.7060 C   0  0  0  0  0  0  0  0  0  0  0  0
    1.1183   -1.4145    2.5542 H   0  0  0  0  0  0  0  0  0  0  0  0
   -1.3088   -0.0350    3.3125 H   0  0  0  0  0  0  0  0  0  0  0  0
    1.0116    1.5681    2.0808 H   0  0  0  0  0  0  0  0  0  0  0  0
   -0.6289    2.1775    2.3307 H   0  0  0  0  0  0  0  0  0  0  0  0
    0.3882    1.7670    3.7245 H   0  0  0  0  0  0  0  0  0  0  0  0
   -1.9689    0.1350    0.8298 N   0  0  0  0  0  0  0  0  0  0  0  0
   -2.5039   -0.1183   -0.4830 C   0  0  2  0  0  0  0  0  0  0  0  0
   -1.7398   -1.2891   -1.0917 C   0  0  0  0  0  0  0  0  0  0  0  0
   -0.5209   -1.2831   -1.2512 O   0  0  0  0  0  0  0  0  0  0  0  0
   -2.4434    1.1237   -1.3664 C   0  0  0  0  0  0  0  0  0  0  0  0
   -1.0899    1.4739   -1.6322 O   0  0  0  0  0  0  0  0  0  0  0  0
   -2.5276    0.6894    1.4750 H   0  0  0  0  0  0  0  0  0  0  0  0
   -3.5492   -0.4144   -0.3381 H   0  0  0  0  0  0  0  0  0  0  0  0
   -2.9253    1.9771   -0.8786 H   0  0  0  0  0  0  0  0  0  0  0  0
   -2.9416    0.9395   -2.3242 H   0  0  0  0  0  0  0  0  0  0  0  0
   -0.6899    0.7148   -2.0854 H   0  0  0  0  0  0  0  0  0  0  0  0
   -2.5738   -2.3559   -1.3949 N   0  0  0  0  0  0  0  0  0  0  0  0
   -2.0866   -3.5957   -1.9535 C   0  0  2  0  0  0  0  0  0  0  0  0
   -0.7012   -3.8584   -1.3782 C   0  0  0  0  0  0  0  0  0  0  0  0
    0.0143   -2.9701   -0.9198 O   0  0  0  0  0  0  0  0  0  0  0  0
   -2.0425   -3.5386   -3.4726 C   0  0  0  0  0  0  0  0  0  0  0  0
   -3.5666   -2.2871   -1.1913 H   0  0  0  0  0  0  0  0  0  0  0  0
   -2.7744   -4.3825   -1.6249 H   0  0  0  0  0  0  0  0  0  0  0  0
   -1.3585   -2.7560   -3.8206 H   0  0  0  0  0  0  0  0  0  0  0  0
   -1.7001   -4.4888   -3.8956 H   0  0  0  0  0  0  0  0  0  0  0  0
   -3.0341   -3.3201   -3.8833 H   0  0  0  0  0  0  0  0  0  0  0  0
   -0.3402   -5.1949   -1.4762 N   0  0  0  0  0  0  0  0  0  0  0  0
    0.9327   -5.6948   -1.0117 C   0  0  0  0  0  0  0  0  0  0  0  0
   -1.0037   -5.8654   -1.8531 H   0  0  0  0  0  0  0  0  0  0  0  0
    1.6558   -5.6848   -1.8406 H   0  0  0  0  0  0  0  0  0  0  0  0
    1.3017   -5.0560   -0.1958 H   0  0  0  0  0  0  0  0  0  0  0  0
    0.8103   -6.7244   -0.6445 H   0  0  0  0  0  0  0  0  0  0  0  0
  1  3  1  0  0  0  0
  1  7  1  0  0  0  0
  1  2  2  0  0  0  0
 29 30  1  0  0  0  0
 30 38  1  0  0  0  0
 30 31  2  0  0  0  0
  8  9  1  0  0  0  0
  9 17  1  0  0  0  0
  9 10  2  0  0  0  0
 18 19  1  0  0  0  0
 19 28  1  0  0  0  0
 19 20  2  0  0  0  0
 29 32  1  0  0  0  0
  8 11  1  0  0  0  0
 38 39  1  0  0  0  0
 18 21  1  0  0  0  0
 21 22  1  0  0  0  0
 28 29  1  0  0  0  0
  7  8  1  0  0  0  0
 17 18  1  0  0  0  0
  3  4  1  0  0  0  0
  3  5  1  0  0  0  0
  3  6  1  0  0  0  0
 32 35  1  0  0  0  0
 32 36  1  0  0  0  0
 32 37  1  0  0  0  0
 11 14  1  0  0  0  0
 11 15  1  0  0  0  0
 11 16  1  0  0  0  0
 39 41  1  0  0  0  0
 39 42  1  0  0  0  0
 39 43  1  0  0  0  0
 21 25  1  0  0  0  0
 21 26  1  0  0  0  0
 29 34  1  0  0  0  0
  8 13  1  0  0  0  0
 18 24  1  0  0  0  0
 38 40  1  0  0  0  0
  7 12  1  0  0  0  0
 28 33  1  0  0  0  0
 17 23  1  0  0  0  0
 22 27  1  0  0  0  0
M  END
$$$$

  -OEChem-05262214473D

 43 42  0     1  0  0  0  0  0999 V2000
    0.7424   -1.0926    4.5665 C   0  0  0  0  0  0  0  0  0  0  0  0
    0.1409   -0.5364    5.4779 O   0  0  0  0  0  0  0  0  0  0  0  0
    1.7940   -2.1023    4.8871 C   0  0  0  0  0  0  0  0  0  0  0  0
    2.7935   -1.6502    4.9904 H   0  0  0  0  0  0  0  0  0  0  0  0
    1.6064   -2.6156    5.8438 H   0  0  0  0  0  0  0  0  0  0  0  0
    1.9156   -2.9078    4.1453 H   0  0  0  0  0  0  0  0  0  0  0  0
    0.5488   -0.8838    3.2109 N   0  0  0  0  0  0  0  0  0  0  0  0
   -0.4159    0.0446    2.6829 C   0  0  2  0  0  0  0  0  0  0  0  0
   -0.7551   -0.3867    1.2623 C   0  0  0  0  0  0  0  0  0  0  0  0
   -0.0106   -1.0851    0.5774 O   0  0  0  0  0  0  0  0  0  0  0  0
    0.1168    1.4689    2.7060 C   0  0  0  0  0  0  0  0  0  0  0  0
    1.1183   -1.4145    2.5542 H   0  0  0  0  0  0  0  0  0  0  0  0
   -1.3088   -0.0350    3.3125 H   0  0  0  0  0  0  0  0  0  0  0  0
    1.0116    1.5681    2.0808 H   0  0  0  0  0  0  0  0  0  0  0  0
   -0.6289    2.1775    2.3307 H   0  0  0  0  0  0  0  0  0  0  0  0
    0.3882    1.7670    3.7245 H   0  0  0  0  0  0  0  0  0  0  0  0
   -1.9689    0.1350    0.8298 N   0  0  0  0  0  0  0  0  0  0  0  0
   -2.5039   -0.1183   -0.4830 C   0  0  2  0  0  0  0  0  0  0  0  0
   -1.7398   -1.2891   -1.0917 C   0  0  0  0  0  0  0  0  0  0  0  0
   -0.5187   -1.4060   -1.0119 O   0  0  0  0  0  0  0  0  0  0  0  0
   -2.4434    1.1237   -1.3664 C   0  0  0  0  0  0  0  0  0  0  0  0
   -1.0899    1.4739   -1.6322 O   0  0  0  0  0  0  0  0  0  0  0  0
   -2.5276    0.6894    1.4750 H   0  0  0  0  0  0  0  0  0  0  0  0
   -3.5492   -0.4144   -0.3381 H   0  0  0  0  0  0  0  0  0  0  0  0
   -2.9253    1.9771   -0.8786 H   0  0  0  0  0  0  0  0  0  0  0  0
   -2.9416    0.9395   -2.3242 H   0  0  0  0  0  0  0  0  0  0  0  0
   -0.6899    0.7148   -2.0854 H   0  0  0  0  0  0  0  0  0  0  0  0
   -2.5865   -2.2077   -1.6958 N   0  0  0  0  0  0  0  0  0  0  0  0
   -2.1087   -3.4203   -2.3186 C   0  0  2  0  0  0  0  0  0  0  0  0
   -0.9005   -3.9092   -1.5308 C   0  0  0  0  0  0  0  0  0  0  0  0
   -0.2174   -3.1713   -0.8237 O   0  0  0  0  0  0  0  0  0  0  0  0
   -1.7483   -3.1879   -3.7777 C   0  0  0  0  0  0  0  0  0  0  0  0
   -3.5895   -2.0485   -1.6789 H   0  0  0  0  0  0  0  0  0  0  0  0
   -2.9174   -4.1552   -2.2417 H   0  0  0  0  0  0  0  0  0  0  0  0
   -0.9397   -2.4544   -3.8748 H   0  0  0  0  0  0  0  0  0  0  0  0
   -1.4135   -4.1143   -4.2561 H   0  0  0  0  0  0  0  0  0  0  0  0
   -2.6105   -2.8080   -4.3364 H   0  0  0  0  0  0  0  0  0  0  0  0
   -0.6492   -5.2574   -1.7440 N   0  0  0  0  0  0  0  0  0  0  0  0
    0.4507   -5.9538   -1.1186 C   0  0  0  0  0  0  0  0  0  0  0  0
   -1.2788   -5.7962   -2.3314 H   0  0  0  0  0  0  0  0  0  0  0  0
    1.3266   -5.9293   -1.7836 H   0  0  0  0  0  0  0  0  0  0  0  0
    0.7002   -5.4642   -0.1657 H   0  0  0  0  0  0  0  0  0  0  0  0
    0.1630   -6.9986   -0.9297 H   0  0  0  0  0  0  0  0  0  0  0  0
  1  3  1  0  0  0  0
  1  7  1  0  0  0  0
  1  2  2  0  0  0  0
 29 30  1  0  0  0  0
 30 38  1  0  0  0  0
 30 31  2  0  0  0  0
  8  9  1  0  0  0  0
  9 17  1  0  0  0  0
  9 10  2  0  0  0  0
 18 19  1  0  0  0  0
 19 28  1  0  0  0  0
 19 20  2  0  0  0  0
 29 32  1  0  0  0  0
  8 11  1  0  0  0  0
 38 39  1  0  0  0  0
 18 21  1  0  0  0  0
 21 22  1  0  0  0  0
 28 29  1  0  0  0  0
  7  8  1  0  0  0  0
 17 18  1  0  0  0  0
  3  4  1  0  0  0  0
  3  5  1  0  0  0  0
  3  6  1  0  0  0  0
 32 35  1  0  0  0  0
 32 36  1  0  0  0  0
 32 37  1  0  0  0  0
 11 14  1  0  0  0  0
 11 15  1  0  0  0  0
 11 16  1  0  0  0  0
 39 41  1  0  0  0  0
 39 42  1  0  0  0  0
 39 43  1  0  0  0  0
 21 25  1  0  0  0  0
 21 26  1  0  0  0  0
 29 34  1  0  0  0  0
  8 13  1  0  0  0  0
 18 24  1  0  0  0  0
 38 40  1  0  0  0  0
  7 12  1  0  0  0  0
 28 33  1  0  0  0  0
 17 23  1  0  0  0  0
 22 27  1  0  0  0  0
M  END
$$$$

  -OEChem-05262214473D

 43 42  0     1  0  0  0  0  0999 V2000
    0.7424   -1.0926    4.5665 C   0  0  0  0  0  0  0  0  0  0  0  0
    0.1409   -0.5364    5.4779 O   0  0  0  0  0  0  0  0  0  0  0  0
    1.7940   -2.1023    4.8871 C   0  0  0  0  0  0  0  0  0  0  0  0
    2.7935   -1.6502    4.9904 H   0  0  0  0  0  0  0  0  0  0  0  0
    1.6064   -2.6156    5.8438 H   0  0  0  0  0  0  0  0  0  0  0  0
    1.9156   -2.9078    4.1453 H   0  0  0  0  0  0  0  0  0  0  0  0
    0.5488   -0.8838    3.2109 N   0  0  0  0  0  0  0  0  0  0  0  0
   -0.4159    0.0446    2.6829 C   0  0  2  0  0  0  0  0  0  0  0  0
   -0.7551   -0.3867    1.2623 C   0  0  0  0  0  0  0  0  0  0  0  0
   -0.0106   -1.0851    0.5774 O   0  0  0  0  0  0  0  0  0  0  0  0
    0.1168    1.4689    2.7060 C   0  0  0  0  0  0  0  0  0  0  0  0
    1.1183   -1.4145    2.5542 H   0  0  0  0  0  0  0  0  0  0  0  0
   -1.3088   -0.0350    3.3125 H   0  0  0  0  0  0  0  0  0  0  0  0
    1.0116    1.5681    2.0808 H   0  0  0  0  0  0  0  0  0  0  0  0
   -0.6289    2.1775    2.3307 H   0  0  0  0  0  0  0  0  0  0  0  0
    0.3882    1.7670    3.7245 H   0  0  0  0  0  0  0  0  0  0  0  0
   -1.9689    0.1350    0.8298 N   0  0  0  0  0  0  0  0  0  0  0  0
   -2.5039   -0.1183   -0.4830 C   0  0  2  0  0  0  0  0  0  0  0  0
   -1.7398   -1.2891   -1.0917 C   0  0  0  0  0  0  0  0  0  0  0  0
   -0.5768   -1.5561   -0.7963 O   0  0  0  0  0  0  0  0  0  0  0  0
   -2.4434    1.1237   -1.3664 C   0  0  0  0  0  0  0  0  0  0  0  0
   -1.0899    1.4739   -1.6322 O   0  0  0  0  0  0  0  0  0  0  0  0
   -2.5276    0.6894    1.4750 H   0  0  0  0  0  0  0  0  0  0  0  0
   -3.5492   -0.4144   -0.3381 H   0  0  0  0  0  0  0  0  0  0  0  0
   -2.9253    1.9771   -0.8786 H   0  0  0  0  0  0  0  0  0  0  0  0
   -2.9416    0.9395   -2.3242 H   0  0  0  0  0  0  0  0  0  0  0  0
   -0.6899    0.7148   -2.0854 H   0  0  0  0  0  0  0  0  0  0  0  0
   -2.5236   -2.0243   -1.9697 N   0  0  0  0  0  0  0  0  0  0  0  0
   -2.0393   -3.2012   -2.6530 C   0  0  2  0  0  0  0  0  0  0  0  0
   -1.0680   -3.9179   -1.7243 C   0  0  0  0  0  0  0  0  0  0  0  0
   -0.4811   -3.3542   -0.8030 O   0  0  0  0  0  0  0  0  0  0  0  0
   -1.3673   -2.8401   -3.9685 C   0  0  0  0  0  0  0  0  0  0  0  0
   -3.4901   -1.7525   -2.1235 H   0  0  0  0  0  0  0  0  0  0  0  0
   -2.9095   -3.8409   -2.8364 H   0  0  0  0  0  0  0  0  0  0  0  0
   -0.4931   -2.1993   -3.8049 H   0  0  0  0  0  0  0  0  0  0  0  0
   -1.0262   -3.7354   -4.4987 H   0  0  0  0  0  0  0  0  0  0  0  0
   -2.0584   -2.2984   -4.6234 H   0  0  0  0  0  0  0  0  0  0  0  0
   -0.9009   -5.2510   -2.0722 N   0  0  0  0  0  0  0  0  0  0  0  0
   -0.0204   -6.1404   -1.3512 C   0  0  0  0  0  0  0  0  0  0  0  0
   -1.4423   -5.6390   -2.8390 H   0  0  0  0  0  0  0  0  0  0  0  0
    0.9720   -6.1389   -1.8256 H   0  0  0  0  0  0  0  0  0  0  0  0
    0.0710   -5.8003   -0.3091 H   0  0  0  0  0  0  0  0  0  0  0  0
   -0.4338   -7.1596   -1.3693 H   0  0  0  0  0  0  0  0  0  0  0  0
  1  3  1  0  0  0  0
  1  7  1  0  0  0  0
  1  2  2  0  0  0  0
 29 30  1  0  0  0  0
 30 38  1  0  0  0  0
 30 31  2  0  0  0  0
  8  9  1  0  0  0  0
  9 17  1  0  0  0  0
  9 10  2  0  0  0  0
 18 19  1  0  0  0  0
 19 28  1  0  0  0  0
 19 20  2  0  0  0  0
 29 32  1  0  0  0  0
  8 11  1  0  0  0  0
 38 39  1  0  0  0  0
 18 21  1  0  0  0  0
 21 22  1  0  0  0  0
 28 29  1  0  0  0  0
  7  8  1  0  0  0  0
 17 18  1  0  0  0  0
  3  4  1  0  0  0  0
  3  5  1  0  0  0  0
  3  6  1  0  0  0  0
 32 35  1  0  0  0  0
 32 36  1  0  0  0  0
 32 37  1  0  0  0  0
 11 14  1  0  0  0  0
 11 15  1  0  0  0  0
 11 16  1  0  0  0  0
 39 41  1  0  0  0  0
 39 42  1  0  0  0  0
 39 43  1  0  0  0  0
 21 25  1  0  0  0  0
 21 26  1  0  0  0  0
 29 34  1  0  0  0  0
  8 13  1  0  0  0  0
 18 24  1  0  0  0  0
 38 40  1  0  0  0  0
  7 12  1  0  0  0  0
 28 33  1  0  0  0  0
 17 23  1  0  0  0  0
 22 27  1  0  0  0  0
M  END
$$$$

  -OEChem-05262214473D

 43 42  0     1  0  0  0  0  0999 V2000
    0.7424   -1.0926    4.5665 C   0  0  0  0  0  0  0  0  0  0  0  0
    0.1409   -0.5364    5.4779 O   0  0  0  0  0  0  0  0  0  0  0  0
    1.7940   -2.1023    4.8871 C   0  0  0  0  0  0  0  0  0  0  0  0
    2.7935   -1.6502    4.9904 H   0  0  0  0  0  0  0  0  0  0  0  0
    1.6064   -2.6156    5.8438 H   0  0  0  0  0  0  0  0  0  0  0  0
    1.9156   -2.9078    4.1453 H   0  0  0  0  0  0  0  0  0  0  0  0
    0.5488   -0.8838    3.2109 N   0  0  0  0  0  0  0  0  0  0  0  0
   -0.4159    0.0446    2.6829 C   0  0  2  0  0  0  0  0  0  0  0  0
   -0.7551   -0.3867    1.2623 C   0  0  0  0  0  0  0  0  0  0  0  0
   -0.0106   -1.0851    0.5774 O   0  0  0  0  0  0  0  0  0  0  0  0
    0.1168    1.4689    2.7060 C   0  0  0  0  0  0  0  0  0  0  0  0
    1.1183   -1.4145    2.5542 H   0  0  0  0  0  0  0  0  0  0  0  0
   -1.3088   -0.0350    3.3125 H   0  0  0  0  0  0  0  0  0  0  0  0
    1.0116    1.5681    2.0808 H   0  0  0  0  0  0  0  0  0  0  0  0
   -0.6289    2.1775    2.3307 H   0  0  0  0  0  0  0  0  0  0  0  0
    0.3882    1.7670    3.7245 H   0  0  0  0  0  0  0  0  0  0  0  0
   -1.9689    0.1350    0.8298 N   0  0  0  0  0  0  0  0  0  0  0  0
   -2.5039   -0.1183   -0.4830 C   0  0  2  0  0  0  0  0  0  0  0  0
   -1.7398   -1.2891   -1.0917 C   0  0  0  0  0  0  0  0  0  0  0  0
   -0.6913   -1.7230   -0.6190 O   0  0  0  0  0  0  0  0  0  0  0  0
   -2.4434    1.1237   -1.3664 C   0  0  0  0  0  0  0  0  0  0  0  0
   -1.0899    1.4739   -1.6322 O   0  0  0  0  0  0  0  0  0  0  0  0
   -2.5276    0.6894    1.4750 H   0  0  0  0  0  0  0  0  0  0  0  0
   -3.5492   -0.4144   -0.3381 H   0  0  0  0  0  0  0  0  0  0  0  0
   -2.9253    1.9771   -0.8786 H   0  0  0  0  0  0  0  0  0  0  0  0
   -2.9416    0.9395   -2.3242 H   0  0  0  0  0  0  0  0  0  0  0  0
   -0.6899    0.7148   -2.0854 H   0  0  0  0  0  0  0  0  0  0  0  0
   -2.3894   -1.8180   -2.1980 N   0  0  0  0  0  0  0  0  0  0  0  0
   -1.8832   -2.9534   -2.9337 C   0  0  2  0  0  0  0  0  0  0  0  0
   -1.1923   -3.8839   -1.9457 C   0  0  0  0  0  0  0  0  0  0  0  0
   -0.7588   -3.5063   -0.8592 O   0  0  0  0  0  0  0  0  0  0  0  0
   -0.9254   -2.5186   -4.0320 C   0  0  0  0  0  0  0  0  0  0  0  0
   -3.2752   -1.4192   -2.4948 H   0  0  0  0  0  0  0  0  0  0  0  0
   -2.7512   -3.4609   -3.3686 H   0  0  0  0  0  0  0  0  0  0  0  0
   -0.0494   -2.0082   -3.6155 H   0  0  0  0  0  0  0  0  0  0  0  0
   -0.5648   -3.3779   -4.6070 H   0  0  0  0  0  0  0  0  0  0  0  0
   -1.4154   -1.8260   -4.7248 H   0  0  0  0  0  0  0  0  0  0  0  0
   -1.0781   -5.1764   -2.4383 N   0  0  0  0  0  0  0  0  0  0  0  0
   -0.4486   -6.2418   -1.6937 C   0  0  0  0  0  0  0  0  0  0  0  0
   -1.4831   -5.4044   -3.3415 H   0  0  0  0  0  0  0  0  0  0  0  0
    0.6162   -6.2992   -1.9639 H   0  0  0  0  0  0  0  0  0  0  0  0
   -0.5430   -6.0414   -0.6162 H   0  0  0  0  0  0  0  0  0  0  0  0
   -0.9396   -7.1964   -1.9335 H   0  0  0  0  0  0  0  0  0  0  0  0
  1  3  1  0  0  0  0
  1  7  1  0  0  0  0
  1  2  2  0  0  0  0
 29 30  1  0  0  0  0
 30 38  1  0  0  0  0
 30 31  2  0  0  0  0
  8  9  1  0  0  0  0
  9 17  1  0  0  0  0
  9 10  2  0  0  0  0
 18 19  1  0  0  0  0
 19 28  1  0  0  0  0
 19 20  2  0  0  0  0
 29 32  1  0  0  0  0
  8 11  1  0  0  0  0
 38 39  1  0  0  0  0
 18 21  1  0  0  0  0
 21 22  1  0  0  0  0
 28 29  1  0  0  0  0
  7  8  1  0  0  0  0
 17 18  1  0  0  0  0
  3  4  1  0  0  0  0
  3  5  1  0  0  0  0
  3  6  1  0  0  0  0
 32 35  1  0  0  0  0
 32 36  1  0  0  0  0
 32 37  1  0  0  0  0
 11 14  1  0  0  0  0
 11 15  1  0  0  0  0
 11 16  1  0  0  0  0
 39 41  1  0  0  0  0
 39 42  1  0  0  0  0
 39 43  1  0  0  0  0
 21 25  1  0  0  0  0
 21 26  1  0  0  0  0
 29 34  1  0  0  0  0
  8 13  1  0  0  0  0
 18 24  1  0  0  0  0
 38 40  1  0  0  0  0
  7 12  1  0  0  0  0
 28 33  1  0  0  0  0
 17 23  1  0  0  0  0
 22 27  1  0  0  0  0
M  END
$$$$

  -OEChem-05262214473D

 43 42  0     1  0  0  0  0  0999 V2000
    0.7424   -1.0926    4.5665 C   0  0  0  0  0  0  0  0  0  0  0  0
    0.1409   -0.5364    5.4779 O   0  0  0  0  0  0  0  0  0  0  0  0
    1.7940   -2.1023    4.8871 C   0  0  0  0  0  0  0  0  0  0  0  0
    2.7935   -1.6502    4.9904 H   0  0  0  0  0  0  0  0  0  0  0  0
    1.6064   -2.6156    5.8438 H   0  0  0  0  0  0  0  0  0  0  0  0
    1.9156   -2.9078    4.1453 H   0  0  0  0  0  0  0  0  0  0  0  0
    0.5488   -0.8838    3.2109 N   0  0  0  0  0  0  0  0  0  0  0  0
   -0.4159    0.0446    2.6829 C   0  0  2  0  0  0  0  0  0  0  0  0
   -0.7551   -0.3867    1.2623 C   0  0  0  0  0  0  0  0  0  0  0  0
   -0.0106   -1.0851    0.5774 O   0  0  0  0  0  0  0  0  0  0  0  0
    0.1168    1.4689    2.7060 C   0  0  0  0  0  0  0  0  0  0  0  0
    1.1183   -1.4145    2.5542 H   0  0  0  0  0  0  0  0  0  0  0  0
   -1.3088   -0.0350    3.3125 H   0  0  0  0  0  0  0  0  0  0  0  0
    1.0116    1.5681    2.0808 H   0  0  0  0  0  0  0  0  0  0  0  0
   -0.6289    2.1775    2.3307 H   0  0  0  0  0  0  0  0  0  0  0  0
    0.3882    1.7670    3.7245 H   0  0  0  0  0  0  0  0  0  0  0  0
   -1.9689    0.1350    0.8298 N   0  0  0  0  0  0  0  0  0  0  0  0
   -2.5039   -0.1183   -0.4830 C   0  0  2  0  0  0  0  0  0  0  0  0
   -2.0204   -1.4908   -0.9384 C   0  0  0  0  0  0  0  0  0  0  0  0
   -1.3257   -2.2231   -0.2367 O   0  0  0  0  0  0  0  0  0  0  0  0
   -2.1194    0.9787   -1.4705 C   0  0  0  0  0  0  0  0  0  0  0  0
   -0.7132    0.9741   -1.6893 O   0  0  0  0  0  0  0  0  0  0  0  0
   -2.5276    0.6894    1.4750 H   0  0  0  0  0  0  0  0  0  0  0  0
   -3.5940   -0.1456   -0.3718 H   0  0  0  0  0  0  0  0  0  0  0  0
   -2.4004    1.9662   -1.0904 H   0  0  0  0  0  0  0  0  0  0  0  0
   -2.6142    0.8198   -2.4346 H   0  0  0  0  0  0  0  0  0  0  0  0
   -0.4903    0.1005   -2.0483 H   0  0  0  0  0  0  0  0  0  0  0  0
   -2.4919   -1.8179   -2.2019 N   0  0  0  0  0  0  0  0  0  0  0  0
   -2.1992   -3.0782   -2.8442 C   0  0  2  0  0  0  0  0  0  0  0  0
   -2.1226   -4.1497   -1.7646 C   0  0  0  0  0  0  0  0  0  0  0  0
   -1.8910   -3.8971   -0.5841 O   0  0  0  0  0  0  0  0  0  0  0  0
   -0.9013   -3.0084   -3.6338 C   0  0  0  0  0  0  0  0  0  0  0  0
   -3.0953   -1.1655   -2.6939 H   0  0  0  0  0  0  0  0  0  0  0  0
   -3.0381   -3.2938   -3.5147 H   0  0  0  0  0  0  0  0  0  0  0  0
   -0.0493   -2.7932   -2.9787 H   0  0  0  0  0  0  0  0  0  0  0  0
   -0.6955   -3.9556   -4.1433 H   0  0  0  0  0  0  0  0  0  0  0  0
   -0.9473   -2.2174   -4.3901 H   0  0  0  0  0  0  0  0  0  0  0  0
   -2.3005   -5.4252   -2.2818 N   0  0  0  0  0  0  0  0  0  0  0  0
   -2.2593   -6.6123   -1.4602 C   0  0  0  0  0  0  0  0  0  0  0  0
   -2.5065   -5.5396   -3.2698 H   0  0  0  0  0  0  0  0  0  0  0  0
   -1.2365   -7.0168   -1.4504 H   0  0  0  0  0  0  0  0  0  0  0  0
   -2.5629   -6.3585   -0.4338 H   0  0  0  0  0  0  0  0  0  0  0  0
   -2.9476   -7.3660   -1.8703 H   0  0  0  0  0  0  0  0  0  0  0  0
  1  3  1  0  0  0  0
  1  7  1  0  0  0  0
  1  2  2  0  0  0  0
 29 30  1  0  0  0  0
 30 38  1  0  0  0  0
 30 31  2  0  0  0  0
  8  9  1  0  0  0  0
  9 17  1  0  0  0  0
  9 10  2  0  0  0  0
 18 19  1  0  0  0  0
 19 28  1  0  0  0  0
 19 20  2  0  0  0  0
 29 32  1  0  0  0  0
  8 11  1  0  0  0  0
 38 39  1  0  0  0  0
 18 21  1  0  0  0  0
 21 22  1  0  0  0  0
 28 29  1  0  0  0  0
  7  8  1  0  0  0  0
 17 18  1  0  0  0  0
  3  4  1  0  0  0  0
  3  5  1  0  0  0  0
  3  6  1  0  0  0  0
 32 35  1  0  0  0  0
 32 36  1  0  0  0  0
 32 37  1  0  0  0  0
 11 14  1  0  0  0  0
 11 15  1  0  0  0  0
 11 16  1  0  0  0  0
 39 41  1  0  0  0  0
 39 42  1  0  0  0  0
 39 43  1  0  0  0  0
 21 25  1  0  0  0  0
 21 26  1  0  0  0  0
 29 34  1  0  0  0  0
  8 13  1  0  0  0  0
 18 24  1  0  0  0  0
 38 40  1  0  0  0  0
  7 12  1  0  0  0  0
 28 33  1  0  0  0  0
 17 23  1  0  0  0  0
 22 27  1  0  0  0  0
M  END
$$$$

  -OEChem-05262214473D

 43 42  0     1  0  0  0  0  0999 V2000
    0.7424   -1.0926    4.5665 C   0  0  0  0  0  0  0  0  0  0  0  0
    0.1409   -0.5364    5.4779 O   0  0  0  0  0  0  0  0  0  0  0  0
    1.7940   -2.1023    4.8871 C   0  0  0  0  0  0  0  0  0  0  0  0
    2.7935   -1.6502    4.9904 H   0  0  0  0  0  0  0  0  0  0  0  0
    1.6064   -2.6156    5.8438 H   0  0  0  0  0  0  0  0  0  0  0  0
    1.9156   -2.9078    4.1453 H   0  0  0  0  0  0  0  0  0  0  0  0
    0.5488   -0.8838    3.2109 N   0  0  0  0  0  0  0  0  0  0  0  0
   -0.4159    0.0446    2.6829 C   0  0  2  0  0  0  0  0  0  0  0  0
   -0.7551   -0.3867    1.2623 C   0  0  0  0  0  0  0  0  0  0  0  0
   -0.0106   -1.0851    0.5774 O   0  0  0  0  0  0  0  0  0  0  0  0
    0.1168    1.4689    2.7060 C   0  0  0  0  0  0  0  0  0  0  0  0
    1.1183   -1.4145    2.5542 H   0  0  0  0  0  0  0  0  0  0  0  0
   -1.3088   -0.0350    3.3125 H   0  0  0  0  0  0  0  0  0  0  0  0
    1.0116    1.5681    2.0808 H   0  0  0  0  0  0  0  0  0  0  0  0
   -0.6289    2.1775    2.3307 H   0  0  0  0  0  0  0  0  0  0  0  0
    0.3882    1.7670    3.7245 H   0  0  0  0  0  0  0  0  0  0  0  0
   -1.9689    0.1350    0.8298 N   0  0  0  0  0  0  0  0  0  0  0  0
   -2.5039   -0.1183   -0.4830 C   0  0  2  0  0  0  0  0  0  0  0  0
   -2.0204   -1.4908   -0.9384 C   0  0  0  0  0  0  0  0  0  0  0  0
   -1.5622   -2.3300   -0.1657 O   0  0  0  0  0  0  0  0  0  0  0  0
   -2.1194    0.9787   -1.4705 C   0  0  0  0  0  0  0  0  0  0  0  0
   -0.7132    0.9741   -1.6893 O   0  0  0  0  0  0  0  0  0  0  0  0
   -2.5276    0.6894    1.4750 H   0  0  0  0  0  0  0  0  0  0  0  0
   -3.5940   -0.1456   -0.3718 H   0  0  0  0  0  0  0  0  0  0  0  0
   -2.4004    1.9662   -1.0904 H   0  0  0  0  0  0  0  0  0  0  0  0
   -2.6142    0.8198   -2.4346 H   0  0  0  0  0  0  0  0  0  0  0  0
   -0.4903    0.1005   -2.0483 H   0  0  0  0  0  0  0  0  0  0  0  0
   -2.2011   -1.6826   -2.3008 N   0  0  0  0  0  0  0  0  0  0  0  0
   -1.8508   -2.9134   -2.9709 C   0  0  2  0  0  0  0  0  0  0  0  0
   -2.1040   -4.0633   -2.0050 C   0  0  0  0  0  0  0  0  0  0  0  0
   -2.1413   -3.9186   -0.7849 O   0  0  0  0  0  0  0  0  0  0  0  0
   -0.4015   -2.8995   -3.4315 C   0  0  0  0  0  0  0  0  0  0  0  0
   -2.6257   -0.9461   -2.8567 H   0  0  0  0  0  0  0  0  0  0  0  0
   -2.5202   -3.0057   -3.8331 H   0  0  0  0  0  0  0  0  0  0  0  0
    0.2842   -2.8075   -2.5813 H   0  0  0  0  0  0  0  0  0  0  0  0
   -0.1456   -3.8213   -3.9643 H   0  0  0  0  0  0  0  0  0  0  0  0
   -0.2139   -2.0544   -4.1027 H   0  0  0  0  0  0  0  0  0  0  0  0
   -2.2405   -5.2774   -2.6634 N   0  0  0  0  0  0  0  0  0  0  0  0
   -2.4748   -6.5204   -1.9661 C   0  0  0  0  0  0  0  0  0  0  0  0
   -2.2145   -5.3011   -3.6785 H   0  0  0  0  0  0  0  0  0  0  0  0
   -1.5129   -7.0120   -1.7586 H   0  0  0  0  0  0  0  0  0  0  0  0
   -2.9943   -6.3166   -1.0182 H   0  0  0  0  0  0  0  0  0  0  0  0
   -3.0961   -7.1794   -2.5904 H   0  0  0  0  0  0  0  0  0  0  0  0
  1  3  1  0  0  0  0
  1  7  1  0  0  0  0
  1  2  2  0  0  0  0
 29 30  1  0  0  0  0
 30 38  1  0  0  0  0
 30 31  2  0  0  0  0
  8  9  1  0  0  0  0
  9 17  1  0  0  0  0
  9 10  2  0  0  0  0
 18 19  1  0  0  0  0
 19 28  1  0  0  0  0
 19 20  2  0  0  0  0
 29 32  1  0  0  0  0
  8 11  1  0  0  0  0
 38 39  1  0  0  0  0
 18 21  1  0  0  0  0
 21 22  1  0  0  0  0
 28 29  1  0  0  0  0
  7  8  1  0  0  0  0
 17 18  1  0  0  0  0
  3  4  1  0  0  0  0
  3  5  1  0  0  0  0
  3  6  1  0  0  0  0
 32 35  1  0  0  0  0
 32 36  1  0  0  0  0
 32 37  1  0  0  0  0
 11 14  1  0  0  0  0
 11 15  1  0  0  0  0
 11 16  1  0  0  0  0
 39 41  1  0  0  0  0
 39 42  1  0  0  0  0
 39 43  1  0  0  0  0
 21 25  1  0  0  0  0
 21 26  1  0  0  0  0
 29 34  1  0  0  0  0
  8 13  1  0  0  0  0
 18 24  1  0  0  0  0
 38 40  1  0  0  0  0
  7 12  1  0  0  0  0
 28 33  1  0  0  0  0
 17 23  1  0  0  0  0
 22 27  1  0  0  0  0
M  END
$$$$

  -OEChem-05262214473D

 43 42  0     1  0  0  0  0  0999 V2000
    0.7424   -1.0926    4.5665 C   0  0  0  0  0  0  0  0  0  0  0  0
    0.1409   -0.5364    5.4779 O   0  0  0  0  0  0  0  0  0  0  0  0
    1.7940   -2.1023    4.8871 C   0  0  0  0  0  0  0  0  0  0  0  0
    2.7935   -1.6502    4.9904 H   0  0  0  0  0  0  0  0  0  0  0  0
    1.6064   -2.6156    5.8438 H   0  0  0  0  0  0  0  0  0  0  0  0
    1.9156   -2.9078    4.1453 H   0  0  0  0  0  0  0  0  0  0  0  0
    0.5488   -0.8838    3.2109 N   0  0  0  0  0  0  0  0  0  0  0  0
   -0.4159    0.0446    2.6829 C   0  0  2  0  0  0  0  0  0  0  0  0
   -0.7551   -0.3867    1.2623 C   0  0  0  0  0  0  0  0  0  0  0  0
   -0.0106   -1.0851    0.5774 O   0  0  0  0  0  0  0  0  0  0  0  0
    0.1168    1.4689    2.7060 C   0  0  0  0  0  0  0  0  0  0  0  0
    1.1183   -1.4145    2.5542 H   0  0  0  0  0  0  0  0  0  0  0  0
   -1.3088   -0.0350    3.3125 H   0  0  0  0  0  0  0  0  0  0  0  0
    1.0116    1.5681    2.0808 H   0  0  0  0  0  0  0  0  0  0  0  0
   -0.6289    2.1775    2.3307 H   0  0  0  0  0  0  0  0  0  0  0  0
    0.3882    1.7670    3.7245 H   0  0  0  0  0  0  0  0  0  0  0  0
   -1.9689    0.1350    0.8298 N   0  0  0  0  0  0  0  0  0  0  0  0
   -2.5039   -0.1183   -0.4830 C   0  0  2  0  0  0  0  0  0  0  0  0
   -2.0204   -1.4908   -0.9384 C   0  0  0  0  0  0  0  0  0  0  0  0
   -1.8154   -2.4208   -0.1610 O   0  0  0  0  0  0  0  0  0  0  0  0
   -2.1194    0.9787   -1.4705 C   0  0  0  0  0  0  0  0  0  0  0  0
   -0.7132    0.9741   -1.6893 O   0  0  0  0  0  0  0  0  0  0  0  0
   -2.5276    0.6894    1.4750 H   0  0  0  0  0  0  0  0  0  0  0  0
   -3.5940   -0.1456   -0.3718 H   0  0  0  0  0  0  0  0  0  0  0  0
   -2.4004    1.9662   -1.0904 H   0  0  0  0  0  0  0  0  0  0  0  0
   -2.6142    0.8198   -2.4346 H   0  0  0  0  0  0  0  0  0  0  0  0
   -0.4903    0.1005   -2.0483 H   0  0  0  0  0  0  0  0  0  0  0  0
   -1.8867   -1.5663   -2.3176 N   0  0  0  0  0  0  0  0  0  0  0  0
   -1.4720   -2.7707   -2.9987 C   0  0  2  0  0  0  0  0  0  0  0  0
   -2.0233   -3.9616   -2.2258 C   0  0  0  0  0  0  0  0  0  0  0  0
   -2.3379   -3.9036   -1.0389 O   0  0  0  0  0  0  0  0  0  0  0  0
    0.0426   -2.8495   -3.1107 C   0  0  0  0  0  0  0  0  0  0  0  0
   -2.1172   -0.7571   -2.8865 H   0  0  0  0  0  0  0  0  0  0  0  0
   -1.9235   -2.7413   -3.9963 H   0  0  0  0  0  0  0  0  0  0  0  0
    0.5127   -2.8798   -2.1210 H   0  0  0  0  0  0  0  0  0  0  0  0
    0.3542   -3.7487   -3.6523 H   0  0  0  0  0  0  0  0  0  0  0  0
    0.4400   -1.9772   -3.6409 H   0  0  0  0  0  0  0  0  0  0  0  0
   -2.0822   -5.1080   -3.0059 N   0  0  0  0  0  0  0  0  0  0  0  0
   -2.5580   -6.3734   -2.4975 C   0  0  0  0  0  0  0  0  0  0  0  0
   -1.8188   -5.0598   -3.9857 H   0  0  0  0  0  0  0  0  0  0  0  0
   -1.7078   -6.9606   -2.1203 H   0  0  0  0  0  0  0  0  0  0  0  0
   -3.2717   -6.1948   -1.6798 H   0  0  0  0  0  0  0  0  0  0  0  0
   -3.0573   -6.9285   -3.3053 H   0  0  0  0  0  0  0  0  0  0  0  0
  1  3  1  0  0  0  0
  1  7  1  0  0  0  0
  1  2  2  0  0  0  0
 29 30  1  0  0  0  0
 30 38  1  0  0  0  0
 30 31  2  0  0  0  0
  8  9  1  0  0  0  0
  9 17  1  0  0  0  0
  9 10  2  0  0  0  0
 18 19  1  0  0  0  0
 19 28  1  0  0  0  0
 19 20  2  0  0  0  0
 29 32  1  0  0  0  0
  8 11  1  0  0  0  0
 38 39  1  0  0  0  0
 18 21  1  0  0  0  0
 21 22  1  0  0  0  0
 28 29  1  0  0  0  0
  7  8  1  0  0  0  0
 17 18  1  0  0  0  0
  3  4  1  0  0  0  0
  3  5  1  0  0  0  0
  3  6  1  0  0  0  0
 32 35  1  0  0  0  0
 32 36  1  0  0  0  0
 32 37  1  0  0  0  0
 11 14  1  0  0  0  0
 11 15  1  0  0  0  0
 11 16  1  0  0  0  0
 39 41  1  0  0  0  0
 39 42  1  0  0  0  0
 39 43  1  0  0  0  0
 21 25  1  0  0  0  0
 21 26  1  0  0  0  0
 29 34  1  0  0  0  0
  8 13  1  0  0  0  0
 18 24  1  0  0  0  0
 38 40  1  0  0  0  0
  7 12  1  0  0  0  0
 28 33  1  0  0  0  0
 17 23  1  0  0  0  0
 22 27  1  0  0  0  0
M  END
$$$$

  -OEChem-05262214473D

 43 42  0     1  0  0  0  0  0999 V2000
    0.7424   -1.0926    4.5665 C   0  0  0  0  0  0  0  0  0  0  0  0
    0.1409   -0.5364    5.4779 O   0  0  0  0  0  0  0  0  0  0  0  0
    1.7940   -2.1023    4.8871 C   0  0  0  0  0  0  0  0  0  0  0  0
    2.7935   -1.6502    4.9904 H   0  0  0  0  0  0  0  0  0  0  0  0
    1.6064   -2.6156    5.8438 H   0  0  0  0  0  0  0  0  0  0  0  0
    1.9156   -2.9078    4.1453 H   0  0  0  0  0  0  0  0  0  0  0  0
    0.5488   -0.8838    3.2109 N   0  0  0  0  0  0  0  0  0  0  0  0
   -0.4159    0.0446    2.6829 C   0  0  2  0  0  0  0  0  0  0  0  0
   -0.7551   -0.3867    1.2623 C   0  0  0  0  0  0  0  0  0  0  0  0
   -0.0106   -1.0851    0.5774 O   0  0  0  0  0  0  0  0  0  0  0  0
    0.1168    1.4689    2.7060 C   0  0  0  0  0  0  0  0  0  0  0  0
    1.1183   -1.4145    2.5542 H   0  0  0  0  0  0  0  0  0  0  0  0
   -1.3088   -0.0350    3.3125 H   0  0  0  0  0  0  0  0  0  0  0  0
    1.0116    1.5681    2.0808 H   0  0  0  0  0  0  0  0  0  0  0  0
   -0.6289    2.1775    2.3307 H   0  0  0  0  0  0  0  0  0  0  0  0
    0.3882    1.7670    3.7245 H   0  0  0  0  0  0  0  0  0  0  0  0
   -1.9689    0.1350    0.8298 N   0  0  0  0  0  0  0  0  0  0  0  0
   -2.5039   -0.1183   -0.4830 C   0  0  2  0  0  0  0  0  0  0  0  0
   -2.0204   -1.4908   -0.9384 C   0  0  0  0  0  0  0  0  0  0  0  0
   -2.0682   -2.4893   -0.2229 O   0  0  0  0  0  0  0  0  0  0  0  0
   -2.1194    0.9787   -1.4705 C   0  0  0  0  0  0  0  0  0  0  0  0
   -0.7132    0.9741   -1.6893 O   0  0  0  0  0  0  0  0  0  0  0  0
   -2.5276    0.6894    1.4750 H   0  0  0  0  0  0  0  0  0  0  0  0
   -3.5940   -0.1456   -0.3718 H   0  0  0  0  0  0  0  0  0  0  0  0
   -2.4004    1.9662   -1.0904 H   0  0  0  0  0  0  0  0  0  0  0  0
   -2.6142    0.8198   -2.4346 H   0  0  0  0  0  0  0  0  0  0  0  0
   -0.4903    0.1005   -2.0483 H   0  0  0  0  0  0  0  0  0  0  0  0
   -1.5702   -1.4769   -2.2509 N   0  0  0  0  0  0  0  0  0  0  0  0
   -1.0886   -2.6600   -2.9255 C   0  0  2  0  0  0  0  0  0  0  0  0
   -1.8861   -3.8515   -2.4120 C   0  0  0  0  0  0  0  0  0  0  0  0
   -2.4674   -3.8530   -1.3289 O   0  0  0  0  0  0  0  0  0  0  0  0
    0.4007   -2.8618   -2.6933 C   0  0  0  0  0  0  0  0  0  0  0  0
   -1.6045   -0.6114   -2.7814 H   0  0  0  0  0  0  0  0  0  0  0  0
   -1.2887   -2.5187   -3.9932 H   0  0  0  0  0  0  0  0  0  0  0  0
    0.6205   -3.0050   -1.6291 H   0  0  0  0  0  0  0  0  0  0  0  0
    0.7698   -3.7429   -3.2285 H   0  0  0  0  0  0  0  0  0  0  0  0
    0.9701   -1.9911   -3.0361 H   0  0  0  0  0  0  0  0  0  0  0  0
   -1.8363   -4.9285   -3.2859 N   0  0  0  0  0  0  0  0  0  0  0  0
   -2.5032   -6.1813   -3.0181 C   0  0  0  0  0  0  0  0  0  0  0  0
   -1.3463   -4.8321   -4.1704 H   0  0  0  0  0  0  0  0  0  0  0  0
   -1.8078   -6.8663   -2.5108 H   0  0  0  0  0  0  0  0  0  0  0  0
   -3.3761   -6.0014   -2.3734 H   0  0  0  0  0  0  0  0  0  0  0  0
   -2.8338   -6.6306   -3.9661 H   0  0  0  0  0  0  0  0  0  0  0  0
  1  3  1  0  0  0  0
  1  7  1  0  0  0  0
  1  2  2  0  0  0  0
 29 30  1  0  0  0  0
 30 38  1  0  0  0  0
 30 31  2  0  0  0  0
  8  9  1  0  0  0  0
  9 17  1  0  0  0  0
  9 10  2  0  0  0  0
 18 19  1  0  0  0  0
 19 28  1  0  0  0  0
 19 20  2  0  0  0  0
 29 32  1  0  0  0  0
  8 11  1  0  0  0  0
 38 39  1  0  0  0  0
 18 21  1  0  0  0  0
 21 22  1  0  0  0  0
 28 29  1  0  0  0  0
  7  8  1  0  0  0  0
 17 18  1  0  0  0  0
  3  4  1  0  0  0  0
  3  5  1  0  0  0  0
  3  6  1  0  0  0  0
 32 35  1  0  0  0  0
 32 36  1  0  0  0  0
 32 37  1  0  0  0  0
 11 14  1  0  0  0  0
 11 15  1  0  0  0  0
 11 16  1  0  0  0  0
 39 41  1  0  0  0  0
 39 42  1  0  0  0  0
 39 43  1  0  0  0  0
 21 25  1  0  0  0  0
 21 26  1  0  0  0  0
 29 34  1  0  0  0  0
  8 13  1  0  0  0  0
 18 24  1  0  0  0  0
 38 40  1  0  0  0  0
  7 12  1  0  0  0  0
 28 33  1  0  0  0  0
 17 23  1  0  0  0  0
 22 27  1  0  0  0  0
M  END
$$$$

  -OEChem-05262214473D

 43 42  0     1  0  0  0  0  0999 V2000
    0.7424   -1.0926    4.5665 C   0  0  0  0  0  0  0  0  0  0  0  0
    0.1409   -0.5364    5.4779 O   0  0  0  0  0  0  0  0  0  0  0  0
    1.7940   -2.1023    4.8871 C   0  0  0  0  0  0  0  0  0  0  0  0
    2.7935   -1.6502    4.9904 H   0  0  0  0  0  0  0  0  0  0  0  0
    1.6064   -2.6156    5.8438 H   0  0  0  0  0  0  0  0  0  0  0  0
    1.9156   -2.9078    4.1453 H   0  0  0  0  0  0  0  0  0  0  0  0
    0.5488   -0.8838    3.2109 N   0  0  0  0  0  0  0  0  0  0  0  0
   -0.4159    0.0446    2.6829 C   0  0  2  0  0  0  0  0  0  0  0  0
   -0.7551   -0.3867    1.2623 C   0  0  0  0  0  0  0  0  0  0  0  0
   -0.0106   -1.0851    0.5774 O   0  0  0  0  0  0  0  0  0  0  0  0
    0.1168    1.4689    2.7060 C   0  0  0  0  0  0  0  0  0  0  0  0
    1.1183   -1.4145    2.5542 H   0  0  0  0  0  0  0  0  0  0  0  0
   -1.3088   -0.0350    3.3125 H   0  0  0  0  0  0  0  0  0  0  0  0
    1.0116    1.5681    2.0808 H   0  0  0  0  0  0  0  0  0  0  0  0
   -0.6289    2.1775    2.3307 H   0  0  0  0  0  0  0  0  0  0  0  0
    0.3882    1.7670    3.7245 H   0  0  0  0  0  0  0  0  0  0  0  0
   -1.9689    0.1350    0.8298 N   0  0  0  0  0  0  0  0  0  0  0  0
   -2.5039   -0.1183   -0.4830 C   0  0  2  0  0  0  0  0  0  0  0  0
   -2.0204   -1.4908   -0.9384 C   0  0  0  0  0  0  0  0  0  0  0  0
   -2.3032   -2.5309   -0.3472 O   0  0  0  0  0  0  0  0  0  0  0  0
   -2.1194    0.9787   -1.4705 C   0  0  0  0  0  0  0  0  0  0  0  0
   -0.7132    0.9741   -1.6893 O   0  0  0  0  0  0  0  0  0  0  0  0
   -2.5276    0.6894    1.4750 H   0  0  0  0  0  0  0  0  0  0  0  0
   -3.5940   -0.1456   -0.3718 H   0  0  0  0  0  0  0  0  0  0  0  0
   -2.4004    1.9662   -1.0904 H   0  0  0  0  0  0  0  0  0  0  0  0
   -2.6142    0.8198   -2.4346 H   0  0  0  0  0  0  0  0  0  0  0  0
   -0.4903    0.1005   -2.0483 H   0  0  0  0  0  0  0  0  0  0  0  0
   -1.2730   -1.4205   -2.1055 N   0  0  0  0  0  0  0  0  0  0  0  0
   -0.7268   -2.5886   -2.7564 C   0  0  2  0  0  0  0  0  0  0  0  0
   -1.7016   -3.7405   -2.5507 C   0  0  0  0  0  0  0  0  0  0  0  0
   -2.5211   -3.7704   -1.6350 O   0  0  0  0  0  0  0  0  0  0  0  0
    0.6483   -2.9357   -2.2077 C   0  0  0  0  0  0  0  0  0  0  0  0
   -1.1225   -0.5188   -2.5484 H   0  0  0  0  0  0  0  0  0  0  0  0
   -0.6590   -2.3530   -3.8241 H   0  0  0  0  0  0  0  0  0  0  0  0
    0.6004   -3.1747   -1.1390 H   0  0  0  0  0  0  0  0  0  0  0  0
    1.0731   -3.8041   -2.7219 H   0  0  0  0  0  0  0  0  0  0  0  0
    1.3401   -2.0952   -2.3296 H   0  0  0  0  0  0  0  0  0  0  0  0
   -1.5198   -4.7511   -3.4844 N   0  0  0  0  0  0  0  0  0  0  0  0
   -2.3141   -5.9574   -3.4924 C   0  0  0  0  0  0  0  0  0  0  0  0
   -0.8293   -4.6334   -4.2201 H   0  0  0  0  0  0  0  0  0  0  0  0
   -1.8061   -6.7354   -2.9036 H   0  0  0  0  0  0  0  0  0  0  0  0
   -3.3004   -5.7497   -3.0518 H   0  0  0  0  0  0  0  0  0  0  0  0
   -2.4410   -6.3058   -4.5280 H   0  0  0  0  0  0  0  0  0  0  0  0
  1  3  1  0  0  0  0
  1  7  1  0  0  0  0
  1  2  2  0  0  0  0
 29 30  1  0  0  0  0
 30 38  1  0  0  0  0
 30 31  2  0  0  0  0
  8  9  1  0  0  0  0
  9 17  1  0  0  0  0
  9 10  2  0  0  0  0
 18 19  1  0  0  0  0
 19 28  1  0  0  0  0
 19 20  2  0  0  0  0
 29 32  1  0  0  0  0
  8 11  1  0  0  0  0
 38 39  1  0  0  0  0
 18 21  1  0  0  0  0
 21 22  1  0  0  0  0
 28 29  1  0  0  0  0
  7  8  1  0  0  0  0
 17 18  1  0  0  0  0
  3  4  1  0  0  0  0
  3  5  1  0  0  0  0
  3  6  1  0  0  0  0
 32 35  1  0  0  0  0
 32 36  1  0  0  0  0
 32 37  1  0  0  0  0
 11 14  1  0  0  0  0
 11 15  1  0  0  0  0
 11 16  1  0  0  0  0
 39 41  1  0  0  0  0
 39 42  1  0  0  0  0
 39 43  1  0  0  0  0
 21 25  1  0  0  0  0
 21 26  1  0  0  0  0
 29 34  1  0  0  0  0
  8 13  1  0  0  0  0
 18 24  1  0  0  0  0
 38 40  1  0  0  0  0
  7 12  1  0  0  0  0
 28 33  1  0  0  0  0
 17 23  1  0  0  0  0
 22 27  1  0  0  0  0
M  END
$$$$

  -OEChem-05262214473D

 43 42  0     1  0  0  0  0  0999 V2000
    0.7424   -1.0926    4.5665 C   0  0  0  0  0  0  0  0  0  0  0  0
    0.1409   -0.5364    5.4779 O   0  0  0  0  0  0  0  0  0  0  0  0
    1.7940   -2.1023    4.8871 C   0  0  0  0  0  0  0  0  0  0  0  0
    2.7935   -1.6502    4.9904 H   0  0  0  0  0  0  0  0  0  0  0  0
    1.6064   -2.6156    5.8438 H   0  0  0  0  0  0  0  0  0  0  0  0
    1.9156   -2.9078    4.1453 H   0  0  0  0  0  0  0  0  0  0  0  0
    0.5488   -0.8838    3.2109 N   0  0  0  0  0  0  0  0  0  0  0  0
   -0.4159    0.0446    2.6829 C   0  0  2  0  0  0  0  0  0  0  0  0
   -0.7551   -0.3867    1.2623 C   0  0  0  0  0  0  0  0  0  0  0  0
   -0.0106   -1.0851    0.5774 O   0  0  0  0  0  0  0  0  0  0  0  0
    0.1168    1.4689    2.7060 C   0  0  0  0  0  0  0  0  0  0  0  0
    1.1183   -1.4145    2.5542 H   0  0  0  0  0  0  0  0  0  0  0  0
   -1.3088   -0.0350    3.3125 H   0  0  0  0  0  0  0  0  0  0  0  0
    1.0116    1.5681    2.0808 H   0  0  0  0  0  0  0  0  0  0  0  0
   -0.6289    2.1775    2.3307 H   0  0  0  0  0  0  0  0  0  0  0  0
    0.3882    1.7670    3.7245 H   0  0  0  0  0  0  0  0  0  0  0  0
   -1.9689    0.1350    0.8298 N   0  0  0  0  0  0  0  0  0  0  0  0
   -2.5039   -0.1183   -0.4830 C   0  0  2  0  0  0  0  0  0  0  0  0
   -2.0204   -1.4908   -0.9384 C   0  0  0  0  0  0  0  0  0  0  0  0
   -2.5044   -2.5426   -0.5254 O   0  0  0  0  0  0  0  0  0  0  0  0
   -2.1194    0.9787   -1.4705 C   0  0  0  0  0  0  0  0  0  0  0  0
   -0.7132    0.9741   -1.6893 O   0  0  0  0  0  0  0  0  0  0  0  0
   -2.5276    0.6894    1.4750 H   0  0  0  0  0  0  0  0  0  0  0  0
   -3.5940   -0.1456   -0.3718 H   0  0  0  0  0  0  0  0  0  0  0  0
   -2.4004    1.9662   -1.0904 H   0  0  0  0  0  0  0  0  0  0  0  0
   -2.6142    0.8198   -2.4346 H   0  0  0  0  0  0  0  0  0  0  0  0
   -0.4903    0.1005   -2.0483 H   0  0  0  0  0  0  0  0  0  0  0  0
   -1.0155   -1.4008   -1.8911 N   0  0  0  0  0  0  0  0  0  0  0  0
   -0.4112   -2.5615   -2.5030 C   0  0  2  0  0  0  0  0  0  0  0  0
   -1.4826   -3.6361   -2.6327 C   0  0  0  0  0  0  0  0  0  0  0  0
   -2.4952   -3.6613   -1.9364 O   0  0  0  0  0  0  0  0  0  0  0  0
    0.7687   -3.0660   -1.6870 C   0  0  0  0  0  0  0  0  0  0  0  0
   -0.7041   -0.4859   -2.2035 H   0  0  0  0  0  0  0  0  0  0  0  0
   -0.0774   -2.2555   -3.5005 H   0  0  0  0  0  0  0  0  0  0  0  0
    0.4537   -3.3772   -0.6843 H   0  0  0  0  0  0  0  0  0  0  0  0
    1.2432   -3.9283   -2.1668 H   0  0  0  0  0  0  0  0  0  0  0  0
    1.5249   -2.2823   -1.5695 H   0  0  0  0  0  0  0  0  0  0  0  0
   -1.1540   -4.5880   -3.5878 N   0  0  0  0  0  0  0  0  0  0  0  0
   -2.0036   -5.7167   -3.8881 C   0  0  0  0  0  0  0  0  0  0  0  0
   -0.3030   -4.4775   -4.1313 H   0  0  0  0  0  0  0  0  0  0  0  0
   -1.7029   -6.5768   -3.2718 H   0  0  0  0  0  0  0  0  0  0  0  0
   -3.0497   -5.4567   -3.6689 H   0  0  0  0  0  0  0  0  0  0  0  0
   -1.9056   -5.9763   -4.9525 H   0  0  0  0  0  0  0  0  0  0  0  0
  1  3  1  0  0  0  0
  1  7  1  0  0  0  0
  1  2  2  0  0  0  0
 29 30  1  0  0  0  0
 30 38  1  0  0  0  0
 30 31  2  0  0  0  0
  8  9  1  0  0  0  0
  9 17  1  0  0  0  0
  9 10  2  0  0  0  0
 18 19  1  0  0  0  0
 19 28  1  0  0  0  0
 19 20  2  0  0  0  0
 29 32  1  0  0  0  0
  8 11  1  0  0  0  0
 38 39  1  0  0  0  0
 18 21  1  0  0  0  0
 21 22  1  0  0  0  0
 28 29  1  0  0  0  0
  7  8  1  0  0  0  0
 17 18  1  0  0  0  0
  3  4  1  0  0  0  0
  3  5  1  0  0  0  0
  3  6  1  0  0  0  0
 32 35  1  0  0  0  0
 32 36  1  0  0  0  0
 32 37  1  0  0  0  0
 11 14  1  0  0  0  0
 11 15  1  0  0  0  0
 11 16  1  0  0  0  0
 39 41  1  0  0  0  0
 39 42  1  0  0  0  0
 39 43  1  0  0  0  0
 21 25  1  0  0  0  0
 21 26  1  0  0  0  0
 29 34  1  0  0  0  0
  8 13  1  0  0  0  0
 18 24  1  0  0  0  0
 38 40  1  0  0  0  0
  7 12  1  0  0  0  0
 28 33  1  0  0  0  0
 17 23  1  0  0  0  0
 22 27  1  0  0  0  0
M  END
$$$$

  -OEChem-05262214473D

 43 42  0     1  0  0  0  0  0999 V2000
    0.7424   -1.0926    4.5665 C   0  0  0  0  0  0  0  0  0  0  0  0
    0.1409   -0.5364    5.4779 O   0  0  0  0  0  0  0  0  0  0  0  0
    1.7940   -2.1023    4.8871 C   0  0  0  0  0  0  0  0  0  0  0  0
    2.7935   -1.6502    4.9904 H   0  0  0  0  0  0  0  0  0  0  0  0
    1.6064   -2.6156    5.8438 H   0  0  0  0  0  0  0  0  0  0  0  0
    1.9156   -2.9078    4.1453 H   0  0  0  0  0  0  0  0  0  0  0  0
    0.5488   -0.8838    3.2109 N   0  0  0  0  0  0  0  0  0  0  0  0
   -0.4159    0.0446    2.6829 C   0  0  2  0  0  0  0  0  0  0  0  0
   -0.7551   -0.3867    1.2623 C   0  0  0  0  0  0  0  0  0  0  0  0
   -0.0106   -1.0851    0.5774 O   0  0  0  0  0  0  0  0  0  0  0  0
    0.1168    1.4689    2.7060 C   0  0  0  0  0  0  0  0  0  0  0  0
    1.1183   -1.4145    2.5542 H   0  0  0  0  0  0  0  0  0  0  0  0
   -1.3088   -0.0350    3.3125 H   0  0  0  0  0  0  0  0  0  0  0  0
    1.0116    1.5681    2.0808 H   0  0  0  0  0  0  0  0  0  0  0  0
   -0.6289    2.1775    2.3307 H   0  0  0  0  0  0  0  0  0  0  0  0
    0.3882    1.7670    3.7245 H   0  0  0  0  0  0  0  0  0  0  0  0
   -1.9689    0.1350    0.8298 N   0  0  0  0  0  0  0  0  0  0  0  0
   -2.5039   -0.1183   -0.4830 C   0  0  2  0  0  0  0  0  0  0  0  0
   -2.0204   -1.4908   -0.9384 C   0  0  0  0  0  0  0  0  0  0  0  0
   -2.6582   -2.5238   -0.7453 O   0  0  0  0  0  0  0  0  0  0  0  0
   -2.1194    0.9787   -1.4705 C   0  0  0  0  0  0  0  0  0  0  0  0
   -0.7132    0.9741   -1.6893 O   0  0  0  0  0  0  0  0  0  0  0  0
   -2.5276    0.6894    1.4750 H   0  0  0  0  0  0  0  0  0  0  0  0
   -3.5940   -0.1456   -0.3718 H   0  0  0  0  0  0  0  0  0  0  0  0
   -2.4004    1.9662   -1.0904 H   0  0  0  0  0  0  0  0  0  0  0  0
   -2.6142    0.8198   -2.4346 H   0  0  0  0  0  0  0  0  0  0  0  0
   -0.4903    0.1005   -2.0483 H   0  0  0  0  0  0  0  0  0  0  0  0
   -0.8151   -1.4194   -1.6225 N   0  0  0  0  0  0  0  0  0  0  0  0
   -0.1633   -2.5805   -2.1824 C   0  0  2  0  0  0  0  0  0  0  0  0
   -1.2438   -3.5455   -2.6523 C   0  0  0  0  0  0  0  0  0  0  0  0
   -2.3916   -3.5332   -2.2125 O   0  0  0  0  0  0  0  0  0  0  0  0
    0.7536   -3.2440   -1.1667 C   0  0  0  0  0  0  0  0  0  0  0  0
   -0.3777   -0.5147   -1.7701 H   0  0  0  0  0  0  0  0  0  0  0  0
    0.4166   -2.2328   -3.0443 H   0  0  0  0  0  0  0  0  0  0  0  0
    0.1904   -3.5988   -0.2959 H   0  0  0  0  0  0  0  0  0  0  0  0
    1.2687   -4.1070   -1.6013 H   0  0  0  0  0  0  0  0  0  0  0  0
    1.5118   -2.5397   -0.8076 H   0  0  0  0  0  0  0  0  0  0  0  0
   -0.7640   -4.4502   -3.5891 N   0  0  0  0  0  0  0  0  0  0  0  0
   -1.5929   -5.4758   -4.1782 C   0  0  0  0  0  0  0  0  0  0  0  0
    0.1967   -4.3748   -3.9101 H   0  0  0  0  0  0  0  0  0  0  0  0
   -1.5051   -6.4014   -3.5905 H   0  0  0  0  0  0  0  0  0  0  0  0
   -2.6412   -5.1423   -4.1824 H   0  0  0  0  0  0  0  0  0  0  0  0
   -1.2641   -5.6646   -5.2108 H   0  0  0  0  0  0  0  0  0  0  0  0
  1  3  1  0  0  0  0
  1  7  1  0  0  0  0
  1  2  2  0  0  0  0
 29 30  1  0  0  0  0
 30 38  1  0  0  0  0
 30 31  2  0  0  0  0
  8  9  1  0  0  0  0
  9 17  1  0  0  0  0
  9 10  2  0  0  0  0
 18 19  1  0  0  0  0
 19 28  1  0  0  0  0
 19 20  2  0  0  0  0
 29 32  1  0  0  0  0
  8 11  1  0  0  0  0
 38 39  1  0  0  0  0
 18 21  1  0  0  0  0
 21 22  1  0  0  0  0
 28 29  1  0  0  0  0
  7  8  1  0  0  0  0
 17 18  1  0  0  0  0
  3  4  1  0  0  0  0
  3  5  1  0  0  0  0
  3  6  1  0  0  0  0
 32 35  1  0  0  0  0
 32 36  1  0  0  0  0
 32 37  1  0  0  0  0
 11 14  1  0  0  0  0
 11 15  1  0  0  0  0
 11 16  1  0  0  0  0
 39 41  1  0  0  0  0
 39 42  1  0  0  0  0
 39 43  1  0  0  0  0
 21 25  1  0  0  0  0
 21 26  1  0  0  0  0
 29 34  1  0  0  0  0
  8 13  1  0  0  0  0
 18 24  1  0  0  0  0
 38 40  1  0  0  0  0
  7 12  1  0  0  0  0
 28 33  1  0  0  0  0
 17 23  1  0  0  0  0
 22 27  1  0  0  0  0
M  END
$$$$

  -OEChem-05262214473D

 43 42  0     1  0  0  0  0  0999 V2000
    0.7424   -1.0926    4.5665 C   0  0  0  0  0  0  0  0  0  0  0  0
    0.1409   -0.5364    5.4779 O   0  0  0  0  0  0  0  0  0  0  0  0
    1.7940   -2.1023    4.8871 C   0  0  0  0  0  0  0  0  0  0  0  0
    2.7935   -1.6502    4.9904 H   0  0  0  0  0  0  0  0  0  0  0  0
    1.6064   -2.6156    5.8438 H   0  0  0  0  0  0  0  0  0  0  0  0
    1.9156   -2.9078    4.1453 H   0  0  0  0  0  0  0  0  0  0  0  0
    0.5488   -0.8838    3.2109 N   0  0  0  0  0  0  0  0  0  0  0  0
   -0.4159    0.0446    2.6829 C   0  0  2  0  0  0  0  0  0  0  0  0
   -0.7551   -0.3867    1.2623 C   0  0  0  0  0  0  0  0  0  0  0  0
   -0.0106   -1.0851    0.5774 O   0  0  0  0  0  0  0  0  0  0  0  0
    0.1168    1.4689    2.7060 C   0  0  0  0  0  0  0  0  0  0  0  0
    1.1183   -1.4145    2.5542 H   0  0  0  0  0  0  0  0  0  0  0  0
   -1.3088   -0.0350    3.3125 H   0  0  0  0  0  0  0  0  0  0  0  0
    1.0116    1.5681    2.0808 H   0  0  0  0  0  0  0  0  0  0  0  0
   -0.6289    2.1775    2.3307 H   0  0  0  0  0  0  0  0  0  0  0  0
    0.3882    1.7670    3.7245 H   0  0  0  0  0  0  0  0  0  0  0  0
   -1.9689    0.1350    0.8298 N   0  0  0  0  0  0  0  0  0  0  0  0
   -2.5039   -0.1183   -0.4830 C   0  0  2  0  0  0  0  0  0  0  0  0
   -2.0204   -1.4908   -0.9384 C   0  0  0  0  0  0  0  0  0  0  0  0
   -2.7540   -2.4757   -0.9921 O   0  0  0  0  0  0  0  0  0  0  0  0
   -2.1194    0.9787   -1.4705 C   0  0  0  0  0  0  0  0  0  0  0  0
   -0.7132    0.9741   -1.6893 O   0  0  0  0  0  0  0  0  0  0  0  0
   -2.5276    0.6894    1.4750 H   0  0  0  0  0  0  0  0  0  0  0  0
   -3.5940   -0.1456   -0.3718 H   0  0  0  0  0  0  0  0  0  0  0  0
   -2.4004    1.9662   -1.0904 H   0  0  0  0  0  0  0  0  0  0  0  0
   -2.6142    0.8198   -2.4346 H   0  0  0  0  0  0  0  0  0  0  0  0
   -0.4903    0.1005   -2.0483 H   0  0  0  0  0  0  0  0  0  0  0  0
   -0.6857   -1.4749   -1.3178 N   0  0  0  0  0  0  0  0  0  0  0  0
   -0.0000   -2.6444   -1.8166 C   0  0  2  0  0  0  0  0  0  0  0  0
   -1.0016   -3.4749   -2.6081 C   0  0  0  0  0  0  0  0  0  0  0  0
   -2.2173   -3.3947   -2.4446 O   0  0  0  0  0  0  0  0  0  0  0  0
    0.6041   -3.4574   -0.6822 C   0  0  0  0  0  0  0  0  0  0  0  0
   -0.1656   -0.6033   -1.2778 H   0  0  0  0  0  0  0  0  0  0  0  0
    0.7892   -2.2865   -2.4868 H   0  0  0  0  0  0  0  0  0  0  0  0
   -0.1715   -3.8245   -0.0002 H   0  0  0  0  0  0  0  0  0  0  0  0
    1.1477   -4.3280   -1.0638 H   0  0  0  0  0  0  0  0  0  0  0  0
    1.3018   -2.8498   -0.0958 H   0  0  0  0  0  0  0  0  0  0  0  0
   -0.3764   -4.3471   -3.4882 N   0  0  0  0  0  0  0  0  0  0  0  0
   -1.1100   -5.2510   -4.3430 C   0  0  0  0  0  0  0  0  0  0  0  0
    0.6358   -4.3324   -3.5716 H   0  0  0  0  0  0  0  0  0  0  0  0
   -1.2263   -6.2212   -3.8378 H   0  0  0  0  0  0  0  0  0  0  0  0
   -2.1026   -4.8282   -4.5575 H   0  0  0  0  0  0  0  0  0  0  0  0
   -0.5601   -5.3919   -5.2852 H   0  0  0  0  0  0  0  0  0  0  0  0
  1  3  1  0  0  0  0
  1  7  1  0  0  0  0
  1  2  2  0  0  0  0
 29 30  1  0  0  0  0
 30 38  1  0  0  0  0
 30 31  2  0  0  0  0
  8  9  1  0  0  0  0
  9 17  1  0  0  0  0
  9 10  2  0  0  0  0
 18 19  1  0  0  0  0
 19 28  1  0  0  0  0
 19 20  2  0  0  0  0
 29 32  1  0  0  0  0
  8 11  1  0  0  0  0
 38 39  1  0  0  0  0
 18 21  1  0  0  0  0
 21 22  1  0  0  0  0
 28 29  1  0  0  0  0
  7  8  1  0  0  0  0
 17 18  1  0  0  0  0
  3  4  1  0  0  0  0
  3  5  1  0  0  0  0
  3  6  1  0  0  0  0
 32 35  1  0  0  0  0
 32 36  1  0  0  0  0
 32 37  1  0  0  0  0
 11 14  1  0  0  0  0
 11 15  1  0  0  0  0
 11 16  1  0  0  0  0
 39 41  1  0  0  0  0
 39 42  1  0  0  0  0
 39 43  1  0  0  0  0
 21 25  1  0  0  0  0
 21 26  1  0  0  0  0
 29 34  1  0  0  0  0
  8 13  1  0  0  0  0
 18 24  1  0  0  0  0
 38 40  1  0  0  0  0
  7 12  1  0  0  0  0
 28 33  1  0  0  0  0
 17 23  1  0  0  0  0
 22 27  1  0  0  0  0
M  END
$$$$

  -OEChem-05262214473D

 43 42  0     1  0  0  0  0  0999 V2000
    0.7424   -1.0926    4.5665 C   0  0  0  0  0  0  0  0  0  0  0  0
    0.1409   -0.5364    5.4779 O   0  0  0  0  0  0  0  0  0  0  0  0
    1.7940   -2.1023    4.8871 C   0  0  0  0  0  0  0  0  0  0  0  0
    2.7935   -1.6502    4.9904 H   0  0  0  0  0  0  0  0  0  0  0  0
    1.6064   -2.6156    5.8438 H   0  0  0  0  0  0  0  0  0  0  0  0
    1.9156   -2.9078    4.1453 H   0  0  0  0  0  0  0  0  0  0  0  0
    0.5488   -0.8838    3.2109 N   0  0  0  0  0  0  0  0  0  0  0  0
   -0.4159    0.0446    2.6829 C   0  0  2  0  0  0  0  0  0  0  0  0
   -0.7551   -0.3867    1.2623 C   0  0  0  0  0  0  0  0  0  0  0  0
   -0.0106   -1.0851    0.5774 O   0  0  0  0  0  0  0  0  0  0  0  0
    0.1168    1.4689    2.7060 C   0  0  0  0  0  0  0  0  0  0  0  0
    1.1183   -1.4145    2.5542 H   0  0  0  0  0  0  0  0  0  0  0  0
   -1.3088   -0.0350    3.3125 H   0  0  0  0  0  0  0  0  0  0  0  0
    1.0116    1.5681    2.0808 H   0  0  0  0  0  0  0  0  0  0  0  0
   -0.6289    2.1775    2.3307 H   0  0  0  0  0  0  0  0  0  0  0  0
    0.3882    1.7670    3.7245 H   0  0  0  0  0  0  0  0  0  0  0  0
   -1.9689    0.1350    0.8298 N   0  0  0  0  0  0  0  0  0  0  0  0
   -2.5039   -0.1183   -0.4830 C   0  0  2  0  0  0  0  0  0  0  0  0
   -2.0204   -1.4908   -0.9384 C   0  0  0  0  0  0  0  0  0  0  0  0
   -2.7854   -2.4016   -1.2489 O   0  0  0  0  0  0  0  0  0  0  0  0
   -2.1194    0.9787   -1.4705 C   0  0  0  0  0  0  0  0  0  0  0  0
   -0.7132    0.9741   -1.6893 O   0  0  0  0  0  0  0  0  0  0  0  0
   -2.5276    0.6894    1.4750 H   0  0  0  0  0  0  0  0  0  0  0  0
   -3.5940   -0.1456   -0.3718 H   0  0  0  0  0  0  0  0  0  0  0  0
   -2.4004    1.9662   -1.0904 H   0  0  0  0  0  0  0  0  0  0  0  0
   -2.6142    0.8198   -2.4346 H   0  0  0  0  0  0  0  0  0  0  0  0
   -0.4903    0.1005   -2.0483 H   0  0  0  0  0  0  0  0  0  0  0  0
   -0.6359   -1.5635   -0.9980 N   0  0  0  0  0  0  0  0  0  0  0  0
    0.0675   -2.7487   -1.4304 C   0  0  2  0  0  0  0  0  0  0  0  0
   -0.7725   -3.4289   -2.5033 C   0  0  0  0  0  0  0  0  0  0  0  0
   -1.9841   -3.2555   -2.6168 O   0  0  0  0  0  0  0  0  0  0  0  0
    0.3303   -3.6917   -0.2666 C   0  0  0  0  0  0  0  0  0  0  0  0
   -0.0823   -0.7457   -0.7602 H   0  0  0  0  0  0  0  0  0  0  0  0
    1.0150   -2.4130   -1.8658 H   0  0  0  0  0  0  0  0  0  0  0  0
   -0.6075   -4.0387    0.1826 H   0  0  0  0  0  0  0  0  0  0  0  0
    0.8885   -4.5762   -0.5909 H   0  0  0  0  0  0  0  0  0  0  0  0
    0.9092   -3.1915    0.5173 H   0  0  0  0  0  0  0  0  0  0  0  0
   -0.0175   -4.2858   -3.2920 N   0  0  0  0  0  0  0  0  0  0  0  0
   -0.5878   -5.0576   -4.3713 C   0  0  0  0  0  0  0  0  0  0  0  0
    0.9844   -4.3532   -3.1389 H   0  0  0  0  0  0  0  0  0  0  0  0
   -0.8854   -6.0483   -3.9970 H   0  0  0  0  0  0  0  0  0  0  0  0
   -1.4708   -4.5356   -4.7686 H   0  0  0  0  0  0  0  0  0  0  0  0
    0.1582   -5.1768   -5.1708 H   0  0  0  0  0  0  0  0  0  0  0  0
  1  3  1  0  0  0  0
  1  7  1  0  0  0  0
  1  2  2  0  0  0  0
 29 30  1  0  0  0  0
 30 38  1  0  0  0  0
 30 31  2  0  0  0  0
  8  9  1  0  0  0  0
  9 17  1  0  0  0  0
  9 10  2  0  0  0  0
 18 19  1  0  0  0  0
 19 28  1  0  0  0  0
 19 20  2  0  0  0  0
 29 32  1  0  0  0  0
  8 11  1  0  0  0  0
 38 39  1  0  0  0  0
 18 21  1  0  0  0  0
 21 22  1  0  0  0  0
 28 29  1  0  0  0  0
  7  8  1  0  0  0  0
 17 18  1  0  0  0  0
  3  4  1  0  0  0  0
  3  5  1  0  0  0  0
  3  6  1  0  0  0  0
 32 35  1  0  0  0  0
 32 36  1  0  0  0  0
 32 37  1  0  0  0  0
 11 14  1  0  0  0  0
 11 15  1  0  0  0  0
 11 16  1  0  0  0  0
 39 41  1  0  0  0  0
 39 42  1  0  0  0  0
 39 43  1  0  0  0  0
 21 25  1  0  0  0  0
 21 26  1  0  0  0  0
 29 34  1  0  0  0  0
  8 13  1  0  0  0  0
 18 24  1  0  0  0  0
 38 40  1  0  0  0  0
  7 12  1  0  0  0  0
 28 33  1  0  0  0  0
 17 23  1  0  0  0  0
 22 27  1  0  0  0  0
M  END
$$$$

  -OEChem-05262214473D

 43 42  0     1  0  0  0  0  0999 V2000
    0.7424   -1.0926    4.5665 C   0  0  0  0  0  0  0  0  0  0  0  0
    0.1409   -0.5364    5.4779 O   0  0  0  0  0  0  0  0  0  0  0  0
    1.7940   -2.1023    4.8871 C   0  0  0  0  0  0  0  0  0  0  0  0
    2.7935   -1.6502    4.9904 H   0  0  0  0  0  0  0  0  0  0  0  0
    1.6064   -2.6156    5.8438 H   0  0  0  0  0  0  0  0  0  0  0  0
    1.9156   -2.9078    4.1453 H   0  0  0  0  0  0  0  0  0  0  0  0
    0.5488   -0.8838    3.2109 N   0  0  0  0  0  0  0  0  0  0  0  0
   -0.4159    0.0446    2.6829 C   0  0  2  0  0  0  0  0  0  0  0  0
   -0.7551   -0.3867    1.2623 C   0  0  0  0  0  0  0  0  0  0  0  0
   -0.0106   -1.0851    0.5774 O   0  0  0  0  0  0  0  0  0  0  0  0
    0.1168    1.4689    2.7060 C   0  0  0  0  0  0  0  0  0  0  0  0
    1.1183   -1.4145    2.5542 H   0  0  0  0  0  0  0  0  0  0  0  0
   -1.3088   -0.0350    3.3125 H   0  0  0  0  0  0  0  0  0  0  0  0
    1.0116    1.5681    2.0808 H   0  0  0  0  0  0  0  0  0  0  0  0
   -0.6289    2.1775    2.3307 H   0  0  0  0  0  0  0  0  0  0  0  0
    0.3882    1.7670    3.7245 H   0  0  0  0  0  0  0  0  0  0  0  0
   -1.9689    0.1350    0.8298 N   0  0  0  0  0  0  0  0  0  0  0  0
   -2.5039   -0.1183   -0.4830 C   0  0  2  0  0  0  0  0  0  0  0  0
   -2.0204   -1.4908   -0.9384 C   0  0  0  0  0  0  0  0  0  0  0  0
   -2.7502   -2.3065   -1.4981 O   0  0  0  0  0  0  0  0  0  0  0  0
   -2.1194    0.9787   -1.4705 C   0  0  0  0  0  0  0  0  0  0  0  0
   -0.7132    0.9741   -1.6893 O   0  0  0  0  0  0  0  0  0  0  0  0
   -2.5276    0.6894    1.4750 H   0  0  0  0  0  0  0  0  0  0  0  0
   -3.5940   -0.1456   -0.3718 H   0  0  0  0  0  0  0  0  0  0  0  0
   -2.4004    1.9662   -1.0904 H   0  0  0  0  0  0  0  0  0  0  0  0
   -2.6142    0.8198   -2.4346 H   0  0  0  0  0  0  0  0  0  0  0  0
   -0.4903    0.1005   -2.0483 H   0  0  0  0  0  0  0  0  0  0  0  0
   -0.6691   -1.6791   -0.6846 N   0  0  0  0  0  0  0  0  0  0  0  0
    0.0348   -2.8864   -1.0502 C   0  0  2  0  0  0  0  0  0  0  0  0
   -0.5721   -3.4109   -2.3448 C   0  0  0  0  0  0  0  0  0  0  0  0
   -1.7080   -3.1248   -2.7174 O   0  0  0  0  0  0  0  0  0  0  0  0
   -0.0492   -3.9310    0.0518 C   0  0  0  0  0  0  0  0  0  0  0  0
   -0.1335   -0.9321   -0.2525 H   0  0  0  0  0  0  0  0  0  0  0  0
    1.0787   -2.6035   -1.2238 H   0  0  0  0  0  0  0  0  0  0  0  0
   -1.0877   -4.2269    0.2399 H   0  0  0  0  0  0  0  0  0  0  0  0
    0.5088   -4.8347   -0.2148 H   0  0  0  0  0  0  0  0  0  0  0  0
    0.3606   -3.5416    0.9900 H   0  0  0  0  0  0  0  0  0  0  0  0
    0.2882   -4.2704   -3.0138 N   0  0  0  0  0  0  0  0  0  0  0  0
   -0.0619   -4.9089   -4.2610 C   0  0  0  0  0  0  0  0  0  0  0  0
    1.2186   -4.4357   -2.6414 H   0  0  0  0  0  0  0  0  0  0  0  0
   -0.5057   -5.8946   -4.0571 H   0  0  0  0  0  0  0  0  0  0  0  0
   -0.7886   -4.2844   -4.8012 H   0  0  0  0  0  0  0  0  0  0  0  0
    0.8421   -5.0340   -4.8752 H   0  0  0  0  0  0  0  0  0  0  0  0
  1  3  1  0  0  0  0
  1  7  1  0  0  0  0
  1  2  2  0  0  0  0
 29 30  1  0  0  0  0
 30 38  1  0  0  0  0
 30 31  2  0  0  0  0
  8  9  1  0  0  0  0
  9 17  1  0  0  0  0
  9 10  2  0  0  0  0
 18 19  1  0  0  0  0
 19 28  1  0  0  0  0
 19 20  2  0  0  0  0
 29 32  1  0  0  0  0
  8 11  1  0  0  0  0
 38 39  1  0  0  0  0
 18 21  1  0  0  0  0
 21 22  1  0  0  0  0
 28 29  1  0  0  0  0
  7  8  1  0  0  0  0
 17 18  1  0  0  0  0
  3  4  1  0  0  0  0
  3  5  1  0  0  0  0
  3  6  1  0  0  0  0
 32 35  1  0  0  0  0
 32 36  1  0  0  0  0
 32 37  1  0  0  0  0
 11 14  1  0  0  0  0
 11 15  1  0  0  0  0
 11 16  1  0  0  0  0
 39 41  1  0  0  0  0
 39 42  1  0  0  0  0
 39 43  1  0  0  0  0
 21 25  1  0  0  0  0
 21 26  1  0  0  0  0
 29 34  1  0  0  0  0
  8 13  1  0  0  0  0
 18 24  1  0  0  0  0
 38 40  1  0  0  0  0
  7 12  1  0  0  0  0
 28 33  1  0  0  0  0
 17 23  1  0  0  0  0
 22 27  1  0  0  0  0
M  END
$$$$

  -OEChem-05262214473D

 43 42  0     1  0  0  0  0  0999 V2000
    0.7424   -1.0926    4.5665 C   0  0  0  0  0  0  0  0  0  0  0  0
    0.1409   -0.5364    5.4779 O   0  0  0  0  0  0  0  0  0  0  0  0
    1.7940   -2.1023    4.8871 C   0  0  0  0  0  0  0  0  0  0  0  0
    2.7935   -1.6502    4.9904 H   0  0  0  0  0  0  0  0  0  0  0  0
    1.6064   -2.6156    5.8438 H   0  0  0  0  0  0  0  0  0  0  0  0
    1.9156   -2.9078    4.1453 H   0  0  0  0  0  0  0  0  0  0  0  0
    0.5488   -0.8838    3.2109 N   0  0  0  0  0  0  0  0  0  0  0  0
   -0.4159    0.0446    2.6829 C   0  0  2  0  0  0  0  0  0  0  0  0
   -0.7551   -0.3867    1.2623 C   0  0  0  0  0  0  0  0  0  0  0  0
   -0.0106   -1.0851    0.5774 O   0  0  0  0  0  0  0  0  0  0  0  0
    0.1168    1.4689    2.7060 C   0  0  0  0  0  0  0  0  0  0  0  0
    1.1183   -1.4145    2.5542 H   0  0  0  0  0  0  0  0  0  0  0  0
   -1.3088   -0.0350    3.3125 H   0  0  0  0  0  0  0  0  0  0  0  0
    1.0116    1.5681    2.0808 H   0  0  0  0  0  0  0  0  0  0  0  0
   -0.6289    2.1775    2.3307 H   0  0  0  0  0  0  0  0  0  0  0  0
    0.3882    1.7670    3.7245 H   0  0  0  0  0  0  0  0  0  0  0  0
   -1.9689    0.1350    0.8298 N   0  0  0  0  0  0  0  0  0  0  0  0
   -2.5039   -0.1183   -0.4830 C   0  0  2  0  0  0  0  0  0  0  0  0
   -2.0204   -1.4908   -0.9384 C   0  0  0  0  0  0  0  0  0  0  0  0
   -2.6507   -2.1969   -1.7228 O   0  0  0  0  0  0  0  0  0  0  0  0
   -2.1194    0.9787   -1.4705 C   0  0  0  0  0  0  0  0  0  0  0  0
   -0.7132    0.9741   -1.6893 O   0  0  0  0  0  0  0  0  0  0  0  0
   -2.5276    0.6894    1.4750 H   0  0  0  0  0  0  0  0  0  0  0  0
   -3.5940   -0.1456   -0.3718 H   0  0  0  0  0  0  0  0  0  0  0  0
   -2.4004    1.9662   -1.0904 H   0  0  0  0  0  0  0  0  0  0  0  0
   -2.6142    0.8198   -2.4346 H   0  0  0  0  0  0  0  0  0  0  0  0
   -0.4903    0.1005   -2.0483 H   0  0  0  0  0  0  0  0  0  0  0  0
   -0.7832   -1.8140   -0.3992 N   0  0  0  0  0  0  0  0  0  0  0  0
   -0.0961   -3.0481   -0.7019 C   0  0  2  0  0  0  0  0  0  0  0  0
   -0.4140   -3.4220   -2.1436 C   0  0  0  0  0  0  0  0  0  0  0  0
   -1.4078   -3.0117   -2.7395 O   0  0  0  0  0  0  0  0  0  0  0  0
   -0.5083   -4.1590    0.2513 C   0  0  0  0  0  0  0  0  0  0  0  0
   -0.3155   -1.1500    0.2107 H   0  0  0  0  0  0  0  0  0  0  0  0
    0.9760   -2.8452   -0.6044 H   0  0  0  0  0  0  0  0  0  0  0  0
   -1.5795   -4.3763    0.1680 H   0  0  0  0  0  0  0  0  0  0  0  0
    0.0344   -5.0859    0.0387 H   0  0  0  0  0  0  0  0  0  0  0  0
   -0.3064   -3.8762    1.2901 H   0  0  0  0  0  0  0  0  0  0  0  0
    0.5198   -4.3020   -2.6726 N   0  0  0  0  0  0  0  0  0  0  0  0
    0.4319   -4.8150   -4.0198 C   0  0  0  0  0  0  0  0  0  0  0  0
    1.3227   -4.5744   -2.1131 H   0  0  0  0  0  0  0  0  0  0  0  0
   -0.1130   -5.7705   -4.0140 H   0  0  0  0  0  0  0  0  0  0  0  0
   -0.1028   -4.0919   -4.6532 H   0  0  0  0  0  0  0  0  0  0  0  0
    1.4448   -4.9731   -4.4186 H   0  0  0  0  0  0  0  0  0  0  0  0
  1  3  1  0  0  0  0
  1  7  1  0  0  0  0
  1  2  2  0  0  0  0
 29 30  1  0  0  0  0
 30 38  1  0  0  0  0
 30 31  2  0  0  0  0
  8  9  1  0  0  0  0
  9 17  1  0  0  0  0
  9 10  2  0  0  0  0
 18 19  1  0  0  0  0
 19 28  1  0  0  0  0
 19 20  2  0  0  0  0
 29 32  1  0  0  0  0
  8 11  1  0  0  0  0
 38 39  1  0  0  0  0
 18 21  1  0  0  0  0
 21 22  1  0  0  0  0
 28 29  1  0  0  0  0
  7  8  1  0  0  0  0
 17 18  1  0  0  0  0
  3  4  1  0  0  0  0
  3  5  1  0  0  0  0
  3  6  1  0  0  0  0
 32 35  1  0  0  0  0
 32 36  1  0  0  0  0
 32 37  1  0  0  0  0
 11 14  1  0  0  0  0
 11 15  1  0  0  0  0
 11 16  1  0  0  0  0
 39 41  1  0  0  0  0
 39 42  1  0  0  0  0
 39 43  1  0  0  0  0
 21 25  1  0  0  0  0
 21 26  1  0  0  0  0
 29 34  1  0  0  0  0
  8 13  1  0  0  0  0
 18 24  1  0  0  0  0
 38 40  1  0  0  0  0
  7 12  1  0  0  0  0
 28 33  1  0  0  0  0
 17 23  1  0  0  0  0
 22 27  1  0  0  0  0
M  END
$$$$

  -OEChem-05262214473D

 43 42  0     1  0  0  0  0  0999 V2000
    0.7424   -1.0926    4.5665 C   0  0  0  0  0  0  0  0  0  0  0  0
    0.1409   -0.5364    5.4779 O   0  0  0  0  0  0  0  0  0  0  0  0
    1.7940   -2.1023    4.8871 C   0  0  0  0  0  0  0  0  0  0  0  0
    2.7935   -1.6502    4.9904 H   0  0  0  0  0  0  0  0  0  0  0  0
    1.6064   -2.6156    5.8438 H   0  0  0  0  0  0  0  0  0  0  0  0
    1.9156   -2.9078    4.1453 H   0  0  0  0  0  0  0  0  0  0  0  0
    0.5488   -0.8838    3.2109 N   0  0  0  0  0  0  0  0  0  0  0  0
   -0.4159    0.0446    2.6829 C   0  0  2  0  0  0  0  0  0  0  0  0
   -0.7551   -0.3867    1.2623 C   0  0  0  0  0  0  0  0  0  0  0  0
   -0.0106   -1.0851    0.5774 O   0  0  0  0  0  0  0  0  0  0  0  0
    0.1168    1.4689    2.7060 C   0  0  0  0  0  0  0  0  0  0  0  0
    1.1183   -1.4145    2.5542 H   0  0  0  0  0  0  0  0  0  0  0  0
   -1.3088   -0.0350    3.3125 H   0  0  0  0  0  0  0  0  0  0  0  0
    1.0116    1.5681    2.0808 H   0  0  0  0  0  0  0  0  0  0  0  0
   -0.6289    2.1775    2.3307 H   0  0  0  0  0  0  0  0  0  0  0  0
    0.3882    1.7670    3.7245 H   0  0  0  0  0  0  0  0  0  0  0  0
   -1.9689    0.1350    0.8298 N   0  0  0  0  0  0  0  0  0  0  0  0
   -2.5039   -0.1183   -0.4830 C   0  0  2  0  0  0  0  0  0  0  0  0
   -2.0204   -1.4908   -0.9384 C   0  0  0  0  0  0  0  0  0  0  0  0
   -2.4938   -2.0803   -1.9077 O   0  0  0  0  0  0  0  0  0  0  0  0
   -2.1194    0.9787   -1.4705 C   0  0  0  0  0  0  0  0  0  0  0  0
   -0.7132    0.9741   -1.6893 O   0  0  0  0  0  0  0  0  0  0  0  0
   -2.5276    0.6894    1.4750 H   0  0  0  0  0  0  0  0  0  0  0  0
   -3.5940   -0.1456   -0.3718 H   0  0  0  0  0  0  0  0  0  0  0  0
   -2.4004    1.9662   -1.0904 H   0  0  0  0  0  0  0  0  0  0  0  0
   -2.6142    0.8198   -2.4346 H   0  0  0  0  0  0  0  0  0  0  0  0
   -0.4903    0.1005   -2.0483 H   0  0  0  0  0  0  0  0  0  0  0  0
   -0.9703   -1.9589   -0.1612 N   0  0  0  0  0  0  0  0  0  0  0  0
   -0.3162   -3.2227   -0.4092 C   0  0  2  0  0  0  0  0  0  0  0  0
   -0.3090   -3.4614   -1.9133 C   0  0  0  0  0  0  0  0  0  0  0  0
   -1.1040   -2.9239   -2.6816 O   0  0  0  0  0  0  0  0  0  0  0  0
   -1.0160   -4.3601    0.3184 C   0  0  0  0  0  0  0  0  0  0  0  0
   -0.6162   -1.3843    0.5978 H   0  0  0  0  0  0  0  0  0  0  0  0
    0.7138   -3.1216   -0.0500 H   0  0  0  0  0  0  0  0  0  0  0  0
   -2.0493   -4.4767   -0.0283 H   0  0  0  0  0  0  0  0  0  0  0  0
   -0.5023   -5.3128    0.1525 H   0  0  0  0  0  0  0  0  0  0  0  0
   -1.0465   -4.1724    1.3971 H   0  0  0  0  0  0  0  0  0  0  0  0
    0.6616   -4.3784   -2.2916 N   0  0  0  0  0  0  0  0  0  0  0  0
    0.8600   -4.7822   -3.6640 C   0  0  0  0  0  0  0  0  0  0  0  0
    1.2893   -4.7597   -1.5899 H   0  0  0  0  0  0  0  0  0  0  0  0
    0.2658   -5.6846   -3.8708 H   0  0  0  0  0  0  0  0  0  0  0  0
    0.5402   -3.9711   -4.3347 H   0  0  0  0  0  0  0  0  0  0  0  0
    1.9254   -4.9984   -3.8322 H   0  0  0  0  0  0  0  0  0  0  0  0
  1  3  1  0  0  0  0
  1  7  1  0  0  0  0
  1  2  2  0  0  0  0
 29 30  1  0  0  0  0
 30 38  1  0  0  0  0
 30 31  2  0  0  0  0
  8  9  1  0  0  0  0
  9 17  1  0  0  0  0
  9 10  2  0  0  0  0
 18 19  1  0  0  0  0
 19 28  1  0  0  0  0
 19 20  2  0  0  0  0
 29 32  1  0  0  0  0
  8 11  1  0  0  0  0
 38 39  1  0  0  0  0
 18 21  1  0  0  0  0
 21 22  1  0  0  0  0
 28 29  1  0  0  0  0
  7  8  1  0  0  0  0
 17 18  1  0  0  0  0
  3  4  1  0  0  0  0
  3  5  1  0  0  0  0
  3  6  1  0  0  0  0
 32 35  1  0  0  0  0
 32 36  1  0  0  0  0
 32 37  1  0  0  0  0
 11 14  1  0  0  0  0
 11 15  1  0  0  0  0
 11 16  1  0  0  0  0
 39 41  1  0  0  0  0
 39 42  1  0  0  0  0
 39 43  1  0  0  0  0
 21 25  1  0  0  0  0
 21 26  1  0  0  0  0
 29 34  1  0  0  0  0
  8 13  1  0  0  0  0
 18 24  1  0  0  0  0
 38 40  1  0  0  0  0
  7 12  1  0  0  0  0
 28 33  1  0  0  0  0
 17 23  1  0  0  0  0
 22 27  1  0  0  0  0
M  END
$$$$

  -OEChem-05262214473D

 43 42  0     1  0  0  0  0  0999 V2000
    0.7424   -1.0926    4.5665 C   0  0  0  0  0  0  0  0  0  0  0  0
    0.1409   -0.5364    5.4779 O   0  0  0  0  0  0  0  0  0  0  0  0
    1.7940   -2.1023    4.8871 C   0  0  0  0  0  0  0  0  0  0  0  0
    2.7935   -1.6502    4.9904 H   0  0  0  0  0  0  0  0  0  0  0  0
    1.6064   -2.6156    5.8438 H   0  0  0  0  0  0  0  0  0  0  0  0
    1.9156   -2.9078    4.1453 H   0  0  0  0  0  0  0  0  0  0  0  0
    0.5488   -0.8838    3.2109 N   0  0  0  0  0  0  0  0  0  0  0  0
   -0.4159    0.0446    2.6829 C   0  0  2  0  0  0  0  0  0  0  0  0
   -0.7551   -0.3867    1.2623 C   0  0  0  0  0  0  0  0  0  0  0  0
   -0.0106   -1.0851    0.5774 O   0  0  0  0  0  0  0  0  0  0  0  0
    0.1168    1.4689    2.7060 C   0  0  0  0  0  0  0  0  0  0  0  0
    1.1183   -1.4145    2.5542 H   0  0  0  0  0  0  0  0  0  0  0  0
   -1.3088   -0.0350    3.3125 H   0  0  0  0  0  0  0  0  0  0  0  0
    1.0116    1.5681    2.0808 H   0  0  0  0  0  0  0  0  0  0  0  0
   -0.6289    2.1775    2.3307 H   0  0  0  0  0  0  0  0  0  0  0  0
    0.3882    1.7670    3.7245 H   0  0  0  0  0  0  0  0  0  0  0  0
   -1.9689    0.1350    0.8298 N   0  0  0  0  0  0  0  0  0  0  0  0
   -2.5039   -0.1183   -0.4830 C   0  0  2  0  0  0  0  0  0  0  0  0
   -2.0204   -1.4908   -0.9384 C   0  0  0  0  0  0  0  0  0  0  0  0
   -2.2902   -1.9646   -2.0401 O   0  0  0  0  0  0  0  0  0  0  0  0
   -2.1194    0.9787   -1.4705 C   0  0  0  0  0  0  0  0  0  0  0  0
   -0.7132    0.9741   -1.6893 O   0  0  0  0  0  0  0  0  0  0  0  0
   -2.5276    0.6894    1.4750 H   0  0  0  0  0  0  0  0  0  0  0  0
   -3.5940   -0.1456   -0.3718 H   0  0  0  0  0  0  0  0  0  0  0  0
   -2.4004    1.9662   -1.0904 H   0  0  0  0  0  0  0  0  0  0  0  0
   -2.6142    0.8198   -2.4346 H   0  0  0  0  0  0  0  0  0  0  0  0
   -0.4903    0.1005   -2.0483 H   0  0  0  0  0  0  0  0  0  0  0  0
   -1.2177   -2.1039    0.0132 N   0  0  0  0  0  0  0  0  0  0  0  0
   -0.6104   -3.3984   -0.1921 C   0  0  2  0  0  0  0  0  0  0  0  0
   -0.2643   -3.5265   -1.6697 C   0  0  0  0  0  0  0  0  0  0  0  0
   -0.8171   -2.8673   -2.5477 O   0  0  0  0  0  0  0  0  0  0  0  0
   -1.5375   -4.5206    0.2484 C   0  0  0  0  0  0  0  0  0  0  0  0
   -1.0149   -1.6192    0.8825 H   0  0  0  0  0  0  0  0  0  0  0  0
    0.3099   -3.4137    0.4018 H   0  0  0  0  0  0  0  0  0  0  0  0
   -2.4651   -4.5212   -0.3355 H   0  0  0  0  0  0  0  0  0  0  0  0
   -1.0647   -5.4997    0.1187 H   0  0  0  0  0  0  0  0  0  0  0  0
   -1.8091   -4.4101    1.3037 H   0  0  0  0  0  0  0  0  0  0  0  0
    0.7040   -4.4945   -1.8969 N   0  0  0  0  0  0  0  0  0  0  0  0
    1.1931   -4.8129   -3.2180 C   0  0  0  0  0  0  0  0  0  0  0  0
    1.1209   -4.9791   -1.1075 H   0  0  0  0  0  0  0  0  0  0  0  0
    0.6050   -5.6426   -3.6372 H   0  0  0  0  0  0  0  0  0  0  0  0
    1.0963   -3.9302   -3.8673 H   0  0  0  0  0  0  0  0  0  0  0  0
    2.2509   -5.1081   -3.1558 H   0  0  0  0  0  0  0  0  0  0  0  0
  1  3  1  0  0  0  0
  1  7  1  0  0  0  0
  1  2  2  0  0  0  0
 29 30  1  0  0  0  0
 30 38  1  0  0  0  0
 30 31  2  0  0  0  0
  8  9  1  0  0  0  0
  9 17  1  0  0  0  0
  9 10  2  0  0  0  0
 18 19  1  0  0  0  0
 19 28  1  0  0  0  0
 19 20  2  0  0  0  0
 29 32  1  0  0  0  0
  8 11  1  0  0  0  0
 38 39  1  0  0  0  0
 18 21  1  0  0  0  0
 21 22  1  0  0  0  0
 28 29  1  0  0  0  0
  7  8  1  0  0  0  0
 17 18  1  0  0  0  0
  3  4  1  0  0  0  0
  3  5  1  0  0  0  0
  3  6  1  0  0  0  0
 32 35  1  0  0  0  0
 32 36  1  0  0  0  0
 32 37  1  0  0  0  0
 11 14  1  0  0  0  0
 11 15  1  0  0  0  0
 11 16  1  0  0  0  0
 39 41  1  0  0  0  0
 39 42  1  0  0  0  0
 39 43  1  0  0  0  0
 21 25  1  0  0  0  0
 21 26  1  0  0  0  0
 29 34  1  0  0  0  0
  8 13  1  0  0  0  0
 18 24  1  0  0  0  0
 38 40  1  0  0  0  0
  7 12  1  0  0  0  0
 28 33  1  0  0  0  0
 17 23  1  0  0  0  0
 22 27  1  0  0  0  0
M  END
$$$$

  -OEChem-05262214473D

 43 42  0     1  0  0  0  0  0999 V2000
    0.7424   -1.0926    4.5665 C   0  0  0  0  0  0  0  0  0  0  0  0
    0.1409   -0.5364    5.4779 O   0  0  0  0  0  0  0  0  0  0  0  0
    1.7940   -2.1023    4.8871 C   0  0  0  0  0  0  0  0  0  0  0  0
    2.7935   -1.6502    4.9904 H   0  0  0  0  0  0  0  0  0  0  0  0
    1.6064   -2.6156    5.8438 H   0  0  0  0  0  0  0  0  0  0  0  0
    1.9156   -2.9078    4.1453 H   0  0  0  0  0  0  0  0  0  0  0  0
    0.5488   -0.8838    3.2109 N   0  0  0  0  0  0  0  0  0  0  0  0
   -0.4159    0.0446    2.6829 C   0  0  2  0  0  0  0  0  0  0  0  0
   -0.7551   -0.3867    1.2623 C   0  0  0  0  0  0  0  0  0  0  0  0
   -0.0106   -1.0851    0.5774 O   0  0  0  0  0  0  0  0  0  0  0  0
    0.1168    1.4689    2.7060 C   0  0  0  0  0  0  0  0  0  0  0  0
    1.1183   -1.4145    2.5542 H   0  0  0  0  0  0  0  0  0  0  0  0
   -1.3088   -0.0350    3.3125 H   0  0  0  0  0  0  0  0  0  0  0  0
    1.0116    1.5681    2.0808 H   0  0  0  0  0  0  0  0  0  0  0  0
   -0.6289    2.1775    2.3307 H   0  0  0  0  0  0  0  0  0  0  0  0
    0.3882    1.7670    3.7245 H   0  0  0  0  0  0  0  0  0  0  0  0
   -1.9689    0.1350    0.8298 N   0  0  0  0  0  0  0  0  0  0  0  0
   -2.5039   -0.1183   -0.4830 C   0  0  2  0  0  0  0  0  0  0  0  0
   -2.0204   -1.4908   -0.9384 C   0  0  0  0  0  0  0  0  0  0  0  0
   -2.0537   -1.8577   -2.1112 O   0  0  0  0  0  0  0  0  0  0  0  0
   -2.1194    0.9787   -1.4705 C   0  0  0  0  0  0  0  0  0  0  0  0
   -0.7132    0.9741   -1.6893 O   0  0  0  0  0  0  0  0  0  0  0  0
   -2.5276    0.6894    1.4750 H   0  0  0  0  0  0  0  0  0  0  0  0
   -3.5940   -0.1456   -0.3718 H   0  0  0  0  0  0  0  0  0  0  0  0
   -2.4004    1.9662   -1.0904 H   0  0  0  0  0  0  0  0  0  0  0  0
   -2.6142    0.8198   -2.4346 H   0  0  0  0  0  0  0  0  0  0  0  0
   -0.4903    0.1005   -2.0483 H   0  0  0  0  0  0  0  0  0  0  0  0
   -1.5084   -2.2392    0.1122 N   0  0  0  0  0  0  0  0  0  0  0  0
   -0.9588   -3.5632   -0.0653 C   0  0  2  0  0  0  0  0  0  0  0  0
   -0.2830   -3.6128   -1.4292 C   0  0  0  0  0  0  0  0  0  0  0  0
   -0.5669   -2.8457   -2.3469 O   0  0  0  0  0  0  0  0  0  0  0  0
   -2.0373   -4.6295    0.0461 C   0  0  0  0  0  0  0  0  0  0  0  0
   -1.4844   -1.8386    1.0453 H   0  0  0  0  0  0  0  0  0  0  0  0
   -0.2080   -3.7018    0.7202 H   0  0  0  0  0  0  0  0  0  0  0  0
   -2.7986   -4.5069   -0.7329 H   0  0  0  0  0  0  0  0  0  0  0  0
   -1.6145   -5.6340   -0.0603 H   0  0  0  0  0  0  0  0  0  0  0  0
   -2.5424   -4.5731    1.0163 H   0  0  0  0  0  0  0  0  0  0  0  0
    0.6439   -4.6422   -1.5152 N   0  0  0  0  0  0  0  0  0  0  0  0
    1.4086   -4.9048   -2.7120 C   0  0  0  0  0  0  0  0  0  0  0  0
    0.8289   -5.2175   -0.6988 H   0  0  0  0  0  0  0  0  0  0  0  0
    0.8815   -5.6474   -3.3290 H   0  0  0  0  0  0  0  0  0  0  0  0
    1.5278   -3.9721   -3.2829 H   0  0  0  0  0  0  0  0  0  0  0  0
    2.3994   -5.2947   -2.4357 H   0  0  0  0  0  0  0  0  0  0  0  0
  1  3  1  0  0  0  0
  1  7  1  0  0  0  0
  1  2  2  0  0  0  0
 29 30  1  0  0  0  0
 30 38  1  0  0  0  0
 30 31  2  0  0  0  0
  8  9  1  0  0  0  0
  9 17  1  0  0  0  0
  9 10  2  0  0  0  0
 18 19  1  0  0  0  0
 19 28  1  0  0  0  0
 19 20  2  0  0  0  0
 29 32  1  0  0  0  0
  8 11  1  0  0  0  0
 38 39  1  0  0  0  0
 18 21  1  0  0  0  0
 21 22  1  0  0  0  0
 28 29  1  0  0  0  0
  7  8  1  0  0  0  0
 17 18  1  0  0  0  0
  3  4  1  0  0  0  0
  3  5  1  0  0  0  0
  3  6  1  0  0  0  0
 32 35  1  0  0  0  0
 32 36  1  0  0  0  0
 32 37  1  0  0  0  0
 11 14  1  0  0  0  0
 11 15  1  0  0  0  0
 11 16  1  0  0  0  0
 39 41  1  0  0  0  0
 39 42  1  0  0  0  0
 39 43  1  0  0  0  0
 21 25  1  0  0  0  0
 21 26  1  0  0  0  0
 29 34  1  0  0  0  0
  8 13  1  0  0  0  0
 18 24  1  0  0  0  0
 38 40  1  0  0  0  0
  7 12  1  0  0  0  0
 28 33  1  0  0  0  0
 17 23  1  0  0  0  0
 22 27  1  0  0  0  0
M  END
$$$$

  -OEChem-05262214473D

 43 42  0     1  0  0  0  0  0999 V2000
    0.7424   -1.0926    4.5665 C   0  0  0  0  0  0  0  0  0  0  0  0
    0.1409   -0.5364    5.4779 O   0  0  0  0  0  0  0  0  0  0  0  0
    1.7940   -2.1023    4.8871 C   0  0  0  0  0  0  0  0  0  0  0  0
    2.7935   -1.6502    4.9904 H   0  0  0  0  0  0  0  0  0  0  0  0
    1.6064   -2.6156    5.8438 H   0  0  0  0  0  0  0  0  0  0  0  0
    1.9156   -2.9078    4.1453 H   0  0  0  0  0  0  0  0  0  0  0  0
    0.5488   -0.8838    3.2109 N   0  0  0  0  0  0  0  0  0  0  0  0
   -0.4159    0.0446    2.6829 C   0  0  2  0  0  0  0  0  0  0  0  0
   -0.7551   -0.3867    1.2623 C   0  0  0  0  0  0  0  0  0  0  0  0
   -0.0106   -1.0851    0.5774 O   0  0  0  0  0  0  0  0  0  0  0  0
    0.1168    1.4689    2.7060 C   0  0  0  0  0  0  0  0  0  0  0  0
    1.1183   -1.4145    2.5542 H   0  0  0  0  0  0  0  0  0  0  0  0
   -1.3088   -0.0350    3.3125 H   0  0  0  0  0  0  0  0  0  0  0  0
    1.0116    1.5681    2.0808 H   0  0  0  0  0  0  0  0  0  0  0  0
   -0.6289    2.1775    2.3307 H   0  0  0  0  0  0  0  0  0  0  0  0
    0.3882    1.7670    3.7245 H   0  0  0  0  0  0  0  0  0  0  0  0
   -1.9689    0.1350    0.8298 N   0  0  0  0  0  0  0  0  0  0  0  0
   -2.5039   -0.1183   -0.4830 C   0  0  2  0  0  0  0  0  0  0  0  0
   -2.0204   -1.4908   -0.9384 C   0  0  0  0  0  0  0  0  0  0  0  0
   -1.8004   -1.7669   -2.1159 O   0  0  0  0  0  0  0  0  0  0  0  0
   -2.1194    0.9787   -1.4705 C   0  0  0  0  0  0  0  0  0  0  0  0
   -0.7132    0.9741   -1.6893 O   0  0  0  0  0  0  0  0  0  0  0  0
   -2.5276    0.6894    1.4750 H   0  0  0  0  0  0  0  0  0  0  0  0
   -3.5940   -0.1456   -0.3718 H   0  0  0  0  0  0  0  0  0  0  0  0
   -2.4004    1.9662   -1.0904 H   0  0  0  0  0  0  0  0  0  0  0  0
   -2.6142    0.8198   -2.4346 H   0  0  0  0  0  0  0  0  0  0  0  0
   -0.4903    0.1005   -2.0483 H   0  0  0  0  0  0  0  0  0  0  0  0
   -1.8228   -2.3555    0.1289 N   0  0  0  0  0  0  0  0  0  0  0  0
   -1.3376   -3.7058   -0.0376 C   0  0  2  0  0  0  0  0  0  0  0  0
   -0.3637   -3.7145   -1.2084 C   0  0  0  0  0  0  0  0  0  0  0  0
   -0.3703   -2.8608   -2.0928 O   0  0  0  0  0  0  0  0  0  0  0  0
   -2.4814   -4.6795   -0.2747 C   0  0  0  0  0  0  0  0  0  0  0  0
   -1.9929   -2.0277    1.0751 H   0  0  0  0  0  0  0  0  0  0  0  0
   -0.8047   -3.9662    0.8834 H   0  0  0  0  0  0  0  0  0  0  0  0
   -3.0271   -4.4346   -1.1932 H   0  0  0  0  0  0  0  0  0  0  0  0
   -2.1143   -5.7066   -0.3723 H   0  0  0  0  0  0  0  0  0  0  0  0
   -3.1964   -4.6502    0.5545 H   0  0  0  0  0  0  0  0  0  0  0  0
    0.4856   -4.8116   -1.1727 N   0  0  0  0  0  0  0  0  0  0  0  0
    1.4918   -5.0518   -2.1806 C   0  0  0  0  0  0  0  0  0  0  0  0
    0.4332   -5.4589   -0.3917 H   0  0  0  0  0  0  0  0  0  0  0  0
    1.0764   -5.6988   -2.9674 H   0  0  0  0  0  0  0  0  0  0  0  0
    1.8051   -4.0939   -2.6213 H   0  0  0  0  0  0  0  0  0  0  0  0
    2.3606   -5.5456   -1.7209 H   0  0  0  0  0  0  0  0  0  0  0  0
  1  3  1  0  0  0  0
  1  7  1  0  0  0  0
  1  2  2  0  0  0  0
 29 30  1  0  0  0  0
 30 38  1  0  0  0  0
 30 31  2  0  0  0  0
  8  9  1  0  0  0  0
  9 17  1  0  0  0  0
  9 10  2  0  0  0  0
 18 19  1  0  0  0  0
 19 28  1  0  0  0  0
 19 20  2  0  0  0  0
 29 32  1  0  0  0  0
  8 11  1  0  0  0  0
 38 39  1  0  0  0  0
 18 21  1  0  0  0  0
 21 22  1  0  0  0  0
 28 29  1  0  0  0  0
  7  8  1  0  0  0  0
 17 18  1  0  0  0  0
  3  4  1  0  0  0  0
  3  5  1  0  0  0  0
  3  6  1  0  0  0  0
 32 35  1  0  0  0  0
 32 36  1  0  0  0  0
 32 37  1  0  0  0  0
 11 14  1  0  0  0  0
 11 15  1  0  0  0  0
 11 16  1  0  0  0  0
 39 41  1  0  0  0  0
 39 42  1  0  0  0  0
 39 43  1  0  0  0  0
 21 25  1  0  0  0  0
 21 26  1  0  0  0  0
 29 34  1  0  0  0  0
  8 13  1  0  0  0  0
 18 24  1  0  0  0  0
 38 40  1  0  0  0  0
  7 12  1  0  0  0  0
 28 33  1  0  0  0  0
 17 23  1  0  0  0  0
 22 27  1  0  0  0  0
M  END
$$$$

  -OEChem-05262214473D

 43 42  0     1  0  0  0  0  0999 V2000
    0.7424   -1.0926    4.5665 C   0  0  0  0  0  0  0  0  0  0  0  0
    0.1409   -0.5364    5.4779 O   0  0  0  0  0  0  0  0  0  0  0  0
    1.7940   -2.1023    4.8871 C   0  0  0  0  0  0  0  0  0  0  0  0
    2.7935   -1.6502    4.9904 H   0  0  0  0  0  0  0  0  0  0  0  0
    1.6064   -2.6156    5.8438 H   0  0  0  0  0  0  0  0  0  0  0  0
    1.9156   -2.9078    4.1453 H   0  0  0  0  0  0  0  0  0  0  0  0
    0.5488   -0.8838    3.2109 N   0  0  0  0  0  0  0  0  0  0  0  0
   -0.4159    0.0446    2.6829 C   0  0  2  0  0  0  0  0  0  0  0  0
   -0.7551   -0.3867    1.2623 C   0  0  0  0  0  0  0  0  0  0  0  0
   -0.0106   -1.0851    0.5774 O   0  0  0  0  0  0  0  0  0  0  0  0
    0.1168    1.4689    2.7060 C   0  0  0  0  0  0  0  0  0  0  0  0
    1.1183   -1.4145    2.5542 H   0  0  0  0  0  0  0  0  0  0  0  0
   -1.3088   -0.0350    3.3125 H   0  0  0  0  0  0  0  0  0  0  0  0
    1.0116    1.5681    2.0808 H   0  0  0  0  0  0  0  0  0  0  0  0
   -0.6289    2.1775    2.3307 H   0  0  0  0  0  0  0  0  0  0  0  0
    0.3882    1.7670    3.7245 H   0  0  0  0  0  0  0  0  0  0  0  0
   -1.9689    0.1350    0.8298 N   0  0  0  0  0  0  0  0  0  0  0  0
   -2.5039   -0.1183   -0.4830 C   0  0  2  0  0  0  0  0  0  0  0  0
   -2.0204   -1.4908   -0.9384 C   0  0  0  0  0  0  0  0  0  0  0  0
   -1.5477   -1.6984   -2.0540 O   0  0  0  0  0  0  0  0  0  0  0  0
   -2.1194    0.9787   -1.4705 C   0  0  0  0  0  0  0  0  0  0  0  0
   -0.7132    0.9741   -1.6893 O   0  0  0  0  0  0  0  0  0  0  0  0
   -2.5276    0.6894    1.4750 H   0  0  0  0  0  0  0  0  0  0  0  0
   -3.5940   -0.1456   -0.3718 H   0  0  0  0  0  0  0  0  0  0  0  0
   -2.4004    1.9662   -1.0904 H   0  0  0  0  0  0  0  0  0  0  0  0
   -2.6142    0.8198   -2.4346 H   0  0  0  0  0  0  0  0  0  0  0  0
   -0.4903    0.1005   -2.0483 H   0  0  0  0  0  0  0  0  0  0  0  0
   -2.1394   -2.4449    0.0623 N   0  0  0  0  0  0  0  0  0  0  0  0
   -1.7209   -3.8166   -0.1107 C   0  0  2  0  0  0  0  0  0  0  0  0
   -0.5009   -3.8246   -1.0223 C   0  0  0  0  0  0  0  0  0  0  0  0
   -0.2407   -2.9113   -1.8029 O   0  0  0  0  0  0  0  0  0  0  0  0
   -2.8395   -4.6672   -0.6922 C   0  0  0  0  0  0  0  0  0  0  0  0
   -2.5056   -2.1734    0.9700 H   0  0  0  0  0  0  0  0  0  0  0  0
   -1.4395   -4.1888    0.8804 H   0  0  0  0  0  0  0  0  0  0  0  0
   -3.1349   -4.3094   -1.6852 H   0  0  0  0  0  0  0  0  0  0  0  0
   -2.5300   -5.7124   -0.7960 H   0  0  0  0  0  0  0  0  0  0  0  0
   -3.7265   -4.6363   -0.0502 H   0  0  0  0  0  0  0  0  0  0  0  0
    0.2397   -4.9912   -0.8927 N   0  0  0  0  0  0  0  0  0  0  0  0
    1.4369   -5.2439   -1.6601 C   0  0  0  0  0  0  0  0  0  0  0  0
   -0.0393   -5.6866   -0.2069 H   0  0  0  0  0  0  0  0  0  0  0  0
    1.1764   -5.7931   -2.5768 H   0  0  0  0  0  0  0  0  0  0  0  0
    1.9095   -4.2873   -1.9277 H   0  0  0  0  0  0  0  0  0  0  0  0
    2.1372   -5.8436   -1.0600 H   0  0  0  0  0  0  0  0  0  0  0  0
  1  3  1  0  0  0  0
  1  7  1  0  0  0  0
  1  2  2  0  0  0  0
 29 30  1  0  0  0  0
 30 38  1  0  0  0  0
 30 31  2  0  0  0  0
  8  9  1  0  0  0  0
  9 17  1  0  0  0  0
  9 10  2  0  0  0  0
 18 19  1  0  0  0  0
 19 28  1  0  0  0  0
 19 20  2  0  0  0  0
 29 32  1  0  0  0  0
  8 11  1  0  0  0  0
 38 39  1  0  0  0  0
 18 21  1  0  0  0  0
 21 22  1  0  0  0  0
 28 29  1  0  0  0  0
  7  8  1  0  0  0  0
 17 18  1  0  0  0  0
  3  4  1  0  0  0  0
  3  5  1  0  0  0  0
  3  6  1  0  0  0  0
 32 35  1  0  0  0  0
 32 36  1  0  0  0  0
 32 37  1  0  0  0  0
 11 14  1  0  0  0  0
 11 15  1  0  0  0  0
 11 16  1  0  0  0  0
 39 41  1  0  0  0  0
 39 42  1  0  0  0  0
 39 43  1  0  0  0  0
 21 25  1  0  0  0  0
 21 26  1  0  0  0  0
 29 34  1  0  0  0  0
  8 13  1  0  0  0  0
 18 24  1  0  0  0  0
 38 40  1  0  0  0  0
  7 12  1  0  0  0  0
 28 33  1  0  0  0  0
 17 23  1  0  0  0  0
 22 27  1  0  0  0  0
M  END
$$$$

  -OEChem-05262214473D

 43 42  0     1  0  0  0  0  0999 V2000
    0.7424   -1.0926    4.5665 C   0  0  0  0  0  0  0  0  0  0  0  0
    0.1409   -0.5364    5.4779 O   0  0  0  0  0  0  0  0  0  0  0  0
    1.7940   -2.1023    4.8871 C   0  0  0  0  0  0  0  0  0  0  0  0
    2.7935   -1.6502    4.9904 H   0  0  0  0  0  0  0  0  0  0  0  0
    1.6064   -2.6156    5.8438 H   0  0  0  0  0  0  0  0  0  0  0  0
    1.9156   -2.9078    4.1453 H   0  0  0  0  0  0  0  0  0  0  0  0
    0.5488   -0.8838    3.2109 N   0  0  0  0  0  0  0  0  0  0  0  0
   -0.4159    0.0446    2.6829 C   0  0  2  0  0  0  0  0  0  0  0  0
   -0.7551   -0.3867    1.2623 C   0  0  0  0  0  0  0  0  0  0  0  0
   -0.0106   -1.0851    0.5774 O   0  0  0  0  0  0  0  0  0  0  0  0
    0.1168    1.4689    2.7060 C   0  0  0  0  0  0  0  0  0  0  0  0
    1.1183   -1.4145    2.5542 H   0  0  0  0  0  0  0  0  0  0  0  0
   -1.3088   -0.0350    3.3125 H   0  0  0  0  0  0  0  0  0  0  0  0
    1.0116    1.5681    2.0808 H   0  0  0  0  0  0  0  0  0  0  0  0
   -0.6289    2.1775    2.3307 H   0  0  0  0  0  0  0  0  0  0  0  0
    0.3882    1.7670    3.7245 H   0  0  0  0  0  0  0  0  0  0  0  0
   -1.9689    0.1350    0.8298 N   0  0  0  0  0  0  0  0  0  0  0  0
   -2.5039   -0.1183   -0.4830 C   0  0  2  0  0  0  0  0  0  0  0  0
   -2.0204   -1.4908   -0.9384 C   0  0  0  0  0  0  0  0  0  0  0  0
   -1.3127   -1.6569   -1.9297 O   0  0  0  0  0  0  0  0  0  0  0  0
   -2.1194    0.9787   -1.4705 C   0  0  0  0  0  0  0  0  0  0  0  0
   -0.7132    0.9741   -1.6893 O   0  0  0  0  0  0  0  0  0  0  0  0
   -2.5276    0.6894    1.4750 H   0  0  0  0  0  0  0  0  0  0  0  0
   -3.5940   -0.1456   -0.3718 H   0  0  0  0  0  0  0  0  0  0  0  0
   -2.4004    1.9662   -1.0904 H   0  0  0  0  0  0  0  0  0  0  0  0
   -2.6142    0.8198   -2.4346 H   0  0  0  0  0  0  0  0  0  0  0  0
   -0.4903    0.1005   -2.0483 H   0  0  0  0  0  0  0  0  0  0  0  0
   -2.4366   -2.5013   -0.0832 N   0  0  0  0  0  0  0  0  0  0  0  0
   -2.0827   -3.8879   -0.2798 C   0  0  2  0  0  0  0  0  0  0  0  0
   -0.6853   -3.9356   -0.8835 C   0  0  0  0  0  0  0  0  0  0  0  0
   -0.1871   -2.9940   -1.4968 O   0  0  0  0  0  0  0  0  0  0  0  0
   -3.0871   -4.5933   -1.1778 C   0  0  0  0  0  0  0  0  0  0  0  0
   -2.9876   -2.2659    0.7370 H   0  0  0  0  0  0  0  0  0  0  0  0
   -2.0692   -4.3545    0.7112 H   0  0  0  0  0  0  0  0  0  0  0  0
   -3.1148   -4.1397   -2.1752 H   0  0  0  0  0  0  0  0  0  0  0  0
   -2.8333   -5.6512   -1.3027 H   0  0  0  0  0  0  0  0  0  0  0  0
   -4.0965   -4.5323   -0.7567 H   0  0  0  0  0  0  0  0  0  0  0  0
   -0.0768   -5.1685   -0.6942 N   0  0  0  0  0  0  0  0  0  0  0  0
    1.2479   -5.4678   -1.1858 C   0  0  0  0  0  0  0  0  0  0  0  0
   -0.5563   -5.8852   -0.1573 H   0  0  0  0  0  0  0  0  0  0  0  0
    1.1747   -5.9240   -2.1840 H   0  0  0  0  0  0  0  0  0  0  0  0
    1.8338   -4.5390   -1.2492 H   0  0  0  0  0  0  0  0  0  0  0  0
    1.7444   -6.1683   -0.4982 H   0  0  0  0  0  0  0  0  0  0  0  0
  1  3  1  0  0  0  0
  1  7  1  0  0  0  0
  1  2  2  0  0  0  0
 29 30  1  0  0  0  0
 30 38  1  0  0  0  0
 30 31  2  0  0  0  0
  8  9  1  0  0  0  0
  9 17  1  0  0  0  0
  9 10  2  0  0  0  0
 18 19  1  0  0  0  0
 19 28  1  0  0  0  0
 19 20  2  0  0  0  0
 29 32  1  0  0  0  0
  8 11  1  0  0  0  0
 38 39  1  0  0  0  0
 18 21  1  0  0  0  0
 21 22  1  0  0  0  0
 28 29  1  0  0  0  0
  7  8  1  0  0  0  0
 17 18  1  0  0  0  0
  3  4  1  0  0  0  0
  3  5  1  0  0  0  0
  3  6  1  0  0  0  0
 32 35  1  0  0  0  0
 32 36  1  0  0  0  0
 32 37  1  0  0  0  0
 11 14  1  0  0  0  0
 11 15  1  0  0  0  0
 11 16  1  0  0  0  0
 39 41  1  0  0  0  0
 39 42  1  0  0  0  0
 39 43  1  0  0  0  0
 21 25  1  0  0  0  0
 21 26  1  0  0  0  0
 29 34  1  0  0  0  0
  8 13  1  0  0  0  0
 18 24  1  0  0  0  0
 38 40  1  0  0  0  0
  7 12  1  0  0  0  0
 28 33  1  0  0  0  0
 17 23  1  0  0  0  0
 22 27  1  0  0  0  0
M  END
$$$$

  -OEChem-05262214473D

 43 42  0     1  0  0  0  0  0999 V2000
    0.7424   -1.0926    4.5665 C   0  0  0  0  0  0  0  0  0  0  0  0
    0.1409   -0.5364    5.4779 O   0  0  0  0  0  0  0  0  0  0  0  0
    1.7940   -2.1023    4.8871 C   0  0  0  0  0  0  0  0  0  0  0  0
    2.7935   -1.6502    4.9904 H   0  0  0  0  0  0  0  0  0  0  0  0
    1.6064   -2.6156    5.8438 H   0  0  0  0  0  0  0  0  0  0  0  0
    1.9156   -2.9078    4.1453 H   0  0  0  0  0  0  0  0  0  0  0  0
    0.5488   -0.8838    3.2109 N   0  0  0  0  0  0  0  0  0  0  0  0
   -0.4159    0.0446    2.6829 C   0  0  2  0  0  0  0  0  0  0  0  0
   -0.7551   -0.3867    1.2623 C   0  0  0  0  0  0  0  0  0  0  0  0
   -0.0106   -1.0851    0.5774 O   0  0  0  0  0  0  0  0  0  0  0  0
    0.1168    1.4689    2.7060 C   0  0  0  0  0  0  0  0  0  0  0  0
    1.1183   -1.4145    2.5542 H   0  0  0  0  0  0  0  0  0  0  0  0
   -1.3088   -0.0350    3.3125 H   0  0  0  0  0  0  0  0  0  0  0  0
    1.0116    1.5681    2.0808 H   0  0  0  0  0  0  0  0  0  0  0  0
   -0.6289    2.1775    2.3307 H   0  0  0  0  0  0  0  0  0  0  0  0
    0.3882    1.7670    3.7245 H   0  0  0  0  0  0  0  0  0  0  0  0
   -1.9689    0.1350    0.8298 N   0  0  0  0  0  0  0  0  0  0  0  0
   -2.5039   -0.1183   -0.4830 C   0  0  2  0  0  0  0  0  0  0  0  0
   -2.0204   -1.4908   -0.9384 C   0  0  0  0  0  0  0  0  0  0  0  0
   -1.1115   -1.6451   -1.7515 O   0  0  0  0  0  0  0  0  0  0  0  0
   -2.1194    0.9787   -1.4705 C   0  0  0  0  0  0  0  0  0  0  0  0
   -0.7132    0.9741   -1.6893 O   0  0  0  0  0  0  0  0  0  0  0  0
   -2.5276    0.6894    1.4750 H   0  0  0  0  0  0  0  0  0  0  0  0
   -3.5940   -0.1456   -0.3718 H   0  0  0  0  0  0  0  0  0  0  0  0
   -2.4004    1.9662   -1.0904 H   0  0  0  0  0  0  0  0  0  0  0  0
   -2.6142    0.8198   -2.4346 H   0  0  0  0  0  0  0  0  0  0  0  0
   -0.4903    0.1005   -2.0483 H   0  0  0  0  0  0  0  0  0  0  0  0
   -2.6941   -2.5209   -0.2975 N   0  0  0  0  0  0  0  0  0  0  0  0
   -2.3983   -3.9150   -0.5333 C   0  0  2  0  0  0  0  0  0  0  0  0
   -0.9044   -4.0400   -0.8016 C   0  0  0  0  0  0  0  0  0  0  0  0
   -0.2129   -3.1031   -1.1954 O   0  0  0  0  0  0  0  0  0  0  0  0
   -3.2075   -4.4630   -1.6985 C   0  0  0  0  0  0  0  0  0  0  0  0
   -3.4060   -2.2989    0.3921 H   0  0  0  0  0  0  0  0  0  0  0  0
   -2.6508   -4.4520    0.3876 H   0  0  0  0  0  0  0  0  0  0  0  0
   -2.9681   -3.9372   -2.6300 H   0  0  0  0  0  0  0  0  0  0  0  0
   -3.0034   -5.5270   -1.8577 H   0  0  0  0  0  0  0  0  0  0  0  0
   -4.2813   -4.3452   -1.5168 H   0  0  0  0  0  0  0  0  0  0  0  0
   -0.4426   -5.3317   -0.5908 N   0  0  0  0  0  0  0  0  0  0  0  0
    0.9374   -5.7085   -0.7900 C   0  0  0  0  0  0  0  0  0  0  0  0
   -1.0825   -6.0411   -0.2461 H   0  0  0  0  0  0  0  0  0  0  0  0
    1.0715   -6.0826   -1.8158 H   0  0  0  0  0  0  0  0  0  0  0  0
    1.5831   -4.8321   -0.6322 H   0  0  0  0  0  0  0  0  0  0  0  0
    1.2089   -6.4978   -0.0736 H   0  0  0  0  0  0  0  0  0  0  0  0
  1  3  1  0  0  0  0
  1  7  1  0  0  0  0
  1  2  2  0  0  0  0
 29 30  1  0  0  0  0
 30 38  1  0  0  0  0
 30 31  2  0  0  0  0
  8  9  1  0  0  0  0
  9 17  1  0  0  0  0
  9 10  2  0  0  0  0
 18 19  1  0  0  0  0
 19 28  1  0  0  0  0
 19 20  2  0  0  0  0
 29 32  1  0  0  0  0
  8 11  1  0  0  0  0
 38 39  1  0  0  0  0
 18 21  1  0  0  0  0
 21 22  1  0  0  0  0
 28 29  1  0  0  0  0
  7  8  1  0  0  0  0
 17 18  1  0  0  0  0
  3  4  1  0  0  0  0
  3  5  1  0  0  0  0
  3  6  1  0  0  0  0
 32 35  1  0  0  0  0
 32 36  1  0  0  0  0
 32 37  1  0  0  0  0
 11 14  1  0  0  0  0
 11 15  1  0  0  0  0
 11 16  1  0  0  0  0
 39 41  1  0  0  0  0
 39 42  1  0  0  0  0
 39 43  1  0  0  0  0
 21 25  1  0  0  0  0
 21 26  1  0  0  0  0
 29 34  1  0  0  0  0
  8 13  1  0  0  0  0
 18 24  1  0  0  0  0
 38 40  1  0  0  0  0
  7 12  1  0  0  0  0
 28 33  1  0  0  0  0
 17 23  1  0  0  0  0
 22 27  1  0  0  0  0
M  END
$$$$

  -OEChem-05262214473D

 43 42  0     1  0  0  0  0  0999 V2000
    0.7424   -1.0926    4.5665 C   0  0  0  0  0  0  0  0  0  0  0  0
    0.1409   -0.5364    5.4779 O   0  0  0  0  0  0  0  0  0  0  0  0
    1.7940   -2.1023    4.8871 C   0  0  0  0  0  0  0  0  0  0  0  0
    2.7935   -1.6502    4.9904 H   0  0  0  0  0  0  0  0  0  0  0  0
    1.6064   -2.6156    5.8438 H   0  0  0  0  0  0  0  0  0  0  0  0
    1.9156   -2.9078    4.1453 H   0  0  0  0  0  0  0  0  0  0  0  0
    0.5488   -0.8838    3.2109 N   0  0  0  0  0  0  0  0  0  0  0  0
   -0.4159    0.0446    2.6829 C   0  0  2  0  0  0  0  0  0  0  0  0
   -0.7551   -0.3867    1.2623 C   0  0  0  0  0  0  0  0  0  0  0  0
   -0.0106   -1.0851    0.5774 O   0  0  0  0  0  0  0  0  0  0  0  0
    0.1168    1.4689    2.7060 C   0  0  0  0  0  0  0  0  0  0  0  0
    1.1183   -1.4145    2.5542 H   0  0  0  0  0  0  0  0  0  0  0  0
   -1.3088   -0.0350    3.3125 H   0  0  0  0  0  0  0  0  0  0  0  0
    1.0116    1.5681    2.0808 H   0  0  0  0  0  0  0  0  0  0  0  0
   -0.6289    2.1775    2.3307 H   0  0  0  0  0  0  0  0  0  0  0  0
    0.3882    1.7670    3.7245 H   0  0  0  0  0  0  0  0  0  0  0  0
   -1.9689    0.1350    0.8298 N   0  0  0  0  0  0  0  0  0  0  0  0
   -2.5039   -0.1183   -0.4830 C   0  0  2  0  0  0  0  0  0  0  0  0
   -2.0204   -1.4908   -0.9384 C   0  0  0  0  0  0  0  0  0  0  0  0
   -0.9577   -1.6639   -1.5315 O   0  0  0  0  0  0  0  0  0  0  0  0
   -2.1194    0.9787   -1.4705 C   0  0  0  0  0  0  0  0  0  0  0  0
   -0.7132    0.9741   -1.6893 O   0  0  0  0  0  0  0  0  0  0  0  0
   -2.5276    0.6894    1.4750 H   0  0  0  0  0  0  0  0  0  0  0  0
   -3.5940   -0.1456   -0.3718 H   0  0  0  0  0  0  0  0  0  0  0  0
   -2.4004    1.9662   -1.0904 H   0  0  0  0  0  0  0  0  0  0  0  0
   -2.6142    0.8198   -2.4346 H   0  0  0  0  0  0  0  0  0  0  0  0
   -0.4903    0.1005   -2.0483 H   0  0  0  0  0  0  0  0  0  0  0  0
   -2.8944   -2.5024   -0.5662 N   0  0  0  0  0  0  0  0  0  0  0  0
   -2.6462   -3.8960   -0.8539 C   0  0  2  0  0  0  0  0  0  0  0  0
   -1.1432   -4.1306   -0.7820 C   0  0  0  0  0  0  0  0  0  0  0  0
   -0.3165   -3.2312   -0.9193 O   0  0  0  0  0  0  0  0  0  0  0  0
   -3.1924   -4.2850   -2.2188 C   0  0  0  0  0  0  0  0  0  0  0  0
   -3.7324   -2.2701   -0.0413 H   0  0  0  0  0  0  0  0  0  0  0  0
   -3.1448   -4.4747   -0.0686 H   0  0  0  0  0  0  0  0  0  0  0  0
   -2.7048   -3.7155   -3.0184 H   0  0  0  0  0  0  0  0  0  0  0  0
   -3.0289   -5.3483   -2.4233 H   0  0  0  0  0  0  0  0  0  0  0  0
   -4.2682   -4.0878   -2.2787 H   0  0  0  0  0  0  0  0  0  0  0  0
   -0.8325   -5.4695   -0.5895 N   0  0  0  0  0  0  0  0  0  0  0  0
    0.5267   -5.9494   -0.4999 C   0  0  0  0  0  0  0  0  0  0  0  0
   -1.5823   -6.1438   -0.4672 H   0  0  0  0  0  0  0  0  0  0  0  0
    0.8737   -6.2580   -1.4971 H   0  0  0  0  0  0  0  0  0  0  0  0
    1.1746   -5.1464   -0.1186 H   0  0  0  0  0  0  0  0  0  0  0  0
    0.5674   -6.8095    0.1847 H   0  0  0  0  0  0  0  0  0  0  0  0
  1  3  1  0  0  0  0
  1  7  1  0  0  0  0
  1  2  2  0  0  0  0
 29 30  1  0  0  0  0
 30 38  1  0  0  0  0
 30 31  2  0  0  0  0
  8  9  1  0  0  0  0
  9 17  1  0  0  0  0
  9 10  2  0  0  0  0
 18 19  1  0  0  0  0
 19 28  1  0  0  0  0
 19 20  2  0  0  0  0
 29 32  1  0  0  0  0
  8 11  1  0  0  0  0
 38 39  1  0  0  0  0
 18 21  1  0  0  0  0
 21 22  1  0  0  0  0
 28 29  1  0  0  0  0
  7  8  1  0  0  0  0
 17 18  1  0  0  0  0
  3  4  1  0  0  0  0
  3  5  1  0  0  0  0
  3  6  1  0  0  0  0
 32 35  1  0  0  0  0
 32 36  1  0  0  0  0
 32 37  1  0  0  0  0
 11 14  1  0  0  0  0
 11 15  1  0  0  0  0
 11 16  1  0  0  0  0
 39 41  1  0  0  0  0
 39 42  1  0  0  0  0
 39 43  1  0  0  0  0
 21 25  1  0  0  0  0
 21 26  1  0  0  0  0
 29 34  1  0  0  0  0
  8 13  1  0  0  0  0
 18 24  1  0  0  0  0
 38 40  1  0  0  0  0
  7 12  1  0  0  0  0
 28 33  1  0  0  0  0
 17 23  1  0  0  0  0
 22 27  1  0  0  0  0
M  END
$$$$

  -OEChem-05262214473D

 43 42  0     1  0  0  0  0  0999 V2000
    0.7424   -1.0926    4.5665 C   0  0  0  0  0  0  0  0  0  0  0  0
    0.1409   -0.5364    5.4779 O   0  0  0  0  0  0  0  0  0  0  0  0
    1.7940   -2.1023    4.8871 C   0  0  0  0  0  0  0  0  0  0  0  0
    2.7935   -1.6502    4.9904 H   0  0  0  0  0  0  0  0  0  0  0  0
    1.6064   -2.6156    5.8438 H   0  0  0  0  0  0  0  0  0  0  0  0
    1.9156   -2.9078    4.1453 H   0  0  0  0  0  0  0  0  0  0  0  0
    0.5488   -0.8838    3.2109 N   0  0  0  0  0  0  0  0  0  0  0  0
   -0.4159    0.0446    2.6829 C   0  0  2  0  0  0  0  0  0  0  0  0
   -0.7551   -0.3867    1.2623 C   0  0  0  0  0  0  0  0  0  0  0  0
   -0.0106   -1.0851    0.5774 O   0  0  0  0  0  0  0  0  0  0  0  0
    0.1168    1.4689    2.7060 C   0  0  0  0  0  0  0  0  0  0  0  0
    1.1183   -1.4145    2.5542 H   0  0  0  0  0  0  0  0  0  0  0  0
   -1.3088   -0.0350    3.3125 H   0  0  0  0  0  0  0  0  0  0  0  0
    1.0116    1.5681    2.0808 H   0  0  0  0  0  0  0  0  0  0  0  0
   -0.6289    2.1775    2.3307 H   0  0  0  0  0  0  0  0  0  0  0  0
    0.3882    1.7670    3.7245 H   0  0  0  0  0  0  0  0  0  0  0  0
   -1.9689    0.1350    0.8298 N   0  0  0  0  0  0  0  0  0  0  0  0
   -2.5039   -0.1183   -0.4830 C   0  0  2  0  0  0  0  0  0  0  0  0
   -2.0204   -1.4908   -0.9384 C   0  0  0  0  0  0  0  0  0  0  0  0
   -0.8618   -1.7120   -1.2848 O   0  0  0  0  0  0  0  0  0  0  0  0
   -2.1194    0.9787   -1.4705 C   0  0  0  0  0  0  0  0  0  0  0  0
   -0.7132    0.9741   -1.6893 O   0  0  0  0  0  0  0  0  0  0  0  0
   -2.5276    0.6894    1.4750 H   0  0  0  0  0  0  0  0  0  0  0  0
   -3.5940   -0.1456   -0.3718 H   0  0  0  0  0  0  0  0  0  0  0  0
   -2.4004    1.9662   -1.0904 H   0  0  0  0  0  0  0  0  0  0  0  0
   -2.6142    0.8198   -2.4346 H   0  0  0  0  0  0  0  0  0  0  0  0
   -0.4903    0.1005   -2.0483 H   0  0  0  0  0  0  0  0  0  0  0  0
   -3.0239   -2.4469   -0.8708 N   0  0  0  0  0  0  0  0  0  0  0  0
   -2.8095   -3.8322   -1.2197 C   0  0  2  0  0  0  0  0  0  0  0  0
   -1.3853   -4.2013   -0.8261 C   0  0  0  0  0  0  0  0  0  0  0  0
   -0.4909   -3.3696   -0.6872 O   0  0  0  0  0  0  0  0  0  0  0  0
   -3.0429   -4.0716   -2.7032 C   0  0  0  0  0  0  0  0  0  0  0  0
   -3.9445   -2.1815   -0.5336 H   0  0  0  0  0  0  0  0  0  0  0  0
   -3.5174   -4.4210   -0.6261 H   0  0  0  0  0  0  0  0  0  0  0  0
   -2.3429   -3.4899   -3.3141 H   0  0  0  0  0  0  0  0  0  0  0  0
   -2.9079   -5.1273   -2.9608 H   0  0  0  0  0  0  0  0  0  0  0  0
   -4.0582   -3.7777   -2.9905 H   0  0  0  0  0  0  0  0  0  0  0  0
   -1.2202   -5.5726   -0.6904 N   0  0  0  0  0  0  0  0  0  0  0  0
    0.0438   -6.1742   -0.3351 C   0  0  0  0  0  0  0  0  0  0  0  0
   -2.0214   -6.1862   -0.8057 H   0  0  0  0  0  0  0  0  0  0  0  0
    0.5949   -6.4382   -1.2498 H   0  0  0  0  0  0  0  0  0  0  0  0
    0.6361   -5.4605    0.2565 H   0  0  0  0  0  0  0  0  0  0  0  0
   -0.1366   -7.0822    0.2591 H   0  0  0  0  0  0  0  0  0  0  0  0
  1  3  1  0  0  0  0
  1  7  1  0  0  0  0
  1  2  2  0  0  0  0
 29 30  1  0  0  0  0
 30 38  1  0  0  0  0
 30 31  2  0  0  0  0
  8  9  1  0  0  0  0
  9 17  1  0  0  0  0
  9 10  2  0  0  0  0
 18 19  1  0  0  0  0
 19 28  1  0  0  0  0
 19 20  2  0  0  0  0
 29 32  1  0  0  0  0
  8 11  1  0  0  0  0
 38 39  1  0  0  0  0
 18 21  1  0  0  0  0
 21 22  1  0  0  0  0
 28 29  1  0  0  0  0
  7  8  1  0  0  0  0
 17 18  1  0  0  0  0
  3  4  1  0  0  0  0
  3  5  1  0  0  0  0
  3  6  1  0  0  0  0
 32 35  1  0  0  0  0
 32 36  1  0  0  0  0
 32 37  1  0  0  0  0
 11 14  1  0  0  0  0
 11 15  1  0  0  0  0
 11 16  1  0  0  0  0
 39 41  1  0  0  0  0
 39 42  1  0  0  0  0
 39 43  1  0  0  0  0
 21 25  1  0  0  0  0
 21 26  1  0  0  0  0
 29 34  1  0  0  0  0
  8 13  1  0  0  0  0
 18 24  1  0  0  0  0
 38 40  1  0  0  0  0
  7 12  1  0  0  0  0
 28 33  1  0  0  0  0
 17 23  1  0  0  0  0
 22 27  1  0  0  0  0
M  END
$$$$

  -OEChem-05262214473D

 43 42  0     1  0  0  0  0  0999 V2000
    0.7424   -1.0926    4.5665 C   0  0  0  0  0  0  0  0  0  0  0  0
    0.1409   -0.5364    5.4779 O   0  0  0  0  0  0  0  0  0  0  0  0
    1.7940   -2.1023    4.8871 C   0  0  0  0  0  0  0  0  0  0  0  0
    2.7935   -1.6502    4.9904 H   0  0  0  0  0  0  0  0  0  0  0  0
    1.6064   -2.6156    5.8438 H   0  0  0  0  0  0  0  0  0  0  0  0
    1.9156   -2.9078    4.1453 H   0  0  0  0  0  0  0  0  0  0  0  0
    0.5488   -0.8838    3.2109 N   0  0  0  0  0  0  0  0  0  0  0  0
   -0.4159    0.0446    2.6829 C   0  0  2  0  0  0  0  0  0  0  0  0
   -0.7551   -0.3867    1.2623 C   0  0  0  0  0  0  0  0  0  0  0  0
   -0.0106   -1.0851    0.5774 O   0  0  0  0  0  0  0  0  0  0  0  0
    0.1168    1.4689    2.7060 C   0  0  0  0  0  0  0  0  0  0  0  0
    1.1183   -1.4145    2.5542 H   0  0  0  0  0  0  0  0  0  0  0  0
   -1.3088   -0.0350    3.3125 H   0  0  0  0  0  0  0  0  0  0  0  0
    1.0116    1.5681    2.0808 H   0  0  0  0  0  0  0  0  0  0  0  0
   -0.6289    2.1775    2.3307 H   0  0  0  0  0  0  0  0  0  0  0  0
    0.3882    1.7670    3.7245 H   0  0  0  0  0  0  0  0  0  0  0  0
   -1.9689    0.1350    0.8298 N   0  0  0  0  0  0  0  0  0  0  0  0
   -2.5039   -0.1183   -0.4830 C   0  0  2  0  0  0  0  0  0  0  0  0
   -2.0204   -1.4908   -0.9384 C   0  0  0  0  0  0  0  0  0  0  0  0
   -0.8305   -1.7861   -1.0280 O   0  0  0  0  0  0  0  0  0  0  0  0
   -2.1194    0.9787   -1.4705 C   0  0  0  0  0  0  0  0  0  0  0  0
   -0.7132    0.9741   -1.6893 O   0  0  0  0  0  0  0  0  0  0  0  0
   -2.5276    0.6894    1.4750 H   0  0  0  0  0  0  0  0  0  0  0  0
   -3.5940   -0.1456   -0.3718 H   0  0  0  0  0  0  0  0  0  0  0  0
   -2.4004    1.9662   -1.0904 H   0  0  0  0  0  0  0  0  0  0  0  0
   -2.6142    0.8198   -2.4346 H   0  0  0  0  0  0  0  0  0  0  0  0
   -0.4903    0.1005   -2.0483 H   0  0  0  0  0  0  0  0  0  0  0  0
   -3.0737   -2.3583   -1.1907 N   0  0  0  0  0  0  0  0  0  0  0  0
   -2.8771   -3.7278   -1.6059 C   0  0  2  0  0  0  0  0  0  0  0  0
   -1.6145   -4.2472   -0.9310 C   0  0  0  0  0  0  0  0  0  0  0  0
   -0.7240   -3.5089   -0.5150 O   0  0  0  0  0  0  0  0  0  0  0  0
   -2.7691   -3.8373   -3.1188 C   0  0  0  0  0  0  0  0  0  0  0  0
   -4.0278   -2.0391   -1.0512 H   0  0  0  0  0  0  0  0  0  0  0  0
   -3.7432   -4.2945   -1.2471 H   0  0  0  0  0  0  0  0  0  0  0  0
   -1.9069   -3.2757   -3.4968 H   0  0  0  0  0  0  0  0  0  0  0  0
   -2.6487   -4.8791   -3.4337 H   0  0  0  0  0  0  0  0  0  0  0  0
   -3.6656   -3.4359   -3.6036 H   0  0  0  0  0  0  0  0  0  0  0  0
   -1.5791   -5.6339   -0.8867 N   0  0  0  0  0  0  0  0  0  0  0  0
   -0.4784   -6.3676   -0.3069 C   0  0  0  0  0  0  0  0  0  0  0  0
   -2.3700   -6.1654   -1.2384 H   0  0  0  0  0  0  0  0  0  0  0  0
    0.2540   -6.6111   -1.0907 H   0  0  0  0  0  0  0  0  0  0  0  0
    0.0042   -5.7532    0.4675 H   0  0  0  0  0  0  0  0  0  0  0  0
   -0.8549   -7.2973    0.1446 H   0  0  0  0  0  0  0  0  0  0  0  0
  1  3  1  0  0  0  0
  1  7  1  0  0  0  0
  1  2  2  0  0  0  0
 29 30  1  0  0  0  0
 30 38  1  0  0  0  0
 30 31  2  0  0  0  0
  8  9  1  0  0  0  0
  9 17  1  0  0  0  0
  9 10  2  0  0  0  0
 18 19  1  0  0  0  0
 19 28  1  0  0  0  0
 19 20  2  0  0  0  0
 29 32  1  0  0  0  0
  8 11  1  0  0  0  0
 38 39  1  0  0  0  0
 18 21  1  0  0  0  0
 21 22  1  0  0  0  0
 28 29  1  0  0  0  0
  7  8  1  0  0  0  0
 17 18  1  0  0  0  0
  3  4  1  0  0  0  0
  3  5  1  0  0  0  0
  3  6  1  0  0  0  0
 32 35  1  0  0  0  0
 32 36  1  0  0  0  0
 32 37  1  0  0  0  0
 11 14  1  0  0  0  0
 11 15  1  0  0  0  0
 11 16  1  0  0  0  0
 39 41  1  0  0  0  0
 39 42  1  0  0  0  0
 39 43  1  0  0  0  0
 21 25  1  0  0  0  0
 21 26  1  0  0  0  0
 29 34  1  0  0  0  0
  8 13  1  0  0  0  0
 18 24  1  0  0  0  0
 38 40  1  0  0  0  0
  7 12  1  0  0  0  0
 28 33  1  0  0  0  0
 17 23  1  0  0  0  0
 22 27  1  0  0  0  0
M  END
$$$$

  -OEChem-05262214473D

 43 42  0     1  0  0  0  0  0999 V2000
    0.7424   -1.0926    4.5665 C   0  0  0  0  0  0  0  0  0  0  0  0
    0.1409   -0.5364    5.4779 O   0  0  0  0  0  0  0  0  0  0  0  0
    1.7940   -2.1023    4.8871 C   0  0  0  0  0  0  0  0  0  0  0  0
    2.7935   -1.6502    4.9904 H   0  0  0  0  0  0  0  0  0  0  0  0
    1.6064   -2.6156    5.8438 H   0  0  0  0  0  0  0  0  0  0  0  0
    1.9156   -2.9078    4.1453 H   0  0  0  0  0  0  0  0  0  0  0  0
    0.5488   -0.8838    3.2109 N   0  0  0  0  0  0  0  0  0  0  0  0
   -0.4159    0.0446    2.6829 C   0  0  2  0  0  0  0  0  0  0  0  0
   -0.7551   -0.3867    1.2623 C   0  0  0  0  0  0  0  0  0  0  0  0
   -0.0106   -1.0851    0.5774 O   0  0  0  0  0  0  0  0  0  0  0  0
    0.1168    1.4689    2.7060 C   0  0  0  0  0  0  0  0  0  0  0  0
    1.1183   -1.4145    2.5542 H   0  0  0  0  0  0  0  0  0  0  0  0
   -1.3088   -0.0350    3.3125 H   0  0  0  0  0  0  0  0  0  0  0  0
    1.0116    1.5681    2.0808 H   0  0  0  0  0  0  0  0  0  0  0  0
   -0.6289    2.1775    2.3307 H   0  0  0  0  0  0  0  0  0  0  0  0
    0.3882    1.7670    3.7245 H   0  0  0  0  0  0  0  0  0  0  0  0
   -1.9689    0.1350    0.8298 N   0  0  0  0  0  0  0  0  0  0  0  0
   -2.5039   -0.1183   -0.4830 C   0  0  2  0  0  0  0  0  0  0  0  0
   -2.0204   -1.4908   -0.9384 C   0  0  0  0  0  0  0  0  0  0  0  0
   -0.8657   -1.8812   -0.7788 O   0  0  0  0  0  0  0  0  0  0  0  0
   -2.1194    0.9787   -1.4705 C   0  0  0  0  0  0  0  0  0  0  0  0
   -0.7132    0.9741   -1.6893 O   0  0  0  0  0  0  0  0  0  0  0  0
   -2.5276    0.6894    1.4750 H   0  0  0  0  0  0  0  0  0  0  0  0
   -3.5940   -0.1456   -0.3718 H   0  0  0  0  0  0  0  0  0  0  0  0
   -2.4004    1.9662   -1.0904 H   0  0  0  0  0  0  0  0  0  0  0  0
   -2.6142    0.8198   -2.4346 H   0  0  0  0  0  0  0  0  0  0  0  0
   -0.4903    0.1005   -2.0483 H   0  0  0  0  0  0  0  0  0  0  0  0
   -3.0405   -2.2427   -1.5040 N   0  0  0  0  0  0  0  0  0  0  0  0
   -2.8443   -3.5901   -1.9861 C   0  0  2  0  0  0  0  0  0  0  0  0
   -1.8149   -4.2652   -1.0894 C   0  0  0  0  0  0  0  0  0  0  0  0
   -1.0001   -3.6395   -0.4144 O   0  0  0  0  0  0  0  0  0  0  0  0
   -2.3896   -3.5980   -3.4373 C   0  0  0  0  0  0  0  0  0  0  0  0
   -3.9767   -1.8526   -1.5589 H   0  0  0  0  0  0  0  0  0  0  0  0
   -3.8069   -4.1040   -1.8891 H   0  0  0  0  0  0  0  0  0  0  0  0
   -1.4267   -3.0875   -3.5542 H   0  0  0  0  0  0  0  0  0  0  0  0
   -2.2690   -4.6206   -3.8097 H   0  0  0  0  0  0  0  0  0  0  0  0
   -3.1170   -3.0858   -4.0763 H   0  0  0  0  0  0  0  0  0  0  0  0
   -1.8848   -5.6493   -1.1649 N   0  0  0  0  0  0  0  0  0  0  0  0
   -1.0043   -6.5163   -0.4171 C   0  0  0  0  0  0  0  0  0  0  0  0
   -2.6042   -6.0829   -1.7359 H   0  0  0  0  0  0  0  0  0  0  0  0
   -0.1257   -6.7648   -1.0305 H   0  0  0  0  0  0  0  0  0  0  0  0
   -0.6779   -6.0043    0.5002 H   0  0  0  0  0  0  0  0  0  0  0  0
   -1.5388   -7.4401   -0.1510 H   0  0  0  0  0  0  0  0  0  0  0  0
  1  3  1  0  0  0  0
  1  7  1  0  0  0  0
  1  2  2  0  0  0  0
 29 30  1  0  0  0  0
 30 38  1  0  0  0  0
 30 31  2  0  0  0  0
  8  9  1  0  0  0  0
  9 17  1  0  0  0  0
  9 10  2  0  0  0  0
 18 19  1  0  0  0  0
 19 28  1  0  0  0  0
 19 20  2  0  0  0  0
 29 32  1  0  0  0  0
  8 11  1  0  0  0  0
 38 39  1  0  0  0  0
 18 21  1  0  0  0  0
 21 22  1  0  0  0  0
 28 29  1  0  0  0  0
  7  8  1  0  0  0  0
 17 18  1  0  0  0  0
  3  4  1  0  0  0  0
  3  5  1  0  0  0  0
  3  6  1  0  0  0  0
 32 35  1  0  0  0  0
 32 36  1  0  0  0  0
 32 37  1  0  0  0  0
 11 14  1  0  0  0  0
 11 15  1  0  0  0  0
 11 16  1  0  0  0  0
 39 41  1  0  0  0  0
 39 42  1  0  0  0  0
 39 43  1  0  0  0  0
 21 25  1  0  0  0  0
 21 26  1  0  0  0  0
 29 34  1  0  0  0  0
  8 13  1  0  0  0  0
 18 24  1  0  0  0  0
 38 40  1  0  0  0  0
  7 12  1  0  0  0  0
 28 33  1  0  0  0  0
 17 23  1  0  0  0  0
 22 27  1  0  0  0  0
M  END
$$$$

  -OEChem-05262214473D

 43 42  0     1  0  0  0  0  0999 V2000
    0.7424   -1.0926    4.5665 C   0  0  0  0  0  0  0  0  0  0  0  0
    0.1409   -0.5364    5.4779 O   0  0  0  0  0  0  0  0  0  0  0  0
    1.7940   -2.1023    4.8871 C   0  0  0  0  0  0  0  0  0  0  0  0
    2.7935   -1.6502    4.9904 H   0  0  0  0  0  0  0  0  0  0  0  0
    1.6064   -2.6156    5.8438 H   0  0  0  0  0  0  0  0  0  0  0  0
    1.9156   -2.9078    4.1453 H   0  0  0  0  0  0  0  0  0  0  0  0
    0.5488   -0.8838    3.2109 N   0  0  0  0  0  0  0  0  0  0  0  0
   -0.4159    0.0446    2.6829 C   0  0  2  0  0  0  0  0  0  0  0  0
   -0.7551   -0.3867    1.2623 C   0  0  0  0  0  0  0  0  0  0  0  0
   -0.0106   -1.0851    0.5774 O   0  0  0  0  0  0  0  0  0  0  0  0
    0.1168    1.4689    2.7060 C   0  0  0  0  0  0  0  0  0  0  0  0
    1.1183   -1.4145    2.5542 H   0  0  0  0  0  0  0  0  0  0  0  0
   -1.3088   -0.0350    3.3125 H   0  0  0  0  0  0  0  0  0  0  0  0
    1.0116    1.5681    2.0808 H   0  0  0  0  0  0  0  0  0  0  0  0
   -0.6289    2.1775    2.3307 H   0  0  0  0  0  0  0  0  0  0  0  0
    0.3882    1.7670    3.7245 H   0  0  0  0  0  0  0  0  0  0  0  0
   -1.9689    0.1350    0.8298 N   0  0  0  0  0  0  0  0  0  0  0  0
   -2.5039   -0.1183   -0.4830 C   0  0  2  0  0  0  0  0  0  0  0  0
   -2.0204   -1.4908   -0.9384 C   0  0  0  0  0  0  0  0  0  0  0  0
   -0.9652   -1.9908   -0.5541 O   0  0  0  0  0  0  0  0  0  0  0  0
   -2.1194    0.9787   -1.4705 C   0  0  0  0  0  0  0  0  0  0  0  0
   -0.7132    0.9741   -1.6893 O   0  0  0  0  0  0  0  0  0  0  0  0
   -2.5276    0.6894    1.4750 H   0  0  0  0  0  0  0  0  0  0  0  0
   -3.5940   -0.1456   -0.3718 H   0  0  0  0  0  0  0  0  0  0  0  0
   -2.4004    1.9662   -1.0904 H   0  0  0  0  0  0  0  0  0  0  0  0
   -2.6142    0.8198   -2.4346 H   0  0  0  0  0  0  0  0  0  0  0  0
   -0.4903    0.1005   -2.0483 H   0  0  0  0  0  0  0  0  0  0  0  0
   -2.9264   -2.1078   -1.7894 N   0  0  0  0  0  0  0  0  0  0  0  0
   -2.7135   -3.4285   -2.3344 C   0  0  2  0  0  0  0  0  0  0  0  0
   -1.9730   -4.2542   -1.2907 C   0  0  0  0  0  0  0  0  0  0  0  0
   -1.3003   -3.7526   -0.3923 O   0  0  0  0  0  0  0  0  0  0  0  0
   -1.9305   -3.3700   -3.6368 C   0  0  0  0  0  0  0  0  0  0  0  0
   -3.7946   -1.6348   -2.0221 H   0  0  0  0  0  0  0  0  0  0  0  0
   -3.7042   -3.8623   -2.5085 H   0  0  0  0  0  0  0  0  0  0  0  0
   -0.9349   -2.9381   -3.4823 H   0  0  0  0  0  0  0  0  0  0  0  0
   -1.7946   -4.3694   -4.0633 H   0  0  0  0  0  0  0  0  0  0  0  0
   -2.4500   -2.7513   -4.3764 H   0  0  0  0  0  0  0  0  0  0  0  0
   -2.1164   -5.6177   -1.5061 N   0  0  0  0  0  0  0  0  0  0  0  0
   -1.4981   -6.6102   -0.6583 C   0  0  0  0  0  0  0  0  0  0  0  0
   -2.7082   -5.9443   -2.2642 H   0  0  0  0  0  0  0  0  0  0  0  0
   -0.5184   -6.8889   -1.0736 H   0  0  0  0  0  0  0  0  0  0  0  0
   -1.3638   -6.1968    0.3521 H   0  0  0  0  0  0  0  0  0  0  0  0
   -2.1415   -7.5010   -0.6075 H   0  0  0  0  0  0  0  0  0  0  0  0
  1  3  1  0  0  0  0
  1  7  1  0  0  0  0
  1  2  2  0  0  0  0
 29 30  1  0  0  0  0
 30 38  1  0  0  0  0
 30 31  2  0  0  0  0
  8  9  1  0  0  0  0
  9 17  1  0  0  0  0
  9 10  2  0  0  0  0
 18 19  1  0  0  0  0
 19 28  1  0  0  0  0
 19 20  2  0  0  0  0
 29 32  1  0  0  0  0
  8 11  1  0  0  0  0
 38 39  1  0  0  0  0
 18 21  1  0  0  0  0
 21 22  1  0  0  0  0
 28 29  1  0  0  0  0
  7  8  1  0  0  0  0
 17 18  1  0  0  0  0
  3  4  1  0  0  0  0
  3  5  1  0  0  0  0
  3  6  1  0  0  0  0
 32 35  1  0  0  0  0
 32 36  1  0  0  0  0
 32 37  1  0  0  0  0
 11 14  1  0  0  0  0
 11 15  1  0  0  0  0
 11 16  1  0  0  0  0
 39 41  1  0  0  0  0
 39 42  1  0  0  0  0
 39 43  1  0  0  0  0
 21 25  1  0  0  0  0
 21 26  1  0  0  0  0
 29 34  1  0  0  0  0
  8 13  1  0  0  0  0
 18 24  1  0  0  0  0
 38 40  1  0  0  0  0
  7 12  1  0  0  0  0
 28 33  1  0  0  0  0
 17 23  1  0  0  0  0
 22 27  1  0  0  0  0
M  END
$$$$

  -OEChem-05262214473D

 43 42  0     1  0  0  0  0  0999 V2000
    0.7424   -1.0926    4.5665 C   0  0  0  0  0  0  0  0  0  0  0  0
    0.1409   -0.5364    5.4779 O   0  0  0  0  0  0  0  0  0  0  0  0
    1.7940   -2.1023    4.8871 C   0  0  0  0  0  0  0  0  0  0  0  0
    2.7935   -1.6502    4.9904 H   0  0  0  0  0  0  0  0  0  0  0  0
    1.6064   -2.6156    5.8438 H   0  0  0  0  0  0  0  0  0  0  0  0
    1.9156   -2.9078    4.1453 H   0  0  0  0  0  0  0  0  0  0  0  0
    0.5488   -0.8838    3.2109 N   0  0  0  0  0  0  0  0  0  0  0  0
   -0.4159    0.0446    2.6829 C   0  0  2  0  0  0  0  0  0  0  0  0
   -0.7551   -0.3867    1.2623 C   0  0  0  0  0  0  0  0  0  0  0  0
   -0.0106   -1.0851    0.5774 O   0  0  0  0  0  0  0  0  0  0  0  0
    0.1168    1.4689    2.7060 C   0  0  0  0  0  0  0  0  0  0  0  0
    1.1183   -1.4145    2.5542 H   0  0  0  0  0  0  0  0  0  0  0  0
   -1.3088   -0.0350    3.3125 H   0  0  0  0  0  0  0  0  0  0  0  0
    1.0116    1.5681    2.0808 H   0  0  0  0  0  0  0  0  0  0  0  0
   -0.6289    2.1775    2.3307 H   0  0  0  0  0  0  0  0  0  0  0  0
    0.3882    1.7670    3.7245 H   0  0  0  0  0  0  0  0  0  0  0  0
   -1.9689    0.1350    0.8298 N   0  0  0  0  0  0  0  0  0  0  0  0
   -2.5039   -0.1183   -0.4830 C   0  0  2  0  0  0  0  0  0  0  0  0
   -2.0204   -1.4908   -0.9384 C   0  0  0  0  0  0  0  0  0  0  0  0
   -1.1221   -2.1075   -0.3692 O   0  0  0  0  0  0  0  0  0  0  0  0
   -2.1194    0.9787   -1.4705 C   0  0  0  0  0  0  0  0  0  0  0  0
   -0.7132    0.9741   -1.6893 O   0  0  0  0  0  0  0  0  0  0  0  0
   -2.5276    0.6894    1.4750 H   0  0  0  0  0  0  0  0  0  0  0  0
   -3.5940   -0.1456   -0.3718 H   0  0  0  0  0  0  0  0  0  0  0  0
   -2.4004    1.9662   -1.0904 H   0  0  0  0  0  0  0  0  0  0  0  0
   -2.6142    0.8198   -2.4346 H   0  0  0  0  0  0  0  0  0  0  0  0
   -0.4903    0.1005   -2.0483 H   0  0  0  0  0  0  0  0  0  0  0  0
   -2.7393   -1.9629   -2.0274 N   0  0  0  0  0  0  0  0  0  0  0  0
   -2.4934   -3.2538   -2.6271 C   0  0  2  0  0  0  0  0  0  0  0  0
   -2.0779   -4.2148   -1.5209 C   0  0  0  0  0  0  0  0  0  0  0  0
   -1.6042   -3.8405   -0.4502 O   0  0  0  0  0  0  0  0  0  0  0  0
   -1.4228   -3.1689   -3.7038 C   0  0  0  0  0  0  0  0  0  0  0  0
   -3.4940   -1.4004   -2.4092 H   0  0  0  0  0  0  0  0  0  0  0  0
   -3.4420   -3.5859   -3.0629 H   0  0  0  0  0  0  0  0  0  0  0  0
   -0.4651   -2.8377   -3.2860 H   0  0  0  0  0  0  0  0  0  0  0  0
   -1.2579   -4.1425   -4.1770 H   0  0  0  0  0  0  0  0  0  0  0  0
   -1.7099   -2.4551   -4.4834 H   0  0  0  0  0  0  0  0  0  0  0  0
   -2.2582   -5.5413   -1.8870 N   0  0  0  0  0  0  0  0  0  0  0  0
   -1.9262   -6.6430   -1.0141 C   0  0  0  0  0  0  0  0  0  0  0  0
   -2.6749   -5.7589   -2.7874 H   0  0  0  0  0  0  0  0  0  0  0  0
   -0.8972   -6.9748   -1.2168 H   0  0  0  0  0  0  0  0  0  0  0  0
   -2.0068   -6.3176    0.0336 H   0  0  0  0  0  0  0  0  0  0  0  0
   -2.6221   -7.4757   -1.1940 H   0  0  0  0  0  0  0  0  0  0  0  0
  1  3  1  0  0  0  0
  1  7  1  0  0  0  0
  1  2  2  0  0  0  0
 29 30  1  0  0  0  0
 30 38  1  0  0  0  0
 30 31  2  0  0  0  0
  8  9  1  0  0  0  0
  9 17  1  0  0  0  0
  9 10  2  0  0  0  0
 18 19  1  0  0  0  0
 19 28  1  0  0  0  0
 19 20  2  0  0  0  0
 29 32  1  0  0  0  0
  8 11  1  0  0  0  0
 38 39  1  0  0  0  0
 18 21  1  0  0  0  0
 21 22  1  0  0  0  0
 28 29  1  0  0  0  0
  7  8  1  0  0  0  0
 17 18  1  0  0  0  0
  3  4  1  0  0  0  0
  3  5  1  0  0  0  0
  3  6  1  0  0  0  0
 32 35  1  0  0  0  0
 32 36  1  0  0  0  0
 32 37  1  0  0  0  0
 11 14  1  0  0  0  0
 11 15  1  0  0  0  0
 11 16  1  0  0  0  0
 39 41  1  0  0  0  0
 39 42  1  0  0  0  0
 39 43  1  0  0  0  0
 21 25  1  0  0  0  0
 21 26  1  0  0  0  0
 29 34  1  0  0  0  0
  8 13  1  0  0  0  0
 18 24  1  0  0  0  0
 38 40  1  0  0  0  0
  7 12  1  0  0  0  0
 28 33  1  0  0  0  0
 17 23  1  0  0  0  0
 22 27  1  0  0  0  0
M  END
$$$$

  -OEChem-05262214473D

 43 42  0     1  0  0  0  0  0999 V2000
    0.7424   -1.0926    4.5665 C   0  0  0  0  0  0  0  0  0  0  0  0
    0.1409   -0.5364    5.4779 O   0  0  0  0  0  0  0  0  0  0  0  0
    1.7940   -2.1023    4.8871 C   0  0  0  0  0  0  0  0  0  0  0  0
    2.7935   -1.6502    4.9904 H   0  0  0  0  0  0  0  0  0  0  0  0
    1.6064   -2.6156    5.8438 H   0  0  0  0  0  0  0  0  0  0  0  0
    1.9156   -2.9078    4.1453 H   0  0  0  0  0  0  0  0  0  0  0  0
    0.5488   -0.8838    3.2109 N   0  0  0  0  0  0  0  0  0  0  0  0
   -0.4159    0.0446    2.6829 C   0  0  2  0  0  0  0  0  0  0  0  0
   -0.7551   -0.3867    1.2623 C   0  0  0  0  0  0  0  0  0  0  0  0
   -0.0106   -1.0851    0.5774 O   0  0  0  0  0  0  0  0  0  0  0  0
    0.1168    1.4689    2.7060 C   0  0  0  0  0  0  0  0  0  0  0  0
    1.1183   -1.4145    2.5542 H   0  0  0  0  0  0  0  0  0  0  0  0
   -1.3088   -0.0350    3.3125 H   0  0  0  0  0  0  0  0  0  0  0  0
    1.0116    1.5681    2.0808 H   0  0  0  0  0  0  0  0  0  0  0  0
   -0.6289    2.1775    2.3307 H   0  0  0  0  0  0  0  0  0  0  0  0
    0.3882    1.7670    3.7245 H   0  0  0  0  0  0  0  0  0  0  0  0
   -1.9689    0.1350    0.8298 N   0  0  0  0  0  0  0  0  0  0  0  0
   -2.5039   -0.1183   -0.4830 C   0  0  2  0  0  0  0  0  0  0  0  0
   -2.3460   -1.6048   -0.7837 C   0  0  0  0  0  0  0  0  0  0  0  0
   -1.8700   -2.4040    0.0200 O   0  0  0  0  0  0  0  0  0  0  0  0
   -1.8358    0.7523   -1.5424 C   0  0  0  0  0  0  0  0  0  0  0  0
   -0.4646    0.3969   -1.6792 O   0  0  0  0  0  0  0  0  0  0  0  0
   -2.5276    0.6894    1.4750 H   0  0  0  0  0  0  0  0  0  0  0  0
   -3.5722    0.1213   -0.4322 H   0  0  0  0  0  0  0  0  0  0  0  0
   -1.8863    1.8114   -1.2701 H   0  0  0  0  0  0  0  0  0  0  0  0
   -2.3212    0.6163   -2.5147 H   0  0  0  0  0  0  0  0  0  0  0  0
   -0.4441   -0.5364   -1.9442 H   0  0  0  0  0  0  0  0  0  0  0  0
   -2.8386   -1.9392   -2.0372 N   0  0  0  0  0  0  0  0  0  0  0  0
   -2.8328   -3.2916   -2.5448 C   0  0  2  0  0  0  0  0  0  0  0  0
   -3.0504   -4.2359   -1.3699 C   0  0  0  0  0  0  0  0  0  0  0  0
   -2.8056   -3.9258   -0.2058 O   0  0  0  0  0  0  0  0  0  0  0  0
   -1.5297   -3.6077   -3.2621 C   0  0  0  0  0  0  0  0  0  0  0  0
   -3.2522   -1.2174   -2.6199 H   0  0  0  0  0  0  0  0  0  0  0  0
   -3.6757   -3.3721   -3.2398 H   0  0  0  0  0  0  0  0  0  0  0  0
   -0.6736   -3.5322   -2.5817 H   0  0  0  0  0  0  0  0  0  0  0  0
   -1.5381   -4.6235   -3.6710 H   0  0  0  0  0  0  0  0  0  0  0  0
   -1.3601   -2.9089   -4.0884 H   0  0  0  0  0  0  0  0  0  0  0  0
   -3.5093   -5.4803   -1.7785 N   0  0  0  0  0  0  0  0  0  0  0  0
   -3.7800   -6.5544   -0.8517 C   0  0  0  0  0  0  0  0  0  0  0  0
   -3.7029   -5.6431   -2.7623 H   0  0  0  0  0  0  0  0  0  0  0  0
   -2.8838   -7.1836   -0.7469 H   0  0  0  0  0  0  0  0  0  0  0  0
   -4.0491   -6.1336    0.1284 H   0  0  0  0  0  0  0  0  0  0  0  0
   -4.6136   -7.1640   -1.2304 H   0  0  0  0  0  0  0  0  0  0  0  0
  1  3  1  0  0  0  0
  1  7  1  0  0  0  0
  1  2  2  0  0  0  0
 29 30  1  0  0  0  0
 30 38  1  0  0  0  0
 30 31  2  0  0  0  0
  8  9  1  0  0  0  0
  9 17  1  0  0  0  0
  9 10  2  0  0  0  0
 18 19  1  0  0  0  0
 19 28  1  0  0  0  0
 19 20  2  0  0  0  0
 29 32  1  0  0  0  0
  8 11  1  0  0  0  0
 38 39  1  0  0  0  0
 18 21  1  0  0  0  0
 21 22  1  0  0  0  0
 28 29  1  0  0  0  0
  7  8  1  0  0  0  0
 17 18  1  0  0  0  0
  3  4  1  0  0  0  0
  3  5  1  0  0  0  0
  3  6  1  0  0  0  0
 32 35  1  0  0  0  0
 32 36  1  0  0  0  0
 32 37  1  0  0  0  0
 11 14  1  0  0  0  0
 11 15  1  0  0  0  0
 11 16  1  0  0  0  0
 39 41  1  0  0  0  0
 39 42  1  0  0  0  0
 39 43  1  0  0  0  0
 21 25  1  0  0  0  0
 21 26  1  0  0  0  0
 29 34  1  0  0  0  0
  8 13  1  0  0  0  0
 18 24  1  0  0  0  0
 38 40  1  0  0  0  0
  7 12  1  0  0  0  0
 28 33  1  0  0  0  0
 17 23  1  0  0  0  0
 22 27  1  0  0  0  0
M  END
$$$$

  -OEChem-05262214473D

 43 42  0     1  0  0  0  0  0999 V2000
    0.7424   -1.0926    4.5665 C   0  0  0  0  0  0  0  0  0  0  0  0
    0.1409   -0.5364    5.4779 O   0  0  0  0  0  0  0  0  0  0  0  0
    1.7940   -2.1023    4.8871 C   0  0  0  0  0  0  0  0  0  0  0  0
    2.7935   -1.6502    4.9904 H   0  0  0  0  0  0  0  0  0  0  0  0
    1.6064   -2.6156    5.8438 H   0  0  0  0  0  0  0  0  0  0  0  0
    1.9156   -2.9078    4.1453 H   0  0  0  0  0  0  0  0  0  0  0  0
    0.5488   -0.8838    3.2109 N   0  0  0  0  0  0  0  0  0  0  0  0
   -0.4159    0.0446    2.6829 C   0  0  2  0  0  0  0  0  0  0  0  0
   -0.7551   -0.3867    1.2623 C   0  0  0  0  0  0  0  0  0  0  0  0
   -0.0106   -1.0851    0.5774 O   0  0  0  0  0  0  0  0  0  0  0  0
    0.1168    1.4689    2.7060 C   0  0  0  0  0  0  0  0  0  0  0  0
    1.1183   -1.4145    2.5542 H   0  0  0  0  0  0  0  0  0  0  0  0
   -1.3088   -0.0350    3.3125 H   0  0  0  0  0  0  0  0  0  0  0  0
    1.0116    1.5681    2.0808 H   0  0  0  0  0  0  0  0  0  0  0  0
   -0.6289    2.1775    2.3307 H   0  0  0  0  0  0  0  0  0  0  0  0
    0.3882    1.7670    3.7245 H   0  0  0  0  0  0  0  0  0  0  0  0
   -1.9689    0.1350    0.8298 N   0  0  0  0  0  0  0  0  0  0  0  0
   -2.5039   -0.1183   -0.4830 C   0  0  2  0  0  0  0  0  0  0  0  0
   -2.3460   -1.6048   -0.7837 C   0  0  0  0  0  0  0  0  0  0  0  0
   -2.1274   -2.4448    0.0868 O   0  0  0  0  0  0  0  0  0  0  0  0
   -1.8358    0.7523   -1.5424 C   0  0  0  0  0  0  0  0  0  0  0  0
   -0.4646    0.3969   -1.6792 O   0  0  0  0  0  0  0  0  0  0  0  0
   -2.5276    0.6894    1.4750 H   0  0  0  0  0  0  0  0  0  0  0  0
   -3.5722    0.1213   -0.4322 H   0  0  0  0  0  0  0  0  0  0  0  0
   -1.8863    1.8114   -1.2701 H   0  0  0  0  0  0  0  0  0  0  0  0
   -2.3212    0.6163   -2.5147 H   0  0  0  0  0  0  0  0  0  0  0  0
   -0.4441   -0.5364   -1.9442 H   0  0  0  0  0  0  0  0  0  0  0  0
   -2.5208   -1.8864   -2.1312 N   0  0  0  0  0  0  0  0  0  0  0  0
   -2.4511   -3.2265   -2.6659 C   0  0  2  0  0  0  0  0  0  0  0  0
   -3.0036   -4.1812   -1.6157 C   0  0  0  0  0  0  0  0  0  0  0  0
   -3.0468   -3.9086   -0.4178 O   0  0  0  0  0  0  0  0  0  0  0  0
   -1.0254   -3.5986   -3.0424 C   0  0  0  0  0  0  0  0  0  0  0  0
   -2.7386   -1.1315   -2.7749 H   0  0  0  0  0  0  0  0  0  0  0  0
   -3.0936   -3.2470   -3.5529 H   0  0  0  0  0  0  0  0  0  0  0  0
   -0.3668   -3.5836   -2.1663 H   0  0  0  0  0  0  0  0  0  0  0  0
   -0.9785   -4.6039   -3.4739 H   0  0  0  0  0  0  0  0  0  0  0  0
   -0.6193   -2.8935   -3.7756 H   0  0  0  0  0  0  0  0  0  0  0  0
   -3.4029   -5.3902   -2.1679 N   0  0  0  0  0  0  0  0  0  0  0  0
   -3.9501   -6.4665   -1.3753 C   0  0  0  0  0  0  0  0  0  0  0  0
   -3.3488   -5.5223   -3.1736 H   0  0  0  0  0  0  0  0  0  0  0  0
   -3.1405   -7.1456   -1.0695 H   0  0  0  0  0  0  0  0  0  0  0  0
   -4.4380   -6.0517   -0.4810 H   0  0  0  0  0  0  0  0  0  0  0  0
   -4.6888   -7.0220   -1.9717 H   0  0  0  0  0  0  0  0  0  0  0  0
  1  3  1  0  0  0  0
  1  7  1  0  0  0  0
  1  2  2  0  0  0  0
 29 30  1  0  0  0  0
 30 38  1  0  0  0  0
 30 31  2  0  0  0  0
  8  9  1  0  0  0  0
  9 17  1  0  0  0  0
  9 10  2  0  0  0  0
 18 19  1  0  0  0  0
 19 28  1  0  0  0  0
 19 20  2  0  0  0  0
 29 32  1  0  0  0  0
  8 11  1  0  0  0  0
 38 39  1  0  0  0  0
 18 21  1  0  0  0  0
 21 22  1  0  0  0  0
 28 29  1  0  0  0  0
  7  8  1  0  0  0  0
 17 18  1  0  0  0  0
  3  4  1  0  0  0  0
  3  5  1  0  0  0  0
  3  6  1  0  0  0  0
 32 35  1  0  0  0  0
 32 36  1  0  0  0  0
 32 37  1  0  0  0  0
 11 14  1  0  0  0  0
 11 15  1  0  0  0  0
 11 16  1  0  0  0  0
 39 41  1  0  0  0  0
 39 42  1  0  0  0  0
 39 43  1  0  0  0  0
 21 25  1  0  0  0  0
 21 26  1  0  0  0  0
 29 34  1  0  0  0  0
  8 13  1  0  0  0  0
 18 24  1  0  0  0  0
 38 40  1  0  0  0  0
  7 12  1  0  0  0  0
 28 33  1  0  0  0  0
 17 23  1  0  0  0  0
 22 27  1  0  0  0  0
M  END
$$$$

  -OEChem-05262214473D

 43 42  0     1  0  0  0  0  0999 V2000
    0.7424   -1.0926    4.5665 C   0  0  0  0  0  0  0  0  0  0  0  0
    0.1409   -0.5364    5.4779 O   0  0  0  0  0  0  0  0  0  0  0  0
    1.7940   -2.1023    4.8871 C   0  0  0  0  0  0  0  0  0  0  0  0
    2.7935   -1.6502    4.9904 H   0  0  0  0  0  0  0  0  0  0  0  0
    1.6064   -2.6156    5.8438 H   0  0  0  0  0  0  0  0  0  0  0  0
    1.9156   -2.9078    4.1453 H   0  0  0  0  0  0  0  0  0  0  0  0
    0.5488   -0.8838    3.2109 N   0  0  0  0  0  0  0  0  0  0  0  0
   -0.4159    0.0446    2.6829 C   0  0  2  0  0  0  0  0  0  0  0  0
   -0.7551   -0.3867    1.2623 C   0  0  0  0  0  0  0  0  0  0  0  0
   -0.0106   -1.0851    0.5774 O   0  0  0  0  0  0  0  0  0  0  0  0
    0.1168    1.4689    2.7060 C   0  0  0  0  0  0  0  0  0  0  0  0
    1.1183   -1.4145    2.5542 H   0  0  0  0  0  0  0  0  0  0  0  0
   -1.3088   -0.0350    3.3125 H   0  0  0  0  0  0  0  0  0  0  0  0
    1.0116    1.5681    2.0808 H   0  0  0  0  0  0  0  0  0  0  0  0
   -0.6289    2.1775    2.3307 H   0  0  0  0  0  0  0  0  0  0  0  0
    0.3882    1.7670    3.7245 H   0  0  0  0  0  0  0  0  0  0  0  0
   -1.9689    0.1350    0.8298 N   0  0  0  0  0  0  0  0  0  0  0  0
   -2.5039   -0.1183   -0.4830 C   0  0  2  0  0  0  0  0  0  0  0  0
   -2.3460   -1.6048   -0.7837 C   0  0  0  0  0  0  0  0  0  0  0  0
   -2.3950   -2.4730    0.0852 O   0  0  0  0  0  0  0  0  0  0  0  0
   -1.8358    0.7523   -1.5424 C   0  0  0  0  0  0  0  0  0  0  0  0
   -0.4646    0.3969   -1.6792 O   0  0  0  0  0  0  0  0  0  0  0  0
   -2.5276    0.6894    1.4750 H   0  0  0  0  0  0  0  0  0  0  0  0
   -3.5722    0.1213   -0.4322 H   0  0  0  0  0  0  0  0  0  0  0  0
   -1.8863    1.8114   -1.2701 H   0  0  0  0  0  0  0  0  0  0  0  0
   -2.3212    0.6163   -2.5147 H   0  0  0  0  0  0  0  0  0  0  0  0
   -0.4441   -0.5364   -1.9442 H   0  0  0  0  0  0  0  0  0  0  0  0
   -2.1874   -1.8492   -2.1405 N   0  0  0  0  0  0  0  0  0  0  0  0
   -2.0485   -3.1800   -2.6848 C   0  0  2  0  0  0  0  0  0  0  0  0
   -2.8936   -4.1242   -1.8398 C   0  0  0  0  0  0  0  0  0  0  0  0
   -3.2254   -3.8739   -0.6830 O   0  0  0  0  0  0  0  0  0  0  0  0
   -0.5934   -3.6215   -2.7026 C   0  0  0  0  0  0  0  0  0  0  0  0
   -2.1990   -1.0706   -2.7927 H   0  0  0  0  0  0  0  0  0  0  0  0
   -2.4459   -3.1474   -3.7051 H   0  0  0  0  0  0  0  0  0  0  0  0
   -0.1779   -3.6601   -1.6890 H   0  0  0  0  0  0  0  0  0  0  0  0
   -0.4867   -4.6189   -3.1417 H   0  0  0  0  0  0  0  0  0  0  0  0
    0.0181   -2.9248   -3.2861 H   0  0  0  0  0  0  0  0  0  0  0  0
   -3.1972   -5.2982   -2.5148 N   0  0  0  0  0  0  0  0  0  0  0  0
   -3.9777   -6.3589   -1.9217 C   0  0  0  0  0  0  0  0  0  0  0  0
   -2.8967   -5.4127   -3.4783 H   0  0  0  0  0  0  0  0  0  0  0  0
   -3.3052   -7.0871   -1.4449 H   0  0  0  0  0  0  0  0  0  0  0  0
   -4.6557   -5.9363   -1.1656 H   0  0  0  0  0  0  0  0  0  0  0  0
   -4.5671   -6.8611   -2.7030 H   0  0  0  0  0  0  0  0  0  0  0  0
  1  3  1  0  0  0  0
  1  7  1  0  0  0  0
  1  2  2  0  0  0  0
 29 30  1  0  0  0  0
 30 38  1  0  0  0  0
 30 31  2  0  0  0  0
  8  9  1  0  0  0  0
  9 17  1  0  0  0  0
  9 10  2  0  0  0  0
 18 19  1  0  0  0  0
 19 28  1  0  0  0  0
 19 20  2  0  0  0  0
 29 32  1  0  0  0  0
  8 11  1  0  0  0  0
 38 39  1  0  0  0  0
 18 21  1  0  0  0  0
 21 22  1  0  0  0  0
 28 29  1  0  0  0  0
  7  8  1  0  0  0  0
 17 18  1  0  0  0  0
  3  4  1  0  0  0  0
  3  5  1  0  0  0  0
  3  6  1  0  0  0  0
 32 35  1  0  0  0  0
 32 36  1  0  0  0  0
 32 37  1  0  0  0  0
 11 14  1  0  0  0  0
 11 15  1  0  0  0  0
 11 16  1  0  0  0  0
 39 41  1  0  0  0  0
 39 42  1  0  0  0  0
 39 43  1  0  0  0  0
 21 25  1  0  0  0  0
 21 26  1  0  0  0  0
 29 34  1  0  0  0  0
  8 13  1  0  0  0  0
 18 24  1  0  0  0  0
 38 40  1  0  0  0  0
  7 12  1  0  0  0  0
 28 33  1  0  0  0  0
 17 23  1  0  0  0  0
 22 27  1  0  0  0  0
M  END
$$$$

  -OEChem-05262214473D

 43 42  0     1  0  0  0  0  0999 V2000
    0.7424   -1.0926    4.5665 C   0  0  0  0  0  0  0  0  0  0  0  0
    0.1409   -0.5364    5.4779 O   0  0  0  0  0  0  0  0  0  0  0  0
    1.7940   -2.1023    4.8871 C   0  0  0  0  0  0  0  0  0  0  0  0
    2.7935   -1.6502    4.9904 H   0  0  0  0  0  0  0  0  0  0  0  0
    1.6064   -2.6156    5.8438 H   0  0  0  0  0  0  0  0  0  0  0  0
    1.9156   -2.9078    4.1453 H   0  0  0  0  0  0  0  0  0  0  0  0
    0.5488   -0.8838    3.2109 N   0  0  0  0  0  0  0  0  0  0  0  0
   -0.4159    0.0446    2.6829 C   0  0  2  0  0  0  0  0  0  0  0  0
   -0.7551   -0.3867    1.2623 C   0  0  0  0  0  0  0  0  0  0  0  0
   -0.0106   -1.0851    0.5774 O   0  0  0  0  0  0  0  0  0  0  0  0
    0.1168    1.4689    2.7060 C   0  0  0  0  0  0  0  0  0  0  0  0
    1.1183   -1.4145    2.5542 H   0  0  0  0  0  0  0  0  0  0  0  0
   -1.3088   -0.0350    3.3125 H   0  0  0  0  0  0  0  0  0  0  0  0
    1.0116    1.5681    2.0808 H   0  0  0  0  0  0  0  0  0  0  0  0
   -0.6289    2.1775    2.3307 H   0  0  0  0  0  0  0  0  0  0  0  0
    0.3882    1.7670    3.7245 H   0  0  0  0  0  0  0  0  0  0  0  0
   -1.9689    0.1350    0.8298 N   0  0  0  0  0  0  0  0  0  0  0  0
   -2.5039   -0.1183   -0.4830 C   0  0  2  0  0  0  0  0  0  0  0  0
   -2.3460   -1.6048   -0.7837 C   0  0  0  0  0  0  0  0  0  0  0  0
   -2.6545   -2.4864    0.0155 O   0  0  0  0  0  0  0  0  0  0  0  0
   -1.8358    0.7523   -1.5424 C   0  0  0  0  0  0  0  0  0  0  0  0
   -0.4646    0.3969   -1.6792 O   0  0  0  0  0  0  0  0  0  0  0  0
   -2.5276    0.6894    1.4750 H   0  0  0  0  0  0  0  0  0  0  0  0
   -3.5722    0.1213   -0.4322 H   0  0  0  0  0  0  0  0  0  0  0  0
   -1.8863    1.8114   -1.2701 H   0  0  0  0  0  0  0  0  0  0  0  0
   -2.3212    0.6163   -2.5147 H   0  0  0  0  0  0  0  0  0  0  0  0
   -0.4441   -0.5364   -1.9442 H   0  0  0  0  0  0  0  0  0  0  0  0
   -1.8611   -1.8299   -2.0643 N   0  0  0  0  0  0  0  0  0  0  0  0
   -1.6525   -3.1550   -2.6002 C   0  0  2  0  0  0  0  0  0  0  0  0
   -2.7278   -4.0687   -2.0270 C   0  0  0  0  0  0  0  0  0  0  0  0
   -3.3292   -3.8242   -0.9832 O   0  0  0  0  0  0  0  0  0  0  0  0
   -0.2629   -3.6747   -2.2660 C   0  0  0  0  0  0  0  0  0  0  0  0
   -1.6703   -1.0388   -2.6721 H   0  0  0  0  0  0  0  0  0  0  0  0
   -1.7768   -3.0802   -3.6860 H   0  0  0  0  0  0  0  0  0  0  0  0
   -0.1198   -3.7564   -1.1824 H   0  0  0  0  0  0  0  0  0  0  0  0
   -0.0963   -4.6673   -2.6972 H   0  0  0  0  0  0  0  0  0  0  0  0
    0.5088   -3.0007   -2.6533 H   0  0  0  0  0  0  0  0  0  0  0  0
   -2.9063   -5.2105   -2.7955 N   0  0  0  0  0  0  0  0  0  0  0  0
   -3.8610   -6.2389   -2.4536 C   0  0  0  0  0  0  0  0  0  0  0  0
   -2.3777   -5.3216   -3.6556 H   0  0  0  0  0  0  0  0  0  0  0  0
   -3.3665   -7.0122   -1.8474 H   0  0  0  0  0  0  0  0  0  0  0  0
   -4.6874   -5.7954   -1.8788 H   0  0  0  0  0  0  0  0  0  0  0  0
   -4.2568   -6.6924   -3.3743 H   0  0  0  0  0  0  0  0  0  0  0  0
  1  3  1  0  0  0  0
  1  7  1  0  0  0  0
  1  2  2  0  0  0  0
 29 30  1  0  0  0  0
 30 38  1  0  0  0  0
 30 31  2  0  0  0  0
  8  9  1  0  0  0  0
  9 17  1  0  0  0  0
  9 10  2  0  0  0  0
 18 19  1  0  0  0  0
 19 28  1  0  0  0  0
 19 20  2  0  0  0  0
 29 32  1  0  0  0  0
  8 11  1  0  0  0  0
 38 39  1  0  0  0  0
 18 21  1  0  0  0  0
 21 22  1  0  0  0  0
 28 29  1  0  0  0  0
  7  8  1  0  0  0  0
 17 18  1  0  0  0  0
  3  4  1  0  0  0  0
  3  5  1  0  0  0  0
  3  6  1  0  0  0  0
 32 35  1  0  0  0  0
 32 36  1  0  0  0  0
 32 37  1  0  0  0  0
 11 14  1  0  0  0  0
 11 15  1  0  0  0  0
 11 16  1  0  0  0  0
 39 41  1  0  0  0  0
 39 42  1  0  0  0  0
 39 43  1  0  0  0  0
 21 25  1  0  0  0  0
 21 26  1  0  0  0  0
 29 34  1  0  0  0  0
  8 13  1  0  0  0  0
 18 24  1  0  0  0  0
 38 40  1  0  0  0  0
  7 12  1  0  0  0  0
 28 33  1  0  0  0  0
 17 23  1  0  0  0  0
 22 27  1  0  0  0  0
M  END
$$$$

  -OEChem-05262214473D

 43 42  0     1  0  0  0  0  0999 V2000
    0.7424   -1.0926    4.5665 C   0  0  0  0  0  0  0  0  0  0  0  0
    0.1409   -0.5364    5.4779 O   0  0  0  0  0  0  0  0  0  0  0  0
    1.7940   -2.1023    4.8871 C   0  0  0  0  0  0  0  0  0  0  0  0
    2.7935   -1.6502    4.9904 H   0  0  0  0  0  0  0  0  0  0  0  0
    1.6064   -2.6156    5.8438 H   0  0  0  0  0  0  0  0  0  0  0  0
    1.9156   -2.9078    4.1453 H   0  0  0  0  0  0  0  0  0  0  0  0
    0.5488   -0.8838    3.2109 N   0  0  0  0  0  0  0  0  0  0  0  0
   -0.4159    0.0446    2.6829 C   0  0  2  0  0  0  0  0  0  0  0  0
   -0.7551   -0.3867    1.2623 C   0  0  0  0  0  0  0  0  0  0  0  0
   -0.0106   -1.0851    0.5774 O   0  0  0  0  0  0  0  0  0  0  0  0
    0.1168    1.4689    2.7060 C   0  0  0  0  0  0  0  0  0  0  0  0
    1.1183   -1.4145    2.5542 H   0  0  0  0  0  0  0  0  0  0  0  0
   -1.3088   -0.0350    3.3125 H   0  0  0  0  0  0  0  0  0  0  0  0
    1.0116    1.5681    2.0808 H   0  0  0  0  0  0  0  0  0  0  0  0
   -0.6289    2.1775    2.3307 H   0  0  0  0  0  0  0  0  0  0  0  0
    0.3882    1.7670    3.7245 H   0  0  0  0  0  0  0  0  0  0  0  0
   -1.9689    0.1350    0.8298 N   0  0  0  0  0  0  0  0  0  0  0  0
   -2.5039   -0.1183   -0.4830 C   0  0  2  0  0  0  0  0  0  0  0  0
   -2.3460   -1.6048   -0.7837 C   0  0  0  0  0  0  0  0  0  0  0  0
   -2.8883   -2.4843   -0.1177 O   0  0  0  0  0  0  0  0  0  0  0  0
   -1.8358    0.7523   -1.5424 C   0  0  0  0  0  0  0  0  0  0  0  0
   -0.4646    0.3969   -1.6792 O   0  0  0  0  0  0  0  0  0  0  0  0
   -2.5276    0.6894    1.4750 H   0  0  0  0  0  0  0  0  0  0  0  0
   -3.5722    0.1213   -0.4322 H   0  0  0  0  0  0  0  0  0  0  0  0
   -1.8863    1.8114   -1.2701 H   0  0  0  0  0  0  0  0  0  0  0  0
   -2.3212    0.6163   -2.5147 H   0  0  0  0  0  0  0  0  0  0  0  0
   -0.4441   -0.5364   -1.9442 H   0  0  0  0  0  0  0  0  0  0  0  0
   -1.5641   -1.8300   -1.9078 N   0  0  0  0  0  0  0  0  0  0  0  0
   -1.2901   -3.1534   -2.4179 C   0  0  2  0  0  0  0  0  0  0  0  0
   -2.5176   -4.0185   -2.1646 C   0  0  0  0  0  0  0  0  0  0  0  0
   -3.3513   -3.7628   -1.2981 O   0  0  0  0  0  0  0  0  0  0  0  0
   -0.0566   -3.7546   -1.7624 C   0  0  0  0  0  0  0  0  0  0  0  0
   -1.1883   -1.0383   -2.4214 H   0  0  0  0  0  0  0  0  0  0  0  0
   -1.1319   -3.0499   -3.4970 H   0  0  0  0  0  0  0  0  0  0  0  0
   -0.1964   -3.8659   -0.6809 H   0  0  0  0  0  0  0  0  0  0  0  0
    0.1663   -4.7459   -2.1706 H   0  0  0  0  0  0  0  0  0  0  0  0
    0.8191   -3.1160   -1.9203 H   0  0  0  0  0  0  0  0  0  0  0  0
   -2.5501   -5.1332   -2.9908 N   0  0  0  0  0  0  0  0  0  0  0  0
   -3.6081   -6.1147   -2.9347 C   0  0  0  0  0  0  0  0  0  0  0  0
   -1.8269   -5.2555   -3.6935 H   0  0  0  0  0  0  0  0  0  0  0  0
   -3.3204   -6.9259   -2.2497 H   0  0  0  0  0  0  0  0  0  0  0  0
   -4.5309   -5.6386   -2.5718 H   0  0  0  0  0  0  0  0  0  0  0  0
   -3.7791   -6.5272   -3.9400 H   0  0  0  0  0  0  0  0  0  0  0  0
  1  3  1  0  0  0  0
  1  7  1  0  0  0  0
  1  2  2  0  0  0  0
 29 30  1  0  0  0  0
 30 38  1  0  0  0  0
 30 31  2  0  0  0  0
  8  9  1  0  0  0  0
  9 17  1  0  0  0  0
  9 10  2  0  0  0  0
 18 19  1  0  0  0  0
 19 28  1  0  0  0  0
 19 20  2  0  0  0  0
 29 32  1  0  0  0  0
  8 11  1  0  0  0  0
 38 39  1  0  0  0  0
 18 21  1  0  0  0  0
 21 22  1  0  0  0  0
 28 29  1  0  0  0  0
  7  8  1  0  0  0  0
 17 18  1  0  0  0  0
  3  4  1  0  0  0  0
  3  5  1  0  0  0  0
  3  6  1  0  0  0  0
 32 35  1  0  0  0  0
 32 36  1  0  0  0  0
 32 37  1  0  0  0  0
 11 14  1  0  0  0  0
 11 15  1  0  0  0  0
 11 16  1  0  0  0  0
 39 41  1  0  0  0  0
 39 42  1  0  0  0  0
 39 43  1  0  0  0  0
 21 25  1  0  0  0  0
 21 26  1  0  0  0  0
 29 34  1  0  0  0  0
  8 13  1  0  0  0  0
 18 24  1  0  0  0  0
 38 40  1  0  0  0  0
  7 12  1  0  0  0  0
 28 33  1  0  0  0  0
 17 23  1  0  0  0  0
 22 27  1  0  0  0  0
M  END
$$$$

  -OEChem-05262214473D

 43 42  0     1  0  0  0  0  0999 V2000
    0.7424   -1.0926    4.5665 C   0  0  0  0  0  0  0  0  0  0  0  0
    0.1409   -0.5364    5.4779 O   0  0  0  0  0  0  0  0  0  0  0  0
    1.7940   -2.1023    4.8871 C   0  0  0  0  0  0  0  0  0  0  0  0
    2.7935   -1.6502    4.9904 H   0  0  0  0  0  0  0  0  0  0  0  0
    1.6064   -2.6156    5.8438 H   0  0  0  0  0  0  0  0  0  0  0  0
    1.9156   -2.9078    4.1453 H   0  0  0  0  0  0  0  0  0  0  0  0
    0.5488   -0.8838    3.2109 N   0  0  0  0  0  0  0  0  0  0  0  0
   -0.4159    0.0446    2.6829 C   0  0  2  0  0  0  0  0  0  0  0  0
   -0.7551   -0.3867    1.2623 C   0  0  0  0  0  0  0  0  0  0  0  0
   -0.0106   -1.0851    0.5774 O   0  0  0  0  0  0  0  0  0  0  0  0
    0.1168    1.4689    2.7060 C   0  0  0  0  0  0  0  0  0  0  0  0
    1.1183   -1.4145    2.5542 H   0  0  0  0  0  0  0  0  0  0  0  0
   -1.3088   -0.0350    3.3125 H   0  0  0  0  0  0  0  0  0  0  0  0
    1.0116    1.5681    2.0808 H   0  0  0  0  0  0  0  0  0  0  0  0
   -0.6289    2.1775    2.3307 H   0  0  0  0  0  0  0  0  0  0  0  0
    0.3882    1.7670    3.7245 H   0  0  0  0  0  0  0  0  0  0  0  0
   -1.9689    0.1350    0.8298 N   0  0  0  0  0  0  0  0  0  0  0  0
   -2.5039   -0.1183   -0.4830 C   0  0  2  0  0  0  0  0  0  0  0  0
   -2.3460   -1.6048   -0.7837 C   0  0  0  0  0  0  0  0  0  0  0  0
   -3.0804   -2.4668   -0.3053 O   0  0  0  0  0  0  0  0  0  0  0  0
   -1.8358    0.7523   -1.5424 C   0  0  0  0  0  0  0  0  0  0  0  0
   -0.4646    0.3969   -1.6792 O   0  0  0  0  0  0  0  0  0  0  0  0
   -2.5276    0.6894    1.4750 H   0  0  0  0  0  0  0  0  0  0  0  0
   -3.5722    0.1213   -0.4322 H   0  0  0  0  0  0  0  0  0  0  0  0
   -1.8863    1.8114   -1.2701 H   0  0  0  0  0  0  0  0  0  0  0  0
   -2.3212    0.6163   -2.5147 H   0  0  0  0  0  0  0  0  0  0  0  0
   -0.4441   -0.5364   -1.9442 H   0  0  0  0  0  0  0  0  0  0  0  0
   -1.3168   -1.8495   -1.6818 N   0  0  0  0  0  0  0  0  0  0  0  0
   -0.9859   -3.1752   -2.1504 C   0  0  2  0  0  0  0  0  0  0  0  0
   -2.2773   -3.9771   -2.2430 C   0  0  0  0  0  0  0  0  0  0  0  0
   -3.2899   -3.6940   -1.6062 O   0  0  0  0  0  0  0  0  0  0  0  0
    0.0115   -3.8559   -1.2260 C   0  0  0  0  0  0  0  0  0  0  0  0
   -0.7860   -1.0692   -2.0575 H   0  0  0  0  0  0  0  0  0  0  0  0
   -0.5551   -3.0587   -3.1508 H   0  0  0  0  0  0  0  0  0  0  0  0
   -0.4025   -3.9813   -0.2188 H   0  0  0  0  0  0  0  0  0  0  0  0
    0.2830   -4.8494   -1.5978 H   0  0  0  0  0  0  0  0  0  0  0  0
    0.9281   -3.2628   -1.1371 H   0  0  0  0  0  0  0  0  0  0  0  0
   -2.1527   -5.0714   -3.0876 N   0  0  0  0  0  0  0  0  0  0  0  0
   -3.2359   -5.9948   -3.3322 C   0  0  0  0  0  0  0  0  0  0  0  0
   -1.2819   -5.2187   -3.5894 H   0  0  0  0  0  0  0  0  0  0  0  0
   -3.1699   -6.8342   -2.6244 H   0  0  0  0  0  0  0  0  0  0  0  0
   -4.1968   -5.4765   -3.1976 H   0  0  0  0  0  0  0  0  0  0  0  0
   -3.1665   -6.3769   -4.3614 H   0  0  0  0  0  0  0  0  0  0  0  0
  1  3  1  0  0  0  0
  1  7  1  0  0  0  0
  1  2  2  0  0  0  0
 29 30  1  0  0  0  0
 30 38  1  0  0  0  0
 30 31  2  0  0  0  0
  8  9  1  0  0  0  0
  9 17  1  0  0  0  0
  9 10  2  0  0  0  0
 18 19  1  0  0  0  0
 19 28  1  0  0  0  0
 19 20  2  0  0  0  0
 29 32  1  0  0  0  0
  8 11  1  0  0  0  0
 38 39  1  0  0  0  0
 18 21  1  0  0  0  0
 21 22  1  0  0  0  0
 28 29  1  0  0  0  0
  7  8  1  0  0  0  0
 17 18  1  0  0  0  0
  3  4  1  0  0  0  0
  3  5  1  0  0  0  0
  3  6  1  0  0  0  0
 32 35  1  0  0  0  0
 32 36  1  0  0  0  0
 32 37  1  0  0  0  0
 11 14  1  0  0  0  0
 11 15  1  0  0  0  0
 11 16  1  0  0  0  0
 39 41  1  0  0  0  0
 39 42  1  0  0  0  0
 39 43  1  0  0  0  0
 21 25  1  0  0  0  0
 21 26  1  0  0  0  0
 29 34  1  0  0  0  0
  8 13  1  0  0  0  0
 18 24  1  0  0  0  0
 38 40  1  0  0  0  0
  7 12  1  0  0  0  0
 28 33  1  0  0  0  0
 17 23  1  0  0  0  0
 22 27  1  0  0  0  0
M  END
$$$$

  -OEChem-05262214473D

 43 42  0     1  0  0  0  0  0999 V2000
    0.7424   -1.0926    4.5665 C   0  0  0  0  0  0  0  0  0  0  0  0
    0.1409   -0.5364    5.4779 O   0  0  0  0  0  0  0  0  0  0  0  0
    1.7940   -2.1023    4.8871 C   0  0  0  0  0  0  0  0  0  0  0  0
    2.7935   -1.6502    4.9904 H   0  0  0  0  0  0  0  0  0  0  0  0
    1.6064   -2.6156    5.8438 H   0  0  0  0  0  0  0  0  0  0  0  0
    1.9156   -2.9078    4.1453 H   0  0  0  0  0  0  0  0  0  0  0  0
    0.5488   -0.8838    3.2109 N   0  0  0  0  0  0  0  0  0  0  0  0
   -0.4159    0.0446    2.6829 C   0  0  2  0  0  0  0  0  0  0  0  0
   -0.7551   -0.3867    1.2623 C   0  0  0  0  0  0  0  0  0  0  0  0
   -0.0106   -1.0851    0.5774 O   0  0  0  0  0  0  0  0  0  0  0  0
    0.1168    1.4689    2.7060 C   0  0  0  0  0  0  0  0  0  0  0  0
    1.1183   -1.4145    2.5542 H   0  0  0  0  0  0  0  0  0  0  0  0
   -1.3088   -0.0350    3.3125 H   0  0  0  0  0  0  0  0  0  0  0  0
    1.0116    1.5681    2.0808 H   0  0  0  0  0  0  0  0  0  0  0  0
   -0.6289    2.1775    2.3307 H   0  0  0  0  0  0  0  0  0  0  0  0
    0.3882    1.7670    3.7245 H   0  0  0  0  0  0  0  0  0  0  0  0
   -1.9689    0.1350    0.8298 N   0  0  0  0  0  0  0  0  0  0  0  0
   -2.5039   -0.1183   -0.4830 C   0  0  2  0  0  0  0  0  0  0  0  0
   -2.3460   -1.6048   -0.7837 C   0  0  0  0  0  0  0  0  0  0  0  0
   -3.2177   -2.4350   -0.5345 O   0  0  0  0  0  0  0  0  0  0  0  0
   -1.8358    0.7523   -1.5424 C   0  0  0  0  0  0  0  0  0  0  0  0
   -0.4646    0.3969   -1.6792 O   0  0  0  0  0  0  0  0  0  0  0  0
   -2.5276    0.6894    1.4750 H   0  0  0  0  0  0  0  0  0  0  0  0
   -3.5722    0.1213   -0.4322 H   0  0  0  0  0  0  0  0  0  0  0  0
   -1.8863    1.8114   -1.2701 H   0  0  0  0  0  0  0  0  0  0  0  0
   -2.3212    0.6163   -2.5147 H   0  0  0  0  0  0  0  0  0  0  0  0
   -0.4441   -0.5364   -1.9442 H   0  0  0  0  0  0  0  0  0  0  0  0
   -1.1359   -1.8869   -1.4016 N   0  0  0  0  0  0  0  0  0  0  0  0
   -0.7607   -3.2189   -1.8158 C   0  0  2  0  0  0  0  0  0  0  0  0
   -2.0233   -3.9473   -2.2571 C   0  0  0  0  0  0  0  0  0  0  0  0
   -3.1495   -3.6224   -1.8865 O   0  0  0  0  0  0  0  0  0  0  0  0
   -0.0632   -3.9716   -0.6934 C   0  0  0  0  0  0  0  0  0  0  0  0
   -0.4908   -1.1293   -1.6054 H   0  0  0  0  0  0  0  0  0  0  0  0
   -0.0858   -3.1058   -2.6711 H   0  0  0  0  0  0  0  0  0  0  0  0
   -0.7240   -4.0946    0.1725 H   0  0  0  0  0  0  0  0  0  0  0  0
    0.2459   -4.9707   -1.0179 H   0  0  0  0  0  0  0  0  0  0  0  0
    0.8282   -3.4312   -0.3570 H   0  0  0  0  0  0  0  0  0  0  0  0
   -1.7413   -5.0294   -3.0791 N   0  0  0  0  0  0  0  0  0  0  0  0
   -2.7701   -5.8873   -3.6191 C   0  0  0  0  0  0  0  0  0  0  0  0
   -0.7799   -5.2137   -3.3503 H   0  0  0  0  0  0  0  0  0  0  0  0
   -2.9253   -6.7432   -2.9458 H   0  0  0  0  0  0  0  0  0  0  0  0
   -3.7080   -5.3203   -3.7134 H   0  0  0  0  0  0  0  0  0  0  0  0
   -2.4608   -6.2517   -4.6099 H   0  0  0  0  0  0  0  0  0  0  0  0
  1  3  1  0  0  0  0
  1  7  1  0  0  0  0
  1  2  2  0  0  0  0
 29 30  1  0  0  0  0
 30 38  1  0  0  0  0
 30 31  2  0  0  0  0
  8  9  1  0  0  0  0
  9 17  1  0  0  0  0
  9 10  2  0  0  0  0
 18 19  1  0  0  0  0
 19 28  1  0  0  0  0
 19 20  2  0  0  0  0
 29 32  1  0  0  0  0
  8 11  1  0  0  0  0
 38 39  1  0  0  0  0
 18 21  1  0  0  0  0
 21 22  1  0  0  0  0
 28 29  1  0  0  0  0
  7  8  1  0  0  0  0
 17 18  1  0  0  0  0
  3  4  1  0  0  0  0
  3  5  1  0  0  0  0
  3  6  1  0  0  0  0
 32 35  1  0  0  0  0
 32 36  1  0  0  0  0
 32 37  1  0  0  0  0
 11 14  1  0  0  0  0
 11 15  1  0  0  0  0
 11 16  1  0  0  0  0
 39 41  1  0  0  0  0
 39 42  1  0  0  0  0
 39 43  1  0  0  0  0
 21 25  1  0  0  0  0
 21 26  1  0  0  0  0
 29 34  1  0  0  0  0
  8 13  1  0  0  0  0
 18 24  1  0  0  0  0
 38 40  1  0  0  0  0
  7 12  1  0  0  0  0
 28 33  1  0  0  0  0
 17 23  1  0  0  0  0
 22 27  1  0  0  0  0
M  END
$$$$

  -OEChem-05262214473D

 43 42  0     1  0  0  0  0  0999 V2000
    0.7424   -1.0926    4.5665 C   0  0  0  0  0  0  0  0  0  0  0  0
    0.1409   -0.5364    5.4779 O   0  0  0  0  0  0  0  0  0  0  0  0
    1.7940   -2.1023    4.8871 C   0  0  0  0  0  0  0  0  0  0  0  0
    2.7935   -1.6502    4.9904 H   0  0  0  0  0  0  0  0  0  0  0  0
    1.6064   -2.6156    5.8438 H   0  0  0  0  0  0  0  0  0  0  0  0
    1.9156   -2.9078    4.1453 H   0  0  0  0  0  0  0  0  0  0  0  0
    0.5488   -0.8838    3.2109 N   0  0  0  0  0  0  0  0  0  0  0  0
   -0.4159    0.0446    2.6829 C   0  0  2  0  0  0  0  0  0  0  0  0
   -0.7551   -0.3867    1.2623 C   0  0  0  0  0  0  0  0  0  0  0  0
   -0.0106   -1.0851    0.5774 O   0  0  0  0  0  0  0  0  0  0  0  0
    0.1168    1.4689    2.7060 C   0  0  0  0  0  0  0  0  0  0  0  0
    1.1183   -1.4145    2.5542 H   0  0  0  0  0  0  0  0  0  0  0  0
   -1.3088   -0.0350    3.3125 H   0  0  0  0  0  0  0  0  0  0  0  0
    1.0116    1.5681    2.0808 H   0  0  0  0  0  0  0  0  0  0  0  0
   -0.6289    2.1775    2.3307 H   0  0  0  0  0  0  0  0  0  0  0  0
    0.3882    1.7670    3.7245 H   0  0  0  0  0  0  0  0  0  0  0  0
   -1.9689    0.1350    0.8298 N   0  0  0  0  0  0  0  0  0  0  0  0
   -2.5039   -0.1183   -0.4830 C   0  0  2  0  0  0  0  0  0  0  0  0
   -2.3460   -1.6048   -0.7837 C   0  0  0  0  0  0  0  0  0  0  0  0
   -3.2909   -2.3911   -0.7897 O   0  0  0  0  0  0  0  0  0  0  0  0
   -1.8358    0.7523   -1.5424 C   0  0  0  0  0  0  0  0  0  0  0  0
   -0.4646    0.3969   -1.6792 O   0  0  0  0  0  0  0  0  0  0  0  0
   -2.5276    0.6894    1.4750 H   0  0  0  0  0  0  0  0  0  0  0  0
   -3.5722    0.1213   -0.4322 H   0  0  0  0  0  0  0  0  0  0  0  0
   -1.8863    1.8114   -1.2701 H   0  0  0  0  0  0  0  0  0  0  0  0
   -2.3212    0.6163   -2.5147 H   0  0  0  0  0  0  0  0  0  0  0  0
   -0.4441   -0.5364   -1.9442 H   0  0  0  0  0  0  0  0  0  0  0  0
   -1.0338   -1.9399   -1.0862 N   0  0  0  0  0  0  0  0  0  0  0  0
   -0.6299   -3.2817   -1.4369 C   0  0  2  0  0  0  0  0  0  0  0  0
   -1.7729   -3.9311   -2.2058 C   0  0  0  0  0  0  0  0  0  0  0  0
   -2.9394   -3.5529   -2.1198 O   0  0  0  0  0  0  0  0  0  0  0  0
   -0.2757   -4.0938   -0.2009 C   0  0  0  0  0  0  0  0  0  0  0  0
   -0.3228   -1.2145   -1.0958 H   0  0  0  0  0  0  0  0  0  0  0  0
    0.2441   -3.1882   -2.0907 H   0  0  0  0  0  0  0  0  0  0  0  0
   -1.1391   -4.1981    0.4662 H   0  0  0  0  0  0  0  0  0  0  0  0
    0.0576   -5.1014   -0.4703 H   0  0  0  0  0  0  0  0  0  0  0  0
    0.5263   -3.6097    0.3668 H   0  0  0  0  0  0  0  0  0  0  0  0
   -1.3439   -5.0101   -2.9660 N   0  0  0  0  0  0  0  0  0  0  0  0
   -2.2422   -5.7995   -3.7758 C   0  0  0  0  0  0  0  0  0  0  0  0
   -0.3551   -5.2409   -2.9925 H   0  0  0  0  0  0  0  0  0  0  0  0
   -2.6033   -6.6591   -3.1922 H   0  0  0  0  0  0  0  0  0  0  0  0
   -3.0977   -5.1805   -4.0840 H   0  0  0  0  0  0  0  0  0  0  0  0
   -1.7100   -6.1601   -4.6684 H   0  0  0  0  0  0  0  0  0  0  0  0
  1  3  1  0  0  0  0
  1  7  1  0  0  0  0
  1  2  2  0  0  0  0
 29 30  1  0  0  0  0
 30 38  1  0  0  0  0
 30 31  2  0  0  0  0
  8  9  1  0  0  0  0
  9 17  1  0  0  0  0
  9 10  2  0  0  0  0
 18 19  1  0  0  0  0
 19 28  1  0  0  0  0
 19 20  2  0  0  0  0
 29 32  1  0  0  0  0
  8 11  1  0  0  0  0
 38 39  1  0  0  0  0
 18 21  1  0  0  0  0
 21 22  1  0  0  0  0
 28 29  1  0  0  0  0
  7  8  1  0  0  0  0
 17 18  1  0  0  0  0
  3  4  1  0  0  0  0
  3  5  1  0  0  0  0
  3  6  1  0  0  0  0
 32 35  1  0  0  0  0
 32 36  1  0  0  0  0
 32 37  1  0  0  0  0
 11 14  1  0  0  0  0
 11 15  1  0  0  0  0
 11 16  1  0  0  0  0
 39 41  1  0  0  0  0
 39 42  1  0  0  0  0
 39 43  1  0  0  0  0
 21 25  1  0  0  0  0
 21 26  1  0  0  0  0
 29 34  1  0  0  0  0
  8 13  1  0  0  0  0
 18 24  1  0  0  0  0
 38 40  1  0  0  0  0
  7 12  1  0  0  0  0
 28 33  1  0  0  0  0
 17 23  1  0  0  0  0
 22 27  1  0  0  0  0
M  END
$$$$

  -OEChem-05262214473D

 43 42  0     1  0  0  0  0  0999 V2000
    0.7424   -1.0926    4.5665 C   0  0  0  0  0  0  0  0  0  0  0  0
    0.1409   -0.5364    5.4779 O   0  0  0  0  0  0  0  0  0  0  0  0
    1.7940   -2.1023    4.8871 C   0  0  0  0  0  0  0  0  0  0  0  0
    2.7935   -1.6502    4.9904 H   0  0  0  0  0  0  0  0  0  0  0  0
    1.6064   -2.6156    5.8438 H   0  0  0  0  0  0  0  0  0  0  0  0
    1.9156   -2.9078    4.1453 H   0  0  0  0  0  0  0  0  0  0  0  0
    0.5488   -0.8838    3.2109 N   0  0  0  0  0  0  0  0  0  0  0  0
   -0.4159    0.0446    2.6829 C   0  0  2  0  0  0  0  0  0  0  0  0
   -0.7551   -0.3867    1.2623 C   0  0  0  0  0  0  0  0  0  0  0  0
   -0.0106   -1.0851    0.5774 O   0  0  0  0  0  0  0  0  0  0  0  0
    0.1168    1.4689    2.7060 C   0  0  0  0  0  0  0  0  0  0  0  0
    1.1183   -1.4145    2.5542 H   0  0  0  0  0  0  0  0  0  0  0  0
   -1.3088   -0.0350    3.3125 H   0  0  0  0  0  0  0  0  0  0  0  0
    1.0116    1.5681    2.0808 H   0  0  0  0  0  0  0  0  0  0  0  0
   -0.6289    2.1775    2.3307 H   0  0  0  0  0  0  0  0  0  0  0  0
    0.3882    1.7670    3.7245 H   0  0  0  0  0  0  0  0  0  0  0  0
   -1.9689    0.1350    0.8298 N   0  0  0  0  0  0  0  0  0  0  0  0
   -2.5039   -0.1183   -0.4830 C   0  0  2  0  0  0  0  0  0  0  0  0
   -2.3460   -1.6048   -0.7837 C   0  0  0  0  0  0  0  0  0  0  0  0
   -3.2949   -2.3382   -1.0535 O   0  0  0  0  0  0  0  0  0  0  0  0
   -1.8358    0.7523   -1.5424 C   0  0  0  0  0  0  0  0  0  0  0  0
   -0.4646    0.3969   -1.6792 O   0  0  0  0  0  0  0  0  0  0  0  0
   -2.5276    0.6894    1.4750 H   0  0  0  0  0  0  0  0  0  0  0  0
   -3.5722    0.1213   -0.4322 H   0  0  0  0  0  0  0  0  0  0  0  0
   -1.8863    1.8114   -1.2701 H   0  0  0  0  0  0  0  0  0  0  0  0
   -2.3212    0.6163   -2.5147 H   0  0  0  0  0  0  0  0  0  0  0  0
   -0.4441   -0.5364   -1.9442 H   0  0  0  0  0  0  0  0  0  0  0  0
   -1.0174   -2.0047   -0.7573 N   0  0  0  0  0  0  0  0  0  0  0  0
   -0.6023   -3.3591   -1.0396 C   0  0  2  0  0  0  0  0  0  0  0  0
   -1.5432   -3.9296   -2.0926 C   0  0  0  0  0  0  0  0  0  0  0  0
   -2.6741   -3.4902   -2.2903 O   0  0  0  0  0  0  0  0  0  0  0  0
   -0.6114   -4.2141    0.2179 C   0  0  0  0  0  0  0  0  0  0  0  0
   -0.2934   -1.3191   -0.5635 H   0  0  0  0  0  0  0  0  0  0  0  0
    0.4121   -3.3002   -1.4490 H   0  0  0  0  0  0  0  0  0  0  0  0
   -1.6195   -4.2848    0.6425 H   0  0  0  0  0  0  0  0  0  0  0  0
   -0.2692   -5.2328    0.0076 H   0  0  0  0  0  0  0  0  0  0  0  0
    0.0430   -3.7861    0.9850 H   0  0  0  0  0  0  0  0  0  0  0  0
   -0.9876   -5.0147   -2.7560 N   0  0  0  0  0  0  0  0  0  0  0  0
   -1.6884   -5.7375   -3.7916 C   0  0  0  0  0  0  0  0  0  0  0  0
   -0.0364   -5.2985   -2.5405 H   0  0  0  0  0  0  0  0  0  0  0  0
   -2.2258   -6.5878   -3.3466 H   0  0  0  0  0  0  0  0  0  0  0  0
   -2.4075   -5.0666   -4.2844 H   0  0  0  0  0  0  0  0  0  0  0  0
   -0.9654   -6.1083   -4.5331 H   0  0  0  0  0  0  0  0  0  0  0  0
  1  3  1  0  0  0  0
  1  7  1  0  0  0  0
  1  2  2  0  0  0  0
 29 30  1  0  0  0  0
 30 38  1  0  0  0  0
 30 31  2  0  0  0  0
  8  9  1  0  0  0  0
  9 17  1  0  0  0  0
  9 10  2  0  0  0  0
 18 19  1  0  0  0  0
 19 28  1  0  0  0  0
 19 20  2  0  0  0  0
 29 32  1  0  0  0  0
  8 11  1  0  0  0  0
 38 39  1  0  0  0  0
 18 21  1  0  0  0  0
 21 22  1  0  0  0  0
 28 29  1  0  0  0  0
  7  8  1  0  0  0  0
 17 18  1  0  0  0  0
  3  4  1  0  0  0  0
  3  5  1  0  0  0  0
  3  6  1  0  0  0  0
 32 35  1  0  0  0  0
 32 36  1  0  0  0  0
 32 37  1  0  0  0  0
 11 14  1  0  0  0  0
 11 15  1  0  0  0  0
 11 16  1  0  0  0  0
 39 41  1  0  0  0  0
 39 42  1  0  0  0  0
 39 43  1  0  0  0  0
 21 25  1  0  0  0  0
 21 26  1  0  0  0  0
 29 34  1  0  0  0  0
  8 13  1  0  0  0  0
 18 24  1  0  0  0  0
 38 40  1  0  0  0  0
  7 12  1  0  0  0  0
 28 33  1  0  0  0  0
 17 23  1  0  0  0  0
 22 27  1  0  0  0  0
M  END
$$$$

  -OEChem-05262214473D

 43 42  0     1  0  0  0  0  0999 V2000
    0.7424   -1.0926    4.5665 C   0  0  0  0  0  0  0  0  0  0  0  0
    0.1409   -0.5364    5.4779 O   0  0  0  0  0  0  0  0  0  0  0  0
    1.7940   -2.1023    4.8871 C   0  0  0  0  0  0  0  0  0  0  0  0
    2.7935   -1.6502    4.9904 H   0  0  0  0  0  0  0  0  0  0  0  0
    1.6064   -2.6156    5.8438 H   0  0  0  0  0  0  0  0  0  0  0  0
    1.9156   -2.9078    4.1453 H   0  0  0  0  0  0  0  0  0  0  0  0
    0.5488   -0.8838    3.2109 N   0  0  0  0  0  0  0  0  0  0  0  0
   -0.4159    0.0446    2.6829 C   0  0  2  0  0  0  0  0  0  0  0  0
   -0.7551   -0.3867    1.2623 C   0  0  0  0  0  0  0  0  0  0  0  0
   -0.0106   -1.0851    0.5774 O   0  0  0  0  0  0  0  0  0  0  0  0
    0.1168    1.4689    2.7060 C   0  0  0  0  0  0  0  0  0  0  0  0
    1.1183   -1.4145    2.5542 H   0  0  0  0  0  0  0  0  0  0  0  0
   -1.3088   -0.0350    3.3125 H   0  0  0  0  0  0  0  0  0  0  0  0
    1.0116    1.5681    2.0808 H   0  0  0  0  0  0  0  0  0  0  0  0
   -0.6289    2.1775    2.3307 H   0  0  0  0  0  0  0  0  0  0  0  0
    0.3882    1.7670    3.7245 H   0  0  0  0  0  0  0  0  0  0  0  0
   -1.9689    0.1350    0.8298 N   0  0  0  0  0  0  0  0  0  0  0  0
   -2.5039   -0.1183   -0.4830 C   0  0  2  0  0  0  0  0  0  0  0  0
   -2.3460   -1.6048   -0.7837 C   0  0  0  0  0  0  0  0  0  0  0  0
   -3.2296   -2.2798   -1.3079 O   0  0  0  0  0  0  0  0  0  0  0  0
   -1.8358    0.7523   -1.5424 C   0  0  0  0  0  0  0  0  0  0  0  0
   -0.4646    0.3969   -1.6792 O   0  0  0  0  0  0  0  0  0  0  0  0
   -2.5276    0.6894    1.4750 H   0  0  0  0  0  0  0  0  0  0  0  0
   -3.5722    0.1213   -0.4322 H   0  0  0  0  0  0  0  0  0  0  0  0
   -1.8863    1.8114   -1.2701 H   0  0  0  0  0  0  0  0  0  0  0  0
   -2.3212    0.6163   -2.5147 H   0  0  0  0  0  0  0  0  0  0  0  0
   -0.4441   -0.5364   -1.9442 H   0  0  0  0  0  0  0  0  0  0  0  0
   -1.0879   -2.0769   -0.4372 N   0  0  0  0  0  0  0  0  0  0  0  0
   -0.6798   -3.4459   -0.6510 C   0  0  2  0  0  0  0  0  0  0  0  0
   -1.3497   -3.9429   -1.9253 C   0  0  0  0  0  0  0  0  0  0  0  0
   -2.3715   -3.4386   -2.3864 O   0  0  0  0  0  0  0  0  0  0  0  0
   -1.0475   -4.3245    0.5346 C   0  0  0  0  0  0  0  0  0  0  0  0
   -0.4047   -1.4359   -0.0447 H   0  0  0  0  0  0  0  0  0  0  0  0
    0.4068   -3.4341   -0.7897 H   0  0  0  0  0  0  0  0  0  0  0  0
   -2.1324   -4.3487    0.6892 H   0  0  0  0  0  0  0  0  0  0  0  0
   -0.7121   -5.3559    0.3833 H   0  0  0  0  0  0  0  0  0  0  0  0
   -0.5889   -3.9484    1.4554 H   0  0  0  0  0  0  0  0  0  0  0  0
   -0.6967   -5.0430   -2.4633 N   0  0  0  0  0  0  0  0  0  0  0  0
   -1.1462   -5.7054   -3.6655 C   0  0  0  0  0  0  0  0  0  0  0  0
    0.1544   -5.3825   -2.0251 H   0  0  0  0  0  0  0  0  0  0  0  0
   -1.8186   -6.5340   -3.3986 H   0  0  0  0  0  0  0  0  0  0  0  0
   -1.6845   -4.9865   -4.3007 H   0  0  0  0  0  0  0  0  0  0  0  0
   -0.2777   -6.1000   -4.2131 H   0  0  0  0  0  0  0  0  0  0  0  0
  1  3  1  0  0  0  0
  1  7  1  0  0  0  0
  1  2  2  0  0  0  0
 29 30  1  0  0  0  0
 30 38  1  0  0  0  0
 30 31  2  0  0  0  0
  8  9  1  0  0  0  0
  9 17  1  0  0  0  0
  9 10  2  0  0  0  0
 18 19  1  0  0  0  0
 19 28  1  0  0  0  0
 19 20  2  0  0  0  0
 29 32  1  0  0  0  0
  8 11  1  0  0  0  0
 38 39  1  0  0  0  0
 18 21  1  0  0  0  0
 21 22  1  0  0  0  0
 28 29  1  0  0  0  0
  7  8  1  0  0  0  0
 17 18  1  0  0  0  0
  3  4  1  0  0  0  0
  3  5  1  0  0  0  0
  3  6  1  0  0  0  0
 32 35  1  0  0  0  0
 32 36  1  0  0  0  0
 32 37  1  0  0  0  0
 11 14  1  0  0  0  0
 11 15  1  0  0  0  0
 11 16  1  0  0  0  0
 39 41  1  0  0  0  0
 39 42  1  0  0  0  0
 39 43  1  0  0  0  0
 21 25  1  0  0  0  0
 21 26  1  0  0  0  0
 29 34  1  0  0  0  0
  8 13  1  0  0  0  0
 18 24  1  0  0  0  0
 38 40  1  0  0  0  0
  7 12  1  0  0  0  0
 28 33  1  0  0  0  0
 17 23  1  0  0  0  0
 22 27  1  0  0  0  0
M  END
$$$$

  -OEChem-05262214473D

 43 42  0     1  0  0  0  0  0999 V2000
    0.7424   -1.0926    4.5665 C   0  0  0  0  0  0  0  0  0  0  0  0
    0.1409   -0.5364    5.4779 O   0  0  0  0  0  0  0  0  0  0  0  0
    1.7940   -2.1023    4.8871 C   0  0  0  0  0  0  0  0  0  0  0  0
    2.7935   -1.6502    4.9904 H   0  0  0  0  0  0  0  0  0  0  0  0
    1.6064   -2.6156    5.8438 H   0  0  0  0  0  0  0  0  0  0  0  0
    1.9156   -2.9078    4.1453 H   0  0  0  0  0  0  0  0  0  0  0  0
    0.5488   -0.8838    3.2109 N   0  0  0  0  0  0  0  0  0  0  0  0
   -0.4159    0.0446    2.6829 C   0  0  2  0  0  0  0  0  0  0  0  0
   -0.7551   -0.3867    1.2623 C   0  0  0  0  0  0  0  0  0  0  0  0
   -0.0106   -1.0851    0.5774 O   0  0  0  0  0  0  0  0  0  0  0  0
    0.1168    1.4689    2.7060 C   0  0  0  0  0  0  0  0  0  0  0  0
    1.1183   -1.4145    2.5542 H   0  0  0  0  0  0  0  0  0  0  0  0
   -1.3088   -0.0350    3.3125 H   0  0  0  0  0  0  0  0  0  0  0  0
    1.0116    1.5681    2.0808 H   0  0  0  0  0  0  0  0  0  0  0  0
   -0.6289    2.1775    2.3307 H   0  0  0  0  0  0  0  0  0  0  0  0
    0.3882    1.7670    3.7245 H   0  0  0  0  0  0  0  0  0  0  0  0
   -1.9689    0.1350    0.8298 N   0  0  0  0  0  0  0  0  0  0  0  0
   -2.5039   -0.1183   -0.4830 C   0  0  2  0  0  0  0  0  0  0  0  0
   -2.3460   -1.6048   -0.7837 C   0  0  0  0  0  0  0  0  0  0  0  0
   -3.0993   -2.2199   -1.5355 O   0  0  0  0  0  0  0  0  0  0  0  0
   -1.8358    0.7523   -1.5424 C   0  0  0  0  0  0  0  0  0  0  0  0
   -0.4646    0.3969   -1.6792 O   0  0  0  0  0  0  0  0  0  0  0  0
   -2.5276    0.6894    1.4750 H   0  0  0  0  0  0  0  0  0  0  0  0
   -3.5722    0.1213   -0.4322 H   0  0  0  0  0  0  0  0  0  0  0  0
   -1.8863    1.8114   -1.2701 H   0  0  0  0  0  0  0  0  0  0  0  0
   -2.3212    0.6163   -2.5147 H   0  0  0  0  0  0  0  0  0  0  0  0
   -0.4441   -0.5364   -1.9442 H   0  0  0  0  0  0  0  0  0  0  0  0
   -1.2404   -2.1517   -0.1478 N   0  0  0  0  0  0  0  0  0  0  0  0
   -0.8572   -3.5363   -0.2975 C   0  0  2  0  0  0  0  0  0  0  0  0
   -1.2058   -3.9701   -1.7152 C   0  0  0  0  0  0  0  0  0  0  0  0
   -2.0525   -3.4017   -2.4015 O   0  0  0  0  0  0  0  0  0  0  0  0
   -1.5543   -4.4174    0.7274 C   0  0  0  0  0  0  0  0  0  0  0  0
   -0.6491   -1.5569    0.4252 H   0  0  0  0  0  0  0  0  0  0  0  0
    0.2284   -3.5808   -0.1579 H   0  0  0  0  0  0  0  0  0  0  0  0
   -2.6429   -4.3856    0.6032 H   0  0  0  0  0  0  0  0  0  0  0  0
   -1.2410   -5.4622    0.6311 H   0  0  0  0  0  0  0  0  0  0  0  0
   -1.3262   -4.0855    1.7461 H   0  0  0  0  0  0  0  0  0  0  0  0
   -0.4910   -5.0930   -2.1080 N   0  0  0  0  0  0  0  0  0  0  0  0
   -0.6527   -5.7055   -3.4060 C   0  0  0  0  0  0  0  0  0  0  0  0
    0.2044   -5.4872   -1.4812 H   0  0  0  0  0  0  0  0  0  0  0  0
   -1.4094   -6.5015   -3.3447 H   0  0  0  0  0  0  0  0  0  0  0  0
   -0.9779   -4.9456   -4.1318 H   0  0  0  0  0  0  0  0  0  0  0  0
    0.3063   -6.1356   -3.7303 H   0  0  0  0  0  0  0  0  0  0  0  0
  1  3  1  0  0  0  0
  1  7  1  0  0  0  0
  1  2  2  0  0  0  0
 29 30  1  0  0  0  0
 30 38  1  0  0  0  0
 30 31  2  0  0  0  0
  8  9  1  0  0  0  0
  9 17  1  0  0  0  0
  9 10  2  0  0  0  0
 18 19  1  0  0  0  0
 19 28  1  0  0  0  0
 19 20  2  0  0  0  0
 29 32  1  0  0  0  0
  8 11  1  0  0  0  0
 38 39  1  0  0  0  0
 18 21  1  0  0  0  0
 21 22  1  0  0  0  0
 28 29  1  0  0  0  0
  7  8  1  0  0  0  0
 17 18  1  0  0  0  0
  3  4  1  0  0  0  0
  3  5  1  0  0  0  0
  3  6  1  0  0  0  0
 32 35  1  0  0  0  0
 32 36  1  0  0  0  0
 32 37  1  0  0  0  0
 11 14  1  0  0  0  0
 11 15  1  0  0  0  0
 11 16  1  0  0  0  0
 39 41  1  0  0  0  0
 39 42  1  0  0  0  0
 39 43  1  0  0  0  0
 21 25  1  0  0  0  0
 21 26  1  0  0  0  0
 29 34  1  0  0  0  0
  8 13  1  0  0  0  0
 18 24  1  0  0  0  0
 38 40  1  0  0  0  0
  7 12  1  0  0  0  0
 28 33  1  0  0  0  0
 17 23  1  0  0  0  0
 22 27  1  0  0  0  0
M  END
$$$$

  -OEChem-05262214473D

 43 42  0     1  0  0  0  0  0999 V2000
    0.7424   -1.0926    4.5665 C   0  0  0  0  0  0  0  0  0  0  0  0
    0.1409   -0.5364    5.4779 O   0  0  0  0  0  0  0  0  0  0  0  0
    1.7940   -2.1023    4.8871 C   0  0  0  0  0  0  0  0  0  0  0  0
    2.7935   -1.6502    4.9904 H   0  0  0  0  0  0  0  0  0  0  0  0
    1.6064   -2.6156    5.8438 H   0  0  0  0  0  0  0  0  0  0  0  0
    1.9156   -2.9078    4.1453 H   0  0  0  0  0  0  0  0  0  0  0  0
    0.5488   -0.8838    3.2109 N   0  0  0  0  0  0  0  0  0  0  0  0
   -0.4159    0.0446    2.6829 C   0  0  2  0  0  0  0  0  0  0  0  0
   -0.7551   -0.3867    1.2623 C   0  0  0  0  0  0  0  0  0  0  0  0
   -0.0106   -1.0851    0.5774 O   0  0  0  0  0  0  0  0  0  0  0  0
    0.1168    1.4689    2.7060 C   0  0  0  0  0  0  0  0  0  0  0  0
    1.1183   -1.4145    2.5542 H   0  0  0  0  0  0  0  0  0  0  0  0
   -1.3088   -0.0350    3.3125 H   0  0  0  0  0  0  0  0  0  0  0  0
    1.0116    1.5681    2.0808 H   0  0  0  0  0  0  0  0  0  0  0  0
   -0.6289    2.1775    2.3307 H   0  0  0  0  0  0  0  0  0  0  0  0
    0.3882    1.7670    3.7245 H   0  0  0  0  0  0  0  0  0  0  0  0
   -1.9689    0.1350    0.8298 N   0  0  0  0  0  0  0  0  0  0  0  0
   -2.5039   -0.1183   -0.4830 C   0  0  2  0  0  0  0  0  0  0  0  0
   -2.3460   -1.6048   -0.7837 C   0  0  0  0  0  0  0  0  0  0  0  0
   -2.9130   -2.1626   -1.7210 O   0  0  0  0  0  0  0  0  0  0  0  0
   -1.8358    0.7523   -1.5424 C   0  0  0  0  0  0  0  0  0  0  0  0
   -0.4646    0.3969   -1.6792 O   0  0  0  0  0  0  0  0  0  0  0  0
   -2.5276    0.6894    1.4750 H   0  0  0  0  0  0  0  0  0  0  0  0
   -3.5722    0.1213   -0.4322 H   0  0  0  0  0  0  0  0  0  0  0  0
   -1.8863    1.8114   -1.2701 H   0  0  0  0  0  0  0  0  0  0  0  0
   -2.3212    0.6163   -2.5147 H   0  0  0  0  0  0  0  0  0  0  0  0
   -0.4441   -0.5364   -1.9442 H   0  0  0  0  0  0  0  0  0  0  0  0
   -1.4646   -2.2238    0.0914 N   0  0  0  0  0  0  0  0  0  0  0  0
   -1.1223   -3.6240   -0.0032 C   0  0  2  0  0  0  0  0  0  0  0  0
   -1.1211   -4.0093   -1.4767 C   0  0  0  0  0  0  0  0  0  0  0  0
   -1.7386   -3.3819   -2.3346 O   0  0  0  0  0  0  0  0  0  0  0  0
   -2.0972   -4.4863    0.7833 C   0  0  0  0  0  0  0  0  0  0  0  0
   -1.0099   -1.6739    0.8141 H   0  0  0  0  0  0  0  0  0  0  0  0
   -0.1107   -3.7304    0.4035 H   0  0  0  0  0  0  0  0  0  0  0  0
   -3.1161   -4.3928    0.3903 H   0  0  0  0  0  0  0  0  0  0  0  0
   -1.8198   -5.5445    0.7341 H   0  0  0  0  0  0  0  0  0  0  0  0
   -2.1187   -4.1881    1.8371 H   0  0  0  0  0  0  0  0  0  0  0  0
   -0.3845   -5.1614   -1.7142 N   0  0  0  0  0  0  0  0  0  0  0  0
   -0.2415   -5.7377   -3.0308 C   0  0  0  0  0  0  0  0  0  0  0  0
    0.1101   -5.6055   -0.9462 H   0  0  0  0  0  0  0  0  0  0  0  0
   -1.0261   -6.4923   -3.1885 H   0  0  0  0  0  0  0  0  0  0  0  0
   -0.3359   -4.9467   -3.7894 H   0  0  0  0  0  0  0  0  0  0  0  0
    0.7468   -6.2128   -3.1176 H   0  0  0  0  0  0  0  0  0  0  0  0
  1  3  1  0  0  0  0
  1  7  1  0  0  0  0
  1  2  2  0  0  0  0
 29 30  1  0  0  0  0
 30 38  1  0  0  0  0
 30 31  2  0  0  0  0
  8  9  1  0  0  0  0
  9 17  1  0  0  0  0
  9 10  2  0  0  0  0
 18 19  1  0  0  0  0
 19 28  1  0  0  0  0
 19 20  2  0  0  0  0
 29 32  1  0  0  0  0
  8 11  1  0  0  0  0
 38 39  1  0  0  0  0
 18 21  1  0  0  0  0
 21 22  1  0  0  0  0
 28 29  1  0  0  0  0
  7  8  1  0  0  0  0
 17 18  1  0  0  0  0
  3  4  1  0  0  0  0
  3  5  1  0  0  0  0
  3  6  1  0  0  0  0
 32 35  1  0  0  0  0
 32 36  1  0  0  0  0
 32 37  1  0  0  0  0
 11 14  1  0  0  0  0
 11 15  1  0  0  0  0
 11 16  1  0  0  0  0
 39 41  1  0  0  0  0
 39 42  1  0  0  0  0
 39 43  1  0  0  0  0
 21 25  1  0  0  0  0
 21 26  1  0  0  0  0
 29 34  1  0  0  0  0
  8 13  1  0  0  0  0
 18 24  1  0  0  0  0
 38 40  1  0  0  0  0
  7 12  1  0  0  0  0
 28 33  1  0  0  0  0
 17 23  1  0  0  0  0
 22 27  1  0  0  0  0
M  END
$$$$

  -OEChem-05262214473D

 43 42  0     1  0  0  0  0  0999 V2000
    0.7424   -1.0926    4.5665 C   0  0  0  0  0  0  0  0  0  0  0  0
    0.1409   -0.5364    5.4779 O   0  0  0  0  0  0  0  0  0  0  0  0
    1.7940   -2.1023    4.8871 C   0  0  0  0  0  0  0  0  0  0  0  0
    2.7935   -1.6502    4.9904 H   0  0  0  0  0  0  0  0  0  0  0  0
    1.6064   -2.6156    5.8438 H   0  0  0  0  0  0  0  0  0  0  0  0
    1.9156   -2.9078    4.1453 H   0  0  0  0  0  0  0  0  0  0  0  0
    0.5488   -0.8838    3.2109 N   0  0  0  0  0  0  0  0  0  0  0  0
   -0.4159    0.0446    2.6829 C   0  0  2  0  0  0  0  0  0  0  0  0
   -0.7551   -0.3867    1.2623 C   0  0  0  0  0  0  0  0  0  0  0  0
   -0.0106   -1.0851    0.5774 O   0  0  0  0  0  0  0  0  0  0  0  0
    0.1168    1.4689    2.7060 C   0  0  0  0  0  0  0  0  0  0  0  0
    1.1183   -1.4145    2.5542 H   0  0  0  0  0  0  0  0  0  0  0  0
   -1.3088   -0.0350    3.3125 H   0  0  0  0  0  0  0  0  0  0  0  0
    1.0116    1.5681    2.0808 H   0  0  0  0  0  0  0  0  0  0  0  0
   -0.6289    2.1775    2.3307 H   0  0  0  0  0  0  0  0  0  0  0  0
    0.3882    1.7670    3.7245 H   0  0  0  0  0  0  0  0  0  0  0  0
   -1.9689    0.1350    0.8298 N   0  0  0  0  0  0  0  0  0  0  0  0
   -2.5039   -0.1183   -0.4830 C   0  0  2  0  0  0  0  0  0  0  0  0
   -2.3460   -1.6048   -0.7837 C   0  0  0  0  0  0  0  0  0  0  0  0
   -2.6833   -2.1118   -1.8516 O   0  0  0  0  0  0  0  0  0  0  0  0
   -1.8358    0.7523   -1.5424 C   0  0  0  0  0  0  0  0  0  0  0  0
   -0.4646    0.3969   -1.6792 O   0  0  0  0  0  0  0  0  0  0  0  0
   -2.5276    0.6894    1.4750 H   0  0  0  0  0  0  0  0  0  0  0  0
   -3.5722    0.1213   -0.4322 H   0  0  0  0  0  0  0  0  0  0  0  0
   -1.8863    1.8114   -1.2701 H   0  0  0  0  0  0  0  0  0  0  0  0
   -2.3212    0.6163   -2.5147 H   0  0  0  0  0  0  0  0  0  0  0  0
   -0.4441   -0.5364   -1.9442 H   0  0  0  0  0  0  0  0  0  0  0  0
   -1.7452   -2.2885    0.2638 N   0  0  0  0  0  0  0  0  0  0  0  0
   -1.4571   -3.7030    0.2118 C   0  0  2  0  0  0  0  0  0  0  0  0
   -1.1015   -4.0580   -1.2260 C   0  0  0  0  0  0  0  0  0  0  0  0
   -1.4512   -3.3805   -2.1903 O   0  0  0  0  0  0  0  0  0  0  0  0
   -2.6392   -4.5268    0.6985 C   0  0  0  0  0  0  0  0  0  0  0  0
   -1.4625   -1.7789    1.0957 H   0  0  0  0  0  0  0  0  0  0  0  0
   -0.5876   -3.8726    0.8562 H   0  0  0  0  0  0  0  0  0  0  0  0
   -3.5199   -4.3699    0.0651 H   0  0  0  0  0  0  0  0  0  0  0  0
   -2.4091   -5.5972    0.6854 H   0  0  0  0  0  0  0  0  0  0  0  0
   -2.9124   -4.2492    1.7223 H   0  0  0  0  0  0  0  0  0  0  0  0
   -0.3845   -5.2434   -1.3088 N   0  0  0  0  0  0  0  0  0  0  0  0
    0.0594   -5.7998   -2.5655 C   0  0  0  0  0  0  0  0  0  0  0  0
   -0.1220   -5.7292   -0.4563 H   0  0  0  0  0  0  0  0  0  0  0  0
   -0.6948   -6.5073   -2.9406 H   0  0  0  0  0  0  0  0  0  0  0  0
    0.1977   -4.9897   -3.2966 H   0  0  0  0  0  0  0  0  0  0  0  0
    1.0137   -6.3262   -2.4166 H   0  0  0  0  0  0  0  0  0  0  0  0
  1  3  1  0  0  0  0
  1  7  1  0  0  0  0
  1  2  2  0  0  0  0
 29 30  1  0  0  0  0
 30 38  1  0  0  0  0
 30 31  2  0  0  0  0
  8  9  1  0  0  0  0
  9 17  1  0  0  0  0
  9 10  2  0  0  0  0
 18 19  1  0  0  0  0
 19 28  1  0  0  0  0
 19 20  2  0  0  0  0
 29 32  1  0  0  0  0
  8 11  1  0  0  0  0
 38 39  1  0  0  0  0
 18 21  1  0  0  0  0
 21 22  1  0  0  0  0
 28 29  1  0  0  0  0
  7  8  1  0  0  0  0
 17 18  1  0  0  0  0
  3  4  1  0  0  0  0
  3  5  1  0  0  0  0
  3  6  1  0  0  0  0
 32 35  1  0  0  0  0
 32 36  1  0  0  0  0
 32 37  1  0  0  0  0
 11 14  1  0  0  0  0
 11 15  1  0  0  0  0
 11 16  1  0  0  0  0
 39 41  1  0  0  0  0
 39 42  1  0  0  0  0
 39 43  1  0  0  0  0
 21 25  1  0  0  0  0
 21 26  1  0  0  0  0
 29 34  1  0  0  0  0
  8 13  1  0  0  0  0
 18 24  1  0  0  0  0
 38 40  1  0  0  0  0
  7 12  1  0  0  0  0
 28 33  1  0  0  0  0
 17 23  1  0  0  0  0
 22 27  1  0  0  0  0
M  END
$$$$

  -OEChem-05262214473D

 43 42  0     1  0  0  0  0  0999 V2000
    0.7424   -1.0926    4.5665 C   0  0  0  0  0  0  0  0  0  0  0  0
    0.1409   -0.5364    5.4779 O   0  0  0  0  0  0  0  0  0  0  0  0
    1.7940   -2.1023    4.8871 C   0  0  0  0  0  0  0  0  0  0  0  0
    2.7935   -1.6502    4.9904 H   0  0  0  0  0  0  0  0  0  0  0  0
    1.6064   -2.6156    5.8438 H   0  0  0  0  0  0  0  0  0  0  0  0
    1.9156   -2.9078    4.1453 H   0  0  0  0  0  0  0  0  0  0  0  0
    0.5488   -0.8838    3.2109 N   0  0  0  0  0  0  0  0  0  0  0  0
   -0.4159    0.0446    2.6829 C   0  0  2  0  0  0  0  0  0  0  0  0
   -0.7551   -0.3867    1.2623 C   0  0  0  0  0  0  0  0  0  0  0  0
   -0.0106   -1.0851    0.5774 O   0  0  0  0  0  0  0  0  0  0  0  0
    0.1168    1.4689    2.7060 C   0  0  0  0  0  0  0  0  0  0  0  0
    1.1183   -1.4145    2.5542 H   0  0  0  0  0  0  0  0  0  0  0  0
   -1.3088   -0.0350    3.3125 H   0  0  0  0  0  0  0  0  0  0  0  0
    1.0116    1.5681    2.0808 H   0  0  0  0  0  0  0  0  0  0  0  0
   -0.6289    2.1775    2.3307 H   0  0  0  0  0  0  0  0  0  0  0  0
    0.3882    1.7670    3.7245 H   0  0  0  0  0  0  0  0  0  0  0  0
   -1.9689    0.1350    0.8298 N   0  0  0  0  0  0  0  0  0  0  0  0
   -2.5039   -0.1183   -0.4830 C   0  0  2  0  0  0  0  0  0  0  0  0
   -2.3460   -1.6048   -0.7837 C   0  0  0  0  0  0  0  0  0  0  0  0
   -2.4259   -2.0709   -1.9184 O   0  0  0  0  0  0  0  0  0  0  0  0
   -1.8358    0.7523   -1.5424 C   0  0  0  0  0  0  0  0  0  0  0  0
   -0.4646    0.3969   -1.6792 O   0  0  0  0  0  0  0  0  0  0  0  0
   -2.5276    0.6894    1.4750 H   0  0  0  0  0  0  0  0  0  0  0  0
   -3.5722    0.1213   -0.4322 H   0  0  0  0  0  0  0  0  0  0  0  0
   -1.8863    1.8114   -1.2701 H   0  0  0  0  0  0  0  0  0  0  0  0
   -2.3212    0.6163   -2.5147 H   0  0  0  0  0  0  0  0  0  0  0  0
   -0.4441   -0.5364   -1.9442 H   0  0  0  0  0  0  0  0  0  0  0  0
   -2.0630   -2.3413    0.3579 N   0  0  0  0  0  0  0  0  0  0  0  0
   -1.8388   -3.7681    0.3328 C   0  0  2  0  0  0  0  0  0  0  0  0
   -1.1483   -4.1127   -0.9802 C   0  0  0  0  0  0  0  0  0  0  0  0
   -1.2100   -3.3978   -1.9783 O   0  0  0  0  0  0  0  0  0  0  0  0
   -3.1434   -4.5359    0.4788 C   0  0  0  0  0  0  0  0  0  0  0  0
   -1.9761   -1.8648    1.2507 H   0  0  0  0  0  0  0  0  0  0  0  0
   -1.1698   -3.9978    1.1693 H   0  0  0  0  0  0  0  0  0  0  0  0
   -3.8267   -4.3185   -0.3503 H   0  0  0  0  0  0  0  0  0  0  0  0
   -2.9687   -5.6168    0.4883 H   0  0  0  0  0  0  0  0  0  0  0  0
   -3.6533   -4.2646    1.4095 H   0  0  0  0  0  0  0  0  0  0  0  0
   -0.4909   -5.3334   -0.9194 N   0  0  0  0  0  0  0  0  0  0  0  0
    0.2294   -5.8877   -2.0418 C   0  0  0  0  0  0  0  0  0  0  0  0
   -0.4761   -5.8500   -0.0450 H   0  0  0  0  0  0  0  0  0  0  0  0
   -0.4381   -6.5453   -2.6180 H   0  0  0  0  0  0  0  0  0  0  0  0
    0.5866   -5.0717   -2.6872 H   0  0  0  0  0  0  0  0  0  0  0  0
    1.0889   -6.4682   -1.6752 H   0  0  0  0  0  0  0  0  0  0  0  0
  1  3  1  0  0  0  0
  1  7  1  0  0  0  0
  1  2  2  0  0  0  0
 29 30  1  0  0  0  0
 30 38  1  0  0  0  0
 30 31  2  0  0  0  0
  8  9  1  0  0  0  0
  9 17  1  0  0  0  0
  9 10  2  0  0  0  0
 18 19  1  0  0  0  0
 19 28  1  0  0  0  0
 19 20  2  0  0  0  0
 29 32  1  0  0  0  0
  8 11  1  0  0  0  0
 38 39  1  0  0  0  0
 18 21  1  0  0  0  0
 21 22  1  0  0  0  0
 28 29  1  0  0  0  0
  7  8  1  0  0  0  0
 17 18  1  0  0  0  0
  3  4  1  0  0  0  0
  3  5  1  0  0  0  0
  3  6  1  0  0  0  0
 32 35  1  0  0  0  0
 32 36  1  0  0  0  0
 32 37  1  0  0  0  0
 11 14  1  0  0  0  0
 11 15  1  0  0  0  0
 11 16  1  0  0  0  0
 39 41  1  0  0  0  0
 39 42  1  0  0  0  0
 39 43  1  0  0  0  0
 21 25  1  0  0  0  0
 21 26  1  0  0  0  0
 29 34  1  0  0  0  0
  8 13  1  0  0  0  0
 18 24  1  0  0  0  0
 38 40  1  0  0  0  0
  7 12  1  0  0  0  0
 28 33  1  0  0  0  0
 17 23  1  0  0  0  0
 22 27  1  0  0  0  0
M  END
$$$$

  -OEChem-05262214473D

 43 42  0     1  0  0  0  0  0999 V2000
    0.7424   -1.0926    4.5665 C   0  0  0  0  0  0  0  0  0  0  0  0
    0.1409   -0.5364    5.4779 O   0  0  0  0  0  0  0  0  0  0  0  0
    1.7940   -2.1023    4.8871 C   0  0  0  0  0  0  0  0  0  0  0  0
    2.7935   -1.6502    4.9904 H   0  0  0  0  0  0  0  0  0  0  0  0
    1.6064   -2.6156    5.8438 H   0  0  0  0  0  0  0  0  0  0  0  0
    1.9156   -2.9078    4.1453 H   0  0  0  0  0  0  0  0  0  0  0  0
    0.5488   -0.8838    3.2109 N   0  0  0  0  0  0  0  0  0  0  0  0
   -0.4159    0.0446    2.6829 C   0  0  2  0  0  0  0  0  0  0  0  0
   -0.7551   -0.3867    1.2623 C   0  0  0  0  0  0  0  0  0  0  0  0
   -0.0106   -1.0851    0.5774 O   0  0  0  0  0  0  0  0  0  0  0  0
    0.1168    1.4689    2.7060 C   0  0  0  0  0  0  0  0  0  0  0  0
    1.1183   -1.4145    2.5542 H   0  0  0  0  0  0  0  0  0  0  0  0
   -1.3088   -0.0350    3.3125 H   0  0  0  0  0  0  0  0  0  0  0  0
    1.0116    1.5681    2.0808 H   0  0  0  0  0  0  0  0  0  0  0  0
   -0.6289    2.1775    2.3307 H   0  0  0  0  0  0  0  0  0  0  0  0
    0.3882    1.7670    3.7245 H   0  0  0  0  0  0  0  0  0  0  0  0
   -1.9689    0.1350    0.8298 N   0  0  0  0  0  0  0  0  0  0  0  0
   -2.5039   -0.1183   -0.4830 C   0  0  2  0  0  0  0  0  0  0  0  0
   -2.3460   -1.6048   -0.7837 C   0  0  0  0  0  0  0  0  0  0  0  0
   -2.1583   -2.0428   -1.9168 O   0  0  0  0  0  0  0  0  0  0  0  0
   -1.8358    0.7523   -1.5424 C   0  0  0  0  0  0  0  0  0  0  0  0
   -0.4646    0.3969   -1.6792 O   0  0  0  0  0  0  0  0  0  0  0  0
   -2.5276    0.6894    1.4750 H   0  0  0  0  0  0  0  0  0  0  0  0
   -3.5722    0.1213   -0.4322 H   0  0  0  0  0  0  0  0  0  0  0  0
   -1.8863    1.8114   -1.2701 H   0  0  0  0  0  0  0  0  0  0  0  0
   -2.3212    0.6163   -2.5147 H   0  0  0  0  0  0  0  0  0  0  0  0
   -0.4441   -0.5364   -1.9442 H   0  0  0  0  0  0  0  0  0  0  0  0
   -2.3965   -2.3786    0.3671 N   0  0  0  0  0  0  0  0  0  0  0  0
   -2.2414   -3.8147    0.3517 C   0  0  2  0  0  0  0  0  0  0  0  0
   -1.2584   -4.1697   -0.7560 C   0  0  0  0  0  0  0  0  0  0  0  0
   -1.0314   -3.4325   -1.7131 O   0  0  0  0  0  0  0  0  0  0  0  0
   -3.5755   -4.5130    0.1390 C   0  0  0  0  0  0  0  0  0  0  0  0
   -2.5156   -1.9257    1.2685 H   0  0  0  0  0  0  0  0  0  0  0  0
   -1.8174   -4.0974    1.3215 H   0  0  0  0  0  0  0  0  0  0  0  0
   -4.0156   -4.2420   -0.8276 H   0  0  0  0  0  0  0  0  0  0  0  0
   -3.4605   -5.6019    0.1561 H   0  0  0  0  0  0  0  0  0  0  0  0
   -4.2907   -4.2333    0.9200 H   0  0  0  0  0  0  0  0  0  0  0  0
   -0.6966   -5.4255   -0.5726 N   0  0  0  0  0  0  0  0  0  0  0  0
    0.2571   -5.9953   -1.4954 C   0  0  0  0  0  0  0  0  0  0  0  0
   -0.9282   -5.9597    0.2597 H   0  0  0  0  0  0  0  0  0  0  0  0
   -0.2734   -6.6037   -2.2427 H   0  0  0  0  0  0  0  0  0  0  0  0
    0.8044   -5.1870   -2.0026 H   0  0  0  0  0  0  0  0  0  0  0  0
    0.9672   -6.6291   -0.9440 H   0  0  0  0  0  0  0  0  0  0  0  0
  1  3  1  0  0  0  0
  1  7  1  0  0  0  0
  1  2  2  0  0  0  0
 29 30  1  0  0  0  0
 30 38  1  0  0  0  0
 30 31  2  0  0  0  0
  8  9  1  0  0  0  0
  9 17  1  0  0  0  0
  9 10  2  0  0  0  0
 18 19  1  0  0  0  0
 19 28  1  0  0  0  0
 19 20  2  0  0  0  0
 29 32  1  0  0  0  0
  8 11  1  0  0  0  0
 38 39  1  0  0  0  0
 18 21  1  0  0  0  0
 21 22  1  0  0  0  0
 28 29  1  0  0  0  0
  7  8  1  0  0  0  0
 17 18  1  0  0  0  0
  3  4  1  0  0  0  0
  3  5  1  0  0  0  0
  3  6  1  0  0  0  0
 32 35  1  0  0  0  0
 32 36  1  0  0  0  0
 32 37  1  0  0  0  0
 11 14  1  0  0  0  0
 11 15  1  0  0  0  0
 11 16  1  0  0  0  0
 39 41  1  0  0  0  0
 39 42  1  0  0  0  0
 39 43  1  0  0  0  0
 21 25  1  0  0  0  0
 21 26  1  0  0  0  0
 29 34  1  0  0  0  0
  8 13  1  0  0  0  0
 18 24  1  0  0  0  0
 38 40  1  0  0  0  0
  7 12  1  0  0  0  0
 28 33  1  0  0  0  0
 17 23  1  0  0  0  0
 22 27  1  0  0  0  0
M  END
$$$$

  -OEChem-05262214473D

 43 42  0     1  0  0  0  0  0999 V2000
    0.7424   -1.0926    4.5665 C   0  0  0  0  0  0  0  0  0  0  0  0
    0.1409   -0.5364    5.4779 O   0  0  0  0  0  0  0  0  0  0  0  0
    1.7940   -2.1023    4.8871 C   0  0  0  0  0  0  0  0  0  0  0  0
    2.7935   -1.6502    4.9904 H   0  0  0  0  0  0  0  0  0  0  0  0
    1.6064   -2.6156    5.8438 H   0  0  0  0  0  0  0  0  0  0  0  0
    1.9156   -2.9078    4.1453 H   0  0  0  0  0  0  0  0  0  0  0  0
    0.5488   -0.8838    3.2109 N   0  0  0  0  0  0  0  0  0  0  0  0
   -0.4159    0.0446    2.6829 C   0  0  2  0  0  0  0  0  0  0  0  0
   -0.7551   -0.3867    1.2623 C   0  0  0  0  0  0  0  0  0  0  0  0
   -0.0106   -1.0851    0.5774 O   0  0  0  0  0  0  0  0  0  0  0  0
    0.1168    1.4689    2.7060 C   0  0  0  0  0  0  0  0  0  0  0  0
    1.1183   -1.4145    2.5542 H   0  0  0  0  0  0  0  0  0  0  0  0
   -1.3088   -0.0350    3.3125 H   0  0  0  0  0  0  0  0  0  0  0  0
    1.0116    1.5681    2.0808 H   0  0  0  0  0  0  0  0  0  0  0  0
   -0.6289    2.1775    2.3307 H   0  0  0  0  0  0  0  0  0  0  0  0
    0.3882    1.7670    3.7245 H   0  0  0  0  0  0  0  0  0  0  0  0
   -1.9689    0.1350    0.8298 N   0  0  0  0  0  0  0  0  0  0  0  0
   -2.5039   -0.1183   -0.4830 C   0  0  2  0  0  0  0  0  0  0  0  0
   -2.3460   -1.6048   -0.7837 C   0  0  0  0  0  0  0  0  0  0  0  0
   -1.8987   -2.0294   -1.8471 O   0  0  0  0  0  0  0  0  0  0  0  0
   -1.8358    0.7523   -1.5424 C   0  0  0  0  0  0  0  0  0  0  0  0
   -0.4646    0.3969   -1.6792 O   0  0  0  0  0  0  0  0  0  0  0  0
   -2.5276    0.6894    1.4750 H   0  0  0  0  0  0  0  0  0  0  0  0
   -3.5722    0.1213   -0.4322 H   0  0  0  0  0  0  0  0  0  0  0  0
   -1.8863    1.8114   -1.2701 H   0  0  0  0  0  0  0  0  0  0  0  0
   -2.3212    0.6163   -2.5147 H   0  0  0  0  0  0  0  0  0  0  0  0
   -0.4441   -0.5364   -1.9442 H   0  0  0  0  0  0  0  0  0  0  0  0
   -2.7228   -2.3979    0.2909 N   0  0  0  0  0  0  0  0  0  0  0  0
   -2.6374   -3.8396    0.2672 C   0  0  2  0  0  0  0  0  0  0  0  0
   -1.4241   -4.2252   -0.5688 C   0  0  0  0  0  0  0  0  0  0  0  0
   -0.9276   -3.4822   -1.4129 O   0  0  0  0  0  0  0  0  0  0  0  0
   -3.9059   -4.4598   -0.2976 C   0  0  0  0  0  0  0  0  0  0  0  0
   -3.0444   -1.9575    1.1479 H   0  0  0  0  0  0  0  0  0  0  0  0
   -2.4865   -4.1646    1.3024 H   0  0  0  0  0  0  0  0  0  0  0  0
   -4.0737   -4.1457   -1.3342 H   0  0  0  0  0  0  0  0  0  0  0  0
   -3.8510   -5.5534   -0.2884 H   0  0  0  0  0  0  0  0  0  0  0  0
   -4.7813   -4.1574    0.2872 H   0  0  0  0  0  0  0  0  0  0  0  0
   -0.9875   -5.5131   -0.2919 N   0  0  0  0  0  0  0  0  0  0  0  0
    0.1404   -6.1153   -0.9636 C   0  0  0  0  0  0  0  0  0  0  0  0
   -1.4472   -6.0507    0.4371 H   0  0  0  0  0  0  0  0  0  0  0  0
   -0.2121   -6.6786   -1.8401 H   0  0  0  0  0  0  0  0  0  0  0  0
    0.8361   -5.3279   -1.2894 H   0  0  0  0  0  0  0  0  0  0  0  0
    0.6569   -6.7978   -0.2726 H   0  0  0  0  0  0  0  0  0  0  0  0
  1  3  1  0  0  0  0
  1  7  1  0  0  0  0
  1  2  2  0  0  0  0
 29 30  1  0  0  0  0
 30 38  1  0  0  0  0
 30 31  2  0  0  0  0
  8  9  1  0  0  0  0
  9 17  1  0  0  0  0
  9 10  2  0  0  0  0
 18 19  1  0  0  0  0
 19 28  1  0  0  0  0
 19 20  2  0  0  0  0
 29 32  1  0  0  0  0
  8 11  1  0  0  0  0
 38 39  1  0  0  0  0
 18 21  1  0  0  0  0
 21 22  1  0  0  0  0
 28 29  1  0  0  0  0
  7  8  1  0  0  0  0
 17 18  1  0  0  0  0
  3  4  1  0  0  0  0
  3  5  1  0  0  0  0
  3  6  1  0  0  0  0
 32 35  1  0  0  0  0
 32 36  1  0  0  0  0
 32 37  1  0  0  0  0
 11 14  1  0  0  0  0
 11 15  1  0  0  0  0
 11 16  1  0  0  0  0
 39 41  1  0  0  0  0
 39 42  1  0  0  0  0
 39 43  1  0  0  0  0
 21 25  1  0  0  0  0
 21 26  1  0  0  0  0
 29 34  1  0  0  0  0
  8 13  1  0  0  0  0
 18 24  1  0  0  0  0
 38 40  1  0  0  0  0
  7 12  1  0  0  0  0
 28 33  1  0  0  0  0
 17 23  1  0  0  0  0
 22 27  1  0  0  0  0
M  END
$$$$

  -OEChem-05262214473D

 43 42  0     1  0  0  0  0  0999 V2000
    0.7424   -1.0926    4.5665 C   0  0  0  0  0  0  0  0  0  0  0  0
    0.1409   -0.5364    5.4779 O   0  0  0  0  0  0  0  0  0  0  0  0
    1.7940   -2.1023    4.8871 C   0  0  0  0  0  0  0  0  0  0  0  0
    2.7935   -1.6502    4.9904 H   0  0  0  0  0  0  0  0  0  0  0  0
    1.6064   -2.6156    5.8438 H   0  0  0  0  0  0  0  0  0  0  0  0
    1.9156   -2.9078    4.1453 H   0  0  0  0  0  0  0  0  0  0  0  0
    0.5488   -0.8838    3.2109 N   0  0  0  0  0  0  0  0  0  0  0  0
   -0.4159    0.0446    2.6829 C   0  0  2  0  0  0  0  0  0  0  0  0
   -0.7551   -0.3867    1.2623 C   0  0  0  0  0  0  0  0  0  0  0  0
   -0.0106   -1.0851    0.5774 O   0  0  0  0  0  0  0  0  0  0  0  0
    0.1168    1.4689    2.7060 C   0  0  0  0  0  0  0  0  0  0  0  0
    1.1183   -1.4145    2.5542 H   0  0  0  0  0  0  0  0  0  0  0  0
   -1.3088   -0.0350    3.3125 H   0  0  0  0  0  0  0  0  0  0  0  0
    1.0116    1.5681    2.0808 H   0  0  0  0  0  0  0  0  0  0  0  0
   -0.6289    2.1775    2.3307 H   0  0  0  0  0  0  0  0  0  0  0  0
    0.3882    1.7670    3.7245 H   0  0  0  0  0  0  0  0  0  0  0  0
   -1.9689    0.1350    0.8298 N   0  0  0  0  0  0  0  0  0  0  0  0
   -2.5039   -0.1183   -0.4830 C   0  0  2  0  0  0  0  0  0  0  0  0
   -2.3460   -1.6048   -0.7837 C   0  0  0  0  0  0  0  0  0  0  0  0
   -1.6650   -2.0315   -1.7139 O   0  0  0  0  0  0  0  0  0  0  0  0
   -1.8358    0.7523   -1.5424 C   0  0  0  0  0  0  0  0  0  0  0  0
   -0.4646    0.3969   -1.6792 O   0  0  0  0  0  0  0  0  0  0  0  0
   -2.5276    0.6894    1.4750 H   0  0  0  0  0  0  0  0  0  0  0  0
   -3.5722    0.1213   -0.4322 H   0  0  0  0  0  0  0  0  0  0  0  0
   -1.8863    1.8114   -1.2701 H   0  0  0  0  0  0  0  0  0  0  0  0
   -2.3212    0.6163   -2.5147 H   0  0  0  0  0  0  0  0  0  0  0  0
   -0.4441   -0.5364   -1.9442 H   0  0  0  0  0  0  0  0  0  0  0  0
   -3.0197   -2.3978    0.1345 N   0  0  0  0  0  0  0  0  0  0  0  0
   -2.9998   -3.8413    0.0849 C   0  0  2  0  0  0  0  0  0  0  0  0
   -1.6343   -4.2753   -0.4313 C   0  0  0  0  0  0  0  0  0  0  0  0
   -0.9056   -3.5435   -1.0980 O   0  0  0  0  0  0  0  0  0  0  0  0
   -4.1122   -4.3799   -0.8012 C   0  0  0  0  0  0  0  0  0  0  0  0
   -3.5263   -1.9580    0.8971 H   0  0  0  0  0  0  0  0  0  0  0  0
   -3.1315   -4.1949    1.1133 H   0  0  0  0  0  0  0  0  0  0  0  0
   -3.9972   -4.0361   -1.8357 H   0  0  0  0  0  0  0  0  0  0  0  0
   -4.1135   -5.4748   -0.8150 H   0  0  0  0  0  0  0  0  0  0  0  0
   -5.0917   -4.0421   -0.4458 H   0  0  0  0  0  0  0  0  0  0  0  0
   -1.3438   -5.5905   -0.0965 N   0  0  0  0  0  0  0  0  0  0  0  0
   -0.1126   -6.2395   -0.4825 C   0  0  0  0  0  0  0  0  0  0  0  0
   -1.9980   -6.1169    0.4750 H   0  0  0  0  0  0  0  0  0  0  0  0
   -0.2583   -6.7649   -1.4378 H   0  0  0  0  0  0  0  0  0  0  0  0
    0.6795   -5.4847   -0.5964 H   0  0  0  0  0  0  0  0  0  0  0  0
    0.1792   -6.9630    0.2930 H   0  0  0  0  0  0  0  0  0  0  0  0
  1  3  1  0  0  0  0
  1  7  1  0  0  0  0
  1  2  2  0  0  0  0
 29 30  1  0  0  0  0
 30 38  1  0  0  0  0
 30 31  2  0  0  0  0
  8  9  1  0  0  0  0
  9 17  1  0  0  0  0
  9 10  2  0  0  0  0
 18 19  1  0  0  0  0
 19 28  1  0  0  0  0
 19 20  2  0  0  0  0
 29 32  1  0  0  0  0
  8 11  1  0  0  0  0
 38 39  1  0  0  0  0
 18 21  1  0  0  0  0
 21 22  1  0  0  0  0
 28 29  1  0  0  0  0
  7  8  1  0  0  0  0
 17 18  1  0  0  0  0
  3  4  1  0  0  0  0
  3  5  1  0  0  0  0
  3  6  1  0  0  0  0
 32 35  1  0  0  0  0
 32 36  1  0  0  0  0
 32 37  1  0  0  0  0
 11 14  1  0  0  0  0
 11 15  1  0  0  0  0
 11 16  1  0  0  0  0
 39 41  1  0  0  0  0
 39 42  1  0  0  0  0
 39 43  1  0  0  0  0
 21 25  1  0  0  0  0
 21 26  1  0  0  0  0
 29 34  1  0  0  0  0
  8 13  1  0  0  0  0
 18 24  1  0  0  0  0
 38 40  1  0  0  0  0
  7 12  1  0  0  0  0
 28 33  1  0  0  0  0
 17 23  1  0  0  0  0
 22 27  1  0  0  0  0
M  END
$$$$

  -OEChem-05262214473D

 43 42  0     1  0  0  0  0  0999 V2000
    0.7424   -1.0926    4.5665 C   0  0  0  0  0  0  0  0  0  0  0  0
    0.1409   -0.5364    5.4779 O   0  0  0  0  0  0  0  0  0  0  0  0
    1.7940   -2.1023    4.8871 C   0  0  0  0  0  0  0  0  0  0  0  0
    2.7935   -1.6502    4.9904 H   0  0  0  0  0  0  0  0  0  0  0  0
    1.6064   -2.6156    5.8438 H   0  0  0  0  0  0  0  0  0  0  0  0
    1.9156   -2.9078    4.1453 H   0  0  0  0  0  0  0  0  0  0  0  0
    0.5488   -0.8838    3.2109 N   0  0  0  0  0  0  0  0  0  0  0  0
   -0.4159    0.0446    2.6829 C   0  0  2  0  0  0  0  0  0  0  0  0
   -0.7551   -0.3867    1.2623 C   0  0  0  0  0  0  0  0  0  0  0  0
   -0.0106   -1.0851    0.5774 O   0  0  0  0  0  0  0  0  0  0  0  0
    0.1168    1.4689    2.7060 C   0  0  0  0  0  0  0  0  0  0  0  0
    1.1183   -1.4145    2.5542 H   0  0  0  0  0  0  0  0  0  0  0  0
   -1.3088   -0.0350    3.3125 H   0  0  0  0  0  0  0  0  0  0  0  0
    1.0116    1.5681    2.0808 H   0  0  0  0  0  0  0  0  0  0  0  0
   -0.6289    2.1775    2.3307 H   0  0  0  0  0  0  0  0  0  0  0  0
    0.3882    1.7670    3.7245 H   0  0  0  0  0  0  0  0  0  0  0  0
   -1.9689    0.1350    0.8298 N   0  0  0  0  0  0  0  0  0  0  0  0
   -2.5039   -0.1183   -0.4830 C   0  0  2  0  0  0  0  0  0  0  0  0
   -2.3460   -1.6048   -0.7837 C   0  0  0  0  0  0  0  0  0  0  0  0
   -1.4729   -2.0490   -1.5263 O   0  0  0  0  0  0  0  0  0  0  0  0
   -1.8358    0.7523   -1.5424 C   0  0  0  0  0  0  0  0  0  0  0  0
   -0.4646    0.3969   -1.6792 O   0  0  0  0  0  0  0  0  0  0  0  0
   -2.5276    0.6894    1.4750 H   0  0  0  0  0  0  0  0  0  0  0  0
   -3.5722    0.1213   -0.4322 H   0  0  0  0  0  0  0  0  0  0  0  0
   -1.8863    1.8114   -1.2701 H   0  0  0  0  0  0  0  0  0  0  0  0
   -2.3212    0.6163   -2.5147 H   0  0  0  0  0  0  0  0  0  0  0  0
   -0.4441   -0.5364   -1.9442 H   0  0  0  0  0  0  0  0  0  0  0  0
   -3.2671   -2.3783   -0.0916 N   0  0  0  0  0  0  0  0  0  0  0  0
   -3.3040   -3.8194   -0.1827 C   0  0  2  0  0  0  0  0  0  0  0  0
   -1.8746   -4.3167   -0.3528 C   0  0  0  0  0  0  0  0  0  0  0  0
   -0.9669   -3.6124   -0.7899 O   0  0  0  0  0  0  0  0  0  0  0  0
   -4.1803   -4.2786   -1.3376 C   0  0  0  0  0  0  0  0  0  0  0  0
   -3.9286   -1.9271    0.5333 H   0  0  0  0  0  0  0  0  0  0  0  0
   -3.7082   -4.1861    0.7672 H   0  0  0  0  0  0  0  0  0  0  0  0
   -3.7911   -3.9207   -2.2978 H   0  0  0  0  0  0  0  0  0  0  0  0
   -4.2302   -5.3713   -1.3878 H   0  0  0  0  0  0  0  0  0  0  0  0
   -5.2006   -3.8953   -1.2290 H   0  0  0  0  0  0  0  0  0  0  0  0
   -1.7411   -5.6523    0.0002 N   0  0  0  0  0  0  0  0  0  0  0  0
   -0.4847   -6.3594   -0.0849 C   0  0  0  0  0  0  0  0  0  0  0  0
   -2.5430   -6.1537    0.3708 H   0  0  0  0  0  0  0  0  0  0  0  0
   -0.4088   -6.8567   -1.0632 H   0  0  0  0  0  0  0  0  0  0  0  0
    0.3455   -5.6468    0.0294 H   0  0  0  0  0  0  0  0  0  0  0  0
   -0.4334   -7.1133    0.7144 H   0  0  0  0  0  0  0  0  0  0  0  0
  1  3  1  0  0  0  0
  1  7  1  0  0  0  0
  1  2  2  0  0  0  0
 29 30  1  0  0  0  0
 30 38  1  0  0  0  0
 30 31  2  0  0  0  0
  8  9  1  0  0  0  0
  9 17  1  0  0  0  0
  9 10  2  0  0  0  0
 18 19  1  0  0  0  0
 19 28  1  0  0  0  0
 19 20  2  0  0  0  0
 29 32  1  0  0  0  0
  8 11  1  0  0  0  0
 38 39  1  0  0  0  0
 18 21  1  0  0  0  0
 21 22  1  0  0  0  0
 28 29  1  0  0  0  0
  7  8  1  0  0  0  0
 17 18  1  0  0  0  0
  3  4  1  0  0  0  0
  3  5  1  0  0  0  0
  3  6  1  0  0  0  0
 32 35  1  0  0  0  0
 32 36  1  0  0  0  0
 32 37  1  0  0  0  0
 11 14  1  0  0  0  0
 11 15  1  0  0  0  0
 11 16  1  0  0  0  0
 39 41  1  0  0  0  0
 39 42  1  0  0  0  0
 39 43  1  0  0  0  0
 21 25  1  0  0  0  0
 21 26  1  0  0  0  0
 29 34  1  0  0  0  0
  8 13  1  0  0  0  0
 18 24  1  0  0  0  0
 38 40  1  0  0  0  0
  7 12  1  0  0  0  0
 28 33  1  0  0  0  0
 17 23  1  0  0  0  0
 22 27  1  0  0  0  0
M  END
$$$$

  -OEChem-05262214473D

 43 42  0     1  0  0  0  0  0999 V2000
    0.7424   -1.0926    4.5665 C   0  0  0  0  0  0  0  0  0  0  0  0
    0.1409   -0.5364    5.4779 O   0  0  0  0  0  0  0  0  0  0  0  0
    1.7940   -2.1023    4.8871 C   0  0  0  0  0  0  0  0  0  0  0  0
    2.7935   -1.6502    4.9904 H   0  0  0  0  0  0  0  0  0  0  0  0
    1.6064   -2.6156    5.8438 H   0  0  0  0  0  0  0  0  0  0  0  0
    1.9156   -2.9078    4.1453 H   0  0  0  0  0  0  0  0  0  0  0  0
    0.5488   -0.8838    3.2109 N   0  0  0  0  0  0  0  0  0  0  0  0
   -0.4159    0.0446    2.6829 C   0  0  2  0  0  0  0  0  0  0  0  0
   -0.7551   -0.3867    1.2623 C   0  0  0  0  0  0  0  0  0  0  0  0
   -0.0106   -1.0851    0.5774 O   0  0  0  0  0  0  0  0  0  0  0  0
    0.1168    1.4689    2.7060 C   0  0  0  0  0  0  0  0  0  0  0  0
    1.1183   -1.4145    2.5542 H   0  0  0  0  0  0  0  0  0  0  0  0
   -1.3088   -0.0350    3.3125 H   0  0  0  0  0  0  0  0  0  0  0  0
    1.0116    1.5681    2.0808 H   0  0  0  0  0  0  0  0  0  0  0  0
   -0.6289    2.1775    2.3307 H   0  0  0  0  0  0  0  0  0  0  0  0
    0.3882    1.7670    3.7245 H   0  0  0  0  0  0  0  0  0  0  0  0
   -1.9689    0.1350    0.8298 N   0  0  0  0  0  0  0  0  0  0  0  0
   -2.5039   -0.1183   -0.4830 C   0  0  2  0  0  0  0  0  0  0  0  0
   -2.3460   -1.6048   -0.7837 C   0  0  0  0  0  0  0  0  0  0  0  0
   -1.3356   -2.0808   -1.2971 O   0  0  0  0  0  0  0  0  0  0  0  0
   -1.8358    0.7523   -1.5424 C   0  0  0  0  0  0  0  0  0  0  0  0
   -0.4646    0.3969   -1.6792 O   0  0  0  0  0  0  0  0  0  0  0  0
   -2.5276    0.6894    1.4750 H   0  0  0  0  0  0  0  0  0  0  0  0
   -3.5722    0.1213   -0.4322 H   0  0  0  0  0  0  0  0  0  0  0  0
   -1.8863    1.8114   -1.2701 H   0  0  0  0  0  0  0  0  0  0  0  0
   -2.3212    0.6163   -2.5147 H   0  0  0  0  0  0  0  0  0  0  0  0
   -0.4441   -0.5364   -1.9442 H   0  0  0  0  0  0  0  0  0  0  0  0
   -3.4480   -2.3408   -0.3718 N   0  0  0  0  0  0  0  0  0  0  0  0
   -3.5292   -3.7757   -0.5173 C   0  0  2  0  0  0  0  0  0  0  0  0
   -2.1286   -4.3465   -0.3387 C   0  0  0  0  0  0  0  0  0  0  0  0
   -1.1074   -3.6840   -0.5096 O   0  0  0  0  0  0  0  0  0  0  0  0
   -4.1056   -4.1629   -1.8702 C   0  0  0  0  0  0  0  0  0  0  0  0
   -4.2238   -1.8670    0.0812 H   0  0  0  0  0  0  0  0  0  0  0  0
   -4.1776   -4.1390    0.2875 H   0  0  0  0  0  0  0  0  0  0  0  0
   -3.4695   -3.8074   -2.6890 H   0  0  0  0  0  0  0  0  0  0  0  0
   -4.1931   -5.2501   -1.9678 H   0  0  0  0  0  0  0  0  0  0  0  0
   -5.1008   -3.7269   -2.0091 H   0  0  0  0  0  0  0  0  0  0  0  0
   -2.1525   -5.6943   -0.0082 N   0  0  0  0  0  0  0  0  0  0  0  0
   -0.9505   -6.4669    0.2019 C   0  0  0  0  0  0  0  0  0  0  0  0
   -3.0450   -6.1586    0.1317 H   0  0  0  0  0  0  0  0  0  0  0  0
   -0.6533   -6.9477   -0.7417 H   0  0  0  0  0  0  0  0  0  0  0  0
   -0.1434   -5.8031    0.5452 H   0  0  0  0  0  0  0  0  0  0  0  0
   -1.1391   -7.2385    0.9629 H   0  0  0  0  0  0  0  0  0  0  0  0
  1  3  1  0  0  0  0
  1  7  1  0  0  0  0
  1  2  2  0  0  0  0
 29 30  1  0  0  0  0
 30 38  1  0  0  0  0
 30 31  2  0  0  0  0
  8  9  1  0  0  0  0
  9 17  1  0  0  0  0
  9 10  2  0  0  0  0
 18 19  1  0  0  0  0
 19 28  1  0  0  0  0
 19 20  2  0  0  0  0
 29 32  1  0  0  0  0
  8 11  1  0  0  0  0
 38 39  1  0  0  0  0
 18 21  1  0  0  0  0
 21 22  1  0  0  0  0
 28 29  1  0  0  0  0
  7  8  1  0  0  0  0
 17 18  1  0  0  0  0
  3  4  1  0  0  0  0
  3  5  1  0  0  0  0
  3  6  1  0  0  0  0
 32 35  1  0  0  0  0
 32 36  1  0  0  0  0
 32 37  1  0  0  0  0
 11 14  1  0  0  0  0
 11 15  1  0  0  0  0
 11 16  1  0  0  0  0
 39 41  1  0  0  0  0
 39 42  1  0  0  0  0
 39 43  1  0  0  0  0
 21 25  1  0  0  0  0
 21 26  1  0  0  0  0
 29 34  1  0  0  0  0
  8 13  1  0  0  0  0
 18 24  1  0  0  0  0
 38 40  1  0  0  0  0
  7 12  1  0  0  0  0
 28 33  1  0  0  0  0
 17 23  1  0  0  0  0
 22 27  1  0  0  0  0
M  END
$$$$

  -OEChem-05262214473D

 43 42  0     1  0  0  0  0  0999 V2000
    0.7424   -1.0926    4.5665 C   0  0  0  0  0  0  0  0  0  0  0  0
    0.1409   -0.5364    5.4779 O   0  0  0  0  0  0  0  0  0  0  0  0
    1.7940   -2.1023    4.8871 C   0  0  0  0  0  0  0  0  0  0  0  0
    2.7935   -1.6502    4.9904 H   0  0  0  0  0  0  0  0  0  0  0  0
    1.6064   -2.6156    5.8438 H   0  0  0  0  0  0  0  0  0  0  0  0
    1.9156   -2.9078    4.1453 H   0  0  0  0  0  0  0  0  0  0  0  0
    0.5488   -0.8838    3.2109 N   0  0  0  0  0  0  0  0  0  0  0  0
   -0.4159    0.0446    2.6829 C   0  0  2  0  0  0  0  0  0  0  0  0
   -0.7551   -0.3867    1.2623 C   0  0  0  0  0  0  0  0  0  0  0  0
   -0.0106   -1.0851    0.5774 O   0  0  0  0  0  0  0  0  0  0  0  0
    0.1168    1.4689    2.7060 C   0  0  0  0  0  0  0  0  0  0  0  0
    1.1183   -1.4145    2.5542 H   0  0  0  0  0  0  0  0  0  0  0  0
   -1.3088   -0.0350    3.3125 H   0  0  0  0  0  0  0  0  0  0  0  0
    1.0116    1.5681    2.0808 H   0  0  0  0  0  0  0  0  0  0  0  0
   -0.6289    2.1775    2.3307 H   0  0  0  0  0  0  0  0  0  0  0  0
    0.3882    1.7670    3.7245 H   0  0  0  0  0  0  0  0  0  0  0  0
   -1.9689    0.1350    0.8298 N   0  0  0  0  0  0  0  0  0  0  0  0
   -2.5039   -0.1183   -0.4830 C   0  0  2  0  0  0  0  0  0  0  0  0
   -2.3460   -1.6048   -0.7837 C   0  0  0  0  0  0  0  0  0  0  0  0
   -1.2624   -2.1246   -1.0419 O   0  0  0  0  0  0  0  0  0  0  0  0
   -1.8358    0.7523   -1.5424 C   0  0  0  0  0  0  0  0  0  0  0  0
   -0.4646    0.3969   -1.6792 O   0  0  0  0  0  0  0  0  0  0  0  0
   -2.5276    0.6894    1.4750 H   0  0  0  0  0  0  0  0  0  0  0  0
   -3.5722    0.1213   -0.4322 H   0  0  0  0  0  0  0  0  0  0  0  0
   -1.8863    1.8114   -1.2701 H   0  0  0  0  0  0  0  0  0  0  0  0
   -2.3212    0.6163   -2.5147 H   0  0  0  0  0  0  0  0  0  0  0  0
   -0.4441   -0.5364   -1.9442 H   0  0  0  0  0  0  0  0  0  0  0  0
   -3.5501   -2.2879   -0.6871 N   0  0  0  0  0  0  0  0  0  0  0  0
   -3.6601   -3.7130   -0.8961 C   0  0  2  0  0  0  0  0  0  0  0  0
   -2.3790   -4.3628   -0.3900 C   0  0  0  0  0  0  0  0  0  0  0  0
   -1.3174   -3.7535   -0.2763 O   0  0  0  0  0  0  0  0  0  0  0  0
   -3.8932   -4.0407   -2.3627 C   0  0  0  0  0  0  0  0  0  0  0  0
   -4.3918   -1.7818   -0.4284 H   0  0  0  0  0  0  0  0  0  0  0  0
   -4.5075   -4.0566   -0.2929 H   0  0  0  0  0  0  0  0  0  0  0  0
   -3.0544   -3.7039   -2.9828 H   0  0  0  0  0  0  0  0  0  0  0  0
   -4.0048   -5.1193   -2.5153 H   0  0  0  0  0  0  0  0  0  0  0  0
   -4.7989   -3.5484   -2.7329 H   0  0  0  0  0  0  0  0  0  0  0  0
   -2.5499   -5.7136   -0.1213 N   0  0  0  0  0  0  0  0  0  0  0  0
   -1.4784   -6.5547    0.3586 C   0  0  0  0  0  0  0  0  0  0  0  0
   -3.4698   -6.1314   -0.2260 H   0  0  0  0  0  0  0  0  0  0  0  0
   -0.9753   -7.0317   -0.4954 H   0  0  0  0  0  0  0  0  0  0  0  0
   -0.7537   -5.9429    0.9159 H   0  0  0  0  0  0  0  0  0  0  0  0
   -1.8899   -7.3301    1.0215 H   0  0  0  0  0  0  0  0  0  0  0  0
  1  3  1  0  0  0  0
  1  7  1  0  0  0  0
  1  2  2  0  0  0  0
 29 30  1  0  0  0  0
 30 38  1  0  0  0  0
 30 31  2  0  0  0  0
  8  9  1  0  0  0  0
  9 17  1  0  0  0  0
  9 10  2  0  0  0  0
 18 19  1  0  0  0  0
 19 28  1  0  0  0  0
 19 20  2  0  0  0  0
 29 32  1  0  0  0  0
  8 11  1  0  0  0  0
 38 39  1  0  0  0  0
 18 21  1  0  0  0  0
 21 22  1  0  0  0  0
 28 29  1  0  0  0  0
  7  8  1  0  0  0  0
 17 18  1  0  0  0  0
  3  4  1  0  0  0  0
  3  5  1  0  0  0  0
  3  6  1  0  0  0  0
 32 35  1  0  0  0  0
 32 36  1  0  0  0  0
 32 37  1  0  0  0  0
 11 14  1  0  0  0  0
 11 15  1  0  0  0  0
 11 16  1  0  0  0  0
 39 41  1  0  0  0  0
 39 42  1  0  0  0  0
 39 43  1  0  0  0  0
 21 25  1  0  0  0  0
 21 26  1  0  0  0  0
 29 34  1  0  0  0  0
  8 13  1  0  0  0  0
 18 24  1  0  0  0  0
 38 40  1  0  0  0  0
  7 12  1  0  0  0  0
 28 33  1  0  0  0  0
 17 23  1  0  0  0  0
 22 27  1  0  0  0  0
M  END
$$$$

  -OEChem-05262214473D

 43 42  0     1  0  0  0  0  0999 V2000
    0.7424   -1.0926    4.5665 C   0  0  0  0  0  0  0  0  0  0  0  0
    0.1409   -0.5364    5.4779 O   0  0  0  0  0  0  0  0  0  0  0  0
    1.7940   -2.1023    4.8871 C   0  0  0  0  0  0  0  0  0  0  0  0
    2.7935   -1.6502    4.9904 H   0  0  0  0  0  0  0  0  0  0  0  0
    1.6064   -2.6156    5.8438 H   0  0  0  0  0  0  0  0  0  0  0  0
    1.9156   -2.9078    4.1453 H   0  0  0  0  0  0  0  0  0  0  0  0
    0.5488   -0.8838    3.2109 N   0  0  0  0  0  0  0  0  0  0  0  0
   -0.4159    0.0446    2.6829 C   0  0  2  0  0  0  0  0  0  0  0  0
   -0.7551   -0.3867    1.2623 C   0  0  0  0  0  0  0  0  0  0  0  0
   -0.0106   -1.0851    0.5774 O   0  0  0  0  0  0  0  0  0  0  0  0
    0.1168    1.4689    2.7060 C   0  0  0  0  0  0  0  0  0  0  0  0
    1.1183   -1.4145    2.5542 H   0  0  0  0  0  0  0  0  0  0  0  0
   -1.3088   -0.0350    3.3125 H   0  0  0  0  0  0  0  0  0  0  0  0
    1.0116    1.5681    2.0808 H   0  0  0  0  0  0  0  0  0  0  0  0
   -0.6289    2.1775    2.3307 H   0  0  0  0  0  0  0  0  0  0  0  0
    0.3882    1.7670    3.7245 H   0  0  0  0  0  0  0  0  0  0  0  0
   -1.9689    0.1350    0.8298 N   0  0  0  0  0  0  0  0  0  0  0  0
   -2.5039   -0.1183   -0.4830 C   0  0  2  0  0  0  0  0  0  0  0  0
   -2.3460   -1.6048   -0.7837 C   0  0  0  0  0  0  0  0  0  0  0  0
   -1.2583   -2.1776   -0.7781 O   0  0  0  0  0  0  0  0  0  0  0  0
   -1.8358    0.7523   -1.5424 C   0  0  0  0  0  0  0  0  0  0  0  0
   -0.4646    0.3969   -1.6792 O   0  0  0  0  0  0  0  0  0  0  0  0
   -2.5276    0.6894    1.4750 H   0  0  0  0  0  0  0  0  0  0  0  0
   -3.5722    0.1213   -0.4322 H   0  0  0  0  0  0  0  0  0  0  0  0
   -1.8863    1.8114   -1.2701 H   0  0  0  0  0  0  0  0  0  0  0  0
   -2.3212    0.6163   -2.5147 H   0  0  0  0  0  0  0  0  0  0  0  0
   -0.4441   -0.5364   -1.9442 H   0  0  0  0  0  0  0  0  0  0  0  0
   -3.5664   -2.2231   -1.0160 N   0  0  0  0  0  0  0  0  0  0  0  0
   -3.6877   -3.6355   -1.2934 C   0  0  2  0  0  0  0  0  0  0  0  0
   -2.6087   -4.3643   -0.5032 C   0  0  0  0  0  0  0  0  0  0  0  0
   -1.5828   -3.8162   -0.1058 O   0  0  0  0  0  0  0  0  0  0  0  0
   -3.5574   -3.9203   -2.7815 C   0  0  0  0  0  0  0  0  0  0  0  0
   -4.4212   -1.6772   -0.9607 H   0  0  0  0  0  0  0  0  0  0  0  0
   -4.6755   -3.9446   -0.9347 H   0  0  0  0  0  0  0  0  0  0  0  0
   -2.5740   -3.6172   -3.1591 H   0  0  0  0  0  0  0  0  0  0  0  0
   -3.6780   -4.9879   -2.9932 H   0  0  0  0  0  0  0  0  0  0  0  0
   -4.3155   -3.3720   -3.3511 H   0  0  0  0  0  0  0  0  0  0  0  0
   -2.9062   -5.7090   -0.3314 N   0  0  0  0  0  0  0  0  0  0  0  0
   -2.0322   -6.6167    0.3744 C   0  0  0  0  0  0  0  0  0  0  0  0
   -3.7885   -6.0738   -0.6780 H   0  0  0  0  0  0  0  0  0  0  0  0
   -1.3528   -7.1031   -0.3410 H   0  0  0  0  0  0  0  0  0  0  0  0
   -1.4438   -6.0567    1.1162 H   0  0  0  0  0  0  0  0  0  0  0  0
   -2.6345   -7.3819    0.8861 H   0  0  0  0  0  0  0  0  0  0  0  0
  1  3  1  0  0  0  0
  1  7  1  0  0  0  0
  1  2  2  0  0  0  0
 29 30  1  0  0  0  0
 30 38  1  0  0  0  0
 30 31  2  0  0  0  0
  8  9  1  0  0  0  0
  9 17  1  0  0  0  0
  9 10  2  0  0  0  0
 18 19  1  0  0  0  0
 19 28  1  0  0  0  0
 19 20  2  0  0  0  0
 29 32  1  0  0  0  0
  8 11  1  0  0  0  0
 38 39  1  0  0  0  0
 18 21  1  0  0  0  0
 21 22  1  0  0  0  0
 28 29  1  0  0  0  0
  7  8  1  0  0  0  0
 17 18  1  0  0  0  0
  3  4  1  0  0  0  0
  3  5  1  0  0  0  0
  3  6  1  0  0  0  0
 32 35  1  0  0  0  0
 32 36  1  0  0  0  0
 32 37  1  0  0  0  0
 11 14  1  0  0  0  0
 11 15  1  0  0  0  0
 11 16  1  0  0  0  0
 39 41  1  0  0  0  0
 39 42  1  0  0  0  0
 39 43  1  0  0  0  0
 21 25  1  0  0  0  0
 21 26  1  0  0  0  0
 29 34  1  0  0  0  0
  8 13  1  0  0  0  0
 18 24  1  0  0  0  0
 38 40  1  0  0  0  0
  7 12  1  0  0  0  0
 28 33  1  0  0  0  0
 17 23  1  0  0  0  0
 22 27  1  0  0  0  0
M  END
$$$$

  -OEChem-05262214473D

 43 42  0     1  0  0  0  0  0999 V2000
    0.7424   -1.0926    4.5665 C   0  0  0  0  0  0  0  0  0  0  0  0
    0.1409   -0.5364    5.4779 O   0  0  0  0  0  0  0  0  0  0  0  0
    1.7940   -2.1023    4.8871 C   0  0  0  0  0  0  0  0  0  0  0  0
    2.7935   -1.6502    4.9904 H   0  0  0  0  0  0  0  0  0  0  0  0
    1.6064   -2.6156    5.8438 H   0  0  0  0  0  0  0  0  0  0  0  0
    1.9156   -2.9078    4.1453 H   0  0  0  0  0  0  0  0  0  0  0  0
    0.5488   -0.8838    3.2109 N   0  0  0  0  0  0  0  0  0  0  0  0
   -0.4159    0.0446    2.6829 C   0  0  2  0  0  0  0  0  0  0  0  0
   -0.7551   -0.3867    1.2623 C   0  0  0  0  0  0  0  0  0  0  0  0
   -0.0106   -1.0851    0.5774 O   0  0  0  0  0  0  0  0  0  0  0  0
    0.1168    1.4689    2.7060 C   0  0  0  0  0  0  0  0  0  0  0  0
    1.1183   -1.4145    2.5542 H   0  0  0  0  0  0  0  0  0  0  0  0
   -1.3088   -0.0350    3.3125 H   0  0  0  0  0  0  0  0  0  0  0  0
    1.0116    1.5681    2.0808 H   0  0  0  0  0  0  0  0  0  0  0  0
   -0.6289    2.1775    2.3307 H   0  0  0  0  0  0  0  0  0  0  0  0
    0.3882    1.7670    3.7245 H   0  0  0  0  0  0  0  0  0  0  0  0
   -1.9689    0.1350    0.8298 N   0  0  0  0  0  0  0  0  0  0  0  0
   -2.5039   -0.1183   -0.4830 C   0  0  2  0  0  0  0  0  0  0  0  0
   -2.3460   -1.6048   -0.7837 C   0  0  0  0  0  0  0  0  0  0  0  0
   -1.3237   -2.2360   -0.5237 O   0  0  0  0  0  0  0  0  0  0  0  0
   -1.8358    0.7523   -1.5424 C   0  0  0  0  0  0  0  0  0  0  0  0
   -0.4646    0.3969   -1.6792 O   0  0  0  0  0  0  0  0  0  0  0  0
   -2.5276    0.6894    1.4750 H   0  0  0  0  0  0  0  0  0  0  0  0
   -3.5722    0.1213   -0.4322 H   0  0  0  0  0  0  0  0  0  0  0  0
   -1.8863    1.8114   -1.2701 H   0  0  0  0  0  0  0  0  0  0  0  0
   -2.3212    0.6163   -2.5147 H   0  0  0  0  0  0  0  0  0  0  0  0
   -0.4441   -0.5364   -1.9442 H   0  0  0  0  0  0  0  0  0  0  0  0
   -3.4959   -2.1509   -1.3361 N   0  0  0  0  0  0  0  0  0  0  0  0
   -3.6101   -3.5487   -1.6820 C   0  0  2  0  0  0  0  0  0  0  0  0
   -2.8022   -4.3510   -0.6706 C   0  0  0  0  0  0  0  0  0  0  0  0
   -1.8853   -3.8677   -0.0097 O   0  0  0  0  0  0  0  0  0  0  0  0
   -3.1213   -3.8100   -3.0982 C   0  0  0  0  0  0  0  0  0  0  0  0
   -4.3099   -1.5605   -1.4795 H   0  0  0  0  0  0  0  0  0  0  0  0
   -4.6701   -3.8107   -1.5939 H   0  0  0  0  0  0  0  0  0  0  0  0
   -2.0611   -3.5533   -3.2058 H   0  0  0  0  0  0  0  0  0  0  0  0
   -3.2351   -4.8649   -3.3689 H   0  0  0  0  0  0  0  0  0  0  0  0
   -3.6837   -3.2097   -3.8215 H   0  0  0  0  0  0  0  0  0  0  0  0
   -3.1971   -5.6807   -0.6240 N   0  0  0  0  0  0  0  0  0  0  0  0
   -2.5744   -6.6488    0.2483 C   0  0  0  0  0  0  0  0  0  0  0  0
   -3.9793   -5.9898   -1.1935 H   0  0  0  0  0  0  0  0  0  0  0  0
   -1.7600   -7.1568   -0.2889 H   0  0  0  0  0  0  0  0  0  0  0  0
   -2.1668   -6.1368    1.1325 H   0  0  0  0  0  0  0  0  0  0  0  0
   -3.3223   -7.3902    0.5662 H   0  0  0  0  0  0  0  0  0  0  0  0
  1  3  1  0  0  0  0
  1  7  1  0  0  0  0
  1  2  2  0  0  0  0
 29 30  1  0  0  0  0
 30 38  1  0  0  0  0
 30 31  2  0  0  0  0
  8  9  1  0  0  0  0
  9 17  1  0  0  0  0
  9 10  2  0  0  0  0
 18 19  1  0  0  0  0
 19 28  1  0  0  0  0
 19 20  2  0  0  0  0
 29 32  1  0  0  0  0
  8 11  1  0  0  0  0
 38 39  1  0  0  0  0
 18 21  1  0  0  0  0
 21 22  1  0  0  0  0
 28 29  1  0  0  0  0
  7  8  1  0  0  0  0
 17 18  1  0  0  0  0
  3  4  1  0  0  0  0
  3  5  1  0  0  0  0
  3  6  1  0  0  0  0
 32 35  1  0  0  0  0
 32 36  1  0  0  0  0
 32 37  1  0  0  0  0
 11 14  1  0  0  0  0
 11 15  1  0  0  0  0
 11 16  1  0  0  0  0
 39 41  1  0  0  0  0
 39 42  1  0  0  0  0
 39 43  1  0  0  0  0
 21 25  1  0  0  0  0
 21 26  1  0  0  0  0
 29 34  1  0  0  0  0
  8 13  1  0  0  0  0
 18 24  1  0  0  0  0
 38 40  1  0  0  0  0
  7 12  1  0  0  0  0
 28 33  1  0  0  0  0
 17 23  1  0  0  0  0
 22 27  1  0  0  0  0
M  END
$$$$

  -OEChem-05262214473D

 43 42  0     1  0  0  0  0  0999 V2000
    0.7424   -1.0926    4.5665 C   0  0  0  0  0  0  0  0  0  0  0  0
    0.1409   -0.5364    5.4779 O   0  0  0  0  0  0  0  0  0  0  0  0
    1.7940   -2.1023    4.8871 C   0  0  0  0  0  0  0  0  0  0  0  0
    2.7935   -1.6502    4.9904 H   0  0  0  0  0  0  0  0  0  0  0  0
    1.6064   -2.6156    5.8438 H   0  0  0  0  0  0  0  0  0  0  0  0
    1.9156   -2.9078    4.1453 H   0  0  0  0  0  0  0  0  0  0  0  0
    0.5488   -0.8838    3.2109 N   0  0  0  0  0  0  0  0  0  0  0  0
   -0.4159    0.0446    2.6829 C   0  0  2  0  0  0  0  0  0  0  0  0
   -0.7551   -0.3867    1.2623 C   0  0  0  0  0  0  0  0  0  0  0  0
   -0.0106   -1.0851    0.5774 O   0  0  0  0  0  0  0  0  0  0  0  0
    0.1168    1.4689    2.7060 C   0  0  0  0  0  0  0  0  0  0  0  0
    1.1183   -1.4145    2.5542 H   0  0  0  0  0  0  0  0  0  0  0  0
   -1.3088   -0.0350    3.3125 H   0  0  0  0  0  0  0  0  0  0  0  0
    1.0116    1.5681    2.0808 H   0  0  0  0  0  0  0  0  0  0  0  0
   -0.6289    2.1775    2.3307 H   0  0  0  0  0  0  0  0  0  0  0  0
    0.3882    1.7670    3.7245 H   0  0  0  0  0  0  0  0  0  0  0  0
   -1.9689    0.1350    0.8298 N   0  0  0  0  0  0  0  0  0  0  0  0
   -2.5039   -0.1183   -0.4830 C   0  0  2  0  0  0  0  0  0  0  0  0
   -2.3460   -1.6048   -0.7837 C   0  0  0  0  0  0  0  0  0  0  0  0
   -1.4539   -2.2959   -0.2961 O   0  0  0  0  0  0  0  0  0  0  0  0
   -1.8358    0.7523   -1.5424 C   0  0  0  0  0  0  0  0  0  0  0  0
   -0.4646    0.3969   -1.6792 O   0  0  0  0  0  0  0  0  0  0  0  0
   -2.5276    0.6894    1.4750 H   0  0  0  0  0  0  0  0  0  0  0  0
   -3.5722    0.1213   -0.4322 H   0  0  0  0  0  0  0  0  0  0  0  0
   -1.8863    1.8114   -1.2701 H   0  0  0  0  0  0  0  0  0  0  0  0
   -2.3212    0.6163   -2.5147 H   0  0  0  0  0  0  0  0  0  0  0  0
   -0.4441   -0.5364   -1.9442 H   0  0  0  0  0  0  0  0  0  0  0  0
   -3.3434   -2.0761   -1.6256 N   0  0  0  0  0  0  0  0  0  0  0  0
   -3.4328   -3.4583   -2.0355 C   0  0  2  0  0  0  0  0  0  0  0  0
   -2.9462   -4.3238   -0.8806 C   0  0  0  0  0  0  0  0  0  0  0  0
   -2.2044   -3.9047    0.0054 O   0  0  0  0  0  0  0  0  0  0  0  0
   -2.6146   -3.7171   -3.2910 C   0  0  0  0  0  0  0  0  0  0  0  0
   -4.0655   -1.4395   -1.9494 H   0  0  0  0  0  0  0  0  0  0  0  0
   -4.4918   -3.6639   -2.2258 H   0  0  0  0  0  0  0  0  0  0  0  0
   -1.5507   -3.5165   -3.1198 H   0  0  0  0  0  0  0  0  0  0  0  0
   -2.7062   -4.7586   -3.6167 H   0  0  0  0  0  0  0  0  0  0  0  0
   -2.9464   -3.0726   -4.1122 H   0  0  0  0  0  0  0  0  0  0  0  0
   -3.4028   -5.6306   -0.9794 N   0  0  0  0  0  0  0  0  0  0  0  0
   -3.0679   -6.6487   -0.0112 C   0  0  0  0  0  0  0  0  0  0  0  0
   -4.0293   -5.8851   -1.7373 H   0  0  0  0  0  0  0  0  0  0  0  0
   -2.1692   -7.1894   -0.3429 H   0  0  0  0  0  0  0  0  0  0  0  0
   -2.8734   -6.1777    0.9636 H   0  0  0  0  0  0  0  0  0  0  0  0
   -3.9063   -7.3546    0.0834 H   0  0  0  0  0  0  0  0  0  0  0  0
  1  3  1  0  0  0  0
  1  7  1  0  0  0  0
  1  2  2  0  0  0  0
 29 30  1  0  0  0  0
 30 38  1  0  0  0  0
 30 31  2  0  0  0  0
  8  9  1  0  0  0  0
  9 17  1  0  0  0  0
  9 10  2  0  0  0  0
 18 19  1  0  0  0  0
 19 28  1  0  0  0  0
 19 20  2  0  0  0  0
 29 32  1  0  0  0  0
  8 11  1  0  0  0  0
 38 39  1  0  0  0  0
 18 21  1  0  0  0  0
 21 22  1  0  0  0  0
 28 29  1  0  0  0  0
  7  8  1  0  0  0  0
 17 18  1  0  0  0  0
  3  4  1  0  0  0  0
  3  5  1  0  0  0  0
  3  6  1  0  0  0  0
 32 35  1  0  0  0  0
 32 36  1  0  0  0  0
 32 37  1  0  0  0  0
 11 14  1  0  0  0  0
 11 15  1  0  0  0  0
 11 16  1  0  0  0  0
 39 41  1  0  0  0  0
 39 42  1  0  0  0  0
 39 43  1  0  0  0  0
 21 25  1  0  0  0  0
 21 26  1  0  0  0  0
 29 34  1  0  0  0  0
  8 13  1  0  0  0  0
 18 24  1  0  0  0  0
 38 40  1  0  0  0  0
  7 12  1  0  0  0  0
 28 33  1  0  0  0  0
 17 23  1  0  0  0  0
 22 27  1  0  0  0  0
M  END
$$$$

  -OEChem-05262214473D

 43 42  0     1  0  0  0  0  0999 V2000
    0.7424   -1.0926    4.5665 C   0  0  0  0  0  0  0  0  0  0  0  0
    0.1409   -0.5364    5.4779 O   0  0  0  0  0  0  0  0  0  0  0  0
    1.7940   -2.1023    4.8871 C   0  0  0  0  0  0  0  0  0  0  0  0
    2.7935   -1.6502    4.9904 H   0  0  0  0  0  0  0  0  0  0  0  0
    1.6064   -2.6156    5.8438 H   0  0  0  0  0  0  0  0  0  0  0  0
    1.9156   -2.9078    4.1453 H   0  0  0  0  0  0  0  0  0  0  0  0
    0.5488   -0.8838    3.2109 N   0  0  0  0  0  0  0  0  0  0  0  0
   -0.4159    0.0446    2.6829 C   0  0  2  0  0  0  0  0  0  0  0  0
   -0.7551   -0.3867    1.2623 C   0  0  0  0  0  0  0  0  0  0  0  0
   -0.0106   -1.0851    0.5774 O   0  0  0  0  0  0  0  0  0  0  0  0
    0.1168    1.4689    2.7060 C   0  0  0  0  0  0  0  0  0  0  0  0
    1.1183   -1.4145    2.5542 H   0  0  0  0  0  0  0  0  0  0  0  0
   -1.3088   -0.0350    3.3125 H   0  0  0  0  0  0  0  0  0  0  0  0
    1.0116    1.5681    2.0808 H   0  0  0  0  0  0  0  0  0  0  0  0
   -0.6289    2.1775    2.3307 H   0  0  0  0  0  0  0  0  0  0  0  0
    0.3882    1.7670    3.7245 H   0  0  0  0  0  0  0  0  0  0  0  0
   -1.9689    0.1350    0.8298 N   0  0  0  0  0  0  0  0  0  0  0  0
   -2.5039   -0.1183   -0.4830 C   0  0  2  0  0  0  0  0  0  0  0  0
   -2.3460   -1.6048   -0.7837 C   0  0  0  0  0  0  0  0  0  0  0  0
   -1.6403   -2.3532   -0.1106 O   0  0  0  0  0  0  0  0  0  0  0  0
   -1.8358    0.7523   -1.5424 C   0  0  0  0  0  0  0  0  0  0  0  0
   -0.4646    0.3969   -1.6792 O   0  0  0  0  0  0  0  0  0  0  0  0
   -2.5276    0.6894    1.4750 H   0  0  0  0  0  0  0  0  0  0  0  0
   -3.5722    0.1213   -0.4322 H   0  0  0  0  0  0  0  0  0  0  0  0
   -1.8863    1.8114   -1.2701 H   0  0  0  0  0  0  0  0  0  0  0  0
   -2.3212    0.6163   -2.5147 H   0  0  0  0  0  0  0  0  0  0  0  0
   -0.4441   -0.5364   -1.9442 H   0  0  0  0  0  0  0  0  0  0  0  0
   -3.1192   -2.0039   -1.8647 N   0  0  0  0  0  0  0  0  0  0  0  0
   -3.1676   -3.3706   -2.3298 C   0  0  2  0  0  0  0  0  0  0  0  0
   -3.0308   -4.2845   -1.1192 C   0  0  0  0  0  0  0  0  0  0  0  0
   -2.5183   -3.9245   -0.0615 O   0  0  0  0  0  0  0  0  0  0  0  0
   -2.0717   -3.6481   -3.3469 C   0  0  0  0  0  0  0  0  0  0  0  0
   -3.7048   -1.3224   -2.3384 H   0  0  0  0  0  0  0  0  0  0  0  0
   -4.1526   -3.5144   -2.7871 H   0  0  0  0  0  0  0  0  0  0  0  0
   -1.0774   -3.5093   -2.9069 H   0  0  0  0  0  0  0  0  0  0  0  0
   -2.1274   -4.6762   -3.7197 H   0  0  0  0  0  0  0  0  0  0  0  0
   -2.1538   -2.9700   -4.2032 H   0  0  0  0  0  0  0  0  0  0  0  0
   -3.5093   -5.5623   -1.3731 N   0  0  0  0  0  0  0  0  0  0  0  0
   -3.4791   -6.6165   -0.3864 C   0  0  0  0  0  0  0  0  0  0  0  0
   -3.9350   -5.7669   -2.2724 H   0  0  0  0  0  0  0  0  0  0  0  0
   -2.5525   -7.1985   -0.4991 H   0  0  0  0  0  0  0  0  0  0  0  0
   -3.5154   -6.1766    0.6212 H   0  0  0  0  0  0  0  0  0  0  0  0
   -4.3467   -7.2774   -0.5294 H   0  0  0  0  0  0  0  0  0  0  0  0
  1  3  1  0  0  0  0
  1  7  1  0  0  0  0
  1  2  2  0  0  0  0
 29 30  1  0  0  0  0
 30 38  1  0  0  0  0
 30 31  2  0  0  0  0
  8  9  1  0  0  0  0
  9 17  1  0  0  0  0
  9 10  2  0  0  0  0
 18 19  1  0  0  0  0
 19 28  1  0  0  0  0
 19 20  2  0  0  0  0
 29 32  1  0  0  0  0
  8 11  1  0  0  0  0
 38 39  1  0  0  0  0
 18 21  1  0  0  0  0
 21 22  1  0  0  0  0
 28 29  1  0  0  0  0
  7  8  1  0  0  0  0
 17 18  1  0  0  0  0
  3  4  1  0  0  0  0
  3  5  1  0  0  0  0
  3  6  1  0  0  0  0
 32 35  1  0  0  0  0
 32 36  1  0  0  0  0
 32 37  1  0  0  0  0
 11 14  1  0  0  0  0
 11 15  1  0  0  0  0
 11 16  1  0  0  0  0
 39 41  1  0  0  0  0
 39 42  1  0  0  0  0
 39 43  1  0  0  0  0
 21 25  1  0  0  0  0
 21 26  1  0  0  0  0
 29 34  1  0  0  0  0
  8 13  1  0  0  0  0
 18 24  1  0  0  0  0
 38 40  1  0  0  0  0
  7 12  1  0  0  0  0
 28 33  1  0  0  0  0
 17 23  1  0  0  0  0
 22 27  1  0  0  0  0
M  END
$$$$

  -OEChem-05262214473D

 43 42  0     1  0  0  0  0  0999 V2000
    0.7424   -1.0926    4.5665 C   0  0  0  0  0  0  0  0  0  0  0  0
    0.1409   -0.5364    5.4779 O   0  0  0  0  0  0  0  0  0  0  0  0
    1.7940   -2.1023    4.8871 C   0  0  0  0  0  0  0  0  0  0  0  0
    2.7935   -1.6502    4.9904 H   0  0  0  0  0  0  0  0  0  0  0  0
    1.6064   -2.6156    5.8438 H   0  0  0  0  0  0  0  0  0  0  0  0
    1.9156   -2.9078    4.1453 H   0  0  0  0  0  0  0  0  0  0  0  0
    0.5488   -0.8838    3.2109 N   0  0  0  0  0  0  0  0  0  0  0  0
   -0.4159    0.0446    2.6829 C   0  0  2  0  0  0  0  0  0  0  0  0
   -0.7551   -0.3867    1.2623 C   0  0  0  0  0  0  0  0  0  0  0  0
   -0.0106   -1.0851    0.5774 O   0  0  0  0  0  0  0  0  0  0  0  0
    0.1168    1.4689    2.7060 C   0  0  0  0  0  0  0  0  0  0  0  0
    1.1183   -1.4145    2.5542 H   0  0  0  0  0  0  0  0  0  0  0  0
   -1.3088   -0.0350    3.3125 H   0  0  0  0  0  0  0  0  0  0  0  0
    1.0116    1.5681    2.0808 H   0  0  0  0  0  0  0  0  0  0  0  0
   -0.6289    2.1775    2.3307 H   0  0  0  0  0  0  0  0  0  0  0  0
    0.3882    1.7670    3.7245 H   0  0  0  0  0  0  0  0  0  0  0  0
   -1.9689    0.1350    0.8298 N   0  0  0  0  0  0  0  0  0  0  0  0
   -2.5039   -0.1183   -0.4830 C   0  0  2  0  0  0  0  0  0  0  0  0
   -2.6945   -1.6232   -0.6381 C   0  0  0  0  0  0  0  0  0  0  0  0
   -2.4501   -2.4256    0.2605 O   0  0  0  0  0  0  0  0  0  0  0  0
   -1.6121    0.4598   -1.5771 C   0  0  0  0  0  0  0  0  0  0  0  0
   -0.3611   -0.2183   -1.6027 O   0  0  0  0  0  0  0  0  0  0  0  0
   -2.5276    0.6894    1.4750 H   0  0  0  0  0  0  0  0  0  0  0  0
   -3.4855    0.3683   -0.5151 H   0  0  0  0  0  0  0  0  0  0  0  0
   -1.4181    1.5234   -1.4053 H   0  0  0  0  0  0  0  0  0  0  0  0
   -2.0825    0.3429   -2.5592 H   0  0  0  0  0  0  0  0  0  0  0  0
   -0.5545   -1.1524   -1.7803 H   0  0  0  0  0  0  0  0  0  0  0  0
   -3.2097   -1.9588   -1.8822 N   0  0  0  0  0  0  0  0  0  0  0  0
   -3.5088   -3.3194   -2.2639 C   0  0  2  0  0  0  0  0  0  0  0  0
   -3.9849   -4.0623   -1.0226 C   0  0  0  0  0  0  0  0  0  0  0  0
   -3.7130   -3.7014    0.1206 O   0  0  0  0  0  0  0  0  0  0  0  0
   -2.2949   -4.0026   -2.8741 C   0  0  0  0  0  0  0  0  0  0  0  0
   -3.4193   -1.2234   -2.5507 H   0  0  0  0  0  0  0  0  0  0  0  0
   -4.3226   -3.2709   -2.9957 H   0  0  0  0  0  0  0  0  0  0  0  0
   -1.4691   -4.0604   -2.1556 H   0  0  0  0  0  0  0  0  0  0  0  0
   -2.5312   -5.0244   -3.1890 H   0  0  0  0  0  0  0  0  0  0  0  0
   -1.9358   -3.4504   -3.7493 H   0  0  0  0  0  0  0  0  0  0  0  0
   -4.7128   -5.1999   -1.3422 N   0  0  0  0  0  0  0  0  0  0  0  0
   -5.2629   -6.0811   -0.3387 C   0  0  0  0  0  0  0  0  0  0  0  0
   -4.9060   -5.4121   -2.3166 H   0  0  0  0  0  0  0  0  0  0  0  0
   -4.5464   -6.8883   -0.1264 H   0  0  0  0  0  0  0  0  0  0  0  0
   -5.4571   -5.5118    0.5823 H   0  0  0  0  0  0  0  0  0  0  0  0
   -6.2043   -6.5142   -0.7075 H   0  0  0  0  0  0  0  0  0  0  0  0
  1  3  1  0  0  0  0
  1  7  1  0  0  0  0
  1  2  2  0  0  0  0
 29 30  1  0  0  0  0
 30 38  1  0  0  0  0
 30 31  2  0  0  0  0
  8  9  1  0  0  0  0
  9 17  1  0  0  0  0
  9 10  2  0  0  0  0
 18 19  1  0  0  0  0
 19 28  1  0  0  0  0
 19 20  2  0  0  0  0
 29 32  1  0  0  0  0
  8 11  1  0  0  0  0
 38 39  1  0  0  0  0
 18 21  1  0  0  0  0
 21 22  1  0  0  0  0
 28 29  1  0  0  0  0
  7  8  1  0  0  0  0
 17 18  1  0  0  0  0
  3  4  1  0  0  0  0
  3  5  1  0  0  0  0
  3  6  1  0  0  0  0
 32 35  1  0  0  0  0
 32 36  1  0  0  0  0
 32 37  1  0  0  0  0
 11 14  1  0  0  0  0
 11 15  1  0  0  0  0
 11 16  1  0  0  0  0
 39 41  1  0  0  0  0
 39 42  1  0  0  0  0
 39 43  1  0  0  0  0
 21 25  1  0  0  0  0
 21 26  1  0  0  0  0
 29 34  1  0  0  0  0
  8 13  1  0  0  0  0
 18 24  1  0  0  0  0
 38 40  1  0  0  0  0
  7 12  1  0  0  0  0
 28 33  1  0  0  0  0
 17 23  1  0  0  0  0
 22 27  1  0  0  0  0
M  END
$$$$

  -OEChem-05262214473D

 43 42  0     1  0  0  0  0  0999 V2000
    0.7424   -1.0926    4.5665 C   0  0  0  0  0  0  0  0  0  0  0  0
    0.1409   -0.5364    5.4779 O   0  0  0  0  0  0  0  0  0  0  0  0
    1.7940   -2.1023    4.8871 C   0  0  0  0  0  0  0  0  0  0  0  0
    2.7935   -1.6502    4.9904 H   0  0  0  0  0  0  0  0  0  0  0  0
    1.6064   -2.6156    5.8438 H   0  0  0  0  0  0  0  0  0  0  0  0
    1.9156   -2.9078    4.1453 H   0  0  0  0  0  0  0  0  0  0  0  0
    0.5488   -0.8838    3.2109 N   0  0  0  0  0  0  0  0  0  0  0  0
   -0.4159    0.0446    2.6829 C   0  0  2  0  0  0  0  0  0  0  0  0
   -0.7551   -0.3867    1.2623 C   0  0  0  0  0  0  0  0  0  0  0  0
   -0.0106   -1.0851    0.5774 O   0  0  0  0  0  0  0  0  0  0  0  0
    0.1168    1.4689    2.7060 C   0  0  0  0  0  0  0  0  0  0  0  0
    1.1183   -1.4145    2.5542 H   0  0  0  0  0  0  0  0  0  0  0  0
   -1.3088   -0.0350    3.3125 H   0  0  0  0  0  0  0  0  0  0  0  0
    1.0116    1.5681    2.0808 H   0  0  0  0  0  0  0  0  0  0  0  0
   -0.6289    2.1775    2.3307 H   0  0  0  0  0  0  0  0  0  0  0  0
    0.3882    1.7670    3.7245 H   0  0  0  0  0  0  0  0  0  0  0  0
   -1.9689    0.1350    0.8298 N   0  0  0  0  0  0  0  0  0  0  0  0
   -2.5039   -0.1183   -0.4830 C   0  0  2  0  0  0  0  0  0  0  0  0
   -2.6945   -1.6232   -0.6381 C   0  0  0  0  0  0  0  0  0  0  0  0
   -2.7119   -2.3981    0.3159 O   0  0  0  0  0  0  0  0  0  0  0  0
   -1.6121    0.4598   -1.5771 C   0  0  0  0  0  0  0  0  0  0  0  0
   -0.3611   -0.2183   -1.6027 O   0  0  0  0  0  0  0  0  0  0  0  0
   -2.5276    0.6894    1.4750 H   0  0  0  0  0  0  0  0  0  0  0  0
   -3.4855    0.3683   -0.5151 H   0  0  0  0  0  0  0  0  0  0  0  0
   -1.4181    1.5234   -1.4053 H   0  0  0  0  0  0  0  0  0  0  0  0
   -2.0825    0.3429   -2.5592 H   0  0  0  0  0  0  0  0  0  0  0  0
   -0.5545   -1.1524   -1.7803 H   0  0  0  0  0  0  0  0  0  0  0  0
   -2.8854   -1.9916   -1.9624 N   0  0  0  0  0  0  0  0  0  0  0  0
   -3.1188   -3.3581   -2.3684 C   0  0  2  0  0  0  0  0  0  0  0  0
   -3.9181   -4.0453   -1.2692 C   0  0  0  0  0  0  0  0  0  0  0  0
   -3.9358   -3.6499   -0.1055 O   0  0  0  0  0  0  0  0  0  0  0  0
   -1.8108   -4.0893   -2.6276 C   0  0  0  0  0  0  0  0  0  0  0  0
   -2.8951   -1.2761   -2.6832 H   0  0  0  0  0  0  0  0  0  0  0  0
   -3.7171   -3.3178   -3.2852 H   0  0  0  0  0  0  0  0  0  0  0  0
   -1.1977   -4.1397   -1.7204 H   0  0  0  0  0  0  0  0  0  0  0  0
   -1.9900   -5.1162   -2.9628 H   0  0  0  0  0  0  0  0  0  0  0  0
   -1.2237   -3.5769   -3.3974 H   0  0  0  0  0  0  0  0  0  0  0  0
   -4.5748   -5.1772   -1.7314 N   0  0  0  0  0  0  0  0  0  0  0  0
   -5.3892   -6.0096   -0.8770 C   0  0  0  0  0  0  0  0  0  0  0  0
   -4.5196   -5.4198   -2.7163 H   0  0  0  0  0  0  0  0  0  0  0  0
   -4.7756   -6.8243   -0.4652 H   0  0  0  0  0  0  0  0  0  0  0  0
   -5.7944   -5.4035   -0.0533 H   0  0  0  0  0  0  0  0  0  0  0  0
   -6.2183   -6.4346   -1.4618 H   0  0  0  0  0  0  0  0  0  0  0  0
  1  3  1  0  0  0  0
  1  7  1  0  0  0  0
  1  2  2  0  0  0  0
 29 30  1  0  0  0  0
 30 38  1  0  0  0  0
 30 31  2  0  0  0  0
  8  9  1  0  0  0  0
  9 17  1  0  0  0  0
  9 10  2  0  0  0  0
 18 19  1  0  0  0  0
 19 28  1  0  0  0  0
 19 20  2  0  0  0  0
 29 32  1  0  0  0  0
  8 11  1  0  0  0  0
 38 39  1  0  0  0  0
 18 21  1  0  0  0  0
 21 22  1  0  0  0  0
 28 29  1  0  0  0  0
  7  8  1  0  0  0  0
 17 18  1  0  0  0  0
  3  4  1  0  0  0  0
  3  5  1  0  0  0  0
  3  6  1  0  0  0  0
 32 35  1  0  0  0  0
 32 36  1  0  0  0  0
 32 37  1  0  0  0  0
 11 14  1  0  0  0  0
 11 15  1  0  0  0  0
 11 16  1  0  0  0  0
 39 41  1  0  0  0  0
 39 42  1  0  0  0  0
 39 43  1  0  0  0  0
 21 25  1  0  0  0  0
 21 26  1  0  0  0  0
 29 34  1  0  0  0  0
  8 13  1  0  0  0  0
 18 24  1  0  0  0  0
 38 40  1  0  0  0  0
  7 12  1  0  0  0  0
 28 33  1  0  0  0  0
 17 23  1  0  0  0  0
 22 27  1  0  0  0  0
M  END
$$$$

  -OEChem-05262214473D

 43 42  0     1  0  0  0  0  0999 V2000
    0.7424   -1.0926    4.5665 C   0  0  0  0  0  0  0  0  0  0  0  0
    0.1409   -0.5364    5.4779 O   0  0  0  0  0  0  0  0  0  0  0  0
    1.7940   -2.1023    4.8871 C   0  0  0  0  0  0  0  0  0  0  0  0
    2.7935   -1.6502    4.9904 H   0  0  0  0  0  0  0  0  0  0  0  0
    1.6064   -2.6156    5.8438 H   0  0  0  0  0  0  0  0  0  0  0  0
    1.9156   -2.9078    4.1453 H   0  0  0  0  0  0  0  0  0  0  0  0
    0.5488   -0.8838    3.2109 N   0  0  0  0  0  0  0  0  0  0  0  0
   -0.4159    0.0446    2.6829 C   0  0  2  0  0  0  0  0  0  0  0  0
   -0.7551   -0.3867    1.2623 C   0  0  0  0  0  0  0  0  0  0  0  0
   -0.0106   -1.0851    0.5774 O   0  0  0  0  0  0  0  0  0  0  0  0
    0.1168    1.4689    2.7060 C   0  0  0  0  0  0  0  0  0  0  0  0
    1.1183   -1.4145    2.5542 H   0  0  0  0  0  0  0  0  0  0  0  0
   -1.3088   -0.0350    3.3125 H   0  0  0  0  0  0  0  0  0  0  0  0
    1.0116    1.5681    2.0808 H   0  0  0  0  0  0  0  0  0  0  0  0
   -0.6289    2.1775    2.3307 H   0  0  0  0  0  0  0  0  0  0  0  0
    0.3882    1.7670    3.7245 H   0  0  0  0  0  0  0  0  0  0  0  0
   -1.9689    0.1350    0.8298 N   0  0  0  0  0  0  0  0  0  0  0  0
   -2.5039   -0.1183   -0.4830 C   0  0  2  0  0  0  0  0  0  0  0  0
   -2.6945   -1.6232   -0.6381 C   0  0  0  0  0  0  0  0  0  0  0  0
   -2.9783   -2.3629    0.3017 O   0  0  0  0  0  0  0  0  0  0  0  0
   -1.6121    0.4598   -1.5771 C   0  0  0  0  0  0  0  0  0  0  0  0
   -0.3611   -0.2183   -1.6027 O   0  0  0  0  0  0  0  0  0  0  0  0
   -2.5276    0.6894    1.4750 H   0  0  0  0  0  0  0  0  0  0  0  0
   -3.4855    0.3683   -0.5151 H   0  0  0  0  0  0  0  0  0  0  0  0
   -1.4181    1.5234   -1.4053 H   0  0  0  0  0  0  0  0  0  0  0  0
   -2.0825    0.3429   -2.5592 H   0  0  0  0  0  0  0  0  0  0  0  0
   -0.5545   -1.1524   -1.7803 H   0  0  0  0  0  0  0  0  0  0  0  0
   -2.5526   -2.0344   -1.9559 N   0  0  0  0  0  0  0  0  0  0  0  0
   -2.7163   -3.4090   -2.3685 C   0  0  2  0  0  0  0  0  0  0  0  0
   -3.7901   -4.0387   -1.4910 C   0  0  0  0  0  0  0  0  0  0  0  0
   -4.0919   -3.6016   -0.3824 O   0  0  0  0  0  0  0  0  0  0  0  0
   -1.4084   -4.1778   -2.2631 C   0  0  0  0  0  0  0  0  0  0  0  0
   -2.3563   -1.3451   -2.6756 H   0  0  0  0  0  0  0  0  0  0  0  0
   -3.0595   -3.3883   -3.4085 H   0  0  0  0  0  0  0  0  0  0  0  0
   -1.0488   -4.2093   -1.2281 H   0  0  0  0  0  0  0  0  0  0  0  0
   -1.5275   -5.2119   -2.6032 H   0  0  0  0  0  0  0  0  0  0  0  0
   -0.6291   -3.7064   -2.8715 H   0  0  0  0  0  0  0  0  0  0  0  0
   -4.3415   -5.1716   -2.0729 N   0  0  0  0  0  0  0  0  0  0  0  0
   -5.3718   -5.9546   -1.4316 C   0  0  0  0  0  0  0  0  0  0  0  0
   -4.0444   -5.4504   -3.0034 H   0  0  0  0  0  0  0  0  0  0  0  0
   -4.9087   -6.7675   -0.8531 H   0  0  0  0  0  0  0  0  0  0  0  0
   -5.9550   -5.3107   -0.7569 H   0  0  0  0  0  0  0  0  0  0  0  0
   -6.0370   -6.3819   -2.1965 H   0  0  0  0  0  0  0  0  0  0  0  0
  1  3  1  0  0  0  0
  1  7  1  0  0  0  0
  1  2  2  0  0  0  0
 29 30  1  0  0  0  0
 30 38  1  0  0  0  0
 30 31  2  0  0  0  0
  8  9  1  0  0  0  0
  9 17  1  0  0  0  0
  9 10  2  0  0  0  0
 18 19  1  0  0  0  0
 19 28  1  0  0  0  0
 19 20  2  0  0  0  0
 29 32  1  0  0  0  0
  8 11  1  0  0  0  0
 38 39  1  0  0  0  0
 18 21  1  0  0  0  0
 21 22  1  0  0  0  0
 28 29  1  0  0  0  0
  7  8  1  0  0  0  0
 17 18  1  0  0  0  0
  3  4  1  0  0  0  0
  3  5  1  0  0  0  0
  3  6  1  0  0  0  0
 32 35  1  0  0  0  0
 32 36  1  0  0  0  0
 32 37  1  0  0  0  0
 11 14  1  0  0  0  0
 11 15  1  0  0  0  0
 11 16  1  0  0  0  0
 39 41  1  0  0  0  0
 39 42  1  0  0  0  0
 39 43  1  0  0  0  0
 21 25  1  0  0  0  0
 21 26  1  0  0  0  0
 29 34  1  0  0  0  0
  8 13  1  0  0  0  0
 18 24  1  0  0  0  0
 38 40  1  0  0  0  0
  7 12  1  0  0  0  0
 28 33  1  0  0  0  0
 17 23  1  0  0  0  0
 22 27  1  0  0  0  0
M  END
$$$$

  -OEChem-05262214473D

 43 42  0     1  0  0  0  0  0999 V2000
    0.7424   -1.0926    4.5665 C   0  0  0  0  0  0  0  0  0  0  0  0
    0.1409   -0.5364    5.4779 O   0  0  0  0  0  0  0  0  0  0  0  0
    1.7940   -2.1023    4.8871 C   0  0  0  0  0  0  0  0  0  0  0  0
    2.7935   -1.6502    4.9904 H   0  0  0  0  0  0  0  0  0  0  0  0
    1.6064   -2.6156    5.8438 H   0  0  0  0  0  0  0  0  0  0  0  0
    1.9156   -2.9078    4.1453 H   0  0  0  0  0  0  0  0  0  0  0  0
    0.5488   -0.8838    3.2109 N   0  0  0  0  0  0  0  0  0  0  0  0
   -0.4159    0.0446    2.6829 C   0  0  2  0  0  0  0  0  0  0  0  0
   -0.7551   -0.3867    1.2623 C   0  0  0  0  0  0  0  0  0  0  0  0
   -0.0106   -1.0851    0.5774 O   0  0  0  0  0  0  0  0  0  0  0  0
    0.1168    1.4689    2.7060 C   0  0  0  0  0  0  0  0  0  0  0  0
    1.1183   -1.4145    2.5542 H   0  0  0  0  0  0  0  0  0  0  0  0
   -1.3088   -0.0350    3.3125 H   0  0  0  0  0  0  0  0  0  0  0  0
    1.0116    1.5681    2.0808 H   0  0  0  0  0  0  0  0  0  0  0  0
   -0.6289    2.1775    2.3307 H   0  0  0  0  0  0  0  0  0  0  0  0
    0.3882    1.7670    3.7245 H   0  0  0  0  0  0  0  0  0  0  0  0
   -1.9689    0.1350    0.8298 N   0  0  0  0  0  0  0  0  0  0  0  0
   -2.5039   -0.1183   -0.4830 C   0  0  2  0  0  0  0  0  0  0  0  0
   -2.6945   -1.6232   -0.6381 C   0  0  0  0  0  0  0  0  0  0  0  0
   -3.2310   -2.3224    0.2188 O   0  0  0  0  0  0  0  0  0  0  0  0
   -1.6121    0.4598   -1.5771 C   0  0  0  0  0  0  0  0  0  0  0  0
   -0.3611   -0.2183   -1.6027 O   0  0  0  0  0  0  0  0  0  0  0  0
   -2.5276    0.6894    1.4750 H   0  0  0  0  0  0  0  0  0  0  0  0
   -3.4855    0.3683   -0.5151 H   0  0  0  0  0  0  0  0  0  0  0  0
   -1.4181    1.5234   -1.4053 H   0  0  0  0  0  0  0  0  0  0  0  0
   -2.0825    0.3429   -2.5592 H   0  0  0  0  0  0  0  0  0  0  0  0
   -0.5545   -1.1524   -1.7803 H   0  0  0  0  0  0  0  0  0  0  0  0
   -2.2338   -2.0843   -1.8633 N   0  0  0  0  0  0  0  0  0  0  0  0
   -2.3288   -3.4688   -2.2640 C   0  0  2  0  0  0  0  0  0  0  0  0
   -3.6096   -4.0428   -1.6727 C   0  0  0  0  0  0  0  0  0  0  0  0
   -4.1706   -3.5597   -0.6914 O   0  0  0  0  0  0  0  0  0  0  0  0
   -1.1152   -4.2622   -1.8054 C   0  0  0  0  0  0  0  0  0  0  0  0
   -1.8396   -1.4257   -2.5285 H   0  0  0  0  0  0  0  0  0  0  0  0
   -2.3947   -3.4778   -3.3575 H   0  0  0  0  0  0  0  0  0  0  0  0
   -1.0325   -4.2645   -0.7124 H   0  0  0  0  0  0  0  0  0  0  0  0
   -1.1752   -5.3048   -2.1345 H   0  0  0  0  0  0  0  0  0  0  0  0
   -0.1925   -3.8301   -2.2075 H   0  0  0  0  0  0  0  0  0  0  0  0
   -4.0287   -5.1833   -2.3433 N   0  0  0  0  0  0  0  0  0  0  0  0
   -5.2120   -5.9199   -1.9646 C   0  0  0  0  0  0  0  0  0  0  0  0
   -3.5128   -5.5017   -3.1583 H   0  0  0  0  0  0  0  0  0  0  0  0
   -4.9367   -6.7216   -1.2636 H   0  0  0  0  0  0  0  0  0  0  0  0
   -5.9280   -5.2395   -1.4805 H   0  0  0  0  0  0  0  0  0  0  0  0
   -5.6728   -6.3594   -2.8616 H   0  0  0  0  0  0  0  0  0  0  0  0
  1  3  1  0  0  0  0
  1  7  1  0  0  0  0
  1  2  2  0  0  0  0
 29 30  1  0  0  0  0
 30 38  1  0  0  0  0
 30 31  2  0  0  0  0
  8  9  1  0  0  0  0
  9 17  1  0  0  0  0
  9 10  2  0  0  0  0
 18 19  1  0  0  0  0
 19 28  1  0  0  0  0
 19 20  2  0  0  0  0
 29 32  1  0  0  0  0
  8 11  1  0  0  0  0
 38 39  1  0  0  0  0
 18 21  1  0  0  0  0
 21 22  1  0  0  0  0
 28 29  1  0  0  0  0
  7  8  1  0  0  0  0
 17 18  1  0  0  0  0
  3  4  1  0  0  0  0
  3  5  1  0  0  0  0
  3  6  1  0  0  0  0
 32 35  1  0  0  0  0
 32 36  1  0  0  0  0
 32 37  1  0  0  0  0
 11 14  1  0  0  0  0
 11 15  1  0  0  0  0
 11 16  1  0  0  0  0
 39 41  1  0  0  0  0
 39 42  1  0  0  0  0
 39 43  1  0  0  0  0
 21 25  1  0  0  0  0
 21 26  1  0  0  0  0
 29 34  1  0  0  0  0
  8 13  1  0  0  0  0
 18 24  1  0  0  0  0
 38 40  1  0  0  0  0
  7 12  1  0  0  0  0
 28 33  1  0  0  0  0
 17 23  1  0  0  0  0
 22 27  1  0  0  0  0
M  END
$$$$

  -OEChem-05262214473D

 43 42  0     1  0  0  0  0  0999 V2000
    0.7424   -1.0926    4.5665 C   0  0  0  0  0  0  0  0  0  0  0  0
    0.1409   -0.5364    5.4779 O   0  0  0  0  0  0  0  0  0  0  0  0
    1.7940   -2.1023    4.8871 C   0  0  0  0  0  0  0  0  0  0  0  0
    2.7935   -1.6502    4.9904 H   0  0  0  0  0  0  0  0  0  0  0  0
    1.6064   -2.6156    5.8438 H   0  0  0  0  0  0  0  0  0  0  0  0
    1.9156   -2.9078    4.1453 H   0  0  0  0  0  0  0  0  0  0  0  0
    0.5488   -0.8838    3.2109 N   0  0  0  0  0  0  0  0  0  0  0  0
   -0.4159    0.0446    2.6829 C   0  0  2  0  0  0  0  0  0  0  0  0
   -0.7551   -0.3867    1.2623 C   0  0  0  0  0  0  0  0  0  0  0  0
   -0.0106   -1.0851    0.5774 O   0  0  0  0  0  0  0  0  0  0  0  0
    0.1168    1.4689    2.7060 C   0  0  0  0  0  0  0  0  0  0  0  0
    1.1183   -1.4145    2.5542 H   0  0  0  0  0  0  0  0  0  0  0  0
   -1.3088   -0.0350    3.3125 H   0  0  0  0  0  0  0  0  0  0  0  0
    1.0116    1.5681    2.0808 H   0  0  0  0  0  0  0  0  0  0  0  0
   -0.6289    2.1775    2.3307 H   0  0  0  0  0  0  0  0  0  0  0  0
    0.3882    1.7670    3.7245 H   0  0  0  0  0  0  0  0  0  0  0  0
   -1.9689    0.1350    0.8298 N   0  0  0  0  0  0  0  0  0  0  0  0
   -2.5039   -0.1183   -0.4830 C   0  0  2  0  0  0  0  0  0  0  0  0
   -2.6945   -1.6232   -0.6381 C   0  0  0  0  0  0  0  0  0  0  0  0
   -3.4529   -2.2792    0.0728 O   0  0  0  0  0  0  0  0  0  0  0  0
   -1.6121    0.4598   -1.5771 C   0  0  0  0  0  0  0  0  0  0  0  0
   -0.3611   -0.2183   -1.6027 O   0  0  0  0  0  0  0  0  0  0  0  0
   -2.5276    0.6894    1.4750 H   0  0  0  0  0  0  0  0  0  0  0  0
   -3.4855    0.3683   -0.5151 H   0  0  0  0  0  0  0  0  0  0  0  0
   -1.4181    1.5234   -1.4053 H   0  0  0  0  0  0  0  0  0  0  0  0
   -2.0825    0.3429   -2.5592 H   0  0  0  0  0  0  0  0  0  0  0  0
   -0.5545   -1.1524   -1.7803 H   0  0  0  0  0  0  0  0  0  0  0  0
   -1.9510   -2.1379   -1.6908 N   0  0  0  0  0  0  0  0  0  0  0  0
   -1.9829   -3.5334   -2.0623 C   0  0  2  0  0  0  0  0  0  0  0  0
   -3.3890   -4.0574   -1.8020 C   0  0  0  0  0  0  0  0  0  0  0  0
   -4.1667   -3.5273   -1.0113 O   0  0  0  0  0  0  0  0  0  0  0  0
   -0.9511   -4.3365   -1.2856 C   0  0  0  0  0  0  0  0  0  0  0  0
   -1.3802   -1.5124   -2.2517 H   0  0  0  0  0  0  0  0  0  0  0  0
   -1.7680   -3.5800   -3.1355 H   0  0  0  0  0  0  0  0  0  0  0  0
   -1.1500   -4.3016   -0.2082 H   0  0  0  0  0  0  0  0  0  0  0  0
   -0.9570   -5.3887   -1.5888 H   0  0  0  0  0  0  0  0  0  0  0  0
    0.0564   -3.9397   -1.4506 H   0  0  0  0  0  0  0  0  0  0  0  0
   -3.6579   -5.2116   -2.5243 N   0  0  0  0  0  0  0  0  0  0  0  0
   -4.9205   -5.9078   -2.4398 C   0  0  0  0  0  0  0  0  0  0  0  0
   -2.9612   -5.5703   -3.1705 H   0  0  0  0  0  0  0  0  0  0  0  0
   -4.8577   -6.6899   -1.6688 H   0  0  0  0  0  0  0  0  0  0  0  0
   -5.7151   -5.1948   -2.1749 H   0  0  0  0  0  0  0  0  0  0  0  0
   -5.1505   -6.3688   -3.4117 H   0  0  0  0  0  0  0  0  0  0  0  0
  1  3  1  0  0  0  0
  1  7  1  0  0  0  0
  1  2  2  0  0  0  0
 29 30  1  0  0  0  0
 30 38  1  0  0  0  0
 30 31  2  0  0  0  0
  8  9  1  0  0  0  0
  9 17  1  0  0  0  0
  9 10  2  0  0  0  0
 18 19  1  0  0  0  0
 19 28  1  0  0  0  0
 19 20  2  0  0  0  0
 29 32  1  0  0  0  0
  8 11  1  0  0  0  0
 38 39  1  0  0  0  0
 18 21  1  0  0  0  0
 21 22  1  0  0  0  0
 28 29  1  0  0  0  0
  7  8  1  0  0  0  0
 17 18  1  0  0  0  0
  3  4  1  0  0  0  0
  3  5  1  0  0  0  0
  3  6  1  0  0  0  0
 32 35  1  0  0  0  0
 32 36  1  0  0  0  0
 32 37  1  0  0  0  0
 11 14  1  0  0  0  0
 11 15  1  0  0  0  0
 11 16  1  0  0  0  0
 39 41  1  0  0  0  0
 39 42  1  0  0  0  0
 39 43  1  0  0  0  0
 21 25  1  0  0  0  0
 21 26  1  0  0  0  0
 29 34  1  0  0  0  0
  8 13  1  0  0  0  0
 18 24  1  0  0  0  0
 38 40  1  0  0  0  0
  7 12  1  0  0  0  0
 28 33  1  0  0  0  0
 17 23  1  0  0  0  0
 22 27  1  0  0  0  0
M  END
$$$$

  -OEChem-05262214473D

 43 42  0     1  0  0  0  0  0999 V2000
    0.7424   -1.0926    4.5665 C   0  0  0  0  0  0  0  0  0  0  0  0
    0.1409   -0.5364    5.4779 O   0  0  0  0  0  0  0  0  0  0  0  0
    1.7940   -2.1023    4.8871 C   0  0  0  0  0  0  0  0  0  0  0  0
    2.7935   -1.6502    4.9904 H   0  0  0  0  0  0  0  0  0  0  0  0
    1.6064   -2.6156    5.8438 H   0  0  0  0  0  0  0  0  0  0  0  0
    1.9156   -2.9078    4.1453 H   0  0  0  0  0  0  0  0  0  0  0  0
    0.5488   -0.8838    3.2109 N   0  0  0  0  0  0  0  0  0  0  0  0
   -0.4159    0.0446    2.6829 C   0  0  2  0  0  0  0  0  0  0  0  0
   -0.7551   -0.3867    1.2623 C   0  0  0  0  0  0  0  0  0  0  0  0
   -0.0106   -1.0851    0.5774 O   0  0  0  0  0  0  0  0  0  0  0  0
    0.1168    1.4689    2.7060 C   0  0  0  0  0  0  0  0  0  0  0  0
    1.1183   -1.4145    2.5542 H   0  0  0  0  0  0  0  0  0  0  0  0
   -1.3088   -0.0350    3.3125 H   0  0  0  0  0  0  0  0  0  0  0  0
    1.0116    1.5681    2.0808 H   0  0  0  0  0  0  0  0  0  0  0  0
   -0.6289    2.1775    2.3307 H   0  0  0  0  0  0  0  0  0  0  0  0
    0.3882    1.7670    3.7245 H   0  0  0  0  0  0  0  0  0  0  0  0
   -1.9689    0.1350    0.8298 N   0  0  0  0  0  0  0  0  0  0  0  0
   -2.5039   -0.1183   -0.4830 C   0  0  2  0  0  0  0  0  0  0  0  0
   -2.6945   -1.6232   -0.6381 C   0  0  0  0  0  0  0  0  0  0  0  0
   -3.6288   -2.2364   -0.1262 O   0  0  0  0  0  0  0  0  0  0  0  0
   -1.6121    0.4598   -1.5771 C   0  0  0  0  0  0  0  0  0  0  0  0
   -0.3611   -0.2183   -1.6027 O   0  0  0  0  0  0  0  0  0  0  0  0
   -2.5276    0.6894    1.4750 H   0  0  0  0  0  0  0  0  0  0  0  0
   -3.4855    0.3683   -0.5151 H   0  0  0  0  0  0  0  0  0  0  0  0
   -1.4181    1.5234   -1.4053 H   0  0  0  0  0  0  0  0  0  0  0  0
   -2.0825    0.3429   -2.5592 H   0  0  0  0  0  0  0  0  0  0  0  0
   -0.5545   -1.1524   -1.7803 H   0  0  0  0  0  0  0  0  0  0  0  0
   -1.7232   -2.1916   -1.4502 N   0  0  0  0  0  0  0  0  0  0  0  0
   -1.7019   -3.5984   -1.7769 C   0  0  2  0  0  0  0  0  0  0  0  0
   -3.1432   -4.0815   -1.8700 C   0  0  0  0  0  0  0  0  0  0  0  0
   -4.0803   -3.5063   -1.3203 O   0  0  0  0  0  0  0  0  0  0  0  0
   -0.9273   -4.3959   -0.7392 C   0  0  0  0  0  0  0  0  0  0  0  0
   -1.0094   -1.5993   -1.8642 H   0  0  0  0  0  0  0  0  0  0  0  0
   -1.2220   -3.6881   -2.7576 H   0  0  0  0  0  0  0  0  0  0  0  0
   -1.3932   -4.3181    0.2499 H   0  0  0  0  0  0  0  0  0  0  0  0
   -0.8878   -5.4578   -1.0033 H   0  0  0  0  0  0  0  0  0  0  0  0
    0.1006   -4.0276   -0.6523 H   0  0  0  0  0  0  0  0  0  0  0  0
   -3.2542   -5.2546   -2.6034 N   0  0  0  0  0  0  0  0  0  0  0  0
   -4.5172   -5.9192   -2.8247 C   0  0  0  0  0  0  0  0  0  0  0  0
   -2.4270   -5.6515   -3.0392 H   0  0  0  0  0  0  0  0  0  0  0  0
   -4.6770   -6.6744   -2.0410 H   0  0  0  0  0  0  0  0  0  0  0  0
   -5.3310   -5.1798   -2.7926 H   0  0  0  0  0  0  0  0  0  0  0  0
   -4.5058   -6.4095   -3.8093 H   0  0  0  0  0  0  0  0  0  0  0  0
  1  3  1  0  0  0  0
  1  7  1  0  0  0  0
  1  2  2  0  0  0  0
 29 30  1  0  0  0  0
 30 38  1  0  0  0  0
 30 31  2  0  0  0  0
  8  9  1  0  0  0  0
  9 17  1  0  0  0  0
  9 10  2  0  0  0  0
 18 19  1  0  0  0  0
 19 28  1  0  0  0  0
 19 20  2  0  0  0  0
 29 32  1  0  0  0  0
  8 11  1  0  0  0  0
 38 39  1  0  0  0  0
 18 21  1  0  0  0  0
 21 22  1  0  0  0  0
 28 29  1  0  0  0  0
  7  8  1  0  0  0  0
 17 18  1  0  0  0  0
  3  4  1  0  0  0  0
  3  5  1  0  0  0  0
  3  6  1  0  0  0  0
 32 35  1  0  0  0  0
 32 36  1  0  0  0  0
 32 37  1  0  0  0  0
 11 14  1  0  0  0  0
 11 15  1  0  0  0  0
 11 16  1  0  0  0  0
 39 41  1  0  0  0  0
 39 42  1  0  0  0  0
 39 43  1  0  0  0  0
 21 25  1  0  0  0  0
 21 26  1  0  0  0  0
 29 34  1  0  0  0  0
  8 13  1  0  0  0  0
 18 24  1  0  0  0  0
 38 40  1  0  0  0  0
  7 12  1  0  0  0  0
 28 33  1  0  0  0  0
 17 23  1  0  0  0  0
 22 27  1  0  0  0  0
M  END
$$$$

  -OEChem-05262214473D

 43 42  0     1  0  0  0  0  0999 V2000
    0.7424   -1.0926    4.5665 C   0  0  0  0  0  0  0  0  0  0  0  0
    0.1409   -0.5364    5.4779 O   0  0  0  0  0  0  0  0  0  0  0  0
    1.7940   -2.1023    4.8871 C   0  0  0  0  0  0  0  0  0  0  0  0
    2.7935   -1.6502    4.9904 H   0  0  0  0  0  0  0  0  0  0  0  0
    1.6064   -2.6156    5.8438 H   0  0  0  0  0  0  0  0  0  0  0  0
    1.9156   -2.9078    4.1453 H   0  0  0  0  0  0  0  0  0  0  0  0
    0.5488   -0.8838    3.2109 N   0  0  0  0  0  0  0  0  0  0  0  0
   -0.4159    0.0446    2.6829 C   0  0  2  0  0  0  0  0  0  0  0  0
   -0.7551   -0.3867    1.2623 C   0  0  0  0  0  0  0  0  0  0  0  0
   -0.0106   -1.0851    0.5774 O   0  0  0  0  0  0  0  0  0  0  0  0
    0.1168    1.4689    2.7060 C   0  0  0  0  0  0  0  0  0  0  0  0
    1.1183   -1.4145    2.5542 H   0  0  0  0  0  0  0  0  0  0  0  0
   -1.3088   -0.0350    3.3125 H   0  0  0  0  0  0  0  0  0  0  0  0
    1.0116    1.5681    2.0808 H   0  0  0  0  0  0  0  0  0  0  0  0
   -0.6289    2.1775    2.3307 H   0  0  0  0  0  0  0  0  0  0  0  0
    0.3882    1.7670    3.7245 H   0  0  0  0  0  0  0  0  0  0  0  0
   -1.9689    0.1350    0.8298 N   0  0  0  0  0  0  0  0  0  0  0  0
   -2.5039   -0.1183   -0.4830 C   0  0  2  0  0  0  0  0  0  0  0  0
   -2.6945   -1.6232   -0.6381 C   0  0  0  0  0  0  0  0  0  0  0  0
   -3.7467   -2.1969   -0.3648 O   0  0  0  0  0  0  0  0  0  0  0  0
   -1.6121    0.4598   -1.5771 C   0  0  0  0  0  0  0  0  0  0  0  0
   -0.3611   -0.2183   -1.6027 O   0  0  0  0  0  0  0  0  0  0  0  0
   -2.5276    0.6894    1.4750 H   0  0  0  0  0  0  0  0  0  0  0  0
   -3.4855    0.3683   -0.5151 H   0  0  0  0  0  0  0  0  0  0  0  0
   -1.4181    1.5234   -1.4053 H   0  0  0  0  0  0  0  0  0  0  0  0
   -2.0825    0.3429   -2.5592 H   0  0  0  0  0  0  0  0  0  0  0  0
   -0.5545   -1.1524   -1.7803 H   0  0  0  0  0  0  0  0  0  0  0  0
   -1.5661   -2.2416   -1.1578 N   0  0  0  0  0  0  0  0  0  0  0  0
   -1.5051   -3.6594   -1.4274 C   0  0  2  0  0  0  0  0  0  0  0  0
   -2.8891   -4.1135   -1.8722 C   0  0  0  0  0  0  0  0  0  0  0  0
   -3.9174   -3.4984   -1.5974 O   0  0  0  0  0  0  0  0  0  0  0  0
   -1.0455   -4.4361   -0.2035 C   0  0  0  0  0  0  0  0  0  0  0  0
   -0.7526   -1.6805   -1.3924 H   0  0  0  0  0  0  0  0  0  0  0  0
   -0.7940   -3.7947   -2.2496 H   0  0  0  0  0  0  0  0  0  0  0  0
   -1.7456   -4.3127    0.6309 H   0  0  0  0  0  0  0  0  0  0  0  0
   -0.9724   -5.5075   -0.4178 H   0  0  0  0  0  0  0  0  0  0  0  0
   -0.0630   -4.0878    0.1329 H   0  0  0  0  0  0  0  0  0  0  0  0
   -2.8451   -5.3093   -2.5753 N   0  0  0  0  0  0  0  0  0  0  0  0
   -4.0297   -5.9532   -3.0931 C   0  0  0  0  0  0  0  0  0  0  0  0
   -1.9467   -5.7397   -2.7733 H   0  0  0  0  0  0  0  0  0  0  0  0
   -4.4071   -6.6762   -2.3549 H   0  0  0  0  0  0  0  0  0  0  0  0
   -4.8018   -5.1954   -3.2917 H   0  0  0  0  0  0  0  0  0  0  0  0
   -3.7826   -6.4786   -4.0274 H   0  0  0  0  0  0  0  0  0  0  0  0
  1  3  1  0  0  0  0
  1  7  1  0  0  0  0
  1  2  2  0  0  0  0
 29 30  1  0  0  0  0
 30 38  1  0  0  0  0
 30 31  2  0  0  0  0
  8  9  1  0  0  0  0
  9 17  1  0  0  0  0
  9 10  2  0  0  0  0
 18 19  1  0  0  0  0
 19 28  1  0  0  0  0
 19 20  2  0  0  0  0
 29 32  1  0  0  0  0
  8 11  1  0  0  0  0
 38 39  1  0  0  0  0
 18 21  1  0  0  0  0
 21 22  1  0  0  0  0
 28 29  1  0  0  0  0
  7  8  1  0  0  0  0
 17 18  1  0  0  0  0
  3  4  1  0  0  0  0
  3  5  1  0  0  0  0
  3  6  1  0  0  0  0
 32 35  1  0  0  0  0
 32 36  1  0  0  0  0
 32 37  1  0  0  0  0
 11 14  1  0  0  0  0
 11 15  1  0  0  0  0
 11 16  1  0  0  0  0
 39 41  1  0  0  0  0
 39 42  1  0  0  0  0
 39 43  1  0  0  0  0
 21 25  1  0  0  0  0
 21 26  1  0  0  0  0
 29 34  1  0  0  0  0
  8 13  1  0  0  0  0
 18 24  1  0  0  0  0
 38 40  1  0  0  0  0
  7 12  1  0  0  0  0
 28 33  1  0  0  0  0
 17 23  1  0  0  0  0
 22 27  1  0  0  0  0
M  END
$$$$

  -OEChem-05262214473D

 43 42  0     1  0  0  0  0  0999 V2000
    0.7424   -1.0926    4.5665 C   0  0  0  0  0  0  0  0  0  0  0  0
    0.1409   -0.5364    5.4779 O   0  0  0  0  0  0  0  0  0  0  0  0
    1.7940   -2.1023    4.8871 C   0  0  0  0  0  0  0  0  0  0  0  0
    2.7935   -1.6502    4.9904 H   0  0  0  0  0  0  0  0  0  0  0  0
    1.6064   -2.6156    5.8438 H   0  0  0  0  0  0  0  0  0  0  0  0
    1.9156   -2.9078    4.1453 H   0  0  0  0  0  0  0  0  0  0  0  0
    0.5488   -0.8838    3.2109 N   0  0  0  0  0  0  0  0  0  0  0  0
   -0.4159    0.0446    2.6829 C   0  0  2  0  0  0  0  0  0  0  0  0
   -0.7551   -0.3867    1.2623 C   0  0  0  0  0  0  0  0  0  0  0  0
   -0.0106   -1.0851    0.5774 O   0  0  0  0  0  0  0  0  0  0  0  0
    0.1168    1.4689    2.7060 C   0  0  0  0  0  0  0  0  0  0  0  0
    1.1183   -1.4145    2.5542 H   0  0  0  0  0  0  0  0  0  0  0  0
   -1.3088   -0.0350    3.3125 H   0  0  0  0  0  0  0  0  0  0  0  0
    1.0116    1.5681    2.0808 H   0  0  0  0  0  0  0  0  0  0  0  0
   -0.6289    2.1775    2.3307 H   0  0  0  0  0  0  0  0  0  0  0  0
    0.3882    1.7670    3.7245 H   0  0  0  0  0  0  0  0  0  0  0  0
   -1.9689    0.1350    0.8298 N   0  0  0  0  0  0  0  0  0  0  0  0
   -2.5039   -0.1183   -0.4830 C   0  0  2  0  0  0  0  0  0  0  0  0
   -2.6945   -1.6232   -0.6381 C   0  0  0  0  0  0  0  0  0  0  0  0
   -3.7986   -2.1633   -0.6267 O   0  0  0  0  0  0  0  0  0  0  0  0
   -1.6121    0.4598   -1.5771 C   0  0  0  0  0  0  0  0  0  0  0  0
   -0.3611   -0.2183   -1.6027 O   0  0  0  0  0  0  0  0  0  0  0  0
   -2.5276    0.6894    1.4750 H   0  0  0  0  0  0  0  0  0  0  0  0
   -3.4855    0.3683   -0.5151 H   0  0  0  0  0  0  0  0  0  0  0  0
   -1.4181    1.5234   -1.4053 H   0  0  0  0  0  0  0  0  0  0  0  0
   -2.0825    0.3429   -2.5592 H   0  0  0  0  0  0  0  0  0  0  0  0
   -0.5545   -1.1524   -1.7803 H   0  0  0  0  0  0  0  0  0  0  0  0
   -1.4903   -2.2846   -0.8337 N   0  0  0  0  0  0  0  0  0  0  0  0
   -1.4059   -3.7121   -1.0376 C   0  0  2  0  0  0  0  0  0  0  0  0
   -2.6439   -4.1511   -1.8084 C   0  0  0  0  0  0  0  0  0  0  0  0
   -3.6890   -3.5040   -1.8238 O   0  0  0  0  0  0  0  0  0  0  0  0
   -1.2976   -4.4546    0.2852 C   0  0  0  0  0  0  0  0  0  0  0  0
   -0.6271   -1.7504   -0.8684 H   0  0  0  0  0  0  0  0  0  0  0  0
   -0.5131   -3.8925   -1.6462 H   0  0  0  0  0  0  0  0  0  0  0  0
   -2.1832   -4.2859    0.9086 H   0  0  0  0  0  0  0  0  0  0  0  0
   -1.2049   -5.5343    0.1277 H   0  0  0  0  0  0  0  0  0  0  0  0
   -0.4231   -4.1163    0.8515 H   0  0  0  0  0  0  0  0  0  0  0  0
   -2.4587   -5.3720   -2.4419 N   0  0  0  0  0  0  0  0  0  0  0  0
   -3.4911   -6.0077   -3.2267 C   0  0  0  0  0  0  0  0  0  0  0  0
   -1.5530   -5.8290   -2.3909 H   0  0  0  0  0  0  0  0  0  0  0  0
   -4.0661   -6.6952   -2.5891 H   0  0  0  0  0  0  0  0  0  0  0  0
   -4.1635   -5.2405   -3.6381 H   0  0  0  0  0  0  0  0  0  0  0  0
   -3.0301   -6.5714   -4.0511 H   0  0  0  0  0  0  0  0  0  0  0  0
  1  3  1  0  0  0  0
  1  7  1  0  0  0  0
  1  2  2  0  0  0  0
 29 30  1  0  0  0  0
 30 38  1  0  0  0  0
 30 31  2  0  0  0  0
  8  9  1  0  0  0  0
  9 17  1  0  0  0  0
  9 10  2  0  0  0  0
 18 19  1  0  0  0  0
 19 28  1  0  0  0  0
 19 20  2  0  0  0  0
 29 32  1  0  0  0  0
  8 11  1  0  0  0  0
 38 39  1  0  0  0  0
 18 21  1  0  0  0  0
 21 22  1  0  0  0  0
 28 29  1  0  0  0  0
  7  8  1  0  0  0  0
 17 18  1  0  0  0  0
  3  4  1  0  0  0  0
  3  5  1  0  0  0  0
  3  6  1  0  0  0  0
 32 35  1  0  0  0  0
 32 36  1  0  0  0  0
 32 37  1  0  0  0  0
 11 14  1  0  0  0  0
 11 15  1  0  0  0  0
 11 16  1  0  0  0  0
 39 41  1  0  0  0  0
 39 42  1  0  0  0  0
 39 43  1  0  0  0  0
 21 25  1  0  0  0  0
 21 26  1  0  0  0  0
 29 34  1  0  0  0  0
  8 13  1  0  0  0  0
 18 24  1  0  0  0  0
 38 40  1  0  0  0  0
  7 12  1  0  0  0  0
 28 33  1  0  0  0  0
 17 23  1  0  0  0  0
 22 27  1  0  0  0  0
M  END
$$$$

  -OEChem-05262214473D

 43 42  0     1  0  0  0  0  0999 V2000
    0.7424   -1.0926    4.5665 C   0  0  0  0  0  0  0  0  0  0  0  0
    0.1409   -0.5364    5.4779 O   0  0  0  0  0  0  0  0  0  0  0  0
    1.7940   -2.1023    4.8871 C   0  0  0  0  0  0  0  0  0  0  0  0
    2.7935   -1.6502    4.9904 H   0  0  0  0  0  0  0  0  0  0  0  0
    1.6064   -2.6156    5.8438 H   0  0  0  0  0  0  0  0  0  0  0  0
    1.9156   -2.9078    4.1453 H   0  0  0  0  0  0  0  0  0  0  0  0
    0.5488   -0.8838    3.2109 N   0  0  0  0  0  0  0  0  0  0  0  0
   -0.4159    0.0446    2.6829 C   0  0  2  0  0  0  0  0  0  0  0  0
   -0.7551   -0.3867    1.2623 C   0  0  0  0  0  0  0  0  0  0  0  0
   -0.0106   -1.0851    0.5774 O   0  0  0  0  0  0  0  0  0  0  0  0
    0.1168    1.4689    2.7060 C   0  0  0  0  0  0  0  0  0  0  0  0
    1.1183   -1.4145    2.5542 H   0  0  0  0  0  0  0  0  0  0  0  0
   -1.3088   -0.0350    3.3125 H   0  0  0  0  0  0  0  0  0  0  0  0
    1.0116    1.5681    2.0808 H   0  0  0  0  0  0  0  0  0  0  0  0
   -0.6289    2.1775    2.3307 H   0  0  0  0  0  0  0  0  0  0  0  0
    0.3882    1.7670    3.7245 H   0  0  0  0  0  0  0  0  0  0  0  0
   -1.9689    0.1350    0.8298 N   0  0  0  0  0  0  0  0  0  0  0  0
   -2.5039   -0.1183   -0.4830 C   0  0  2  0  0  0  0  0  0  0  0  0
   -2.6945   -1.6232   -0.6381 C   0  0  0  0  0  0  0  0  0  0  0  0
   -3.7810   -2.1380   -0.8940 O   0  0  0  0  0  0  0  0  0  0  0  0
   -1.6121    0.4598   -1.5771 C   0  0  0  0  0  0  0  0  0  0  0  0
   -0.3611   -0.2183   -1.6027 O   0  0  0  0  0  0  0  0  0  0  0  0
   -2.5276    0.6894    1.4750 H   0  0  0  0  0  0  0  0  0  0  0  0
   -3.4855    0.3683   -0.5151 H   0  0  0  0  0  0  0  0  0  0  0  0
   -1.4181    1.5234   -1.4053 H   0  0  0  0  0  0  0  0  0  0  0  0
   -2.0825    0.3429   -2.5592 H   0  0  0  0  0  0  0  0  0  0  0  0
   -0.5545   -1.1524   -1.7803 H   0  0  0  0  0  0  0  0  0  0  0  0
   -1.5010   -2.3177   -0.4999 N   0  0  0  0  0  0  0  0  0  0  0  0
   -1.4111   -3.7531   -0.6340 C   0  0  2  0  0  0  0  0  0  0  0  0
   -2.4244   -4.1918   -1.6829 C   0  0  0  0  0  0  0  0  0  0  0  0
   -3.4107   -3.5227   -1.9839 O   0  0  0  0  0  0  0  0  0  0  0  0
   -1.6663   -4.4500    0.6933 C   0  0  0  0  0  0  0  0  0  0  0  0
   -0.6416   -1.8042   -0.3280 H   0  0  0  0  0  0  0  0  0  0  0  0
   -0.3985   -3.9748   -0.9884 H   0  0  0  0  0  0  0  0  0  0  0  0
   -2.6761   -4.2396    1.0643 H   0  0  0  0  0  0  0  0  0  0  0  0
   -1.5696   -5.5364    0.5961 H   0  0  0  0  0  0  0  0  0  0  0  0
   -0.9553   -4.1111    1.4545 H   0  0  0  0  0  0  0  0  0  0  0  0
   -2.1211   -5.4384   -2.2123 N   0  0  0  0  0  0  0  0  0  0  0  0
   -2.9382   -6.0787   -3.2165 C   0  0  0  0  0  0  0  0  0  0  0  0
   -1.2728   -5.9132   -1.9181 H   0  0  0  0  0  0  0  0  0  0  0  0
   -3.6775   -6.7302   -2.7275 H   0  0  0  0  0  0  0  0  0  0  0  0
   -3.4597   -5.3120   -3.8082 H   0  0  0  0  0  0  0  0  0  0  0  0
   -2.2996   -6.6817   -3.8788 H   0  0  0  0  0  0  0  0  0  0  0  0
  1  3  1  0  0  0  0
  1  7  1  0  0  0  0
  1  2  2  0  0  0  0
 29 30  1  0  0  0  0
 30 38  1  0  0  0  0
 30 31  2  0  0  0  0
  8  9  1  0  0  0  0
  9 17  1  0  0  0  0
  9 10  2  0  0  0  0
 18 19  1  0  0  0  0
 19 28  1  0  0  0  0
 19 20  2  0  0  0  0
 29 32  1  0  0  0  0
  8 11  1  0  0  0  0
 38 39  1  0  0  0  0
 18 21  1  0  0  0  0
 21 22  1  0  0  0  0
 28 29  1  0  0  0  0
  7  8  1  0  0  0  0
 17 18  1  0  0  0  0
  3  4  1  0  0  0  0
  3  5  1  0  0  0  0
  3  6  1  0  0  0  0
 32 35  1  0  0  0  0
 32 36  1  0  0  0  0
 32 37  1  0  0  0  0
 11 14  1  0  0  0  0
 11 15  1  0  0  0  0
 11 16  1  0  0  0  0
 39 41  1  0  0  0  0
 39 42  1  0  0  0  0
 39 43  1  0  0  0  0
 21 25  1  0  0  0  0
 21 26  1  0  0  0  0
 29 34  1  0  0  0  0
  8 13  1  0  0  0  0
 18 24  1  0  0  0  0
 38 40  1  0  0  0  0
  7 12  1  0  0  0  0
 28 33  1  0  0  0  0
 17 23  1  0  0  0  0
 22 27  1  0  0  0  0
M  END
$$$$

  -OEChem-05262214473D

 43 42  0     1  0  0  0  0  0999 V2000
    0.7424   -1.0926    4.5665 C   0  0  0  0  0  0  0  0  0  0  0  0
    0.1409   -0.5364    5.4779 O   0  0  0  0  0  0  0  0  0  0  0  0
    1.7940   -2.1023    4.8871 C   0  0  0  0  0  0  0  0  0  0  0  0
    2.7935   -1.6502    4.9904 H   0  0  0  0  0  0  0  0  0  0  0  0
    1.6064   -2.6156    5.8438 H   0  0  0  0  0  0  0  0  0  0  0  0
    1.9156   -2.9078    4.1453 H   0  0  0  0  0  0  0  0  0  0  0  0
    0.5488   -0.8838    3.2109 N   0  0  0  0  0  0  0  0  0  0  0  0
   -0.4159    0.0446    2.6829 C   0  0  2  0  0  0  0  0  0  0  0  0
   -0.7551   -0.3867    1.2623 C   0  0  0  0  0  0  0  0  0  0  0  0
   -0.0106   -1.0851    0.5774 O   0  0  0  0  0  0  0  0  0  0  0  0
    0.1168    1.4689    2.7060 C   0  0  0  0  0  0  0  0  0  0  0  0
    1.1183   -1.4145    2.5542 H   0  0  0  0  0  0  0  0  0  0  0  0
   -1.3088   -0.0350    3.3125 H   0  0  0  0  0  0  0  0  0  0  0  0
    1.0116    1.5681    2.0808 H   0  0  0  0  0  0  0  0  0  0  0  0
   -0.6289    2.1775    2.3307 H   0  0  0  0  0  0  0  0  0  0  0  0
    0.3882    1.7670    3.7245 H   0  0  0  0  0  0  0  0  0  0  0  0
   -1.9689    0.1350    0.8298 N   0  0  0  0  0  0  0  0  0  0  0  0
   -2.5039   -0.1183   -0.4830 C   0  0  2  0  0  0  0  0  0  0  0  0
   -2.6945   -1.6232   -0.6381 C   0  0  0  0  0  0  0  0  0  0  0  0
   -3.6950   -2.1227   -1.1485 O   0  0  0  0  0  0  0  0  0  0  0  0
   -1.6121    0.4598   -1.5771 C   0  0  0  0  0  0  0  0  0  0  0  0
   -0.3611   -0.2183   -1.6027 O   0  0  0  0  0  0  0  0  0  0  0  0
   -2.5276    0.6894    1.4750 H   0  0  0  0  0  0  0  0  0  0  0  0
   -3.4855    0.3683   -0.5151 H   0  0  0  0  0  0  0  0  0  0  0  0
   -1.4181    1.5234   -1.4053 H   0  0  0  0  0  0  0  0  0  0  0  0
   -2.0825    0.3429   -2.5592 H   0  0  0  0  0  0  0  0  0  0  0  0
   -0.5545   -1.1524   -1.7803 H   0  0  0  0  0  0  0  0  0  0  0  0
   -1.5975   -2.3385   -0.1791 N   0  0  0  0  0  0  0  0  0  0  0  0
   -1.5202   -3.7795   -0.2442 C   0  0  2  0  0  0  0  0  0  0  0  0
   -2.2455   -4.2329   -1.5043 C   0  0  0  0  0  0  0  0  0  0  0  0
   -3.1015   -3.5533   -2.0668 O   0  0  0  0  0  0  0  0  0  0  0  0
   -2.1267   -4.4226    0.9933 C   0  0  0  0  0  0  0  0  0  0  0  0
   -0.7951   -1.8384    0.1920 H   0  0  0  0  0  0  0  0  0  0  0  0
   -0.4580   -4.0360   -0.3212 H   0  0  0  0  0  0  0  0  0  0  0  0
   -3.1907   -4.1768    1.0873 H   0  0  0  0  0  0  0  0  0  0  0  0
   -2.0416   -5.5137    0.9555 H   0  0  0  0  0  0  0  0  0  0  0  0
   -1.6232   -4.0725    1.9009 H   0  0  0  0  0  0  0  0  0  0  0  0
   -1.8554   -5.5040   -1.9022 N   0  0  0  0  0  0  0  0  0  0  0  0
   -2.4086   -6.1616   -3.0630 C   0  0  0  0  0  0  0  0  0  0  0  0
   -1.1251   -5.9867   -1.3871 H   0  0  0  0  0  0  0  0  0  0  0  0
   -3.2677   -6.7786   -2.7609 H   0  0  0  0  0  0  0  0  0  0  0  0
   -2.7383   -5.4052   -3.7904 H   0  0  0  0  0  0  0  0  0  0  0  0
   -1.6409   -6.8018   -3.5222 H   0  0  0  0  0  0  0  0  0  0  0  0
  1  3  1  0  0  0  0
  1  7  1  0  0  0  0
  1  2  2  0  0  0  0
 29 30  1  0  0  0  0
 30 38  1  0  0  0  0
 30 31  2  0  0  0  0
  8  9  1  0  0  0  0
  9 17  1  0  0  0  0
  9 10  2  0  0  0  0
 18 19  1  0  0  0  0
 19 28  1  0  0  0  0
 19 20  2  0  0  0  0
 29 32  1  0  0  0  0
  8 11  1  0  0  0  0
 38 39  1  0  0  0  0
 18 21  1  0  0  0  0
 21 22  1  0  0  0  0
 28 29  1  0  0  0  0
  7  8  1  0  0  0  0
 17 18  1  0  0  0  0
  3  4  1  0  0  0  0
  3  5  1  0  0  0  0
  3  6  1  0  0  0  0
 32 35  1  0  0  0  0
 32 36  1  0  0  0  0
 32 37  1  0  0  0  0
 11 14  1  0  0  0  0
 11 15  1  0  0  0  0
 11 16  1  0  0  0  0
 39 41  1  0  0  0  0
 39 42  1  0  0  0  0
 39 43  1  0  0  0  0
 21 25  1  0  0  0  0
 21 26  1  0  0  0  0
 29 34  1  0  0  0  0
  8 13  1  0  0  0  0
 18 24  1  0  0  0  0
 38 40  1  0  0  0  0
  7 12  1  0  0  0  0
 28 33  1  0  0  0  0
 17 23  1  0  0  0  0
 22 27  1  0  0  0  0
M  END
$$$$

  -OEChem-05262214473D

 43 42  0     1  0  0  0  0  0999 V2000
    0.7424   -1.0926    4.5665 C   0  0  0  0  0  0  0  0  0  0  0  0
    0.1409   -0.5364    5.4779 O   0  0  0  0  0  0  0  0  0  0  0  0
    1.7940   -2.1023    4.8871 C   0  0  0  0  0  0  0  0  0  0  0  0
    2.7935   -1.6502    4.9904 H   0  0  0  0  0  0  0  0  0  0  0  0
    1.6064   -2.6156    5.8438 H   0  0  0  0  0  0  0  0  0  0  0  0
    1.9156   -2.9078    4.1453 H   0  0  0  0  0  0  0  0  0  0  0  0
    0.5488   -0.8838    3.2109 N   0  0  0  0  0  0  0  0  0  0  0  0
   -0.4159    0.0446    2.6829 C   0  0  2  0  0  0  0  0  0  0  0  0
   -0.7551   -0.3867    1.2623 C   0  0  0  0  0  0  0  0  0  0  0  0
   -0.0106   -1.0851    0.5774 O   0  0  0  0  0  0  0  0  0  0  0  0
    0.1168    1.4689    2.7060 C   0  0  0  0  0  0  0  0  0  0  0  0
    1.1183   -1.4145    2.5542 H   0  0  0  0  0  0  0  0  0  0  0  0
   -1.3088   -0.0350    3.3125 H   0  0  0  0  0  0  0  0  0  0  0  0
    1.0116    1.5681    2.0808 H   0  0  0  0  0  0  0  0  0  0  0  0
   -0.6289    2.1775    2.3307 H   0  0  0  0  0  0  0  0  0  0  0  0
    0.3882    1.7670    3.7245 H   0  0  0  0  0  0  0  0  0  0  0  0
   -1.9689    0.1350    0.8298 N   0  0  0  0  0  0  0  0  0  0  0  0
   -2.5039   -0.1183   -0.4830 C   0  0  2  0  0  0  0  0  0  0  0  0
   -2.6945   -1.6232   -0.6381 C   0  0  0  0  0  0  0  0  0  0  0  0
   -3.5466   -2.1183   -1.3729 O   0  0  0  0  0  0  0  0  0  0  0  0
   -1.6121    0.4598   -1.5771 C   0  0  0  0  0  0  0  0  0  0  0  0
   -0.3611   -0.2183   -1.6027 O   0  0  0  0  0  0  0  0  0  0  0  0
   -2.5276    0.6894    1.4750 H   0  0  0  0  0  0  0  0  0  0  0  0
   -3.4855    0.3683   -0.5151 H   0  0  0  0  0  0  0  0  0  0  0  0
   -1.4181    1.5234   -1.4053 H   0  0  0  0  0  0  0  0  0  0  0  0
   -2.0825    0.3429   -2.5592 H   0  0  0  0  0  0  0  0  0  0  0  0
   -0.5545   -1.1524   -1.7803 H   0  0  0  0  0  0  0  0  0  0  0  0
   -1.7732   -2.3457    0.1068 N   0  0  0  0  0  0  0  0  0  0  0  0
   -1.7259   -3.7895    0.1054 C   0  0  2  0  0  0  0  0  0  0  0  0
   -2.1194   -4.2715   -1.2847 C   0  0  0  0  0  0  0  0  0  0  0  0
   -2.7825   -3.5937   -2.0670 O   0  0  0  0  0  0  0  0  0  0  0  0
   -2.6472   -4.3743    1.1645 C   0  0  0  0  0  0  0  0  0  0  0  0
   -1.0771   -1.8506    0.6562 H   0  0  0  0  0  0  0  0  0  0  0  0
   -0.6875   -4.0721    0.3102 H   0  0  0  0  0  0  0  0  0  0  0  0
   -3.6920   -4.1018    0.9760 H   0  0  0  0  0  0  0  0  0  0  0  0
   -2.5887   -5.4677    1.1813 H   0  0  0  0  0  0  0  0  0  0  0  0
   -2.3814   -4.0032    2.1602 H   0  0  0  0  0  0  0  0  0  0  0  0
   -1.6797   -5.5643   -1.5326 N   0  0  0  0  0  0  0  0  0  0  0  0
   -1.9384   -6.2507   -2.7768 C   0  0  0  0  0  0  0  0  0  0  0  0
   -1.1200   -6.0443   -0.8341 H   0  0  0  0  0  0  0  0  0  0  0  0
   -2.8646   -6.8373   -2.6869 H   0  0  0  0  0  0  0  0  0  0  0  0
   -2.0485   -5.5137   -3.5860 H   0  0  0  0  0  0  0  0  0  0  0  0
   -1.0990   -6.9237   -3.0056 H   0  0  0  0  0  0  0  0  0  0  0  0
  1  3  1  0  0  0  0
  1  7  1  0  0  0  0
  1  2  2  0  0  0  0
 29 30  1  0  0  0  0
 30 38  1  0  0  0  0
 30 31  2  0  0  0  0
  8  9  1  0  0  0  0
  9 17  1  0  0  0  0
  9 10  2  0  0  0  0
 18 19  1  0  0  0  0
 19 28  1  0  0  0  0
 19 20  2  0  0  0  0
 29 32  1  0  0  0  0
  8 11  1  0  0  0  0
 38 39  1  0  0  0  0
 18 21  1  0  0  0  0
 21 22  1  0  0  0  0
 28 29  1  0  0  0  0
  7  8  1  0  0  0  0
 17 18  1  0  0  0  0
  3  4  1  0  0  0  0
  3  5  1  0  0  0  0
  3  6  1  0  0  0  0
 32 35  1  0  0  0  0
 32 36  1  0  0  0  0
 32 37  1  0  0  0  0
 11 14  1  0  0  0  0
 11 15  1  0  0  0  0
 11 16  1  0  0  0  0
 39 41  1  0  0  0  0
 39 42  1  0  0  0  0
 39 43  1  0  0  0  0
 21 25  1  0  0  0  0
 21 26  1  0  0  0  0
 29 34  1  0  0  0  0
  8 13  1  0  0  0  0
 18 24  1  0  0  0  0
 38 40  1  0  0  0  0
  7 12  1  0  0  0  0
 28 33  1  0  0  0  0
 17 23  1  0  0  0  0
 22 27  1  0  0  0  0
M  END
$$$$

  -OEChem-05262214473D

 43 42  0     1  0  0  0  0  0999 V2000
    0.7424   -1.0926    4.5665 C   0  0  0  0  0  0  0  0  0  0  0  0
    0.1409   -0.5364    5.4779 O   0  0  0  0  0  0  0  0  0  0  0  0
    1.7940   -2.1023    4.8871 C   0  0  0  0  0  0  0  0  0  0  0  0
    2.7935   -1.6502    4.9904 H   0  0  0  0  0  0  0  0  0  0  0  0
    1.6064   -2.6156    5.8438 H   0  0  0  0  0  0  0  0  0  0  0  0
    1.9156   -2.9078    4.1453 H   0  0  0  0  0  0  0  0  0  0  0  0
    0.5488   -0.8838    3.2109 N   0  0  0  0  0  0  0  0  0  0  0  0
   -0.4159    0.0446    2.6829 C   0  0  2  0  0  0  0  0  0  0  0  0
   -0.7551   -0.3867    1.2623 C   0  0  0  0  0  0  0  0  0  0  0  0
   -0.0106   -1.0851    0.5774 O   0  0  0  0  0  0  0  0  0  0  0  0
    0.1168    1.4689    2.7060 C   0  0  0  0  0  0  0  0  0  0  0  0
    1.1183   -1.4145    2.5542 H   0  0  0  0  0  0  0  0  0  0  0  0
   -1.3088   -0.0350    3.3125 H   0  0  0  0  0  0  0  0  0  0  0  0
    1.0116    1.5681    2.0808 H   0  0  0  0  0  0  0  0  0  0  0  0
   -0.6289    2.1775    2.3307 H   0  0  0  0  0  0  0  0  0  0  0  0
    0.3882    1.7670    3.7245 H   0  0  0  0  0  0  0  0  0  0  0  0
   -1.9689    0.1350    0.8298 N   0  0  0  0  0  0  0  0  0  0  0  0
   -2.5039   -0.1183   -0.4830 C   0  0  2  0  0  0  0  0  0  0  0  0
   -2.6945   -1.6232   -0.6381 C   0  0  0  0  0  0  0  0  0  0  0  0
   -3.3458   -2.1253   -1.5518 O   0  0  0  0  0  0  0  0  0  0  0  0
   -1.6121    0.4598   -1.5771 C   0  0  0  0  0  0  0  0  0  0  0  0
   -0.3611   -0.2183   -1.6027 O   0  0  0  0  0  0  0  0  0  0  0  0
   -2.5276    0.6894    1.4750 H   0  0  0  0  0  0  0  0  0  0  0  0
   -3.4855    0.3683   -0.5151 H   0  0  0  0  0  0  0  0  0  0  0  0
   -1.4181    1.5234   -1.4053 H   0  0  0  0  0  0  0  0  0  0  0  0
   -2.0825    0.3429   -2.5592 H   0  0  0  0  0  0  0  0  0  0  0  0
   -0.5545   -1.1524   -1.7803 H   0  0  0  0  0  0  0  0  0  0  0  0
   -2.0161   -2.3389    0.3383 N   0  0  0  0  0  0  0  0  0  0  0  0
   -2.0141   -3.7824    0.3908 C   0  0  2  0  0  0  0  0  0  0  0  0
   -2.0547   -4.3050   -1.0392 C   0  0  0  0  0  0  0  0  0  0  0  0
   -2.4754   -3.6411   -1.9843 O   0  0  0  0  0  0  0  0  0  0  0  0
   -3.1925   -4.3085    1.1954 C   0  0  0  0  0  0  0  0  0  0  0  0
   -1.4683   -1.8399    1.0330 H   0  0  0  0  0  0  0  0  0  0  0  0
   -1.0715   -4.0804    0.8625 H   0  0  0  0  0  0  0  0  0  0  0  0
   -4.1459   -4.0198    0.7380 H   0  0  0  0  0  0  0  0  0  0  0  0
   -3.1736   -5.4015    1.2582 H   0  0  0  0  0  0  0  0  0  0  0  0
   -3.1782   -3.9080    2.2148 H   0  0  0  0  0  0  0  0  0  0  0  0
   -1.6060   -5.6153   -1.1288 N   0  0  0  0  0  0  0  0  0  0  0  0
   -1.5597   -6.3398   -2.3774 C   0  0  0  0  0  0  0  0  0  0  0  0
   -1.2578   -6.0823   -0.2967 H   0  0  0  0  0  0  0  0  0  0  0  0
   -2.4957   -6.9022   -2.5105 H   0  0  0  0  0  0  0  0  0  0  0  0
   -1.4372   -5.6299   -3.2088 H   0  0  0  0  0  0  0  0  0  0  0  0
   -0.7107   -7.0390   -2.3642 H   0  0  0  0  0  0  0  0  0  0  0  0
  1  3  1  0  0  0  0
  1  7  1  0  0  0  0
  1  2  2  0  0  0  0
 29 30  1  0  0  0  0
 30 38  1  0  0  0  0
 30 31  2  0  0  0  0
  8  9  1  0  0  0  0
  9 17  1  0  0  0  0
  9 10  2  0  0  0  0
 18 19  1  0  0  0  0
 19 28  1  0  0  0  0
 19 20  2  0  0  0  0
 29 32  1  0  0  0  0
  8 11  1  0  0  0  0
 38 39  1  0  0  0  0
 18 21  1  0  0  0  0
 21 22  1  0  0  0  0
 28 29  1  0  0  0  0
  7  8  1  0  0  0  0
 17 18  1  0  0  0  0
  3  4  1  0  0  0  0
  3  5  1  0  0  0  0
  3  6  1  0  0  0  0
 32 35  1  0  0  0  0
 32 36  1  0  0  0  0
 32 37  1  0  0  0  0
 11 14  1  0  0  0  0
 11 15  1  0  0  0  0
 11 16  1  0  0  0  0
 39 41  1  0  0  0  0
 39 42  1  0  0  0  0
 39 43  1  0  0  0  0
 21 25  1  0  0  0  0
 21 26  1  0  0  0  0
 29 34  1  0  0  0  0
  8 13  1  0  0  0  0
 18 24  1  0  0  0  0
 38 40  1  0  0  0  0
  7 12  1  0  0  0  0
 28 33  1  0  0  0  0
 17 23  1  0  0  0  0
 22 27  1  0  0  0  0
M  END
$$$$

  -OEChem-05262214473D

 43 42  0     1  0  0  0  0  0999 V2000
    0.7424   -1.0926    4.5665 C   0  0  0  0  0  0  0  0  0  0  0  0
    0.1409   -0.5364    5.4779 O   0  0  0  0  0  0  0  0  0  0  0  0
    1.7940   -2.1023    4.8871 C   0  0  0  0  0  0  0  0  0  0  0  0
    2.7935   -1.6502    4.9904 H   0  0  0  0  0  0  0  0  0  0  0  0
    1.6064   -2.6156    5.8438 H   0  0  0  0  0  0  0  0  0  0  0  0
    1.9156   -2.9078    4.1453 H   0  0  0  0  0  0  0  0  0  0  0  0
    0.5488   -0.8838    3.2109 N   0  0  0  0  0  0  0  0  0  0  0  0
   -0.4159    0.0446    2.6829 C   0  0  2  0  0  0  0  0  0  0  0  0
   -0.7551   -0.3867    1.2623 C   0  0  0  0  0  0  0  0  0  0  0  0
   -0.0106   -1.0851    0.5774 O   0  0  0  0  0  0  0  0  0  0  0  0
    0.1168    1.4689    2.7060 C   0  0  0  0  0  0  0  0  0  0  0  0
    1.1183   -1.4145    2.5542 H   0  0  0  0  0  0  0  0  0  0  0  0
   -1.3088   -0.0350    3.3125 H   0  0  0  0  0  0  0  0  0  0  0  0
    1.0116    1.5681    2.0808 H   0  0  0  0  0  0  0  0  0  0  0  0
   -0.6289    2.1775    2.3307 H   0  0  0  0  0  0  0  0  0  0  0  0
    0.3882    1.7670    3.7245 H   0  0  0  0  0  0  0  0  0  0  0  0
   -1.9689    0.1350    0.8298 N   0  0  0  0  0  0  0  0  0  0  0  0
   -2.5039   -0.1183   -0.4830 C   0  0  2  0  0  0  0  0  0  0  0  0
   -2.6945   -1.6232   -0.6381 C   0  0  0  0  0  0  0  0  0  0  0  0
   -3.1063   -2.1431   -1.6731 O   0  0  0  0  0  0  0  0  0  0  0  0
   -1.6121    0.4598   -1.5771 C   0  0  0  0  0  0  0  0  0  0  0  0
   -0.3611   -0.2183   -1.6027 O   0  0  0  0  0  0  0  0  0  0  0  0
   -2.5276    0.6894    1.4750 H   0  0  0  0  0  0  0  0  0  0  0  0
   -3.4855    0.3683   -0.5151 H   0  0  0  0  0  0  0  0  0  0  0  0
   -1.4181    1.5234   -1.4053 H   0  0  0  0  0  0  0  0  0  0  0  0
   -2.0825    0.3429   -2.5592 H   0  0  0  0  0  0  0  0  0  0  0  0
   -0.5545   -1.1524   -1.7803 H   0  0  0  0  0  0  0  0  0  0  0  0
   -2.3098   -2.3183    0.4996 N   0  0  0  0  0  0  0  0  0  0  0  0
   -2.3653   -3.7587    0.5926 C   0  0  2  0  0  0  0  0  0  0  0  0
   -2.0558   -4.3311   -0.7844 C   0  0  0  0  0  0  0  0  0  0  0  0
   -2.2011   -3.6923   -1.8245 O   0  0  0  0  0  0  0  0  0  0  0  0
   -3.7253   -4.2295    1.0838 C   0  0  0  0  0  0  0  0  0  0  0  0
   -1.9422   -1.8071    1.2966 H   0  0  0  0  0  0  0  0  0  0  0  0
   -1.5836   -4.0605    1.2983 H   0  0  0  0  0  0  0  0  0  0  0  0
   -4.5213   -3.9364    0.3895 H   0  0  0  0  0  0  0  0  0  0  0  0
   -3.7565   -5.3197    1.1810 H   0  0  0  0  0  0  0  0  0  0  0  0
   -3.9592   -3.7932    2.0609 H   0  0  0  0  0  0  0  0  0  0  0  0
   -1.6393   -5.6534   -0.7183 N   0  0  0  0  0  0  0  0  0  0  0  0
   -1.2983   -6.4229   -1.8920 C   0  0  0  0  0  0  0  0  0  0  0  0
   -1.5292   -6.0979    0.1883 H   0  0  0  0  0  0  0  0  0  0  0  0
   -2.1861   -6.9689   -2.2439 H   0  0  0  0  0  0  0  0  0  0  0  0
   -0.9462   -5.7462   -2.6845 H   0  0  0  0  0  0  0  0  0  0  0  0
   -0.5024   -7.1399   -1.6418 H   0  0  0  0  0  0  0  0  0  0  0  0
  1  3  1  0  0  0  0
  1  7  1  0  0  0  0
  1  2  2  0  0  0  0
 29 30  1  0  0  0  0
 30 38  1  0  0  0  0
 30 31  2  0  0  0  0
  8  9  1  0  0  0  0
  9 17  1  0  0  0  0
  9 10  2  0  0  0  0
 18 19  1  0  0  0  0
 19 28  1  0  0  0  0
 19 20  2  0  0  0  0
 29 32  1  0  0  0  0
  8 11  1  0  0  0  0
 38 39  1  0  0  0  0
 18 21  1  0  0  0  0
 21 22  1  0  0  0  0
 28 29  1  0  0  0  0
  7  8  1  0  0  0  0
 17 18  1  0  0  0  0
  3  4  1  0  0  0  0
  3  5  1  0  0  0  0
  3  6  1  0  0  0  0
 32 35  1  0  0  0  0
 32 36  1  0  0  0  0
 32 37  1  0  0  0  0
 11 14  1  0  0  0  0
 11 15  1  0  0  0  0
 11 16  1  0  0  0  0
 39 41  1  0  0  0  0
 39 42  1  0  0  0  0
 39 43  1  0  0  0  0
 21 25  1  0  0  0  0
 21 26  1  0  0  0  0
 29 34  1  0  0  0  0
  8 13  1  0  0  0  0
 18 24  1  0  0  0  0
 38 40  1  0  0  0  0
  7 12  1  0  0  0  0
 28 33  1  0  0  0  0
 17 23  1  0  0  0  0
 22 27  1  0  0  0  0
M  END
$$$$

  -OEChem-05262214473D

 43 42  0     1  0  0  0  0  0999 V2000
    0.7424   -1.0926    4.5665 C   0  0  0  0  0  0  0  0  0  0  0  0
    0.1409   -0.5364    5.4779 O   0  0  0  0  0  0  0  0  0  0  0  0
    1.7940   -2.1023    4.8871 C   0  0  0  0  0  0  0  0  0  0  0  0
    2.7935   -1.6502    4.9904 H   0  0  0  0  0  0  0  0  0  0  0  0
    1.6064   -2.6156    5.8438 H   0  0  0  0  0  0  0  0  0  0  0  0
    1.9156   -2.9078    4.1453 H   0  0  0  0  0  0  0  0  0  0  0  0
    0.5488   -0.8838    3.2109 N   0  0  0  0  0  0  0  0  0  0  0  0
   -0.4159    0.0446    2.6829 C   0  0  2  0  0  0  0  0  0  0  0  0
   -0.7551   -0.3867    1.2623 C   0  0  0  0  0  0  0  0  0  0  0  0
   -0.0106   -1.0851    0.5774 O   0  0  0  0  0  0  0  0  0  0  0  0
    0.1168    1.4689    2.7060 C   0  0  0  0  0  0  0  0  0  0  0  0
    1.1183   -1.4145    2.5542 H   0  0  0  0  0  0  0  0  0  0  0  0
   -1.3088   -0.0350    3.3125 H   0  0  0  0  0  0  0  0  0  0  0  0
    1.0116    1.5681    2.0808 H   0  0  0  0  0  0  0  0  0  0  0  0
   -0.6289    2.1775    2.3307 H   0  0  0  0  0  0  0  0  0  0  0  0
    0.3882    1.7670    3.7245 H   0  0  0  0  0  0  0  0  0  0  0  0
   -1.9689    0.1350    0.8298 N   0  0  0  0  0  0  0  0  0  0  0  0
   -2.5039   -0.1183   -0.4830 C   0  0  2  0  0  0  0  0  0  0  0  0
   -2.6945   -1.6232   -0.6381 C   0  0  0  0  0  0  0  0  0  0  0  0
   -2.8444   -2.1706   -1.7286 O   0  0  0  0  0  0  0  0  0  0  0  0
   -1.6121    0.4598   -1.5771 C   0  0  0  0  0  0  0  0  0  0  0  0
   -0.3611   -0.2183   -1.6027 O   0  0  0  0  0  0  0  0  0  0  0  0
   -2.5276    0.6894    1.4750 H   0  0  0  0  0  0  0  0  0  0  0  0
   -3.4855    0.3683   -0.5151 H   0  0  0  0  0  0  0  0  0  0  0  0
   -1.4181    1.5234   -1.4053 H   0  0  0  0  0  0  0  0  0  0  0  0
   -2.0825    0.3429   -2.5592 H   0  0  0  0  0  0  0  0  0  0  0  0
   -0.5545   -1.1524   -1.7803 H   0  0  0  0  0  0  0  0  0  0  0  0
   -2.6340   -2.2855    0.5798 N   0  0  0  0  0  0  0  0  0  0  0  0
   -2.7554   -3.7201    0.6971 C   0  0  2  0  0  0  0  0  0  0  0  0
   -2.1226   -4.3481   -0.5377 C   0  0  0  0  0  0  0  0  0  0  0  0
   -1.9783   -3.7438   -1.5984 O   0  0  0  0  0  0  0  0  0  0  0  0
   -4.2094   -4.1428    0.8373 C   0  0  0  0  0  0  0  0  0  0  0  0
   -2.4664   -1.7543    1.4292 H   0  0  0  0  0  0  0  0  0  0  0  0
   -2.1891   -4.0136    1.5877 H   0  0  0  0  0  0  0  0  0  0  0  0
   -4.7927   -3.8571   -0.0457 H   0  0  0  0  0  0  0  0  0  0  0  0
   -4.2976   -5.2279    0.9548 H   0  0  0  0  0  0  0  0  0  0  0  0
   -4.6713   -3.6668    1.7090 H   0  0  0  0  0  0  0  0  0  0  0  0
   -1.7773   -5.6761   -0.3291 N   0  0  0  0  0  0  0  0  0  0  0  0
   -1.1720   -6.4944   -1.3537 C   0  0  0  0  0  0  0  0  0  0  0  0
   -1.9157   -6.0902    0.5880 H   0  0  0  0  0  0  0  0  0  0  0  0
   -1.9569   -7.0328   -1.9050 H   0  0  0  0  0  0  0  0  0  0  0  0
   -0.6090   -5.8544   -2.0489 H   0  0  0  0  0  0  0  0  0  0  0  0
   -0.4885   -7.2194   -0.8875 H   0  0  0  0  0  0  0  0  0  0  0  0
  1  3  1  0  0  0  0
  1  7  1  0  0  0  0
  1  2  2  0  0  0  0
 29 30  1  0  0  0  0
 30 38  1  0  0  0  0
 30 31  2  0  0  0  0
  8  9  1  0  0  0  0
  9 17  1  0  0  0  0
  9 10  2  0  0  0  0
 18 19  1  0  0  0  0
 19 28  1  0  0  0  0
 19 20  2  0  0  0  0
 29 32  1  0  0  0  0
  8 11  1  0  0  0  0
 38 39  1  0  0  0  0
 18 21  1  0  0  0  0
 21 22  1  0  0  0  0
 28 29  1  0  0  0  0
  7  8  1  0  0  0  0
 17 18  1  0  0  0  0
  3  4  1  0  0  0  0
  3  5  1  0  0  0  0
  3  6  1  0  0  0  0
 32 35  1  0  0  0  0
 32 36  1  0  0  0  0
 32 37  1  0  0  0  0
 11 14  1  0  0  0  0
 11 15  1  0  0  0  0
 11 16  1  0  0  0  0
 39 41  1  0  0  0  0
 39 42  1  0  0  0  0
 39 43  1  0  0  0  0
 21 25  1  0  0  0  0
 21 26  1  0  0  0  0
 29 34  1  0  0  0  0
  8 13  1  0  0  0  0
 18 24  1  0  0  0  0
 38 40  1  0  0  0  0
  7 12  1  0  0  0  0
 28 33  1  0  0  0  0
 17 23  1  0  0  0  0
 22 27  1  0  0  0  0
M  END
$$$$

  -OEChem-05262214473D

 43 42  0     1  0  0  0  0  0999 V2000
    0.7424   -1.0926    4.5665 C   0  0  0  0  0  0  0  0  0  0  0  0
    0.1409   -0.5364    5.4779 O   0  0  0  0  0  0  0  0  0  0  0  0
    1.7940   -2.1023    4.8871 C   0  0  0  0  0  0  0  0  0  0  0  0
    2.7935   -1.6502    4.9904 H   0  0  0  0  0  0  0  0  0  0  0  0
    1.6064   -2.6156    5.8438 H   0  0  0  0  0  0  0  0  0  0  0  0
    1.9156   -2.9078    4.1453 H   0  0  0  0  0  0  0  0  0  0  0  0
    0.5488   -0.8838    3.2109 N   0  0  0  0  0  0  0  0  0  0  0  0
   -0.4159    0.0446    2.6829 C   0  0  2  0  0  0  0  0  0  0  0  0
   -0.7551   -0.3867    1.2623 C   0  0  0  0  0  0  0  0  0  0  0  0
   -0.0106   -1.0851    0.5774 O   0  0  0  0  0  0  0  0  0  0  0  0
    0.1168    1.4689    2.7060 C   0  0  0  0  0  0  0  0  0  0  0  0
    1.1183   -1.4145    2.5542 H   0  0  0  0  0  0  0  0  0  0  0  0
   -1.3088   -0.0350    3.3125 H   0  0  0  0  0  0  0  0  0  0  0  0
    1.0116    1.5681    2.0808 H   0  0  0  0  0  0  0  0  0  0  0  0
   -0.6289    2.1775    2.3307 H   0  0  0  0  0  0  0  0  0  0  0  0
    0.3882    1.7670    3.7245 H   0  0  0  0  0  0  0  0  0  0  0  0
   -1.9689    0.1350    0.8298 N   0  0  0  0  0  0  0  0  0  0  0  0
   -2.5039   -0.1183   -0.4830 C   0  0  2  0  0  0  0  0  0  0  0  0
   -2.6945   -1.6232   -0.6381 C   0  0  0  0  0  0  0  0  0  0  0  0
   -2.5780   -2.2058   -1.7143 O   0  0  0  0  0  0  0  0  0  0  0  0
   -1.6121    0.4598   -1.5771 C   0  0  0  0  0  0  0  0  0  0  0  0
   -0.3611   -0.2183   -1.6027 O   0  0  0  0  0  0  0  0  0  0  0  0
   -2.5276    0.6894    1.4750 H   0  0  0  0  0  0  0  0  0  0  0  0
   -3.4855    0.3683   -0.5151 H   0  0  0  0  0  0  0  0  0  0  0  0
   -1.4181    1.5234   -1.4053 H   0  0  0  0  0  0  0  0  0  0  0  0
   -2.0825    0.3429   -2.5592 H   0  0  0  0  0  0  0  0  0  0  0  0
   -0.5545   -1.1524   -1.7803 H   0  0  0  0  0  0  0  0  0  0  0  0
   -2.9669   -2.2427    0.5733 N   0  0  0  0  0  0  0  0  0  0  0  0
   -3.1578   -3.6691    0.6971 C   0  0  2  0  0  0  0  0  0  0  0  0
   -2.2506   -4.3548   -0.3160 C   0  0  0  0  0  0  0  0  0  0  0  0
   -1.8222   -3.7922   -1.3215 O   0  0  0  0  0  0  0  0  0  0  0  0
   -4.6118   -4.0543    0.4728 C   0  0  0  0  0  0  0  0  0  0  0  0
   -3.0053   -1.6853    1.4216 H   0  0  0  0  0  0  0  0  0  0  0  0
   -2.8466   -3.9431    1.7111 H   0  0  0  0  0  0  0  0  0  0  0  0
   -4.9416   -3.7875   -0.5379 H   0  0  0  0  0  0  0  0  0  0  0  0
   -4.7601   -5.1323    0.5951 H   0  0  0  0  0  0  0  0  0  0  0  0
   -5.2660   -3.5373    1.1831 H   0  0  0  0  0  0  0  0  0  0  0  0
   -2.0107   -5.6817    0.0124 N   0  0  0  0  0  0  0  0  0  0  0  0
   -1.1893   -6.5494   -0.7991 C   0  0  0  0  0  0  0  0  0  0  0  0
   -2.3909   -6.0596    0.8751 H   0  0  0  0  0  0  0  0  0  0  0  0
   -1.8238   -7.0897   -1.5171 H   0  0  0  0  0  0  0  0  0  0  0  0
   -0.4484   -5.9473   -1.3454 H   0  0  0  0  0  0  0  0  0  0  0  0
   -0.6698   -7.2722   -0.1528 H   0  0  0  0  0  0  0  0  0  0  0  0
  1  3  1  0  0  0  0
  1  7  1  0  0  0  0
  1  2  2  0  0  0  0
 29 30  1  0  0  0  0
 30 38  1  0  0  0  0
 30 31  2  0  0  0  0
  8  9  1  0  0  0  0
  9 17  1  0  0  0  0
  9 10  2  0  0  0  0
 18 19  1  0  0  0  0
 19 28  1  0  0  0  0
 19 20  2  0  0  0  0
 29 32  1  0  0  0  0
  8 11  1  0  0  0  0
 38 39  1  0  0  0  0
 18 21  1  0  0  0  0
 21 22  1  0  0  0  0
 28 29  1  0  0  0  0
  7  8  1  0  0  0  0
 17 18  1  0  0  0  0
  3  4  1  0  0  0  0
  3  5  1  0  0  0  0
  3  6  1  0  0  0  0
 32 35  1  0  0  0  0
 32 36  1  0  0  0  0
 32 37  1  0  0  0  0
 11 14  1  0  0  0  0
 11 15  1  0  0  0  0
 11 16  1  0  0  0  0
 39 41  1  0  0  0  0
 39 42  1  0  0  0  0
 39 43  1  0  0  0  0
 21 25  1  0  0  0  0
 21 26  1  0  0  0  0
 29 34  1  0  0  0  0
  8 13  1  0  0  0  0
 18 24  1  0  0  0  0
 38 40  1  0  0  0  0
  7 12  1  0  0  0  0
 28 33  1  0  0  0  0
 17 23  1  0  0  0  0
 22 27  1  0  0  0  0
M  END
$$$$

  -OEChem-05262214473D

 43 42  0     1  0  0  0  0  0999 V2000
    0.7424   -1.0926    4.5665 C   0  0  0  0  0  0  0  0  0  0  0  0
    0.1409   -0.5364    5.4779 O   0  0  0  0  0  0  0  0  0  0  0  0
    1.7940   -2.1023    4.8871 C   0  0  0  0  0  0  0  0  0  0  0  0
    2.7935   -1.6502    4.9904 H   0  0  0  0  0  0  0  0  0  0  0  0
    1.6064   -2.6156    5.8438 H   0  0  0  0  0  0  0  0  0  0  0  0
    1.9156   -2.9078    4.1453 H   0  0  0  0  0  0  0  0  0  0  0  0
    0.5488   -0.8838    3.2109 N   0  0  0  0  0  0  0  0  0  0  0  0
   -0.4159    0.0446    2.6829 C   0  0  2  0  0  0  0  0  0  0  0  0
   -0.7551   -0.3867    1.2623 C   0  0  0  0  0  0  0  0  0  0  0  0
   -0.0106   -1.0851    0.5774 O   0  0  0  0  0  0  0  0  0  0  0  0
    0.1168    1.4689    2.7060 C   0  0  0  0  0  0  0  0  0  0  0  0
    1.1183   -1.4145    2.5542 H   0  0  0  0  0  0  0  0  0  0  0  0
   -1.3088   -0.0350    3.3125 H   0  0  0  0  0  0  0  0  0  0  0  0
    1.0116    1.5681    2.0808 H   0  0  0  0  0  0  0  0  0  0  0  0
   -0.6289    2.1775    2.3307 H   0  0  0  0  0  0  0  0  0  0  0  0
    0.3882    1.7670    3.7245 H   0  0  0  0  0  0  0  0  0  0  0  0
   -1.9689    0.1350    0.8298 N   0  0  0  0  0  0  0  0  0  0  0  0
   -2.5039   -0.1183   -0.4830 C   0  0  2  0  0  0  0  0  0  0  0  0
   -2.6945   -1.6232   -0.6381 C   0  0  0  0  0  0  0  0  0  0  0  0
   -2.3253   -2.2463   -1.6314 O   0  0  0  0  0  0  0  0  0  0  0  0
   -1.6121    0.4598   -1.5771 C   0  0  0  0  0  0  0  0  0  0  0  0
   -0.3611   -0.2183   -1.6027 O   0  0  0  0  0  0  0  0  0  0  0  0
   -2.5276    0.6894    1.4750 H   0  0  0  0  0  0  0  0  0  0  0  0
   -3.4855    0.3683   -0.5151 H   0  0  0  0  0  0  0  0  0  0  0  0
   -1.4181    1.5234   -1.4053 H   0  0  0  0  0  0  0  0  0  0  0  0
   -2.0825    0.3429   -2.5592 H   0  0  0  0  0  0  0  0  0  0  0  0
   -0.5545   -1.1524   -1.7803 H   0  0  0  0  0  0  0  0  0  0  0  0
   -3.2856   -2.1928    0.4807 N   0  0  0  0  0  0  0  0  0  0  0  0
   -3.5453   -3.6093    0.5927 C   0  0  2  0  0  0  0  0  0  0  0  0
   -2.4311   -4.3506   -0.1342 C   0  0  0  0  0  0  0  0  0  0  0  0
   -1.7434   -3.8340   -1.0125 O   0  0  0  0  0  0  0  0  0  0  0  0
   -4.9050   -3.9699    0.0151 C   0  0  0  0  0  0  0  0  0  0  0  0
   -3.5220   -1.6047    1.2744 H   0  0  0  0  0  0  0  0  0  0  0  0
   -3.5114   -3.8536    1.6600 H   0  0  0  0  0  0  0  0  0  0  0  0
   -4.9579   -3.7323   -1.0537 H   0  0  0  0  0  0  0  0  0  0  0  0
   -5.1125   -5.0393    0.1265 H   0  0  0  0  0  0  0  0  0  0  0  0
   -5.7026   -3.4135    0.5191 H   0  0  0  0  0  0  0  0  0  0  0  0
   -2.3234   -5.6700    0.2828 N   0  0  0  0  0  0  0  0  0  0  0  0
   -1.3492   -6.5841   -0.2661 C   0  0  0  0  0  0  0  0  0  0  0  0
   -2.9225   -6.0083    1.0301 H   0  0  0  0  0  0  0  0  0  0  0  0
   -1.7958   -7.1355   -1.1066 H   0  0  0  0  0  0  0  0  0  0  0  0
   -0.4754   -6.0184   -0.6217 H   0  0  0  0  0  0  0  0  0  0  0  0
   -1.0340   -7.2946    0.5123 H   0  0  0  0  0  0  0  0  0  0  0  0
  1  3  1  0  0  0  0
  1  7  1  0  0  0  0
  1  2  2  0  0  0  0
 29 30  1  0  0  0  0
 30 38  1  0  0  0  0
 30 31  2  0  0  0  0
  8  9  1  0  0  0  0
  9 17  1  0  0  0  0
  9 10  2  0  0  0  0
 18 19  1  0  0  0  0
 19 28  1  0  0  0  0
 19 20  2  0  0  0  0
 29 32  1  0  0  0  0
  8 11  1  0  0  0  0
 38 39  1  0  0  0  0
 18 21  1  0  0  0  0
 21 22  1  0  0  0  0
 28 29  1  0  0  0  0
  7  8  1  0  0  0  0
 17 18  1  0  0  0  0
  3  4  1  0  0  0  0
  3  5  1  0  0  0  0
  3  6  1  0  0  0  0
 32 35  1  0  0  0  0
 32 36  1  0  0  0  0
 32 37  1  0  0  0  0
 11 14  1  0  0  0  0
 11 15  1  0  0  0  0
 11 16  1  0  0  0  0
 39 41  1  0  0  0  0
 39 42  1  0  0  0  0
 39 43  1  0  0  0  0
 21 25  1  0  0  0  0
 21 26  1  0  0  0  0
 29 34  1  0  0  0  0
  8 13  1  0  0  0  0
 18 24  1  0  0  0  0
 38 40  1  0  0  0  0
  7 12  1  0  0  0  0
 28 33  1  0  0  0  0
 17 23  1  0  0  0  0
 22 27  1  0  0  0  0
M  END
$$$$

  -OEChem-05262214473D

 43 42  0     1  0  0  0  0  0999 V2000
    0.7424   -1.0926    4.5665 C   0  0  0  0  0  0  0  0  0  0  0  0
    0.1409   -0.5364    5.4779 O   0  0  0  0  0  0  0  0  0  0  0  0
    1.7940   -2.1023    4.8871 C   0  0  0  0  0  0  0  0  0  0  0  0
    2.7935   -1.6502    4.9904 H   0  0  0  0  0  0  0  0  0  0  0  0
    1.6064   -2.6156    5.8438 H   0  0  0  0  0  0  0  0  0  0  0  0
    1.9156   -2.9078    4.1453 H   0  0  0  0  0  0  0  0  0  0  0  0
    0.5488   -0.8838    3.2109 N   0  0  0  0  0  0  0  0  0  0  0  0
   -0.4159    0.0446    2.6829 C   0  0  2  0  0  0  0  0  0  0  0  0
   -0.7551   -0.3867    1.2623 C   0  0  0  0  0  0  0  0  0  0  0  0
   -0.0106   -1.0851    0.5774 O   0  0  0  0  0  0  0  0  0  0  0  0
    0.1168    1.4689    2.7060 C   0  0  0  0  0  0  0  0  0  0  0  0
    1.1183   -1.4145    2.5542 H   0  0  0  0  0  0  0  0  0  0  0  0
   -1.3088   -0.0350    3.3125 H   0  0  0  0  0  0  0  0  0  0  0  0
    1.0116    1.5681    2.0808 H   0  0  0  0  0  0  0  0  0  0  0  0
   -0.6289    2.1775    2.3307 H   0  0  0  0  0  0  0  0  0  0  0  0
    0.3882    1.7670    3.7245 H   0  0  0  0  0  0  0  0  0  0  0  0
   -1.9689    0.1350    0.8298 N   0  0  0  0  0  0  0  0  0  0  0  0
   -2.5039   -0.1183   -0.4830 C   0  0  2  0  0  0  0  0  0  0  0  0
   -2.6945   -1.6232   -0.6381 C   0  0  0  0  0  0  0  0  0  0  0  0
   -2.1034   -2.2895   -1.4854 O   0  0  0  0  0  0  0  0  0  0  0  0
   -1.6121    0.4598   -1.5771 C   0  0  0  0  0  0  0  0  0  0  0  0
   -0.3611   -0.2183   -1.6027 O   0  0  0  0  0  0  0  0  0  0  0  0
   -2.5276    0.6894    1.4750 H   0  0  0  0  0  0  0  0  0  0  0  0
   -3.4855    0.3683   -0.5151 H   0  0  0  0  0  0  0  0  0  0  0  0
   -1.4181    1.5234   -1.4053 H   0  0  0  0  0  0  0  0  0  0  0  0
   -2.0825    0.3429   -2.5592 H   0  0  0  0  0  0  0  0  0  0  0  0
   -0.5545   -1.1524   -1.7803 H   0  0  0  0  0  0  0  0  0  0  0  0
   -3.5684   -2.1392    0.3082 N   0  0  0  0  0  0  0  0  0  0  0  0
   -3.8912   -3.5447    0.3909 C   0  0  2  0  0  0  0  0  0  0  0  0
   -2.6517   -4.3360   -0.0050 C   0  0  0  0  0  0  0  0  0  0  0  0
   -1.7474   -3.8665   -0.6926 O   0  0  0  0  0  0  0  0  0  0  0  0
   -5.0691   -3.8956   -0.5047 C   0  0  0  0  0  0  0  0  0  0  0  0
   -3.9814   -1.5180    0.9976 H   0  0  0  0  0  0  0  0  0  0  0  0
   -4.1382   -3.7514    1.4380 H   0  0  0  0  0  0  0  0  0  0  0  0
   -4.8404   -3.6952   -1.5578 H   0  0  0  0  0  0  0  0  0  0  0  0
   -5.3307   -4.9554   -0.4192 H   0  0  0  0  0  0  0  0  0  0  0  0
   -5.9515   -3.3040   -0.2378 H   0  0  0  0  0  0  0  0  0  0  0  0
   -2.6943   -5.6417    0.4637 N   0  0  0  0  0  0  0  0  0  0  0  0
   -1.6407   -6.5962    0.2091 C   0  0  0  0  0  0  0  0  0  0  0  0
   -3.4741   -5.9397    1.0423 H   0  0  0  0  0  0  0  0  0  0  0  0
   -1.8748   -7.1673   -0.7014 H   0  0  0  0  0  0  0  0  0  0  0  0
   -0.6882   -6.0631    0.0726 H   0  0  0  0  0  0  0  0  0  0  0  0
   -1.5562   -7.2852    1.0624 H   0  0  0  0  0  0  0  0  0  0  0  0
  1  3  1  0  0  0  0
  1  7  1  0  0  0  0
  1  2  2  0  0  0  0
 29 30  1  0  0  0  0
 30 38  1  0  0  0  0
 30 31  2  0  0  0  0
  8  9  1  0  0  0  0
  9 17  1  0  0  0  0
  9 10  2  0  0  0  0
 18 19  1  0  0  0  0
 19 28  1  0  0  0  0
 19 20  2  0  0  0  0
 29 32  1  0  0  0  0
  8 11  1  0  0  0  0
 38 39  1  0  0  0  0
 18 21  1  0  0  0  0
 21 22  1  0  0  0  0
 28 29  1  0  0  0  0
  7  8  1  0  0  0  0
 17 18  1  0  0  0  0
  3  4  1  0  0  0  0
  3  5  1  0  0  0  0
  3  6  1  0  0  0  0
 32 35  1  0  0  0  0
 32 36  1  0  0  0  0
 32 37  1  0  0  0  0
 11 14  1  0  0  0  0
 11 15  1  0  0  0  0
 11 16  1  0  0  0  0
 39 41  1  0  0  0  0
 39 42  1  0  0  0  0
 39 43  1  0  0  0  0
 21 25  1  0  0  0  0
 21 26  1  0  0  0  0
 29 34  1  0  0  0  0
  8 13  1  0  0  0  0
 18 24  1  0  0  0  0
 38 40  1  0  0  0  0
  7 12  1  0  0  0  0
 28 33  1  0  0  0  0
 17 23  1  0  0  0  0
 22 27  1  0  0  0  0
M  END
$$$$

  -OEChem-05262214473D

 43 42  0     1  0  0  0  0  0999 V2000
    0.7424   -1.0926    4.5665 C   0  0  0  0  0  0  0  0  0  0  0  0
    0.1409   -0.5364    5.4779 O   0  0  0  0  0  0  0  0  0  0  0  0
    1.7940   -2.1023    4.8871 C   0  0  0  0  0  0  0  0  0  0  0  0
    2.7935   -1.6502    4.9904 H   0  0  0  0  0  0  0  0  0  0  0  0
    1.6064   -2.6156    5.8438 H   0  0  0  0  0  0  0  0  0  0  0  0
    1.9156   -2.9078    4.1453 H   0  0  0  0  0  0  0  0  0  0  0  0
    0.5488   -0.8838    3.2109 N   0  0  0  0  0  0  0  0  0  0  0  0
   -0.4159    0.0446    2.6829 C   0  0  2  0  0  0  0  0  0  0  0  0
   -0.7551   -0.3867    1.2623 C   0  0  0  0  0  0  0  0  0  0  0  0
   -0.0106   -1.0851    0.5774 O   0  0  0  0  0  0  0  0  0  0  0  0
    0.1168    1.4689    2.7060 C   0  0  0  0  0  0  0  0  0  0  0  0
    1.1183   -1.4145    2.5542 H   0  0  0  0  0  0  0  0  0  0  0  0
   -1.3088   -0.0350    3.3125 H   0  0  0  0  0  0  0  0  0  0  0  0
    1.0116    1.5681    2.0808 H   0  0  0  0  0  0  0  0  0  0  0  0
   -0.6289    2.1775    2.3307 H   0  0  0  0  0  0  0  0  0  0  0  0
    0.3882    1.7670    3.7245 H   0  0  0  0  0  0  0  0  0  0  0  0
   -1.9689    0.1350    0.8298 N   0  0  0  0  0  0  0  0  0  0  0  0
   -2.5039   -0.1183   -0.4830 C   0  0  2  0  0  0  0  0  0  0  0  0
   -2.6945   -1.6232   -0.6381 C   0  0  0  0  0  0  0  0  0  0  0  0
   -1.9275   -2.3323   -1.2864 O   0  0  0  0  0  0  0  0  0  0  0  0
   -1.6121    0.4598   -1.5771 C   0  0  0  0  0  0  0  0  0  0  0  0
   -0.3611   -0.2183   -1.6027 O   0  0  0  0  0  0  0  0  0  0  0  0
   -2.5276    0.6894    1.4750 H   0  0  0  0  0  0  0  0  0  0  0  0
   -3.4855    0.3683   -0.5151 H   0  0  0  0  0  0  0  0  0  0  0  0
   -1.4181    1.5234   -1.4053 H   0  0  0  0  0  0  0  0  0  0  0  0
   -2.0825    0.3429   -2.5592 H   0  0  0  0  0  0  0  0  0  0  0  0
   -0.5545   -1.1524   -1.7803 H   0  0  0  0  0  0  0  0  0  0  0  0
   -3.7962   -2.0855    0.0676 N   0  0  0  0  0  0  0  0  0  0  0  0
   -4.1722   -3.4797    0.1056 C   0  0  2  0  0  0  0  0  0  0  0  0
   -2.8974   -4.3119    0.0631 C   0  0  0  0  0  0  0  0  0  0  0  0
   -1.8338   -3.8874   -0.3835 O   0  0  0  0  0  0  0  0  0  0  0  0
   -5.0929   -3.8362   -1.0511 C   0  0  0  0  0  0  0  0  0  0  0  0
   -4.3521   -1.4311    0.6102 H   0  0  0  0  0  0  0  0  0  0  0  0
   -4.6842   -3.6433    1.0601 H   0  0  0  0  0  0  0  0  0  0  0  0
   -4.5972   -3.6787   -2.0160 H   0  0  0  0  0  0  0  0  0  0  0  0
   -5.3999   -4.8863   -1.0047 H   0  0  0  0  0  0  0  0  0  0  0  0
   -5.9956   -3.2161   -1.0361 H   0  0  0  0  0  0  0  0  0  0  0  0
   -3.0980   -5.5987    0.5428 N   0  0  0  0  0  0  0  0  0  0  0  0
   -2.0439   -6.5848    0.5940 C   0  0  0  0  0  0  0  0  0  0  0  0
   -4.0083   -5.8585    0.9110 H   0  0  0  0  0  0  0  0  0  0  0  0
   -2.0555   -7.1828   -0.3292 H   0  0  0  0  0  0  0  0  0  0  0  0
   -1.0724   -6.0781    0.6904 H   0  0  0  0  0  0  0  0  0  0  0  0
   -2.2009   -7.2446    1.4600 H   0  0  0  0  0  0  0  0  0  0  0  0
  1  3  1  0  0  0  0
  1  7  1  0  0  0  0
  1  2  2  0  0  0  0
 29 30  1  0  0  0  0
 30 38  1  0  0  0  0
 30 31  2  0  0  0  0
  8  9  1  0  0  0  0
  9 17  1  0  0  0  0
  9 10  2  0  0  0  0
 18 19  1  0  0  0  0
 19 28  1  0  0  0  0
 19 20  2  0  0  0  0
 29 32  1  0  0  0  0
  8 11  1  0  0  0  0
 38 39  1  0  0  0  0
 18 21  1  0  0  0  0
 21 22  1  0  0  0  0
 28 29  1  0  0  0  0
  7  8  1  0  0  0  0
 17 18  1  0  0  0  0
  3  4  1  0  0  0  0
  3  5  1  0  0  0  0
  3  6  1  0  0  0  0
 32 35  1  0  0  0  0
 32 36  1  0  0  0  0
 32 37  1  0  0  0  0
 11 14  1  0  0  0  0
 11 15  1  0  0  0  0
 11 16  1  0  0  0  0
 39 41  1  0  0  0  0
 39 42  1  0  0  0  0
 39 43  1  0  0  0  0
 21 25  1  0  0  0  0
 21 26  1  0  0  0  0
 29 34  1  0  0  0  0
  8 13  1  0  0  0  0
 18 24  1  0  0  0  0
 38 40  1  0  0  0  0
  7 12  1  0  0  0  0
 28 33  1  0  0  0  0
 17 23  1  0  0  0  0
 22 27  1  0  0  0  0
M  END
$$$$

  -OEChem-05262214473D

 43 42  0     1  0  0  0  0  0999 V2000
    0.7424   -1.0926    4.5665 C   0  0  0  0  0  0  0  0  0  0  0  0
    0.1409   -0.5364    5.4779 O   0  0  0  0  0  0  0  0  0  0  0  0
    1.7940   -2.1023    4.8871 C   0  0  0  0  0  0  0  0  0  0  0  0
    2.7935   -1.6502    4.9904 H   0  0  0  0  0  0  0  0  0  0  0  0
    1.6064   -2.6156    5.8438 H   0  0  0  0  0  0  0  0  0  0  0  0
    1.9156   -2.9078    4.1453 H   0  0  0  0  0  0  0  0  0  0  0  0
    0.5488   -0.8838    3.2109 N   0  0  0  0  0  0  0  0  0  0  0  0
   -0.4159    0.0446    2.6829 C   0  0  2  0  0  0  0  0  0  0  0  0
   -0.7551   -0.3867    1.2623 C   0  0  0  0  0  0  0  0  0  0  0  0
   -0.0106   -1.0851    0.5774 O   0  0  0  0  0  0  0  0  0  0  0  0
    0.1168    1.4689    2.7060 C   0  0  0  0  0  0  0  0  0  0  0  0
    1.1183   -1.4145    2.5542 H   0  0  0  0  0  0  0  0  0  0  0  0
   -1.3088   -0.0350    3.3125 H   0  0  0  0  0  0  0  0  0  0  0  0
    1.0116    1.5681    2.0808 H   0  0  0  0  0  0  0  0  0  0  0  0
   -0.6289    2.1775    2.3307 H   0  0  0  0  0  0  0  0  0  0  0  0
    0.3882    1.7670    3.7245 H   0  0  0  0  0  0  0  0  0  0  0  0
   -1.9689    0.1350    0.8298 N   0  0  0  0  0  0  0  0  0  0  0  0
   -2.5039   -0.1183   -0.4830 C   0  0  2  0  0  0  0  0  0  0  0  0
   -2.6945   -1.6232   -0.6381 C   0  0  0  0  0  0  0  0  0  0  0  0
   -1.8096   -2.3718   -1.0478 O   0  0  0  0  0  0  0  0  0  0  0  0
   -1.6121    0.4598   -1.5771 C   0  0  0  0  0  0  0  0  0  0  0  0
   -0.3611   -0.2183   -1.6027 O   0  0  0  0  0  0  0  0  0  0  0  0
   -2.5276    0.6894    1.4750 H   0  0  0  0  0  0  0  0  0  0  0  0
   -3.4855    0.3683   -0.5151 H   0  0  0  0  0  0  0  0  0  0  0  0
   -1.4181    1.5234   -1.4053 H   0  0  0  0  0  0  0  0  0  0  0  0
   -2.0825    0.3429   -2.5592 H   0  0  0  0  0  0  0  0  0  0  0  0
   -0.5545   -1.1524   -1.7803 H   0  0  0  0  0  0  0  0  0  0  0  0
   -3.9533   -2.0355   -0.2247 N   0  0  0  0  0  0  0  0  0  0  0  0
   -4.3690   -3.4188   -0.2439 C   0  0  2  0  0  0  0  0  0  0  0  0
   -3.1515   -4.2800    0.0653 C   0  0  0  0  0  0  0  0  0  0  0  0
   -1.9967   -3.8953   -0.1064 O   0  0  0  0  0  0  0  0  0  0  0  0
   -4.9747   -3.7960   -1.5868 C   0  0  0  0  0  0  0  0  0  0  0  0
   -4.6090   -1.3500    0.1384 H   0  0  0  0  0  0  0  0  0  0  0  0
   -5.1122   -3.5367    0.5522 H   0  0  0  0  0  0  0  0  0  0  0  0
   -4.2448   -3.6841   -2.3969 H   0  0  0  0  0  0  0  0  0  0  0  0
   -5.3153   -4.8367   -1.5902 H   0  0  0  0  0  0  0  0  0  0  0  0
   -5.8321   -3.1558   -1.8213 H   0  0  0  0  0  0  0  0  0  0  0  0
   -3.5070   -5.5440    0.5147 N   0  0  0  0  0  0  0  0  0  0  0  0
   -2.5315   -6.5507    0.8624 C   0  0  0  0  0  0  0  0  0  0  0  0
   -4.4886   -5.7703    0.6451 H   0  0  0  0  0  0  0  0  0  0  0  0
   -2.3254   -7.1810   -0.0153 H   0  0  0  0  0  0  0  0  0  0  0  0
   -1.6016   -6.0626    1.1895 H   0  0  0  0  0  0  0  0  0  0  0  0
   -2.9242   -7.1755    1.6781 H   0  0  0  0  0  0  0  0  0  0  0  0
  1  3  1  0  0  0  0
  1  7  1  0  0  0  0
  1  2  2  0  0  0  0
 29 30  1  0  0  0  0
 30 38  1  0  0  0  0
 30 31  2  0  0  0  0
  8  9  1  0  0  0  0
  9 17  1  0  0  0  0
  9 10  2  0  0  0  0
 18 19  1  0  0  0  0
 19 28  1  0  0  0  0
 19 20  2  0  0  0  0
 29 32  1  0  0  0  0
  8 11  1  0  0  0  0
 38 39  1  0  0  0  0
 18 21  1  0  0  0  0
 21 22  1  0  0  0  0
 28 29  1  0  0  0  0
  7  8  1  0  0  0  0
 17 18  1  0  0  0  0
  3  4  1  0  0  0  0
  3  5  1  0  0  0  0
  3  6  1  0  0  0  0
 32 35  1  0  0  0  0
 32 36  1  0  0  0  0
 32 37  1  0  0  0  0
 11 14  1  0  0  0  0
 11 15  1  0  0  0  0
 11 16  1  0  0  0  0
 39 41  1  0  0  0  0
 39 42  1  0  0  0  0
 39 43  1  0  0  0  0
 21 25  1  0  0  0  0
 21 26  1  0  0  0  0
 29 34  1  0  0  0  0
  8 13  1  0  0  0  0
 18 24  1  0  0  0  0
 38 40  1  0  0  0  0
  7 12  1  0  0  0  0
 28 33  1  0  0  0  0
 17 23  1  0  0  0  0
 22 27  1  0  0  0  0
M  END
$$$$

  -OEChem-05262214473D

 43 42  0     1  0  0  0  0  0999 V2000
    0.7424   -1.0926    4.5665 C   0  0  0  0  0  0  0  0  0  0  0  0
    0.1409   -0.5364    5.4779 O   0  0  0  0  0  0  0  0  0  0  0  0
    1.7940   -2.1023    4.8871 C   0  0  0  0  0  0  0  0  0  0  0  0
    2.7935   -1.6502    4.9904 H   0  0  0  0  0  0  0  0  0  0  0  0
    1.6064   -2.6156    5.8438 H   0  0  0  0  0  0  0  0  0  0  0  0
    1.9156   -2.9078    4.1453 H   0  0  0  0  0  0  0  0  0  0  0  0
    0.5488   -0.8838    3.2109 N   0  0  0  0  0  0  0  0  0  0  0  0
   -0.4159    0.0446    2.6829 C   0  0  2  0  0  0  0  0  0  0  0  0
   -0.7551   -0.3867    1.2623 C   0  0  0  0  0  0  0  0  0  0  0  0
   -0.0106   -1.0851    0.5774 O   0  0  0  0  0  0  0  0  0  0  0  0
    0.1168    1.4689    2.7060 C   0  0  0  0  0  0  0  0  0  0  0  0
    1.1183   -1.4145    2.5542 H   0  0  0  0  0  0  0  0  0  0  0  0
   -1.3088   -0.0350    3.3125 H   0  0  0  0  0  0  0  0  0  0  0  0
    1.0116    1.5681    2.0808 H   0  0  0  0  0  0  0  0  0  0  0  0
   -0.6289    2.1775    2.3307 H   0  0  0  0  0  0  0  0  0  0  0  0
    0.3882    1.7670    3.7245 H   0  0  0  0  0  0  0  0  0  0  0  0
   -1.9689    0.1350    0.8298 N   0  0  0  0  0  0  0  0  0  0  0  0
   -2.5039   -0.1183   -0.4830 C   0  0  2  0  0  0  0  0  0  0  0  0
   -2.6945   -1.6232   -0.6381 C   0  0  0  0  0  0  0  0  0  0  0  0
   -1.7577   -2.4054   -0.7859 O   0  0  0  0  0  0  0  0  0  0  0  0
   -1.6121    0.4598   -1.5771 C   0  0  0  0  0  0  0  0  0  0  0  0
   -0.3611   -0.2183   -1.6027 O   0  0  0  0  0  0  0  0  0  0  0  0
   -2.5276    0.6894    1.4750 H   0  0  0  0  0  0  0  0  0  0  0  0
   -3.4855    0.3683   -0.5151 H   0  0  0  0  0  0  0  0  0  0  0  0
   -1.4181    1.5234   -1.4053 H   0  0  0  0  0  0  0  0  0  0  0  0
   -2.0825    0.3429   -2.5592 H   0  0  0  0  0  0  0  0  0  0  0  0
   -0.5545   -1.1524   -1.7803 H   0  0  0  0  0  0  0  0  0  0  0  0
   -4.0291   -1.9925   -0.5489 N   0  0  0  0  0  0  0  0  0  0  0  0
   -4.4682   -3.3660   -0.6337 C   0  0  2  0  0  0  0  0  0  0  0  0
   -3.3967   -4.2424    0.0015 C   0  0  0  0  0  0  0  0  0  0  0  0
   -2.2251   -3.8897    0.1199 O   0  0  0  0  0  0  0  0  0  0  0  0
   -4.7227   -3.7775   -2.0755 C   0  0  0  0  0  0  0  0  0  0  0  0
   -4.7344   -1.2801   -0.3856 H   0  0  0  0  0  0  0  0  0  0  0  0
   -5.3931   -3.4390   -0.0512 H   0  0  0  0  0  0  0  0  0  0  0  0
   -3.8073   -3.7109   -2.6747 H   0  0  0  0  0  0  0  0  0  0  0  0
   -5.0827   -4.8099   -2.1358 H   0  0  0  0  0  0  0  0  0  0  0  0
   -5.4719   -3.1274   -2.5399 H   0  0  0  0  0  0  0  0  0  0  0  0
   -3.8935   -5.4813    0.3814 N   0  0  0  0  0  0  0  0  0  0  0  0
   -3.0700   -6.4963    0.9960 C   0  0  0  0  0  0  0  0  0  0  0  0
   -4.8823   -5.6810    0.2627 H   0  0  0  0  0  0  0  0  0  0  0  0
   -2.6664   -7.1620    0.2188 H   0  0  0  0  0  0  0  0  0  0  0  0
   -2.2399   -6.0175    1.5359 H   0  0  0  0  0  0  0  0  0  0  0  0
   -3.6767   -7.0826    1.7018 H   0  0  0  0  0  0  0  0  0  0  0  0
  1  3  1  0  0  0  0
  1  7  1  0  0  0  0
  1  2  2  0  0  0  0
 29 30  1  0  0  0  0
 30 38  1  0  0  0  0
 30 31  2  0  0  0  0
  8  9  1  0  0  0  0
  9 17  1  0  0  0  0
  9 10  2  0  0  0  0
 18 19  1  0  0  0  0
 19 28  1  0  0  0  0
 19 20  2  0  0  0  0
 29 32  1  0  0  0  0
  8 11  1  0  0  0  0
 38 39  1  0  0  0  0
 18 21  1  0  0  0  0
 21 22  1  0  0  0  0
 28 29  1  0  0  0  0
  7  8  1  0  0  0  0
 17 18  1  0  0  0  0
  3  4  1  0  0  0  0
  3  5  1  0  0  0  0
  3  6  1  0  0  0  0
 32 35  1  0  0  0  0
 32 36  1  0  0  0  0
 32 37  1  0  0  0  0
 11 14  1  0  0  0  0
 11 15  1  0  0  0  0
 11 16  1  0  0  0  0
 39 41  1  0  0  0  0
 39 42  1  0  0  0  0
 39 43  1  0  0  0  0
 21 25  1  0  0  0  0
 21 26  1  0  0  0  0
 29 34  1  0  0  0  0
  8 13  1  0  0  0  0
 18 24  1  0  0  0  0
 38 40  1  0  0  0  0
  7 12  1  0  0  0  0
 28 33  1  0  0  0  0
 17 23  1  0  0  0  0
 22 27  1  0  0  0  0
M  END
$$$$

  -OEChem-05262214473D

 43 42  0     1  0  0  0  0  0999 V2000
    0.7424   -1.0926    4.5665 C   0  0  0  0  0  0  0  0  0  0  0  0
    0.1409   -0.5364    5.4779 O   0  0  0  0  0  0  0  0  0  0  0  0
    1.7940   -2.1023    4.8871 C   0  0  0  0  0  0  0  0  0  0  0  0
    2.7935   -1.6502    4.9904 H   0  0  0  0  0  0  0  0  0  0  0  0
    1.6064   -2.6156    5.8438 H   0  0  0  0  0  0  0  0  0  0  0  0
    1.9156   -2.9078    4.1453 H   0  0  0  0  0  0  0  0  0  0  0  0
    0.5488   -0.8838    3.2109 N   0  0  0  0  0  0  0  0  0  0  0  0
   -0.4159    0.0446    2.6829 C   0  0  2  0  0  0  0  0  0  0  0  0
   -0.7551   -0.3867    1.2623 C   0  0  0  0  0  0  0  0  0  0  0  0
   -0.0106   -1.0851    0.5774 O   0  0  0  0  0  0  0  0  0  0  0  0
    0.1168    1.4689    2.7060 C   0  0  0  0  0  0  0  0  0  0  0  0
    1.1183   -1.4145    2.5542 H   0  0  0  0  0  0  0  0  0  0  0  0
   -1.3088   -0.0350    3.3125 H   0  0  0  0  0  0  0  0  0  0  0  0
    1.0116    1.5681    2.0808 H   0  0  0  0  0  0  0  0  0  0  0  0
   -0.6289    2.1775    2.3307 H   0  0  0  0  0  0  0  0  0  0  0  0
    0.3882    1.7670    3.7245 H   0  0  0  0  0  0  0  0  0  0  0  0
   -1.9689    0.1350    0.8298 N   0  0  0  0  0  0  0  0  0  0  0  0
   -2.5039   -0.1183   -0.4830 C   0  0  2  0  0  0  0  0  0  0  0  0
   -2.6945   -1.6232   -0.6381 C   0  0  0  0  0  0  0  0  0  0  0  0
   -1.7753   -2.4307   -0.5186 O   0  0  0  0  0  0  0  0  0  0  0  0
   -1.6121    0.4598   -1.5771 C   0  0  0  0  0  0  0  0  0  0  0  0
   -0.3611   -0.2183   -1.6027 O   0  0  0  0  0  0  0  0  0  0  0  0
   -2.5276    0.6894    1.4750 H   0  0  0  0  0  0  0  0  0  0  0  0
   -3.4855    0.3683   -0.5151 H   0  0  0  0  0  0  0  0  0  0  0  0
   -1.4181    1.5234   -1.4053 H   0  0  0  0  0  0  0  0  0  0  0  0
   -2.0825    0.3429   -2.5592 H   0  0  0  0  0  0  0  0  0  0  0  0
   -0.5545   -1.1524   -1.7803 H   0  0  0  0  0  0  0  0  0  0  0  0
   -4.0184   -1.9594   -0.8827 N   0  0  0  0  0  0  0  0  0  0  0  0
   -4.4630   -3.3251   -1.0373 C   0  0  2  0  0  0  0  0  0  0  0  0
   -3.6162   -4.2016   -0.1240 C   0  0  0  0  0  0  0  0  0  0  0  0
   -2.5033   -3.8710    0.2800 O   0  0  0  0  0  0  0  0  0  0  0  0
   -4.3539   -3.7821   -2.4836 C   0  0  0  0  0  0  0  0  0  0  0  0
   -4.7199   -1.2262   -0.9260 H   0  0  0  0  0  0  0  0  0  0  0  0
   -5.5077   -3.3566   -0.7090 H   0  0  0  0  0  0  0  0  0  0  0  0
   -3.3144   -3.7572   -2.8303 H   0  0  0  0  0  0  0  0  0  0  0  0
   -4.7180   -4.8078   -2.6042 H   0  0  0  0  0  0  0  0  0  0  0  0
   -4.9398   -3.1326   -3.1429 H   0  0  0  0  0  0  0  0  0  0  0  0
   -4.2310   -5.4149    0.1518 N   0  0  0  0  0  0  0  0  0  0  0  0
   -3.6230   -6.4252    0.9857 C   0  0  0  0  0  0  0  0  0  0  0  0
   -5.1625   -5.5968   -0.2101 H   0  0  0  0  0  0  0  0  0  0  0  0
   -3.0550   -7.1270    0.3573 H   0  0  0  0  0  0  0  0  0  0  0  0
   -2.9437   -5.9459    1.7060 H   0  0  0  0  0  0  0  0  0  0  0  0
   -4.4072   -6.9724    1.5295 H   0  0  0  0  0  0  0  0  0  0  0  0
  1  3  1  0  0  0  0
  1  7  1  0  0  0  0
  1  2  2  0  0  0  0
 29 30  1  0  0  0  0
 30 38  1  0  0  0  0
 30 31  2  0  0  0  0
  8  9  1  0  0  0  0
  9 17  1  0  0  0  0
  9 10  2  0  0  0  0
 18 19  1  0  0  0  0
 19 28  1  0  0  0  0
 19 20  2  0  0  0  0
 29 32  1  0  0  0  0
  8 11  1  0  0  0  0
 38 39  1  0  0  0  0
 18 21  1  0  0  0  0
 21 22  1  0  0  0  0
 28 29  1  0  0  0  0
  7  8  1  0  0  0  0
 17 18  1  0  0  0  0
  3  4  1  0  0  0  0
  3  5  1  0  0  0  0
  3  6  1  0  0  0  0
 32 35  1  0  0  0  0
 32 36  1  0  0  0  0
 32 37  1  0  0  0  0
 11 14  1  0  0  0  0
 11 15  1  0  0  0  0
 11 16  1  0  0  0  0
 39 41  1  0  0  0  0
 39 42  1  0  0  0  0
 39 43  1  0  0  0  0
 21 25  1  0  0  0  0
 21 26  1  0  0  0  0
 29 34  1  0  0  0  0
  8 13  1  0  0  0  0
 18 24  1  0  0  0  0
 38 40  1  0  0  0  0
  7 12  1  0  0  0  0
 28 33  1  0  0  0  0
 17 23  1  0  0  0  0
 22 27  1  0  0  0  0
M  END
$$$$

  -OEChem-05262214473D

 43 42  0     1  0  0  0  0  0999 V2000
    0.7424   -1.0926    4.5665 C   0  0  0  0  0  0  0  0  0  0  0  0
    0.1409   -0.5364    5.4779 O   0  0  0  0  0  0  0  0  0  0  0  0
    1.7940   -2.1023    4.8871 C   0  0  0  0  0  0  0  0  0  0  0  0
    2.7935   -1.6502    4.9904 H   0  0  0  0  0  0  0  0  0  0  0  0
    1.6064   -2.6156    5.8438 H   0  0  0  0  0  0  0  0  0  0  0  0
    1.9156   -2.9078    4.1453 H   0  0  0  0  0  0  0  0  0  0  0  0
    0.5488   -0.8838    3.2109 N   0  0  0  0  0  0  0  0  0  0  0  0
   -0.4159    0.0446    2.6829 C   0  0  2  0  0  0  0  0  0  0  0  0
   -0.7551   -0.3867    1.2623 C   0  0  0  0  0  0  0  0  0  0  0  0
   -0.0106   -1.0851    0.5774 O   0  0  0  0  0  0  0  0  0  0  0  0
    0.1168    1.4689    2.7060 C   0  0  0  0  0  0  0  0  0  0  0  0
    1.1183   -1.4145    2.5542 H   0  0  0  0  0  0  0  0  0  0  0  0
   -1.3088   -0.0350    3.3125 H   0  0  0  0  0  0  0  0  0  0  0  0
    1.0116    1.5681    2.0808 H   0  0  0  0  0  0  0  0  0  0  0  0
   -0.6289    2.1775    2.3307 H   0  0  0  0  0  0  0  0  0  0  0  0
    0.3882    1.7670    3.7245 H   0  0  0  0  0  0  0  0  0  0  0  0
   -1.9689    0.1350    0.8298 N   0  0  0  0  0  0  0  0  0  0  0  0
   -2.5039   -0.1183   -0.4830 C   0  0  2  0  0  0  0  0  0  0  0  0
   -2.6945   -1.6232   -0.6381 C   0  0  0  0  0  0  0  0  0  0  0  0
   -1.8613   -2.4460   -0.2641 O   0  0  0  0  0  0  0  0  0  0  0  0
   -1.6121    0.4598   -1.5771 C   0  0  0  0  0  0  0  0  0  0  0  0
   -0.3611   -0.2183   -1.6027 O   0  0  0  0  0  0  0  0  0  0  0  0
   -2.5276    0.6894    1.4750 H   0  0  0  0  0  0  0  0  0  0  0  0
   -3.4855    0.3683   -0.5151 H   0  0  0  0  0  0  0  0  0  0  0  0
   -1.4181    1.5234   -1.4053 H   0  0  0  0  0  0  0  0  0  0  0  0
   -2.0825    0.3429   -2.5592 H   0  0  0  0  0  0  0  0  0  0  0  0
   -0.5545   -1.1524   -1.7803 H   0  0  0  0  0  0  0  0  0  0  0  0
   -3.9219   -1.9386   -1.2035 N   0  0  0  0  0  0  0  0  0  0  0  0
   -4.3539   -3.2987   -1.4272 C   0  0  2  0  0  0  0  0  0  0  0  0
   -3.7952   -4.1606   -0.3027 C   0  0  0  0  0  0  0  0  0  0  0  0
   -2.8125   -3.8404    0.3629 O   0  0  0  0  0  0  0  0  0  0  0  0
   -3.8936   -3.8095   -2.7836 C   0  0  0  0  0  0  0  0  0  0  0  0
   -4.5665   -1.1920   -1.4460 H   0  0  0  0  0  0  0  0  0  0  0  0
   -5.4482   -3.2954   -1.3763 H   0  0  0  0  0  0  0  0  0  0  0  0
   -2.7997   -3.8200   -2.8533 H   0  0  0  0  0  0  0  0  0  0  0  0
   -4.2460   -4.8305   -2.9635 H   0  0  0  0  0  0  0  0  0  0  0  0
   -4.2718   -3.1711   -3.5893 H   0  0  0  0  0  0  0  0  0  0  0  0
   -4.4967   -5.3493   -0.1583 N   0  0  0  0  0  0  0  0  0  0  0  0
   -4.1526   -6.3424    0.8323 C   0  0  0  0  0  0  0  0  0  0  0  0
   -5.3102   -5.5233   -0.7411 H   0  0  0  0  0  0  0  0  0  0  0  0
   -3.4648   -7.0786    0.3907 H   0  0  0  0  0  0  0  0  0  0  0  0
   -3.6651   -5.8527    1.6882 H   0  0  0  0  0  0  0  0  0  0  0  0
   -5.0658   -6.8522    1.1729 H   0  0  0  0  0  0  0  0  0  0  0  0
  1  3  1  0  0  0  0
  1  7  1  0  0  0  0
  1  2  2  0  0  0  0
 29 30  1  0  0  0  0
 30 38  1  0  0  0  0
 30 31  2  0  0  0  0
  8  9  1  0  0  0  0
  9 17  1  0  0  0  0
  9 10  2  0  0  0  0
 18 19  1  0  0  0  0
 19 28  1  0  0  0  0
 19 20  2  0  0  0  0
 29 32  1  0  0  0  0
  8 11  1  0  0  0  0
 38 39  1  0  0  0  0
 18 21  1  0  0  0  0
 21 22  1  0  0  0  0
 28 29  1  0  0  0  0
  7  8  1  0  0  0  0
 17 18  1  0  0  0  0
  3  4  1  0  0  0  0
  3  5  1  0  0  0  0
  3  6  1  0  0  0  0
 32 35  1  0  0  0  0
 32 36  1  0  0  0  0
 32 37  1  0  0  0  0
 11 14  1  0  0  0  0
 11 15  1  0  0  0  0
 11 16  1  0  0  0  0
 39 41  1  0  0  0  0
 39 42  1  0  0  0  0
 39 43  1  0  0  0  0
 21 25  1  0  0  0  0
 21 26  1  0  0  0  0
 29 34  1  0  0  0  0
  8 13  1  0  0  0  0
 18 24  1  0  0  0  0
 38 40  1  0  0  0  0
  7 12  1  0  0  0  0
 28 33  1  0  0  0  0
 17 23  1  0  0  0  0
 22 27  1  0  0  0  0
M  END
$$$$

  -OEChem-05262214473D

 43 42  0     1  0  0  0  0  0999 V2000
    0.7424   -1.0926    4.5665 C   0  0  0  0  0  0  0  0  0  0  0  0
    0.1409   -0.5364    5.4779 O   0  0  0  0  0  0  0  0  0  0  0  0
    1.7940   -2.1023    4.8871 C   0  0  0  0  0  0  0  0  0  0  0  0
    2.7935   -1.6502    4.9904 H   0  0  0  0  0  0  0  0  0  0  0  0
    1.6064   -2.6156    5.8438 H   0  0  0  0  0  0  0  0  0  0  0  0
    1.9156   -2.9078    4.1453 H   0  0  0  0  0  0  0  0  0  0  0  0
    0.5488   -0.8838    3.2109 N   0  0  0  0  0  0  0  0  0  0  0  0
   -0.4159    0.0446    2.6829 C   0  0  2  0  0  0  0  0  0  0  0  0
   -0.7551   -0.3867    1.2623 C   0  0  0  0  0  0  0  0  0  0  0  0
   -0.0106   -1.0851    0.5774 O   0  0  0  0  0  0  0  0  0  0  0  0
    0.1168    1.4689    2.7060 C   0  0  0  0  0  0  0  0  0  0  0  0
    1.1183   -1.4145    2.5542 H   0  0  0  0  0  0  0  0  0  0  0  0
   -1.3088   -0.0350    3.3125 H   0  0  0  0  0  0  0  0  0  0  0  0
    1.0116    1.5681    2.0808 H   0  0  0  0  0  0  0  0  0  0  0  0
   -0.6289    2.1775    2.3307 H   0  0  0  0  0  0  0  0  0  0  0  0
    0.3882    1.7670    3.7245 H   0  0  0  0  0  0  0  0  0  0  0  0
   -1.9689    0.1350    0.8298 N   0  0  0  0  0  0  0  0  0  0  0  0
   -2.5039   -0.1183   -0.4830 C   0  0  2  0  0  0  0  0  0  0  0  0
   -2.6945   -1.6232   -0.6381 C   0  0  0  0  0  0  0  0  0  0  0  0
   -2.0097   -2.4504   -0.0398 O   0  0  0  0  0  0  0  0  0  0  0  0
   -1.6121    0.4598   -1.5771 C   0  0  0  0  0  0  0  0  0  0  0  0
   -0.3611   -0.2183   -1.6027 O   0  0  0  0  0  0  0  0  0  0  0  0
   -2.5276    0.6894    1.4750 H   0  0  0  0  0  0  0  0  0  0  0  0
   -3.4855    0.3683   -0.5151 H   0  0  0  0  0  0  0  0  0  0  0  0
   -1.4181    1.5234   -1.4053 H   0  0  0  0  0  0  0  0  0  0  0  0
   -2.0825    0.3429   -2.5592 H   0  0  0  0  0  0  0  0  0  0  0  0
   -0.5545   -1.1524   -1.7803 H   0  0  0  0  0  0  0  0  0  0  0  0
   -3.7462   -1.9314   -1.4894 N   0  0  0  0  0  0  0  0  0  0  0  0
   -4.1482   -3.2887   -1.7767 C   0  0  2  0  0  0  0  0  0  0  0  0
   -3.9213   -4.1219   -0.5222 C   0  0  0  0  0  0  0  0  0  0  0  0
   -3.1315   -3.8000    0.3631 O   0  0  0  0  0  0  0  0  0  0  0  0
   -3.3730   -3.8578   -2.9548 C   0  0  0  0  0  0  0  0  0  0  0  0
   -4.2845   -1.1798   -1.9103 H   0  0  0  0  0  0  0  0  0  0  0  0
   -5.2186   -3.2594   -2.0076 H   0  0  0  0  0  0  0  0  0  0  0  0
   -2.2984   -3.8950   -2.7420 H   0  0  0  0  0  0  0  0  0  0  0  0
   -3.6990   -4.8765   -3.1894 H   0  0  0  0  0  0  0  0  0  0  0  0
   -3.5136   -3.2404   -3.8486 H   0  0  0  0  0  0  0  0  0  0  0  0
   -4.6724   -5.2890   -0.5279 N   0  0  0  0  0  0  0  0  0  0  0  0
   -4.6227   -6.2533    0.5461 C   0  0  0  0  0  0  0  0  0  0  0  0
   -5.3153   -5.4657   -1.2942 H   0  0  0  0  0  0  0  0  0  0  0  0
   -3.8679   -7.0199    0.3167 H   0  0  0  0  0  0  0  0  0  0  0  0
   -4.3549   -5.7443    1.4837 H   0  0  0  0  0  0  0  0  0  0  0  0
   -5.6078   -6.7303    0.6563 H   0  0  0  0  0  0  0  0  0  0  0  0
  1  3  1  0  0  0  0
  1  7  1  0  0  0  0
  1  2  2  0  0  0  0
 29 30  1  0  0  0  0
 30 38  1  0  0  0  0
 30 31  2  0  0  0  0
  8  9  1  0  0  0  0
  9 17  1  0  0  0  0
  9 10  2  0  0  0  0
 18 19  1  0  0  0  0
 19 28  1  0  0  0  0
 19 20  2  0  0  0  0
 29 32  1  0  0  0  0
  8 11  1  0  0  0  0
 38 39  1  0  0  0  0
 18 21  1  0  0  0  0
 21 22  1  0  0  0  0
 28 29  1  0  0  0  0
  7  8  1  0  0  0  0
 17 18  1  0  0  0  0
  3  4  1  0  0  0  0
  3  5  1  0  0  0  0
  3  6  1  0  0  0  0
 32 35  1  0  0  0  0
 32 36  1  0  0  0  0
 32 37  1  0  0  0  0
 11 14  1  0  0  0  0
 11 15  1  0  0  0  0
 11 16  1  0  0  0  0
 39 41  1  0  0  0  0
 39 42  1  0  0  0  0
 39 43  1  0  0  0  0
 21 25  1  0  0  0  0
 21 26  1  0  0  0  0
 29 34  1  0  0  0  0
  8 13  1  0  0  0  0
 18 24  1  0  0  0  0
 38 40  1  0  0  0  0
  7 12  1  0  0  0  0
 28 33  1  0  0  0  0
 17 23  1  0  0  0  0
 22 27  1  0  0  0  0
M  END
$$$$

  -OEChem-05262214473D

 43 42  0     1  0  0  0  0  0999 V2000
    0.7424   -1.0926    4.5665 C   0  0  0  0  0  0  0  0  0  0  0  0
    0.1409   -0.5364    5.4779 O   0  0  0  0  0  0  0  0  0  0  0  0
    1.7940   -2.1023    4.8871 C   0  0  0  0  0  0  0  0  0  0  0  0
    2.7935   -1.6502    4.9904 H   0  0  0  0  0  0  0  0  0  0  0  0
    1.6064   -2.6156    5.8438 H   0  0  0  0  0  0  0  0  0  0  0  0
    1.9156   -2.9078    4.1453 H   0  0  0  0  0  0  0  0  0  0  0  0
    0.5488   -0.8838    3.2109 N   0  0  0  0  0  0  0  0  0  0  0  0
   -0.4159    0.0446    2.6829 C   0  0  2  0  0  0  0  0  0  0  0  0
   -0.7551   -0.3867    1.2623 C   0  0  0  0  0  0  0  0  0  0  0  0
   -0.0106   -1.0851    0.5774 O   0  0  0  0  0  0  0  0  0  0  0  0
    0.1168    1.4689    2.7060 C   0  0  0  0  0  0  0  0  0  0  0  0
    1.1183   -1.4145    2.5542 H   0  0  0  0  0  0  0  0  0  0  0  0
   -1.3088   -0.0350    3.3125 H   0  0  0  0  0  0  0  0  0  0  0  0
    1.0116    1.5681    2.0808 H   0  0  0  0  0  0  0  0  0  0  0  0
   -0.6289    2.1775    2.3307 H   0  0  0  0  0  0  0  0  0  0  0  0
    0.3882    1.7670    3.7245 H   0  0  0  0  0  0  0  0  0  0  0  0
   -1.9689    0.1350    0.8298 N   0  0  0  0  0  0  0  0  0  0  0  0
   -2.5039   -0.1183   -0.4830 C   0  0  2  0  0  0  0  0  0  0  0  0
   -2.6945   -1.6232   -0.6381 C   0  0  0  0  0  0  0  0  0  0  0  0
   -2.2106   -2.4434    0.1392 O   0  0  0  0  0  0  0  0  0  0  0  0
   -1.6121    0.4598   -1.5771 C   0  0  0  0  0  0  0  0  0  0  0  0
   -0.3611   -0.2183   -1.6027 O   0  0  0  0  0  0  0  0  0  0  0  0
   -2.5276    0.6894    1.4750 H   0  0  0  0  0  0  0  0  0  0  0  0
   -3.4855    0.3683   -0.5151 H   0  0  0  0  0  0  0  0  0  0  0  0
   -1.4181    1.5234   -1.4053 H   0  0  0  0  0  0  0  0  0  0  0  0
   -2.0825    0.3429   -2.5592 H   0  0  0  0  0  0  0  0  0  0  0  0
   -0.5545   -1.1524   -1.7803 H   0  0  0  0  0  0  0  0  0  0  0  0
   -3.5033   -1.9383   -1.7209 N   0  0  0  0  0  0  0  0  0  0  0  0
   -3.8600   -3.2958   -2.0621 C   0  0  2  0  0  0  0  0  0  0  0  0
   -3.9860   -4.0884   -0.7678 C   0  0  0  0  0  0  0  0  0  0  0  0
   -3.4387   -3.7526    0.2805 O   0  0  0  0  0  0  0  0  0  0  0  0
   -2.8277   -3.9236   -2.9857 C   0  0  0  0  0  0  0  0  0  0  0  0
   -3.8932   -1.1905   -2.2870 H   0  0  0  0  0  0  0  0  0  0  0  0
   -4.8347   -3.2510   -2.5600 H   0  0  0  0  0  0  0  0  0  0  0  0
   -1.8446   -3.9770   -2.5040 H   0  0  0  0  0  0  0  0  0  0  0  0
   -3.1140   -4.9426   -3.2663 H   0  0  0  0  0  0  0  0  0  0  0  0
   -2.7169   -3.3357   -3.9032 H   0  0  0  0  0  0  0  0  0  0  0  0
   -4.7461   -5.2380   -0.9317 N   0  0  0  0  0  0  0  0  0  0  0  0
   -5.0014   -6.1642    0.1467 C   0  0  0  0  0  0  0  0  0  0  0  0
   -5.1775   -5.4277   -1.8315 H   0  0  0  0  0  0  0  0  0  0  0  0
   -4.2368   -6.9550    0.1403 H   0  0  0  0  0  0  0  0  0  0  0  0
   -4.9661   -5.6280    1.1065 H   0  0  0  0  0  0  0  0  0  0  0  0
   -5.9961   -6.6150    0.0149 H   0  0  0  0  0  0  0  0  0  0  0  0
  1  3  1  0  0  0  0
  1  7  1  0  0  0  0
  1  2  2  0  0  0  0
 29 30  1  0  0  0  0
 30 38  1  0  0  0  0
 30 31  2  0  0  0  0
  8  9  1  0  0  0  0
  9 17  1  0  0  0  0
  9 10  2  0  0  0  0
 18 19  1  0  0  0  0
 19 28  1  0  0  0  0
 19 20  2  0  0  0  0
 29 32  1  0  0  0  0
  8 11  1  0  0  0  0
 38 39  1  0  0  0  0
 18 21  1  0  0  0  0
 21 22  1  0  0  0  0
 28 29  1  0  0  0  0
  7  8  1  0  0  0  0
 17 18  1  0  0  0  0
  3  4  1  0  0  0  0
  3  5  1  0  0  0  0
  3  6  1  0  0  0  0
 32 35  1  0  0  0  0
 32 36  1  0  0  0  0
 32 37  1  0  0  0  0
 11 14  1  0  0  0  0
 11 15  1  0  0  0  0
 11 16  1  0  0  0  0
 39 41  1  0  0  0  0
 39 42  1  0  0  0  0
 39 43  1  0  0  0  0
 21 25  1  0  0  0  0
 21 26  1  0  0  0  0
 29 34  1  0  0  0  0
  8 13  1  0  0  0  0
 18 24  1  0  0  0  0
 38 40  1  0  0  0  0
  7 12  1  0  0  0  0
 28 33  1  0  0  0  0
 17 23  1  0  0  0  0
 22 27  1  0  0  0  0
M  END
$$$$

  -OEChem-05262214473D

 43 42  0     1  0  0  0  0  0999 V2000
    0.7424   -1.0926    4.5665 C   0  0  0  0  0  0  0  0  0  0  0  0
    0.1409   -0.5364    5.4779 O   0  0  0  0  0  0  0  0  0  0  0  0
    1.7940   -2.1023    4.8871 C   0  0  0  0  0  0  0  0  0  0  0  0
    2.7935   -1.6502    4.9904 H   0  0  0  0  0  0  0  0  0  0  0  0
    1.6064   -2.6156    5.8438 H   0  0  0  0  0  0  0  0  0  0  0  0
    1.9156   -2.9078    4.1453 H   0  0  0  0  0  0  0  0  0  0  0  0
    0.5488   -0.8838    3.2109 N   0  0  0  0  0  0  0  0  0  0  0  0
   -0.4159    0.0446    2.6829 C   0  0  2  0  0  0  0  0  0  0  0  0
   -0.7551   -0.3867    1.2623 C   0  0  0  0  0  0  0  0  0  0  0  0
   -0.0106   -1.0851    0.5774 O   0  0  0  0  0  0  0  0  0  0  0  0
    0.1168    1.4689    2.7060 C   0  0  0  0  0  0  0  0  0  0  0  0
    1.1183   -1.4145    2.5542 H   0  0  0  0  0  0  0  0  0  0  0  0
   -1.3088   -0.0350    3.3125 H   0  0  0  0  0  0  0  0  0  0  0  0
    1.0116    1.5681    2.0808 H   0  0  0  0  0  0  0  0  0  0  0  0
   -0.6289    2.1775    2.3307 H   0  0  0  0  0  0  0  0  0  0  0  0
    0.3882    1.7670    3.7245 H   0  0  0  0  0  0  0  0  0  0  0  0
   -1.9689    0.1350    0.8298 N   0  0  0  0  0  0  0  0  0  0  0  0
   -2.5039   -0.1183   -0.4830 C   0  0  2  0  0  0  0  0  0  0  0  0
   -3.0420   -1.5447   -0.5117 C   0  0  0  0  0  0  0  0  0  0  0  0
   -3.0264   -2.2864    0.4685 O   0  0  0  0  0  0  0  0  0  0  0  0
   -1.4634    0.1211   -1.5723 C   0  0  0  0  0  0  0  0  0  0  0  0
   -0.4098   -0.8296   -1.4649 O   0  0  0  0  0  0  0  0  0  0  0  0
   -2.5276    0.6894    1.4750 H   0  0  0  0  0  0  0  0  0  0  0  0
   -3.3397    0.5784   -0.6151 H   0  0  0  0  0  0  0  0  0  0  0  0
   -1.0276    1.1217   -1.4869 H   0  0  0  0  0  0  0  0  0  0  0  0
   -1.9145    0.0182   -2.5650 H   0  0  0  0  0  0  0  0  0  0  0  0
   -0.8140   -1.7057   -1.5678 H   0  0  0  0  0  0  0  0  0  0  0  0
   -3.5797   -1.8753   -1.7475 N   0  0  0  0  0  0  0  0  0  0  0  0
   -4.1812   -3.1598   -2.0207 C   0  0  2  0  0  0  0  0  0  0  0  0
   -4.8624   -3.6408   -0.7463 C   0  0  0  0  0  0  0  0  0  0  0  0
   -4.5514   -3.2392    0.3731 O   0  0  0  0  0  0  0  0  0  0  0  0
   -3.1449   -4.1662   -2.4961 C   0  0  0  0  0  0  0  0  0  0  0  0
   -3.5854   -1.1830   -2.4908 H   0  0  0  0  0  0  0  0  0  0  0  0
   -4.9346   -2.9971   -2.7992 H   0  0  0  0  0  0  0  0  0  0  0  0
   -2.3816   -4.3421   -1.7294 H   0  0  0  0  0  0  0  0  0  0  0  0
   -3.6069   -5.1310   -2.7301 H   0  0  0  0  0  0  0  0  0  0  0  0
   -2.6351   -3.8051   -3.3959 H   0  0  0  0  0  0  0  0  0  0  0  0
   -5.8290   -4.6031   -1.0025 N   0  0  0  0  0  0  0  0  0  0  0  0
   -6.6069   -5.2247    0.0438 C   0  0  0  0  0  0  0  0  0  0  0  0
   -6.0340   -4.8622   -1.9630 H   0  0  0  0  0  0  0  0  0  0  0  0
   -6.1110   -6.1511    0.3690 H   0  0  0  0  0  0  0  0  0  0  0  0
   -6.6911   -4.5352    0.8967 H   0  0  0  0  0  0  0  0  0  0  0  0
   -7.6113   -5.4609   -0.3374 H   0  0  0  0  0  0  0  0  0  0  0  0
  1  3  1  0  0  0  0
  1  7  1  0  0  0  0
  1  2  2  0  0  0  0
 29 30  1  0  0  0  0
 30 38  1  0  0  0  0
 30 31  2  0  0  0  0
  8  9  1  0  0  0  0
  9 17  1  0  0  0  0
  9 10  2  0  0  0  0
 18 19  1  0  0  0  0
 19 28  1  0  0  0  0
 19 20  2  0  0  0  0
 29 32  1  0  0  0  0
  8 11  1  0  0  0  0
 38 39  1  0  0  0  0
 18 21  1  0  0  0  0
 21 22  1  0  0  0  0
 28 29  1  0  0  0  0
  7  8  1  0  0  0  0
 17 18  1  0  0  0  0
  3  4  1  0  0  0  0
  3  5  1  0  0  0  0
  3  6  1  0  0  0  0
 32 35  1  0  0  0  0
 32 36  1  0  0  0  0
 32 37  1  0  0  0  0
 11 14  1  0  0  0  0
 11 15  1  0  0  0  0
 11 16  1  0  0  0  0
 39 41  1  0  0  0  0
 39 42  1  0  0  0  0
 39 43  1  0  0  0  0
 21 25  1  0  0  0  0
 21 26  1  0  0  0  0
 29 34  1  0  0  0  0
  8 13  1  0  0  0  0
 18 24  1  0  0  0  0
 38 40  1  0  0  0  0
  7 12  1  0  0  0  0
 28 33  1  0  0  0  0
 17 23  1  0  0  0  0
 22 27  1  0  0  0  0
M  END
$$$$

  -OEChem-05262214473D

 43 42  0     1  0  0  0  0  0999 V2000
    0.7424   -1.0926    4.5665 C   0  0  0  0  0  0  0  0  0  0  0  0
    0.1409   -0.5364    5.4779 O   0  0  0  0  0  0  0  0  0  0  0  0
    1.7940   -2.1023    4.8871 C   0  0  0  0  0  0  0  0  0  0  0  0
    2.7935   -1.6502    4.9904 H   0  0  0  0  0  0  0  0  0  0  0  0
    1.6064   -2.6156    5.8438 H   0  0  0  0  0  0  0  0  0  0  0  0
    1.9156   -2.9078    4.1453 H   0  0  0  0  0  0  0  0  0  0  0  0
    0.5488   -0.8838    3.2109 N   0  0  0  0  0  0  0  0  0  0  0  0
   -0.4159    0.0446    2.6829 C   0  0  2  0  0  0  0  0  0  0  0  0
   -0.7551   -0.3867    1.2623 C   0  0  0  0  0  0  0  0  0  0  0  0
   -0.0106   -1.0851    0.5774 O   0  0  0  0  0  0  0  0  0  0  0  0
    0.1168    1.4689    2.7060 C   0  0  0  0  0  0  0  0  0  0  0  0
    1.1183   -1.4145    2.5542 H   0  0  0  0  0  0  0  0  0  0  0  0
   -1.3088   -0.0350    3.3125 H   0  0  0  0  0  0  0  0  0  0  0  0
    1.0116    1.5681    2.0808 H   0  0  0  0  0  0  0  0  0  0  0  0
   -0.6289    2.1775    2.3307 H   0  0  0  0  0  0  0  0  0  0  0  0
    0.3882    1.7670    3.7245 H   0  0  0  0  0  0  0  0  0  0  0  0
   -1.9689    0.1350    0.8298 N   0  0  0  0  0  0  0  0  0  0  0  0
   -2.5039   -0.1183   -0.4830 C   0  0  2  0  0  0  0  0  0  0  0  0
   -3.0420   -1.5447   -0.5117 C   0  0  0  0  0  0  0  0  0  0  0  0
   -3.2759   -2.1930    0.5062 O   0  0  0  0  0  0  0  0  0  0  0  0
   -1.4634    0.1211   -1.5723 C   0  0  0  0  0  0  0  0  0  0  0  0
   -0.4098   -0.8296   -1.4649 O   0  0  0  0  0  0  0  0  0  0  0  0
   -2.5276    0.6894    1.4750 H   0  0  0  0  0  0  0  0  0  0  0  0
   -3.3397    0.5784   -0.6151 H   0  0  0  0  0  0  0  0  0  0  0  0
   -1.0276    1.1217   -1.4869 H   0  0  0  0  0  0  0  0  0  0  0  0
   -1.9145    0.0182   -2.5650 H   0  0  0  0  0  0  0  0  0  0  0  0
   -0.8140   -1.7057   -1.5678 H   0  0  0  0  0  0  0  0  0  0  0  0
   -3.2701   -1.9909   -1.8057 N   0  0  0  0  0  0  0  0  0  0  0  0
   -3.8082   -3.2990   -2.0989 C   0  0  2  0  0  0  0  0  0  0  0  0
   -4.7851   -3.6650   -0.9893 C   0  0  0  0  0  0  0  0  0  0  0  0
   -4.7477   -3.1603    0.1309 O   0  0  0  0  0  0  0  0  0  0  0  0
   -2.7040   -4.3381   -2.2156 C   0  0  0  0  0  0  0  0  0  0  0  0
   -3.0846   -1.3700   -2.5879 H   0  0  0  0  0  0  0  0  0  0  0  0
   -4.3482   -3.2133   -3.0481 H   0  0  0  0  0  0  0  0  0  0  0  0
   -2.1518   -4.4379   -1.2740 H   0  0  0  0  0  0  0  0  0  0  0  0
   -3.1112   -5.3233   -2.4660 H   0  0  0  0  0  0  0  0  0  0  0  0
   -1.9860   -4.0580   -2.9939 H   0  0  0  0  0  0  0  0  0  0  0  0
   -5.6764   -4.6530   -1.3837 N   0  0  0  0  0  0  0  0  0  0  0  0
   -6.6942   -5.1807   -0.5052 C   0  0  0  0  0  0  0  0  0  0  0  0
   -5.6471   -5.0006   -2.3377 H   0  0  0  0  0  0  0  0  0  0  0  0
   -6.3067   -6.0702    0.0132 H   0  0  0  0  0  0  0  0  0  0  0  0
   -6.9711   -4.4163    0.2357 H   0  0  0  0  0  0  0  0  0  0  0  0
   -7.5803   -5.4574   -1.0953 H   0  0  0  0  0  0  0  0  0  0  0  0
  1  3  1  0  0  0  0
  1  7  1  0  0  0  0
  1  2  2  0  0  0  0
 29 30  1  0  0  0  0
 30 38  1  0  0  0  0
 30 31  2  0  0  0  0
  8  9  1  0  0  0  0
  9 17  1  0  0  0  0
  9 10  2  0  0  0  0
 18 19  1  0  0  0  0
 19 28  1  0  0  0  0
 19 20  2  0  0  0  0
 29 32  1  0  0  0  0
  8 11  1  0  0  0  0
 38 39  1  0  0  0  0
 18 21  1  0  0  0  0
 21 22  1  0  0  0  0
 28 29  1  0  0  0  0
  7  8  1  0  0  0  0
 17 18  1  0  0  0  0
  3  4  1  0  0  0  0
  3  5  1  0  0  0  0
  3  6  1  0  0  0  0
 32 35  1  0  0  0  0
 32 36  1  0  0  0  0
 32 37  1  0  0  0  0
 11 14  1  0  0  0  0
 11 15  1  0  0  0  0
 11 16  1  0  0  0  0
 39 41  1  0  0  0  0
 39 42  1  0  0  0  0
 39 43  1  0  0  0  0
 21 25  1  0  0  0  0
 21 26  1  0  0  0  0
 29 34  1  0  0  0  0
  8 13  1  0  0  0  0
 18 24  1  0  0  0  0
 38 40  1  0  0  0  0
  7 12  1  0  0  0  0
 28 33  1  0  0  0  0
 17 23  1  0  0  0  0
 22 27  1  0  0  0  0
M  END
$$$$

  -OEChem-05262214473D

 43 42  0     1  0  0  0  0  0999 V2000
    0.7424   -1.0926    4.5665 C   0  0  0  0  0  0  0  0  0  0  0  0
    0.1409   -0.5364    5.4779 O   0  0  0  0  0  0  0  0  0  0  0  0
    1.7940   -2.1023    4.8871 C   0  0  0  0  0  0  0  0  0  0  0  0
    2.7935   -1.6502    4.9904 H   0  0  0  0  0  0  0  0  0  0  0  0
    1.6064   -2.6156    5.8438 H   0  0  0  0  0  0  0  0  0  0  0  0
    1.9156   -2.9078    4.1453 H   0  0  0  0  0  0  0  0  0  0  0  0
    0.5488   -0.8838    3.2109 N   0  0  0  0  0  0  0  0  0  0  0  0
   -0.4159    0.0446    2.6829 C   0  0  2  0  0  0  0  0  0  0  0  0
   -0.7551   -0.3867    1.2623 C   0  0  0  0  0  0  0  0  0  0  0  0
   -0.0106   -1.0851    0.5774 O   0  0  0  0  0  0  0  0  0  0  0  0
    0.1168    1.4689    2.7060 C   0  0  0  0  0  0  0  0  0  0  0  0
    1.1183   -1.4145    2.5542 H   0  0  0  0  0  0  0  0  0  0  0  0
   -1.3088   -0.0350    3.3125 H   0  0  0  0  0  0  0  0  0  0  0  0
    1.0116    1.5681    2.0808 H   0  0  0  0  0  0  0  0  0  0  0  0
   -0.6289    2.1775    2.3307 H   0  0  0  0  0  0  0  0  0  0  0  0
    0.3882    1.7670    3.7245 H   0  0  0  0  0  0  0  0  0  0  0  0
   -1.9689    0.1350    0.8298 N   0  0  0  0  0  0  0  0  0  0  0  0
   -2.5039   -0.1183   -0.4830 C   0  0  2  0  0  0  0  0  0  0  0  0
   -3.0420   -1.5447   -0.5117 C   0  0  0  0  0  0  0  0  0  0  0  0
   -3.5256   -2.0982    0.4737 O   0  0  0  0  0  0  0  0  0  0  0  0
   -1.4634    0.1211   -1.5723 C   0  0  0  0  0  0  0  0  0  0  0  0
   -0.4098   -0.8296   -1.4649 O   0  0  0  0  0  0  0  0  0  0  0  0
   -2.5276    0.6894    1.4750 H   0  0  0  0  0  0  0  0  0  0  0  0
   -3.3397    0.5784   -0.6151 H   0  0  0  0  0  0  0  0  0  0  0  0
   -1.0276    1.1217   -1.4869 H   0  0  0  0  0  0  0  0  0  0  0  0
   -1.9145    0.0182   -2.5650 H   0  0  0  0  0  0  0  0  0  0  0  0
   -0.8140   -1.7057   -1.5678 H   0  0  0  0  0  0  0  0  0  0  0  0
   -2.9574   -2.1094   -1.7764 N   0  0  0  0  0  0  0  0  0  0  0  0
   -3.4297   -3.4423   -2.0713 C   0  0  2  0  0  0  0  0  0  0  0  0
   -4.6517   -3.7111   -1.2030 C   0  0  0  0  0  0  0  0  0  0  0  0
   -4.8783   -3.1052   -0.1577 O   0  0  0  0  0  0  0  0  0  0  0  0
   -2.3469   -4.4807   -1.8222 C   0  0  0  0  0  0  0  0  0  0  0  0
   -2.5783   -1.5619   -2.5433 H   0  0  0  0  0  0  0  0  0  0  0  0
   -3.7226   -3.4478   -3.1269 H   0  0  0  0  0  0  0  0  0  0  0  0
   -2.0406   -4.4900   -0.7698 H   0  0  0  0  0  0  0  0  0  0  0  0
   -2.6973   -5.4873   -2.0733 H   0  0  0  0  0  0  0  0  0  0  0  0
   -1.4575   -4.2688   -2.4254 H   0  0  0  0  0  0  0  0  0  0  0  0
   -5.4370   -4.7368   -1.7104 N   0  0  0  0  0  0  0  0  0  0  0  0
   -6.6454   -5.1880   -1.0606 C   0  0  0  0  0  0  0  0  0  0  0  0
   -5.1834   -5.1704   -2.5932 H   0  0  0  0  0  0  0  0  0  0  0  0
   -6.4091   -6.0235   -0.3852 H   0  0  0  0  0  0  0  0  0  0  0  0
   -7.0810   -4.3604   -0.4814 H   0  0  0  0  0  0  0  0  0  0  0  0
   -7.3668   -5.5234   -1.8202 H   0  0  0  0  0  0  0  0  0  0  0  0
  1  3  1  0  0  0  0
  1  7  1  0  0  0  0
  1  2  2  0  0  0  0
 29 30  1  0  0  0  0
 30 38  1  0  0  0  0
 30 31  2  0  0  0  0
  8  9  1  0  0  0  0
  9 17  1  0  0  0  0
  9 10  2  0  0  0  0
 18 19  1  0  0  0  0
 19 28  1  0  0  0  0
 19 20  2  0  0  0  0
 29 32  1  0  0  0  0
  8 11  1  0  0  0  0
 38 39  1  0  0  0  0
 18 21  1  0  0  0  0
 21 22  1  0  0  0  0
 28 29  1  0  0  0  0
  7  8  1  0  0  0  0
 17 18  1  0  0  0  0
  3  4  1  0  0  0  0
  3  5  1  0  0  0  0
  3  6  1  0  0  0  0
 32 35  1  0  0  0  0
 32 36  1  0  0  0  0
 32 37  1  0  0  0  0
 11 14  1  0  0  0  0
 11 15  1  0  0  0  0
 11 16  1  0  0  0  0
 39 41  1  0  0  0  0
 39 42  1  0  0  0  0
 39 43  1  0  0  0  0
 21 25  1  0  0  0  0
 21 26  1  0  0  0  0
 29 34  1  0  0  0  0
  8 13  1  0  0  0  0
 18 24  1  0  0  0  0
 38 40  1  0  0  0  0
  7 12  1  0  0  0  0
 28 33  1  0  0  0  0
 17 23  1  0  0  0  0
 22 27  1  0  0  0  0
M  END
$$$$

  -OEChem-05262214473D

 43 42  0     1  0  0  0  0  0999 V2000
    0.7424   -1.0926    4.5665 C   0  0  0  0  0  0  0  0  0  0  0  0
    0.1409   -0.5364    5.4779 O   0  0  0  0  0  0  0  0  0  0  0  0
    1.7940   -2.1023    4.8871 C   0  0  0  0  0  0  0  0  0  0  0  0
    2.7935   -1.6502    4.9904 H   0  0  0  0  0  0  0  0  0  0  0  0
    1.6064   -2.6156    5.8438 H   0  0  0  0  0  0  0  0  0  0  0  0
    1.9156   -2.9078    4.1453 H   0  0  0  0  0  0  0  0  0  0  0  0
    0.5488   -0.8838    3.2109 N   0  0  0  0  0  0  0  0  0  0  0  0
   -0.4159    0.0446    2.6829 C   0  0  2  0  0  0  0  0  0  0  0  0
   -0.7551   -0.3867    1.2623 C   0  0  0  0  0  0  0  0  0  0  0  0
   -0.0106   -1.0851    0.5774 O   0  0  0  0  0  0  0  0  0  0  0  0
    0.1168    1.4689    2.7060 C   0  0  0  0  0  0  0  0  0  0  0  0
    1.1183   -1.4145    2.5542 H   0  0  0  0  0  0  0  0  0  0  0  0
   -1.3088   -0.0350    3.3125 H   0  0  0  0  0  0  0  0  0  0  0  0
    1.0116    1.5681    2.0808 H   0  0  0  0  0  0  0  0  0  0  0  0
   -0.6289    2.1775    2.3307 H   0  0  0  0  0  0  0  0  0  0  0  0
    0.3882    1.7670    3.7245 H   0  0  0  0  0  0  0  0  0  0  0  0
   -1.9689    0.1350    0.8298 N   0  0  0  0  0  0  0  0  0  0  0  0
   -2.5039   -0.1183   -0.4830 C   0  0  2  0  0  0  0  0  0  0  0  0
   -3.0420   -1.5447   -0.5117 C   0  0  0  0  0  0  0  0  0  0  0  0
   -3.7585   -2.0083    0.3731 O   0  0  0  0  0  0  0  0  0  0  0  0
   -1.4634    0.1211   -1.5723 C   0  0  0  0  0  0  0  0  0  0  0  0
   -0.4098   -0.8296   -1.4649 O   0  0  0  0  0  0  0  0  0  0  0  0
   -2.5276    0.6894    1.4750 H   0  0  0  0  0  0  0  0  0  0  0  0
   -3.3397    0.5784   -0.6151 H   0  0  0  0  0  0  0  0  0  0  0  0
   -1.0276    1.1217   -1.4869 H   0  0  0  0  0  0  0  0  0  0  0  0
   -1.9145    0.0182   -2.5650 H   0  0  0  0  0  0  0  0  0  0  0  0
   -0.8140   -1.7057   -1.5678 H   0  0  0  0  0  0  0  0  0  0  0  0
   -2.6631   -2.2228   -1.6616 N   0  0  0  0  0  0  0  0  0  0  0  0
   -3.0714   -3.5801   -1.9400 C   0  0  2  0  0  0  0  0  0  0  0  0
   -4.4714   -3.7757   -1.3730 C   0  0  0  0  0  0  0  0  0  0  0  0
   -4.9342   -3.0777   -0.4732 O   0  0  0  0  0  0  0  0  0  0  0  0
   -2.0980   -4.5843   -1.3427 C   0  0  0  0  0  0  0  0  0  0  0  0
   -2.1009   -1.7456   -2.3602 H   0  0  0  0  0  0  0  0  0  0  0  0
   -3.1004   -3.6844   -3.0300 H   0  0  0  0  0  0  0  0  0  0  0  0
   -2.0554   -4.4948   -0.2511 H   0  0  0  0  0  0  0  0  0  0  0  0
   -2.3933   -5.6119   -1.5788 H   0  0  0  0  0  0  0  0  0  0  0  0
   -1.0858   -4.4230   -1.7291 H   0  0  0  0  0  0  0  0  0  0  0  0
   -5.1270   -4.8487   -1.9603 N   0  0  0  0  0  0  0  0  0  0  0  0
   -6.4638   -5.2459   -1.5845 C   0  0  0  0  0  0  0  0  0  0  0  0
   -4.6744   -5.3600   -2.7123 H   0  0  0  0  0  0  0  0  0  0  0  0
   -6.4115   -6.0143   -0.7991 H   0  0  0  0  0  0  0  0  0  0  0  0
   -7.0132   -4.3715   -1.2057 H   0  0  0  0  0  0  0  0  0  0  0  0
   -6.9853   -5.6544   -2.4627 H   0  0  0  0  0  0  0  0  0  0  0  0
  1  3  1  0  0  0  0
  1  7  1  0  0  0  0
  1  2  2  0  0  0  0
 29 30  1  0  0  0  0
 30 38  1  0  0  0  0
 30 31  2  0  0  0  0
  8  9  1  0  0  0  0
  9 17  1  0  0  0  0
  9 10  2  0  0  0  0
 18 19  1  0  0  0  0
 19 28  1  0  0  0  0
 19 20  2  0  0  0  0
 29 32  1  0  0  0  0
  8 11  1  0  0  0  0
 38 39  1  0  0  0  0
 18 21  1  0  0  0  0
 21 22  1  0  0  0  0
 28 29  1  0  0  0  0
  7  8  1  0  0  0  0
 17 18  1  0  0  0  0
  3  4  1  0  0  0  0
  3  5  1  0  0  0  0
  3  6  1  0  0  0  0
 32 35  1  0  0  0  0
 32 36  1  0  0  0  0
 32 37  1  0  0  0  0
 11 14  1  0  0  0  0
 11 15  1  0  0  0  0
 11 16  1  0  0  0  0
 39 41  1  0  0  0  0
 39 42  1  0  0  0  0
 39 43  1  0  0  0  0
 21 25  1  0  0  0  0
 21 26  1  0  0  0  0
 29 34  1  0  0  0  0
  8 13  1  0  0  0  0
 18 24  1  0  0  0  0
 38 40  1  0  0  0  0
  7 12  1  0  0  0  0
 28 33  1  0  0  0  0
 17 23  1  0  0  0  0
 22 27  1  0  0  0  0
M  END
$$$$

  -OEChem-05262214473D

 43 42  0     1  0  0  0  0  0999 V2000
    0.7424   -1.0926    4.5665 C   0  0  0  0  0  0  0  0  0  0  0  0
    0.1409   -0.5364    5.4779 O   0  0  0  0  0  0  0  0  0  0  0  0
    1.7940   -2.1023    4.8871 C   0  0  0  0  0  0  0  0  0  0  0  0
    2.7935   -1.6502    4.9904 H   0  0  0  0  0  0  0  0  0  0  0  0
    1.6064   -2.6156    5.8438 H   0  0  0  0  0  0  0  0  0  0  0  0
    1.9156   -2.9078    4.1453 H   0  0  0  0  0  0  0  0  0  0  0  0
    0.5488   -0.8838    3.2109 N   0  0  0  0  0  0  0  0  0  0  0  0
   -0.4159    0.0446    2.6829 C   0  0  2  0  0  0  0  0  0  0  0  0
   -0.7551   -0.3867    1.2623 C   0  0  0  0  0  0  0  0  0  0  0  0
   -0.0106   -1.0851    0.5774 O   0  0  0  0  0  0  0  0  0  0  0  0
    0.1168    1.4689    2.7060 C   0  0  0  0  0  0  0  0  0  0  0  0
    1.1183   -1.4145    2.5542 H   0  0  0  0  0  0  0  0  0  0  0  0
   -1.3088   -0.0350    3.3125 H   0  0  0  0  0  0  0  0  0  0  0  0
    1.0116    1.5681    2.0808 H   0  0  0  0  0  0  0  0  0  0  0  0
   -0.6289    2.1775    2.3307 H   0  0  0  0  0  0  0  0  0  0  0  0
    0.3882    1.7670    3.7245 H   0  0  0  0  0  0  0  0  0  0  0  0
   -1.9689    0.1350    0.8298 N   0  0  0  0  0  0  0  0  0  0  0  0
   -2.5039   -0.1183   -0.4830 C   0  0  2  0  0  0  0  0  0  0  0  0
   -3.0420   -1.5447   -0.5117 C   0  0  0  0  0  0  0  0  0  0  0  0
   -3.9586   -1.9296    0.2114 O   0  0  0  0  0  0  0  0  0  0  0  0
   -1.4634    0.1211   -1.5723 C   0  0  0  0  0  0  0  0  0  0  0  0
   -0.4098   -0.8296   -1.4649 O   0  0  0  0  0  0  0  0  0  0  0  0
   -2.5276    0.6894    1.4750 H   0  0  0  0  0  0  0  0  0  0  0  0
   -3.3397    0.5784   -0.6151 H   0  0  0  0  0  0  0  0  0  0  0  0
   -1.0276    1.1217   -1.4869 H   0  0  0  0  0  0  0  0  0  0  0  0
   -1.9145    0.0182   -2.5650 H   0  0  0  0  0  0  0  0  0  0  0  0
   -0.8140   -1.7057   -1.5678 H   0  0  0  0  0  0  0  0  0  0  0  0
   -2.4072   -2.3232   -1.4691 N   0  0  0  0  0  0  0  0  0  0  0  0
   -2.7579   -3.7029   -1.7138 C   0  0  2  0  0  0  0  0  0  0  0  0
   -4.2563   -3.8545   -1.4877 C   0  0  0  0  0  0  0  0  0  0  0  0
   -4.9118   -3.0798   -0.7940 O   0  0  0  0  0  0  0  0  0  0  0  0
   -1.9741   -4.6417   -0.8098 C   0  0  0  0  0  0  0  0  0  0  0  0
   -1.6851   -1.9087   -2.0510 H   0  0  0  0  0  0  0  0  0  0  0  0
   -2.5239   -3.9072   -2.7643 H   0  0  0  0  0  0  0  0  0  0  0  0
   -2.1954   -4.4520    0.2468 H   0  0  0  0  0  0  0  0  0  0  0  0
   -2.2201   -5.6886   -1.0162 H   0  0  0  0  0  0  0  0  0  0  0  0
   -0.8960   -4.5102   -0.9523 H   0  0  0  0  0  0  0  0  0  0  0  0
   -4.7677   -4.9812   -2.1165 N   0  0  0  0  0  0  0  0  0  0  0  0
   -6.1619   -5.3507   -2.0414 C   0  0  0  0  0  0  0  0  0  0  0  0
   -4.1549   -5.5565   -2.6867 H   0  0  0  0  0  0  0  0  0  0  0  0
   -6.3134   -6.0432   -1.2004 H   0  0  0  0  0  0  0  0  0  0  0  0
   -6.7724   -4.4486   -1.8880 H   0  0  0  0  0  0  0  0  0  0  0  0
   -6.4620   -5.8415   -2.9790 H   0  0  0  0  0  0  0  0  0  0  0  0
  1  3  1  0  0  0  0
  1  7  1  0  0  0  0
  1  2  2  0  0  0  0
 29 30  1  0  0  0  0
 30 38  1  0  0  0  0
 30 31  2  0  0  0  0
  8  9  1  0  0  0  0
  9 17  1  0  0  0  0
  9 10  2  0  0  0  0
 18 19  1  0  0  0  0
 19 28  1  0  0  0  0
 19 20  2  0  0  0  0
 29 32  1  0  0  0  0
  8 11  1  0  0  0  0
 38 39  1  0  0  0  0
 18 21  1  0  0  0  0
 21 22  1  0  0  0  0
 28 29  1  0  0  0  0
  7  8  1  0  0  0  0
 17 18  1  0  0  0  0
  3  4  1  0  0  0  0
  3  5  1  0  0  0  0
  3  6  1  0  0  0  0
 32 35  1  0  0  0  0
 32 36  1  0  0  0  0
 32 37  1  0  0  0  0
 11 14  1  0  0  0  0
 11 15  1  0  0  0  0
 11 16  1  0  0  0  0
 39 41  1  0  0  0  0
 39 42  1  0  0  0  0
 39 43  1  0  0  0  0
 21 25  1  0  0  0  0
 21 26  1  0  0  0  0
 29 34  1  0  0  0  0
  8 13  1  0  0  0  0
 18 24  1  0  0  0  0
 38 40  1  0  0  0  0
  7 12  1  0  0  0  0
 28 33  1  0  0  0  0
 17 23  1  0  0  0  0
 22 27  1  0  0  0  0
M  END
$$$$

  -OEChem-05262214473D

 43 42  0     1  0  0  0  0  0999 V2000
    0.7424   -1.0926    4.5665 C   0  0  0  0  0  0  0  0  0  0  0  0
    0.1409   -0.5364    5.4779 O   0  0  0  0  0  0  0  0  0  0  0  0
    1.7940   -2.1023    4.8871 C   0  0  0  0  0  0  0  0  0  0  0  0
    2.7935   -1.6502    4.9904 H   0  0  0  0  0  0  0  0  0  0  0  0
    1.6064   -2.6156    5.8438 H   0  0  0  0  0  0  0  0  0  0  0  0
    1.9156   -2.9078    4.1453 H   0  0  0  0  0  0  0  0  0  0  0  0
    0.5488   -0.8838    3.2109 N   0  0  0  0  0  0  0  0  0  0  0  0
   -0.4159    0.0446    2.6829 C   0  0  2  0  0  0  0  0  0  0  0  0
   -0.7551   -0.3867    1.2623 C   0  0  0  0  0  0  0  0  0  0  0  0
   -0.0106   -1.0851    0.5774 O   0  0  0  0  0  0  0  0  0  0  0  0
    0.1168    1.4689    2.7060 C   0  0  0  0  0  0  0  0  0  0  0  0
    1.1183   -1.4145    2.5542 H   0  0  0  0  0  0  0  0  0  0  0  0
   -1.3088   -0.0350    3.3125 H   0  0  0  0  0  0  0  0  0  0  0  0
    1.0116    1.5681    2.0808 H   0  0  0  0  0  0  0  0  0  0  0  0
   -0.6289    2.1775    2.3307 H   0  0  0  0  0  0  0  0  0  0  0  0
    0.3882    1.7670    3.7245 H   0  0  0  0  0  0  0  0  0  0  0  0
   -1.9689    0.1350    0.8298 N   0  0  0  0  0  0  0  0  0  0  0  0
   -2.5039   -0.1183   -0.4830 C   0  0  2  0  0  0  0  0  0  0  0  0
   -3.0420   -1.5447   -0.5117 C   0  0  0  0  0  0  0  0  0  0  0  0
   -4.1124   -1.8673   -0.0004 O   0  0  0  0  0  0  0  0  0  0  0  0
   -1.4634    0.1211   -1.5723 C   0  0  0  0  0  0  0  0  0  0  0  0
   -0.4098   -0.8296   -1.4649 O   0  0  0  0  0  0  0  0  0  0  0  0
   -2.5276    0.6894    1.4750 H   0  0  0  0  0  0  0  0  0  0  0  0
   -3.3397    0.5784   -0.6151 H   0  0  0  0  0  0  0  0  0  0  0  0
   -1.0276    1.1217   -1.4869 H   0  0  0  0  0  0  0  0  0  0  0  0
   -1.9145    0.0182   -2.5650 H   0  0  0  0  0  0  0  0  0  0  0  0
   -0.8140   -1.7057   -1.5678 H   0  0  0  0  0  0  0  0  0  0  0  0
   -2.2070   -2.4038   -1.2120 N   0  0  0  0  0  0  0  0  0  0  0  0
   -2.5103   -3.8025   -1.4081 C   0  0  2  0  0  0  0  0  0  0  0  0
   -4.0212   -3.9422   -1.5391 C   0  0  0  0  0  0  0  0  0  0  0  0
   -4.8125   -3.1111   -1.0982 O   0  0  0  0  0  0  0  0  0  0  0  0
   -1.9837   -4.6491   -0.2599 C   0  0  0  0  0  0  0  0  0  0  0  0
   -1.3591   -2.0400   -1.6367 H   0  0  0  0  0  0  0  0  0  0  0  0
   -2.0326   -4.1010   -2.3476 H   0  0  0  0  0  0  0  0  0  0  0  0
   -2.4510   -4.3645    0.6899 H   0  0  0  0  0  0  0  0  0  0  0  0
   -2.1893   -5.7121   -0.4239 H   0  0  0  0  0  0  0  0  0  0  0  0
   -0.9012   -4.5244   -0.1482 H   0  0  0  0  0  0  0  0  0  0  0  0
   -4.3834   -5.1251   -2.1682 N   0  0  0  0  0  0  0  0  0  0  0  0
   -5.7601   -5.4950   -2.4000 C   0  0  0  0  0  0  0  0  0  0  0  0
   -3.6602   -5.7465   -2.5183 H   0  0  0  0  0  0  0  0  0  0  0  0
   -6.1217   -6.1083   -1.5615 H   0  0  0  0  0  0  0  0  0  0  0  0
   -6.3750   -4.5866   -2.4817 H   0  0  0  0  0  0  0  0  0  0  0  0
   -5.8323   -6.0718   -3.3339 H   0  0  0  0  0  0  0  0  0  0  0  0
  1  3  1  0  0  0  0
  1  7  1  0  0  0  0
  1  2  2  0  0  0  0
 29 30  1  0  0  0  0
 30 38  1  0  0  0  0
 30 31  2  0  0  0  0
  8  9  1  0  0  0  0
  9 17  1  0  0  0  0
  9 10  2  0  0  0  0
 18 19  1  0  0  0  0
 19 28  1  0  0  0  0
 19 20  2  0  0  0  0
 29 32  1  0  0  0  0
  8 11  1  0  0  0  0
 38 39  1  0  0  0  0
 18 21  1  0  0  0  0
 21 22  1  0  0  0  0
 28 29  1  0  0  0  0
  7  8  1  0  0  0  0
 17 18  1  0  0  0  0
  3  4  1  0  0  0  0
  3  5  1  0  0  0  0
  3  6  1  0  0  0  0
 32 35  1  0  0  0  0
 32 36  1  0  0  0  0
 32 37  1  0  0  0  0
 11 14  1  0  0  0  0
 11 15  1  0  0  0  0
 11 16  1  0  0  0  0
 39 41  1  0  0  0  0
 39 42  1  0  0  0  0
 39 43  1  0  0  0  0
 21 25  1  0  0  0  0
 21 26  1  0  0  0  0
 29 34  1  0  0  0  0
  8 13  1  0  0  0  0
 18 24  1  0  0  0  0
 38 40  1  0  0  0  0
  7 12  1  0  0  0  0
 28 33  1  0  0  0  0
 17 23  1  0  0  0  0
 22 27  1  0  0  0  0
M  END
$$$$

  -OEChem-05262214473D

 43 42  0     1  0  0  0  0  0999 V2000
    0.7424   -1.0926    4.5665 C   0  0  0  0  0  0  0  0  0  0  0  0
    0.1409   -0.5364    5.4779 O   0  0  0  0  0  0  0  0  0  0  0  0
    1.7940   -2.1023    4.8871 C   0  0  0  0  0  0  0  0  0  0  0  0
    2.7935   -1.6502    4.9904 H   0  0  0  0  0  0  0  0  0  0  0  0
    1.6064   -2.6156    5.8438 H   0  0  0  0  0  0  0  0  0  0  0  0
    1.9156   -2.9078    4.1453 H   0  0  0  0  0  0  0  0  0  0  0  0
    0.5488   -0.8838    3.2109 N   0  0  0  0  0  0  0  0  0  0  0  0
   -0.4159    0.0446    2.6829 C   0  0  2  0  0  0  0  0  0  0  0  0
   -0.7551   -0.3867    1.2623 C   0  0  0  0  0  0  0  0  0  0  0  0
   -0.0106   -1.0851    0.5774 O   0  0  0  0  0  0  0  0  0  0  0  0
    0.1168    1.4689    2.7060 C   0  0  0  0  0  0  0  0  0  0  0  0
    1.1183   -1.4145    2.5542 H   0  0  0  0  0  0  0  0  0  0  0  0
   -1.3088   -0.0350    3.3125 H   0  0  0  0  0  0  0  0  0  0  0  0
    1.0116    1.5681    2.0808 H   0  0  0  0  0  0  0  0  0  0  0  0
   -0.6289    2.1775    2.3307 H   0  0  0  0  0  0  0  0  0  0  0  0
    0.3882    1.7670    3.7245 H   0  0  0  0  0  0  0  0  0  0  0  0
   -1.9689    0.1350    0.8298 N   0  0  0  0  0  0  0  0  0  0  0  0
   -2.5039   -0.1183   -0.4830 C   0  0  2  0  0  0  0  0  0  0  0  0
   -3.0420   -1.5447   -0.5117 C   0  0  0  0  0  0  0  0  0  0  0  0
   -4.2093   -1.8258   -0.2480 O   0  0  0  0  0  0  0  0  0  0  0  0
   -1.4634    0.1211   -1.5723 C   0  0  0  0  0  0  0  0  0  0  0  0
   -0.4098   -0.8296   -1.4649 O   0  0  0  0  0  0  0  0  0  0  0  0
   -2.5276    0.6894    1.4750 H   0  0  0  0  0  0  0  0  0  0  0  0
   -3.3397    0.5784   -0.6151 H   0  0  0  0  0  0  0  0  0  0  0  0
   -1.0276    1.1217   -1.4869 H   0  0  0  0  0  0  0  0  0  0  0  0
   -1.9145    0.0182   -2.5650 H   0  0  0  0  0  0  0  0  0  0  0  0
   -0.8140   -1.7057   -1.5678 H   0  0  0  0  0  0  0  0  0  0  0  0
   -2.0764   -2.4592   -0.9079 N   0  0  0  0  0  0  0  0  0  0  0  0
   -2.3457   -3.8719   -1.0439 C   0  0  2  0  0  0  0  0  0  0  0  0
   -3.7821   -4.0327   -1.5239 C   0  0  0  0  0  0  0  0  0  0  0  0
   -4.6430   -3.1697   -1.3652 O   0  0  0  0  0  0  0  0  0  0  0  0
   -2.1262   -4.6060    0.2697 C   0  0  0  0  0  0  0  0  0  0  0  0
   -1.1452   -2.1306   -1.1456 H   0  0  0  0  0  0  0  0  0  0  0  0
   -1.6598   -4.2524   -1.8085 H   0  0  0  0  0  0  0  0  0  0  0  0
   -2.8047   -4.2382    1.0481 H   0  0  0  0  0  0  0  0  0  0  0  0
   -2.3031   -5.6808    0.1579 H   0  0  0  0  0  0  0  0  0  0  0  0
   -1.1010   -4.4646    0.6286 H   0  0  0  0  0  0  0  0  0  0  0  0
   -4.0003   -5.2707   -2.1120 N   0  0  0  0  0  0  0  0  0  0  0  0
   -5.2859   -5.6692   -2.6360 C   0  0  0  0  0  0  0  0  0  0  0  0
   -3.2241   -5.9171   -2.2185 H   0  0  0  0  0  0  0  0  0  0  0  0
   -5.8494   -6.2051   -1.8580 H   0  0  0  0  0  0  0  0  0  0  0  0
   -5.8480   -4.7761   -2.9463 H   0  0  0  0  0  0  0  0  0  0  0  0
   -5.1394   -6.3299   -3.5032 H   0  0  0  0  0  0  0  0  0  0  0  0
  1  3  1  0  0  0  0
  1  7  1  0  0  0  0
  1  2  2  0  0  0  0
 29 30  1  0  0  0  0
 30 38  1  0  0  0  0
 30 31  2  0  0  0  0
  8  9  1  0  0  0  0
  9 17  1  0  0  0  0
  9 10  2  0  0  0  0
 18 19  1  0  0  0  0
 19 28  1  0  0  0  0
 19 20  2  0  0  0  0
 29 32  1  0  0  0  0
  8 11  1  0  0  0  0
 38 39  1  0  0  0  0
 18 21  1  0  0  0  0
 21 22  1  0  0  0  0
 28 29  1  0  0  0  0
  7  8  1  0  0  0  0
 17 18  1  0  0  0  0
  3  4  1  0  0  0  0
  3  5  1  0  0  0  0
  3  6  1  0  0  0  0
 32 35  1  0  0  0  0
 32 36  1  0  0  0  0
 32 37  1  0  0  0  0
 11 14  1  0  0  0  0
 11 15  1  0  0  0  0
 11 16  1  0  0  0  0
 39 41  1  0  0  0  0
 39 42  1  0  0  0  0
 39 43  1  0  0  0  0
 21 25  1  0  0  0  0
 21 26  1  0  0  0  0
 29 34  1  0  0  0  0
  8 13  1  0  0  0  0
 18 24  1  0  0  0  0
 38 40  1  0  0  0  0
  7 12  1  0  0  0  0
 28 33  1  0  0  0  0
 17 23  1  0  0  0  0
 22 27  1  0  0  0  0
M  END
$$$$

  -OEChem-05262214473D

 43 42  0     1  0  0  0  0  0999 V2000
    0.7424   -1.0926    4.5665 C   0  0  0  0  0  0  0  0  0  0  0  0
    0.1409   -0.5364    5.4779 O   0  0  0  0  0  0  0  0  0  0  0  0
    1.7940   -2.1023    4.8871 C   0  0  0  0  0  0  0  0  0  0  0  0
    2.7935   -1.6502    4.9904 H   0  0  0  0  0  0  0  0  0  0  0  0
    1.6064   -2.6156    5.8438 H   0  0  0  0  0  0  0  0  0  0  0  0
    1.9156   -2.9078    4.1453 H   0  0  0  0  0  0  0  0  0  0  0  0
    0.5488   -0.8838    3.2109 N   0  0  0  0  0  0  0  0  0  0  0  0
   -0.4159    0.0446    2.6829 C   0  0  2  0  0  0  0  0  0  0  0  0
   -0.7551   -0.3867    1.2623 C   0  0  0  0  0  0  0  0  0  0  0  0
   -0.0106   -1.0851    0.5774 O   0  0  0  0  0  0  0  0  0  0  0  0
    0.1168    1.4689    2.7060 C   0  0  0  0  0  0  0  0  0  0  0  0
    1.1183   -1.4145    2.5542 H   0  0  0  0  0  0  0  0  0  0  0  0
   -1.3088   -0.0350    3.3125 H   0  0  0  0  0  0  0  0  0  0  0  0
    1.0116    1.5681    2.0808 H   0  0  0  0  0  0  0  0  0  0  0  0
   -0.6289    2.1775    2.3307 H   0  0  0  0  0  0  0  0  0  0  0  0
    0.3882    1.7670    3.7245 H   0  0  0  0  0  0  0  0  0  0  0  0
   -1.9689    0.1350    0.8298 N   0  0  0  0  0  0  0  0  0  0  0  0
   -2.5039   -0.1183   -0.4830 C   0  0  2  0  0  0  0  0  0  0  0  0
   -3.0420   -1.5447   -0.5117 C   0  0  0  0  0  0  0  0  0  0  0  0
   -4.2428   -1.8078   -0.5143 O   0  0  0  0  0  0  0  0  0  0  0  0
   -1.4634    0.1211   -1.5723 C   0  0  0  0  0  0  0  0  0  0  0  0
   -0.4098   -0.8296   -1.4649 O   0  0  0  0  0  0  0  0  0  0  0  0
   -2.5276    0.6894    1.4750 H   0  0  0  0  0  0  0  0  0  0  0  0
   -3.3397    0.5784   -0.6151 H   0  0  0  0  0  0  0  0  0  0  0  0
   -1.0276    1.1217   -1.4869 H   0  0  0  0  0  0  0  0  0  0  0  0
   -1.9145    0.0182   -2.5650 H   0  0  0  0  0  0  0  0  0  0  0  0
   -0.8140   -1.7057   -1.5678 H   0  0  0  0  0  0  0  0  0  0  0  0
   -2.0241   -2.4856   -0.5774 N   0  0  0  0  0  0  0  0  0  0  0  0
   -2.2753   -3.9064   -0.6459 C   0  0  2  0  0  0  0  0  0  0  0  0
   -3.5553   -4.1199   -1.4430 C   0  0  0  0  0  0  0  0  0  0  0  0
   -4.4150   -3.2515   -1.5766 O   0  0  0  0  0  0  0  0  0  0  0  0
   -2.3919   -4.5153    0.7428 C   0  0  0  0  0  0  0  0  0  0  0  0
   -1.0579   -2.1743   -0.6111 H   0  0  0  0  0  0  0  0  0  0  0  0
   -1.4309   -4.3513   -1.1836 H   0  0  0  0  0  0  0  0  0  0  0  0
   -3.2325   -4.0819    1.2969 H   0  0  0  0  0  0  0  0  0  0  0  0
   -2.5538   -5.5970    0.6895 H   0  0  0  0  0  0  0  0  0  0  0  0
   -1.4818   -4.3350    1.3251 H   0  0  0  0  0  0  0  0  0  0  0  0
   -3.6447   -5.4081   -1.9516 N   0  0  0  0  0  0  0  0  0  0  0  0
   -4.7715   -5.8613   -2.7332 C   0  0  0  0  0  0  0  0  0  0  0  0
   -2.8762   -6.0565   -1.8078 H   0  0  0  0  0  0  0  0  0  0  0  0
   -5.5151   -6.3269   -2.0697 H   0  0  0  0  0  0  0  0  0  0  0  0
   -5.2275   -5.0041   -3.2502 H   0  0  0  0  0  0  0  0  0  0  0  0
   -4.4303   -6.5979   -3.4754 H   0  0  0  0  0  0  0  0  0  0  0  0
  1  3  1  0  0  0  0
  1  7  1  0  0  0  0
  1  2  2  0  0  0  0
 29 30  1  0  0  0  0
 30 38  1  0  0  0  0
 30 31  2  0  0  0  0
  8  9  1  0  0  0  0
  9 17  1  0  0  0  0
  9 10  2  0  0  0  0
 18 19  1  0  0  0  0
 19 28  1  0  0  0  0
 19 20  2  0  0  0  0
 29 32  1  0  0  0  0
  8 11  1  0  0  0  0
 38 39  1  0  0  0  0
 18 21  1  0  0  0  0
 21 22  1  0  0  0  0
 28 29  1  0  0  0  0
  7  8  1  0  0  0  0
 17 18  1  0  0  0  0
  3  4  1  0  0  0  0
  3  5  1  0  0  0  0
  3  6  1  0  0  0  0
 32 35  1  0  0  0  0
 32 36  1  0  0  0  0
 32 37  1  0  0  0  0
 11 14  1  0  0  0  0
 11 15  1  0  0  0  0
 11 16  1  0  0  0  0
 39 41  1  0  0  0  0
 39 42  1  0  0  0  0
 39 43  1  0  0  0  0
 21 25  1  0  0  0  0
 21 26  1  0  0  0  0
 29 34  1  0  0  0  0
  8 13  1  0  0  0  0
 18 24  1  0  0  0  0
 38 40  1  0  0  0  0
  7 12  1  0  0  0  0
 28 33  1  0  0  0  0
 17 23  1  0  0  0  0
 22 27  1  0  0  0  0
M  END
$$$$

  -OEChem-05262214473D

 43 42  0     1  0  0  0  0  0999 V2000
    0.7424   -1.0926    4.5665 C   0  0  0  0  0  0  0  0  0  0  0  0
    0.1409   -0.5364    5.4779 O   0  0  0  0  0  0  0  0  0  0  0  0
    1.7940   -2.1023    4.8871 C   0  0  0  0  0  0  0  0  0  0  0  0
    2.7935   -1.6502    4.9904 H   0  0  0  0  0  0  0  0  0  0  0  0
    1.6064   -2.6156    5.8438 H   0  0  0  0  0  0  0  0  0  0  0  0
    1.9156   -2.9078    4.1453 H   0  0  0  0  0  0  0  0  0  0  0  0
    0.5488   -0.8838    3.2109 N   0  0  0  0  0  0  0  0  0  0  0  0
   -0.4159    0.0446    2.6829 C   0  0  2  0  0  0  0  0  0  0  0  0
   -0.7551   -0.3867    1.2623 C   0  0  0  0  0  0  0  0  0  0  0  0
   -0.0106   -1.0851    0.5774 O   0  0  0  0  0  0  0  0  0  0  0  0
    0.1168    1.4689    2.7060 C   0  0  0  0  0  0  0  0  0  0  0  0
    1.1183   -1.4145    2.5542 H   0  0  0  0  0  0  0  0  0  0  0  0
   -1.3088   -0.0350    3.3125 H   0  0  0  0  0  0  0  0  0  0  0  0
    1.0116    1.5681    2.0808 H   0  0  0  0  0  0  0  0  0  0  0  0
   -0.6289    2.1775    2.3307 H   0  0  0  0  0  0  0  0  0  0  0  0
    0.3882    1.7670    3.7245 H   0  0  0  0  0  0  0  0  0  0  0  0
   -1.9689    0.1350    0.8298 N   0  0  0  0  0  0  0  0  0  0  0  0
   -2.5039   -0.1183   -0.4830 C   0  0  2  0  0  0  0  0  0  0  0  0
   -3.0420   -1.5447   -0.5117 C   0  0  0  0  0  0  0  0  0  0  0  0
   -4.2106   -1.8146   -0.7814 O   0  0  0  0  0  0  0  0  0  0  0  0
   -1.4634    0.1211   -1.5723 C   0  0  0  0  0  0  0  0  0  0  0  0
   -0.4098   -0.8296   -1.4649 O   0  0  0  0  0  0  0  0  0  0  0  0
   -2.5276    0.6894    1.4750 H   0  0  0  0  0  0  0  0  0  0  0  0
   -3.3397    0.5784   -0.6151 H   0  0  0  0  0  0  0  0  0  0  0  0
   -1.0276    1.1217   -1.4869 H   0  0  0  0  0  0  0  0  0  0  0  0
   -1.9145    0.0182   -2.5650 H   0  0  0  0  0  0  0  0  0  0  0  0
   -0.8140   -1.7057   -1.5678 H   0  0  0  0  0  0  0  0  0  0  0  0
   -2.0537   -2.4812   -0.2431 N   0  0  0  0  0  0  0  0  0  0  0  0
   -2.3037   -3.9038   -0.2412 C   0  0  2  0  0  0  0  0  0  0  0  0
   -3.3562   -4.1978   -1.3020 C   0  0  0  0  0  0  0  0  0  0  0  0
   -4.1439   -3.3509   -1.7182 O   0  0  0  0  0  0  0  0  0  0  0  0
   -2.7626   -4.3832    1.1272 C   0  0  0  0  0  0  0  0  0  0  0  0
   -1.1031   -2.1681   -0.0698 H   0  0  0  0  0  0  0  0  0  0  0  0
   -1.3617   -4.3909   -0.5157 H   0  0  0  0  0  0  0  0  0  0  0  0
   -3.7052   -3.9060    1.4193 H   0  0  0  0  0  0  0  0  0  0  0  0
   -2.9242   -5.4662    1.1346 H   0  0  0  0  0  0  0  0  0  0  0  0
   -2.0176   -4.1443    1.8938 H   0  0  0  0  0  0  0  0  0  0  0  0
   -3.3406   -5.5279   -1.6981 N   0  0  0  0  0  0  0  0  0  0  0  0
   -4.2521   -6.0582   -2.6850 C   0  0  0  0  0  0  0  0  0  0  0  0
   -2.6403   -6.1555   -1.3141 H   0  0  0  0  0  0  0  0  0  0  0  0
   -5.1415   -6.4656   -2.1820 H   0  0  0  0  0  0  0  0  0  0  0  0
   -4.5556   -5.2551   -3.3726 H   0  0  0  0  0  0  0  0  0  0  0  0
   -3.7534   -6.8578   -3.2524 H   0  0  0  0  0  0  0  0  0  0  0  0
  1  3  1  0  0  0  0
  1  7  1  0  0  0  0
  1  2  2  0  0  0  0
 29 30  1  0  0  0  0
 30 38  1  0  0  0  0
 30 31  2  0  0  0  0
  8  9  1  0  0  0  0
  9 17  1  0  0  0  0
  9 10  2  0  0  0  0
 18 19  1  0  0  0  0
 19 28  1  0  0  0  0
 19 20  2  0  0  0  0
 29 32  1  0  0  0  0
  8 11  1  0  0  0  0
 38 39  1  0  0  0  0
 18 21  1  0  0  0  0
 21 22  1  0  0  0  0
 28 29  1  0  0  0  0
  7  8  1  0  0  0  0
 17 18  1  0  0  0  0
  3  4  1  0  0  0  0
  3  5  1  0  0  0  0
  3  6  1  0  0  0  0
 32 35  1  0  0  0  0
 32 36  1  0  0  0  0
 32 37  1  0  0  0  0
 11 14  1  0  0  0  0
 11 15  1  0  0  0  0
 11 16  1  0  0  0  0
 39 41  1  0  0  0  0
 39 42  1  0  0  0  0
 39 43  1  0  0  0  0
 21 25  1  0  0  0  0
 21 26  1  0  0  0  0
 29 34  1  0  0  0  0
  8 13  1  0  0  0  0
 18 24  1  0  0  0  0
 38 40  1  0  0  0  0
  7 12  1  0  0  0  0
 28 33  1  0  0  0  0
 17 23  1  0  0  0  0
 22 27  1  0  0  0  0
M  END
$$$$

  -OEChem-05262214473D

 43 42  0     1  0  0  0  0  0999 V2000
    0.7424   -1.0926    4.5665 C   0  0  0  0  0  0  0  0  0  0  0  0
    0.1409   -0.5364    5.4779 O   0  0  0  0  0  0  0  0  0  0  0  0
    1.7940   -2.1023    4.8871 C   0  0  0  0  0  0  0  0  0  0  0  0
    2.7935   -1.6502    4.9904 H   0  0  0  0  0  0  0  0  0  0  0  0
    1.6064   -2.6156    5.8438 H   0  0  0  0  0  0  0  0  0  0  0  0
    1.9156   -2.9078    4.1453 H   0  0  0  0  0  0  0  0  0  0  0  0
    0.5488   -0.8838    3.2109 N   0  0  0  0  0  0  0  0  0  0  0  0
   -0.4159    0.0446    2.6829 C   0  0  2  0  0  0  0  0  0  0  0  0
   -0.7551   -0.3867    1.2623 C   0  0  0  0  0  0  0  0  0  0  0  0
   -0.0106   -1.0851    0.5774 O   0  0  0  0  0  0  0  0  0  0  0  0
    0.1168    1.4689    2.7060 C   0  0  0  0  0  0  0  0  0  0  0  0
    1.1183   -1.4145    2.5542 H   0  0  0  0  0  0  0  0  0  0  0  0
   -1.3088   -0.0350    3.3125 H   0  0  0  0  0  0  0  0  0  0  0  0
    1.0116    1.5681    2.0808 H   0  0  0  0  0  0  0  0  0  0  0  0
   -0.6289    2.1775    2.3307 H   0  0  0  0  0  0  0  0  0  0  0  0
    0.3882    1.7670    3.7245 H   0  0  0  0  0  0  0  0  0  0  0  0
   -1.9689    0.1350    0.8298 N   0  0  0  0  0  0  0  0  0  0  0  0
   -2.5039   -0.1183   -0.4830 C   0  0  2  0  0  0  0  0  0  0  0  0
   -3.0420   -1.5447   -0.5117 C   0  0  0  0  0  0  0  0  0  0  0  0
   -4.1148   -1.8457   -1.0309 O   0  0  0  0  0  0  0  0  0  0  0  0
   -1.4634    0.1211   -1.5723 C   0  0  0  0  0  0  0  0  0  0  0  0
   -0.4098   -0.8296   -1.4649 O   0  0  0  0  0  0  0  0  0  0  0  0
   -2.5276    0.6894    1.4750 H   0  0  0  0  0  0  0  0  0  0  0  0
   -3.3397    0.5784   -0.6151 H   0  0  0  0  0  0  0  0  0  0  0  0
   -1.0276    1.1217   -1.4869 H   0  0  0  0  0  0  0  0  0  0  0  0
   -1.9145    0.0182   -2.5650 H   0  0  0  0  0  0  0  0  0  0  0  0
   -0.8140   -1.7057   -1.5678 H   0  0  0  0  0  0  0  0  0  0  0  0
   -2.1633   -2.4462    0.0722 N   0  0  0  0  0  0  0  0  0  0  0  0
   -2.4292   -3.8642    0.1426 C   0  0  2  0  0  0  0  0  0  0  0  0
   -3.1983   -4.2612   -1.1105 C   0  0  0  0  0  0  0  0  0  0  0  0
   -3.8483   -3.4612   -1.7803 O   0  0  0  0  0  0  0  0  0  0  0  0
   -3.2131   -4.2186    1.3966 C   0  0  0  0  0  0  0  0  0  0  0  0
   -1.2779   -2.1124    0.4416 H   0  0  0  0  0  0  0  0  0  0  0  0
   -1.4567   -4.3684    0.1500 H   0  0  0  0  0  0  0  0  0  0  0  0
   -4.1905   -3.7227    1.4071 H   0  0  0  0  0  0  0  0  0  0  0  0
   -3.3891   -5.2974    1.4629 H   0  0  0  0  0  0  0  0  0  0  0  0
   -2.6719   -3.9055    2.2960 H   0  0  0  0  0  0  0  0  0  0  0  0
   -3.1089   -5.6219   -1.3686 N   0  0  0  0  0  0  0  0  0  0  0  0
   -3.7630   -6.2465   -2.4947 C   0  0  0  0  0  0  0  0  0  0  0  0
   -2.5325   -6.2070   -0.7710 H   0  0  0  0  0  0  0  0  0  0  0  0
   -4.7541   -6.6116   -2.1874 H   0  0  0  0  0  0  0  0  0  0  0  0
   -3.8782   -5.5120   -3.3053 H   0  0  0  0  0  0  0  0  0  0  0  0
   -3.1548   -7.0917   -2.8493 H   0  0  0  0  0  0  0  0  0  0  0  0
  1  3  1  0  0  0  0
  1  7  1  0  0  0  0
  1  2  2  0  0  0  0
 29 30  1  0  0  0  0
 30 38  1  0  0  0  0
 30 31  2  0  0  0  0
  8  9  1  0  0  0  0
  9 17  1  0  0  0  0
  9 10  2  0  0  0  0
 18 19  1  0  0  0  0
 19 28  1  0  0  0  0
 19 20  2  0  0  0  0
 29 32  1  0  0  0  0
  8 11  1  0  0  0  0
 38 39  1  0  0  0  0
 18 21  1  0  0  0  0
 21 22  1  0  0  0  0
 28 29  1  0  0  0  0
  7  8  1  0  0  0  0
 17 18  1  0  0  0  0
  3  4  1  0  0  0  0
  3  5  1  0  0  0  0
  3  6  1  0  0  0  0
 32 35  1  0  0  0  0
 32 36  1  0  0  0  0
 32 37  1  0  0  0  0
 11 14  1  0  0  0  0
 11 15  1  0  0  0  0
 11 16  1  0  0  0  0
 39 41  1  0  0  0  0
 39 42  1  0  0  0  0
 39 43  1  0  0  0  0
 21 25  1  0  0  0  0
 21 26  1  0  0  0  0
 29 34  1  0  0  0  0
  8 13  1  0  0  0  0
 18 24  1  0  0  0  0
 38 40  1  0  0  0  0
  7 12  1  0  0  0  0
 28 33  1  0  0  0  0
 17 23  1  0  0  0  0
 22 27  1  0  0  0  0
M  END
$$$$

  -OEChem-05262214473D

 43 42  0     1  0  0  0  0  0999 V2000
    0.7424   -1.0926    4.5665 C   0  0  0  0  0  0  0  0  0  0  0  0
    0.1409   -0.5364    5.4779 O   0  0  0  0  0  0  0  0  0  0  0  0
    1.7940   -2.1023    4.8871 C   0  0  0  0  0  0  0  0  0  0  0  0
    2.7935   -1.6502    4.9904 H   0  0  0  0  0  0  0  0  0  0  0  0
    1.6064   -2.6156    5.8438 H   0  0  0  0  0  0  0  0  0  0  0  0
    1.9156   -2.9078    4.1453 H   0  0  0  0  0  0  0  0  0  0  0  0
    0.5488   -0.8838    3.2109 N   0  0  0  0  0  0  0  0  0  0  0  0
   -0.4159    0.0446    2.6829 C   0  0  2  0  0  0  0  0  0  0  0  0
   -0.7551   -0.3867    1.2623 C   0  0  0  0  0  0  0  0  0  0  0  0
   -0.0106   -1.0851    0.5774 O   0  0  0  0  0  0  0  0  0  0  0  0
    0.1168    1.4689    2.7060 C   0  0  0  0  0  0  0  0  0  0  0  0
    1.1183   -1.4145    2.5542 H   0  0  0  0  0  0  0  0  0  0  0  0
   -1.3088   -0.0350    3.3125 H   0  0  0  0  0  0  0  0  0  0  0  0
    1.0116    1.5681    2.0808 H   0  0  0  0  0  0  0  0  0  0  0  0
   -0.6289    2.1775    2.3307 H   0  0  0  0  0  0  0  0  0  0  0  0
    0.3882    1.7670    3.7245 H   0  0  0  0  0  0  0  0  0  0  0  0
   -1.9689    0.1350    0.8298 N   0  0  0  0  0  0  0  0  0  0  0  0
   -2.5039   -0.1183   -0.4830 C   0  0  2  0  0  0  0  0  0  0  0  0
   -3.0420   -1.5447   -0.5117 C   0  0  0  0  0  0  0  0  0  0  0  0
   -3.9621   -1.8990   -1.2459 O   0  0  0  0  0  0  0  0  0  0  0  0
   -1.4634    0.1211   -1.5723 C   0  0  0  0  0  0  0  0  0  0  0  0
   -0.4098   -0.8296   -1.4649 O   0  0  0  0  0  0  0  0  0  0  0  0
   -2.5276    0.6894    1.4750 H   0  0  0  0  0  0  0  0  0  0  0  0
   -3.3397    0.5784   -0.6151 H   0  0  0  0  0  0  0  0  0  0  0  0
   -1.0276    1.1217   -1.4869 H   0  0  0  0  0  0  0  0  0  0  0  0
   -1.9145    0.0182   -2.5650 H   0  0  0  0  0  0  0  0  0  0  0  0
   -0.8140   -1.7057   -1.5678 H   0  0  0  0  0  0  0  0  0  0  0  0
   -2.3452   -2.3830    0.3471 N   0  0  0  0  0  0  0  0  0  0  0  0
   -2.6431   -3.7903    0.4793 C   0  0  2  0  0  0  0  0  0  0  0  0
   -3.0926   -4.3057   -0.8815 C   0  0  0  0  0  0  0  0  0  0  0  0
   -3.5482   -3.5748   -1.7586 O   0  0  0  0  0  0  0  0  0  0  0  0
   -3.7126   -4.0329    1.5328 C   0  0  0  0  0  0  0  0  0  0  0  0
   -1.5703   -2.0111    0.8882 H   0  0  0  0  0  0  0  0  0  0  0  0
   -1.7095   -4.2854    0.7678 H   0  0  0  0  0  0  0  0  0  0  0  0
   -4.6555   -3.5443    1.2610 H   0  0  0  0  0  0  0  0  0  0  0  0
   -3.9168   -5.1021    1.6520 H   0  0  0  0  0  0  0  0  0  0  0  0
   -3.4001   -3.6350    2.5043 H   0  0  0  0  0  0  0  0  0  0  0  0
   -2.9653   -5.6838   -0.9857 N   0  0  0  0  0  0  0  0  0  0  0  0
   -3.3376   -6.4134   -2.1752 C   0  0  0  0  0  0  0  0  0  0  0  0
   -2.5601   -6.2078   -0.2157 H   0  0  0  0  0  0  0  0  0  0  0  0
   -4.3793   -6.7551   -2.0855 H   0  0  0  0  0  0  0  0  0  0  0  0
   -3.2414   -5.7573   -3.0528 H   0  0  0  0  0  0  0  0  0  0  0  0
   -2.6754   -7.2837   -2.2937 H   0  0  0  0  0  0  0  0  0  0  0  0
  1  3  1  0  0  0  0
  1  7  1  0  0  0  0
  1  2  2  0  0  0  0
 29 30  1  0  0  0  0
 30 38  1  0  0  0  0
 30 31  2  0  0  0  0
  8  9  1  0  0  0  0
  9 17  1  0  0  0  0
  9 10  2  0  0  0  0
 18 19  1  0  0  0  0
 19 28  1  0  0  0  0
 19 20  2  0  0  0  0
 29 32  1  0  0  0  0
  8 11  1  0  0  0  0
 38 39  1  0  0  0  0
 18 21  1  0  0  0  0
 21 22  1  0  0  0  0
 28 29  1  0  0  0  0
  7  8  1  0  0  0  0
 17 18  1  0  0  0  0
  3  4  1  0  0  0  0
  3  5  1  0  0  0  0
  3  6  1  0  0  0  0
 32 35  1  0  0  0  0
 32 36  1  0  0  0  0
 32 37  1  0  0  0  0
 11 14  1  0  0  0  0
 11 15  1  0  0  0  0
 11 16  1  0  0  0  0
 39 41  1  0  0  0  0
 39 42  1  0  0  0  0
 39 43  1  0  0  0  0
 21 25  1  0  0  0  0
 21 26  1  0  0  0  0
 29 34  1  0  0  0  0
  8 13  1  0  0  0  0
 18 24  1  0  0  0  0
 38 40  1  0  0  0  0
  7 12  1  0  0  0  0
 28 33  1  0  0  0  0
 17 23  1  0  0  0  0
 22 27  1  0  0  0  0
M  END
$$$$

  -OEChem-05262214473D

 43 42  0     1  0  0  0  0  0999 V2000
    0.7424   -1.0926    4.5665 C   0  0  0  0  0  0  0  0  0  0  0  0
    0.1409   -0.5364    5.4779 O   0  0  0  0  0  0  0  0  0  0  0  0
    1.7940   -2.1023    4.8871 C   0  0  0  0  0  0  0  0  0  0  0  0
    2.7935   -1.6502    4.9904 H   0  0  0  0  0  0  0  0  0  0  0  0
    1.6064   -2.6156    5.8438 H   0  0  0  0  0  0  0  0  0  0  0  0
    1.9156   -2.9078    4.1453 H   0  0  0  0  0  0  0  0  0  0  0  0
    0.5488   -0.8838    3.2109 N   0  0  0  0  0  0  0  0  0  0  0  0
   -0.4159    0.0446    2.6829 C   0  0  2  0  0  0  0  0  0  0  0  0
   -0.7551   -0.3867    1.2623 C   0  0  0  0  0  0  0  0  0  0  0  0
   -0.0106   -1.0851    0.5774 O   0  0  0  0  0  0  0  0  0  0  0  0
    0.1168    1.4689    2.7060 C   0  0  0  0  0  0  0  0  0  0  0  0
    1.1183   -1.4145    2.5542 H   0  0  0  0  0  0  0  0  0  0  0  0
   -1.3088   -0.0350    3.3125 H   0  0  0  0  0  0  0  0  0  0  0  0
    1.0116    1.5681    2.0808 H   0  0  0  0  0  0  0  0  0  0  0  0
   -0.6289    2.1775    2.3307 H   0  0  0  0  0  0  0  0  0  0  0  0
    0.3882    1.7670    3.7245 H   0  0  0  0  0  0  0  0  0  0  0  0
   -1.9689    0.1350    0.8298 N   0  0  0  0  0  0  0  0  0  0  0  0
   -2.5039   -0.1183   -0.4830 C   0  0  2  0  0  0  0  0  0  0  0  0
   -3.0420   -1.5447   -0.5117 C   0  0  0  0  0  0  0  0  0  0  0  0
   -3.7627   -1.9709   -1.4117 O   0  0  0  0  0  0  0  0  0  0  0  0
   -1.4634    0.1211   -1.5723 C   0  0  0  0  0  0  0  0  0  0  0  0
   -0.4098   -0.8296   -1.4649 O   0  0  0  0  0  0  0  0  0  0  0  0
   -2.5276    0.6894    1.4750 H   0  0  0  0  0  0  0  0  0  0  0  0
   -3.3397    0.5784   -0.6151 H   0  0  0  0  0  0  0  0  0  0  0  0
   -1.0276    1.1217   -1.4869 H   0  0  0  0  0  0  0  0  0  0  0  0
   -1.9145    0.0182   -2.5650 H   0  0  0  0  0  0  0  0  0  0  0  0
   -0.8140   -1.7057   -1.5678 H   0  0  0  0  0  0  0  0  0  0  0  0
   -2.5873   -2.2961    0.5628 N   0  0  0  0  0  0  0  0  0  0  0  0
   -2.9309   -3.6871    0.7460 C   0  0  2  0  0  0  0  0  0  0  0  0
   -3.0461   -4.3283   -0.6307 C   0  0  0  0  0  0  0  0  0  0  0  0
   -3.2642   -3.6840   -1.6546 O   0  0  0  0  0  0  0  0  0  0  0  0
   -4.2273   -3.8386    1.5264 C   0  0  0  0  0  0  0  0  0  0  0  0
   -1.9603   -1.8710    1.2395 H   0  0  0  0  0  0  0  0  0  0  0  0
   -2.1029   -4.1476    1.2959 H   0  0  0  0  0  0  0  0  0  0  0  0
   -5.0684   -3.3832    0.9911 H   0  0  0  0  0  0  0  0  0  0  0  0
   -4.4714   -4.8936    1.6891 H   0  0  0  0  0  0  0  0  0  0  0  0
   -4.1527   -3.3511    2.5044 H   0  0  0  0  0  0  0  0  0  0  0  0
   -2.9197   -5.7093   -0.5754 N   0  0  0  0  0  0  0  0  0  0  0  0
   -3.0048   -6.5475   -1.7484 C   0  0  0  0  0  0  0  0  0  0  0  0
   -2.7212   -6.1577    0.3142 H   0  0  0  0  0  0  0  0  0  0  0  0
   -4.0427   -6.8861   -1.8832 H   0  0  0  0  0  0  0  0  0  0  0  0
   -2.6886   -5.9742   -2.6324 H   0  0  0  0  0  0  0  0  0  0  0  0
   -2.3477   -7.4208   -1.6234 H   0  0  0  0  0  0  0  0  0  0  0  0
  1  3  1  0  0  0  0
  1  7  1  0  0  0  0
  1  2  2  0  0  0  0
 29 30  1  0  0  0  0
 30 38  1  0  0  0  0
 30 31  2  0  0  0  0
  8  9  1  0  0  0  0
  9 17  1  0  0  0  0
  9 10  2  0  0  0  0
 18 19  1  0  0  0  0
 19 28  1  0  0  0  0
 19 20  2  0  0  0  0
 29 32  1  0  0  0  0
  8 11  1  0  0  0  0
 38 39  1  0  0  0  0
 18 21  1  0  0  0  0
 21 22  1  0  0  0  0
 28 29  1  0  0  0  0
  7  8  1  0  0  0  0
 17 18  1  0  0  0  0
  3  4  1  0  0  0  0
  3  5  1  0  0  0  0
  3  6  1  0  0  0  0
 32 35  1  0  0  0  0
 32 36  1  0  0  0  0
 32 37  1  0  0  0  0
 11 14  1  0  0  0  0
 11 15  1  0  0  0  0
 11 16  1  0  0  0  0
 39 41  1  0  0  0  0
 39 42  1  0  0  0  0
 39 43  1  0  0  0  0
 21 25  1  0  0  0  0
 21 26  1  0  0  0  0
 29 34  1  0  0  0  0
  8 13  1  0  0  0  0
 18 24  1  0  0  0  0
 38 40  1  0  0  0  0
  7 12  1  0  0  0  0
 28 33  1  0  0  0  0
 17 23  1  0  0  0  0
 22 27  1  0  0  0  0
M  END
$$$$

  -OEChem-05262214473D

 43 42  0     1  0  0  0  0  0999 V2000
    0.7424   -1.0926    4.5665 C   0  0  0  0  0  0  0  0  0  0  0  0
    0.1409   -0.5364    5.4779 O   0  0  0  0  0  0  0  0  0  0  0  0
    1.7940   -2.1023    4.8871 C   0  0  0  0  0  0  0  0  0  0  0  0
    2.7935   -1.6502    4.9904 H   0  0  0  0  0  0  0  0  0  0  0  0
    1.6064   -2.6156    5.8438 H   0  0  0  0  0  0  0  0  0  0  0  0
    1.9156   -2.9078    4.1453 H   0  0  0  0  0  0  0  0  0  0  0  0
    0.5488   -0.8838    3.2109 N   0  0  0  0  0  0  0  0  0  0  0  0
   -0.4159    0.0446    2.6829 C   0  0  2  0  0  0  0  0  0  0  0  0
   -0.7551   -0.3867    1.2623 C   0  0  0  0  0  0  0  0  0  0  0  0
   -0.0106   -1.0851    0.5774 O   0  0  0  0  0  0  0  0  0  0  0  0
    0.1168    1.4689    2.7060 C   0  0  0  0  0  0  0  0  0  0  0  0
    1.1183   -1.4145    2.5542 H   0  0  0  0  0  0  0  0  0  0  0  0
   -1.3088   -0.0350    3.3125 H   0  0  0  0  0  0  0  0  0  0  0  0
    1.0116    1.5681    2.0808 H   0  0  0  0  0  0  0  0  0  0  0  0
   -0.6289    2.1775    2.3307 H   0  0  0  0  0  0  0  0  0  0  0  0
    0.3882    1.7670    3.7245 H   0  0  0  0  0  0  0  0  0  0  0  0
   -1.9689    0.1350    0.8298 N   0  0  0  0  0  0  0  0  0  0  0  0
   -2.5039   -0.1183   -0.4830 C   0  0  2  0  0  0  0  0  0  0  0  0
   -3.0420   -1.5447   -0.5117 C   0  0  0  0  0  0  0  0  0  0  0  0
   -3.5304   -2.0564   -1.5170 O   0  0  0  0  0  0  0  0  0  0  0  0
   -1.4634    0.1211   -1.5723 C   0  0  0  0  0  0  0  0  0  0  0  0
   -0.4098   -0.8296   -1.4649 O   0  0  0  0  0  0  0  0  0  0  0  0
   -2.5276    0.6894    1.4750 H   0  0  0  0  0  0  0  0  0  0  0  0
   -3.3397    0.5784   -0.6151 H   0  0  0  0  0  0  0  0  0  0  0  0
   -1.0276    1.1217   -1.4869 H   0  0  0  0  0  0  0  0  0  0  0  0
   -1.9145    0.0182   -2.5650 H   0  0  0  0  0  0  0  0  0  0  0  0
   -0.8140   -1.7057   -1.5678 H   0  0  0  0  0  0  0  0  0  0  0  0
   -2.8728   -2.1912    0.7046 N   0  0  0  0  0  0  0  0  0  0  0  0
   -3.2729   -3.5616    0.9244 C   0  0  2  0  0  0  0  0  0  0  0  0
   -3.0620   -4.3274   -0.3750 C   0  0  0  0  0  0  0  0  0  0  0  0
   -3.0156   -3.7814   -1.4754 O   0  0  0  0  0  0  0  0  0  0  0  0
   -4.7219   -3.6491    1.3779 C   0  0  0  0  0  0  0  0  0  0  0  0
   -2.4214   -1.7017    1.4716 H   0  0  0  0  0  0  0  0  0  0  0  0
   -2.6101   -3.9644    1.6980 H   0  0  0  0  0  0  0  0  0  0  0  0
   -5.4010   -3.2501    0.6156 H   0  0  0  0  0  0  0  0  0  0  0  0
   -5.0151   -4.6862    1.5716 H   0  0  0  0  0  0  0  0  0  0  0  0
   -4.8782   -3.0732    2.2965 H   0  0  0  0  0  0  0  0  0  0  0  0
   -2.9750   -5.6966   -0.1657 N   0  0  0  0  0  0  0  0  0  0  0  0
   -2.7874   -6.6397   -1.2434 C   0  0  0  0  0  0  0  0  0  0  0  0
   -3.0048   -6.0600    0.7823 H   0  0  0  0  0  0  0  0  0  0  0  0
   -3.7672   -6.9959   -1.5943 H   0  0  0  0  0  0  0  0  0  0  0  0
   -2.2576   -6.1481   -2.0726 H   0  0  0  0  0  0  0  0  0  0  0  0
   -2.1942   -7.4935   -0.8841 H   0  0  0  0  0  0  0  0  0  0  0  0
  1  3  1  0  0  0  0
  1  7  1  0  0  0  0
  1  2  2  0  0  0  0
 29 30  1  0  0  0  0
 30 38  1  0  0  0  0
 30 31  2  0  0  0  0
  8  9  1  0  0  0  0
  9 17  1  0  0  0  0
  9 10  2  0  0  0  0
 18 19  1  0  0  0  0
 19 28  1  0  0  0  0
 19 20  2  0  0  0  0
 29 32  1  0  0  0  0
  8 11  1  0  0  0  0
 38 39  1  0  0  0  0
 18 21  1  0  0  0  0
 21 22  1  0  0  0  0
 28 29  1  0  0  0  0
  7  8  1  0  0  0  0
 17 18  1  0  0  0  0
  3  4  1  0  0  0  0
  3  5  1  0  0  0  0
  3  6  1  0  0  0  0
 32 35  1  0  0  0  0
 32 36  1  0  0  0  0
 32 37  1  0  0  0  0
 11 14  1  0  0  0  0
 11 15  1  0  0  0  0
 11 16  1  0  0  0  0
 39 41  1  0  0  0  0
 39 42  1  0  0  0  0
 39 43  1  0  0  0  0
 21 25  1  0  0  0  0
 21 26  1  0  0  0  0
 29 34  1  0  0  0  0
  8 13  1  0  0  0  0
 18 24  1  0  0  0  0
 38 40  1  0  0  0  0
  7 12  1  0  0  0  0
 28 33  1  0  0  0  0
 17 23  1  0  0  0  0
 22 27  1  0  0  0  0
M  END
$$$$

  -OEChem-05262214473D

 43 42  0     1  0  0  0  0  0999 V2000
    0.7424   -1.0926    4.5665 C   0  0  0  0  0  0  0  0  0  0  0  0
    0.1409   -0.5364    5.4779 O   0  0  0  0  0  0  0  0  0  0  0  0
    1.7940   -2.1023    4.8871 C   0  0  0  0  0  0  0  0  0  0  0  0
    2.7935   -1.6502    4.9904 H   0  0  0  0  0  0  0  0  0  0  0  0
    1.6064   -2.6156    5.8438 H   0  0  0  0  0  0  0  0  0  0  0  0
    1.9156   -2.9078    4.1453 H   0  0  0  0  0  0  0  0  0  0  0  0
    0.5488   -0.8838    3.2109 N   0  0  0  0  0  0  0  0  0  0  0  0
   -0.4159    0.0446    2.6829 C   0  0  2  0  0  0  0  0  0  0  0  0
   -0.7551   -0.3867    1.2623 C   0  0  0  0  0  0  0  0  0  0  0  0
   -0.0106   -1.0851    0.5774 O   0  0  0  0  0  0  0  0  0  0  0  0
    0.1168    1.4689    2.7060 C   0  0  0  0  0  0  0  0  0  0  0  0
    1.1183   -1.4145    2.5542 H   0  0  0  0  0  0  0  0  0  0  0  0
   -1.3088   -0.0350    3.3125 H   0  0  0  0  0  0  0  0  0  0  0  0
    1.0116    1.5681    2.0808 H   0  0  0  0  0  0  0  0  0  0  0  0
   -0.6289    2.1775    2.3307 H   0  0  0  0  0  0  0  0  0  0  0  0
    0.3882    1.7670    3.7245 H   0  0  0  0  0  0  0  0  0  0  0  0
   -1.9689    0.1350    0.8298 N   0  0  0  0  0  0  0  0  0  0  0  0
   -2.5039   -0.1183   -0.4830 C   0  0  2  0  0  0  0  0  0  0  0  0
   -3.0420   -1.5447   -0.5117 C   0  0  0  0  0  0  0  0  0  0  0  0
   -3.2809   -2.1498   -1.5547 O   0  0  0  0  0  0  0  0  0  0  0  0
   -1.4634    0.1211   -1.5723 C   0  0  0  0  0  0  0  0  0  0  0  0
   -0.4098   -0.8296   -1.4649 O   0  0  0  0  0  0  0  0  0  0  0  0
   -2.5276    0.6894    1.4750 H   0  0  0  0  0  0  0  0  0  0  0  0
   -3.3397    0.5784   -0.6151 H   0  0  0  0  0  0  0  0  0  0  0  0
   -1.0276    1.1217   -1.4869 H   0  0  0  0  0  0  0  0  0  0  0  0
   -1.9145    0.0182   -2.5650 H   0  0  0  0  0  0  0  0  0  0  0  0
   -0.8140   -1.7057   -1.5678 H   0  0  0  0  0  0  0  0  0  0  0  0
   -3.1825   -2.0755    0.7628 N   0  0  0  0  0  0  0  0  0  0  0  0
   -3.6459   -3.4225    1.0026 C   0  0  2  0  0  0  0  0  0  0  0  0
   -3.1393   -4.3031   -0.1320 C   0  0  0  0  0  0  0  0  0  0  0  0
   -2.8193   -3.8603   -1.2332 O   0  0  0  0  0  0  0  0  0  0  0  0
   -5.1627   -3.4771    1.0974 C   0  0  0  0  0  0  0  0  0  0  0  0
   -2.9222   -1.5148    1.5687 H   0  0  0  0  0  0  0  0  0  0  0  0
   -3.1965   -3.7482    1.9470 H   0  0  0  0  0  0  0  0  0  0  0  0
   -5.6308   -3.1543    0.1603 H   0  0  0  0  0  0  0  0  0  0  0  0
   -5.5108   -4.4939    1.3075 H   0  0  0  0  0  0  0  0  0  0  0  0
   -5.5273   -2.8203    1.8945 H   0  0  0  0  0  0  0  0  0  0  0  0
   -3.1276   -5.6467    0.2155 N   0  0  0  0  0  0  0  0  0  0  0  0
   -2.7001   -6.6837   -0.6944 C   0  0  0  0  0  0  0  0  0  0  0  0
   -3.3917   -5.9216    1.1570 H   0  0  0  0  0  0  0  0  0  0  0  0
   -3.5715   -7.0769   -1.2386 H   0  0  0  0  0  0  0  0  0  0  0  0
   -1.9776   -6.2670   -1.4116 H   0  0  0  0  0  0  0  0  0  0  0  0
   -2.2252   -7.4970   -0.1262 H   0  0  0  0  0  0  0  0  0  0  0  0
  1  3  1  0  0  0  0
  1  7  1  0  0  0  0
  1  2  2  0  0  0  0
 29 30  1  0  0  0  0
 30 38  1  0  0  0  0
 30 31  2  0  0  0  0
  8  9  1  0  0  0  0
  9 17  1  0  0  0  0
  9 10  2  0  0  0  0
 18 19  1  0  0  0  0
 19 28  1  0  0  0  0
 19 20  2  0  0  0  0
 29 32  1  0  0  0  0
  8 11  1  0  0  0  0
 38 39  1  0  0  0  0
 18 21  1  0  0  0  0
 21 22  1  0  0  0  0
 28 29  1  0  0  0  0
  7  8  1  0  0  0  0
 17 18  1  0  0  0  0
  3  4  1  0  0  0  0
  3  5  1  0  0  0  0
  3  6  1  0  0  0  0
 32 35  1  0  0  0  0
 32 36  1  0  0  0  0
 32 37  1  0  0  0  0
 11 14  1  0  0  0  0
 11 15  1  0  0  0  0
 11 16  1  0  0  0  0
 39 41  1  0  0  0  0
 39 42  1  0  0  0  0
 39 43  1  0  0  0  0
 21 25  1  0  0  0  0
 21 26  1  0  0  0  0
 29 34  1  0  0  0  0
  8 13  1  0  0  0  0
 18 24  1  0  0  0  0
 38 40  1  0  0  0  0
  7 12  1  0  0  0  0
 28 33  1  0  0  0  0
 17 23  1  0  0  0  0
 22 27  1  0  0  0  0
M  END
$$$$

  -OEChem-05262214473D

 43 42  0     1  0  0  0  0  0999 V2000
    0.7424   -1.0926    4.5665 C   0  0  0  0  0  0  0  0  0  0  0  0
    0.1409   -0.5364    5.4779 O   0  0  0  0  0  0  0  0  0  0  0  0
    1.7940   -2.1023    4.8871 C   0  0  0  0  0  0  0  0  0  0  0  0
    2.7935   -1.6502    4.9904 H   0  0  0  0  0  0  0  0  0  0  0  0
    1.6064   -2.6156    5.8438 H   0  0  0  0  0  0  0  0  0  0  0  0
    1.9156   -2.9078    4.1453 H   0  0  0  0  0  0  0  0  0  0  0  0
    0.5488   -0.8838    3.2109 N   0  0  0  0  0  0  0  0  0  0  0  0
   -0.4159    0.0446    2.6829 C   0  0  2  0  0  0  0  0  0  0  0  0
   -0.7551   -0.3867    1.2623 C   0  0  0  0  0  0  0  0  0  0  0  0
   -0.0106   -1.0851    0.5774 O   0  0  0  0  0  0  0  0  0  0  0  0
    0.1168    1.4689    2.7060 C   0  0  0  0  0  0  0  0  0  0  0  0
    1.1183   -1.4145    2.5542 H   0  0  0  0  0  0  0  0  0  0  0  0
   -1.3088   -0.0350    3.3125 H   0  0  0  0  0  0  0  0  0  0  0  0
    1.0116    1.5681    2.0808 H   0  0  0  0  0  0  0  0  0  0  0  0
   -0.6289    2.1775    2.3307 H   0  0  0  0  0  0  0  0  0  0  0  0
    0.3882    1.7670    3.7245 H   0  0  0  0  0  0  0  0  0  0  0  0
   -1.9689    0.1350    0.8298 N   0  0  0  0  0  0  0  0  0  0  0  0
   -2.5039   -0.1183   -0.4830 C   0  0  2  0  0  0  0  0  0  0  0  0
   -3.0420   -1.5447   -0.5117 C   0  0  0  0  0  0  0  0  0  0  0  0
   -3.0312   -2.2446   -1.5222 O   0  0  0  0  0  0  0  0  0  0  0  0
   -1.4634    0.1211   -1.5723 C   0  0  0  0  0  0  0  0  0  0  0  0
   -0.4098   -0.8296   -1.4649 O   0  0  0  0  0  0  0  0  0  0  0  0
   -2.5276    0.6894    1.4750 H   0  0  0  0  0  0  0  0  0  0  0  0
   -3.3397    0.5784   -0.6151 H   0  0  0  0  0  0  0  0  0  0  0  0
   -1.0276    1.1217   -1.4869 H   0  0  0  0  0  0  0  0  0  0  0  0
   -1.9145    0.0182   -2.5650 H   0  0  0  0  0  0  0  0  0  0  0  0
   -0.8140   -1.7057   -1.5678 H   0  0  0  0  0  0  0  0  0  0  0  0
   -3.4951   -1.9570    0.7335 N   0  0  0  0  0  0  0  0  0  0  0  0
   -4.0244   -3.2791    0.9750 C   0  0  2  0  0  0  0  0  0  0  0  0
   -3.2727   -4.2571    0.0817 C   0  0  0  0  0  0  0  0  0  0  0  0
   -2.6887   -3.9154   -0.9446 O   0  0  0  0  0  0  0  0  0  0  0  0
   -5.5198   -3.3345    0.7040 C   0  0  0  0  0  0  0  0  0  0  0  0
   -3.4285   -1.3229    1.5241 H   0  0  0  0  0  0  0  0  0  0  0  0
   -3.8221   -3.5137    2.0258 H   0  0  0  0  0  0  0  0  0  0  0  0
   -5.7421   -3.1022   -0.3440 H   0  0  0  0  0  0  0  0  0  0  0  0
   -5.9247   -4.3298    0.9149 H   0  0  0  0  0  0  0  0  0  0  0  0
   -6.0558   -2.6095    1.3260 H   0  0  0  0  0  0  0  0  0  0  0  0
   -3.3670   -5.5629    0.5422 N   0  0  0  0  0  0  0  0  0  0  0  0
   -2.7489   -6.6764   -0.1390 C   0  0  0  0  0  0  0  0  0  0  0  0
   -3.8554   -5.7518    1.4125 H   0  0  0  0  0  0  0  0  0  0  0  0
   -3.4690   -7.1235   -0.8401 H   0  0  0  0  0  0  0  0  0  0  0  0
   -1.8677   -6.3228   -0.6945 H   0  0  0  0  0  0  0  0  0  0  0  0
   -2.4387   -7.4311    0.5987 H   0  0  0  0  0  0  0  0  0  0  0  0
  1  3  1  0  0  0  0
  1  7  1  0  0  0  0
  1  2  2  0  0  0  0
 29 30  1  0  0  0  0
 30 38  1  0  0  0  0
 30 31  2  0  0  0  0
  8  9  1  0  0  0  0
  9 17  1  0  0  0  0
  9 10  2  0  0  0  0
 18 19  1  0  0  0  0
 19 28  1  0  0  0  0
 19 20  2  0  0  0  0
 29 32  1  0  0  0  0
  8 11  1  0  0  0  0
 38 39  1  0  0  0  0
 18 21  1  0  0  0  0
 21 22  1  0  0  0  0
 28 29  1  0  0  0  0
  7  8  1  0  0  0  0
 17 18  1  0  0  0  0
  3  4  1  0  0  0  0
  3  5  1  0  0  0  0
  3  6  1  0  0  0  0
 32 35  1  0  0  0  0
 32 36  1  0  0  0  0
 32 37  1  0  0  0  0
 11 14  1  0  0  0  0
 11 15  1  0  0  0  0
 11 16  1  0  0  0  0
 39 41  1  0  0  0  0
 39 42  1  0  0  0  0
 39 43  1  0  0  0  0
 21 25  1  0  0  0  0
 21 26  1  0  0  0  0
 29 34  1  0  0  0  0
  8 13  1  0  0  0  0
 18 24  1  0  0  0  0
 38 40  1  0  0  0  0
  7 12  1  0  0  0  0
 28 33  1  0  0  0  0
 17 23  1  0  0  0  0
 22 27  1  0  0  0  0
M  END
$$$$

  -OEChem-05262214473D

 43 42  0     1  0  0  0  0  0999 V2000
    0.7424   -1.0926    4.5665 C   0  0  0  0  0  0  0  0  0  0  0  0
    0.1409   -0.5364    5.4779 O   0  0  0  0  0  0  0  0  0  0  0  0
    1.7940   -2.1023    4.8871 C   0  0  0  0  0  0  0  0  0  0  0  0
    2.7935   -1.6502    4.9904 H   0  0  0  0  0  0  0  0  0  0  0  0
    1.6064   -2.6156    5.8438 H   0  0  0  0  0  0  0  0  0  0  0  0
    1.9156   -2.9078    4.1453 H   0  0  0  0  0  0  0  0  0  0  0  0
    0.5488   -0.8838    3.2109 N   0  0  0  0  0  0  0  0  0  0  0  0
   -0.4159    0.0446    2.6829 C   0  0  2  0  0  0  0  0  0  0  0  0
   -0.7551   -0.3867    1.2623 C   0  0  0  0  0  0  0  0  0  0  0  0
   -0.0106   -1.0851    0.5774 O   0  0  0  0  0  0  0  0  0  0  0  0
    0.1168    1.4689    2.7060 C   0  0  0  0  0  0  0  0  0  0  0  0
    1.1183   -1.4145    2.5542 H   0  0  0  0  0  0  0  0  0  0  0  0
   -1.3088   -0.0350    3.3125 H   0  0  0  0  0  0  0  0  0  0  0  0
    1.0116    1.5681    2.0808 H   0  0  0  0  0  0  0  0  0  0  0  0
   -0.6289    2.1775    2.3307 H   0  0  0  0  0  0  0  0  0  0  0  0
    0.3882    1.7670    3.7245 H   0  0  0  0  0  0  0  0  0  0  0  0
   -1.9689    0.1350    0.8298 N   0  0  0  0  0  0  0  0  0  0  0  0
   -2.5039   -0.1183   -0.4830 C   0  0  2  0  0  0  0  0  0  0  0  0
   -3.0420   -1.5447   -0.5117 C   0  0  0  0  0  0  0  0  0  0  0  0
   -2.7983   -2.3345   -1.4216 O   0  0  0  0  0  0  0  0  0  0  0  0
   -1.4634    0.1211   -1.5723 C   0  0  0  0  0  0  0  0  0  0  0  0
   -0.4098   -0.8296   -1.4649 O   0  0  0  0  0  0  0  0  0  0  0  0
   -2.5276    0.6894    1.4750 H   0  0  0  0  0  0  0  0  0  0  0  0
   -3.3397    0.5784   -0.6151 H   0  0  0  0  0  0  0  0  0  0  0  0
   -1.0276    1.1217   -1.4869 H   0  0  0  0  0  0  0  0  0  0  0  0
   -1.9145    0.0182   -2.5650 H   0  0  0  0  0  0  0  0  0  0  0  0
   -0.8140   -1.7057   -1.5678 H   0  0  0  0  0  0  0  0  0  0  0  0
   -3.7894   -1.8437    0.6187 N   0  0  0  0  0  0  0  0  0  0  0  0
   -4.3827   -3.1414    0.8437 C   0  0  2  0  0  0  0  0  0  0  0  0
   -3.4531   -4.1925    0.2517 C   0  0  0  0  0  0  0  0  0  0  0  0
   -2.6327   -3.9428   -0.6291 O   0  0  0  0  0  0  0  0  0  0  0  0
   -5.7688   -3.2310    0.2245 C   0  0  0  0  0  0  0  0  0  0  0  0
   -3.9058   -1.1391    1.3410 H   0  0  0  0  0  0  0  0  0  0  0  0
   -4.4443   -3.2771    1.9289 H   0  0  0  0  0  0  0  0  0  0  0  0
   -5.7272   -3.0974   -0.8627 H   0  0  0  0  0  0  0  0  0  0  0  0
   -6.2286   -4.2052    0.4204 H   0  0  0  0  0  0  0  0  0  0  0  0
   -6.4275   -2.4553    0.6296 H   0  0  0  0  0  0  0  0  0  0  0  0
   -3.6770   -5.4510    0.7921 N   0  0  0  0  0  0  0  0  0  0  0  0
   -2.9304   -6.6184    0.3849 C   0  0  0  0  0  0  0  0  0  0  0  0
   -4.3644   -5.5622    1.5316 H   0  0  0  0  0  0  0  0  0  0  0  0
   -3.4667   -7.1327   -0.4262 H   0  0  0  0  0  0  0  0  0  0  0  0
   -1.9355   -6.3118    0.0299 H   0  0  0  0  0  0  0  0  0  0  0  0
   -2.8202   -7.3001    1.2412 H   0  0  0  0  0  0  0  0  0  0  0  0
  1  3  1  0  0  0  0
  1  7  1  0  0  0  0
  1  2  2  0  0  0  0
 29 30  1  0  0  0  0
 30 38  1  0  0  0  0
 30 31  2  0  0  0  0
  8  9  1  0  0  0  0
  9 17  1  0  0  0  0
  9 10  2  0  0  0  0
 18 19  1  0  0  0  0
 19 28  1  0  0  0  0
 19 20  2  0  0  0  0
 29 32  1  0  0  0  0
  8 11  1  0  0  0  0
 38 39  1  0  0  0  0
 18 21  1  0  0  0  0
 21 22  1  0  0  0  0
 28 29  1  0  0  0  0
  7  8  1  0  0  0  0
 17 18  1  0  0  0  0
  3  4  1  0  0  0  0
  3  5  1  0  0  0  0
  3  6  1  0  0  0  0
 32 35  1  0  0  0  0
 32 36  1  0  0  0  0
 32 37  1  0  0  0  0
 11 14  1  0  0  0  0
 11 15  1  0  0  0  0
 11 16  1  0  0  0  0
 39 41  1  0  0  0  0
 39 42  1  0  0  0  0
 39 43  1  0  0  0  0
 21 25  1  0  0  0  0
 21 26  1  0  0  0  0
 29 34  1  0  0  0  0
  8 13  1  0  0  0  0
 18 24  1  0  0  0  0
 38 40  1  0  0  0  0
  7 12  1  0  0  0  0
 28 33  1  0  0  0  0
 17 23  1  0  0  0  0
 22 27  1  0  0  0  0
M  END
$$$$

  -OEChem-05262214473D

 43 42  0     1  0  0  0  0  0999 V2000
    0.7424   -1.0926    4.5665 C   0  0  0  0  0  0  0  0  0  0  0  0
    0.1409   -0.5364    5.4779 O   0  0  0  0  0  0  0  0  0  0  0  0
    1.7940   -2.1023    4.8871 C   0  0  0  0  0  0  0  0  0  0  0  0
    2.7935   -1.6502    4.9904 H   0  0  0  0  0  0  0  0  0  0  0  0
    1.6064   -2.6156    5.8438 H   0  0  0  0  0  0  0  0  0  0  0  0
    1.9156   -2.9078    4.1453 H   0  0  0  0  0  0  0  0  0  0  0  0
    0.5488   -0.8838    3.2109 N   0  0  0  0  0  0  0  0  0  0  0  0
   -0.4159    0.0446    2.6829 C   0  0  2  0  0  0  0  0  0  0  0  0
   -0.7551   -0.3867    1.2623 C   0  0  0  0  0  0  0  0  0  0  0  0
   -0.0106   -1.0851    0.5774 O   0  0  0  0  0  0  0  0  0  0  0  0
    0.1168    1.4689    2.7060 C   0  0  0  0  0  0  0  0  0  0  0  0
    1.1183   -1.4145    2.5542 H   0  0  0  0  0  0  0  0  0  0  0  0
   -1.3088   -0.0350    3.3125 H   0  0  0  0  0  0  0  0  0  0  0  0
    1.0116    1.5681    2.0808 H   0  0  0  0  0  0  0  0  0  0  0  0
   -0.6289    2.1775    2.3307 H   0  0  0  0  0  0  0  0  0  0  0  0
    0.3882    1.7670    3.7245 H   0  0  0  0  0  0  0  0  0  0  0  0
   -1.9689    0.1350    0.8298 N   0  0  0  0  0  0  0  0  0  0  0  0
   -2.5039   -0.1183   -0.4830 C   0  0  2  0  0  0  0  0  0  0  0  0
   -3.0420   -1.5447   -0.5117 C   0  0  0  0  0  0  0  0  0  0  0  0
   -2.5982   -2.4132   -1.2599 O   0  0  0  0  0  0  0  0  0  0  0  0
   -1.4634    0.1211   -1.5723 C   0  0  0  0  0  0  0  0  0  0  0  0
   -0.4098   -0.8296   -1.4649 O   0  0  0  0  0  0  0  0  0  0  0  0
   -2.5276    0.6894    1.4750 H   0  0  0  0  0  0  0  0  0  0  0  0
   -3.3397    0.5784   -0.6151 H   0  0  0  0  0  0  0  0  0  0  0  0
   -1.0276    1.1217   -1.4869 H   0  0  0  0  0  0  0  0  0  0  0  0
   -1.9145    0.0182   -2.5650 H   0  0  0  0  0  0  0  0  0  0  0  0
   -0.8140   -1.7057   -1.5678 H   0  0  0  0  0  0  0  0  0  0  0  0
   -4.0454   -1.7433    0.4262 N   0  0  0  0  0  0  0  0  0  0  0  0
   -4.6963   -3.0185    0.6175 C   0  0  2  0  0  0  0  0  0  0  0  0
   -3.6681   -4.1137    0.3663 C   0  0  0  0  0  0  0  0  0  0  0  0
   -2.6552   -3.9408   -0.3083 O   0  0  0  0  0  0  0  0  0  0  0  0
   -5.8927   -3.1735   -0.3084 C   0  0  0  0  0  0  0  0  0  0  0  0
   -4.3217   -0.9760    1.0317 H   0  0  0  0  0  0  0  0  0  0  0  0
   -5.0208   -3.0543    1.6632 H   0  0  0  0  0  0  0  0  0  0  0  0
   -5.5872   -3.1402   -1.3606 H   0  0  0  0  0  0  0  0  0  0  0  0
   -6.4019   -4.1286   -0.1422 H   0  0  0  0  0  0  0  0  0  0  0  0
   -6.6173   -2.3681   -0.1471 H   0  0  0  0  0  0  0  0  0  0  0  0
   -4.0364   -5.3186    0.9483 N   0  0  0  0  0  0  0  0  0  0  0  0
   -3.2324   -6.5137    0.8418 C   0  0  0  0  0  0  0  0  0  0  0  0
   -4.8839   -5.3657    1.5061 H   0  0  0  0  0  0  0  0  0  0  0  0
   -3.5647   -7.1038   -0.0250 H   0  0  0  0  0  0  0  0  0  0  0  0
   -2.1763   -6.2347    0.7121 H   0  0  0  0  0  0  0  0  0  0  0  0
   -3.3435   -7.1130    1.7575 H   0  0  0  0  0  0  0  0  0  0  0  0
  1  3  1  0  0  0  0
  1  7  1  0  0  0  0
  1  2  2  0  0  0  0
 29 30  1  0  0  0  0
 30 38  1  0  0  0  0
 30 31  2  0  0  0  0
  8  9  1  0  0  0  0
  9 17  1  0  0  0  0
  9 10  2  0  0  0  0
 18 19  1  0  0  0  0
 19 28  1  0  0  0  0
 19 20  2  0  0  0  0
 29 32  1  0  0  0  0
  8 11  1  0  0  0  0
 38 39  1  0  0  0  0
 18 21  1  0  0  0  0
 21 22  1  0  0  0  0
 28 29  1  0  0  0  0
  7  8  1  0  0  0  0
 17 18  1  0  0  0  0
  3  4  1  0  0  0  0
  3  5  1  0  0  0  0
  3  6  1  0  0  0  0
 32 35  1  0  0  0  0
 32 36  1  0  0  0  0
 32 37  1  0  0  0  0
 11 14  1  0  0  0  0
 11 15  1  0  0  0  0
 11 16  1  0  0  0  0
 39 41  1  0  0  0  0
 39 42  1  0  0  0  0
 39 43  1  0  0  0  0
 21 25  1  0  0  0  0
 21 26  1  0  0  0  0
 29 34  1  0  0  0  0
  8 13  1  0  0  0  0
 18 24  1  0  0  0  0
 38 40  1  0  0  0  0
  7 12  1  0  0  0  0
 28 33  1  0  0  0  0
 17 23  1  0  0  0  0
 22 27  1  0  0  0  0
M  END
$$$$

  -OEChem-05262214473D

 43 42  0     1  0  0  0  0  0999 V2000
    0.7424   -1.0926    4.5665 C   0  0  0  0  0  0  0  0  0  0  0  0
    0.1409   -0.5364    5.4779 O   0  0  0  0  0  0  0  0  0  0  0  0
    1.7940   -2.1023    4.8871 C   0  0  0  0  0  0  0  0  0  0  0  0
    2.7935   -1.6502    4.9904 H   0  0  0  0  0  0  0  0  0  0  0  0
    1.6064   -2.6156    5.8438 H   0  0  0  0  0  0  0  0  0  0  0  0
    1.9156   -2.9078    4.1453 H   0  0  0  0  0  0  0  0  0  0  0  0
    0.5488   -0.8838    3.2109 N   0  0  0  0  0  0  0  0  0  0  0  0
   -0.4159    0.0446    2.6829 C   0  0  2  0  0  0  0  0  0  0  0  0
   -0.7551   -0.3867    1.2623 C   0  0  0  0  0  0  0  0  0  0  0  0
   -0.0106   -1.0851    0.5774 O   0  0  0  0  0  0  0  0  0  0  0  0
    0.1168    1.4689    2.7060 C   0  0  0  0  0  0  0  0  0  0  0  0
    1.1183   -1.4145    2.5542 H   0  0  0  0  0  0  0  0  0  0  0  0
   -1.3088   -0.0350    3.3125 H   0  0  0  0  0  0  0  0  0  0  0  0
    1.0116    1.5681    2.0808 H   0  0  0  0  0  0  0  0  0  0  0  0
   -0.6289    2.1775    2.3307 H   0  0  0  0  0  0  0  0  0  0  0  0
    0.3882    1.7670    3.7245 H   0  0  0  0  0  0  0  0  0  0  0  0
   -1.9689    0.1350    0.8298 N   0  0  0  0  0  0  0  0  0  0  0  0
   -2.5039   -0.1183   -0.4830 C   0  0  2  0  0  0  0  0  0  0  0  0
   -3.0420   -1.5447   -0.5117 C   0  0  0  0  0  0  0  0  0  0  0  0
   -2.4445   -2.4755   -1.0481 O   0  0  0  0  0  0  0  0  0  0  0  0
   -1.4634    0.1211   -1.5723 C   0  0  0  0  0  0  0  0  0  0  0  0
   -0.4098   -0.8296   -1.4649 O   0  0  0  0  0  0  0  0  0  0  0  0
   -2.5276    0.6894    1.4750 H   0  0  0  0  0  0  0  0  0  0  0  0
   -3.3397    0.5784   -0.6151 H   0  0  0  0  0  0  0  0  0  0  0  0
   -1.0276    1.1217   -1.4869 H   0  0  0  0  0  0  0  0  0  0  0  0
   -1.9145    0.0182   -2.5650 H   0  0  0  0  0  0  0  0  0  0  0  0
   -0.8140   -1.7057   -1.5678 H   0  0  0  0  0  0  0  0  0  0  0  0
   -4.2455   -1.6626    0.1691 N   0  0  0  0  0  0  0  0  0  0  0  0
   -4.9438   -2.9190    0.3118 C   0  0  2  0  0  0  0  0  0  0  0  0
   -3.9032   -4.0260    0.4178 C   0  0  0  0  0  0  0  0  0  0  0  0
   -2.7545   -3.9095   -0.0041 O   0  0  0  0  0  0  0  0  0  0  0  0
   -5.8830   -3.1661   -0.8584 C   0  0  0  0  0  0  0  0  0  0  0  0
   -4.6477   -0.8447    0.6174 H   0  0  0  0  0  0  0  0  0  0  0  0
   -5.5121   -2.8605    1.2465 H   0  0  0  0  0  0  0  0  0  0  0  0
   -5.3316   -3.2277   -1.8037 H   0  0  0  0  0  0  0  0  0  0  0  0
   -6.4327   -4.1051   -0.7346 H   0  0  0  0  0  0  0  0  0  0  0  0
   -6.6121   -2.3539   -0.9512 H   0  0  0  0  0  0  0  0  0  0  0  0
   -4.4207   -5.1747    1.0000 N   0  0  0  0  0  0  0  0  0  0  0  0
   -3.6342   -6.3693    1.2004 C   0  0  0  0  0  0  0  0  0  0  0  0
   -5.3786   -5.1757    1.3377 H   0  0  0  0  0  0  0  0  0  0  0  0
   -3.7564   -7.0387    0.3362 H   0  0  0  0  0  0  0  0  0  0  0  0
   -2.5737   -6.0967    1.3058 H   0  0  0  0  0  0  0  0  0  0  0  0
   -3.9731   -6.8826    2.1124 H   0  0  0  0  0  0  0  0  0  0  0  0
  1  3  1  0  0  0  0
  1  7  1  0  0  0  0
  1  2  2  0  0  0  0
 29 30  1  0  0  0  0
 30 38  1  0  0  0  0
 30 31  2  0  0  0  0
  8  9  1  0  0  0  0
  9 17  1  0  0  0  0
  9 10  2  0  0  0  0
 18 19  1  0  0  0  0
 19 28  1  0  0  0  0
 19 20  2  0  0  0  0
 29 32  1  0  0  0  0
  8 11  1  0  0  0  0
 38 39  1  0  0  0  0
 18 21  1  0  0  0  0
 21 22  1  0  0  0  0
 28 29  1  0  0  0  0
  7  8  1  0  0  0  0
 17 18  1  0  0  0  0
  3  4  1  0  0  0  0
  3  5  1  0  0  0  0
  3  6  1  0  0  0  0
 32 35  1  0  0  0  0
 32 36  1  0  0  0  0
 32 37  1  0  0  0  0
 11 14  1  0  0  0  0
 11 15  1  0  0  0  0
 11 16  1  0  0  0  0
 39 41  1  0  0  0  0
 39 42  1  0  0  0  0
 39 43  1  0  0  0  0
 21 25  1  0  0  0  0
 21 26  1  0  0  0  0
 29 34  1  0  0  0  0
  8 13  1  0  0  0  0
 18 24  1  0  0  0  0
 38 40  1  0  0  0  0
  7 12  1  0  0  0  0
 28 33  1  0  0  0  0
 17 23  1  0  0  0  0
 22 27  1  0  0  0  0
M  END
$$$$

  -OEChem-05262214473D

 43 42  0     1  0  0  0  0  0999 V2000
    0.7424   -1.0926    4.5665 C   0  0  0  0  0  0  0  0  0  0  0  0
    0.1409   -0.5364    5.4779 O   0  0  0  0  0  0  0  0  0  0  0  0
    1.7940   -2.1023    4.8871 C   0  0  0  0  0  0  0  0  0  0  0  0
    2.7935   -1.6502    4.9904 H   0  0  0  0  0  0  0  0  0  0  0  0
    1.6064   -2.6156    5.8438 H   0  0  0  0  0  0  0  0  0  0  0  0
    1.9156   -2.9078    4.1453 H   0  0  0  0  0  0  0  0  0  0  0  0
    0.5488   -0.8838    3.2109 N   0  0  0  0  0  0  0  0  0  0  0  0
   -0.4159    0.0446    2.6829 C   0  0  2  0  0  0  0  0  0  0  0  0
   -0.7551   -0.3867    1.2623 C   0  0  0  0  0  0  0  0  0  0  0  0
   -0.0106   -1.0851    0.5774 O   0  0  0  0  0  0  0  0  0  0  0  0
    0.1168    1.4689    2.7060 C   0  0  0  0  0  0  0  0  0  0  0  0
    1.1183   -1.4145    2.5542 H   0  0  0  0  0  0  0  0  0  0  0  0
   -1.3088   -0.0350    3.3125 H   0  0  0  0  0  0  0  0  0  0  0  0
    1.0116    1.5681    2.0808 H   0  0  0  0  0  0  0  0  0  0  0  0
   -0.6289    2.1775    2.3307 H   0  0  0  0  0  0  0  0  0  0  0  0
    0.3882    1.7670    3.7245 H   0  0  0  0  0  0  0  0  0  0  0  0
   -1.9689    0.1350    0.8298 N   0  0  0  0  0  0  0  0  0  0  0  0
   -2.5039   -0.1183   -0.4830 C   0  0  2  0  0  0  0  0  0  0  0  0
   -3.0420   -1.5447   -0.5117 C   0  0  0  0  0  0  0  0  0  0  0  0
   -2.3475   -2.5170   -0.8005 O   0  0  0  0  0  0  0  0  0  0  0  0
   -1.4634    0.1211   -1.5723 C   0  0  0  0  0  0  0  0  0  0  0  0
   -0.4098   -0.8296   -1.4649 O   0  0  0  0  0  0  0  0  0  0  0  0
   -2.5276    0.6894    1.4750 H   0  0  0  0  0  0  0  0  0  0  0  0
   -3.3397    0.5784   -0.6151 H   0  0  0  0  0  0  0  0  0  0  0  0
   -1.0276    1.1217   -1.4869 H   0  0  0  0  0  0  0  0  0  0  0  0
   -1.9145    0.0182   -2.5650 H   0  0  0  0  0  0  0  0  0  0  0  0
   -0.8140   -1.7057   -1.5678 H   0  0  0  0  0  0  0  0  0  0  0  0
   -4.3762   -1.6072   -0.1351 N   0  0  0  0  0  0  0  0  0  0  0  0
   -5.1084   -2.8496   -0.0524 C   0  0  2  0  0  0  0  0  0  0  0  0
   -4.1423   -3.9355    0.4026 C   0  0  0  0  0  0  0  0  0  0  0  0
   -2.9240   -3.8509    0.2629 O   0  0  0  0  0  0  0  0  0  0  0  0
   -5.7405   -3.2092   -1.3880 C   0  0  0  0  0  0  0  0  0  0  0  0
   -4.8616   -0.7542    0.1263 H   0  0  0  0  0  0  0  0  0  0  0  0
   -5.8849   -2.7091    0.7074 H   0  0  0  0  0  0  0  0  0  0  0  0
   -4.9779   -3.3540   -2.1619 H   0  0  0  0  0  0  0  0  0  0  0  0
   -6.3188   -4.1363   -1.3164 H   0  0  0  0  0  0  0  0  0  0  0  0
   -6.4123   -2.4137   -1.7280 H   0  0  0  0  0  0  0  0  0  0  0  0
   -4.8037   -5.0290    0.9438 N   0  0  0  0  0  0  0  0  0  0  0  0
   -4.1084   -6.1952    1.4364 C   0  0  0  0  0  0  0  0  0  0  0  0
   -5.8148   -5.0052    1.0379 H   0  0  0  0  0  0  0  0  0  0  0  0
   -4.0287   -6.9420    0.6327 H   0  0  0  0  0  0  0  0  0  0  0  0
   -3.1007   -5.9072    1.7704 H   0  0  0  0  0  0  0  0  0  0  0  0
   -4.6661   -6.6246    2.2817 H   0  0  0  0  0  0  0  0  0  0  0  0
  1  3  1  0  0  0  0
  1  7  1  0  0  0  0
  1  2  2  0  0  0  0
 29 30  1  0  0  0  0
 30 38  1  0  0  0  0
 30 31  2  0  0  0  0
  8  9  1  0  0  0  0
  9 17  1  0  0  0  0
  9 10  2  0  0  0  0
 18 19  1  0  0  0  0
 19 28  1  0  0  0  0
 19 20  2  0  0  0  0
 29 32  1  0  0  0  0
  8 11  1  0  0  0  0
 38 39  1  0  0  0  0
 18 21  1  0  0  0  0
 21 22  1  0  0  0  0
 28 29  1  0  0  0  0
  7  8  1  0  0  0  0
 17 18  1  0  0  0  0
  3  4  1  0  0  0  0
  3  5  1  0  0  0  0
  3  6  1  0  0  0  0
 32 35  1  0  0  0  0
 32 36  1  0  0  0  0
 32 37  1  0  0  0  0
 11 14  1  0  0  0  0
 11 15  1  0  0  0  0
 11 16  1  0  0  0  0
 39 41  1  0  0  0  0
 39 42  1  0  0  0  0
 39 43  1  0  0  0  0
 21 25  1  0  0  0  0
 21 26  1  0  0  0  0
 29 34  1  0  0  0  0
  8 13  1  0  0  0  0
 18 24  1  0  0  0  0
 38 40  1  0  0  0  0
  7 12  1  0  0  0  0
 28 33  1  0  0  0  0
 17 23  1  0  0  0  0
 22 27  1  0  0  0  0
M  END
$$$$

  -OEChem-05262214473D

 43 42  0     1  0  0  0  0  0999 V2000
    0.7424   -1.0926    4.5665 C   0  0  0  0  0  0  0  0  0  0  0  0
    0.1409   -0.5364    5.4779 O   0  0  0  0  0  0  0  0  0  0  0  0
    1.7940   -2.1023    4.8871 C   0  0  0  0  0  0  0  0  0  0  0  0
    2.7935   -1.6502    4.9904 H   0  0  0  0  0  0  0  0  0  0  0  0
    1.6064   -2.6156    5.8438 H   0  0  0  0  0  0  0  0  0  0  0  0
    1.9156   -2.9078    4.1453 H   0  0  0  0  0  0  0  0  0  0  0  0
    0.5488   -0.8838    3.2109 N   0  0  0  0  0  0  0  0  0  0  0  0
   -0.4159    0.0446    2.6829 C   0  0  2  0  0  0  0  0  0  0  0  0
   -0.7551   -0.3867    1.2623 C   0  0  0  0  0  0  0  0  0  0  0  0
   -0.0106   -1.0851    0.5774 O   0  0  0  0  0  0  0  0  0  0  0  0
    0.1168    1.4689    2.7060 C   0  0  0  0  0  0  0  0  0  0  0  0
    1.1183   -1.4145    2.5542 H   0  0  0  0  0  0  0  0  0  0  0  0
   -1.3088   -0.0350    3.3125 H   0  0  0  0  0  0  0  0  0  0  0  0
    1.0116    1.5681    2.0808 H   0  0  0  0  0  0  0  0  0  0  0  0
   -0.6289    2.1775    2.3307 H   0  0  0  0  0  0  0  0  0  0  0  0
    0.3882    1.7670    3.7245 H   0  0  0  0  0  0  0  0  0  0  0  0
   -1.9689    0.1350    0.8298 N   0  0  0  0  0  0  0  0  0  0  0  0
   -2.5039   -0.1183   -0.4830 C   0  0  2  0  0  0  0  0  0  0  0  0
   -3.0420   -1.5447   -0.5117 C   0  0  0  0  0  0  0  0  0  0  0  0
   -2.3140   -2.5350   -0.5342 O   0  0  0  0  0  0  0  0  0  0  0  0
   -1.4634    0.1211   -1.5723 C   0  0  0  0  0  0  0  0  0  0  0  0
   -0.4098   -0.8296   -1.4649 O   0  0  0  0  0  0  0  0  0  0  0  0
   -2.5276    0.6894    1.4750 H   0  0  0  0  0  0  0  0  0  0  0  0
   -3.3397    0.5784   -0.6151 H   0  0  0  0  0  0  0  0  0  0  0  0
   -1.0276    1.1217   -1.4869 H   0  0  0  0  0  0  0  0  0  0  0  0
   -1.9145    0.0182   -2.5650 H   0  0  0  0  0  0  0  0  0  0  0  0
   -0.8140   -1.7057   -1.5678 H   0  0  0  0  0  0  0  0  0  0  0  0
   -4.4285   -1.5808   -0.4656 N   0  0  0  0  0  0  0  0  0  0  0  0
   -5.1789   -2.8150   -0.4504 C   0  0  2  0  0  0  0  0  0  0  0  0
   -4.3692   -3.8483    0.3217 C   0  0  0  0  0  0  0  0  0  0  0  0
   -3.1520   -3.7691    0.4744 O   0  0  0  0  0  0  0  0  0  0  0  0
   -5.4749   -3.2999   -1.8611 C   0  0  0  0  0  0  0  0  0  0  0  0
   -4.9489   -0.7105   -0.4081 H   0  0  0  0  0  0  0  0  0  0  0  0
   -6.1138   -2.6102    0.0825 H   0  0  0  0  0  0  0  0  0  0  0  0
   -4.5501   -3.5103   -2.4106 H   0  0  0  0  0  0  0  0  0  0  0  0
   -6.0682   -4.2202   -1.8480 H   0  0  0  0  0  0  0  0  0  0  0  0
   -6.0315   -2.5433   -2.4245 H   0  0  0  0  0  0  0  0  0  0  0  0
   -5.1593   -4.8917    0.7834 N   0  0  0  0  0  0  0  0  0  0  0  0
   -4.6227   -6.0031    1.5336 C   0  0  0  0  0  0  0  0  0  0  0  0
   -6.1626   -4.8657    0.6271 H   0  0  0  0  0  0  0  0  0  0  0  0
   -4.3630   -6.8201    0.8443 H   0  0  0  0  0  0  0  0  0  0  0  0
   -3.7212   -5.6792    2.0743 H   0  0  0  0  0  0  0  0  0  0  0  0
   -5.3752   -6.3565    2.2539 H   0  0  0  0  0  0  0  0  0  0  0  0
  1  3  1  0  0  0  0
  1  7  1  0  0  0  0
  1  2  2  0  0  0  0
 29 30  1  0  0  0  0
 30 38  1  0  0  0  0
 30 31  2  0  0  0  0
  8  9  1  0  0  0  0
  9 17  1  0  0  0  0
  9 10  2  0  0  0  0
 18 19  1  0  0  0  0
 19 28  1  0  0  0  0
 19 20  2  0  0  0  0
 29 32  1  0  0  0  0
  8 11  1  0  0  0  0
 38 39  1  0  0  0  0
 18 21  1  0  0  0  0
 21 22  1  0  0  0  0
 28 29  1  0  0  0  0
  7  8  1  0  0  0  0
 17 18  1  0  0  0  0
  3  4  1  0  0  0  0
  3  5  1  0  0  0  0
  3  6  1  0  0  0  0
 32 35  1  0  0  0  0
 32 36  1  0  0  0  0
 32 37  1  0  0  0  0
 11 14  1  0  0  0  0
 11 15  1  0  0  0  0
 11 16  1  0  0  0  0
 39 41  1  0  0  0  0
 39 42  1  0  0  0  0
 39 43  1  0  0  0  0
 21 25  1  0  0  0  0
 21 26  1  0  0  0  0
 29 34  1  0  0  0  0
  8 13  1  0  0  0  0
 18 24  1  0  0  0  0
 38 40  1  0  0  0  0
  7 12  1  0  0  0  0
 28 33  1  0  0  0  0
 17 23  1  0  0  0  0
 22 27  1  0  0  0  0
M  END
$$$$

  -OEChem-05262214473D

 43 42  0     1  0  0  0  0  0999 V2000
    0.7424   -1.0926    4.5665 C   0  0  0  0  0  0  0  0  0  0  0  0
    0.1409   -0.5364    5.4779 O   0  0  0  0  0  0  0  0  0  0  0  0
    1.7940   -2.1023    4.8871 C   0  0  0  0  0  0  0  0  0  0  0  0
    2.7935   -1.6502    4.9904 H   0  0  0  0  0  0  0  0  0  0  0  0
    1.6064   -2.6156    5.8438 H   0  0  0  0  0  0  0  0  0  0  0  0
    1.9156   -2.9078    4.1453 H   0  0  0  0  0  0  0  0  0  0  0  0
    0.5488   -0.8838    3.2109 N   0  0  0  0  0  0  0  0  0  0  0  0
   -0.4159    0.0446    2.6829 C   0  0  2  0  0  0  0  0  0  0  0  0
   -0.7551   -0.3867    1.2623 C   0  0  0  0  0  0  0  0  0  0  0  0
   -0.0106   -1.0851    0.5774 O   0  0  0  0  0  0  0  0  0  0  0  0
    0.1168    1.4689    2.7060 C   0  0  0  0  0  0  0  0  0  0  0  0
    1.1183   -1.4145    2.5542 H   0  0  0  0  0  0  0  0  0  0  0  0
   -1.3088   -0.0350    3.3125 H   0  0  0  0  0  0  0  0  0  0  0  0
    1.0116    1.5681    2.0808 H   0  0  0  0  0  0  0  0  0  0  0  0
   -0.6289    2.1775    2.3307 H   0  0  0  0  0  0  0  0  0  0  0  0
    0.3882    1.7670    3.7245 H   0  0  0  0  0  0  0  0  0  0  0  0
   -1.9689    0.1350    0.8298 N   0  0  0  0  0  0  0  0  0  0  0  0
   -2.5039   -0.1183   -0.4830 C   0  0  2  0  0  0  0  0  0  0  0  0
   -3.0420   -1.5447   -0.5117 C   0  0  0  0  0  0  0  0  0  0  0  0
   -2.3462   -2.5282   -0.2671 O   0  0  0  0  0  0  0  0  0  0  0  0
   -1.4634    0.1211   -1.5723 C   0  0  0  0  0  0  0  0  0  0  0  0
   -0.4098   -0.8296   -1.4649 O   0  0  0  0  0  0  0  0  0  0  0  0
   -2.5276    0.6894    1.4750 H   0  0  0  0  0  0  0  0  0  0  0  0
   -3.3397    0.5784   -0.6151 H   0  0  0  0  0  0  0  0  0  0  0  0
   -1.0276    1.1217   -1.4869 H   0  0  0  0  0  0  0  0  0  0  0  0
   -1.9145    0.0182   -2.5650 H   0  0  0  0  0  0  0  0  0  0  0  0
   -0.8140   -1.7057   -1.5678 H   0  0  0  0  0  0  0  0  0  0  0  0
   -4.3988   -1.5853   -0.7999 N   0  0  0  0  0  0  0  0  0  0  0  0
   -5.1504   -2.8176   -0.8551 C   0  0  2  0  0  0  0  0  0  0  0  0
   -4.5683   -3.7703    0.1807 C   0  0  0  0  0  0  0  0  0  0  0  0
   -3.4231   -3.6697    0.6159 O   0  0  0  0  0  0  0  0  0  0  0  0
   -5.1042   -3.4321   -2.2454 C   0  0  0  0  0  0  0  0  0  0  0  0
   -4.9037   -0.7167   -0.9495 H   0  0  0  0  0  0  0  0  0  0  0  0
   -6.1830   -2.5706   -0.5854 H   0  0  0  0  0  0  0  0  0  0  0  0
   -4.0775   -3.6862   -2.5331 H   0  0  0  0  0  0  0  0  0  0  0  0
   -5.6978   -4.3510   -2.2931 H   0  0  0  0  0  0  0  0  0  0  0  0
   -5.4957   -2.7340   -2.9933 H   0  0  0  0  0  0  0  0  0  0  0  0
   -5.4634   -4.7719    0.5299 N   0  0  0  0  0  0  0  0  0  0  0  0
   -5.1421   -5.8062    1.4854 C   0  0  0  0  0  0  0  0  0  0  0  0
   -6.3985   -4.7668    0.1334 H   0  0  0  0  0  0  0  0  0  0  0  0
   -4.7366   -6.6814    0.9566 H   0  0  0  0  0  0  0  0  0  0  0  0
   -4.3931   -5.4282    2.1968 H   0  0  0  0  0  0  0  0  0  0  0  0
   -6.0521   -6.0967    2.0309 H   0  0  0  0  0  0  0  0  0  0  0  0
  1  3  1  0  0  0  0
  1  7  1  0  0  0  0
  1  2  2  0  0  0  0
 29 30  1  0  0  0  0
 30 38  1  0  0  0  0
 30 31  2  0  0  0  0
  8  9  1  0  0  0  0
  9 17  1  0  0  0  0
  9 10  2  0  0  0  0
 18 19  1  0  0  0  0
 19 28  1  0  0  0  0
 19 20  2  0  0  0  0
 29 32  1  0  0  0  0
  8 11  1  0  0  0  0
 38 39  1  0  0  0  0
 18 21  1  0  0  0  0
 21 22  1  0  0  0  0
 28 29  1  0  0  0  0
  7  8  1  0  0  0  0
 17 18  1  0  0  0  0
  3  4  1  0  0  0  0
  3  5  1  0  0  0  0
  3  6  1  0  0  0  0
 32 35  1  0  0  0  0
 32 36  1  0  0  0  0
 32 37  1  0  0  0  0
 11 14  1  0  0  0  0
 11 15  1  0  0  0  0
 11 16  1  0  0  0  0
 39 41  1  0  0  0  0
 39 42  1  0  0  0  0
 39 43  1  0  0  0  0
 21 25  1  0  0  0  0
 21 26  1  0  0  0  0
 29 34  1  0  0  0  0
  8 13  1  0  0  0  0
 18 24  1  0  0  0  0
 38 40  1  0  0  0  0
  7 12  1  0  0  0  0
 28 33  1  0  0  0  0
 17 23  1  0  0  0  0
 22 27  1  0  0  0  0
M  END
$$$$

  -OEChem-05262214473D

 43 42  0     1  0  0  0  0  0999 V2000
    0.7424   -1.0926    4.5665 C   0  0  0  0  0  0  0  0  0  0  0  0
    0.1409   -0.5364    5.4779 O   0  0  0  0  0  0  0  0  0  0  0  0
    1.7940   -2.1023    4.8871 C   0  0  0  0  0  0  0  0  0  0  0  0
    2.7935   -1.6502    4.9904 H   0  0  0  0  0  0  0  0  0  0  0  0
    1.6064   -2.6156    5.8438 H   0  0  0  0  0  0  0  0  0  0  0  0
    1.9156   -2.9078    4.1453 H   0  0  0  0  0  0  0  0  0  0  0  0
    0.5488   -0.8838    3.2109 N   0  0  0  0  0  0  0  0  0  0  0  0
   -0.4159    0.0446    2.6829 C   0  0  2  0  0  0  0  0  0  0  0  0
   -0.7551   -0.3867    1.2623 C   0  0  0  0  0  0  0  0  0  0  0  0
   -0.0106   -1.0851    0.5774 O   0  0  0  0  0  0  0  0  0  0  0  0
    0.1168    1.4689    2.7060 C   0  0  0  0  0  0  0  0  0  0  0  0
    1.1183   -1.4145    2.5542 H   0  0  0  0  0  0  0  0  0  0  0  0
   -1.3088   -0.0350    3.3125 H   0  0  0  0  0  0  0  0  0  0  0  0
    1.0116    1.5681    2.0808 H   0  0  0  0  0  0  0  0  0  0  0  0
   -0.6289    2.1775    2.3307 H   0  0  0  0  0  0  0  0  0  0  0  0
    0.3882    1.7670    3.7245 H   0  0  0  0  0  0  0  0  0  0  0  0
   -1.9689    0.1350    0.8298 N   0  0  0  0  0  0  0  0  0  0  0  0
   -2.5039   -0.1183   -0.4830 C   0  0  2  0  0  0  0  0  0  0  0  0
   -3.0420   -1.5447   -0.5117 C   0  0  0  0  0  0  0  0  0  0  0  0
   -2.4420   -2.4971   -0.0176 O   0  0  0  0  0  0  0  0  0  0  0  0
   -1.4634    0.1211   -1.5723 C   0  0  0  0  0  0  0  0  0  0  0  0
   -0.4098   -0.8296   -1.4649 O   0  0  0  0  0  0  0  0  0  0  0  0
   -2.5276    0.6894    1.4750 H   0  0  0  0  0  0  0  0  0  0  0  0
   -3.3397    0.5784   -0.6151 H   0  0  0  0  0  0  0  0  0  0  0  0
   -1.0276    1.1217   -1.4869 H   0  0  0  0  0  0  0  0  0  0  0  0
   -1.9145    0.0182   -2.5650 H   0  0  0  0  0  0  0  0  0  0  0  0
   -0.8140   -1.7057   -1.5678 H   0  0  0  0  0  0  0  0  0  0  0  0
   -4.2893   -1.6203   -1.1152 N   0  0  0  0  0  0  0  0  0  0  0  0
   -5.0250   -2.8572   -1.2389 C   0  0  2  0  0  0  0  0  0  0  0  0
   -4.7261   -3.7070   -0.0108 C   0  0  0  0  0  0  0  0  0  0  0  0
   -3.7187   -3.5594    0.6780 O   0  0  0  0  0  0  0  0  0  0  0  0
   -4.6537   -3.5966   -2.5149 C   0  0  0  0  0  0  0  0  0  0  0  0
   -4.7289   -0.7723   -1.4608 H   0  0  0  0  0  0  0  0  0  0  0  0
   -6.0880   -2.5931   -1.2511 H   0  0  0  0  0  0  0  0  0  0  0  0
   -3.5921   -3.8695   -2.5209 H   0  0  0  0  0  0  0  0  0  0  0  0
   -5.2329   -4.5198   -2.6214 H   0  0  0  0  0  0  0  0  0  0  0  0
   -4.8414   -2.9728   -3.3955 H   0  0  0  0  0  0  0  0  0  0  0  0
   -5.6951   -4.6778    0.2004 N   0  0  0  0  0  0  0  0  0  0  0  0
   -5.6312   -5.6179    1.2951 C   0  0  0  0  0  0  0  0  0  0  0  0
   -6.5063   -4.7152   -0.4097 H   0  0  0  0  0  0  0  0  0  0  0  0
   -5.1240   -6.5354    0.9620 H   0  0  0  0  0  0  0  0  0  0  0  0
   -5.0705   -5.1713    2.1295 H   0  0  0  0  0  0  0  0  0  0  0  0
   -6.6507   -5.8628    1.6278 H   0  0  0  0  0  0  0  0  0  0  0  0
  1  3  1  0  0  0  0
  1  7  1  0  0  0  0
  1  2  2  0  0  0  0
 29 30  1  0  0  0  0
 30 38  1  0  0  0  0
 30 31  2  0  0  0  0
  8  9  1  0  0  0  0
  9 17  1  0  0  0  0
  9 10  2  0  0  0  0
 18 19  1  0  0  0  0
 19 28  1  0  0  0  0
 19 20  2  0  0  0  0
 29 32  1  0  0  0  0
  8 11  1  0  0  0  0
 38 39  1  0  0  0  0
 18 21  1  0  0  0  0
 21 22  1  0  0  0  0
 28 29  1  0  0  0  0
  7  8  1  0  0  0  0
 17 18  1  0  0  0  0
  3  4  1  0  0  0  0
  3  5  1  0  0  0  0
  3  6  1  0  0  0  0
 32 35  1  0  0  0  0
 32 36  1  0  0  0  0
 32 37  1  0  0  0  0
 11 14  1  0  0  0  0
 11 15  1  0  0  0  0
 11 16  1  0  0  0  0
 39 41  1  0  0  0  0
 39 42  1  0  0  0  0
 39 43  1  0  0  0  0
 21 25  1  0  0  0  0
 21 26  1  0  0  0  0
 29 34  1  0  0  0  0
  8 13  1  0  0  0  0
 18 24  1  0  0  0  0
 38 40  1  0  0  0  0
  7 12  1  0  0  0  0
 28 33  1  0  0  0  0
 17 23  1  0  0  0  0
 22 27  1  0  0  0  0
M  END
$$$$

  -OEChem-05262214473D

 43 42  0     1  0  0  0  0  0999 V2000
    0.7424   -1.0926    4.5665 C   0  0  0  0  0  0  0  0  0  0  0  0
    0.1409   -0.5364    5.4779 O   0  0  0  0  0  0  0  0  0  0  0  0
    1.7940   -2.1023    4.8871 C   0  0  0  0  0  0  0  0  0  0  0  0
    2.7935   -1.6502    4.9904 H   0  0  0  0  0  0  0  0  0  0  0  0
    1.6064   -2.6156    5.8438 H   0  0  0  0  0  0  0  0  0  0  0  0
    1.9156   -2.9078    4.1453 H   0  0  0  0  0  0  0  0  0  0  0  0
    0.5488   -0.8838    3.2109 N   0  0  0  0  0  0  0  0  0  0  0  0
   -0.4159    0.0446    2.6829 C   0  0  2  0  0  0  0  0  0  0  0  0
   -0.7551   -0.3867    1.2623 C   0  0  0  0  0  0  0  0  0  0  0  0
   -0.0106   -1.0851    0.5774 O   0  0  0  0  0  0  0  0  0  0  0  0
    0.1168    1.4689    2.7060 C   0  0  0  0  0  0  0  0  0  0  0  0
    1.1183   -1.4145    2.5542 H   0  0  0  0  0  0  0  0  0  0  0  0
   -1.3088   -0.0350    3.3125 H   0  0  0  0  0  0  0  0  0  0  0  0
    1.0116    1.5681    2.0808 H   0  0  0  0  0  0  0  0  0  0  0  0
   -0.6289    2.1775    2.3307 H   0  0  0  0  0  0  0  0  0  0  0  0
    0.3882    1.7670    3.7245 H   0  0  0  0  0  0  0  0  0  0  0  0
   -1.9689    0.1350    0.8298 N   0  0  0  0  0  0  0  0  0  0  0  0
   -2.5039   -0.1183   -0.4830 C   0  0  2  0  0  0  0  0  0  0  0  0
   -3.0420   -1.5447   -0.5117 C   0  0  0  0  0  0  0  0  0  0  0  0
   -2.5947   -2.4438    0.1974 O   0  0  0  0  0  0  0  0  0  0  0  0
   -1.4634    0.1211   -1.5723 C   0  0  0  0  0  0  0  0  0  0  0  0
   -0.4098   -0.8296   -1.4649 O   0  0  0  0  0  0  0  0  0  0  0  0
   -2.5276    0.6894    1.4750 H   0  0  0  0  0  0  0  0  0  0  0  0
   -3.3397    0.5784   -0.6151 H   0  0  0  0  0  0  0  0  0  0  0  0
   -1.0276    1.1217   -1.4869 H   0  0  0  0  0  0  0  0  0  0  0  0
   -1.9145    0.0182   -2.5650 H   0  0  0  0  0  0  0  0  0  0  0  0
   -0.8140   -1.7057   -1.5678 H   0  0  0  0  0  0  0  0  0  0  0  0
   -4.1073   -1.6834   -1.3901 N   0  0  0  0  0  0  0  0  0  0  0  0
   -4.8110   -2.9312   -1.5756 C   0  0  2  0  0  0  0  0  0  0  0  0
   -4.8318   -3.6625   -0.2398 C   0  0  0  0  0  0  0  0  0  0  0  0
   -4.0187   -3.4458    0.6563 O   0  0  0  0  0  0  0  0  0  0  0  0
   -4.1541   -3.7823   -2.6511 C   0  0  0  0  0  0  0  0  0  0  0  0
   -4.4365   -0.8737   -1.9074 H   0  0  0  0  0  0  0  0  0  0  0  0
   -5.8352   -2.6761   -1.8689 H   0  0  0  0  0  0  0  0  0  0  0  0
   -3.1271   -4.0479   -2.3748 H   0  0  0  0  0  0  0  0  0  0  0  0
   -4.7051   -4.7151   -2.8105 H   0  0  0  0  0  0  0  0  0  0  0  0
   -4.1132   -3.2433   -3.6037 H   0  0  0  0  0  0  0  0  0  0  0  0
   -5.8387   -4.6160   -0.1825 N   0  0  0  0  0  0  0  0  0  0  0  0
   -6.0566   -5.4510    0.9756 C   0  0  0  0  0  0  0  0  0  0  0  0
   -6.4788   -4.7144   -0.9650 H   0  0  0  0  0  0  0  0  0  0  0  0
   -5.4988   -6.3919    0.8601 H   0  0  0  0  0  0  0  0  0  0  0  0
   -5.7073   -4.9260    1.8770 H   0  0  0  0  0  0  0  0  0  0  0  0
   -7.1301   -5.6708    1.0722 H   0  0  0  0  0  0  0  0  0  0  0  0
  1  3  1  0  0  0  0
  1  7  1  0  0  0  0
  1  2  2  0  0  0  0
 29 30  1  0  0  0  0
 30 38  1  0  0  0  0
 30 31  2  0  0  0  0
  8  9  1  0  0  0  0
  9 17  1  0  0  0  0
  9 10  2  0  0  0  0
 18 19  1  0  0  0  0
 19 28  1  0  0  0  0
 19 20  2  0  0  0  0
 29 32  1  0  0  0  0
  8 11  1  0  0  0  0
 38 39  1  0  0  0  0
 18 21  1  0  0  0  0
 21 22  1  0  0  0  0
 28 29  1  0  0  0  0
  7  8  1  0  0  0  0
 17 18  1  0  0  0  0
  3  4  1  0  0  0  0
  3  5  1  0  0  0  0
  3  6  1  0  0  0  0
 32 35  1  0  0  0  0
 32 36  1  0  0  0  0
 32 37  1  0  0  0  0
 11 14  1  0  0  0  0
 11 15  1  0  0  0  0
 11 16  1  0  0  0  0
 39 41  1  0  0  0  0
 39 42  1  0  0  0  0
 39 43  1  0  0  0  0
 21 25  1  0  0  0  0
 21 26  1  0  0  0  0
 29 34  1  0  0  0  0
  8 13  1  0  0  0  0
 18 24  1  0  0  0  0
 38 40  1  0  0  0  0
  7 12  1  0  0  0  0
 28 33  1  0  0  0  0
 17 23  1  0  0  0  0
 22 27  1  0  0  0  0
M  END
$$$$

  -OEChem-05262214473D

 43 42  0     1  0  0  0  0  0999 V2000
    0.7424   -1.0926    4.5665 C   0  0  0  0  0  0  0  0  0  0  0  0
    0.1409   -0.5364    5.4779 O   0  0  0  0  0  0  0  0  0  0  0  0
    1.7940   -2.1023    4.8871 C   0  0  0  0  0  0  0  0  0  0  0  0
    2.7935   -1.6502    4.9904 H   0  0  0  0  0  0  0  0  0  0  0  0
    1.6064   -2.6156    5.8438 H   0  0  0  0  0  0  0  0  0  0  0  0
    1.9156   -2.9078    4.1453 H   0  0  0  0  0  0  0  0  0  0  0  0
    0.5488   -0.8838    3.2109 N   0  0  0  0  0  0  0  0  0  0  0  0
   -0.4159    0.0446    2.6829 C   0  0  2  0  0  0  0  0  0  0  0  0
   -0.7551   -0.3867    1.2623 C   0  0  0  0  0  0  0  0  0  0  0  0
   -0.0106   -1.0851    0.5774 O   0  0  0  0  0  0  0  0  0  0  0  0
    0.1168    1.4689    2.7060 C   0  0  0  0  0  0  0  0  0  0  0  0
    1.1183   -1.4145    2.5542 H   0  0  0  0  0  0  0  0  0  0  0  0
   -1.3088   -0.0350    3.3125 H   0  0  0  0  0  0  0  0  0  0  0  0
    1.0116    1.5681    2.0808 H   0  0  0  0  0  0  0  0  0  0  0  0
   -0.6289    2.1775    2.3307 H   0  0  0  0  0  0  0  0  0  0  0  0
    0.3882    1.7670    3.7245 H   0  0  0  0  0  0  0  0  0  0  0  0
   -1.9689    0.1350    0.8298 N   0  0  0  0  0  0  0  0  0  0  0  0
   -2.5039   -0.1183   -0.4830 C   0  0  2  0  0  0  0  0  0  0  0  0
   -3.0420   -1.5447   -0.5117 C   0  0  0  0  0  0  0  0  0  0  0  0
   -2.7941   -2.3719    0.3632 O   0  0  0  0  0  0  0  0  0  0  0  0
   -1.4634    0.1211   -1.5723 C   0  0  0  0  0  0  0  0  0  0  0  0
   -0.4098   -0.8296   -1.4649 O   0  0  0  0  0  0  0  0  0  0  0  0
   -2.5276    0.6894    1.4750 H   0  0  0  0  0  0  0  0  0  0  0  0
   -3.3397    0.5784   -0.6151 H   0  0  0  0  0  0  0  0  0  0  0  0
   -1.0276    1.1217   -1.4869 H   0  0  0  0  0  0  0  0  0  0  0  0
   -1.9145    0.0182   -2.5650 H   0  0  0  0  0  0  0  0  0  0  0  0
   -0.8140   -1.7057   -1.5678 H   0  0  0  0  0  0  0  0  0  0  0  0
   -3.8653   -1.7704   -1.6057 N   0  0  0  0  0  0  0  0  0  0  0  0
   -4.5233   -3.0344   -1.8422 C   0  0  2  0  0  0  0  0  0  0  0  0
   -4.8783   -3.6399   -0.4907 C   0  0  0  0  0  0  0  0  0  0  0  0
   -4.3028   -3.3366    0.5523 O   0  0  0  0  0  0  0  0  0  0  0  0
   -3.6395   -3.9766   -2.6447 C   0  0  0  0  0  0  0  0  0  0  0  0
   -4.0465   -1.0137   -2.2587 H   0  0  0  0  0  0  0  0  0  0  0  0
   -5.4418   -2.8139   -2.3970 H   0  0  0  0  0  0  0  0  0  0  0  0
   -2.7143   -4.2090   -2.1048 H   0  0  0  0  0  0  0  0  0  0  0  0
   -4.1505   -4.9235   -2.8476 H   0  0  0  0  0  0  0  0  0  0  0  0
   -3.3606   -3.5272   -3.6039 H   0  0  0  0  0  0  0  0  0  0  0  0
   -5.8844   -4.5905   -0.5928 N   0  0  0  0  0  0  0  0  0  0  0  0
   -6.3894   -5.3169    0.5488 C   0  0  0  0  0  0  0  0  0  0  0  0
   -6.3177   -4.7646   -1.4948 H   0  0  0  0  0  0  0  0  0  0  0  0
   -5.8354   -6.2609    0.6578 H   0  0  0  0  0  0  0  0  0  0  0  0
   -6.2601   -4.7091    1.4565 H   0  0  0  0  0  0  0  0  0  0  0  0
   -7.4578   -5.5337    0.4019 H   0  0  0  0  0  0  0  0  0  0  0  0
  1  3  1  0  0  0  0
  1  7  1  0  0  0  0
  1  2  2  0  0  0  0
 29 30  1  0  0  0  0
 30 38  1  0  0  0  0
 30 31  2  0  0  0  0
  8  9  1  0  0  0  0
  9 17  1  0  0  0  0
  9 10  2  0  0  0  0
 18 19  1  0  0  0  0
 19 28  1  0  0  0  0
 19 20  2  0  0  0  0
 29 32  1  0  0  0  0
  8 11  1  0  0  0  0
 38 39  1  0  0  0  0
 18 21  1  0  0  0  0
 21 22  1  0  0  0  0
 28 29  1  0  0  0  0
  7  8  1  0  0  0  0
 17 18  1  0  0  0  0
  3  4  1  0  0  0  0
  3  5  1  0  0  0  0
  3  6  1  0  0  0  0
 32 35  1  0  0  0  0
 32 36  1  0  0  0  0
 32 37  1  0  0  0  0
 11 14  1  0  0  0  0
 11 15  1  0  0  0  0
 11 16  1  0  0  0  0
 39 41  1  0  0  0  0
 39 42  1  0  0  0  0
 39 43  1  0  0  0  0
 21 25  1  0  0  0  0
 21 26  1  0  0  0  0
 29 34  1  0  0  0  0
  8 13  1  0  0  0  0
 18 24  1  0  0  0  0
 38 40  1  0  0  0  0
  7 12  1  0  0  0  0
 28 33  1  0  0  0  0
 17 23  1  0  0  0  0
 22 27  1  0  0  0  0
M  END
$$$$

  -OEChem-05262214473D

 43 42  0     1  0  0  0  0  0999 V2000
    0.7424   -1.0926    4.5665 C   0  0  0  0  0  0  0  0  0  0  0  0
    0.1409   -0.5364    5.4779 O   0  0  0  0  0  0  0  0  0  0  0  0
    1.7940   -2.1023    4.8871 C   0  0  0  0  0  0  0  0  0  0  0  0
    2.7935   -1.6502    4.9904 H   0  0  0  0  0  0  0  0  0  0  0  0
    1.6064   -2.6156    5.8438 H   0  0  0  0  0  0  0  0  0  0  0  0
    1.9156   -2.9078    4.1453 H   0  0  0  0  0  0  0  0  0  0  0  0
    0.5488   -0.8838    3.2109 N   0  0  0  0  0  0  0  0  0  0  0  0
   -0.4159    0.0446    2.6829 C   0  0  2  0  0  0  0  0  0  0  0  0
   -0.7551   -0.3867    1.2623 C   0  0  0  0  0  0  0  0  0  0  0  0
   -0.0106   -1.0851    0.5774 O   0  0  0  0  0  0  0  0  0  0  0  0
    0.1168    1.4689    2.7060 C   0  0  0  0  0  0  0  0  0  0  0  0
    1.1183   -1.4145    2.5542 H   0  0  0  0  0  0  0  0  0  0  0  0
   -1.3088   -0.0350    3.3125 H   0  0  0  0  0  0  0  0  0  0  0  0
    1.0116    1.5681    2.0808 H   0  0  0  0  0  0  0  0  0  0  0  0
   -0.6289    2.1775    2.3307 H   0  0  0  0  0  0  0  0  0  0  0  0
    0.3882    1.7670    3.7245 H   0  0  0  0  0  0  0  0  0  0  0  0
   -1.9689    0.1350    0.8298 N   0  0  0  0  0  0  0  0  0  0  0  0
   -2.5039   -0.1183   -0.4830 C   0  0  2  0  0  0  0  0  0  0  0  0
   -3.3649   -1.3748   -0.4128 C   0  0  0  0  0  0  0  0  0  0  0  0
   -3.5598   -1.9960    0.6299 O   0  0  0  0  0  0  0  0  0  0  0  0
   -1.3999   -0.2407   -1.5284 C   0  0  0  0  0  0  0  0  0  0  0  0
   -0.6073   -1.3953   -1.2752 O   0  0  0  0  0  0  0  0  0  0  0  0
   -2.5276    0.6894    1.4750 H   0  0  0  0  0  0  0  0  0  0  0  0
   -3.1447    0.7373   -0.7252 H   0  0  0  0  0  0  0  0  0  0  0  0
   -0.7415    0.6337   -1.5093 H   0  0  0  0  0  0  0  0  0  0  0  0
   -1.8285   -0.3356   -2.5318 H   0  0  0  0  0  0  0  0  0  0  0  0
   -1.2048   -2.1585   -1.3212 H   0  0  0  0  0  0  0  0  0  0  0  0
   -3.9236   -1.6943   -1.6423 N   0  0  0  0  0  0  0  0  0  0  0  0
   -4.8041   -2.8236   -1.8318 C   0  0  2  0  0  0  0  0  0  0  0  0
   -5.6231   -3.0000   -0.5599 C   0  0  0  0  0  0  0  0  0  0  0  0
   -5.2636   -2.5706    0.5344 O   0  0  0  0  0  0  0  0  0  0  0  0
   -4.0217   -4.0873   -2.1540 C   0  0  0  0  0  0  0  0  0  0  0  0
   -3.7389   -1.0991   -2.4444 H   0  0  0  0  0  0  0  0  0  0  0  0
   -5.4701   -2.5693   -2.6635 H   0  0  0  0  0  0  0  0  0  0  0  0
   -3.3488   -4.3578   -1.3322 H   0  0  0  0  0  0  0  0  0  0  0  0
   -4.6920   -4.9360   -2.3255 H   0  0  0  0  0  0  0  0  0  0  0  0
   -3.4103   -3.9487   -3.0523 H   0  0  0  0  0  0  0  0  0  0  0  0
   -6.7819   -3.7307   -0.7825 N   0  0  0  0  0  0  0  0  0  0  0  0
   -7.7205   -4.0436    0.2697 C   0  0  0  0  0  0  0  0  0  0  0  0
   -7.0099   -4.0309   -1.7257 H   0  0  0  0  0  0  0  0  0  0  0  0
   -7.4708   -5.0223    0.7053 H   0  0  0  0  0  0  0  0  0  0  0  0
   -7.6670   -3.2705    1.0504 H   0  0  0  0  0  0  0  0  0  0  0  0
   -8.7387   -4.0760   -0.1452 H   0  0  0  0  0  0  0  0  0  0  0  0
  1  3  1  0  0  0  0
  1  7  1  0  0  0  0
  1  2  2  0  0  0  0
 29 30  1  0  0  0  0
 30 38  1  0  0  0  0
 30 31  2  0  0  0  0
  8  9  1  0  0  0  0
  9 17  1  0  0  0  0
  9 10  2  0  0  0  0
 18 19  1  0  0  0  0
 19 28  1  0  0  0  0
 19 20  2  0  0  0  0
 29 32  1  0  0  0  0
  8 11  1  0  0  0  0
 38 39  1  0  0  0  0
 18 21  1  0  0  0  0
 21 22  1  0  0  0  0
 28 29  1  0  0  0  0
  7  8  1  0  0  0  0
 17 18  1  0  0  0  0
  3  4  1  0  0  0  0
  3  5  1  0  0  0  0
  3  6  1  0  0  0  0
 32 35  1  0  0  0  0
 32 36  1  0  0  0  0
 32 37  1  0  0  0  0
 11 14  1  0  0  0  0
 11 15  1  0  0  0  0
 11 16  1  0  0  0  0
 39 41  1  0  0  0  0
 39 42  1  0  0  0  0
 39 43  1  0  0  0  0
 21 25  1  0  0  0  0
 21 26  1  0  0  0  0
 29 34  1  0  0  0  0
  8 13  1  0  0  0  0
 18 24  1  0  0  0  0
 38 40  1  0  0  0  0
  7 12  1  0  0  0  0
 28 33  1  0  0  0  0
 17 23  1  0  0  0  0
 22 27  1  0  0  0  0
M  END
$$$$

  -OEChem-05262214473D

 43 42  0     1  0  0  0  0  0999 V2000
    0.7424   -1.0926    4.5665 C   0  0  0  0  0  0  0  0  0  0  0  0
    0.1409   -0.5364    5.4779 O   0  0  0  0  0  0  0  0  0  0  0  0
    1.7940   -2.1023    4.8871 C   0  0  0  0  0  0  0  0  0  0  0  0
    2.7935   -1.6502    4.9904 H   0  0  0  0  0  0  0  0  0  0  0  0
    1.6064   -2.6156    5.8438 H   0  0  0  0  0  0  0  0  0  0  0  0
    1.9156   -2.9078    4.1453 H   0  0  0  0  0  0  0  0  0  0  0  0
    0.5488   -0.8838    3.2109 N   0  0  0  0  0  0  0  0  0  0  0  0
   -0.4159    0.0446    2.6829 C   0  0  2  0  0  0  0  0  0  0  0  0
   -0.7551   -0.3867    1.2623 C   0  0  0  0  0  0  0  0  0  0  0  0
   -0.0106   -1.0851    0.5774 O   0  0  0  0  0  0  0  0  0  0  0  0
    0.1168    1.4689    2.7060 C   0  0  0  0  0  0  0  0  0  0  0  0
    1.1183   -1.4145    2.5542 H   0  0  0  0  0  0  0  0  0  0  0  0
   -1.3088   -0.0350    3.3125 H   0  0  0  0  0  0  0  0  0  0  0  0
    1.0116    1.5681    2.0808 H   0  0  0  0  0  0  0  0  0  0  0  0
   -0.6289    2.1775    2.3307 H   0  0  0  0  0  0  0  0  0  0  0  0
    0.3882    1.7670    3.7245 H   0  0  0  0  0  0  0  0  0  0  0  0
   -1.9689    0.1350    0.8298 N   0  0  0  0  0  0  0  0  0  0  0  0
   -2.5039   -0.1183   -0.4830 C   0  0  2  0  0  0  0  0  0  0  0  0
   -3.3649   -1.3748   -0.4128 C   0  0  0  0  0  0  0  0  0  0  0  0
   -3.7810   -1.8436    0.6446 O   0  0  0  0  0  0  0  0  0  0  0  0
   -1.3999   -0.2407   -1.5284 C   0  0  0  0  0  0  0  0  0  0  0  0
   -0.6073   -1.3953   -1.2752 O   0  0  0  0  0  0  0  0  0  0  0  0
   -2.5276    0.6894    1.4750 H   0  0  0  0  0  0  0  0  0  0  0  0
   -3.1447    0.7373   -0.7252 H   0  0  0  0  0  0  0  0  0  0  0  0
   -0.7415    0.6337   -1.5093 H   0  0  0  0  0  0  0  0  0  0  0  0
   -1.8285   -0.3356   -2.5318 H   0  0  0  0  0  0  0  0  0  0  0  0
   -1.2048   -2.1585   -1.3212 H   0  0  0  0  0  0  0  0  0  0  0  0
   -3.6486   -1.8844   -1.6720 N   0  0  0  0  0  0  0  0  0  0  0  0
   -4.4725   -3.0533   -1.8755 C   0  0  2  0  0  0  0  0  0  0  0  0
   -5.5456   -3.0662   -0.7949 C   0  0  0  0  0  0  0  0  0  0  0  0
   -5.4271   -2.4730    0.2752 O   0  0  0  0  0  0  0  0  0  0  0  0
   -3.6443   -4.3281   -1.8344 C   0  0  0  0  0  0  0  0  0  0  0  0
   -3.2941   -1.4068   -2.4954 H   0  0  0  0  0  0  0  0  0  0  0  0
   -4.9440   -2.9407   -2.8579 H   0  0  0  0  0  0  0  0  0  0  0  0
   -3.1641   -4.4579   -0.8577 H   0  0  0  0  0  0  0  0  0  0  0  0
   -4.2656   -5.2110   -2.0172 H   0  0  0  0  0  0  0  0  0  0  0  0
   -2.8542   -4.3041   -2.5926 H   0  0  0  0  0  0  0  0  0  0  0  0
   -6.6327   -3.8534   -1.1483 N   0  0  0  0  0  0  0  0  0  0  0  0
   -7.7761   -4.0365   -0.2851 C   0  0  0  0  0  0  0  0  0  0  0  0
   -6.6546   -4.2932   -2.0636 H   0  0  0  0  0  0  0  0  0  0  0  0
   -7.6294   -4.9344    0.3331 H   0  0  0  0  0  0  0  0  0  0  0  0
   -7.8880   -3.1573    0.3664 H   0  0  0  0  0  0  0  0  0  0  0  0
   -8.6820   -4.1569   -0.8973 H   0  0  0  0  0  0  0  0  0  0  0  0
  1  3  1  0  0  0  0
  1  7  1  0  0  0  0
  1  2  2  0  0  0  0
 29 30  1  0  0  0  0
 30 38  1  0  0  0  0
 30 31  2  0  0  0  0
  8  9  1  0  0  0  0
  9 17  1  0  0  0  0
  9 10  2  0  0  0  0
 18 19  1  0  0  0  0
 19 28  1  0  0  0  0
 19 20  2  0  0  0  0
 29 32  1  0  0  0  0
  8 11  1  0  0  0  0
 38 39  1  0  0  0  0
 18 21  1  0  0  0  0
 21 22  1  0  0  0  0
 28 29  1  0  0  0  0
  7  8  1  0  0  0  0
 17 18  1  0  0  0  0
  3  4  1  0  0  0  0
  3  5  1  0  0  0  0
  3  6  1  0  0  0  0
 32 35  1  0  0  0  0
 32 36  1  0  0  0  0
 32 37  1  0  0  0  0
 11 14  1  0  0  0  0
 11 15  1  0  0  0  0
 11 16  1  0  0  0  0
 39 41  1  0  0  0  0
 39 42  1  0  0  0  0
 39 43  1  0  0  0  0
 21 25  1  0  0  0  0
 21 26  1  0  0  0  0
 29 34  1  0  0  0  0
  8 13  1  0  0  0  0
 18 24  1  0  0  0  0
 38 40  1  0  0  0  0
  7 12  1  0  0  0  0
 28 33  1  0  0  0  0
 17 23  1  0  0  0  0
 22 27  1  0  0  0  0
M  END
$$$$

  -OEChem-05262214473D

 43 42  0     1  0  0  0  0  0999 V2000
    0.7424   -1.0926    4.5665 C   0  0  0  0  0  0  0  0  0  0  0  0
    0.1409   -0.5364    5.4779 O   0  0  0  0  0  0  0  0  0  0  0  0
    1.7940   -2.1023    4.8871 C   0  0  0  0  0  0  0  0  0  0  0  0
    2.7935   -1.6502    4.9904 H   0  0  0  0  0  0  0  0  0  0  0  0
    1.6064   -2.6156    5.8438 H   0  0  0  0  0  0  0  0  0  0  0  0
    1.9156   -2.9078    4.1453 H   0  0  0  0  0  0  0  0  0  0  0  0
    0.5488   -0.8838    3.2109 N   0  0  0  0  0  0  0  0  0  0  0  0
   -0.4159    0.0446    2.6829 C   0  0  2  0  0  0  0  0  0  0  0  0
   -0.7551   -0.3867    1.2623 C   0  0  0  0  0  0  0  0  0  0  0  0
   -0.0106   -1.0851    0.5774 O   0  0  0  0  0  0  0  0  0  0  0  0
    0.1168    1.4689    2.7060 C   0  0  0  0  0  0  0  0  0  0  0  0
    1.1183   -1.4145    2.5542 H   0  0  0  0  0  0  0  0  0  0  0  0
   -1.3088   -0.0350    3.3125 H   0  0  0  0  0  0  0  0  0  0  0  0
    1.0116    1.5681    2.0808 H   0  0  0  0  0  0  0  0  0  0  0  0
   -0.6289    2.1775    2.3307 H   0  0  0  0  0  0  0  0  0  0  0  0
    0.3882    1.7670    3.7245 H   0  0  0  0  0  0  0  0  0  0  0  0
   -1.9689    0.1350    0.8298 N   0  0  0  0  0  0  0  0  0  0  0  0
   -2.5039   -0.1183   -0.4830 C   0  0  2  0  0  0  0  0  0  0  0  0
   -3.3649   -1.3748   -0.4128 C   0  0  0  0  0  0  0  0  0  0  0  0
   -3.9997   -1.6968    0.5894 O   0  0  0  0  0  0  0  0  0  0  0  0
   -1.3999   -0.2407   -1.5284 C   0  0  0  0  0  0  0  0  0  0  0  0
   -0.6073   -1.3953   -1.2752 O   0  0  0  0  0  0  0  0  0  0  0  0
   -2.5276    0.6894    1.4750 H   0  0  0  0  0  0  0  0  0  0  0  0
   -3.1447    0.7373   -0.7252 H   0  0  0  0  0  0  0  0  0  0  0  0
   -0.7415    0.6337   -1.5093 H   0  0  0  0  0  0  0  0  0  0  0  0
   -1.8285   -0.3356   -2.5318 H   0  0  0  0  0  0  0  0  0  0  0  0
   -1.2048   -2.1585   -1.3212 H   0  0  0  0  0  0  0  0  0  0  0  0
   -3.3744   -2.0691   -1.6143 N   0  0  0  0  0  0  0  0  0  0  0  0
   -4.1402   -3.2776   -1.8136 C   0  0  2  0  0  0  0  0  0  0  0  0
   -5.4199   -3.1636   -0.9957 C   0  0  0  0  0  0  0  0  0  0  0  0
   -5.5310   -2.4186   -0.0242 O   0  0  0  0  0  0  0  0  0  0  0  0
   -3.3450   -4.5094   -1.4099 C   0  0  0  0  0  0  0  0  0  0  0  0
   -2.8499   -1.7062   -2.4048 H   0  0  0  0  0  0  0  0  0  0  0  0
   -4.3899   -3.3216   -2.8793 H   0  0  0  0  0  0  0  0  0  0  0  0
   -3.0856   -4.4831   -0.3453 H   0  0  0  0  0  0  0  0  0  0  0  0
   -3.9163   -5.4264   -1.5883 H   0  0  0  0  0  0  0  0  0  0  0  0
   -2.4108   -4.5737   -1.9781 H   0  0  0  0  0  0  0  0  0  0  0  0
   -6.4091   -4.0235   -1.4518 N   0  0  0  0  0  0  0  0  0  0  0  0
   -7.7116   -4.1113   -0.8338 C   0  0  0  0  0  0  0  0  0  0  0  0
   -6.2362   -4.5918   -2.2758 H   0  0  0  0  0  0  0  0  0  0  0  0
   -7.7042   -4.9059   -0.0731 H   0  0  0  0  0  0  0  0  0  0  0  0
   -7.9570   -3.1505   -0.3579 H   0  0  0  0  0  0  0  0  0  0  0  0
   -8.4658   -4.3443   -1.5999 H   0  0  0  0  0  0  0  0  0  0  0  0
  1  3  1  0  0  0  0
  1  7  1  0  0  0  0
  1  2  2  0  0  0  0
 29 30  1  0  0  0  0
 30 38  1  0  0  0  0
 30 31  2  0  0  0  0
  8  9  1  0  0  0  0
  9 17  1  0  0  0  0
  9 10  2  0  0  0  0
 18 19  1  0  0  0  0
 19 28  1  0  0  0  0
 19 20  2  0  0  0  0
 29 32  1  0  0  0  0
  8 11  1  0  0  0  0
 38 39  1  0  0  0  0
 18 21  1  0  0  0  0
 21 22  1  0  0  0  0
 28 29  1  0  0  0  0
  7  8  1  0  0  0  0
 17 18  1  0  0  0  0
  3  4  1  0  0  0  0
  3  5  1  0  0  0  0
  3  6  1  0  0  0  0
 32 35  1  0  0  0  0
 32 36  1  0  0  0  0
 32 37  1  0  0  0  0
 11 14  1  0  0  0  0
 11 15  1  0  0  0  0
 11 16  1  0  0  0  0
 39 41  1  0  0  0  0
 39 42  1  0  0  0  0
 39 43  1  0  0  0  0
 21 25  1  0  0  0  0
 21 26  1  0  0  0  0
 29 34  1  0  0  0  0
  8 13  1  0  0  0  0
 18 24  1  0  0  0  0
 38 40  1  0  0  0  0
  7 12  1  0  0  0  0
 28 33  1  0  0  0  0
 17 23  1  0  0  0  0
 22 27  1  0  0  0  0
M  END
$$$$

  -OEChem-05262214473D

 43 42  0     1  0  0  0  0  0999 V2000
    0.7424   -1.0926    4.5665 C   0  0  0  0  0  0  0  0  0  0  0  0
    0.1409   -0.5364    5.4779 O   0  0  0  0  0  0  0  0  0  0  0  0
    1.7940   -2.1023    4.8871 C   0  0  0  0  0  0  0  0  0  0  0  0
    2.7935   -1.6502    4.9904 H   0  0  0  0  0  0  0  0  0  0  0  0
    1.6064   -2.6156    5.8438 H   0  0  0  0  0  0  0  0  0  0  0  0
    1.9156   -2.9078    4.1453 H   0  0  0  0  0  0  0  0  0  0  0  0
    0.5488   -0.8838    3.2109 N   0  0  0  0  0  0  0  0  0  0  0  0
   -0.4159    0.0446    2.6829 C   0  0  2  0  0  0  0  0  0  0  0  0
   -0.7551   -0.3867    1.2623 C   0  0  0  0  0  0  0  0  0  0  0  0
   -0.0106   -1.0851    0.5774 O   0  0  0  0  0  0  0  0  0  0  0  0
    0.1168    1.4689    2.7060 C   0  0  0  0  0  0  0  0  0  0  0  0
    1.1183   -1.4145    2.5542 H   0  0  0  0  0  0  0  0  0  0  0  0
   -1.3088   -0.0350    3.3125 H   0  0  0  0  0  0  0  0  0  0  0  0
    1.0116    1.5681    2.0808 H   0  0  0  0  0  0  0  0  0  0  0  0
   -0.6289    2.1775    2.3307 H   0  0  0  0  0  0  0  0  0  0  0  0
    0.3882    1.7670    3.7245 H   0  0  0  0  0  0  0  0  0  0  0  0
   -1.9689    0.1350    0.8298 N   0  0  0  0  0  0  0  0  0  0  0  0
   -2.5039   -0.1183   -0.4830 C   0  0  2  0  0  0  0  0  0  0  0  0
   -3.3649   -1.3748   -0.4128 C   0  0  0  0  0  0  0  0  0  0  0  0
   -4.2009   -1.5657    0.4680 O   0  0  0  0  0  0  0  0  0  0  0  0
   -1.3999   -0.2407   -1.5284 C   0  0  0  0  0  0  0  0  0  0  0  0
   -0.6073   -1.3953   -1.2752 O   0  0  0  0  0  0  0  0  0  0  0  0
   -2.5276    0.6894    1.4750 H   0  0  0  0  0  0  0  0  0  0  0  0
   -3.1447    0.7373   -0.7252 H   0  0  0  0  0  0  0  0  0  0  0  0
   -0.7415    0.6337   -1.5093 H   0  0  0  0  0  0  0  0  0  0  0  0
   -1.8285   -0.3356   -2.5318 H   0  0  0  0  0  0  0  0  0  0  0  0
   -1.2048   -2.1585   -1.3212 H   0  0  0  0  0  0  0  0  0  0  0  0
   -3.1196   -2.2358   -1.4731 N   0  0  0  0  0  0  0  0  0  0  0  0
   -3.8297   -3.4812   -1.6500 C   0  0  2  0  0  0  0  0  0  0  0  0
   -5.2544   -3.2855   -1.1485 C   0  0  0  0  0  0  0  0  0  0  0  0
   -5.5680   -2.4110   -0.3436 O   0  0  0  0  0  0  0  0  0  0  0  0
   -3.1443   -4.6190   -0.9096 C   0  0  0  0  0  0  0  0  0  0  0  0
   -2.4366   -1.9768   -2.1788 H   0  0  0  0  0  0  0  0  0  0  0  0
   -3.8456   -3.6861   -2.7260 H   0  0  0  0  0  0  0  0  0  0  0  0
   -3.1189   -4.4315    0.1701 H   0  0  0  0  0  0  0  0  0  0  0  0
   -3.6677   -5.5677   -1.0680 H   0  0  0  0  0  0  0  0  0  0  0  0
   -2.1103   -4.7390   -1.2506 H   0  0  0  0  0  0  0  0  0  0  0  0
   -6.1264   -4.2296   -1.6725 N   0  0  0  0  0  0  0  0  0  0  0  0
   -7.5313   -4.2631   -1.3392 C   0  0  0  0  0  0  0  0  0  0  0  0
   -5.7833   -4.9062   -2.3480 H   0  0  0  0  0  0  0  0  0  0  0  0
   -7.6902   -4.9385   -0.4856 H   0  0  0  0  0  0  0  0  0  0  0  0
   -7.8692   -3.2506   -1.0732 H   0  0  0  0  0  0  0  0  0  0  0  0
   -8.1049   -4.6254   -2.2050 H   0  0  0  0  0  0  0  0  0  0  0  0
  1  3  1  0  0  0  0
  1  7  1  0  0  0  0
  1  2  2  0  0  0  0
 29 30  1  0  0  0  0
 30 38  1  0  0  0  0
 30 31  2  0  0  0  0
  8  9  1  0  0  0  0
  9 17  1  0  0  0  0
  9 10  2  0  0  0  0
 18 19  1  0  0  0  0
 19 28  1  0  0  0  0
 19 20  2  0  0  0  0
 29 32  1  0  0  0  0
  8 11  1  0  0  0  0
 38 39  1  0  0  0  0
 18 21  1  0  0  0  0
 21 22  1  0  0  0  0
 28 29  1  0  0  0  0
  7  8  1  0  0  0  0
 17 18  1  0  0  0  0
  3  4  1  0  0  0  0
  3  5  1  0  0  0  0
  3  6  1  0  0  0  0
 32 35  1  0  0  0  0
 32 36  1  0  0  0  0
 32 37  1  0  0  0  0
 11 14  1  0  0  0  0
 11 15  1  0  0  0  0
 11 16  1  0  0  0  0
 39 41  1  0  0  0  0
 39 42  1  0  0  0  0
 39 43  1  0  0  0  0
 21 25  1  0  0  0  0
 21 26  1  0  0  0  0
 29 34  1  0  0  0  0
  8 13  1  0  0  0  0
 18 24  1  0  0  0  0
 38 40  1  0  0  0  0
  7 12  1  0  0  0  0
 28 33  1  0  0  0  0
 17 23  1  0  0  0  0
 22 27  1  0  0  0  0
M  END
$$$$

  -OEChem-05262214473D

 43 42  0     1  0  0  0  0  0999 V2000
    0.7424   -1.0926    4.5665 C   0  0  0  0  0  0  0  0  0  0  0  0
    0.1409   -0.5364    5.4779 O   0  0  0  0  0  0  0  0  0  0  0  0
    1.7940   -2.1023    4.8871 C   0  0  0  0  0  0  0  0  0  0  0  0
    2.7935   -1.6502    4.9904 H   0  0  0  0  0  0  0  0  0  0  0  0
    1.6064   -2.6156    5.8438 H   0  0  0  0  0  0  0  0  0  0  0  0
    1.9156   -2.9078    4.1453 H   0  0  0  0  0  0  0  0  0  0  0  0
    0.5488   -0.8838    3.2109 N   0  0  0  0  0  0  0  0  0  0  0  0
   -0.4159    0.0446    2.6829 C   0  0  2  0  0  0  0  0  0  0  0  0
   -0.7551   -0.3867    1.2623 C   0  0  0  0  0  0  0  0  0  0  0  0
   -0.0106   -1.0851    0.5774 O   0  0  0  0  0  0  0  0  0  0  0  0
    0.1168    1.4689    2.7060 C   0  0  0  0  0  0  0  0  0  0  0  0
    1.1183   -1.4145    2.5542 H   0  0  0  0  0  0  0  0  0  0  0  0
   -1.3088   -0.0350    3.3125 H   0  0  0  0  0  0  0  0  0  0  0  0
    1.0116    1.5681    2.0808 H   0  0  0  0  0  0  0  0  0  0  0  0
   -0.6289    2.1775    2.3307 H   0  0  0  0  0  0  0  0  0  0  0  0
    0.3882    1.7670    3.7245 H   0  0  0  0  0  0  0  0  0  0  0  0
   -1.9689    0.1350    0.8298 N   0  0  0  0  0  0  0  0  0  0  0  0
   -2.5039   -0.1183   -0.4830 C   0  0  2  0  0  0  0  0  0  0  0  0
   -3.3649   -1.3748   -0.4128 C   0  0  0  0  0  0  0  0  0  0  0  0
   -4.3709   -1.4592    0.2887 O   0  0  0  0  0  0  0  0  0  0  0  0
   -1.3999   -0.2407   -1.5284 C   0  0  0  0  0  0  0  0  0  0  0  0
   -0.6073   -1.3953   -1.2752 O   0  0  0  0  0  0  0  0  0  0  0  0
   -2.5276    0.6894    1.4750 H   0  0  0  0  0  0  0  0  0  0  0  0
   -3.1447    0.7373   -0.7252 H   0  0  0  0  0  0  0  0  0  0  0  0
   -0.7415    0.6337   -1.5093 H   0  0  0  0  0  0  0  0  0  0  0  0
   -1.8285   -0.3356   -2.5318 H   0  0  0  0  0  0  0  0  0  0  0  0
   -1.2048   -2.1585   -1.3212 H   0  0  0  0  0  0  0  0  0  0  0  0
   -2.9016   -2.3732   -1.2580 N   0  0  0  0  0  0  0  0  0  0  0  0
   -3.5623   -3.6503   -1.3961 C   0  0  2  0  0  0  0  0  0  0  0  0
   -5.0606   -3.4237   -1.2431 C   0  0  0  0  0  0  0  0  0  0  0  0
   -5.5358   -2.4508   -0.6610 O   0  0  0  0  0  0  0  0  0  0  0  0
   -3.0559   -4.6494   -0.3675 C   0  0  0  0  0  0  0  0  0  0  0  0
   -2.0823   -2.2003   -1.8328 H   0  0  0  0  0  0  0  0  0  0  0  0
   -3.3482   -4.0093   -2.4087 H   0  0  0  0  0  0  0  0  0  0  0  0
   -3.2615   -4.3068    0.6532 H   0  0  0  0  0  0  0  0  0  0  0  0
   -3.5369   -5.6252   -0.4918 H   0  0  0  0  0  0  0  0  0  0  0  0
   -1.9733   -4.7887   -0.4596 H   0  0  0  0  0  0  0  0  0  0  0  0
   -5.8038   -4.4575   -1.7953 N   0  0  0  0  0  0  0  0  0  0  0  0
   -7.2476   -4.4813   -1.7667 C   0  0  0  0  0  0  0  0  0  0  0  0
   -5.3267   -5.2150   -2.2751 H   0  0  0  0  0  0  0  0  0  0  0  0
   -7.5883   -5.0301   -0.8763 H   0  0  0  0  0  0  0  0  0  0  0  0
   -7.6306   -3.4508   -1.7308 H   0  0  0  0  0  0  0  0  0  0  0  0
   -7.6240   -4.9810   -2.6715 H   0  0  0  0  0  0  0  0  0  0  0  0
  1  3  1  0  0  0  0
  1  7  1  0  0  0  0
  1  2  2  0  0  0  0
 29 30  1  0  0  0  0
 30 38  1  0  0  0  0
 30 31  2  0  0  0  0
  8  9  1  0  0  0  0
  9 17  1  0  0  0  0
  9 10  2  0  0  0  0
 18 19  1  0  0  0  0
 19 28  1  0  0  0  0
 19 20  2  0  0  0  0
 29 32  1  0  0  0  0
  8 11  1  0  0  0  0
 38 39  1  0  0  0  0
 18 21  1  0  0  0  0
 21 22  1  0  0  0  0
 28 29  1  0  0  0  0
  7  8  1  0  0  0  0
 17 18  1  0  0  0  0
  3  4  1  0  0  0  0
  3  5  1  0  0  0  0
  3  6  1  0  0  0  0
 32 35  1  0  0  0  0
 32 36  1  0  0  0  0
 32 37  1  0  0  0  0
 11 14  1  0  0  0  0
 11 15  1  0  0  0  0
 11 16  1  0  0  0  0
 39 41  1  0  0  0  0
 39 42  1  0  0  0  0
 39 43  1  0  0  0  0
 21 25  1  0  0  0  0
 21 26  1  0  0  0  0
 29 34  1  0  0  0  0
  8 13  1  0  0  0  0
 18 24  1  0  0  0  0
 38 40  1  0  0  0  0
  7 12  1  0  0  0  0
 28 33  1  0  0  0  0
 17 23  1  0  0  0  0
 22 27  1  0  0  0  0
M  END
$$$$

  -OEChem-05262214473D

 43 42  0     1  0  0  0  0  0999 V2000
    0.7424   -1.0926    4.5665 C   0  0  0  0  0  0  0  0  0  0  0  0
    0.1409   -0.5364    5.4779 O   0  0  0  0  0  0  0  0  0  0  0  0
    1.7940   -2.1023    4.8871 C   0  0  0  0  0  0  0  0  0  0  0  0
    2.7935   -1.6502    4.9904 H   0  0  0  0  0  0  0  0  0  0  0  0
    1.6064   -2.6156    5.8438 H   0  0  0  0  0  0  0  0  0  0  0  0
    1.9156   -2.9078    4.1453 H   0  0  0  0  0  0  0  0  0  0  0  0
    0.5488   -0.8838    3.2109 N   0  0  0  0  0  0  0  0  0  0  0  0
   -0.4159    0.0446    2.6829 C   0  0  2  0  0  0  0  0  0  0  0  0
   -0.7551   -0.3867    1.2623 C   0  0  0  0  0  0  0  0  0  0  0  0
   -0.0106   -1.0851    0.5774 O   0  0  0  0  0  0  0  0  0  0  0  0
    0.1168    1.4689    2.7060 C   0  0  0  0  0  0  0  0  0  0  0  0
    1.1183   -1.4145    2.5542 H   0  0  0  0  0  0  0  0  0  0  0  0
   -1.3088   -0.0350    3.3125 H   0  0  0  0  0  0  0  0  0  0  0  0
    1.0116    1.5681    2.0808 H   0  0  0  0  0  0  0  0  0  0  0  0
   -0.6289    2.1775    2.3307 H   0  0  0  0  0  0  0  0  0  0  0  0
    0.3882    1.7670    3.7245 H   0  0  0  0  0  0  0  0  0  0  0  0
   -1.9689    0.1350    0.8298 N   0  0  0  0  0  0  0  0  0  0  0  0
   -2.5039   -0.1183   -0.4830 C   0  0  2  0  0  0  0  0  0  0  0  0
   -3.3649   -1.3748   -0.4128 C   0  0  0  0  0  0  0  0  0  0  0  0
   -4.4981   -1.3846    0.0636 O   0  0  0  0  0  0  0  0  0  0  0  0
   -1.3999   -0.2407   -1.5284 C   0  0  0  0  0  0  0  0  0  0  0  0
   -0.6073   -1.3953   -1.2752 O   0  0  0  0  0  0  0  0  0  0  0  0
   -2.5276    0.6894    1.4750 H   0  0  0  0  0  0  0  0  0  0  0  0
   -3.1447    0.7373   -0.7252 H   0  0  0  0  0  0  0  0  0  0  0  0
   -0.7415    0.6337   -1.5093 H   0  0  0  0  0  0  0  0  0  0  0  0
   -1.8285   -0.3356   -2.5318 H   0  0  0  0  0  0  0  0  0  0  0  0
   -1.2048   -2.1585   -1.3212 H   0  0  0  0  0  0  0  0  0  0  0  0
   -2.7353   -2.4718   -0.9836 N   0  0  0  0  0  0  0  0  0  0  0  0
   -3.3562   -3.7733   -1.0691 C   0  0  2  0  0  0  0  0  0  0  0  0
   -4.8515   -3.5686   -1.2729 C   0  0  0  0  0  0  0  0  0  0  0  0
   -5.4365   -2.5353   -0.9550 O   0  0  0  0  0  0  0  0  0  0  0  0
   -3.0857   -4.5984    0.1794 C   0  0  0  0  0  0  0  0  0  0  0  0
   -1.8112   -2.3614   -1.3904 H   0  0  0  0  0  0  0  0  0  0  0  0
   -2.9316   -4.2691   -1.9488 H   0  0  0  0  0  0  0  0  0  0  0  0
   -3.5037   -4.1175    1.0713 H   0  0  0  0  0  0  0  0  0  0  0  0
   -3.5328   -5.5949    0.1010 H   0  0  0  0  0  0  0  0  0  0  0  0
   -2.0091   -4.7195    0.3409 H   0  0  0  0  0  0  0  0  0  0  0  0
   -5.4633   -4.6917   -1.8117 N   0  0  0  0  0  0  0  0  0  0  0  0
   -6.8799   -4.7513   -2.0872 C   0  0  0  0  0  0  0  0  0  0  0  0
   -4.8975   -5.4972   -2.0622 H   0  0  0  0  0  0  0  0  0  0  0  0
   -7.4054   -5.1746   -1.2186 H   0  0  0  0  0  0  0  0  0  0  0  0
   -7.2576   -3.7374   -2.2859 H   0  0  0  0  0  0  0  0  0  0  0  0
   -7.0556   -5.3870   -2.9675 H   0  0  0  0  0  0  0  0  0  0  0  0
  1  3  1  0  0  0  0
  1  7  1  0  0  0  0
  1  2  2  0  0  0  0
 29 30  1  0  0  0  0
 30 38  1  0  0  0  0
 30 31  2  0  0  0  0
  8  9  1  0  0  0  0
  9 17  1  0  0  0  0
  9 10  2  0  0  0  0
 18 19  1  0  0  0  0
 19 28  1  0  0  0  0
 19 20  2  0  0  0  0
 29 32  1  0  0  0  0
  8 11  1  0  0  0  0
 38 39  1  0  0  0  0
 18 21  1  0  0  0  0
 21 22  1  0  0  0  0
 28 29  1  0  0  0  0
  7  8  1  0  0  0  0
 17 18  1  0  0  0  0
  3  4  1  0  0  0  0
  3  5  1  0  0  0  0
  3  6  1  0  0  0  0
 32 35  1  0  0  0  0
 32 36  1  0  0  0  0
 32 37  1  0  0  0  0
 11 14  1  0  0  0  0
 11 15  1  0  0  0  0
 11 16  1  0  0  0  0
 39 41  1  0  0  0  0
 39 42  1  0  0  0  0
 39 43  1  0  0  0  0
 21 25  1  0  0  0  0
 21 26  1  0  0  0  0
 29 34  1  0  0  0  0
  8 13  1  0  0  0  0
 18 24  1  0  0  0  0
 38 40  1  0  0  0  0
  7 12  1  0  0  0  0
 28 33  1  0  0  0  0
 17 23  1  0  0  0  0
 22 27  1  0  0  0  0
M  END
$$$$

  -OEChem-05262214473D

 43 42  0     1  0  0  0  0  0999 V2000
    0.7424   -1.0926    4.5665 C   0  0  0  0  0  0  0  0  0  0  0  0
    0.1409   -0.5364    5.4779 O   0  0  0  0  0  0  0  0  0  0  0  0
    1.7940   -2.1023    4.8871 C   0  0  0  0  0  0  0  0  0  0  0  0
    2.7935   -1.6502    4.9904 H   0  0  0  0  0  0  0  0  0  0  0  0
    1.6064   -2.6156    5.8438 H   0  0  0  0  0  0  0  0  0  0  0  0
    1.9156   -2.9078    4.1453 H   0  0  0  0  0  0  0  0  0  0  0  0
    0.5488   -0.8838    3.2109 N   0  0  0  0  0  0  0  0  0  0  0  0
   -0.4159    0.0446    2.6829 C   0  0  2  0  0  0  0  0  0  0  0  0
   -0.7551   -0.3867    1.2623 C   0  0  0  0  0  0  0  0  0  0  0  0
   -0.0106   -1.0851    0.5774 O   0  0  0  0  0  0  0  0  0  0  0  0
    0.1168    1.4689    2.7060 C   0  0  0  0  0  0  0  0  0  0  0  0
    1.1183   -1.4145    2.5542 H   0  0  0  0  0  0  0  0  0  0  0  0
   -1.3088   -0.0350    3.3125 H   0  0  0  0  0  0  0  0  0  0  0  0
    1.0116    1.5681    2.0808 H   0  0  0  0  0  0  0  0  0  0  0  0
   -0.6289    2.1775    2.3307 H   0  0  0  0  0  0  0  0  0  0  0  0
    0.3882    1.7670    3.7245 H   0  0  0  0  0  0  0  0  0  0  0  0
   -1.9689    0.1350    0.8298 N   0  0  0  0  0  0  0  0  0  0  0  0
   -2.5039   -0.1183   -0.4830 C   0  0  2  0  0  0  0  0  0  0  0  0
   -3.3649   -1.3748   -0.4128 C   0  0  0  0  0  0  0  0  0  0  0  0
   -4.5739   -1.3469   -0.1918 O   0  0  0  0  0  0  0  0  0  0  0  0
   -1.3999   -0.2407   -1.5284 C   0  0  0  0  0  0  0  0  0  0  0  0
   -0.6073   -1.3953   -1.2752 O   0  0  0  0  0  0  0  0  0  0  0  0
   -2.5276    0.6894    1.4750 H   0  0  0  0  0  0  0  0  0  0  0  0
   -3.1447    0.7373   -0.7252 H   0  0  0  0  0  0  0  0  0  0  0  0
   -0.7415    0.6337   -1.5093 H   0  0  0  0  0  0  0  0  0  0  0  0
   -1.8285   -0.3356   -2.5318 H   0  0  0  0  0  0  0  0  0  0  0  0
   -1.2048   -2.1585   -1.3212 H   0  0  0  0  0  0  0  0  0  0  0  0
   -2.6320   -2.5250   -0.6687 N   0  0  0  0  0  0  0  0  0  0  0  0
   -3.2253   -3.8419   -0.6912 C   0  0  2  0  0  0  0  0  0  0  0  0
   -4.6415   -3.7105   -1.2359 C   0  0  0  0  0  0  0  0  0  0  0  0
   -5.2769   -2.6586   -1.2054 O   0  0  0  0  0  0  0  0  0  0  0  0
   -3.2317   -4.4696    0.6939 C   0  0  0  0  0  0  0  0  0  0  0  0
   -1.6418   -2.4491   -0.8817 H   0  0  0  0  0  0  0  0  0  0  0  0
   -2.6241   -4.4479   -1.3778 H   0  0  0  0  0  0  0  0  0  0  0  0
   -3.8292   -3.8763    1.3957 H   0  0  0  0  0  0  0  0  0  0  0  0
   -3.6556   -5.4790    0.6701 H   0  0  0  0  0  0  0  0  0  0  0  0
   -2.2152   -4.5361    1.0964 H   0  0  0  0  0  0  0  0  0  0  0  0
   -5.1282   -4.9164   -1.7207 N   0  0  0  0  0  0  0  0  0  0  0  0
   -6.4530   -5.0545   -2.2790 C   0  0  0  0  0  0  0  0  0  0  0  0
   -4.5250   -5.7336   -1.7238 H   0  0  0  0  0  0  0  0  0  0  0  0
   -7.1541   -5.3619   -1.4890 H   0  0  0  0  0  0  0  0  0  0  0  0
   -6.7754   -4.0910   -2.7005 H   0  0  0  0  0  0  0  0  0  0  0  0
   -6.4387   -5.8157   -3.0729 H   0  0  0  0  0  0  0  0  0  0  0  0
  1  3  1  0  0  0  0
  1  7  1  0  0  0  0
  1  2  2  0  0  0  0
 29 30  1  0  0  0  0
 30 38  1  0  0  0  0
 30 31  2  0  0  0  0
  8  9  1  0  0  0  0
  9 17  1  0  0  0  0
  9 10  2  0  0  0  0
 18 19  1  0  0  0  0
 19 28  1  0  0  0  0
 19 20  2  0  0  0  0
 29 32  1  0  0  0  0
  8 11  1  0  0  0  0
 38 39  1  0  0  0  0
 18 21  1  0  0  0  0
 21 22  1  0  0  0  0
 28 29  1  0  0  0  0
  7  8  1  0  0  0  0
 17 18  1  0  0  0  0
  3  4  1  0  0  0  0
  3  5  1  0  0  0  0
  3  6  1  0  0  0  0
 32 35  1  0  0  0  0
 32 36  1  0  0  0  0
 32 37  1  0  0  0  0
 11 14  1  0  0  0  0
 11 15  1  0  0  0  0
 11 16  1  0  0  0  0
 39 41  1  0  0  0  0
 39 42  1  0  0  0  0
 39 43  1  0  0  0  0
 21 25  1  0  0  0  0
 21 26  1  0  0  0  0
 29 34  1  0  0  0  0
  8 13  1  0  0  0  0
 18 24  1  0  0  0  0
 38 40  1  0  0  0  0
  7 12  1  0  0  0  0
 28 33  1  0  0  0  0
 17 23  1  0  0  0  0
 22 27  1  0  0  0  0
M  END
$$$$

  -OEChem-05262214473D

 43 42  0     1  0  0  0  0  0999 V2000
    0.7424   -1.0926    4.5665 C   0  0  0  0  0  0  0  0  0  0  0  0
    0.1409   -0.5364    5.4779 O   0  0  0  0  0  0  0  0  0  0  0  0
    1.7940   -2.1023    4.8871 C   0  0  0  0  0  0  0  0  0  0  0  0
    2.7935   -1.6502    4.9904 H   0  0  0  0  0  0  0  0  0  0  0  0
    1.6064   -2.6156    5.8438 H   0  0  0  0  0  0  0  0  0  0  0  0
    1.9156   -2.9078    4.1453 H   0  0  0  0  0  0  0  0  0  0  0  0
    0.5488   -0.8838    3.2109 N   0  0  0  0  0  0  0  0  0  0  0  0
   -0.4159    0.0446    2.6829 C   0  0  2  0  0  0  0  0  0  0  0  0
   -0.7551   -0.3867    1.2623 C   0  0  0  0  0  0  0  0  0  0  0  0
   -0.0106   -1.0851    0.5774 O   0  0  0  0  0  0  0  0  0  0  0  0
    0.1168    1.4689    2.7060 C   0  0  0  0  0  0  0  0  0  0  0  0
    1.1183   -1.4145    2.5542 H   0  0  0  0  0  0  0  0  0  0  0  0
   -1.3088   -0.0350    3.3125 H   0  0  0  0  0  0  0  0  0  0  0  0
    1.0116    1.5681    2.0808 H   0  0  0  0  0  0  0  0  0  0  0  0
   -0.6289    2.1775    2.3307 H   0  0  0  0  0  0  0  0  0  0  0  0
    0.3882    1.7670    3.7245 H   0  0  0  0  0  0  0  0  0  0  0  0
   -1.9689    0.1350    0.8298 N   0  0  0  0  0  0  0  0  0  0  0  0
   -2.5039   -0.1183   -0.4830 C   0  0  2  0  0  0  0  0  0  0  0  0
   -3.3649   -1.3748   -0.4128 C   0  0  0  0  0  0  0  0  0  0  0  0
   -4.5930   -1.3488   -0.4602 O   0  0  0  0  0  0  0  0  0  0  0  0
   -1.3999   -0.2407   -1.5284 C   0  0  0  0  0  0  0  0  0  0  0  0
   -0.6073   -1.3953   -1.2752 O   0  0  0  0  0  0  0  0  0  0  0  0
   -2.5276    0.6894    1.4750 H   0  0  0  0  0  0  0  0  0  0  0  0
   -3.1447    0.7373   -0.7252 H   0  0  0  0  0  0  0  0  0  0  0  0
   -0.7415    0.6337   -1.5093 H   0  0  0  0  0  0  0  0  0  0  0  0
   -1.8285   -0.3356   -2.5318 H   0  0  0  0  0  0  0  0  0  0  0  0
   -1.2048   -2.1585   -1.3212 H   0  0  0  0  0  0  0  0  0  0  0  0
   -2.5988   -2.5292   -0.3348 N   0  0  0  0  0  0  0  0  0  0  0  0
   -3.1787   -3.8514   -0.2883 C   0  0  2  0  0  0  0  0  0  0  0  0
   -4.4448   -3.8396   -1.1346 C   0  0  0  0  0  0  0  0  0  0  0  0
   -5.0679   -2.8125   -1.3953 O   0  0  0  0  0  0  0  0  0  0  0  0
   -3.4840   -4.2717    1.1409 C   0  0  0  0  0  0  0  0  0  0  0  0
   -1.5856   -2.4574   -0.3414 H   0  0  0  0  0  0  0  0  0  0  0  0
   -2.4468   -4.5335   -0.7345 H   0  0  0  0  0  0  0  0  0  0  0  0
   -4.2156   -3.5999    1.6045 H   0  0  0  0  0  0  0  0  0  0  0  0
   -3.8970   -5.2853    1.1767 H   0  0  0  0  0  0  0  0  0  0  0  0
   -2.5775   -4.2509    1.7554 H   0  0  0  0  0  0  0  0  0  0  0  0
   -4.8211   -5.1160   -1.5285 N   0  0  0  0  0  0  0  0  0  0  0  0
   -5.9962   -5.3703   -2.3288 C   0  0  0  0  0  0  0  0  0  0  0  0
   -4.2345   -5.9081   -1.2829 H   0  0  0  0  0  0  0  0  0  0  0  0
   -6.8514   -5.5794   -1.6693 H   0  0  0  0  0  0  0  0  0  0  0  0
   -6.2171   -4.4874   -2.9466 H   0  0  0  0  0  0  0  0  0  0  0  0
   -5.8152   -6.2378   -2.9805 H   0  0  0  0  0  0  0  0  0  0  0  0
  1  3  1  0  0  0  0
  1  7  1  0  0  0  0
  1  2  2  0  0  0  0
 29 30  1  0  0  0  0
 30 38  1  0  0  0  0
 30 31  2  0  0  0  0
  8  9  1  0  0  0  0
  9 17  1  0  0  0  0
  9 10  2  0  0  0  0
 18 19  1  0  0  0  0
 19 28  1  0  0  0  0
 19 20  2  0  0  0  0
 29 32  1  0  0  0  0
  8 11  1  0  0  0  0
 38 39  1  0  0  0  0
 18 21  1  0  0  0  0
 21 22  1  0  0  0  0
 28 29  1  0  0  0  0
  7  8  1  0  0  0  0
 17 18  1  0  0  0  0
  3  4  1  0  0  0  0
  3  5  1  0  0  0  0
  3  6  1  0  0  0  0
 32 35  1  0  0  0  0
 32 36  1  0  0  0  0
 32 37  1  0  0  0  0
 11 14  1  0  0  0  0
 11 15  1  0  0  0  0
 11 16  1  0  0  0  0
 39 41  1  0  0  0  0
 39 42  1  0  0  0  0
 39 43  1  0  0  0  0
 21 25  1  0  0  0  0
 21 26  1  0  0  0  0
 29 34  1  0  0  0  0
  8 13  1  0  0  0  0
 18 24  1  0  0  0  0
 38 40  1  0  0  0  0
  7 12  1  0  0  0  0
 28 33  1  0  0  0  0
 17 23  1  0  0  0  0
 22 27  1  0  0  0  0
M  END
$$$$

  -OEChem-05262214473D

 43 42  0     1  0  0  0  0  0999 V2000
    0.7424   -1.0926    4.5665 C   0  0  0  0  0  0  0  0  0  0  0  0
    0.1409   -0.5364    5.4779 O   0  0  0  0  0  0  0  0  0  0  0  0
    1.7940   -2.1023    4.8871 C   0  0  0  0  0  0  0  0  0  0  0  0
    2.7935   -1.6502    4.9904 H   0  0  0  0  0  0  0  0  0  0  0  0
    1.6064   -2.6156    5.8438 H   0  0  0  0  0  0  0  0  0  0  0  0
    1.9156   -2.9078    4.1453 H   0  0  0  0  0  0  0  0  0  0  0  0
    0.5488   -0.8838    3.2109 N   0  0  0  0  0  0  0  0  0  0  0  0
   -0.4159    0.0446    2.6829 C   0  0  2  0  0  0  0  0  0  0  0  0
   -0.7551   -0.3867    1.2623 C   0  0  0  0  0  0  0  0  0  0  0  0
   -0.0106   -1.0851    0.5774 O   0  0  0  0  0  0  0  0  0  0  0  0
    0.1168    1.4689    2.7060 C   0  0  0  0  0  0  0  0  0  0  0  0
    1.1183   -1.4145    2.5542 H   0  0  0  0  0  0  0  0  0  0  0  0
   -1.3088   -0.0350    3.3125 H   0  0  0  0  0  0  0  0  0  0  0  0
    1.0116    1.5681    2.0808 H   0  0  0  0  0  0  0  0  0  0  0  0
   -0.6289    2.1775    2.3307 H   0  0  0  0  0  0  0  0  0  0  0  0
    0.3882    1.7670    3.7245 H   0  0  0  0  0  0  0  0  0  0  0  0
   -1.9689    0.1350    0.8298 N   0  0  0  0  0  0  0  0  0  0  0  0
   -2.5039   -0.1183   -0.4830 C   0  0  2  0  0  0  0  0  0  0  0  0
   -3.3649   -1.3748   -0.4128 C   0  0  0  0  0  0  0  0  0  0  0  0
   -4.5543   -1.3900   -0.7232 O   0  0  0  0  0  0  0  0  0  0  0  0
   -1.3999   -0.2407   -1.5284 C   0  0  0  0  0  0  0  0  0  0  0  0
   -0.6073   -1.3953   -1.2752 O   0  0  0  0  0  0  0  0  0  0  0  0
   -2.5276    0.6894    1.4750 H   0  0  0  0  0  0  0  0  0  0  0  0
   -3.1447    0.7373   -0.7252 H   0  0  0  0  0  0  0  0  0  0  0  0
   -0.7415    0.6337   -1.5093 H   0  0  0  0  0  0  0  0  0  0  0  0
   -1.8285   -0.3356   -2.5318 H   0  0  0  0  0  0  0  0  0  0  0  0
   -1.2048   -2.1585   -1.3212 H   0  0  0  0  0  0  0  0  0  0  0  0
   -2.6378   -2.4840   -0.0045 N   0  0  0  0  0  0  0  0  0  0  0  0
   -3.2194   -3.8011    0.1122 C   0  0  2  0  0  0  0  0  0  0  0  0
   -4.2749   -3.9472   -0.9760 C   0  0  0  0  0  0  0  0  0  0  0  0
   -4.8237   -2.9864   -1.5116 O   0  0  0  0  0  0  0  0  0  0  0  0
   -3.8255   -4.0183    1.4899 C   0  0  0  0  0  0  0  0  0  0  0  0
   -1.6465   -2.3858    0.1937 H   0  0  0  0  0  0  0  0  0  0  0  0
   -2.4117   -4.5201   -0.0628 H   0  0  0  0  0  0  0  0  0  0  0  0
   -4.6366   -3.3069    1.6833 H   0  0  0  0  0  0  0  0  0  0  0  0
   -4.2405   -5.0270    1.5863 H   0  0  0  0  0  0  0  0  0  0  0  0
   -3.0715   -3.8835    2.2730 H   0  0  0  0  0  0  0  0  0  0  0  0
   -4.5632   -5.2772   -1.2482 N   0  0  0  0  0  0  0  0  0  0  0  0
   -5.5406   -5.6772   -2.2334 C   0  0  0  0  0  0  0  0  0  0  0  0
   -4.0459   -6.0087   -0.7696 H   0  0  0  0  0  0  0  0  0  0  0  0
   -6.5180   -5.8122   -1.7471 H   0  0  0  0  0  0  0  0  0  0  0  0
   -5.6205   -4.8995   -3.0073 H   0  0  0  0  0  0  0  0  0  0  0  0
   -5.2277   -6.6246   -2.6966 H   0  0  0  0  0  0  0  0  0  0  0  0
  1  3  1  0  0  0  0
  1  7  1  0  0  0  0
  1  2  2  0  0  0  0
 29 30  1  0  0  0  0
 30 38  1  0  0  0  0
 30 31  2  0  0  0  0
  8  9  1  0  0  0  0
  9 17  1  0  0  0  0
  9 10  2  0  0  0  0
 18 19  1  0  0  0  0
 19 28  1  0  0  0  0
 19 20  2  0  0  0  0
 29 32  1  0  0  0  0
  8 11  1  0  0  0  0
 38 39  1  0  0  0  0
 18 21  1  0  0  0  0
 21 22  1  0  0  0  0
 28 29  1  0  0  0  0
  7  8  1  0  0  0  0
 17 18  1  0  0  0  0
  3  4  1  0  0  0  0
  3  5  1  0  0  0  0
  3  6  1  0  0  0  0
 32 35  1  0  0  0  0
 32 36  1  0  0  0  0
 32 37  1  0  0  0  0
 11 14  1  0  0  0  0
 11 15  1  0  0  0  0
 11 16  1  0  0  0  0
 39 41  1  0  0  0  0
 39 42  1  0  0  0  0
 39 43  1  0  0  0  0
 21 25  1  0  0  0  0
 21 26  1  0  0  0  0
 29 34  1  0  0  0  0
  8 13  1  0  0  0  0
 18 24  1  0  0  0  0
 38 40  1  0  0  0  0
  7 12  1  0  0  0  0
 28 33  1  0  0  0  0
 17 23  1  0  0  0  0
 22 27  1  0  0  0  0
M  END
$$$$

  -OEChem-05262214473D

 43 42  0     1  0  0  0  0  0999 V2000
    0.7424   -1.0926    4.5665 C   0  0  0  0  0  0  0  0  0  0  0  0
    0.1409   -0.5364    5.4779 O   0  0  0  0  0  0  0  0  0  0  0  0
    1.7940   -2.1023    4.8871 C   0  0  0  0  0  0  0  0  0  0  0  0
    2.7935   -1.6502    4.9904 H   0  0  0  0  0  0  0  0  0  0  0  0
    1.6064   -2.6156    5.8438 H   0  0  0  0  0  0  0  0  0  0  0  0
    1.9156   -2.9078    4.1453 H   0  0  0  0  0  0  0  0  0  0  0  0
    0.5488   -0.8838    3.2109 N   0  0  0  0  0  0  0  0  0  0  0  0
   -0.4159    0.0446    2.6829 C   0  0  2  0  0  0  0  0  0  0  0  0
   -0.7551   -0.3867    1.2623 C   0  0  0  0  0  0  0  0  0  0  0  0
   -0.0106   -1.0851    0.5774 O   0  0  0  0  0  0  0  0  0  0  0  0
    0.1168    1.4689    2.7060 C   0  0  0  0  0  0  0  0  0  0  0  0
    1.1183   -1.4145    2.5542 H   0  0  0  0  0  0  0  0  0  0  0  0
   -1.3088   -0.0350    3.3125 H   0  0  0  0  0  0  0  0  0  0  0  0
    1.0116    1.5681    2.0808 H   0  0  0  0  0  0  0  0  0  0  0  0
   -0.6289    2.1775    2.3307 H   0  0  0  0  0  0  0  0  0  0  0  0
    0.3882    1.7670    3.7245 H   0  0  0  0  0  0  0  0  0  0  0  0
   -1.9689    0.1350    0.8298 N   0  0  0  0  0  0  0  0  0  0  0  0
   -2.5039   -0.1183   -0.4830 C   0  0  2  0  0  0  0  0  0  0  0  0
   -3.3649   -1.3748   -0.4128 C   0  0  0  0  0  0  0  0  0  0  0  0
   -4.4603   -1.4678   -0.9630 O   0  0  0  0  0  0  0  0  0  0  0  0
   -1.3999   -0.2407   -1.5284 C   0  0  0  0  0  0  0  0  0  0  0  0
   -0.6073   -1.3953   -1.2752 O   0  0  0  0  0  0  0  0  0  0  0  0
   -2.5276    0.6894    1.4750 H   0  0  0  0  0  0  0  0  0  0  0  0
   -3.1447    0.7373   -0.7252 H   0  0  0  0  0  0  0  0  0  0  0  0
   -0.7415    0.6337   -1.5093 H   0  0  0  0  0  0  0  0  0  0  0  0
   -1.8285   -0.3356   -2.5318 H   0  0  0  0  0  0  0  0  0  0  0  0
   -1.2048   -2.1585   -1.3212 H   0  0  0  0  0  0  0  0  0  0  0  0
   -2.7466   -2.3925    0.2996 N   0  0  0  0  0  0  0  0  0  0  0  0
   -3.3448   -3.6944    0.4830 C   0  0  2  0  0  0  0  0  0  0  0  0
   -4.1433   -4.0259   -0.7708 C   0  0  0  0  0  0  0  0  0  0  0  0
   -4.5609   -3.1684   -1.5464 O   0  0  0  0  0  0  0  0  0  0  0  0
   -4.2327   -3.7265    1.7172 C   0  0  0  0  0  0  0  0  0  0  0  0
   -1.8203   -2.2392    0.6871 H   0  0  0  0  0  0  0  0  0  0  0  0
   -2.5212   -4.4085    0.5915 H   0  0  0  0  0  0  0  0  0  0  0  0
   -5.0637   -3.0174    1.6268 H   0  0  0  0  0  0  0  0  0  0  0  0
   -4.6627   -4.7217    1.8708 H   0  0  0  0  0  0  0  0  0  0  0  0
   -3.6634   -3.4588    2.6139 H   0  0  0  0  0  0  0  0  0  0  0  0
   -4.3719   -5.3888   -0.8989 N   0  0  0  0  0  0  0  0  0  0  0  0
   -5.1172   -5.9543   -1.9992 C   0  0  0  0  0  0  0  0  0  0  0  0
   -3.9720   -6.0286   -0.2188 H   0  0  0  0  0  0  0  0  0  0  0  0
   -6.1766   -6.0445   -1.7171 H   0  0  0  0  0  0  0  0  0  0  0  0
   -5.0265   -5.2995   -2.8784 H   0  0  0  0  0  0  0  0  0  0  0  0
   -4.7161   -6.9497   -2.2405 H   0  0  0  0  0  0  0  0  0  0  0  0
  1  3  1  0  0  0  0
  1  7  1  0  0  0  0
  1  2  2  0  0  0  0
 29 30  1  0  0  0  0
 30 38  1  0  0  0  0
 30 31  2  0  0  0  0
  8  9  1  0  0  0  0
  9 17  1  0  0  0  0
  9 10  2  0  0  0  0
 18 19  1  0  0  0  0
 19 28  1  0  0  0  0
 19 20  2  0  0  0  0
 29 32  1  0  0  0  0
  8 11  1  0  0  0  0
 38 39  1  0  0  0  0
 18 21  1  0  0  0  0
 21 22  1  0  0  0  0
 28 29  1  0  0  0  0
  7  8  1  0  0  0  0
 17 18  1  0  0  0  0
  3  4  1  0  0  0  0
  3  5  1  0  0  0  0
  3  6  1  0  0  0  0
 32 35  1  0  0  0  0
 32 36  1  0  0  0  0
 32 37  1  0  0  0  0
 11 14  1  0  0  0  0
 11 15  1  0  0  0  0
 11 16  1  0  0  0  0
 39 41  1  0  0  0  0
 39 42  1  0  0  0  0
 39 43  1  0  0  0  0
 21 25  1  0  0  0  0
 21 26  1  0  0  0  0
 29 34  1  0  0  0  0
  8 13  1  0  0  0  0
 18 24  1  0  0  0  0
 38 40  1  0  0  0  0
  7 12  1  0  0  0  0
 28 33  1  0  0  0  0
 17 23  1  0  0  0  0
 22 27  1  0  0  0  0
M  END
$$$$

  -OEChem-05262214473D

 43 42  0     1  0  0  0  0  0999 V2000
    0.7424   -1.0926    4.5665 C   0  0  0  0  0  0  0  0  0  0  0  0
    0.1409   -0.5364    5.4779 O   0  0  0  0  0  0  0  0  0  0  0  0
    1.7940   -2.1023    4.8871 C   0  0  0  0  0  0  0  0  0  0  0  0
    2.7935   -1.6502    4.9904 H   0  0  0  0  0  0  0  0  0  0  0  0
    1.6064   -2.6156    5.8438 H   0  0  0  0  0  0  0  0  0  0  0  0
    1.9156   -2.9078    4.1453 H   0  0  0  0  0  0  0  0  0  0  0  0
    0.5488   -0.8838    3.2109 N   0  0  0  0  0  0  0  0  0  0  0  0
   -0.4159    0.0446    2.6829 C   0  0  2  0  0  0  0  0  0  0  0  0
   -0.7551   -0.3867    1.2623 C   0  0  0  0  0  0  0  0  0  0  0  0
   -0.0106   -1.0851    0.5774 O   0  0  0  0  0  0  0  0  0  0  0  0
    0.1168    1.4689    2.7060 C   0  0  0  0  0  0  0  0  0  0  0  0
    1.1183   -1.4145    2.5542 H   0  0  0  0  0  0  0  0  0  0  0  0
   -1.3088   -0.0350    3.3125 H   0  0  0  0  0  0  0  0  0  0  0  0
    1.0116    1.5681    2.0808 H   0  0  0  0  0  0  0  0  0  0  0  0
   -0.6289    2.1775    2.3307 H   0  0  0  0  0  0  0  0  0  0  0  0
    0.3882    1.7670    3.7245 H   0  0  0  0  0  0  0  0  0  0  0  0
   -1.9689    0.1350    0.8298 N   0  0  0  0  0  0  0  0  0  0  0  0
   -2.5039   -0.1183   -0.4830 C   0  0  2  0  0  0  0  0  0  0  0  0
   -3.3649   -1.3748   -0.4128 C   0  0  0  0  0  0  0  0  0  0  0  0
   -4.3174   -1.5769   -1.1632 O   0  0  0  0  0  0  0  0  0  0  0  0
   -1.3999   -0.2407   -1.5284 C   0  0  0  0  0  0  0  0  0  0  0  0
   -0.6073   -1.3953   -1.2752 O   0  0  0  0  0  0  0  0  0  0  0  0
   -2.5276    0.6894    1.4750 H   0  0  0  0  0  0  0  0  0  0  0  0
   -3.1447    0.7373   -0.7252 H   0  0  0  0  0  0  0  0  0  0  0  0
   -0.7415    0.6337   -1.5093 H   0  0  0  0  0  0  0  0  0  0  0  0
   -1.8285   -0.3356   -2.5318 H   0  0  0  0  0  0  0  0  0  0  0  0
   -1.2048   -2.1585   -1.3212 H   0  0  0  0  0  0  0  0  0  0  0  0
   -2.9175   -2.2610    0.5568 N   0  0  0  0  0  0  0  0  0  0  0  0
   -3.5463   -3.5387    0.7988 C   0  0  2  0  0  0  0  0  0  0  0  0
   -4.0591   -4.0703   -0.5331 C   0  0  0  0  0  0  0  0  0  0  0  0
   -4.2974   -3.3462   -1.4974 O   0  0  0  0  0  0  0  0  0  0  0  0
   -4.6780   -3.4163    1.8072 C   0  0  0  0  0  0  0  0  0  0  0  0
   -2.0951   -2.0275    1.1052 H   0  0  0  0  0  0  0  0  0  0  0  0
   -2.7678   -4.2064    1.1839 H   0  0  0  0  0  0  0  0  0  0  0  0
   -5.4675   -2.7511    1.4389 H   0  0  0  0  0  0  0  0  0  0  0  0
   -5.1349   -4.3903    2.0111 H   0  0  0  0  0  0  0  0  0  0  0  0
   -4.3129   -3.0059    2.7549 H   0  0  0  0  0  0  0  0  0  0  0  0
   -4.2602   -5.4432   -0.5044 N   0  0  0  0  0  0  0  0  0  0  0  0
   -4.7549   -6.1826   -1.6422 C   0  0  0  0  0  0  0  0  0  0  0  0
   -4.0178   -5.9664    0.3318 H   0  0  0  0  0  0  0  0  0  0  0  0
   -5.8505   -6.2604   -1.5814 H   0  0  0  0  0  0  0  0  0  0  0  0
   -4.4754   -5.6598   -2.5688 H   0  0  0  0  0  0  0  0  0  0  0  0
   -4.3154   -7.1910   -1.6433 H   0  0  0  0  0  0  0  0  0  0  0  0
  1  3  1  0  0  0  0
  1  7  1  0  0  0  0
  1  2  2  0  0  0  0
 29 30  1  0  0  0  0
 30 38  1  0  0  0  0
 30 31  2  0  0  0  0
  8  9  1  0  0  0  0
  9 17  1  0  0  0  0
  9 10  2  0  0  0  0
 18 19  1  0  0  0  0
 19 28  1  0  0  0  0
 19 20  2  0  0  0  0
 29 32  1  0  0  0  0
  8 11  1  0  0  0  0
 38 39  1  0  0  0  0
 18 21  1  0  0  0  0
 21 22  1  0  0  0  0
 28 29  1  0  0  0  0
  7  8  1  0  0  0  0
 17 18  1  0  0  0  0
  3  4  1  0  0  0  0
  3  5  1  0  0  0  0
  3  6  1  0  0  0  0
 32 35  1  0  0  0  0
 32 36  1  0  0  0  0
 32 37  1  0  0  0  0
 11 14  1  0  0  0  0
 11 15  1  0  0  0  0
 11 16  1  0  0  0  0
 39 41  1  0  0  0  0
 39 42  1  0  0  0  0
 39 43  1  0  0  0  0
 21 25  1  0  0  0  0
 21 26  1  0  0  0  0
 29 34  1  0  0  0  0
  8 13  1  0  0  0  0
 18 24  1  0  0  0  0
 38 40  1  0  0  0  0
  7 12  1  0  0  0  0
 28 33  1  0  0  0  0
 17 23  1  0  0  0  0
 22 27  1  0  0  0  0
M  END
$$$$

  -OEChem-05262214473D

 43 42  0     1  0  0  0  0  0999 V2000
    0.7424   -1.0926    4.5665 C   0  0  0  0  0  0  0  0  0  0  0  0
    0.1409   -0.5364    5.4779 O   0  0  0  0  0  0  0  0  0  0  0  0
    1.7940   -2.1023    4.8871 C   0  0  0  0  0  0  0  0  0  0  0  0
    2.7935   -1.6502    4.9904 H   0  0  0  0  0  0  0  0  0  0  0  0
    1.6064   -2.6156    5.8438 H   0  0  0  0  0  0  0  0  0  0  0  0
    1.9156   -2.9078    4.1453 H   0  0  0  0  0  0  0  0  0  0  0  0
    0.5488   -0.8838    3.2109 N   0  0  0  0  0  0  0  0  0  0  0  0
   -0.4159    0.0446    2.6829 C   0  0  2  0  0  0  0  0  0  0  0  0
   -0.7551   -0.3867    1.2623 C   0  0  0  0  0  0  0  0  0  0  0  0
   -0.0106   -1.0851    0.5774 O   0  0  0  0  0  0  0  0  0  0  0  0
    0.1168    1.4689    2.7060 C   0  0  0  0  0  0  0  0  0  0  0  0
    1.1183   -1.4145    2.5542 H   0  0  0  0  0  0  0  0  0  0  0  0
   -1.3088   -0.0350    3.3125 H   0  0  0  0  0  0  0  0  0  0  0  0
    1.0116    1.5681    2.0808 H   0  0  0  0  0  0  0  0  0  0  0  0
   -0.6289    2.1775    2.3307 H   0  0  0  0  0  0  0  0  0  0  0  0
    0.3882    1.7670    3.7245 H   0  0  0  0  0  0  0  0  0  0  0  0
   -1.9689    0.1350    0.8298 N   0  0  0  0  0  0  0  0  0  0  0  0
   -2.5039   -0.1183   -0.4830 C   0  0  2  0  0  0  0  0  0  0  0  0
   -3.3649   -1.3748   -0.4128 C   0  0  0  0  0  0  0  0  0  0  0  0
   -4.1354   -1.7099   -1.3102 O   0  0  0  0  0  0  0  0  0  0  0  0
   -1.3999   -0.2407   -1.5284 C   0  0  0  0  0  0  0  0  0  0  0  0
   -0.6073   -1.3953   -1.2752 O   0  0  0  0  0  0  0  0  0  0  0  0
   -2.5276    0.6894    1.4750 H   0  0  0  0  0  0  0  0  0  0  0  0
   -3.1447    0.7373   -0.7252 H   0  0  0  0  0  0  0  0  0  0  0  0
   -0.7415    0.6337   -1.5093 H   0  0  0  0  0  0  0  0  0  0  0  0
   -1.8285   -0.3356   -2.5318 H   0  0  0  0  0  0  0  0  0  0  0  0
   -1.2048   -2.1585   -1.3212 H   0  0  0  0  0  0  0  0  0  0  0  0
   -3.1390   -2.0984    0.7495 N   0  0  0  0  0  0  0  0  0  0  0  0
   -3.8101   -3.3446    1.0382 C   0  0  2  0  0  0  0  0  0  0  0  0
   -4.0278   -4.0775   -0.2790 C   0  0  0  0  0  0  0  0  0  0  0  0
   -4.0513   -3.5076   -1.3679 O   0  0  0  0  0  0  0  0  0  0  0  0
   -5.1310   -3.1088    1.7539 C   0  0  0  0  0  0  0  0  0  0  0  0
   -2.4522   -1.7652    1.4195 H   0  0  0  0  0  0  0  0  0  0  0  0
   -3.1348   -3.9275    1.6739 H   0  0  0  0  0  0  0  0  0  0  0  0
   -5.8207   -2.5262    1.1323 H   0  0  0  0  0  0  0  0  0  0  0  0
   -5.6248   -4.0554    1.9974 H   0  0  0  0  0  0  0  0  0  0  0  0
   -4.9757   -2.5555    2.6863 H   0  0  0  0  0  0  0  0  0  0  0  0
   -4.2359   -5.4369   -0.0916 N   0  0  0  0  0  0  0  0  0  0  0  0
   -4.4784   -6.3467   -1.1867 C   0  0  0  0  0  0  0  0  0  0  0  0
   -4.1803   -5.8264    0.8449 H   0  0  0  0  0  0  0  0  0  0  0  0
   -5.5618   -6.4453   -1.3492 H   0  0  0  0  0  0  0  0  0  0  0  0
   -4.0049   -5.9561   -2.0995 H   0  0  0  0  0  0  0  0  0  0  0  0
   -4.0528   -7.3320   -0.9457 H   0  0  0  0  0  0  0  0  0  0  0  0
  1  3  1  0  0  0  0
  1  7  1  0  0  0  0
  1  2  2  0  0  0  0
 29 30  1  0  0  0  0
 30 38  1  0  0  0  0
 30 31  2  0  0  0  0
  8  9  1  0  0  0  0
  9 17  1  0  0  0  0
  9 10  2  0  0  0  0
 18 19  1  0  0  0  0
 19 28  1  0  0  0  0
 19 20  2  0  0  0  0
 29 32  1  0  0  0  0
  8 11  1  0  0  0  0
 38 39  1  0  0  0  0
 18 21  1  0  0  0  0
 21 22  1  0  0  0  0
 28 29  1  0  0  0  0
  7  8  1  0  0  0  0
 17 18  1  0  0  0  0
  3  4  1  0  0  0  0
  3  5  1  0  0  0  0
  3  6  1  0  0  0  0
 32 35  1  0  0  0  0
 32 36  1  0  0  0  0
 32 37  1  0  0  0  0
 11 14  1  0  0  0  0
 11 15  1  0  0  0  0
 11 16  1  0  0  0  0
 39 41  1  0  0  0  0
 39 42  1  0  0  0  0
 39 43  1  0  0  0  0
 21 25  1  0  0  0  0
 21 26  1  0  0  0  0
 29 34  1  0  0  0  0
  8 13  1  0  0  0  0
 18 24  1  0  0  0  0
 38 40  1  0  0  0  0
  7 12  1  0  0  0  0
 28 33  1  0  0  0  0
 17 23  1  0  0  0  0
 22 27  1  0  0  0  0
M  END
$$$$

  -OEChem-05262214473D

 43 42  0     1  0  0  0  0  0999 V2000
    0.7424   -1.0926    4.5665 C   0  0  0  0  0  0  0  0  0  0  0  0
    0.1409   -0.5364    5.4779 O   0  0  0  0  0  0  0  0  0  0  0  0
    1.7940   -2.1023    4.8871 C   0  0  0  0  0  0  0  0  0  0  0  0
    2.7935   -1.6502    4.9904 H   0  0  0  0  0  0  0  0  0  0  0  0
    1.6064   -2.6156    5.8438 H   0  0  0  0  0  0  0  0  0  0  0  0
    1.9156   -2.9078    4.1453 H   0  0  0  0  0  0  0  0  0  0  0  0
    0.5488   -0.8838    3.2109 N   0  0  0  0  0  0  0  0  0  0  0  0
   -0.4159    0.0446    2.6829 C   0  0  2  0  0  0  0  0  0  0  0  0
   -0.7551   -0.3867    1.2623 C   0  0  0  0  0  0  0  0  0  0  0  0
   -0.0106   -1.0851    0.5774 O   0  0  0  0  0  0  0  0  0  0  0  0
    0.1168    1.4689    2.7060 C   0  0  0  0  0  0  0  0  0  0  0  0
    1.1183   -1.4145    2.5542 H   0  0  0  0  0  0  0  0  0  0  0  0
   -1.3088   -0.0350    3.3125 H   0  0  0  0  0  0  0  0  0  0  0  0
    1.0116    1.5681    2.0808 H   0  0  0  0  0  0  0  0  0  0  0  0
   -0.6289    2.1775    2.3307 H   0  0  0  0  0  0  0  0  0  0  0  0
    0.3882    1.7670    3.7245 H   0  0  0  0  0  0  0  0  0  0  0  0
   -1.9689    0.1350    0.8298 N   0  0  0  0  0  0  0  0  0  0  0  0
   -2.5039   -0.1183   -0.4830 C   0  0  2  0  0  0  0  0  0  0  0  0
   -3.3649   -1.3748   -0.4128 C   0  0  0  0  0  0  0  0  0  0  0  0
   -3.9267   -1.8576   -1.3939 O   0  0  0  0  0  0  0  0  0  0  0  0
   -1.3999   -0.2407   -1.5284 C   0  0  0  0  0  0  0  0  0  0  0  0
   -0.6073   -1.3953   -1.2752 O   0  0  0  0  0  0  0  0  0  0  0  0
   -2.5276    0.6894    1.4750 H   0  0  0  0  0  0  0  0  0  0  0  0
   -3.1447    0.7373   -0.7252 H   0  0  0  0  0  0  0  0  0  0  0  0
   -0.7415    0.6337   -1.5093 H   0  0  0  0  0  0  0  0  0  0  0  0
   -1.8285   -0.3356   -2.5318 H   0  0  0  0  0  0  0  0  0  0  0  0
   -1.2048   -2.1585   -1.3212 H   0  0  0  0  0  0  0  0  0  0  0  0
   -3.3960   -1.9158    0.8647 N   0  0  0  0  0  0  0  0  0  0  0  0
   -4.1183   -3.1252    1.1847 C   0  0  2  0  0  0  0  0  0  0  0  0
   -4.0518   -4.0470   -0.0258 C   0  0  0  0  0  0  0  0  0  0  0  0
   -3.8393   -3.6417   -1.1667 O   0  0  0  0  0  0  0  0  0  0  0  0
   -5.5609   -2.8250    1.5608 C   0  0  0  0  0  0  0  0  0  0  0  0
   -2.8674   -1.4701    1.6086 H   0  0  0  0  0  0  0  0  0  0  0  0
   -3.5971   -3.5909    2.0282 H   0  0  0  0  0  0  0  0  0  0  0  0
   -6.0992   -2.3580    0.7280 H   0  0  0  0  0  0  0  0  0  0  0  0
   -6.0991   -3.7396    1.8307 H   0  0  0  0  0  0  0  0  0  0  0  0
   -5.6067   -2.1383    2.4129 H   0  0  0  0  0  0  0  0  0  0  0  0
   -4.3005   -5.3701    0.3115 N   0  0  0  0  0  0  0  0  0  0  0  0
   -4.3064   -6.4354   -0.6638 C   0  0  0  0  0  0  0  0  0  0  0  0
   -4.4483   -5.6182    1.2853 H   0  0  0  0  0  0  0  0  0  0  0  0
   -5.3303   -6.5865   -1.0363 H   0  0  0  0  0  0  0  0  0  0  0  0
   -3.6469   -6.1681   -1.5025 H   0  0  0  0  0  0  0  0  0  0  0  0
   -3.9462   -7.3632   -0.1953 H   0  0  0  0  0  0  0  0  0  0  0  0
  1  3  1  0  0  0  0
  1  7  1  0  0  0  0
  1  2  2  0  0  0  0
 29 30  1  0  0  0  0
 30 38  1  0  0  0  0
 30 31  2  0  0  0  0
  8  9  1  0  0  0  0
  9 17  1  0  0  0  0
  9 10  2  0  0  0  0
 18 19  1  0  0  0  0
 19 28  1  0  0  0  0
 19 20  2  0  0  0  0
 29 32  1  0  0  0  0
  8 11  1  0  0  0  0
 38 39  1  0  0  0  0
 18 21  1  0  0  0  0
 21 22  1  0  0  0  0
 28 29  1  0  0  0  0
  7  8  1  0  0  0  0
 17 18  1  0  0  0  0
  3  4  1  0  0  0  0
  3  5  1  0  0  0  0
  3  6  1  0  0  0  0
 32 35  1  0  0  0  0
 32 36  1  0  0  0  0
 32 37  1  0  0  0  0
 11 14  1  0  0  0  0
 11 15  1  0  0  0  0
 11 16  1  0  0  0  0
 39 41  1  0  0  0  0
 39 42  1  0  0  0  0
 39 43  1  0  0  0  0
 21 25  1  0  0  0  0
 21 26  1  0  0  0  0
 29 34  1  0  0  0  0
  8 13  1  0  0  0  0
 18 24  1  0  0  0  0
 38 40  1  0  0  0  0
  7 12  1  0  0  0  0
 28 33  1  0  0  0  0
 17 23  1  0  0  0  0
 22 27  1  0  0  0  0
M  END
$$$$

  -OEChem-05262214473D

 43 42  0     1  0  0  0  0  0999 V2000
    0.7424   -1.0926    4.5665 C   0  0  0  0  0  0  0  0  0  0  0  0
    0.1409   -0.5364    5.4779 O   0  0  0  0  0  0  0  0  0  0  0  0
    1.7940   -2.1023    4.8871 C   0  0  0  0  0  0  0  0  0  0  0  0
    2.7935   -1.6502    4.9904 H   0  0  0  0  0  0  0  0  0  0  0  0
    1.6064   -2.6156    5.8438 H   0  0  0  0  0  0  0  0  0  0  0  0
    1.9156   -2.9078    4.1453 H   0  0  0  0  0  0  0  0  0  0  0  0
    0.5488   -0.8838    3.2109 N   0  0  0  0  0  0  0  0  0  0  0  0
   -0.4159    0.0446    2.6829 C   0  0  2  0  0  0  0  0  0  0  0  0
   -0.7551   -0.3867    1.2623 C   0  0  0  0  0  0  0  0  0  0  0  0
   -0.0106   -1.0851    0.5774 O   0  0  0  0  0  0  0  0  0  0  0  0
    0.1168    1.4689    2.7060 C   0  0  0  0  0  0  0  0  0  0  0  0
    1.1183   -1.4145    2.5542 H   0  0  0  0  0  0  0  0  0  0  0  0
   -1.3088   -0.0350    3.3125 H   0  0  0  0  0  0  0  0  0  0  0  0
    1.0116    1.5681    2.0808 H   0  0  0  0  0  0  0  0  0  0  0  0
   -0.6289    2.1775    2.3307 H   0  0  0  0  0  0  0  0  0  0  0  0
    0.3882    1.7670    3.7245 H   0  0  0  0  0  0  0  0  0  0  0  0
   -1.9689    0.1350    0.8298 N   0  0  0  0  0  0  0  0  0  0  0  0
   -2.5039   -0.1183   -0.4830 C   0  0  2  0  0  0  0  0  0  0  0  0
   -3.3649   -1.3748   -0.4128 C   0  0  0  0  0  0  0  0  0  0  0  0
   -3.7055   -2.0100   -1.4087 O   0  0  0  0  0  0  0  0  0  0  0  0
   -1.3999   -0.2407   -1.5284 C   0  0  0  0  0  0  0  0  0  0  0  0
   -0.6073   -1.3953   -1.2752 O   0  0  0  0  0  0  0  0  0  0  0  0
   -2.5276    0.6894    1.4750 H   0  0  0  0  0  0  0  0  0  0  0  0
   -3.1447    0.7373   -0.7252 H   0  0  0  0  0  0  0  0  0  0  0  0
   -0.7415    0.6337   -1.5093 H   0  0  0  0  0  0  0  0  0  0  0  0
   -1.8285   -0.3356   -2.5318 H   0  0  0  0  0  0  0  0  0  0  0  0
   -1.2048   -2.1585   -1.3212 H   0  0  0  0  0  0  0  0  0  0  0  0
   -3.6710   -1.7257    0.8944 N   0  0  0  0  0  0  0  0  0  0  0  0
   -4.4498   -2.8955    1.2285 C   0  0  2  0  0  0  0  0  0  0  0  0
   -4.1293   -3.9808    0.2092 C   0  0  0  0  0  0  0  0  0  0  0  0
   -3.6758   -3.7393   -0.9076 O   0  0  0  0  0  0  0  0  0  0  0  0
   -5.9383   -2.5842    1.2411 C   0  0  0  0  0  0  0  0  0  0  0  0
   -3.3122   -1.1624    1.6596 H   0  0  0  0  0  0  0  0  0  0  0  0
   -4.1232   -3.2195    2.2227 H   0  0  0  0  0  0  0  0  0  0  0  0
   -6.2839   -2.2579    0.2534 H   0  0  0  0  0  0  0  0  0  0  0  0
   -6.5254   -3.4647    1.5224 H   0  0  0  0  0  0  0  0  0  0  0  0
   -6.1629   -1.7829    1.9533 H   0  0  0  0  0  0  0  0  0  0  0  0
   -4.4497   -5.2474    0.6772 N   0  0  0  0  0  0  0  0  0  0  0  0
   -4.2508   -6.4425   -0.1090 C   0  0  0  0  0  0  0  0  0  0  0  0
   -4.8036   -5.3559    1.6232 H   0  0  0  0  0  0  0  0  0  0  0  0
   -5.1718   -6.6743   -0.6641 H   0  0  0  0  0  0  0  0  0  0  0  0
   -3.4259   -6.2813   -0.8186 H   0  0  0  0  0  0  0  0  0  0  0  0
   -4.0029   -7.2823    0.5568 H   0  0  0  0  0  0  0  0  0  0  0  0
  1  3  1  0  0  0  0
  1  7  1  0  0  0  0
  1  2  2  0  0  0  0
 29 30  1  0  0  0  0
 30 38  1  0  0  0  0
 30 31  2  0  0  0  0
  8  9  1  0  0  0  0
  9 17  1  0  0  0  0
  9 10  2  0  0  0  0
 18 19  1  0  0  0  0
 19 28  1  0  0  0  0
 19 20  2  0  0  0  0
 29 32  1  0  0  0  0
  8 11  1  0  0  0  0
 38 39  1  0  0  0  0
 18 21  1  0  0  0  0
 21 22  1  0  0  0  0
 28 29  1  0  0  0  0
  7  8  1  0  0  0  0
 17 18  1  0  0  0  0
  3  4  1  0  0  0  0
  3  5  1  0  0  0  0
  3  6  1  0  0  0  0
 32 35  1  0  0  0  0
 32 36  1  0  0  0  0
 32 37  1  0  0  0  0
 11 14  1  0  0  0  0
 11 15  1  0  0  0  0
 11 16  1  0  0  0  0
 39 41  1  0  0  0  0
 39 42  1  0  0  0  0
 39 43  1  0  0  0  0
 21 25  1  0  0  0  0
 21 26  1  0  0  0  0
 29 34  1  0  0  0  0
  8 13  1  0  0  0  0
 18 24  1  0  0  0  0
 38 40  1  0  0  0  0
  7 12  1  0  0  0  0
 28 33  1  0  0  0  0
 17 23  1  0  0  0  0
 22 27  1  0  0  0  0
M  END
$$$$

  -OEChem-05262214473D

 43 42  0     1  0  0  0  0  0999 V2000
    0.7424   -1.0926    4.5665 C   0  0  0  0  0  0  0  0  0  0  0  0
    0.1409   -0.5364    5.4779 O   0  0  0  0  0  0  0  0  0  0  0  0
    1.7940   -2.1023    4.8871 C   0  0  0  0  0  0  0  0  0  0  0  0
    2.7935   -1.6502    4.9904 H   0  0  0  0  0  0  0  0  0  0  0  0
    1.6064   -2.6156    5.8438 H   0  0  0  0  0  0  0  0  0  0  0  0
    1.9156   -2.9078    4.1453 H   0  0  0  0  0  0  0  0  0  0  0  0
    0.5488   -0.8838    3.2109 N   0  0  0  0  0  0  0  0  0  0  0  0
   -0.4159    0.0446    2.6829 C   0  0  2  0  0  0  0  0  0  0  0  0
   -0.7551   -0.3867    1.2623 C   0  0  0  0  0  0  0  0  0  0  0  0
   -0.0106   -1.0851    0.5774 O   0  0  0  0  0  0  0  0  0  0  0  0
    0.1168    1.4689    2.7060 C   0  0  0  0  0  0  0  0  0  0  0  0
    1.1183   -1.4145    2.5542 H   0  0  0  0  0  0  0  0  0  0  0  0
   -1.3088   -0.0350    3.3125 H   0  0  0  0  0  0  0  0  0  0  0  0
    1.0116    1.5681    2.0808 H   0  0  0  0  0  0  0  0  0  0  0  0
   -0.6289    2.1775    2.3307 H   0  0  0  0  0  0  0  0  0  0  0  0
    0.3882    1.7670    3.7245 H   0  0  0  0  0  0  0  0  0  0  0  0
   -1.9689    0.1350    0.8298 N   0  0  0  0  0  0  0  0  0  0  0  0
   -2.5039   -0.1183   -0.4830 C   0  0  2  0  0  0  0  0  0  0  0  0
   -3.3649   -1.3748   -0.4128 C   0  0  0  0  0  0  0  0  0  0  0  0
   -3.4868   -2.1568   -1.3535 O   0  0  0  0  0  0  0  0  0  0  0  0
   -1.3999   -0.2407   -1.5284 C   0  0  0  0  0  0  0  0  0  0  0  0
   -0.6073   -1.3953   -1.2752 O   0  0  0  0  0  0  0  0  0  0  0  0
   -2.5276    0.6894    1.4750 H   0  0  0  0  0  0  0  0  0  0  0  0
   -3.1447    0.7373   -0.7252 H   0  0  0  0  0  0  0  0  0  0  0  0
   -0.7415    0.6337   -1.5093 H   0  0  0  0  0  0  0  0  0  0  0  0
   -1.8285   -0.3356   -2.5318 H   0  0  0  0  0  0  0  0  0  0  0  0
   -1.2048   -2.1585   -1.3212 H   0  0  0  0  0  0  0  0  0  0  0  0
   -3.9453   -1.5410    0.8367 N   0  0  0  0  0  0  0  0  0  0  0  0
   -4.7821   -2.6712    1.1665 C   0  0  2  0  0  0  0  0  0  0  0  0
   -4.2551   -3.8834    0.4099 C   0  0  0  0  0  0  0  0  0  0  0  0
   -3.5719   -3.7937   -0.6081 O   0  0  0  0  0  0  0  0  0  0  0  0
   -6.2376   -2.4028    0.8167 C   0  0  0  0  0  0  0  0  0  0  0  0
   -3.7564   -0.8631    1.5691 H   0  0  0  0  0  0  0  0  0  0  0  0
   -4.6773   -2.8386    2.2440 H   0  0  0  0  0  0  0  0  0  0  0  0
   -6.3623   -2.2327   -0.2589 H   0  0  0  0  0  0  0  0  0  0  0  0
   -6.8748   -3.2492    1.0935 H   0  0  0  0  0  0  0  0  0  0  0  0
   -6.6063   -1.5133    1.3388 H   0  0  0  0  0  0  0  0  0  0  0  0
   -4.6733   -5.0773    0.9808 N   0  0  0  0  0  0  0  0  0  0  0  0
   -4.3153   -6.3677    0.4397 C   0  0  0  0  0  0  0  0  0  0  0  0
   -5.2219   -5.0573    1.8354 H   0  0  0  0  0  0  0  0  0  0  0  0
   -5.0969   -6.7029   -0.2579 H   0  0  0  0  0  0  0  0  0  0  0  0
   -3.3569   -6.2881   -0.0943 H   0  0  0  0  0  0  0  0  0  0  0  0
   -4.2191   -7.0949    1.2594 H   0  0  0  0  0  0  0  0  0  0  0  0
  1  3  1  0  0  0  0
  1  7  1  0  0  0  0
  1  2  2  0  0  0  0
 29 30  1  0  0  0  0
 30 38  1  0  0  0  0
 30 31  2  0  0  0  0
  8  9  1  0  0  0  0
  9 17  1  0  0  0  0
  9 10  2  0  0  0  0
 18 19  1  0  0  0  0
 19 28  1  0  0  0  0
 19 20  2  0  0  0  0
 29 32  1  0  0  0  0
  8 11  1  0  0  0  0
 38 39  1  0  0  0  0
 18 21  1  0  0  0  0
 21 22  1  0  0  0  0
 28 29  1  0  0  0  0
  7  8  1  0  0  0  0
 17 18  1  0  0  0  0
  3  4  1  0  0  0  0
  3  5  1  0  0  0  0
  3  6  1  0  0  0  0
 32 35  1  0  0  0  0
 32 36  1  0  0  0  0
 32 37  1  0  0  0  0
 11 14  1  0  0  0  0
 11 15  1  0  0  0  0
 11 16  1  0  0  0  0
 39 41  1  0  0  0  0
 39 42  1  0  0  0  0
 39 43  1  0  0  0  0
 21 25  1  0  0  0  0
 21 26  1  0  0  0  0
 29 34  1  0  0  0  0
  8 13  1  0  0  0  0
 18 24  1  0  0  0  0
 38 40  1  0  0  0  0
  7 12  1  0  0  0  0
 28 33  1  0  0  0  0
 17 23  1  0  0  0  0
 22 27  1  0  0  0  0
M  END
$$$$

  -OEChem-05262214473D

 43 42  0     1  0  0  0  0  0999 V2000
    0.7424   -1.0926    4.5665 C   0  0  0  0  0  0  0  0  0  0  0  0
    0.1409   -0.5364    5.4779 O   0  0  0  0  0  0  0  0  0  0  0  0
    1.7940   -2.1023    4.8871 C   0  0  0  0  0  0  0  0  0  0  0  0
    2.7935   -1.6502    4.9904 H   0  0  0  0  0  0  0  0  0  0  0  0
    1.6064   -2.6156    5.8438 H   0  0  0  0  0  0  0  0  0  0  0  0
    1.9156   -2.9078    4.1453 H   0  0  0  0  0  0  0  0  0  0  0  0
    0.5488   -0.8838    3.2109 N   0  0  0  0  0  0  0  0  0  0  0  0
   -0.4159    0.0446    2.6829 C   0  0  2  0  0  0  0  0  0  0  0  0
   -0.7551   -0.3867    1.2623 C   0  0  0  0  0  0  0  0  0  0  0  0
   -0.0106   -1.0851    0.5774 O   0  0  0  0  0  0  0  0  0  0  0  0
    0.1168    1.4689    2.7060 C   0  0  0  0  0  0  0  0  0  0  0  0
    1.1183   -1.4145    2.5542 H   0  0  0  0  0  0  0  0  0  0  0  0
   -1.3088   -0.0350    3.3125 H   0  0  0  0  0  0  0  0  0  0  0  0
    1.0116    1.5681    2.0808 H   0  0  0  0  0  0  0  0  0  0  0  0
   -0.6289    2.1775    2.3307 H   0  0  0  0  0  0  0  0  0  0  0  0
    0.3882    1.7670    3.7245 H   0  0  0  0  0  0  0  0  0  0  0  0
   -1.9689    0.1350    0.8298 N   0  0  0  0  0  0  0  0  0  0  0  0
   -2.5039   -0.1183   -0.4830 C   0  0  2  0  0  0  0  0  0  0  0  0
   -3.3649   -1.3748   -0.4128 C   0  0  0  0  0  0  0  0  0  0  0  0
   -3.2856   -2.2879   -1.2321 O   0  0  0  0  0  0  0  0  0  0  0  0
   -1.3999   -0.2407   -1.5284 C   0  0  0  0  0  0  0  0  0  0  0  0
   -0.6073   -1.3953   -1.2752 O   0  0  0  0  0  0  0  0  0  0  0  0
   -2.5276    0.6894    1.4750 H   0  0  0  0  0  0  0  0  0  0  0  0
   -3.1447    0.7373   -0.7252 H   0  0  0  0  0  0  0  0  0  0  0  0
   -0.7415    0.6337   -1.5093 H   0  0  0  0  0  0  0  0  0  0  0  0
   -1.8285   -0.3356   -2.5318 H   0  0  0  0  0  0  0  0  0  0  0  0
   -1.2048   -2.1585   -1.3212 H   0  0  0  0  0  0  0  0  0  0  0  0
   -4.2001   -1.3743    0.6954 N   0  0  0  0  0  0  0  0  0  0  0  0
   -5.0926   -2.4676    1.0030 C   0  0  2  0  0  0  0  0  0  0  0  0
   -4.4205   -3.7615    0.5628 C   0  0  0  0  0  0  0  0  0  0  0  0
   -3.5349   -3.8013   -0.2888 O   0  0  0  0  0  0  0  0  0  0  0  0
   -6.4383   -2.2932    0.3164 C   0  0  0  0  0  0  0  0  0  0  0  0
   -4.1698   -0.5924    1.3431 H   0  0  0  0  0  0  0  0  0  0  0  0
   -5.2216   -2.4742    2.0908 H   0  0  0  0  0  0  0  0  0  0  0  0
   -6.3291   -2.2843   -0.7743 H   0  0  0  0  0  0  0  0  0  0  0  0
   -7.1233   -3.1080    0.5732 H   0  0  0  0  0  0  0  0  0  0  0  0
   -6.9067   -1.3480    0.6113 H   0  0  0  0  0  0  0  0  0  0  0  0
   -4.9560   -4.8712    1.2015 N   0  0  0  0  0  0  0  0  0  0  0  0
   -4.4955   -6.2159    0.9451 C   0  0  0  0  0  0  0  0  0  0  0  0
   -5.6748   -4.7429    1.9075 H   0  0  0  0  0  0  0  0  0  0  0  0
   -5.1109   -6.6703    0.1546 H   0  0  0  0  0  0  0  0  0  0  0  0
   -3.4447   -6.1880    0.6210 H   0  0  0  0  0  0  0  0  0  0  0  0
   -4.5800   -6.8138    1.8645 H   0  0  0  0  0  0  0  0  0  0  0  0
  1  3  1  0  0  0  0
  1  7  1  0  0  0  0
  1  2  2  0  0  0  0
 29 30  1  0  0  0  0
 30 38  1  0  0  0  0
 30 31  2  0  0  0  0
  8  9  1  0  0  0  0
  9 17  1  0  0  0  0
  9 10  2  0  0  0  0
 18 19  1  0  0  0  0
 19 28  1  0  0  0  0
 19 20  2  0  0  0  0
 29 32  1  0  0  0  0
  8 11  1  0  0  0  0
 38 39  1  0  0  0  0
 18 21  1  0  0  0  0
 21 22  1  0  0  0  0
 28 29  1  0  0  0  0
  7  8  1  0  0  0  0
 17 18  1  0  0  0  0
  3  4  1  0  0  0  0
  3  5  1  0  0  0  0
  3  6  1  0  0  0  0
 32 35  1  0  0  0  0
 32 36  1  0  0  0  0
 32 37  1  0  0  0  0
 11 14  1  0  0  0  0
 11 15  1  0  0  0  0
 11 16  1  0  0  0  0
 39 41  1  0  0  0  0
 39 42  1  0  0  0  0
 39 43  1  0  0  0  0
 21 25  1  0  0  0  0
 21 26  1  0  0  0  0
 29 34  1  0  0  0  0
  8 13  1  0  0  0  0
 18 24  1  0  0  0  0
 38 40  1  0  0  0  0
  7 12  1  0  0  0  0
 28 33  1  0  0  0  0
 17 23  1  0  0  0  0
 22 27  1  0  0  0  0
M  END
$$$$

  -OEChem-05262214473D

 43 42  0     1  0  0  0  0  0999 V2000
    0.7424   -1.0926    4.5665 C   0  0  0  0  0  0  0  0  0  0  0  0
    0.1409   -0.5364    5.4779 O   0  0  0  0  0  0  0  0  0  0  0  0
    1.7940   -2.1023    4.8871 C   0  0  0  0  0  0  0  0  0  0  0  0
    2.7935   -1.6502    4.9904 H   0  0  0  0  0  0  0  0  0  0  0  0
    1.6064   -2.6156    5.8438 H   0  0  0  0  0  0  0  0  0  0  0  0
    1.9156   -2.9078    4.1453 H   0  0  0  0  0  0  0  0  0  0  0  0
    0.5488   -0.8838    3.2109 N   0  0  0  0  0  0  0  0  0  0  0  0
   -0.4159    0.0446    2.6829 C   0  0  2  0  0  0  0  0  0  0  0  0
   -0.7551   -0.3867    1.2623 C   0  0  0  0  0  0  0  0  0  0  0  0
   -0.0106   -1.0851    0.5774 O   0  0  0  0  0  0  0  0  0  0  0  0
    0.1168    1.4689    2.7060 C   0  0  0  0  0  0  0  0  0  0  0  0
    1.1183   -1.4145    2.5542 H   0  0  0  0  0  0  0  0  0  0  0  0
   -1.3088   -0.0350    3.3125 H   0  0  0  0  0  0  0  0  0  0  0  0
    1.0116    1.5681    2.0808 H   0  0  0  0  0  0  0  0  0  0  0  0
   -0.6289    2.1775    2.3307 H   0  0  0  0  0  0  0  0  0  0  0  0
    0.3882    1.7670    3.7245 H   0  0  0  0  0  0  0  0  0  0  0  0
   -1.9689    0.1350    0.8298 N   0  0  0  0  0  0  0  0  0  0  0  0
   -2.5039   -0.1183   -0.4830 C   0  0  2  0  0  0  0  0  0  0  0  0
   -3.3649   -1.3748   -0.4128 C   0  0  0  0  0  0  0  0  0  0  0  0
   -3.1156   -2.3943   -1.0527 O   0  0  0  0  0  0  0  0  0  0  0  0
   -1.3999   -0.2407   -1.5284 C   0  0  0  0  0  0  0  0  0  0  0  0
   -0.6073   -1.3953   -1.2752 O   0  0  0  0  0  0  0  0  0  0  0  0
   -2.5276    0.6894    1.4750 H   0  0  0  0  0  0  0  0  0  0  0  0
   -3.1447    0.7373   -0.7252 H   0  0  0  0  0  0  0  0  0  0  0  0
   -0.7415    0.6337   -1.5093 H   0  0  0  0  0  0  0  0  0  0  0  0
   -1.8285   -0.3356   -2.5318 H   0  0  0  0  0  0  0  0  0  0  0  0
   -1.2048   -2.1585   -1.3212 H   0  0  0  0  0  0  0  0  0  0  0  0
   -4.4180   -1.2369    0.4803 N   0  0  0  0  0  0  0  0  0  0  0  0
   -5.3600   -2.2985    0.7490 C   0  0  2  0  0  0  0  0  0  0  0  0
   -4.6144   -3.6233    0.6573 C   0  0  0  0  0  0  0  0  0  0  0  0
   -3.5671   -3.7615    0.0287 O   0  0  0  0  0  0  0  0  0  0  0  0
   -6.5267   -2.2629   -0.2257 C   0  0  0  0  0  0  0  0  0  0  0  0
   -4.5240   -0.3690    0.9971 H   0  0  0  0  0  0  0  0  0  0  0  0
   -5.7190   -2.1510    1.7734 H   0  0  0  0  0  0  0  0  0  0  0  0
   -6.1865   -2.4090   -1.2574 H   0  0  0  0  0  0  0  0  0  0  0  0
   -7.2541   -3.0505   -0.0030 H   0  0  0  0  0  0  0  0  0  0  0  0
   -7.0437   -1.2983   -0.1797 H   0  0  0  0  0  0  0  0  0  0  0  0
   -5.2785   -4.6433    1.3242 N   0  0  0  0  0  0  0  0  0  0  0  0
   -4.7792   -5.9976    1.3726 C   0  0  0  0  0  0  0  0  0  0  0  0
   -6.1314   -4.4341    1.8347 H   0  0  0  0  0  0  0  0  0  0  0  0
   -5.2129   -6.5787    0.5453 H   0  0  0  0  0  0  0  0  0  0  0  0
   -3.6833   -5.9878    1.2786 H   0  0  0  0  0  0  0  0  0  0  0  0
   -5.0609   -6.4581    2.3310 H   0  0  0  0  0  0  0  0  0  0  0  0
  1  3  1  0  0  0  0
  1  7  1  0  0  0  0
  1  2  2  0  0  0  0
 29 30  1  0  0  0  0
 30 38  1  0  0  0  0
 30 31  2  0  0  0  0
  8  9  1  0  0  0  0
  9 17  1  0  0  0  0
  9 10  2  0  0  0  0
 18 19  1  0  0  0  0
 19 28  1  0  0  0  0
 19 20  2  0  0  0  0
 29 32  1  0  0  0  0
  8 11  1  0  0  0  0
 38 39  1  0  0  0  0
 18 21  1  0  0  0  0
 21 22  1  0  0  0  0
 28 29  1  0  0  0  0
  7  8  1  0  0  0  0
 17 18  1  0  0  0  0
  3  4  1  0  0  0  0
  3  5  1  0  0  0  0
  3  6  1  0  0  0  0
 32 35  1  0  0  0  0
 32 36  1  0  0  0  0
 32 37  1  0  0  0  0
 11 14  1  0  0  0  0
 11 15  1  0  0  0  0
 11 16  1  0  0  0  0
 39 41  1  0  0  0  0
 39 42  1  0  0  0  0
 39 43  1  0  0  0  0
 21 25  1  0  0  0  0
 21 26  1  0  0  0  0
 29 34  1  0  0  0  0
  8 13  1  0  0  0  0
 18 24  1  0  0  0  0
 38 40  1  0  0  0  0
  7 12  1  0  0  0  0
 28 33  1  0  0  0  0
 17 23  1  0  0  0  0
 22 27  1  0  0  0  0
M  END
$$$$

  -OEChem-05262214473D

 43 42  0     1  0  0  0  0  0999 V2000
    0.7424   -1.0926    4.5665 C   0  0  0  0  0  0  0  0  0  0  0  0
    0.1409   -0.5364    5.4779 O   0  0  0  0  0  0  0  0  0  0  0  0
    1.7940   -2.1023    4.8871 C   0  0  0  0  0  0  0  0  0  0  0  0
    2.7935   -1.6502    4.9904 H   0  0  0  0  0  0  0  0  0  0  0  0
    1.6064   -2.6156    5.8438 H   0  0  0  0  0  0  0  0  0  0  0  0
    1.9156   -2.9078    4.1453 H   0  0  0  0  0  0  0  0  0  0  0  0
    0.5488   -0.8838    3.2109 N   0  0  0  0  0  0  0  0  0  0  0  0
   -0.4159    0.0446    2.6829 C   0  0  2  0  0  0  0  0  0  0  0  0
   -0.7551   -0.3867    1.2623 C   0  0  0  0  0  0  0  0  0  0  0  0
   -0.0106   -1.0851    0.5774 O   0  0  0  0  0  0  0  0  0  0  0  0
    0.1168    1.4689    2.7060 C   0  0  0  0  0  0  0  0  0  0  0  0
    1.1183   -1.4145    2.5542 H   0  0  0  0  0  0  0  0  0  0  0  0
   -1.3088   -0.0350    3.3125 H   0  0  0  0  0  0  0  0  0  0  0  0
    1.0116    1.5681    2.0808 H   0  0  0  0  0  0  0  0  0  0  0  0
   -0.6289    2.1775    2.3307 H   0  0  0  0  0  0  0  0  0  0  0  0
    0.3882    1.7670    3.7245 H   0  0  0  0  0  0  0  0  0  0  0  0
   -1.9689    0.1350    0.8298 N   0  0  0  0  0  0  0  0  0  0  0  0
   -2.5039   -0.1183   -0.4830 C   0  0  2  0  0  0  0  0  0  0  0  0
   -3.3649   -1.3748   -0.4128 C   0  0  0  0  0  0  0  0  0  0  0  0
   -2.9884   -2.4690   -0.8277 O   0  0  0  0  0  0  0  0  0  0  0  0
   -1.3999   -0.2407   -1.5284 C   0  0  0  0  0  0  0  0  0  0  0  0
   -0.6073   -1.3953   -1.2752 O   0  0  0  0  0  0  0  0  0  0  0  0
   -2.5276    0.6894    1.4750 H   0  0  0  0  0  0  0  0  0  0  0  0
   -3.1447    0.7373   -0.7252 H   0  0  0  0  0  0  0  0  0  0  0  0
   -0.7415    0.6337   -1.5093 H   0  0  0  0  0  0  0  0  0  0  0  0
   -1.8285   -0.3356   -2.5318 H   0  0  0  0  0  0  0  0  0  0  0  0
   -1.2048   -2.1585   -1.3212 H   0  0  0  0  0  0  0  0  0  0  0  0
   -4.5843   -1.1383    0.2060 N   0  0  0  0  0  0  0  0  0  0  0  0
   -5.5662   -2.1755    0.4220 C   0  0  2  0  0  0  0  0  0  0  0  0
   -4.8234   -3.4784    0.6871 C   0  0  0  0  0  0  0  0  0  0  0  0
   -3.6664   -3.6770    0.3227 O   0  0  0  0  0  0  0  0  0  0  0  0
   -6.4969   -2.3139   -0.7727 C   0  0  0  0  0  0  0  0  0  0  0  0
   -4.7951   -0.2079    0.5547 H   0  0  0  0  0  0  0  0  0  0  0  0
   -6.1357   -1.8912    1.3136 H   0  0  0  0  0  0  0  0  0  0  0  0
   -5.9442   -2.5984   -1.6755 H   0  0  0  0  0  0  0  0  0  0  0  0
   -7.2582   -3.0808   -0.5958 H   0  0  0  0  0  0  0  0  0  0  0  0
   -7.0080   -1.3675   -0.9802 H   0  0  0  0  0  0  0  0  0  0  0  0
   -5.6190   -4.4090    1.3406 N   0  0  0  0  0  0  0  0  0  0  0  0
   -5.1470   -5.7277    1.6931 C   0  0  0  0  0  0  0  0  0  0  0  0
   -6.5606   -4.1518    1.6218 H   0  0  0  0  0  0  0  0  0  0  0  0
   -5.3957   -6.4342    0.8876 H   0  0  0  0  0  0  0  0  0  0  0  0
   -4.0563   -5.7012    1.8337 H   0  0  0  0  0  0  0  0  0  0  0  0
   -5.6293   -6.0521    2.6270 H   0  0  0  0  0  0  0  0  0  0  0  0
  1  3  1  0  0  0  0
  1  7  1  0  0  0  0
  1  2  2  0  0  0  0
 29 30  1  0  0  0  0
 30 38  1  0  0  0  0
 30 31  2  0  0  0  0
  8  9  1  0  0  0  0
  9 17  1  0  0  0  0
  9 10  2  0  0  0  0
 18 19  1  0  0  0  0
 19 28  1  0  0  0  0
 19 20  2  0  0  0  0
 29 32  1  0  0  0  0
  8 11  1  0  0  0  0
 38 39  1  0  0  0  0
 18 21  1  0  0  0  0
 21 22  1  0  0  0  0
 28 29  1  0  0  0  0
  7  8  1  0  0  0  0
 17 18  1  0  0  0  0
  3  4  1  0  0  0  0
  3  5  1  0  0  0  0
  3  6  1  0  0  0  0
 32 35  1  0  0  0  0
 32 36  1  0  0  0  0
 32 37  1  0  0  0  0
 11 14  1  0  0  0  0
 11 15  1  0  0  0  0
 11 16  1  0  0  0  0
 39 41  1  0  0  0  0
 39 42  1  0  0  0  0
 39 43  1  0  0  0  0
 21 25  1  0  0  0  0
 21 26  1  0  0  0  0
 29 34  1  0  0  0  0
  8 13  1  0  0  0  0
 18 24  1  0  0  0  0
 38 40  1  0  0  0  0
  7 12  1  0  0  0  0
 28 33  1  0  0  0  0
 17 23  1  0  0  0  0
 22 27  1  0  0  0  0
M  END
$$$$

  -OEChem-05262214473D

 43 42  0     1  0  0  0  0  0999 V2000
    0.7424   -1.0926    4.5665 C   0  0  0  0  0  0  0  0  0  0  0  0
    0.1409   -0.5364    5.4779 O   0  0  0  0  0  0  0  0  0  0  0  0
    1.7940   -2.1023    4.8871 C   0  0  0  0  0  0  0  0  0  0  0  0
    2.7935   -1.6502    4.9904 H   0  0  0  0  0  0  0  0  0  0  0  0
    1.6064   -2.6156    5.8438 H   0  0  0  0  0  0  0  0  0  0  0  0
    1.9156   -2.9078    4.1453 H   0  0  0  0  0  0  0  0  0  0  0  0
    0.5488   -0.8838    3.2109 N   0  0  0  0  0  0  0  0  0  0  0  0
   -0.4159    0.0446    2.6829 C   0  0  2  0  0  0  0  0  0  0  0  0
   -0.7551   -0.3867    1.2623 C   0  0  0  0  0  0  0  0  0  0  0  0
   -0.0106   -1.0851    0.5774 O   0  0  0  0  0  0  0  0  0  0  0  0
    0.1168    1.4689    2.7060 C   0  0  0  0  0  0  0  0  0  0  0  0
    1.1183   -1.4145    2.5542 H   0  0  0  0  0  0  0  0  0  0  0  0
   -1.3088   -0.0350    3.3125 H   0  0  0  0  0  0  0  0  0  0  0  0
    1.0116    1.5681    2.0808 H   0  0  0  0  0  0  0  0  0  0  0  0
   -0.6289    2.1775    2.3307 H   0  0  0  0  0  0  0  0  0  0  0  0
    0.3882    1.7670    3.7245 H   0  0  0  0  0  0  0  0  0  0  0  0
   -1.9689    0.1350    0.8298 N   0  0  0  0  0  0  0  0  0  0  0  0
   -2.5039   -0.1183   -0.4830 C   0  0  2  0  0  0  0  0  0  0  0  0
   -3.3649   -1.3748   -0.4128 C   0  0  0  0  0  0  0  0  0  0  0  0
   -2.9126   -2.5066   -0.5723 O   0  0  0  0  0  0  0  0  0  0  0  0
   -1.3999   -0.2407   -1.5284 C   0  0  0  0  0  0  0  0  0  0  0  0
   -0.6073   -1.3953   -1.2752 O   0  0  0  0  0  0  0  0  0  0  0  0
   -2.5276    0.6894    1.4750 H   0  0  0  0  0  0  0  0  0  0  0  0
   -3.1447    0.7373   -0.7252 H   0  0  0  0  0  0  0  0  0  0  0  0
   -0.7415    0.6337   -1.5093 H   0  0  0  0  0  0  0  0  0  0  0  0
   -1.8285   -0.3356   -2.5318 H   0  0  0  0  0  0  0  0  0  0  0  0
   -1.2048   -2.1585   -1.3212 H   0  0  0  0  0  0  0  0  0  0  0  0
   -4.6876   -1.0851   -0.1089 N   0  0  0  0  0  0  0  0  0  0  0  0
   -5.6970   -2.1069    0.0442 C   0  0  2  0  0  0  0  0  0  0  0  0
   -5.0334   -3.3365    0.6501 C   0  0  0  0  0  0  0  0  0  0  0  0
   -3.8260   -3.5537    0.5731 O   0  0  0  0  0  0  0  0  0  0  0  0
   -6.3509   -2.4427   -1.2872 C   0  0  0  0  0  0  0  0  0  0  0  0
   -4.9645   -0.1202    0.0460 H   0  0  0  0  0  0  0  0  0  0  0  0
   -6.4431   -1.7123    0.7425 H   0  0  0  0  0  0  0  0  0  0  0  0
   -5.6188   -2.8395   -1.9999 H   0  0  0  0  0  0  0  0  0  0  0  0
   -7.1354   -3.1967   -1.1649 H   0  0  0  0  0  0  0  0  0  0  0  0
   -6.8019   -1.5509   -1.7357 H   0  0  0  0  0  0  0  0  0  0  0  0
   -5.9542   -4.1844    1.2497 N   0  0  0  0  0  0  0  0  0  0  0  0
   -5.5738   -5.4245    1.8849 C   0  0  0  0  0  0  0  0  0  0  0  0
   -6.9331   -3.9154    1.2833 H   0  0  0  0  0  0  0  0  0  0  0  0
   -5.6470   -6.2469    1.1580 H   0  0  0  0  0  0  0  0  0  0  0  0
   -4.5385   -5.3476    2.2484 H   0  0  0  0  0  0  0  0  0  0  0  0
   -6.2462   -5.6235    2.7324 H   0  0  0  0  0  0  0  0  0  0  0  0
  1  3  1  0  0  0  0
  1  7  1  0  0  0  0
  1  2  2  0  0  0  0
 29 30  1  0  0  0  0
 30 38  1  0  0  0  0
 30 31  2  0  0  0  0
  8  9  1  0  0  0  0
  9 17  1  0  0  0  0
  9 10  2  0  0  0  0
 18 19  1  0  0  0  0
 19 28  1  0  0  0  0
 19 20  2  0  0  0  0
 29 32  1  0  0  0  0
  8 11  1  0  0  0  0
 38 39  1  0  0  0  0
 18 21  1  0  0  0  0
 21 22  1  0  0  0  0
 28 29  1  0  0  0  0
  7  8  1  0  0  0  0
 17 18  1  0  0  0  0
  3  4  1  0  0  0  0
  3  5  1  0  0  0  0
  3  6  1  0  0  0  0
 32 35  1  0  0  0  0
 32 36  1  0  0  0  0
 32 37  1  0  0  0  0
 11 14  1  0  0  0  0
 11 15  1  0  0  0  0
 11 16  1  0  0  0  0
 39 41  1  0  0  0  0
 39 42  1  0  0  0  0
 39 43  1  0  0  0  0
 21 25  1  0  0  0  0
 21 26  1  0  0  0  0
 29 34  1  0  0  0  0
  8 13  1  0  0  0  0
 18 24  1  0  0  0  0
 38 40  1  0  0  0  0
  7 12  1  0  0  0  0
 28 33  1  0  0  0  0
 17 23  1  0  0  0  0
 22 27  1  0  0  0  0
M  END
$$$$

  -OEChem-05262214473D

 43 42  0     1  0  0  0  0  0999 V2000
    0.7424   -1.0926    4.5665 C   0  0  0  0  0  0  0  0  0  0  0  0
    0.1409   -0.5364    5.4779 O   0  0  0  0  0  0  0  0  0  0  0  0
    1.7940   -2.1023    4.8871 C   0  0  0  0  0  0  0  0  0  0  0  0
    2.7935   -1.6502    4.9904 H   0  0  0  0  0  0  0  0  0  0  0  0
    1.6064   -2.6156    5.8438 H   0  0  0  0  0  0  0  0  0  0  0  0
    1.9156   -2.9078    4.1453 H   0  0  0  0  0  0  0  0  0  0  0  0
    0.5488   -0.8838    3.2109 N   0  0  0  0  0  0  0  0  0  0  0  0
   -0.4159    0.0446    2.6829 C   0  0  2  0  0  0  0  0  0  0  0  0
   -0.7551   -0.3867    1.2623 C   0  0  0  0  0  0  0  0  0  0  0  0
   -0.0106   -1.0851    0.5774 O   0  0  0  0  0  0  0  0  0  0  0  0
    0.1168    1.4689    2.7060 C   0  0  0  0  0  0  0  0  0  0  0  0
    1.1183   -1.4145    2.5542 H   0  0  0  0  0  0  0  0  0  0  0  0
   -1.3088   -0.0350    3.3125 H   0  0  0  0  0  0  0  0  0  0  0  0
    1.0116    1.5681    2.0808 H   0  0  0  0  0  0  0  0  0  0  0  0
   -0.6289    2.1775    2.3307 H   0  0  0  0  0  0  0  0  0  0  0  0
    0.3882    1.7670    3.7245 H   0  0  0  0  0  0  0  0  0  0  0  0
   -1.9689    0.1350    0.8298 N   0  0  0  0  0  0  0  0  0  0  0  0
   -2.5039   -0.1183   -0.4830 C   0  0  2  0  0  0  0  0  0  0  0  0
   -3.3649   -1.3748   -0.4128 C   0  0  0  0  0  0  0  0  0  0  0  0
   -2.8934   -2.5048   -0.3039 O   0  0  0  0  0  0  0  0  0  0  0  0
   -1.3999   -0.2407   -1.5284 C   0  0  0  0  0  0  0  0  0  0  0  0
   -0.6073   -1.3953   -1.2752 O   0  0  0  0  0  0  0  0  0  0  0  0
   -2.5276    0.6894    1.4750 H   0  0  0  0  0  0  0  0  0  0  0  0
   -3.1447    0.7373   -0.7252 H   0  0  0  0  0  0  0  0  0  0  0  0
   -0.7415    0.6337   -1.5093 H   0  0  0  0  0  0  0  0  0  0  0  0
   -1.8285   -0.3356   -2.5318 H   0  0  0  0  0  0  0  0  0  0  0  0
   -1.2048   -2.1585   -1.3212 H   0  0  0  0  0  0  0  0  0  0  0  0
   -4.7209   -1.0810   -0.4429 N   0  0  0  0  0  0  0  0  0  0  0  0
   -5.7437   -2.0975   -0.3587 C   0  0  2  0  0  0  0  0  0  0  0  0
   -5.2301   -3.2074    0.5489 C   0  0  0  0  0  0  0  0  0  0  0  0
   -4.0350   -3.3998    0.7629 O   0  0  0  0  0  0  0  0  0  0  0  0
   -6.0986   -2.6405   -1.7342 C   0  0  0  0  0  0  0  0  0  0  0  0
   -5.0207   -0.1119   -0.4944 H   0  0  0  0  0  0  0  0  0  0  0  0
   -6.6205   -1.6267    0.0993 H   0  0  0  0  0  0  0  0  0  0  0  0
   -5.2324   -3.1160   -2.2087 H   0  0  0  0  0  0  0  0  0  0  0  0
   -6.8941   -3.3904   -1.6715 H   0  0  0  0  0  0  0  0  0  0  0  0
   -6.4395   -1.8361   -2.3947 H   0  0  0  0  0  0  0  0  0  0  0  0
   -6.2613   -3.9847    1.0575 N   0  0  0  0  0  0  0  0  0  0  0  0
   -6.0306   -5.1087    1.9347 C   0  0  0  0  0  0  0  0  0  0  0  0
   -7.2236   -3.7410    0.8425 H   0  0  0  0  0  0  0  0  0  0  0  0
   -5.9497   -6.0294    1.3383 H   0  0  0  0  0  0  0  0  0  0  0  0
   -5.0968   -4.9512    2.4944 H   0  0  0  0  0  0  0  0  0  0  0  0
   -6.8697   -5.2014    2.6400 H   0  0  0  0  0  0  0  0  0  0  0  0
  1  3  1  0  0  0  0
  1  7  1  0  0  0  0
  1  2  2  0  0  0  0
 29 30  1  0  0  0  0
 30 38  1  0  0  0  0
 30 31  2  0  0  0  0
  8  9  1  0  0  0  0
  9 17  1  0  0  0  0
  9 10  2  0  0  0  0
 18 19  1  0  0  0  0
 19 28  1  0  0  0  0
 19 20  2  0  0  0  0
 29 32  1  0  0  0  0
  8 11  1  0  0  0  0
 38 39  1  0  0  0  0
 18 21  1  0  0  0  0
 21 22  1  0  0  0  0
 28 29  1  0  0  0  0
  7  8  1  0  0  0  0
 17 18  1  0  0  0  0
  3  4  1  0  0  0  0
  3  5  1  0  0  0  0
  3  6  1  0  0  0  0
 32 35  1  0  0  0  0
 32 36  1  0  0  0  0
 32 37  1  0  0  0  0
 11 14  1  0  0  0  0
 11 15  1  0  0  0  0
 11 16  1  0  0  0  0
 39 41  1  0  0  0  0
 39 42  1  0  0  0  0
 39 43  1  0  0  0  0
 21 25  1  0  0  0  0
 21 26  1  0  0  0  0
 29 34  1  0  0  0  0
  8 13  1  0  0  0  0
 18 24  1  0  0  0  0
 38 40  1  0  0  0  0
  7 12  1  0  0  0  0
 28 33  1  0  0  0  0
 17 23  1  0  0  0  0
 22 27  1  0  0  0  0
M  END
$$$$

  -OEChem-05262214473D

 43 42  0     1  0  0  0  0  0999 V2000
    0.7424   -1.0926    4.5665 C   0  0  0  0  0  0  0  0  0  0  0  0
    0.1409   -0.5364    5.4779 O   0  0  0  0  0  0  0  0  0  0  0  0
    1.7940   -2.1023    4.8871 C   0  0  0  0  0  0  0  0  0  0  0  0
    2.7935   -1.6502    4.9904 H   0  0  0  0  0  0  0  0  0  0  0  0
    1.6064   -2.6156    5.8438 H   0  0  0  0  0  0  0  0  0  0  0  0
    1.9156   -2.9078    4.1453 H   0  0  0  0  0  0  0  0  0  0  0  0
    0.5488   -0.8838    3.2109 N   0  0  0  0  0  0  0  0  0  0  0  0
   -0.4159    0.0446    2.6829 C   0  0  2  0  0  0  0  0  0  0  0  0
   -0.7551   -0.3867    1.2623 C   0  0  0  0  0  0  0  0  0  0  0  0
   -0.0106   -1.0851    0.5774 O   0  0  0  0  0  0  0  0  0  0  0  0
    0.1168    1.4689    2.7060 C   0  0  0  0  0  0  0  0  0  0  0  0
    1.1183   -1.4145    2.5542 H   0  0  0  0  0  0  0  0  0  0  0  0
   -1.3088   -0.0350    3.3125 H   0  0  0  0  0  0  0  0  0  0  0  0
    1.0116    1.5681    2.0808 H   0  0  0  0  0  0  0  0  0  0  0  0
   -0.6289    2.1775    2.3307 H   0  0  0  0  0  0  0  0  0  0  0  0
    0.3882    1.7670    3.7245 H   0  0  0  0  0  0  0  0  0  0  0  0
   -1.9689    0.1350    0.8298 N   0  0  0  0  0  0  0  0  0  0  0  0
   -2.5039   -0.1183   -0.4830 C   0  0  2  0  0  0  0  0  0  0  0  0
   -3.3649   -1.3748   -0.4128 C   0  0  0  0  0  0  0  0  0  0  0  0
   -2.9322   -2.4636   -0.0408 O   0  0  0  0  0  0  0  0  0  0  0  0
   -1.3999   -0.2407   -1.5284 C   0  0  0  0  0  0  0  0  0  0  0  0
   -0.6073   -1.3953   -1.2752 O   0  0  0  0  0  0  0  0  0  0  0  0
   -2.5276    0.6894    1.4750 H   0  0  0  0  0  0  0  0  0  0  0  0
   -3.1447    0.7373   -0.7252 H   0  0  0  0  0  0  0  0  0  0  0  0
   -0.7415    0.6337   -1.5093 H   0  0  0  0  0  0  0  0  0  0  0  0
   -1.8285   -0.3356   -2.5318 H   0  0  0  0  0  0  0  0  0  0  0  0
   -1.2048   -2.1585   -1.3212 H   0  0  0  0  0  0  0  0  0  0  0  0
   -4.6818   -1.1262   -0.7731 N   0  0  0  0  0  0  0  0  0  0  0  0
   -5.7029   -2.1478   -0.7592 C   0  0  2  0  0  0  0  0  0  0  0  0
   -5.4000   -3.0998    0.3903 C   0  0  0  0  0  0  0  0  0  0  0  0
   -4.2793   -3.2259    0.8792 O   0  0  0  0  0  0  0  0  0  0  0  0
   -5.7571   -2.8940   -2.0832 C   0  0  0  0  0  0  0  0  0  0  0  0
   -4.9598   -0.1835   -1.0294 H   0  0  0  0  0  0  0  0  0  0  0  0
   -6.6556   -1.6402   -0.5724 H   0  0  0  0  0  0  0  0  0  0  0  0
   -4.8113   -3.4089   -2.2875 H   0  0  0  0  0  0  0  0  0  0  0  0
   -6.5506   -3.6487   -2.0811 H   0  0  0  0  0  0  0  0  0  0  0  0
   -5.9455   -2.2035   -2.9123 H   0  0  0  0  0  0  0  0  0  0  0  0
   -6.5192   -3.8236    0.7772 N   0  0  0  0  0  0  0  0  0  0  0  0
   -6.4862   -4.8018    1.8393 C   0  0  0  0  0  0  0  0  0  0  0  0
   -7.4122   -3.6404    0.3291 H   0  0  0  0  0  0  0  0  0  0  0  0
   -6.2831   -5.7966    1.4161 H   0  0  0  0  0  0  0  0  0  0  0  0
   -5.6934   -4.5391    2.5551 H   0  0  0  0  0  0  0  0  0  0  0  0
   -7.4572   -4.8146    2.3561 H   0  0  0  0  0  0  0  0  0  0  0  0
  1  3  1  0  0  0  0
  1  7  1  0  0  0  0
  1  2  2  0  0  0  0
 29 30  1  0  0  0  0
 30 38  1  0  0  0  0
 30 31  2  0  0  0  0
  8  9  1  0  0  0  0
  9 17  1  0  0  0  0
  9 10  2  0  0  0  0
 18 19  1  0  0  0  0
 19 28  1  0  0  0  0
 19 20  2  0  0  0  0
 29 32  1  0  0  0  0
  8 11  1  0  0  0  0
 38 39  1  0  0  0  0
 18 21  1  0  0  0  0
 21 22  1  0  0  0  0
 28 29  1  0  0  0  0
  7  8  1  0  0  0  0
 17 18  1  0  0  0  0
  3  4  1  0  0  0  0
  3  5  1  0  0  0  0
  3  6  1  0  0  0  0
 32 35  1  0  0  0  0
 32 36  1  0  0  0  0
 32 37  1  0  0  0  0
 11 14  1  0  0  0  0
 11 15  1  0  0  0  0
 11 16  1  0  0  0  0
 39 41  1  0  0  0  0
 39 42  1  0  0  0  0
 39 43  1  0  0  0  0
 21 25  1  0  0  0  0
 21 26  1  0  0  0  0
 29 34  1  0  0  0  0
  8 13  1  0  0  0  0
 18 24  1  0  0  0  0
 38 40  1  0  0  0  0
  7 12  1  0  0  0  0
 28 33  1  0  0  0  0
 17 23  1  0  0  0  0
 22 27  1  0  0  0  0
M  END
$$$$

  -OEChem-05262214473D

 43 42  0     1  0  0  0  0  0999 V2000
    0.7424   -1.0926    4.5665 C   0  0  0  0  0  0  0  0  0  0  0  0
    0.1409   -0.5364    5.4779 O   0  0  0  0  0  0  0  0  0  0  0  0
    1.7940   -2.1023    4.8871 C   0  0  0  0  0  0  0  0  0  0  0  0
    2.7935   -1.6502    4.9904 H   0  0  0  0  0  0  0  0  0  0  0  0
    1.6064   -2.6156    5.8438 H   0  0  0  0  0  0  0  0  0  0  0  0
    1.9156   -2.9078    4.1453 H   0  0  0  0  0  0  0  0  0  0  0  0
    0.5488   -0.8838    3.2109 N   0  0  0  0  0  0  0  0  0  0  0  0
   -0.4159    0.0446    2.6829 C   0  0  2  0  0  0  0  0  0  0  0  0
   -0.7551   -0.3867    1.2623 C   0  0  0  0  0  0  0  0  0  0  0  0
   -0.0106   -1.0851    0.5774 O   0  0  0  0  0  0  0  0  0  0  0  0
    0.1168    1.4689    2.7060 C   0  0  0  0  0  0  0  0  0  0  0  0
    1.1183   -1.4145    2.5542 H   0  0  0  0  0  0  0  0  0  0  0  0
   -1.3088   -0.0350    3.3125 H   0  0  0  0  0  0  0  0  0  0  0  0
    1.0116    1.5681    2.0808 H   0  0  0  0  0  0  0  0  0  0  0  0
   -0.6289    2.1775    2.3307 H   0  0  0  0  0  0  0  0  0  0  0  0
    0.3882    1.7670    3.7245 H   0  0  0  0  0  0  0  0  0  0  0  0
   -1.9689    0.1350    0.8298 N   0  0  0  0  0  0  0  0  0  0  0  0
   -2.5039   -0.1183   -0.4830 C   0  0  2  0  0  0  0  0  0  0  0  0
   -3.3649   -1.3748   -0.4128 C   0  0  0  0  0  0  0  0  0  0  0  0
   -3.0262   -2.3857    0.1990 O   0  0  0  0  0  0  0  0  0  0  0  0
   -1.3999   -0.2407   -1.5284 C   0  0  0  0  0  0  0  0  0  0  0  0
   -0.6073   -1.3953   -1.2752 O   0  0  0  0  0  0  0  0  0  0  0  0
   -2.5276    0.6894    1.4750 H   0  0  0  0  0  0  0  0  0  0  0  0
   -3.1447    0.7373   -0.7252 H   0  0  0  0  0  0  0  0  0  0  0  0
   -0.7415    0.6337   -1.5093 H   0  0  0  0  0  0  0  0  0  0  0  0
   -1.8285   -0.3356   -2.5318 H   0  0  0  0  0  0  0  0  0  0  0  0
   -1.2048   -2.1585   -1.3212 H   0  0  0  0  0  0  0  0  0  0  0  0
   -4.5731   -1.2176   -1.0772 N   0  0  0  0  0  0  0  0  0  0  0  0
   -5.5775   -2.2544   -1.1300 C   0  0  2  0  0  0  0  0  0  0  0  0
   -5.5316   -3.0211    0.1851 C   0  0  0  0  0  0  0  0  0  0  0  0
   -4.5420   -3.0439    0.9140 O   0  0  0  0  0  0  0  0  0  0  0  0
   -5.3499   -3.1858   -2.3104 C   0  0  0  0  0  0  0  0  0  0  0  0
   -4.7861   -0.3301   -1.5229 H   0  0  0  0  0  0  0  0  0  0  0  0
   -6.5461   -1.7518   -1.2267 H   0  0  0  0  0  0  0  0  0  0  0  0
   -4.3843   -3.6984   -2.2310 H   0  0  0  0  0  0  0  0  0  0  0  0
   -6.1283   -3.9539   -2.3656 H   0  0  0  0  0  0  0  0  0  0  0  0
   -5.3536   -2.6282   -3.2532 H   0  0  0  0  0  0  0  0  0  0  0  0
   -6.7105   -3.7120    0.4279 N   0  0  0  0  0  0  0  0  0  0  0  0
   -6.9096   -4.5247    1.6051 C   0  0  0  0  0  0  0  0  0  0  0  0
   -7.4861   -3.6205   -0.2216 H   0  0  0  0  0  0  0  0  0  0  0  0
   -6.6245   -5.5643    1.3861 H   0  0  0  0  0  0  0  0  0  0  0  0
   -6.2874   -4.1392    2.4262 H   0  0  0  0  0  0  0  0  0  0  0  0
   -7.9688   -4.4895    1.9000 H   0  0  0  0  0  0  0  0  0  0  0  0
  1  3  1  0  0  0  0
  1  7  1  0  0  0  0
  1  2  2  0  0  0  0
 29 30  1  0  0  0  0
 30 38  1  0  0  0  0
 30 31  2  0  0  0  0
  8  9  1  0  0  0  0
  9 17  1  0  0  0  0
  9 10  2  0  0  0  0
 18 19  1  0  0  0  0
 19 28  1  0  0  0  0
 19 20  2  0  0  0  0
 29 32  1  0  0  0  0
  8 11  1  0  0  0  0
 38 39  1  0  0  0  0
 18 21  1  0  0  0  0
 21 22  1  0  0  0  0
 28 29  1  0  0  0  0
  7  8  1  0  0  0  0
 17 18  1  0  0  0  0
  3  4  1  0  0  0  0
  3  5  1  0  0  0  0
  3  6  1  0  0  0  0
 32 35  1  0  0  0  0
 32 36  1  0  0  0  0
 32 37  1  0  0  0  0
 11 14  1  0  0  0  0
 11 15  1  0  0  0  0
 11 16  1  0  0  0  0
 39 41  1  0  0  0  0
 39 42  1  0  0  0  0
 39 43  1  0  0  0  0
 21 25  1  0  0  0  0
 21 26  1  0  0  0  0
 29 34  1  0  0  0  0
  8 13  1  0  0  0  0
 18 24  1  0  0  0  0
 38 40  1  0  0  0  0
  7 12  1  0  0  0  0
 28 33  1  0  0  0  0
 17 23  1  0  0  0  0
 22 27  1  0  0  0  0
M  END
$$$$

  -OEChem-05262214473D

 43 42  0     1  0  0  0  0  0999 V2000
    0.7424   -1.0926    4.5665 C   0  0  0  0  0  0  0  0  0  0  0  0
    0.1409   -0.5364    5.4779 O   0  0  0  0  0  0  0  0  0  0  0  0
    1.7940   -2.1023    4.8871 C   0  0  0  0  0  0  0  0  0  0  0  0
    2.7935   -1.6502    4.9904 H   0  0  0  0  0  0  0  0  0  0  0  0
    1.6064   -2.6156    5.8438 H   0  0  0  0  0  0  0  0  0  0  0  0
    1.9156   -2.9078    4.1453 H   0  0  0  0  0  0  0  0  0  0  0  0
    0.5488   -0.8838    3.2109 N   0  0  0  0  0  0  0  0  0  0  0  0
   -0.4159    0.0446    2.6829 C   0  0  2  0  0  0  0  0  0  0  0  0
   -0.7551   -0.3867    1.2623 C   0  0  0  0  0  0  0  0  0  0  0  0
   -0.0106   -1.0851    0.5774 O   0  0  0  0  0  0  0  0  0  0  0  0
    0.1168    1.4689    2.7060 C   0  0  0  0  0  0  0  0  0  0  0  0
    1.1183   -1.4145    2.5542 H   0  0  0  0  0  0  0  0  0  0  0  0
   -1.3088   -0.0350    3.3125 H   0  0  0  0  0  0  0  0  0  0  0  0
    1.0116    1.5681    2.0808 H   0  0  0  0  0  0  0  0  0  0  0  0
   -0.6289    2.1775    2.3307 H   0  0  0  0  0  0  0  0  0  0  0  0
    0.3882    1.7670    3.7245 H   0  0  0  0  0  0  0  0  0  0  0  0
   -1.9689    0.1350    0.8298 N   0  0  0  0  0  0  0  0  0  0  0  0
   -2.5039   -0.1183   -0.4830 C   0  0  2  0  0  0  0  0  0  0  0  0
   -3.3649   -1.3748   -0.4128 C   0  0  0  0  0  0  0  0  0  0  0  0
   -3.1691   -2.2767    0.3992 O   0  0  0  0  0  0  0  0  0  0  0  0
   -1.3999   -0.2407   -1.5284 C   0  0  0  0  0  0  0  0  0  0  0  0
   -0.6073   -1.3953   -1.2752 O   0  0  0  0  0  0  0  0  0  0  0  0
   -2.5276    0.6894    1.4750 H   0  0  0  0  0  0  0  0  0  0  0  0
   -3.1447    0.7373   -0.7252 H   0  0  0  0  0  0  0  0  0  0  0  0
   -0.7415    0.6337   -1.5093 H   0  0  0  0  0  0  0  0  0  0  0  0
   -1.8285   -0.3356   -2.5318 H   0  0  0  0  0  0  0  0  0  0  0  0
   -1.2048   -2.1585   -1.3212 H   0  0  0  0  0  0  0  0  0  0  0  0
   -4.4022   -1.3491   -1.3344 N   0  0  0  0  0  0  0  0  0  0  0  0
   -5.3761   -2.4101   -1.4459 C   0  0  2  0  0  0  0  0  0  0  0  0
   -5.6159   -2.9766   -0.0526 C   0  0  0  0  0  0  0  0  0  0  0  0
   -4.8055   -2.8661    0.8650 O   0  0  0  0  0  0  0  0  0  0  0  0
   -4.9046   -3.4960   -2.4005 C   0  0  0  0  0  0  0  0  0  0  0  0
   -4.5112   -0.5418   -1.9410 H   0  0  0  0  0  0  0  0  0  0  0  0
   -6.2994   -1.9539   -1.8191 H   0  0  0  0  0  0  0  0  0  0  0  0
   -3.9804   -3.9647   -2.0431 H   0  0  0  0  0  0  0  0  0  0  0  0
   -5.6562   -4.2853   -2.5058 H   0  0  0  0  0  0  0  0  0  0  0  0
   -4.7041   -3.0811   -3.3942 H   0  0  0  0  0  0  0  0  0  0  0  0
   -6.8222   -3.6575    0.0334 N   0  0  0  0  0  0  0  0  0  0  0  0
   -7.2720   -4.2963    1.2481 C   0  0  0  0  0  0  0  0  0  0  0  0
   -7.4403   -3.6827   -0.7723 H   0  0  0  0  0  0  0  0  0  0  0  0
   -6.9507   -5.3484    1.2504 H   0  0  0  0  0  0  0  0  0  0  0  0
   -6.8385   -3.7788    2.1166 H   0  0  0  0  0  0  0  0  0  0  0  0
   -8.3695   -4.2482    1.3028 H   0  0  0  0  0  0  0  0  0  0  0  0
  1  3  1  0  0  0  0
  1  7  1  0  0  0  0
  1  2  2  0  0  0  0
 29 30  1  0  0  0  0
 30 38  1  0  0  0  0
 30 31  2  0  0  0  0
  8  9  1  0  0  0  0
  9 17  1  0  0  0  0
  9 10  2  0  0  0  0
 18 19  1  0  0  0  0
 19 28  1  0  0  0  0
 19 20  2  0  0  0  0
 29 32  1  0  0  0  0
  8 11  1  0  0  0  0
 38 39  1  0  0  0  0
 18 21  1  0  0  0  0
 21 22  1  0  0  0  0
 28 29  1  0  0  0  0
  7  8  1  0  0  0  0
 17 18  1  0  0  0  0
  3  4  1  0  0  0  0
  3  5  1  0  0  0  0
  3  6  1  0  0  0  0
 32 35  1  0  0  0  0
 32 36  1  0  0  0  0
 32 37  1  0  0  0  0
 11 14  1  0  0  0  0
 11 15  1  0  0  0  0
 11 16  1  0  0  0  0
 39 41  1  0  0  0  0
 39 42  1  0  0  0  0
 39 43  1  0  0  0  0
 21 25  1  0  0  0  0
 21 26  1  0  0  0  0
 29 34  1  0  0  0  0
  8 13  1  0  0  0  0
 18 24  1  0  0  0  0
 38 40  1  0  0  0  0
  7 12  1  0  0  0  0
 28 33  1  0  0  0  0
 17 23  1  0  0  0  0
 22 27  1  0  0  0  0
M  END
$$$$

  -OEChem-05262214473D

 43 42  0     1  0  0  0  0  0999 V2000
    0.7424   -1.0926    4.5665 C   0  0  0  0  0  0  0  0  0  0  0  0
    0.1409   -0.5364    5.4779 O   0  0  0  0  0  0  0  0  0  0  0  0
    1.7940   -2.1023    4.8871 C   0  0  0  0  0  0  0  0  0  0  0  0
    2.7935   -1.6502    4.9904 H   0  0  0  0  0  0  0  0  0  0  0  0
    1.6064   -2.6156    5.8438 H   0  0  0  0  0  0  0  0  0  0  0  0
    1.9156   -2.9078    4.1453 H   0  0  0  0  0  0  0  0  0  0  0  0
    0.5488   -0.8838    3.2109 N   0  0  0  0  0  0  0  0  0  0  0  0
   -0.4159    0.0446    2.6829 C   0  0  2  0  0  0  0  0  0  0  0  0
   -0.7551   -0.3867    1.2623 C   0  0  0  0  0  0  0  0  0  0  0  0
   -0.0106   -1.0851    0.5774 O   0  0  0  0  0  0  0  0  0  0  0  0
    0.1168    1.4689    2.7060 C   0  0  0  0  0  0  0  0  0  0  0  0
    1.1183   -1.4145    2.5542 H   0  0  0  0  0  0  0  0  0  0  0  0
   -1.3088   -0.0350    3.3125 H   0  0  0  0  0  0  0  0  0  0  0  0
    1.0116    1.5681    2.0808 H   0  0  0  0  0  0  0  0  0  0  0  0
   -0.6289    2.1775    2.3307 H   0  0  0  0  0  0  0  0  0  0  0  0
    0.3882    1.7670    3.7245 H   0  0  0  0  0  0  0  0  0  0  0  0
   -1.9689    0.1350    0.8298 N   0  0  0  0  0  0  0  0  0  0  0  0
   -2.5039   -0.1183   -0.4830 C   0  0  2  0  0  0  0  0  0  0  0  0
   -3.3649   -1.3748   -0.4128 C   0  0  0  0  0  0  0  0  0  0  0  0
   -3.3511   -2.1437    0.5461 O   0  0  0  0  0  0  0  0  0  0  0  0
   -1.3999   -0.2407   -1.5284 C   0  0  0  0  0  0  0  0  0  0  0  0
   -0.6073   -1.3953   -1.2752 O   0  0  0  0  0  0  0  0  0  0  0  0
   -2.5276    0.6894    1.4750 H   0  0  0  0  0  0  0  0  0  0  0  0
   -3.1447    0.7373   -0.7252 H   0  0  0  0  0  0  0  0  0  0  0  0
   -0.7415    0.6337   -1.5093 H   0  0  0  0  0  0  0  0  0  0  0  0
   -1.8285   -0.3356   -2.5318 H   0  0  0  0  0  0  0  0  0  0  0  0
   -1.2048   -2.1585   -1.3212 H   0  0  0  0  0  0  0  0  0  0  0  0
   -4.1806   -1.5117   -1.5271 N   0  0  0  0  0  0  0  0  0  0  0  0
   -5.1123   -2.6042   -1.6852 C   0  0  2  0  0  0  0  0  0  0  0  0
   -5.6471   -2.9694   -0.3068 C   0  0  0  0  0  0  0  0  0  0  0  0
   -5.0516   -2.7047    0.7355 O   0  0  0  0  0  0  0  0  0  0  0  0
   -4.4516   -3.8034   -2.3471 C   0  0  0  0  0  0  0  0  0  0  0  0
   -4.1541   -0.8041   -2.2553 H   0  0  0  0  0  0  0  0  0  0  0  0
   -5.9324   -2.2327   -2.3091 H   0  0  0  0  0  0  0  0  0  0  0  0
   -3.6273   -4.1896   -1.7365 H   0  0  0  0  0  0  0  0  0  0  0  0
   -5.1663   -4.6203   -2.4922 H   0  0  0  0  0  0  0  0  0  0  0  0
   -4.0413   -3.5315   -3.3257 H   0  0  0  0  0  0  0  0  0  0  0  0
   -6.8465   -3.6639   -0.3795 N   0  0  0  0  0  0  0  0  0  0  0  0
   -7.5485   -4.1322    0.7926 C   0  0  0  0  0  0  0  0  0  0  0  0
   -7.2778   -3.8226   -1.2853 H   0  0  0  0  0  0  0  0  0  0  0  0
   -7.2393   -5.1635    1.0182 H   0  0  0  0  0  0  0  0  0  0  0  0
   -7.3090   -3.4825    1.6473 H   0  0  0  0  0  0  0  0  0  0  0  0
   -8.6321   -4.1072    0.6052 H   0  0  0  0  0  0  0  0  0  0  0  0
  1  3  1  0  0  0  0
  1  7  1  0  0  0  0
  1  2  2  0  0  0  0
 29 30  1  0  0  0  0
 30 38  1  0  0  0  0
 30 31  2  0  0  0  0
  8  9  1  0  0  0  0
  9 17  1  0  0  0  0
  9 10  2  0  0  0  0
 18 19  1  0  0  0  0
 19 28  1  0  0  0  0
 19 20  2  0  0  0  0
 29 32  1  0  0  0  0
  8 11  1  0  0  0  0
 38 39  1  0  0  0  0
 18 21  1  0  0  0  0
 21 22  1  0  0  0  0
 28 29  1  0  0  0  0
  7  8  1  0  0  0  0
 17 18  1  0  0  0  0
  3  4  1  0  0  0  0
  3  5  1  0  0  0  0
  3  6  1  0  0  0  0
 32 35  1  0  0  0  0
 32 36  1  0  0  0  0
 32 37  1  0  0  0  0
 11 14  1  0  0  0  0
 11 15  1  0  0  0  0
 11 16  1  0  0  0  0
 39 41  1  0  0  0  0
 39 42  1  0  0  0  0
 39 43  1  0  0  0  0
 21 25  1  0  0  0  0
 21 26  1  0  0  0  0
 29 34  1  0  0  0  0
  8 13  1  0  0  0  0
 18 24  1  0  0  0  0
 38 40  1  0  0  0  0
  7 12  1  0  0  0  0
 28 33  1  0  0  0  0
 17 23  1  0  0  0  0
 22 27  1  0  0  0  0
M  END
$$$$

  -OEChem-05262214473D

 43 42  0     1  0  0  0  0  0999 V2000
    0.7424   -1.0926    4.5665 C   0  0  0  0  0  0  0  0  0  0  0  0
    0.1409   -0.5364    5.4779 O   0  0  0  0  0  0  0  0  0  0  0  0
    1.7940   -2.1023    4.8871 C   0  0  0  0  0  0  0  0  0  0  0  0
    2.7935   -1.6502    4.9904 H   0  0  0  0  0  0  0  0  0  0  0  0
    1.6064   -2.6156    5.8438 H   0  0  0  0  0  0  0  0  0  0  0  0
    1.9156   -2.9078    4.1453 H   0  0  0  0  0  0  0  0  0  0  0  0
    0.5488   -0.8838    3.2109 N   0  0  0  0  0  0  0  0  0  0  0  0
   -0.4159    0.0446    2.6829 C   0  0  2  0  0  0  0  0  0  0  0  0
   -0.7551   -0.3867    1.2623 C   0  0  0  0  0  0  0  0  0  0  0  0
   -0.0106   -1.0851    0.5774 O   0  0  0  0  0  0  0  0  0  0  0  0
    0.1168    1.4689    2.7060 C   0  0  0  0  0  0  0  0  0  0  0  0
    1.1183   -1.4145    2.5542 H   0  0  0  0  0  0  0  0  0  0  0  0
   -1.3088   -0.0350    3.3125 H   0  0  0  0  0  0  0  0  0  0  0  0
    1.0116    1.5681    2.0808 H   0  0  0  0  0  0  0  0  0  0  0  0
   -0.6289    2.1775    2.3307 H   0  0  0  0  0  0  0  0  0  0  0  0
    0.3882    1.7670    3.7245 H   0  0  0  0  0  0  0  0  0  0  0  0
   -1.9689    0.1350    0.8298 N   0  0  0  0  0  0  0  0  0  0  0  0
   -2.5039   -0.1183   -0.4830 C   0  0  2  0  0  0  0  0  0  0  0  0
   -3.6413   -1.1249   -0.3484 C   0  0  0  0  0  0  0  0  0  0  0  0
   -4.0138   -1.5741    0.7335 O   0  0  0  0  0  0  0  0  0  0  0  0
   -1.4260   -0.6009   -1.4483 C   0  0  0  0  0  0  0  0  0  0  0  0
   -0.9403   -1.8769   -1.0466 O   0  0  0  0  0  0  0  0  0  0  0  0
   -2.5276    0.6894    1.4750 H   0  0  0  0  0  0  0  0  0  0  0  0
   -2.9139    0.8342   -0.8380 H   0  0  0  0  0  0  0  0  0  0  0  0
   -0.5793    0.0927   -1.4710 H   0  0  0  0  0  0  0  0  0  0  0  0
   -1.8305   -0.6945   -2.4617 H   0  0  0  0  0  0  0  0  0  0  0  0
   -1.7004   -2.4799   -1.0572 H   0  0  0  0  0  0  0  0  0  0  0  0
   -4.2179   -1.4282   -1.5737 N   0  0  0  0  0  0  0  0  0  0  0  0
   -5.3350   -2.3338   -1.7099 C   0  0  2  0  0  0  0  0  0  0  0  0
   -6.2152   -2.1836   -0.4762 C   0  0  0  0  0  0  0  0  0  0  0  0
   -5.8012   -1.7412    0.5934 O   0  0  0  0  0  0  0  0  0  0  0  0
   -4.8656   -3.7713   -1.8711 C   0  0  0  0  0  0  0  0  0  0  0  0
   -3.8696   -0.9774   -2.4146 H   0  0  0  0  0  0  0  0  0  0  0  0
   -5.8927   -2.0167   -2.5979 H   0  0  0  0  0  0  0  0  0  0  0  0
   -4.3048   -4.1067   -0.9911 H   0  0  0  0  0  0  0  0  0  0  0  0
   -5.7125   -4.4528   -2.0028 H   0  0  0  0  0  0  0  0  0  0  0  0
   -4.2087   -3.8714   -2.7418 H   0  0  0  0  0  0  0  0  0  0  0  0
   -7.5064   -2.6420   -0.6973 N   0  0  0  0  0  0  0  0  0  0  0  0
   -8.5277   -2.6183    0.3236 C   0  0  0  0  0  0  0  0  0  0  0  0
   -7.7671   -2.9748   -1.6209 H   0  0  0  0  0  0  0  0  0  0  0  0
   -8.5333   -3.5788    0.8598 H   0  0  0  0  0  0  0  0  0  0  0  0
   -8.3182   -1.8039    1.0328 H   0  0  0  0  0  0  0  0  0  0  0  0
   -9.5097   -2.4538   -0.1440 H   0  0  0  0  0  0  0  0  0  0  0  0
  1  3  1  0  0  0  0
  1  7  1  0  0  0  0
  1  2  2  0  0  0  0
 29 30  1  0  0  0  0
 30 38  1  0  0  0  0
 30 31  2  0  0  0  0
  8  9  1  0  0  0  0
  9 17  1  0  0  0  0
  9 10  2  0  0  0  0
 18 19  1  0  0  0  0
 19 28  1  0  0  0  0
 19 20  2  0  0  0  0
 29 32  1  0  0  0  0
  8 11  1  0  0  0  0
 38 39  1  0  0  0  0
 18 21  1  0  0  0  0
 21 22  1  0  0  0  0
 28 29  1  0  0  0  0
  7  8  1  0  0  0  0
 17 18  1  0  0  0  0
  3  4  1  0  0  0  0
  3  5  1  0  0  0  0
  3  6  1  0  0  0  0
 32 35  1  0  0  0  0
 32 36  1  0  0  0  0
 32 37  1  0  0  0  0
 11 14  1  0  0  0  0
 11 15  1  0  0  0  0
 11 16  1  0  0  0  0
 39 41  1  0  0  0  0
 39 42  1  0  0  0  0
 39 43  1  0  0  0  0
 21 25  1  0  0  0  0
 21 26  1  0  0  0  0
 29 34  1  0  0  0  0
  8 13  1  0  0  0  0
 18 24  1  0  0  0  0
 38 40  1  0  0  0  0
  7 12  1  0  0  0  0
 28 33  1  0  0  0  0
 17 23  1  0  0  0  0
 22 27  1  0  0  0  0
M  END
$$$$

  -OEChem-05262214473D

 43 42  0     1  0  0  0  0  0999 V2000
    0.7424   -1.0926    4.5665 C   0  0  0  0  0  0  0  0  0  0  0  0
    0.1409   -0.5364    5.4779 O   0  0  0  0  0  0  0  0  0  0  0  0
    1.7940   -2.1023    4.8871 C   0  0  0  0  0  0  0  0  0  0  0  0
    2.7935   -1.6502    4.9904 H   0  0  0  0  0  0  0  0  0  0  0  0
    1.6064   -2.6156    5.8438 H   0  0  0  0  0  0  0  0  0  0  0  0
    1.9156   -2.9078    4.1453 H   0  0  0  0  0  0  0  0  0  0  0  0
    0.5488   -0.8838    3.2109 N   0  0  0  0  0  0  0  0  0  0  0  0
   -0.4159    0.0446    2.6829 C   0  0  2  0  0  0  0  0  0  0  0  0
   -0.7551   -0.3867    1.2623 C   0  0  0  0  0  0  0  0  0  0  0  0
   -0.0106   -1.0851    0.5774 O   0  0  0  0  0  0  0  0  0  0  0  0
    0.1168    1.4689    2.7060 C   0  0  0  0  0  0  0  0  0  0  0  0
    1.1183   -1.4145    2.5542 H   0  0  0  0  0  0  0  0  0  0  0  0
   -1.3088   -0.0350    3.3125 H   0  0  0  0  0  0  0  0  0  0  0  0
    1.0116    1.5681    2.0808 H   0  0  0  0  0  0  0  0  0  0  0  0
   -0.6289    2.1775    2.3307 H   0  0  0  0  0  0  0  0  0  0  0  0
    0.3882    1.7670    3.7245 H   0  0  0  0  0  0  0  0  0  0  0  0
   -1.9689    0.1350    0.8298 N   0  0  0  0  0  0  0  0  0  0  0  0
   -2.5039   -0.1183   -0.4830 C   0  0  2  0  0  0  0  0  0  0  0  0
   -3.6413   -1.1249   -0.3484 C   0  0  0  0  0  0  0  0  0  0  0  0
   -4.1927   -1.3735    0.7217 O   0  0  0  0  0  0  0  0  0  0  0  0
   -1.4260   -0.6009   -1.4483 C   0  0  0  0  0  0  0  0  0  0  0  0
   -0.9403   -1.8769   -1.0466 O   0  0  0  0  0  0  0  0  0  0  0  0
   -2.5276    0.6894    1.4750 H   0  0  0  0  0  0  0  0  0  0  0  0
   -2.9139    0.8342   -0.8380 H   0  0  0  0  0  0  0  0  0  0  0  0
   -0.5793    0.0927   -1.4710 H   0  0  0  0  0  0  0  0  0  0  0  0
   -1.8305   -0.6945   -2.4617 H   0  0  0  0  0  0  0  0  0  0  0  0
   -1.7004   -2.4799   -1.0572 H   0  0  0  0  0  0  0  0  0  0  0  0
   -3.9952   -1.6794   -1.5703 N   0  0  0  0  0  0  0  0  0  0  0  0
   -5.0664   -2.6378   -1.7137 C   0  0  2  0  0  0  0  0  0  0  0  0
   -6.1478   -2.2897   -0.6994 C   0  0  0  0  0  0  0  0  0  0  0  0
   -5.9279   -1.6350    0.3176 O   0  0  0  0  0  0  0  0  0  0  0  0
   -4.5675   -4.0598   -1.5099 C   0  0  0  0  0  0  0  0  0  0  0  0
   -3.5094   -1.3841   -2.4121 H   0  0  0  0  0  0  0  0  0  0  0  0
   -5.4638   -2.5186   -2.7275 H   0  0  0  0  0  0  0  0  0  0  0  0
   -4.1655   -4.1984   -0.4996 H   0  0  0  0  0  0  0  0  0  0  0  0
   -5.3747   -4.7870   -1.6471 H   0  0  0  0  0  0  0  0  0  0  0  0
   -3.7691   -4.2984   -2.2209 H   0  0  0  0  0  0  0  0  0  0  0  0
   -7.3784   -2.8327   -1.0414 N   0  0  0  0  0  0  0  0  0  0  0  0
   -8.5611   -2.6548   -0.2318 C   0  0  0  0  0  0  0  0  0  0  0  0
   -7.4733   -3.3459   -1.9128 H   0  0  0  0  0  0  0  0  0  0  0  0
   -8.6536   -3.4946    0.4726 H   0  0  0  0  0  0  0  0  0  0  0  0
   -8.4825   -1.7122    0.3299 H   0  0  0  0  0  0  0  0  0  0  0  0
   -9.4483   -2.6217   -0.8812 H   0  0  0  0  0  0  0  0  0  0  0  0
  1  3  1  0  0  0  0
  1  7  1  0  0  0  0
  1  2  2  0  0  0  0
 29 30  1  0  0  0  0
 30 38  1  0  0  0  0
 30 31  2  0  0  0  0
  8  9  1  0  0  0  0
  9 17  1  0  0  0  0
  9 10  2  0  0  0  0
 18 19  1  0  0  0  0
 19 28  1  0  0  0  0
 19 20  2  0  0  0  0
 29 32  1  0  0  0  0
  8 11  1  0  0  0  0
 38 39  1  0  0  0  0
 18 21  1  0  0  0  0
 21 22  1  0  0  0  0
 28 29  1  0  0  0  0
  7  8  1  0  0  0  0
 17 18  1  0  0  0  0
  3  4  1  0  0  0  0
  3  5  1  0  0  0  0
  3  6  1  0  0  0  0
 32 35  1  0  0  0  0
 32 36  1  0  0  0  0
 32 37  1  0  0  0  0
 11 14  1  0  0  0  0
 11 15  1  0  0  0  0
 11 16  1  0  0  0  0
 39 41  1  0  0  0  0
 39 42  1  0  0  0  0
 39 43  1  0  0  0  0
 21 25  1  0  0  0  0
 21 26  1  0  0  0  0
 29 34  1  0  0  0  0
  8 13  1  0  0  0  0
 18 24  1  0  0  0  0
 38 40  1  0  0  0  0
  7 12  1  0  0  0  0
 28 33  1  0  0  0  0
 17 23  1  0  0  0  0
 22 27  1  0  0  0  0
M  END
$$$$

  -OEChem-05262214473D

 43 42  0     1  0  0  0  0  0999 V2000
    0.7424   -1.0926    4.5665 C   0  0  0  0  0  0  0  0  0  0  0  0
    0.1409   -0.5364    5.4779 O   0  0  0  0  0  0  0  0  0  0  0  0
    1.7940   -2.1023    4.8871 C   0  0  0  0  0  0  0  0  0  0  0  0
    2.7935   -1.6502    4.9904 H   0  0  0  0  0  0  0  0  0  0  0  0
    1.6064   -2.6156    5.8438 H   0  0  0  0  0  0  0  0  0  0  0  0
    1.9156   -2.9078    4.1453 H   0  0  0  0  0  0  0  0  0  0  0  0
    0.5488   -0.8838    3.2109 N   0  0  0  0  0  0  0  0  0  0  0  0
   -0.4159    0.0446    2.6829 C   0  0  2  0  0  0  0  0  0  0  0  0
   -0.7551   -0.3867    1.2623 C   0  0  0  0  0  0  0  0  0  0  0  0
   -0.0106   -1.0851    0.5774 O   0  0  0  0  0  0  0  0  0  0  0  0
    0.1168    1.4689    2.7060 C   0  0  0  0  0  0  0  0  0  0  0  0
    1.1183   -1.4145    2.5542 H   0  0  0  0  0  0  0  0  0  0  0  0
   -1.3088   -0.0350    3.3125 H   0  0  0  0  0  0  0  0  0  0  0  0
    1.0116    1.5681    2.0808 H   0  0  0  0  0  0  0  0  0  0  0  0
   -0.6289    2.1775    2.3307 H   0  0  0  0  0  0  0  0  0  0  0  0
    0.3882    1.7670    3.7245 H   0  0  0  0  0  0  0  0  0  0  0  0
   -1.9689    0.1350    0.8298 N   0  0  0  0  0  0  0  0  0  0  0  0
   -2.5039   -0.1183   -0.4830 C   0  0  2  0  0  0  0  0  0  0  0  0
   -3.6413   -1.1249   -0.3484 C   0  0  0  0  0  0  0  0  0  0  0  0
   -4.3681   -1.1861    0.6410 O   0  0  0  0  0  0  0  0  0  0  0  0
   -1.4260   -0.6009   -1.4483 C   0  0  0  0  0  0  0  0  0  0  0  0
   -0.9403   -1.8769   -1.0466 O   0  0  0  0  0  0  0  0  0  0  0  0
   -2.5276    0.6894    1.4750 H   0  0  0  0  0  0  0  0  0  0  0  0
   -2.9139    0.8342   -0.8380 H   0  0  0  0  0  0  0  0  0  0  0  0
   -0.5793    0.0927   -1.4710 H   0  0  0  0  0  0  0  0  0  0  0  0
   -1.8305   -0.6945   -2.4617 H   0  0  0  0  0  0  0  0  0  0  0  0
   -1.7004   -2.4799   -1.0572 H   0  0  0  0  0  0  0  0  0  0  0  0
   -3.7750   -1.9162   -1.4806 N   0  0  0  0  0  0  0  0  0  0  0  0
   -4.7994   -2.9260   -1.6128 C   0  0  2  0  0  0  0  0  0  0  0  0
   -6.0421   -2.4336   -0.8829 C   0  0  0  0  0  0  0  0  0  0  0  0
   -6.0055   -1.5885    0.0090 O   0  0  0  0  0  0  0  0  0  0  0  0
   -4.3347   -4.2620   -1.0544 C   0  0  0  0  0  0  0  0  0  0  0  0
   -3.1526   -1.7682   -2.2695 H   0  0  0  0  0  0  0  0  0  0  0  0
   -5.0160   -3.0186   -2.6826 H   0  0  0  0  0  0  0  0  0  0  0  0
   -4.1128   -4.1890    0.0166 H   0  0  0  0  0  0  0  0  0  0  0  0
   -5.1015   -5.0334   -1.1812 H   0  0  0  0  0  0  0  0  0  0  0  0
   -3.4238   -4.6003   -1.5602 H   0  0  0  0  0  0  0  0  0  0  0  0
   -7.1916   -3.0803   -1.3150 N   0  0  0  0  0  0  0  0  0  0  0  0
   -8.4977   -2.7980   -0.7669 C   0  0  0  0  0  0  0  0  0  0  0  0
   -7.1311   -3.7539   -2.0728 H   0  0  0  0  0  0  0  0  0  0  0  0
   -8.7056   -3.4907    0.0619 H   0  0  0  0  0  0  0  0  0  0  0  0
   -8.5232   -1.7632   -0.3948 H   0  0  0  0  0  0  0  0  0  0  0  0
   -9.2592   -2.9248   -1.5504 H   0  0  0  0  0  0  0  0  0  0  0  0
  1  3  1  0  0  0  0
  1  7  1  0  0  0  0
  1  2  2  0  0  0  0
 29 30  1  0  0  0  0
 30 38  1  0  0  0  0
 30 31  2  0  0  0  0
  8  9  1  0  0  0  0
  9 17  1  0  0  0  0
  9 10  2  0  0  0  0
 18 19  1  0  0  0  0
 19 28  1  0  0  0  0
 19 20  2  0  0  0  0
 29 32  1  0  0  0  0
  8 11  1  0  0  0  0
 38 39  1  0  0  0  0
 18 21  1  0  0  0  0
 21 22  1  0  0  0  0
 28 29  1  0  0  0  0
  7  8  1  0  0  0  0
 17 18  1  0  0  0  0
  3  4  1  0  0  0  0
  3  5  1  0  0  0  0
  3  6  1  0  0  0  0
 32 35  1  0  0  0  0
 32 36  1  0  0  0  0
 32 37  1  0  0  0  0
 11 14  1  0  0  0  0
 11 15  1  0  0  0  0
 11 16  1  0  0  0  0
 39 41  1  0  0  0  0
 39 42  1  0  0  0  0
 39 43  1  0  0  0  0
 21 25  1  0  0  0  0
 21 26  1  0  0  0  0
 29 34  1  0  0  0  0
  8 13  1  0  0  0  0
 18 24  1  0  0  0  0
 38 40  1  0  0  0  0
  7 12  1  0  0  0  0
 28 33  1  0  0  0  0
 17 23  1  0  0  0  0
 22 27  1  0  0  0  0
M  END
$$$$

  -OEChem-05262214473D

 43 42  0     1  0  0  0  0  0999 V2000
    0.7424   -1.0926    4.5665 C   0  0  0  0  0  0  0  0  0  0  0  0
    0.1409   -0.5364    5.4779 O   0  0  0  0  0  0  0  0  0  0  0  0
    1.7940   -2.1023    4.8871 C   0  0  0  0  0  0  0  0  0  0  0  0
    2.7935   -1.6502    4.9904 H   0  0  0  0  0  0  0  0  0  0  0  0
    1.6064   -2.6156    5.8438 H   0  0  0  0  0  0  0  0  0  0  0  0
    1.9156   -2.9078    4.1453 H   0  0  0  0  0  0  0  0  0  0  0  0
    0.5488   -0.8838    3.2109 N   0  0  0  0  0  0  0  0  0  0  0  0
   -0.4159    0.0446    2.6829 C   0  0  2  0  0  0  0  0  0  0  0  0
   -0.7551   -0.3867    1.2623 C   0  0  0  0  0  0  0  0  0  0  0  0
   -0.0106   -1.0851    0.5774 O   0  0  0  0  0  0  0  0  0  0  0  0
    0.1168    1.4689    2.7060 C   0  0  0  0  0  0  0  0  0  0  0  0
    1.1183   -1.4145    2.5542 H   0  0  0  0  0  0  0  0  0  0  0  0
   -1.3088   -0.0350    3.3125 H   0  0  0  0  0  0  0  0  0  0  0  0
    1.0116    1.5681    2.0808 H   0  0  0  0  0  0  0  0  0  0  0  0
   -0.6289    2.1775    2.3307 H   0  0  0  0  0  0  0  0  0  0  0  0
    0.3882    1.7670    3.7245 H   0  0  0  0  0  0  0  0  0  0  0  0
   -1.9689    0.1350    0.8298 N   0  0  0  0  0  0  0  0  0  0  0  0
   -2.5039   -0.1183   -0.4830 C   0  0  2  0  0  0  0  0  0  0  0  0
   -3.6413   -1.1249   -0.3484 C   0  0  0  0  0  0  0  0  0  0  0  0
   -4.5281   -1.0247    0.4969 O   0  0  0  0  0  0  0  0  0  0  0  0
   -1.4260   -0.6009   -1.4483 C   0  0  0  0  0  0  0  0  0  0  0  0
   -0.9403   -1.8769   -1.0466 O   0  0  0  0  0  0  0  0  0  0  0  0
   -2.5276    0.6894    1.4750 H   0  0  0  0  0  0  0  0  0  0  0  0
   -2.9139    0.8342   -0.8380 H   0  0  0  0  0  0  0  0  0  0  0  0
   -0.5793    0.0927   -1.4710 H   0  0  0  0  0  0  0  0  0  0  0  0
   -1.8305   -0.6945   -2.4617 H   0  0  0  0  0  0  0  0  0  0  0  0
   -1.7004   -2.4799   -1.0572 H   0  0  0  0  0  0  0  0  0  0  0  0
   -3.5722   -2.1226   -1.3105 N   0  0  0  0  0  0  0  0  0  0  0  0
   -4.5521   -3.1789   -1.4140 C   0  0  2  0  0  0  0  0  0  0  0  0
   -5.9054   -2.6057   -1.0144 C   0  0  0  0  0  0  0  0  0  0  0  0
   -6.0288   -1.6050   -0.3113 O   0  0  0  0  0  0  0  0  0  0  0  0
   -4.1830   -4.3641   -0.5355 C   0  0  0  0  0  0  0  0  0  0  0  0
   -2.8235   -2.1035   -1.9967 H   0  0  0  0  0  0  0  0  0  0  0  0
   -4.5797   -3.4826   -2.4661 H   0  0  0  0  0  0  0  0  0  0  0  0
   -4.1503   -4.0790    0.5224 H   0  0  0  0  0  0  0  0  0  0  0  0
   -4.9116   -5.1752   -0.6369 H   0  0  0  0  0  0  0  0  0  0  0  0
   -3.1963   -4.7564   -0.8047 H   0  0  0  0  0  0  0  0  0  0  0  0
   -6.9588   -3.3680   -1.4996 N   0  0  0  0  0  0  0  0  0  0  0  0
   -8.3417   -3.0382   -1.2453 C   0  0  0  0  0  0  0  0  0  0  0  0
   -6.7639   -4.1711   -2.0902 H   0  0  0  0  0  0  0  0  0  0  0  0
   -8.6858   -3.5675   -0.3444 H   0  0  0  0  0  0  0  0  0  0  0  0
   -8.4375   -1.9532   -1.0919 H   0  0  0  0  0  0  0  0  0  0  0  0
   -8.9554   -3.3425   -2.1060 H   0  0  0  0  0  0  0  0  0  0  0  0
  1  3  1  0  0  0  0
  1  7  1  0  0  0  0
  1  2  2  0  0  0  0
 29 30  1  0  0  0  0
 30 38  1  0  0  0  0
 30 31  2  0  0  0  0
  8  9  1  0  0  0  0
  9 17  1  0  0  0  0
  9 10  2  0  0  0  0
 18 19  1  0  0  0  0
 19 28  1  0  0  0  0
 19 20  2  0  0  0  0
 29 32  1  0  0  0  0
  8 11  1  0  0  0  0
 38 39  1  0  0  0  0
 18 21  1  0  0  0  0
 21 22  1  0  0  0  0
 28 29  1  0  0  0  0
  7  8  1  0  0  0  0
 17 18  1  0  0  0  0
  3  4  1  0  0  0  0
  3  5  1  0  0  0  0
  3  6  1  0  0  0  0
 32 35  1  0  0  0  0
 32 36  1  0  0  0  0
 32 37  1  0  0  0  0
 11 14  1  0  0  0  0
 11 15  1  0  0  0  0
 11 16  1  0  0  0  0
 39 41  1  0  0  0  0
 39 42  1  0  0  0  0
 39 43  1  0  0  0  0
 21 25  1  0  0  0  0
 21 26  1  0  0  0  0
 29 34  1  0  0  0  0
  8 13  1  0  0  0  0
 18 24  1  0  0  0  0
 38 40  1  0  0  0  0
  7 12  1  0  0  0  0
 28 33  1  0  0  0  0
 17 23  1  0  0  0  0
 22 27  1  0  0  0  0
M  END
$$$$

  -OEChem-05262214473D

 43 42  0     1  0  0  0  0  0999 V2000
    0.7424   -1.0926    4.5665 C   0  0  0  0  0  0  0  0  0  0  0  0
    0.1409   -0.5364    5.4779 O   0  0  0  0  0  0  0  0  0  0  0  0
    1.7940   -2.1023    4.8871 C   0  0  0  0  0  0  0  0  0  0  0  0
    2.7935   -1.6502    4.9904 H   0  0  0  0  0  0  0  0  0  0  0  0
    1.6064   -2.6156    5.8438 H   0  0  0  0  0  0  0  0  0  0  0  0
    1.9156   -2.9078    4.1453 H   0  0  0  0  0  0  0  0  0  0  0  0
    0.5488   -0.8838    3.2109 N   0  0  0  0  0  0  0  0  0  0  0  0
   -0.4159    0.0446    2.6829 C   0  0  2  0  0  0  0  0  0  0  0  0
   -0.7551   -0.3867    1.2623 C   0  0  0  0  0  0  0  0  0  0  0  0
   -0.0106   -1.0851    0.5774 O   0  0  0  0  0  0  0  0  0  0  0  0
    0.1168    1.4689    2.7060 C   0  0  0  0  0  0  0  0  0  0  0  0
    1.1183   -1.4145    2.5542 H   0  0  0  0  0  0  0  0  0  0  0  0
   -1.3088   -0.0350    3.3125 H   0  0  0  0  0  0  0  0  0  0  0  0
    1.0116    1.5681    2.0808 H   0  0  0  0  0  0  0  0  0  0  0  0
   -0.6289    2.1775    2.3307 H   0  0  0  0  0  0  0  0  0  0  0  0
    0.3882    1.7670    3.7245 H   0  0  0  0  0  0  0  0  0  0  0  0
   -1.9689    0.1350    0.8298 N   0  0  0  0  0  0  0  0  0  0  0  0
   -2.5039   -0.1183   -0.4830 C   0  0  2  0  0  0  0  0  0  0  0  0
   -3.6413   -1.1249   -0.3484 C   0  0  0  0  0  0  0  0  0  0  0  0
   -4.6616   -0.9002    0.2993 O   0  0  0  0  0  0  0  0  0  0  0  0
   -1.4260   -0.6009   -1.4483 C   0  0  0  0  0  0  0  0  0  0  0  0
   -0.9403   -1.8769   -1.0466 O   0  0  0  0  0  0  0  0  0  0  0  0
   -2.5276    0.6894    1.4750 H   0  0  0  0  0  0  0  0  0  0  0  0
   -2.9139    0.8342   -0.8380 H   0  0  0  0  0  0  0  0  0  0  0  0
   -0.5793    0.0927   -1.4710 H   0  0  0  0  0  0  0  0  0  0  0  0
   -1.8305   -0.6945   -2.4617 H   0  0  0  0  0  0  0  0  0  0  0  0
   -1.7004   -2.4799   -1.0572 H   0  0  0  0  0  0  0  0  0  0  0  0
   -3.4007   -2.2845   -1.0717 N   0  0  0  0  0  0  0  0  0  0  0  0
   -4.3414   -3.3791   -1.1309 C   0  0  2  0  0  0  0  0  0  0  0  0
   -5.7469   -2.7942   -1.0848 C   0  0  0  0  0  0  0  0  0  0  0  0
   -5.9963   -1.6833   -0.6215 O   0  0  0  0  0  0  0  0  0  0  0  0
   -4.1228   -4.3590    0.0112 C   0  0  0  0  0  0  0  0  0  0  0  0
   -2.5447   -2.3673   -1.6122 H   0  0  0  0  0  0  0  0  0  0  0  0
   -4.1847   -3.8791   -2.0929 H   0  0  0  0  0  0  0  0  0  0  0  0
   -4.2754   -3.8760    0.9833 H   0  0  0  0  0  0  0  0  0  0  0  0
   -4.8179   -5.2028   -0.0513 H   0  0  0  0  0  0  0  0  0  0  0  0
   -3.1020   -4.7561   -0.0059 H   0  0  0  0  0  0  0  0  0  0  0  0
   -6.6958   -3.6763   -1.5825 N   0  0  0  0  0  0  0  0  0  0  0  0
   -8.1038   -3.3590   -1.6343 C   0  0  0  0  0  0  0  0  0  0  0  0
   -6.3968   -4.5691   -1.9637 H   0  0  0  0  0  0  0  0  0  0  0  0
   -8.5954   -3.7196   -0.7188 H   0  0  0  0  0  0  0  0  0  0  0  0
   -8.2313   -2.2693   -1.7140 H   0  0  0  0  0  0  0  0  0  0  0  0
   -8.5574   -3.8462   -2.5101 H   0  0  0  0  0  0  0  0  0  0  0  0
  1  3  1  0  0  0  0
  1  7  1  0  0  0  0
  1  2  2  0  0  0  0
 29 30  1  0  0  0  0
 30 38  1  0  0  0  0
 30 31  2  0  0  0  0
  8  9  1  0  0  0  0
  9 17  1  0  0  0  0
  9 10  2  0  0  0  0
 18 19  1  0  0  0  0
 19 28  1  0  0  0  0
 19 20  2  0  0  0  0
 29 32  1  0  0  0  0
  8 11  1  0  0  0  0
 38 39  1  0  0  0  0
 18 21  1  0  0  0  0
 21 22  1  0  0  0  0
 28 29  1  0  0  0  0
  7  8  1  0  0  0  0
 17 18  1  0  0  0  0
  3  4  1  0  0  0  0
  3  5  1  0  0  0  0
  3  6  1  0  0  0  0
 32 35  1  0  0  0  0
 32 36  1  0  0  0  0
 32 37  1  0  0  0  0
 11 14  1  0  0  0  0
 11 15  1  0  0  0  0
 11 16  1  0  0  0  0
 39 41  1  0  0  0  0
 39 42  1  0  0  0  0
 39 43  1  0  0  0  0
 21 25  1  0  0  0  0
 21 26  1  0  0  0  0
 29 34  1  0  0  0  0
  8 13  1  0  0  0  0
 18 24  1  0  0  0  0
 38 40  1  0  0  0  0
  7 12  1  0  0  0  0
 28 33  1  0  0  0  0
 17 23  1  0  0  0  0
 22 27  1  0  0  0  0
M  END
$$$$

  -OEChem-05262214473D

 43 42  0     1  0  0  0  0  0999 V2000
    0.7424   -1.0926    4.5665 C   0  0  0  0  0  0  0  0  0  0  0  0
    0.1409   -0.5364    5.4779 O   0  0  0  0  0  0  0  0  0  0  0  0
    1.7940   -2.1023    4.8871 C   0  0  0  0  0  0  0  0  0  0  0  0
    2.7935   -1.6502    4.9904 H   0  0  0  0  0  0  0  0  0  0  0  0
    1.6064   -2.6156    5.8438 H   0  0  0  0  0  0  0  0  0  0  0  0
    1.9156   -2.9078    4.1453 H   0  0  0  0  0  0  0  0  0  0  0  0
    0.5488   -0.8838    3.2109 N   0  0  0  0  0  0  0  0  0  0  0  0
   -0.4159    0.0446    2.6829 C   0  0  2  0  0  0  0  0  0  0  0  0
   -0.7551   -0.3867    1.2623 C   0  0  0  0  0  0  0  0  0  0  0  0
   -0.0106   -1.0851    0.5774 O   0  0  0  0  0  0  0  0  0  0  0  0
    0.1168    1.4689    2.7060 C   0  0  0  0  0  0  0  0  0  0  0  0
    1.1183   -1.4145    2.5542 H   0  0  0  0  0  0  0  0  0  0  0  0
   -1.3088   -0.0350    3.3125 H   0  0  0  0  0  0  0  0  0  0  0  0
    1.0116    1.5681    2.0808 H   0  0  0  0  0  0  0  0  0  0  0  0
   -0.6289    2.1775    2.3307 H   0  0  0  0  0  0  0  0  0  0  0  0
    0.3882    1.7670    3.7245 H   0  0  0  0  0  0  0  0  0  0  0  0
   -1.9689    0.1350    0.8298 N   0  0  0  0  0  0  0  0  0  0  0  0
   -2.5039   -0.1183   -0.4830 C   0  0  2  0  0  0  0  0  0  0  0  0
   -3.6413   -1.1249   -0.3484 C   0  0  0  0  0  0  0  0  0  0  0  0
   -4.7597   -0.8212    0.0615 O   0  0  0  0  0  0  0  0  0  0  0  0
   -1.4260   -0.6009   -1.4483 C   0  0  0  0  0  0  0  0  0  0  0  0
   -0.9403   -1.8769   -1.0466 O   0  0  0  0  0  0  0  0  0  0  0  0
   -2.5276    0.6894    1.4750 H   0  0  0  0  0  0  0  0  0  0  0  0
   -2.9139    0.8342   -0.8380 H   0  0  0  0  0  0  0  0  0  0  0  0
   -0.5793    0.0927   -1.4710 H   0  0  0  0  0  0  0  0  0  0  0  0
   -1.8305   -0.6945   -2.4617 H   0  0  0  0  0  0  0  0  0  0  0  0
   -1.7004   -2.4799   -1.0572 H   0  0  0  0  0  0  0  0  0  0  0  0
   -3.2721   -2.3909   -0.7805 N   0  0  0  0  0  0  0  0  0  0  0  0
   -4.1817   -3.5130   -0.7829 C   0  0  2  0  0  0  0  0  0  0  0  0
   -5.5775   -2.9862   -1.0894 C   0  0  0  0  0  0  0  0  0  0  0  0
   -5.9100   -1.8180   -0.9005 O   0  0  0  0  0  0  0  0  0  0  0  0
   -4.1581   -4.2472    0.5487 C   0  0  0  0  0  0  0  0  0  0  0  0
   -2.3349   -2.5414   -1.1422 H   0  0  0  0  0  0  0  0  0  0  0  0
   -3.8578   -4.1810   -1.5884 H   0  0  0  0  0  0  0  0  0  0  0  0
   -4.4797   -3.5938    1.3679 H   0  0  0  0  0  0  0  0  0  0  0  0
   -4.8268   -5.1142    0.5356 H   0  0  0  0  0  0  0  0  0  0  0  0
   -3.1475   -4.5995    0.7817 H   0  0  0  0  0  0  0  0  0  0  0  0
   -6.4205   -3.9841   -1.5582 N   0  0  0  0  0  0  0  0  0  0  0  0
   -7.8002   -3.7386   -1.9076 C   0  0  0  0  0  0  0  0  0  0  0  0
   -6.0547   -4.9207   -1.7019 H   0  0  0  0  0  0  0  0  0  0  0  0
   -8.4407   -3.9368   -1.0355 H   0  0  0  0  0  0  0  0  0  0  0  0
   -7.9186   -2.6901   -2.2185 H   0  0  0  0  0  0  0  0  0  0  0  0
   -8.0924   -4.4017   -2.7352 H   0  0  0  0  0  0  0  0  0  0  0  0
  1  3  1  0  0  0  0
  1  7  1  0  0  0  0
  1  2  2  0  0  0  0
 29 30  1  0  0  0  0
 30 38  1  0  0  0  0
 30 31  2  0  0  0  0
  8  9  1  0  0  0  0
  9 17  1  0  0  0  0
  9 10  2  0  0  0  0
 18 19  1  0  0  0  0
 19 28  1  0  0  0  0
 19 20  2  0  0  0  0
 29 32  1  0  0  0  0
  8 11  1  0  0  0  0
 38 39  1  0  0  0  0
 18 21  1  0  0  0  0
 21 22  1  0  0  0  0
 28 29  1  0  0  0  0
  7  8  1  0  0  0  0
 17 18  1  0  0  0  0
  3  4  1  0  0  0  0
  3  5  1  0  0  0  0
  3  6  1  0  0  0  0
 32 35  1  0  0  0  0
 32 36  1  0  0  0  0
 32 37  1  0  0  0  0
 11 14  1  0  0  0  0
 11 15  1  0  0  0  0
 11 16  1  0  0  0  0
 39 41  1  0  0  0  0
 39 42  1  0  0  0  0
 39 43  1  0  0  0  0
 21 25  1  0  0  0  0
 21 26  1  0  0  0  0
 29 34  1  0  0  0  0
  8 13  1  0  0  0  0
 18 24  1  0  0  0  0
 38 40  1  0  0  0  0
  7 12  1  0  0  0  0
 28 33  1  0  0  0  0
 17 23  1  0  0  0  0
 22 27  1  0  0  0  0
M  END
$$$$

  -OEChem-05262214473D

 43 42  0     1  0  0  0  0  0999 V2000
    0.7424   -1.0926    4.5665 C   0  0  0  0  0  0  0  0  0  0  0  0
    0.1409   -0.5364    5.4779 O   0  0  0  0  0  0  0  0  0  0  0  0
    1.7940   -2.1023    4.8871 C   0  0  0  0  0  0  0  0  0  0  0  0
    2.7935   -1.6502    4.9904 H   0  0  0  0  0  0  0  0  0  0  0  0
    1.6064   -2.6156    5.8438 H   0  0  0  0  0  0  0  0  0  0  0  0
    1.9156   -2.9078    4.1453 H   0  0  0  0  0  0  0  0  0  0  0  0
    0.5488   -0.8838    3.2109 N   0  0  0  0  0  0  0  0  0  0  0  0
   -0.4159    0.0446    2.6829 C   0  0  2  0  0  0  0  0  0  0  0  0
   -0.7551   -0.3867    1.2623 C   0  0  0  0  0  0  0  0  0  0  0  0
   -0.0106   -1.0851    0.5774 O   0  0  0  0  0  0  0  0  0  0  0  0
    0.1168    1.4689    2.7060 C   0  0  0  0  0  0  0  0  0  0  0  0
    1.1183   -1.4145    2.5542 H   0  0  0  0  0  0  0  0  0  0  0  0
   -1.3088   -0.0350    3.3125 H   0  0  0  0  0  0  0  0  0  0  0  0
    1.0116    1.5681    2.0808 H   0  0  0  0  0  0  0  0  0  0  0  0
   -0.6289    2.1775    2.3307 H   0  0  0  0  0  0  0  0  0  0  0  0
    0.3882    1.7670    3.7245 H   0  0  0  0  0  0  0  0  0  0  0  0
   -1.9689    0.1350    0.8298 N   0  0  0  0  0  0  0  0  0  0  0  0
   -2.5039   -0.1183   -0.4830 C   0  0  2  0  0  0  0  0  0  0  0  0
   -3.6413   -1.1249   -0.3484 C   0  0  0  0  0  0  0  0  0  0  0  0
   -4.8156   -0.7930   -0.2002 O   0  0  0  0  0  0  0  0  0  0  0  0
   -1.4260   -0.6009   -1.4483 C   0  0  0  0  0  0  0  0  0  0  0  0
   -0.9403   -1.8769   -1.0466 O   0  0  0  0  0  0  0  0  0  0  0  0
   -2.5276    0.6894    1.4750 H   0  0  0  0  0  0  0  0  0  0  0  0
   -2.9139    0.8342   -0.8380 H   0  0  0  0  0  0  0  0  0  0  0  0
   -0.5793    0.0927   -1.4710 H   0  0  0  0  0  0  0  0  0  0  0  0
   -1.8305   -0.6945   -2.4617 H   0  0  0  0  0  0  0  0  0  0  0  0
   -1.7004   -2.4799   -1.0572 H   0  0  0  0  0  0  0  0  0  0  0  0
   -3.1952   -2.4345   -0.4567 N   0  0  0  0  0  0  0  0  0  0  0  0
   -4.0839   -3.5715   -0.3935 C   0  0  2  0  0  0  0  0  0  0  0  0
   -5.4086   -3.1688   -1.0278 C   0  0  0  0  0  0  0  0  0  0  0  0
   -5.7760   -2.0000   -1.1292 O   0  0  0  0  0  0  0  0  0  0  0  0
   -4.2867   -4.0362    1.0402 C   0  0  0  0  0  0  0  0  0  0  0  0
   -2.2087   -2.6141   -0.6189 H   0  0  0  0  0  0  0  0  0  0  0  0
   -3.6214   -4.3678   -0.9869 H   0  0  0  0  0  0  0  0  0  0  0  0
   -4.7491   -3.2516    1.6501 H   0  0  0  0  0  0  0  0  0  0  0  0
   -4.9377   -4.9156    1.0839 H   0  0  0  0  0  0  0  0  0  0  0  0
   -3.3295   -4.2972    1.5044 H   0  0  0  0  0  0  0  0  0  0  0  0
   -6.1518   -4.2704   -1.4282 N   0  0  0  0  0  0  0  0  0  0  0  0
   -7.4517   -4.1510   -2.0463 C   0  0  0  0  0  0  0  0  0  0  0  0
   -5.7609   -5.2019   -1.3227 H   0  0  0  0  0  0  0  0  0  0  0  0
   -8.2322   -4.2041   -1.2731 H   0  0  0  0  0  0  0  0  0  0  0  0
   -7.5208   -3.1868   -2.5713 H   0  0  0  0  0  0  0  0  0  0  0  0
   -7.5921   -4.9711   -2.7659 H   0  0  0  0  0  0  0  0  0  0  0  0
  1  3  1  0  0  0  0
  1  7  1  0  0  0  0
  1  2  2  0  0  0  0
 29 30  1  0  0  0  0
 30 38  1  0  0  0  0
 30 31  2  0  0  0  0
  8  9  1  0  0  0  0
  9 17  1  0  0  0  0
  9 10  2  0  0  0  0
 18 19  1  0  0  0  0
 19 28  1  0  0  0  0
 19 20  2  0  0  0  0
 29 32  1  0  0  0  0
  8 11  1  0  0  0  0
 38 39  1  0  0  0  0
 18 21  1  0  0  0  0
 21 22  1  0  0  0  0
 28 29  1  0  0  0  0
  7  8  1  0  0  0  0
 17 18  1  0  0  0  0
  3  4  1  0  0  0  0
  3  5  1  0  0  0  0
  3  6  1  0  0  0  0
 32 35  1  0  0  0  0
 32 36  1  0  0  0  0
 32 37  1  0  0  0  0
 11 14  1  0  0  0  0
 11 15  1  0  0  0  0
 11 16  1  0  0  0  0
 39 41  1  0  0  0  0
 39 42  1  0  0  0  0
 39 43  1  0  0  0  0
 21 25  1  0  0  0  0
 21 26  1  0  0  0  0
 29 34  1  0  0  0  0
  8 13  1  0  0  0  0
 18 24  1  0  0  0  0
 38 40  1  0  0  0  0
  7 12  1  0  0  0  0
 28 33  1  0  0  0  0
 17 23  1  0  0  0  0
 22 27  1  0  0  0  0
M  END
$$$$

  -OEChem-05262214473D

 43 42  0     1  0  0  0  0  0999 V2000
    0.7424   -1.0926    4.5665 C   0  0  0  0  0  0  0  0  0  0  0  0
    0.1409   -0.5364    5.4779 O   0  0  0  0  0  0  0  0  0  0  0  0
    1.7940   -2.1023    4.8871 C   0  0  0  0  0  0  0  0  0  0  0  0
    2.7935   -1.6502    4.9904 H   0  0  0  0  0  0  0  0  0  0  0  0
    1.6064   -2.6156    5.8438 H   0  0  0  0  0  0  0  0  0  0  0  0
    1.9156   -2.9078    4.1453 H   0  0  0  0  0  0  0  0  0  0  0  0
    0.5488   -0.8838    3.2109 N   0  0  0  0  0  0  0  0  0  0  0  0
   -0.4159    0.0446    2.6829 C   0  0  2  0  0  0  0  0  0  0  0  0
   -0.7551   -0.3867    1.2623 C   0  0  0  0  0  0  0  0  0  0  0  0
   -0.0106   -1.0851    0.5774 O   0  0  0  0  0  0  0  0  0  0  0  0
    0.1168    1.4689    2.7060 C   0  0  0  0  0  0  0  0  0  0  0  0
    1.1183   -1.4145    2.5542 H   0  0  0  0  0  0  0  0  0  0  0  0
   -1.3088   -0.0350    3.3125 H   0  0  0  0  0  0  0  0  0  0  0  0
    1.0116    1.5681    2.0808 H   0  0  0  0  0  0  0  0  0  0  0  0
   -0.6289    2.1775    2.3307 H   0  0  0  0  0  0  0  0  0  0  0  0
    0.3882    1.7670    3.7245 H   0  0  0  0  0  0  0  0  0  0  0  0
   -1.9689    0.1350    0.8298 N   0  0  0  0  0  0  0  0  0  0  0  0
   -2.5039   -0.1183   -0.4830 C   0  0  2  0  0  0  0  0  0  0  0  0
   -3.6413   -1.1249   -0.3484 C   0  0  0  0  0  0  0  0  0  0  0  0
   -4.8255   -0.8176   -0.4679 O   0  0  0  0  0  0  0  0  0  0  0  0
   -1.4260   -0.6009   -1.4483 C   0  0  0  0  0  0  0  0  0  0  0  0
   -0.9403   -1.8769   -1.0466 O   0  0  0  0  0  0  0  0  0  0  0  0
   -2.5276    0.6894    1.4750 H   0  0  0  0  0  0  0  0  0  0  0  0
   -2.9139    0.8342   -0.8380 H   0  0  0  0  0  0  0  0  0  0  0  0
   -0.5793    0.0927   -1.4710 H   0  0  0  0  0  0  0  0  0  0  0  0
   -1.8305   -0.6945   -2.4617 H   0  0  0  0  0  0  0  0  0  0  0  0
   -1.7004   -2.4799   -1.0572 H   0  0  0  0  0  0  0  0  0  0  0  0
   -3.1752   -2.4123   -0.1224 N   0  0  0  0  0  0  0  0  0  0  0  0
   -4.0546   -3.5506    0.0106 C   0  0  2  0  0  0  0  0  0  0  0  0
   -5.2520   -3.3293   -0.9042 C   0  0  0  0  0  0  0  0  0  0  0  0
   -5.6032   -2.2170   -1.2920 O   0  0  0  0  0  0  0  0  0  0  0  0
   -4.4997   -3.7405    1.4523 C   0  0  0  0  0  0  0  0  0  0  0  0
   -2.1745   -2.5804   -0.0777 H   0  0  0  0  0  0  0  0  0  0  0  0
   -3.4915   -4.4266   -0.3294 H   0  0  0  0  0  0  0  0  0  0  0  0
   -5.0655   -2.8727    1.8105 H   0  0  0  0  0  0  0  0  0  0  0  0
   -5.1431   -4.6204    1.5562 H   0  0  0  0  0  0  0  0  0  0  0  0
   -3.6357   -3.8698    2.1131 H   0  0  0  0  0  0  0  0  0  0  0  0
   -5.9078   -4.5157   -1.2015 N   0  0  0  0  0  0  0  0  0  0  0  0
   -7.0818   -4.5682   -2.0412 C   0  0  0  0  0  0  0  0  0  0  0  0
   -5.5355   -5.3937   -0.8520 H   0  0  0  0  0  0  0  0  0  0  0  0
   -7.9841   -4.5035   -1.4153 H   0  0  0  0  0  0  0  0  0  0  0  0
   -7.0649   -3.7256   -2.7481 H   0  0  0  0  0  0  0  0  0  0  0  0
   -7.0906   -5.5156   -2.6001 H   0  0  0  0  0  0  0  0  0  0  0  0
  1  3  1  0  0  0  0
  1  7  1  0  0  0  0
  1  2  2  0  0  0  0
 29 30  1  0  0  0  0
 30 38  1  0  0  0  0
 30 31  2  0  0  0  0
  8  9  1  0  0  0  0
  9 17  1  0  0  0  0
  9 10  2  0  0  0  0
 18 19  1  0  0  0  0
 19 28  1  0  0  0  0
 19 20  2  0  0  0  0
 29 32  1  0  0  0  0
  8 11  1  0  0  0  0
 38 39  1  0  0  0  0
 18 21  1  0  0  0  0
 21 22  1  0  0  0  0
 28 29  1  0  0  0  0
  7  8  1  0  0  0  0
 17 18  1  0  0  0  0
  3  4  1  0  0  0  0
  3  5  1  0  0  0  0
  3  6  1  0  0  0  0
 32 35  1  0  0  0  0
 32 36  1  0  0  0  0
 32 37  1  0  0  0  0
 11 14  1  0  0  0  0
 11 15  1  0  0  0  0
 11 16  1  0  0  0  0
 39 41  1  0  0  0  0
 39 42  1  0  0  0  0
 39 43  1  0  0  0  0
 21 25  1  0  0  0  0
 21 26  1  0  0  0  0
 29 34  1  0  0  0  0
  8 13  1  0  0  0  0
 18 24  1  0  0  0  0
 38 40  1  0  0  0  0
  7 12  1  0  0  0  0
 28 33  1  0  0  0  0
 17 23  1  0  0  0  0
 22 27  1  0  0  0  0
M  END
$$$$

  -OEChem-05262214473D

 43 42  0     1  0  0  0  0  0999 V2000
    0.7424   -1.0926    4.5665 C   0  0  0  0  0  0  0  0  0  0  0  0
    0.1409   -0.5364    5.4779 O   0  0  0  0  0  0  0  0  0  0  0  0
    1.7940   -2.1023    4.8871 C   0  0  0  0  0  0  0  0  0  0  0  0
    2.7935   -1.6502    4.9904 H   0  0  0  0  0  0  0  0  0  0  0  0
    1.6064   -2.6156    5.8438 H   0  0  0  0  0  0  0  0  0  0  0  0
    1.9156   -2.9078    4.1453 H   0  0  0  0  0  0  0  0  0  0  0  0
    0.5488   -0.8838    3.2109 N   0  0  0  0  0  0  0  0  0  0  0  0
   -0.4159    0.0446    2.6829 C   0  0  2  0  0  0  0  0  0  0  0  0
   -0.7551   -0.3867    1.2623 C   0  0  0  0  0  0  0  0  0  0  0  0
   -0.0106   -1.0851    0.5774 O   0  0  0  0  0  0  0  0  0  0  0  0
    0.1168    1.4689    2.7060 C   0  0  0  0  0  0  0  0  0  0  0  0
    1.1183   -1.4145    2.5542 H   0  0  0  0  0  0  0  0  0  0  0  0
   -1.3088   -0.0350    3.3125 H   0  0  0  0  0  0  0  0  0  0  0  0
    1.0116    1.5681    2.0808 H   0  0  0  0  0  0  0  0  0  0  0  0
   -0.6289    2.1775    2.3307 H   0  0  0  0  0  0  0  0  0  0  0  0
    0.3882    1.7670    3.7245 H   0  0  0  0  0  0  0  0  0  0  0  0
   -1.9689    0.1350    0.8298 N   0  0  0  0  0  0  0  0  0  0  0  0
   -2.5039   -0.1183   -0.4830 C   0  0  2  0  0  0  0  0  0  0  0  0
   -3.6413   -1.1249   -0.3484 C   0  0  0  0  0  0  0  0  0  0  0  0
   -4.7888   -0.8932   -0.7235 O   0  0  0  0  0  0  0  0  0  0  0  0
   -1.4260   -0.6009   -1.4483 C   0  0  0  0  0  0  0  0  0  0  0  0
   -0.9403   -1.8769   -1.0466 O   0  0  0  0  0  0  0  0  0  0  0  0
   -2.5276    0.6894    1.4750 H   0  0  0  0  0  0  0  0  0  0  0  0
   -2.9139    0.8342   -0.8380 H   0  0  0  0  0  0  0  0  0  0  0  0
   -0.5793    0.0927   -1.4710 H   0  0  0  0  0  0  0  0  0  0  0  0
   -1.8305   -0.6945   -2.4617 H   0  0  0  0  0  0  0  0  0  0  0  0
   -1.7004   -2.4799   -1.0572 H   0  0  0  0  0  0  0  0  0  0  0  0
   -3.2136   -2.3259    0.1996 N   0  0  0  0  0  0  0  0  0  0  0  0
   -4.0957   -3.4517    0.4019 C   0  0  2  0  0  0  0  0  0  0  0  0
   -5.1180   -3.4569   -0.7270 C   0  0  0  0  0  0  0  0  0  0  0  0
   -5.4036   -2.4540   -1.3779 O   0  0  0  0  0  0  0  0  0  0  0  0
   -4.7826   -3.3801    1.7568 C   0  0  0  0  0  0  0  0  0  0  0  0
   -2.2347   -2.4425    0.4443 H   0  0  0  0  0  0  0  0  0  0  0  0
   -3.4770   -4.3536    0.3392 H   0  0  0  0  0  0  0  0  0  0  0  0
   -5.4071   -2.4830    1.8383 H   0  0  0  0  0  0  0  0  0  0  0  0
   -5.4289   -4.2488    1.9204 H   0  0  0  0  0  0  0  0  0  0  0  0
   -4.0453   -3.3465    2.5662 H   0  0  0  0  0  0  0  0  0  0  0  0
   -5.7054   -4.7033   -0.8935 N   0  0  0  0  0  0  0  0  0  0  0  0
   -6.7159   -4.9618   -1.8925 C   0  0  0  0  0  0  0  0  0  0  0  0
   -5.3938   -5.4829   -0.3218 H   0  0  0  0  0  0  0  0  0  0  0  0
   -7.7133   -4.8145   -1.4526 H   0  0  0  0  0  0  0  0  0  0  0  0
   -6.5820   -4.2698   -2.7370 H   0  0  0  0  0  0  0  0  0  0  0  0
   -6.6221   -5.9981   -2.2492 H   0  0  0  0  0  0  0  0  0  0  0  0
  1  3  1  0  0  0  0
  1  7  1  0  0  0  0
  1  2  2  0  0  0  0
 29 30  1  0  0  0  0
 30 38  1  0  0  0  0
 30 31  2  0  0  0  0
  8  9  1  0  0  0  0
  9 17  1  0  0  0  0
  9 10  2  0  0  0  0
 18 19  1  0  0  0  0
 19 28  1  0  0  0  0
 19 20  2  0  0  0  0
 29 32  1  0  0  0  0
  8 11  1  0  0  0  0
 38 39  1  0  0  0  0
 18 21  1  0  0  0  0
 21 22  1  0  0  0  0
 28 29  1  0  0  0  0
  7  8  1  0  0  0  0
 17 18  1  0  0  0  0
  3  4  1  0  0  0  0
  3  5  1  0  0  0  0
  3  6  1  0  0  0  0
 32 35  1  0  0  0  0
 32 36  1  0  0  0  0
 32 37  1  0  0  0  0
 11 14  1  0  0  0  0
 11 15  1  0  0  0  0
 11 16  1  0  0  0  0
 39 41  1  0  0  0  0
 39 42  1  0  0  0  0
 39 43  1  0  0  0  0
 21 25  1  0  0  0  0
 21 26  1  0  0  0  0
 29 34  1  0  0  0  0
  8 13  1  0  0  0  0
 18 24  1  0  0  0  0
 38 40  1  0  0  0  0
  7 12  1  0  0  0  0
 28 33  1  0  0  0  0
 17 23  1  0  0  0  0
 22 27  1  0  0  0  0
M  END
$$$$

  -OEChem-05262214473D

 43 42  0     1  0  0  0  0  0999 V2000
    0.7424   -1.0926    4.5665 C   0  0  0  0  0  0  0  0  0  0  0  0
    0.1409   -0.5364    5.4779 O   0  0  0  0  0  0  0  0  0  0  0  0
    1.7940   -2.1023    4.8871 C   0  0  0  0  0  0  0  0  0  0  0  0
    2.7935   -1.6502    4.9904 H   0  0  0  0  0  0  0  0  0  0  0  0
    1.6064   -2.6156    5.8438 H   0  0  0  0  0  0  0  0  0  0  0  0
    1.9156   -2.9078    4.1453 H   0  0  0  0  0  0  0  0  0  0  0  0
    0.5488   -0.8838    3.2109 N   0  0  0  0  0  0  0  0  0  0  0  0
   -0.4159    0.0446    2.6829 C   0  0  2  0  0  0  0  0  0  0  0  0
   -0.7551   -0.3867    1.2623 C   0  0  0  0  0  0  0  0  0  0  0  0
   -0.0106   -1.0851    0.5774 O   0  0  0  0  0  0  0  0  0  0  0  0
    0.1168    1.4689    2.7060 C   0  0  0  0  0  0  0  0  0  0  0  0
    1.1183   -1.4145    2.5542 H   0  0  0  0  0  0  0  0  0  0  0  0
   -1.3088   -0.0350    3.3125 H   0  0  0  0  0  0  0  0  0  0  0  0
    1.0116    1.5681    2.0808 H   0  0  0  0  0  0  0  0  0  0  0  0
   -0.6289    2.1775    2.3307 H   0  0  0  0  0  0  0  0  0  0  0  0
    0.3882    1.7670    3.7245 H   0  0  0  0  0  0  0  0  0  0  0  0
   -1.9689    0.1350    0.8298 N   0  0  0  0  0  0  0  0  0  0  0  0
   -2.5039   -0.1183   -0.4830 C   0  0  2  0  0  0  0  0  0  0  0  0
   -3.6413   -1.1249   -0.3484 C   0  0  0  0  0  0  0  0  0  0  0  0
   -4.7079   -1.0148   -0.9495 O   0  0  0  0  0  0  0  0  0  0  0  0
   -1.4260   -0.6009   -1.4483 C   0  0  0  0  0  0  0  0  0  0  0  0
   -0.9403   -1.8769   -1.0466 O   0  0  0  0  0  0  0  0  0  0  0  0
   -2.5276    0.6894    1.4750 H   0  0  0  0  0  0  0  0  0  0  0  0
   -2.9139    0.8342   -0.8380 H   0  0  0  0  0  0  0  0  0  0  0  0
   -0.5793    0.0927   -1.4710 H   0  0  0  0  0  0  0  0  0  0  0  0
   -1.8305   -0.6945   -2.4617 H   0  0  0  0  0  0  0  0  0  0  0  0
   -1.7004   -2.4799   -1.0572 H   0  0  0  0  0  0  0  0  0  0  0  0
   -3.3077   -2.1812    0.4875 N   0  0  0  0  0  0  0  0  0  0  0  0
   -4.2047   -3.2817    0.7537 C   0  0  2  0  0  0  0  0  0  0  0  0
   -5.0161   -3.5429   -0.5084 C   0  0  0  0  0  0  0  0  0  0  0  0
   -5.1907   -2.6950   -1.3811 O   0  0  0  0  0  0  0  0  0  0  0  0
   -5.1161   -2.9797    1.9331 C   0  0  0  0  0  0  0  0  0  0  0  0
   -2.3852   -2.2100    0.9117 H   0  0  0  0  0  0  0  0  0  0  0  0
   -3.5790   -4.1536    0.9734 H   0  0  0  0  0  0  0  0  0  0  0  0
   -5.7507   -2.1090    1.7315 H   0  0  0  0  0  0  0  0  0  0  0  0
   -5.7757   -3.8260    2.1516 H   0  0  0  0  0  0  0  0  0  0  0  0
   -4.5302   -2.7628    2.8328 H   0  0  0  0  0  0  0  0  0  0  0  0
   -5.5581   -4.8204   -0.5252 N   0  0  0  0  0  0  0  0  0  0  0  0
   -6.3789   -5.3049   -1.6104 C   0  0  0  0  0  0  0  0  0  0  0  0
   -5.3455   -5.4634    0.2318 H   0  0  0  0  0  0  0  0  0  0  0  0
   -7.4383   -5.1159   -1.3822 H   0  0  0  0  0  0  0  0  0  0  0  0
   -6.1050   -4.7822   -2.5387 H   0  0  0  0  0  0  0  0  0  0  0  0
   -6.2184   -6.3857   -1.7371 H   0  0  0  0  0  0  0  0  0  0  0  0
  1  3  1  0  0  0  0
  1  7  1  0  0  0  0
  1  2  2  0  0  0  0
 29 30  1  0  0  0  0
 30 38  1  0  0  0  0
 30 31  2  0  0  0  0
  8  9  1  0  0  0  0
  9 17  1  0  0  0  0
  9 10  2  0  0  0  0
 18 19  1  0  0  0  0
 19 28  1  0  0  0  0
 19 20  2  0  0  0  0
 29 32  1  0  0  0  0
  8 11  1  0  0  0  0
 38 39  1  0  0  0  0
 18 21  1  0  0  0  0
 21 22  1  0  0  0  0
 28 29  1  0  0  0  0
  7  8  1  0  0  0  0
 17 18  1  0  0  0  0
  3  4  1  0  0  0  0
  3  5  1  0  0  0  0
  3  6  1  0  0  0  0
 32 35  1  0  0  0  0
 32 36  1  0  0  0  0
 32 37  1  0  0  0  0
 11 14  1  0  0  0  0
 11 15  1  0  0  0  0
 11 16  1  0  0  0  0
 39 41  1  0  0  0  0
 39 42  1  0  0  0  0
 39 43  1  0  0  0  0
 21 25  1  0  0  0  0
 21 26  1  0  0  0  0
 29 34  1  0  0  0  0
  8 13  1  0  0  0  0
 18 24  1  0  0  0  0
 38 40  1  0  0  0  0
  7 12  1  0  0  0  0
 28 33  1  0  0  0  0
 17 23  1  0  0  0  0
 22 27  1  0  0  0  0
M  END
$$$$

  -OEChem-05262214473D

 43 42  0     1  0  0  0  0  0999 V2000
    0.7424   -1.0926    4.5665 C   0  0  0  0  0  0  0  0  0  0  0  0
    0.1409   -0.5364    5.4779 O   0  0  0  0  0  0  0  0  0  0  0  0
    1.7940   -2.1023    4.8871 C   0  0  0  0  0  0  0  0  0  0  0  0
    2.7935   -1.6502    4.9904 H   0  0  0  0  0  0  0  0  0  0  0  0
    1.6064   -2.6156    5.8438 H   0  0  0  0  0  0  0  0  0  0  0  0
    1.9156   -2.9078    4.1453 H   0  0  0  0  0  0  0  0  0  0  0  0
    0.5488   -0.8838    3.2109 N   0  0  0  0  0  0  0  0  0  0  0  0
   -0.4159    0.0446    2.6829 C   0  0  2  0  0  0  0  0  0  0  0  0
   -0.7551   -0.3867    1.2623 C   0  0  0  0  0  0  0  0  0  0  0  0
   -0.0106   -1.0851    0.5774 O   0  0  0  0  0  0  0  0  0  0  0  0
    0.1168    1.4689    2.7060 C   0  0  0  0  0  0  0  0  0  0  0  0
    1.1183   -1.4145    2.5542 H   0  0  0  0  0  0  0  0  0  0  0  0
   -1.3088   -0.0350    3.3125 H   0  0  0  0  0  0  0  0  0  0  0  0
    1.0116    1.5681    2.0808 H   0  0  0  0  0  0  0  0  0  0  0  0
   -0.6289    2.1775    2.3307 H   0  0  0  0  0  0  0  0  0  0  0  0
    0.3882    1.7670    3.7245 H   0  0  0  0  0  0  0  0  0  0  0  0
   -1.9689    0.1350    0.8298 N   0  0  0  0  0  0  0  0  0  0  0  0
   -2.5039   -0.1183   -0.4830 C   0  0  2  0  0  0  0  0  0  0  0  0
   -3.6413   -1.1249   -0.3484 C   0  0  0  0  0  0  0  0  0  0  0  0
   -4.5884   -1.1740   -1.1305 O   0  0  0  0  0  0  0  0  0  0  0  0
   -1.4260   -0.6009   -1.4483 C   0  0  0  0  0  0  0  0  0  0  0  0
   -0.9403   -1.8769   -1.0466 O   0  0  0  0  0  0  0  0  0  0  0  0
   -2.5276    0.6894    1.4750 H   0  0  0  0  0  0  0  0  0  0  0  0
   -2.9139    0.8342   -0.8380 H   0  0  0  0  0  0  0  0  0  0  0  0
   -0.5793    0.0927   -1.4710 H   0  0  0  0  0  0  0  0  0  0  0  0
   -1.8305   -0.6945   -2.4617 H   0  0  0  0  0  0  0  0  0  0  0  0
   -1.7004   -2.4799   -1.0572 H   0  0  0  0  0  0  0  0  0  0  0  0
   -3.4510   -1.9879    0.7215 N   0  0  0  0  0  0  0  0  0  0  0  0
   -4.3739   -3.0519    1.0421 C   0  0  2  0  0  0  0  0  0  0  0  0
   -4.9529   -3.5815   -0.2632 C   0  0  0  0  0  0  0  0  0  0  0  0
   -4.9791   -2.9235   -1.3012 O   0  0  0  0  0  0  0  0  0  0  0  0
   -5.4775   -2.5666    1.9690 C   0  0  0  0  0  0  0  0  0  0  0  0
   -2.6158   -1.8986    1.2925 H   0  0  0  0  0  0  0  0  0  0  0  0
   -3.7904   -3.8403    1.5299 H   0  0  0  0  0  0  0  0  0  0  0  0
   -6.0729   -1.7763    1.4975 H   0  0  0  0  0  0  0  0  0  0  0  0
   -6.1598   -3.3809    2.2340 H   0  0  0  0  0  0  0  0  0  0  0  0
   -5.0575   -2.1587    2.8949 H   0  0  0  0  0  0  0  0  0  0  0  0
   -5.4762   -4.8591   -0.1216 N   0  0  0  0  0  0  0  0  0  0  0  0
   -6.0937   -5.5741   -1.2140 C   0  0  0  0  0  0  0  0  0  0  0  0
   -5.3939   -5.3367    0.7711 H   0  0  0  0  0  0  0  0  0  0  0  0
   -7.1777   -5.3871   -1.2091 H   0  0  0  0  0  0  0  0  0  0  0  0
   -5.6664   -5.2280   -2.1667 H   0  0  0  0  0  0  0  0  0  0  0  0
   -5.9072   -6.6520   -1.0986 H   0  0  0  0  0  0  0  0  0  0  0  0
  1  3  1  0  0  0  0
  1  7  1  0  0  0  0
  1  2  2  0  0  0  0
 29 30  1  0  0  0  0
 30 38  1  0  0  0  0
 30 31  2  0  0  0  0
  8  9  1  0  0  0  0
  9 17  1  0  0  0  0
  9 10  2  0  0  0  0
 18 19  1  0  0  0  0
 19 28  1  0  0  0  0
 19 20  2  0  0  0  0
 29 32  1  0  0  0  0
  8 11  1  0  0  0  0
 38 39  1  0  0  0  0
 18 21  1  0  0  0  0
 21 22  1  0  0  0  0
 28 29  1  0  0  0  0
  7  8  1  0  0  0  0
 17 18  1  0  0  0  0
  3  4  1  0  0  0  0
  3  5  1  0  0  0  0
  3  6  1  0  0  0  0
 32 35  1  0  0  0  0
 32 36  1  0  0  0  0
 32 37  1  0  0  0  0
 11 14  1  0  0  0  0
 11 15  1  0  0  0  0
 11 16  1  0  0  0  0
 39 41  1  0  0  0  0
 39 42  1  0  0  0  0
 39 43  1  0  0  0  0
 21 25  1  0  0  0  0
 21 26  1  0  0  0  0
 29 34  1  0  0  0  0
  8 13  1  0  0  0  0
 18 24  1  0  0  0  0
 38 40  1  0  0  0  0
  7 12  1  0  0  0  0
 28 33  1  0  0  0  0
 17 23  1  0  0  0  0
 22 27  1  0  0  0  0
M  END
$$$$

  -OEChem-05262214473D

 43 42  0     1  0  0  0  0  0999 V2000
    0.7424   -1.0926    4.5665 C   0  0  0  0  0  0  0  0  0  0  0  0
    0.1409   -0.5364    5.4779 O   0  0  0  0  0  0  0  0  0  0  0  0
    1.7940   -2.1023    4.8871 C   0  0  0  0  0  0  0  0  0  0  0  0
    2.7935   -1.6502    4.9904 H   0  0  0  0  0  0  0  0  0  0  0  0
    1.6064   -2.6156    5.8438 H   0  0  0  0  0  0  0  0  0  0  0  0
    1.9156   -2.9078    4.1453 H   0  0  0  0  0  0  0  0  0  0  0  0
    0.5488   -0.8838    3.2109 N   0  0  0  0  0  0  0  0  0  0  0  0
   -0.4159    0.0446    2.6829 C   0  0  2  0  0  0  0  0  0  0  0  0
   -0.7551   -0.3867    1.2623 C   0  0  0  0  0  0  0  0  0  0  0  0
   -0.0106   -1.0851    0.5774 O   0  0  0  0  0  0  0  0  0  0  0  0
    0.1168    1.4689    2.7060 C   0  0  0  0  0  0  0  0  0  0  0  0
    1.1183   -1.4145    2.5542 H   0  0  0  0  0  0  0  0  0  0  0  0
   -1.3088   -0.0350    3.3125 H   0  0  0  0  0  0  0  0  0  0  0  0
    1.0116    1.5681    2.0808 H   0  0  0  0  0  0  0  0  0  0  0  0
   -0.6289    2.1775    2.3307 H   0  0  0  0  0  0  0  0  0  0  0  0
    0.3882    1.7670    3.7245 H   0  0  0  0  0  0  0  0  0  0  0  0
   -1.9689    0.1350    0.8298 N   0  0  0  0  0  0  0  0  0  0  0  0
   -2.5039   -0.1183   -0.4830 C   0  0  2  0  0  0  0  0  0  0  0  0
   -3.6413   -1.1249   -0.3484 C   0  0  0  0  0  0  0  0  0  0  0  0
   -4.4384   -1.3600   -1.2542 O   0  0  0  0  0  0  0  0  0  0  0  0
   -1.4260   -0.6009   -1.4483 C   0  0  0  0  0  0  0  0  0  0  0  0
   -0.9403   -1.8769   -1.0466 O   0  0  0  0  0  0  0  0  0  0  0  0
   -2.5276    0.6894    1.4750 H   0  0  0  0  0  0  0  0  0  0  0  0
   -2.9139    0.8342   -0.8380 H   0  0  0  0  0  0  0  0  0  0  0  0
   -0.5793    0.0927   -1.4710 H   0  0  0  0  0  0  0  0  0  0  0  0
   -1.8305   -0.6945   -2.4617 H   0  0  0  0  0  0  0  0  0  0  0  0
   -1.7004   -2.4799   -1.0572 H   0  0  0  0  0  0  0  0  0  0  0  0
   -3.6339   -1.7593    0.8857 N   0  0  0  0  0  0  0  0  0  0  0  0
   -4.5918   -2.7782    1.2474 C   0  0  2  0  0  0  0  0  0  0  0  0
   -4.9330   -3.5699   -0.0081 C   0  0  0  0  0  0  0  0  0  0  0  0
   -4.7830   -3.1240   -1.1437 O   0  0  0  0  0  0  0  0  0  0  0  0
   -5.8421   -2.1688    1.8623 C   0  0  0  0  0  0  0  0  0  0  0  0
   -2.9106   -1.5295    1.5609 H   0  0  0  0  0  0  0  0  0  0  0  0
   -4.0968   -3.4351    1.9709 H   0  0  0  0  0  0  0  0  0  0  0  0
   -6.3517   -1.5074    1.1521 H   0  0  0  0  0  0  0  0  0  0  0  0
   -6.5551   -2.9439    2.1620 H   0  0  0  0  0  0  0  0  0  0  0  0
   -5.5913   -1.5752    2.7480 H   0  0  0  0  0  0  0  0  0  0  0  0
   -5.4651   -4.8167    0.2897 N   0  0  0  0  0  0  0  0  0  0  0  0
   -5.8799   -5.7511   -0.7305 C   0  0  0  0  0  0  0  0  0  0  0  0
   -5.5357   -5.1112    1.2592 H   0  0  0  0  0  0  0  0  0  0  0  0
   -6.9495   -5.6097   -0.9450 H   0  0  0  0  0  0  0  0  0  0  0  0
   -5.2962   -5.5768   -1.6464 H   0  0  0  0  0  0  0  0  0  0  0  0
   -5.7096   -6.7789   -0.3773 H   0  0  0  0  0  0  0  0  0  0  0  0
  1  3  1  0  0  0  0
  1  7  1  0  0  0  0
  1  2  2  0  0  0  0
 29 30  1  0  0  0  0
 30 38  1  0  0  0  0
 30 31  2  0  0  0  0
  8  9  1  0  0  0  0
  9 17  1  0  0  0  0
  9 10  2  0  0  0  0
 18 19  1  0  0  0  0
 19 28  1  0  0  0  0
 19 20  2  0  0  0  0
 29 32  1  0  0  0  0
  8 11  1  0  0  0  0
 38 39  1  0  0  0  0
 18 21  1  0  0  0  0
 21 22  1  0  0  0  0
 28 29  1  0  0  0  0
  7  8  1  0  0  0  0
 17 18  1  0  0  0  0
  3  4  1  0  0  0  0
  3  5  1  0  0  0  0
  3  6  1  0  0  0  0
 32 35  1  0  0  0  0
 32 36  1  0  0  0  0
 32 37  1  0  0  0  0
 11 14  1  0  0  0  0
 11 15  1  0  0  0  0
 11 16  1  0  0  0  0
 39 41  1  0  0  0  0
 39 42  1  0  0  0  0
 39 43  1  0  0  0  0
 21 25  1  0  0  0  0
 21 26  1  0  0  0  0
 29 34  1  0  0  0  0
  8 13  1  0  0  0  0
 18 24  1  0  0  0  0
 38 40  1  0  0  0  0
  7 12  1  0  0  0  0
 28 33  1  0  0  0  0
 17 23  1  0  0  0  0
 22 27  1  0  0  0  0
M  END
$$$$

  -OEChem-05262214473D

 43 42  0     1  0  0  0  0  0999 V2000
    0.7424   -1.0926    4.5665 C   0  0  0  0  0  0  0  0  0  0  0  0
    0.1409   -0.5364    5.4779 O   0  0  0  0  0  0  0  0  0  0  0  0
    1.7940   -2.1023    4.8871 C   0  0  0  0  0  0  0  0  0  0  0  0
    2.7935   -1.6502    4.9904 H   0  0  0  0  0  0  0  0  0  0  0  0
    1.6064   -2.6156    5.8438 H   0  0  0  0  0  0  0  0  0  0  0  0
    1.9156   -2.9078    4.1453 H   0  0  0  0  0  0  0  0  0  0  0  0
    0.5488   -0.8838    3.2109 N   0  0  0  0  0  0  0  0  0  0  0  0
   -0.4159    0.0446    2.6829 C   0  0  2  0  0  0  0  0  0  0  0  0
   -0.7551   -0.3867    1.2623 C   0  0  0  0  0  0  0  0  0  0  0  0
   -0.0106   -1.0851    0.5774 O   0  0  0  0  0  0  0  0  0  0  0  0
    0.1168    1.4689    2.7060 C   0  0  0  0  0  0  0  0  0  0  0  0
    1.1183   -1.4145    2.5542 H   0  0  0  0  0  0  0  0  0  0  0  0
   -1.3088   -0.0350    3.3125 H   0  0  0  0  0  0  0  0  0  0  0  0
    1.0116    1.5681    2.0808 H   0  0  0  0  0  0  0  0  0  0  0  0
   -0.6289    2.1775    2.3307 H   0  0  0  0  0  0  0  0  0  0  0  0
    0.3882    1.7670    3.7245 H   0  0  0  0  0  0  0  0  0  0  0  0
   -1.9689    0.1350    0.8298 N   0  0  0  0  0  0  0  0  0  0  0  0
   -2.5039   -0.1183   -0.4830 C   0  0  2  0  0  0  0  0  0  0  0  0
   -3.6413   -1.1249   -0.3484 C   0  0  0  0  0  0  0  0  0  0  0  0
   -4.2682   -1.5602   -1.3121 O   0  0  0  0  0  0  0  0  0  0  0  0
   -1.4260   -0.6009   -1.4483 C   0  0  0  0  0  0  0  0  0  0  0  0
   -0.9403   -1.8769   -1.0466 O   0  0  0  0  0  0  0  0  0  0  0  0
   -2.5276    0.6894    1.4750 H   0  0  0  0  0  0  0  0  0  0  0  0
   -2.9139    0.8342   -0.8380 H   0  0  0  0  0  0  0  0  0  0  0  0
   -0.5793    0.0927   -1.4710 H   0  0  0  0  0  0  0  0  0  0  0  0
   -1.8305   -0.6945   -2.4617 H   0  0  0  0  0  0  0  0  0  0  0  0
   -1.7004   -2.4799   -1.0572 H   0  0  0  0  0  0  0  0  0  0  0  0
   -3.8438   -1.5110    0.9690 N   0  0  0  0  0  0  0  0  0  0  0  0
   -4.8437   -2.4791    1.3557 C   0  0  2  0  0  0  0  0  0  0  0  0
   -4.9576   -3.5090    0.2395 C   0  0  0  0  0  0  0  0  0  0  0  0
   -4.6160   -3.2827   -0.9194 O   0  0  0  0  0  0  0  0  0  0  0  0
   -6.1852   -1.8135    1.6200 C   0  0  0  0  0  0  0  0  0  0  0  0
   -3.2497   -1.1280    1.6984 H   0  0  0  0  0  0  0  0  0  0  0  0
   -4.4774   -2.9656    2.2663 H   0  0  0  0  0  0  0  0  0  0  0  0
   -6.5681   -1.3207    0.7189 H   0  0  0  0  0  0  0  0  0  0  0  0
   -6.9346   -2.5447    1.9406 H   0  0  0  0  0  0  0  0  0  0  0  0
   -6.0951   -1.0522    2.4024 H   0  0  0  0  0  0  0  0  0  0  0  0
   -5.5256   -4.6960    0.6806 N   0  0  0  0  0  0  0  0  0  0  0  0
   -5.7519   -5.8239   -0.1927 C   0  0  0  0  0  0  0  0  0  0  0  0
   -5.7612   -4.8025    1.6629 H   0  0  0  0  0  0  0  0  0  0  0  0
   -6.7690   -5.7685   -0.6079 H   0  0  0  0  0  0  0  0  0  0  0  0
   -5.0195   -5.8048   -1.0133 H   0  0  0  0  0  0  0  0  0  0  0  0
   -5.6391   -6.7576    0.3777 H   0  0  0  0  0  0  0  0  0  0  0  0
  1  3  1  0  0  0  0
  1  7  1  0  0  0  0
  1  2  2  0  0  0  0
 29 30  1  0  0  0  0
 30 38  1  0  0  0  0
 30 31  2  0  0  0  0
  8  9  1  0  0  0  0
  9 17  1  0  0  0  0
  9 10  2  0  0  0  0
 18 19  1  0  0  0  0
 19 28  1  0  0  0  0
 19 20  2  0  0  0  0
 29 32  1  0  0  0  0
  8 11  1  0  0  0  0
 38 39  1  0  0  0  0
 18 21  1  0  0  0  0
 21 22  1  0  0  0  0
 28 29  1  0  0  0  0
  7  8  1  0  0  0  0
 17 18  1  0  0  0  0
  3  4  1  0  0  0  0
  3  5  1  0  0  0  0
  3  6  1  0  0  0  0
 32 35  1  0  0  0  0
 32 36  1  0  0  0  0
 32 37  1  0  0  0  0
 11 14  1  0  0  0  0
 11 15  1  0  0  0  0
 11 16  1  0  0  0  0
 39 41  1  0  0  0  0
 39 42  1  0  0  0  0
 39 43  1  0  0  0  0
 21 25  1  0  0  0  0
 21 26  1  0  0  0  0
 29 34  1  0  0  0  0
  8 13  1  0  0  0  0
 18 24  1  0  0  0  0
 38 40  1  0  0  0  0
  7 12  1  0  0  0  0
 28 33  1  0  0  0  0
 17 23  1  0  0  0  0
 22 27  1  0  0  0  0
M  END
$$$$

  -OEChem-05262214473D

 43 42  0     1  0  0  0  0  0999 V2000
    0.7424   -1.0926    4.5665 C   0  0  0  0  0  0  0  0  0  0  0  0
    0.1409   -0.5364    5.4779 O   0  0  0  0  0  0  0  0  0  0  0  0
    1.7940   -2.1023    4.8871 C   0  0  0  0  0  0  0  0  0  0  0  0
    2.7935   -1.6502    4.9904 H   0  0  0  0  0  0  0  0  0  0  0  0
    1.6064   -2.6156    5.8438 H   0  0  0  0  0  0  0  0  0  0  0  0
    1.9156   -2.9078    4.1453 H   0  0  0  0  0  0  0  0  0  0  0  0
    0.5488   -0.8838    3.2109 N   0  0  0  0  0  0  0  0  0  0  0  0
   -0.4159    0.0446    2.6829 C   0  0  2  0  0  0  0  0  0  0  0  0
   -0.7551   -0.3867    1.2623 C   0  0  0  0  0  0  0  0  0  0  0  0
   -0.0106   -1.0851    0.5774 O   0  0  0  0  0  0  0  0  0  0  0  0
    0.1168    1.4689    2.7060 C   0  0  0  0  0  0  0  0  0  0  0  0
    1.1183   -1.4145    2.5542 H   0  0  0  0  0  0  0  0  0  0  0  0
   -1.3088   -0.0350    3.3125 H   0  0  0  0  0  0  0  0  0  0  0  0
    1.0116    1.5681    2.0808 H   0  0  0  0  0  0  0  0  0  0  0  0
   -0.6289    2.1775    2.3307 H   0  0  0  0  0  0  0  0  0  0  0  0
    0.3882    1.7670    3.7245 H   0  0  0  0  0  0  0  0  0  0  0  0
   -1.9689    0.1350    0.8298 N   0  0  0  0  0  0  0  0  0  0  0  0
   -2.5039   -0.1183   -0.4830 C   0  0  2  0  0  0  0  0  0  0  0  0
   -3.6413   -1.1249   -0.3484 C   0  0  0  0  0  0  0  0  0  0  0  0
   -4.0892   -1.7608   -1.3004 O   0  0  0  0  0  0  0  0  0  0  0  0
   -1.4260   -0.6009   -1.4483 C   0  0  0  0  0  0  0  0  0  0  0  0
   -0.9403   -1.8769   -1.0466 O   0  0  0  0  0  0  0  0  0  0  0  0
   -2.5276    0.6894    1.4750 H   0  0  0  0  0  0  0  0  0  0  0  0
   -2.9139    0.8342   -0.8380 H   0  0  0  0  0  0  0  0  0  0  0  0
   -0.5793    0.0927   -1.4710 H   0  0  0  0  0  0  0  0  0  0  0  0
   -1.8305   -0.6945   -2.4617 H   0  0  0  0  0  0  0  0  0  0  0  0
   -1.7004   -2.4799   -1.0572 H   0  0  0  0  0  0  0  0  0  0  0  0
   -4.0664   -1.2599    0.9656 N   0  0  0  0  0  0  0  0  0  0  0  0
   -5.1123   -2.1751    1.3594 C   0  0  2  0  0  0  0  0  0  0  0  0
   -5.0250   -3.4030    0.4627 C   0  0  0  0  0  0  0  0  0  0  0  0
   -4.4893   -3.3890   -0.6436 O   0  0  0  0  0  0  0  0  0  0  0  0
   -6.4833   -1.5249    1.2588 C   0  0  0  0  0  0  0  0  0  0  0  0
   -3.6100   -0.7213    1.6959 H   0  0  0  0  0  0  0  0  0  0  0  0
   -4.9062   -2.4637    2.3959 H   0  0  0  0  0  0  0  0  0  0  0  0
   -6.7075   -1.2289    0.2275 H   0  0  0  0  0  0  0  0  0  0  0  0
   -7.2725   -2.2105    1.5848 H   0  0  0  0  0  0  0  0  0  0  0  0
   -6.5346   -0.6252    1.8814 H   0  0  0  0  0  0  0  0  0  0  0  0
   -5.6536   -4.5054    1.0247 N   0  0  0  0  0  0  0  0  0  0  0  0
   -5.7184   -5.7874    0.3627 C   0  0  0  0  0  0  0  0  0  0  0  0
   -6.0550   -4.4314    1.9548 H   0  0  0  0  0  0  0  0  0  0  0  0
   -6.6487   -5.8527   -0.2207 H   0  0  0  0  0  0  0  0  0  0  0  0
   -4.8553   -5.8965   -0.3104 H   0  0  0  0  0  0  0  0  0  0  0  0
   -5.7005   -6.5897    1.1150 H   0  0  0  0  0  0  0  0  0  0  0  0
  1  3  1  0  0  0  0
  1  7  1  0  0  0  0
  1  2  2  0  0  0  0
 29 30  1  0  0  0  0
 30 38  1  0  0  0  0
 30 31  2  0  0  0  0
  8  9  1  0  0  0  0
  9 17  1  0  0  0  0
  9 10  2  0  0  0  0
 18 19  1  0  0  0  0
 19 28  1  0  0  0  0
 19 20  2  0  0  0  0
 29 32  1  0  0  0  0
  8 11  1  0  0  0  0
 38 39  1  0  0  0  0
 18 21  1  0  0  0  0
 21 22  1  0  0  0  0
 28 29  1  0  0  0  0
  7  8  1  0  0  0  0
 17 18  1  0  0  0  0
  3  4  1  0  0  0  0
  3  5  1  0  0  0  0
  3  6  1  0  0  0  0
 32 35  1  0  0  0  0
 32 36  1  0  0  0  0
 32 37  1  0  0  0  0
 11 14  1  0  0  0  0
 11 15  1  0  0  0  0
 11 16  1  0  0  0  0
 39 41  1  0  0  0  0
 39 42  1  0  0  0  0
 39 43  1  0  0  0  0
 21 25  1  0  0  0  0
 21 26  1  0  0  0  0
 29 34  1  0  0  0  0
  8 13  1  0  0  0  0
 18 24  1  0  0  0  0
 38 40  1  0  0  0  0
  7 12  1  0  0  0  0
 28 33  1  0  0  0  0
 17 23  1  0  0  0  0
 22 27  1  0  0  0  0
M  END
$$$$

  -OEChem-05262214473D

 43 42  0     1  0  0  0  0  0999 V2000
    0.7424   -1.0926    4.5665 C   0  0  0  0  0  0  0  0  0  0  0  0
    0.1409   -0.5364    5.4779 O   0  0  0  0  0  0  0  0  0  0  0  0
    1.7940   -2.1023    4.8871 C   0  0  0  0  0  0  0  0  0  0  0  0
    2.7935   -1.6502    4.9904 H   0  0  0  0  0  0  0  0  0  0  0  0
    1.6064   -2.6156    5.8438 H   0  0  0  0  0  0  0  0  0  0  0  0
    1.9156   -2.9078    4.1453 H   0  0  0  0  0  0  0  0  0  0  0  0
    0.5488   -0.8838    3.2109 N   0  0  0  0  0  0  0  0  0  0  0  0
   -0.4159    0.0446    2.6829 C   0  0  2  0  0  0  0  0  0  0  0  0
   -0.7551   -0.3867    1.2623 C   0  0  0  0  0  0  0  0  0  0  0  0
   -0.0106   -1.0851    0.5774 O   0  0  0  0  0  0  0  0  0  0  0  0
    0.1168    1.4689    2.7060 C   0  0  0  0  0  0  0  0  0  0  0  0
    1.1183   -1.4145    2.5542 H   0  0  0  0  0  0  0  0  0  0  0  0
   -1.3088   -0.0350    3.3125 H   0  0  0  0  0  0  0  0  0  0  0  0
    1.0116    1.5681    2.0808 H   0  0  0  0  0  0  0  0  0  0  0  0
   -0.6289    2.1775    2.3307 H   0  0  0  0  0  0  0  0  0  0  0  0
    0.3882    1.7670    3.7245 H   0  0  0  0  0  0  0  0  0  0  0  0
   -1.9689    0.1350    0.8298 N   0  0  0  0  0  0  0  0  0  0  0  0
   -2.5039   -0.1183   -0.4830 C   0  0  2  0  0  0  0  0  0  0  0  0
   -3.6413   -1.1249   -0.3484 C   0  0  0  0  0  0  0  0  0  0  0  0
   -3.9138   -1.9482   -1.2197 O   0  0  0  0  0  0  0  0  0  0  0  0
   -1.4260   -0.6009   -1.4483 C   0  0  0  0  0  0  0  0  0  0  0  0
   -0.9403   -1.8769   -1.0466 O   0  0  0  0  0  0  0  0  0  0  0  0
   -2.5276    0.6894    1.4750 H   0  0  0  0  0  0  0  0  0  0  0  0
   -2.9139    0.8342   -0.8380 H   0  0  0  0  0  0  0  0  0  0  0  0
   -0.5793    0.0927   -1.4710 H   0  0  0  0  0  0  0  0  0  0  0  0
   -1.8305   -0.6945   -2.4617 H   0  0  0  0  0  0  0  0  0  0  0  0
   -1.7004   -2.4799   -1.0572 H   0  0  0  0  0  0  0  0  0  0  0  0
   -4.2866   -1.0231    0.8758 N   0  0  0  0  0  0  0  0  0  0  0  0
   -5.3793   -1.8869    1.2585 C   0  0  2  0  0  0  0  0  0  0  0  0
   -5.1307   -3.2590    0.6463 C   0  0  0  0  0  0  0  0  0  0  0  0
   -4.4117   -3.4354   -0.3350 O   0  0  0  0  0  0  0  0  0  0  0  0
   -6.7162   -1.3227    0.8033 C   0  0  0  0  0  0  0  0  0  0  0  0
   -3.9668   -0.3372    1.5533 H   0  0  0  0  0  0  0  0  0  0  0  0
   -5.3541   -1.9637    2.3510 H   0  0  0  0  0  0  0  0  0  0  0  0
   -6.7602   -1.2384   -0.2887 H   0  0  0  0  0  0  0  0  0  0  0  0
   -7.5457   -1.9641    1.1189 H   0  0  0  0  0  0  0  0  0  0  0  0
   -6.8799   -0.3233    1.2207 H   0  0  0  0  0  0  0  0  0  0  0  0
   -5.8404   -4.2578    1.2983 N   0  0  0  0  0  0  0  0  0  0  0  0
   -5.7819   -5.6442    0.8978 C   0  0  0  0  0  0  0  0  0  0  0  0
   -6.3972   -4.0234    2.1148 H   0  0  0  0  0  0  0  0  0  0  0  0
   -6.5967   -5.8566    0.1900 H   0  0  0  0  0  0  0  0  0  0  0  0
   -4.8146   -5.8455    0.4143 H   0  0  0  0  0  0  0  0  0  0  0  0
   -5.8896   -6.2866    1.7842 H   0  0  0  0  0  0  0  0  0  0  0  0
  1  3  1  0  0  0  0
  1  7  1  0  0  0  0
  1  2  2  0  0  0  0
 29 30  1  0  0  0  0
 30 38  1  0  0  0  0
 30 31  2  0  0  0  0
  8  9  1  0  0  0  0
  9 17  1  0  0  0  0
  9 10  2  0  0  0  0
 18 19  1  0  0  0  0
 19 28  1  0  0  0  0
 19 20  2  0  0  0  0
 29 32  1  0  0  0  0
  8 11  1  0  0  0  0
 38 39  1  0  0  0  0
 18 21  1  0  0  0  0
 21 22  1  0  0  0  0
 28 29  1  0  0  0  0
  7  8  1  0  0  0  0
 17 18  1  0  0  0  0
  3  4  1  0  0  0  0
  3  5  1  0  0  0  0
  3  6  1  0  0  0  0
 32 35  1  0  0  0  0
 32 36  1  0  0  0  0
 32 37  1  0  0  0  0
 11 14  1  0  0  0  0
 11 15  1  0  0  0  0
 11 16  1  0  0  0  0
 39 41  1  0  0  0  0
 39 42  1  0  0  0  0
 39 43  1  0  0  0  0
 21 25  1  0  0  0  0
 21 26  1  0  0  0  0
 29 34  1  0  0  0  0
  8 13  1  0  0  0  0
 18 24  1  0  0  0  0
 38 40  1  0  0  0  0
  7 12  1  0  0  0  0
 28 33  1  0  0  0  0
 17 23  1  0  0  0  0
 22 27  1  0  0  0  0
M  END
$$$$

  -OEChem-05262214473D

 43 42  0     1  0  0  0  0  0999 V2000
    0.7424   -1.0926    4.5665 C   0  0  0  0  0  0  0  0  0  0  0  0
    0.1409   -0.5364    5.4779 O   0  0  0  0  0  0  0  0  0  0  0  0
    1.7940   -2.1023    4.8871 C   0  0  0  0  0  0  0  0  0  0  0  0
    2.7935   -1.6502    4.9904 H   0  0  0  0  0  0  0  0  0  0  0  0
    1.6064   -2.6156    5.8438 H   0  0  0  0  0  0  0  0  0  0  0  0
    1.9156   -2.9078    4.1453 H   0  0  0  0  0  0  0  0  0  0  0  0
    0.5488   -0.8838    3.2109 N   0  0  0  0  0  0  0  0  0  0  0  0
   -0.4159    0.0446    2.6829 C   0  0  2  0  0  0  0  0  0  0  0  0
   -0.7551   -0.3867    1.2623 C   0  0  0  0  0  0  0  0  0  0  0  0
   -0.0106   -1.0851    0.5774 O   0  0  0  0  0  0  0  0  0  0  0  0
    0.1168    1.4689    2.7060 C   0  0  0  0  0  0  0  0  0  0  0  0
    1.1183   -1.4145    2.5542 H   0  0  0  0  0  0  0  0  0  0  0  0
   -1.3088   -0.0350    3.3125 H   0  0  0  0  0  0  0  0  0  0  0  0
    1.0116    1.5681    2.0808 H   0  0  0  0  0  0  0  0  0  0  0  0
   -0.6289    2.1775    2.3307 H   0  0  0  0  0  0  0  0  0  0  0  0
    0.3882    1.7670    3.7245 H   0  0  0  0  0  0  0  0  0  0  0  0
   -1.9689    0.1350    0.8298 N   0  0  0  0  0  0  0  0  0  0  0  0
   -2.5039   -0.1183   -0.4830 C   0  0  2  0  0  0  0  0  0  0  0  0
   -3.6413   -1.1249   -0.3484 C   0  0  0  0  0  0  0  0  0  0  0  0
   -3.7539   -2.1096   -1.0756 O   0  0  0  0  0  0  0  0  0  0  0  0
   -1.4260   -0.6009   -1.4483 C   0  0  0  0  0  0  0  0  0  0  0  0
   -0.9403   -1.8769   -1.0466 O   0  0  0  0  0  0  0  0  0  0  0  0
   -2.5276    0.6894    1.4750 H   0  0  0  0  0  0  0  0  0  0  0  0
   -2.9139    0.8342   -0.8380 H   0  0  0  0  0  0  0  0  0  0  0  0
   -0.5793    0.0927   -1.4710 H   0  0  0  0  0  0  0  0  0  0  0  0
   -1.8305   -0.6945   -2.4617 H   0  0  0  0  0  0  0  0  0  0  0  0
   -1.7004   -2.4799   -1.0572 H   0  0  0  0  0  0  0  0  0  0  0  0
   -4.4894   -0.8167    0.7058 N   0  0  0  0  0  0  0  0  0  0  0  0
   -5.6266   -1.6340    1.0597 C   0  0  2  0  0  0  0  0  0  0  0  0
   -5.2674   -3.0870    0.7778 C   0  0  0  0  0  0  0  0  0  0  0  0
   -4.3884   -3.4190   -0.0147 O   0  0  0  0  0  0  0  0  0  0  0  0
   -6.8679   -1.2207    0.2845 C   0  0  0  0  0  0  0  0  0  0  0  0
   -4.2958   -0.0019    1.2805 H   0  0  0  0  0  0  0  0  0  0  0  0
   -5.7904   -1.4997    2.1345 H   0  0  0  0  0  0  0  0  0  0  0  0
   -6.7227   -1.3483   -0.7945 H   0  0  0  0  0  0  0  0  0  0  0  0
   -7.7356   -1.8223    0.5747 H   0  0  0  0  0  0  0  0  0  0  0  0
   -7.1075   -0.1672    0.4652 H   0  0  0  0  0  0  0  0  0  0  0  0
   -6.0732   -3.9700    1.4829 N   0  0  0  0  0  0  0  0  0  0  0  0
   -5.9379   -5.4040    1.3762 C   0  0  0  0  0  0  0  0  0  0  0  0
   -6.7644   -3.6062    2.1322 H   0  0  0  0  0  0  0  0  0  0  0  0
   -6.6165   -5.7799    0.5963 H   0  0  0  0  0  0  0  0  0  0  0  0
   -4.9003   -5.6555    1.1114 H   0  0  0  0  0  0  0  0  0  0  0  0
   -6.1934   -5.8690    2.3397 H   0  0  0  0  0  0  0  0  0  0  0  0
  1  3  1  0  0  0  0
  1  7  1  0  0  0  0
  1  2  2  0  0  0  0
 29 30  1  0  0  0  0
 30 38  1  0  0  0  0
 30 31  2  0  0  0  0
  8  9  1  0  0  0  0
  9 17  1  0  0  0  0
  9 10  2  0  0  0  0
 18 19  1  0  0  0  0
 19 28  1  0  0  0  0
 19 20  2  0  0  0  0
 29 32  1  0  0  0  0
  8 11  1  0  0  0  0
 38 39  1  0  0  0  0
 18 21  1  0  0  0  0
 21 22  1  0  0  0  0
 28 29  1  0  0  0  0
  7  8  1  0  0  0  0
 17 18  1  0  0  0  0
  3  4  1  0  0  0  0
  3  5  1  0  0  0  0
  3  6  1  0  0  0  0
 32 35  1  0  0  0  0
 32 36  1  0  0  0  0
 32 37  1  0  0  0  0
 11 14  1  0  0  0  0
 11 15  1  0  0  0  0
 11 16  1  0  0  0  0
 39 41  1  0  0  0  0
 39 42  1  0  0  0  0
 39 43  1  0  0  0  0
 21 25  1  0  0  0  0
 21 26  1  0  0  0  0
 29 34  1  0  0  0  0
  8 13  1  0  0  0  0
 18 24  1  0  0  0  0
 38 40  1  0  0  0  0
  7 12  1  0  0  0  0
 28 33  1  0  0  0  0
 17 23  1  0  0  0  0
 22 27  1  0  0  0  0
M  END
$$$$

  -OEChem-05262214473D

 43 42  0     1  0  0  0  0  0999 V2000
    0.7424   -1.0926    4.5665 C   0  0  0  0  0  0  0  0  0  0  0  0
    0.1409   -0.5364    5.4779 O   0  0  0  0  0  0  0  0  0  0  0  0
    1.7940   -2.1023    4.8871 C   0  0  0  0  0  0  0  0  0  0  0  0
    2.7935   -1.6502    4.9904 H   0  0  0  0  0  0  0  0  0  0  0  0
    1.6064   -2.6156    5.8438 H   0  0  0  0  0  0  0  0  0  0  0  0
    1.9156   -2.9078    4.1453 H   0  0  0  0  0  0  0  0  0  0  0  0
    0.5488   -0.8838    3.2109 N   0  0  0  0  0  0  0  0  0  0  0  0
   -0.4159    0.0446    2.6829 C   0  0  2  0  0  0  0  0  0  0  0  0
   -0.7551   -0.3867    1.2623 C   0  0  0  0  0  0  0  0  0  0  0  0
   -0.0106   -1.0851    0.5774 O   0  0  0  0  0  0  0  0  0  0  0  0
    0.1168    1.4689    2.7060 C   0  0  0  0  0  0  0  0  0  0  0  0
    1.1183   -1.4145    2.5542 H   0  0  0  0  0  0  0  0  0  0  0  0
   -1.3088   -0.0350    3.3125 H   0  0  0  0  0  0  0  0  0  0  0  0
    1.0116    1.5681    2.0808 H   0  0  0  0  0  0  0  0  0  0  0  0
   -0.6289    2.1775    2.3307 H   0  0  0  0  0  0  0  0  0  0  0  0
    0.3882    1.7670    3.7245 H   0  0  0  0  0  0  0  0  0  0  0  0
   -1.9689    0.1350    0.8298 N   0  0  0  0  0  0  0  0  0  0  0  0
   -2.5039   -0.1183   -0.4830 C   0  0  2  0  0  0  0  0  0  0  0  0
   -3.6413   -1.1249   -0.3484 C   0  0  0  0  0  0  0  0  0  0  0  0
   -3.6204   -2.2341   -0.8779 O   0  0  0  0  0  0  0  0  0  0  0  0
   -1.4260   -0.6009   -1.4483 C   0  0  0  0  0  0  0  0  0  0  0  0
   -0.9403   -1.8769   -1.0466 O   0  0  0  0  0  0  0  0  0  0  0  0
   -2.5276    0.6894    1.4750 H   0  0  0  0  0  0  0  0  0  0  0  0
   -2.9139    0.8342   -0.8380 H   0  0  0  0  0  0  0  0  0  0  0  0
   -0.5793    0.0927   -1.4710 H   0  0  0  0  0  0  0  0  0  0  0  0
   -1.8305   -0.6945   -2.4617 H   0  0  0  0  0  0  0  0  0  0  0  0
   -1.7004   -2.4799   -1.0572 H   0  0  0  0  0  0  0  0  0  0  0  0
   -4.6610   -0.6548    0.4670 N   0  0  0  0  0  0  0  0  0  0  0  0
   -5.8373   -1.4338    0.7767 C   0  0  2  0  0  0  0  0  0  0  0  0
   -5.4259   -2.8985    0.8482 C   0  0  0  0  0  0  0  0  0  0  0  0
   -4.4209   -3.3407    0.2955 O   0  0  0  0  0  0  0  0  0  0  0  0
   -6.9281   -1.2257   -0.2623 C   0  0  0  0  0  0  0  0  0  0  0  0
   -4.5747    0.2619    0.8960 H   0  0  0  0  0  0  0  0  0  0  0  0
   -6.1854   -1.1032    1.7613 H   0  0  0  0  0  0  0  0  0  0  0  0
   -6.5976   -1.5513   -1.2554 H   0  0  0  0  0  0  0  0  0  0  0  0
   -7.8293   -1.7947   -0.0109 H   0  0  0  0  0  0  0  0  0  0  0  0
   -7.2017   -0.1675   -0.3335 H   0  0  0  0  0  0  0  0  0  0  0  0
   -6.3362   -3.6617    1.5658 N   0  0  0  0  0  0  0  0  0  0  0  0
   -6.1757   -5.0832    1.7652 C   0  0  0  0  0  0  0  0  0  0  0  0
   -7.1315   -3.2082    2.0057 H   0  0  0  0  0  0  0  0  0  0  0  0
   -6.7069   -5.6277    0.9707 H   0  0  0  0  0  0  0  0  0  0  0  0
   -5.1065   -5.3394    1.7335 H   0  0  0  0  0  0  0  0  0  0  0  0
   -6.5914   -5.3652    2.7438 H   0  0  0  0  0  0  0  0  0  0  0  0
  1  3  1  0  0  0  0
  1  7  1  0  0  0  0
  1  2  2  0  0  0  0
 29 30  1  0  0  0  0
 30 38  1  0  0  0  0
 30 31  2  0  0  0  0
  8  9  1  0  0  0  0
  9 17  1  0  0  0  0
  9 10  2  0  0  0  0
 18 19  1  0  0  0  0
 19 28  1  0  0  0  0
 19 20  2  0  0  0  0
 29 32  1  0  0  0  0
  8 11  1  0  0  0  0
 38 39  1  0  0  0  0
 18 21  1  0  0  0  0
 21 22  1  0  0  0  0
 28 29  1  0  0  0  0
  7  8  1  0  0  0  0
 17 18  1  0  0  0  0
  3  4  1  0  0  0  0
  3  5  1  0  0  0  0
  3  6  1  0  0  0  0
 32 35  1  0  0  0  0
 32 36  1  0  0  0  0
 32 37  1  0  0  0  0
 11 14  1  0  0  0  0
 11 15  1  0  0  0  0
 11 16  1  0  0  0  0
 39 41  1  0  0  0  0
 39 42  1  0  0  0  0
 39 43  1  0  0  0  0
 21 25  1  0  0  0  0
 21 26  1  0  0  0  0
 29 34  1  0  0  0  0
  8 13  1  0  0  0  0
 18 24  1  0  0  0  0
 38 40  1  0  0  0  0
  7 12  1  0  0  0  0
 28 33  1  0  0  0  0
 17 23  1  0  0  0  0
 22 27  1  0  0  0  0
M  END
$$$$

  -OEChem-05262214473D

 43 42  0     1  0  0  0  0  0999 V2000
    0.7424   -1.0926    4.5665 C   0  0  0  0  0  0  0  0  0  0  0  0
    0.1409   -0.5364    5.4779 O   0  0  0  0  0  0  0  0  0  0  0  0
    1.7940   -2.1023    4.8871 C   0  0  0  0  0  0  0  0  0  0  0  0
    2.7935   -1.6502    4.9904 H   0  0  0  0  0  0  0  0  0  0  0  0
    1.6064   -2.6156    5.8438 H   0  0  0  0  0  0  0  0  0  0  0  0
    1.9156   -2.9078    4.1453 H   0  0  0  0  0  0  0  0  0  0  0  0
    0.5488   -0.8838    3.2109 N   0  0  0  0  0  0  0  0  0  0  0  0
   -0.4159    0.0446    2.6829 C   0  0  2  0  0  0  0  0  0  0  0  0
   -0.7551   -0.3867    1.2623 C   0  0  0  0  0  0  0  0  0  0  0  0
   -0.0106   -1.0851    0.5774 O   0  0  0  0  0  0  0  0  0  0  0  0
    0.1168    1.4689    2.7060 C   0  0  0  0  0  0  0  0  0  0  0  0
    1.1183   -1.4145    2.5542 H   0  0  0  0  0  0  0  0  0  0  0  0
   -1.3088   -0.0350    3.3125 H   0  0  0  0  0  0  0  0  0  0  0  0
    1.0116    1.5681    2.0808 H   0  0  0  0  0  0  0  0  0  0  0  0
   -0.6289    2.1775    2.3307 H   0  0  0  0  0  0  0  0  0  0  0  0
    0.3882    1.7670    3.7245 H   0  0  0  0  0  0  0  0  0  0  0  0
   -1.9689    0.1350    0.8298 N   0  0  0  0  0  0  0  0  0  0  0  0
   -2.5039   -0.1183   -0.4830 C   0  0  2  0  0  0  0  0  0  0  0  0
   -3.6413   -1.1249   -0.3484 C   0  0  0  0  0  0  0  0  0  0  0  0
   -3.5223   -2.3131   -0.6402 O   0  0  0  0  0  0  0  0  0  0  0  0
   -1.4260   -0.6009   -1.4483 C   0  0  0  0  0  0  0  0  0  0  0  0
   -0.9403   -1.8769   -1.0466 O   0  0  0  0  0  0  0  0  0  0  0  0
   -2.5276    0.6894    1.4750 H   0  0  0  0  0  0  0  0  0  0  0  0
   -2.9139    0.8342   -0.8380 H   0  0  0  0  0  0  0  0  0  0  0  0
   -0.5793    0.0927   -1.4710 H   0  0  0  0  0  0  0  0  0  0  0  0
   -1.8305   -0.6945   -2.4617 H   0  0  0  0  0  0  0  0  0  0  0  0
   -1.7004   -2.4799   -1.0572 H   0  0  0  0  0  0  0  0  0  0  0  0
   -4.7896   -0.5484    0.1758 N   0  0  0  0  0  0  0  0  0  0  0  0
   -5.9970   -1.2999    0.4286 C   0  0  2  0  0  0  0  0  0  0  0  0
   -5.5953   -2.7064    0.8527 C   0  0  0  0  0  0  0  0  0  0  0  0
   -4.5072   -3.2060    0.5744 O   0  0  0  0  0  0  0  0  0  0  0  0
   -6.8927   -1.3376   -0.7998 C   0  0  0  0  0  0  0  0  0  0  0  0
   -4.7844    0.4360    0.4260 H   0  0  0  0  0  0  0  0  0  0  0  0
   -6.5123   -0.8013    1.2567 H   0  0  0  0  0  0  0  0  0  0  0  0
   -6.3933   -1.8336   -1.6400 H   0  0  0  0  0  0  0  0  0  0  0  0
   -7.8203   -1.8832   -0.5978 H   0  0  0  0  0  0  0  0  0  0  0  0
   -7.1563   -0.3241   -1.1211 H   0  0  0  0  0  0  0  0  0  0  0  0
   -6.6114   -3.3540    1.5415 N   0  0  0  0  0  0  0  0  0  0  0  0
   -6.4793   -4.7036    2.0385 C   0  0  0  0  0  0  0  0  0  0  0  0
   -7.4737   -2.8566    1.7439 H   0  0  0  0  0  0  0  0  0  0  0  0
   -6.8616   -5.4106    1.2874 H   0  0  0  0  0  0  0  0  0  0  0  0
   -5.4192   -4.9186    2.2380 H   0  0  0  0  0  0  0  0  0  0  0  0
   -7.0564   -4.8097    2.9689 H   0  0  0  0  0  0  0  0  0  0  0  0
  1  3  1  0  0  0  0
  1  7  1  0  0  0  0
  1  2  2  0  0  0  0
 29 30  1  0  0  0  0
 30 38  1  0  0  0  0
 30 31  2  0  0  0  0
  8  9  1  0  0  0  0
  9 17  1  0  0  0  0
  9 10  2  0  0  0  0
 18 19  1  0  0  0  0
 19 28  1  0  0  0  0
 19 20  2  0  0  0  0
 29 32  1  0  0  0  0
  8 11  1  0  0  0  0
 38 39  1  0  0  0  0
 18 21  1  0  0  0  0
 21 22  1  0  0  0  0
 28 29  1  0  0  0  0
  7  8  1  0  0  0  0
 17 18  1  0  0  0  0
  3  4  1  0  0  0  0
  3  5  1  0  0  0  0
  3  6  1  0  0  0  0
 32 35  1  0  0  0  0
 32 36  1  0  0  0  0
 32 37  1  0  0  0  0
 11 14  1  0  0  0  0
 11 15  1  0  0  0  0
 11 16  1  0  0  0  0
 39 41  1  0  0  0  0
 39 42  1  0  0  0  0
 39 43  1  0  0  0  0
 21 25  1  0  0  0  0
 21 26  1  0  0  0  0
 29 34  1  0  0  0  0
  8 13  1  0  0  0  0
 18 24  1  0  0  0  0
 38 40  1  0  0  0  0
  7 12  1  0  0  0  0
 28 33  1  0  0  0  0
 17 23  1  0  0  0  0
 22 27  1  0  0  0  0
M  END
$$$$

  -OEChem-05262214473D

 43 42  0     1  0  0  0  0  0999 V2000
    0.7424   -1.0926    4.5665 C   0  0  0  0  0  0  0  0  0  0  0  0
    0.1409   -0.5364    5.4779 O   0  0  0  0  0  0  0  0  0  0  0  0
    1.7940   -2.1023    4.8871 C   0  0  0  0  0  0  0  0  0  0  0  0
    2.7935   -1.6502    4.9904 H   0  0  0  0  0  0  0  0  0  0  0  0
    1.6064   -2.6156    5.8438 H   0  0  0  0  0  0  0  0  0  0  0  0
    1.9156   -2.9078    4.1453 H   0  0  0  0  0  0  0  0  0  0  0  0
    0.5488   -0.8838    3.2109 N   0  0  0  0  0  0  0  0  0  0  0  0
   -0.4159    0.0446    2.6829 C   0  0  2  0  0  0  0  0  0  0  0  0
   -0.7551   -0.3867    1.2623 C   0  0  0  0  0  0  0  0  0  0  0  0
   -0.0106   -1.0851    0.5774 O   0  0  0  0  0  0  0  0  0  0  0  0
    0.1168    1.4689    2.7060 C   0  0  0  0  0  0  0  0  0  0  0  0
    1.1183   -1.4145    2.5542 H   0  0  0  0  0  0  0  0  0  0  0  0
   -1.3088   -0.0350    3.3125 H   0  0  0  0  0  0  0  0  0  0  0  0
    1.0116    1.5681    2.0808 H   0  0  0  0  0  0  0  0  0  0  0  0
   -0.6289    2.1775    2.3307 H   0  0  0  0  0  0  0  0  0  0  0  0
    0.3882    1.7670    3.7245 H   0  0  0  0  0  0  0  0  0  0  0  0
   -1.9689    0.1350    0.8298 N   0  0  0  0  0  0  0  0  0  0  0  0
   -2.5039   -0.1183   -0.4830 C   0  0  2  0  0  0  0  0  0  0  0  0
   -3.6413   -1.1249   -0.3484 C   0  0  0  0  0  0  0  0  0  0  0  0
   -3.4664   -2.3413   -0.3785 O   0  0  0  0  0  0  0  0  0  0  0  0
   -1.4260   -0.6009   -1.4483 C   0  0  0  0  0  0  0  0  0  0  0  0
   -0.9403   -1.8769   -1.0466 O   0  0  0  0  0  0  0  0  0  0  0  0
   -2.5276    0.6894    1.4750 H   0  0  0  0  0  0  0  0  0  0  0  0
   -2.9139    0.8342   -0.8380 H   0  0  0  0  0  0  0  0  0  0  0  0
   -0.5793    0.0927   -1.4710 H   0  0  0  0  0  0  0  0  0  0  0  0
   -1.8305   -0.6945   -2.4617 H   0  0  0  0  0  0  0  0  0  0  0  0
   -1.7004   -2.4799   -1.0572 H   0  0  0  0  0  0  0  0  0  0  0  0
   -4.8664   -0.5048   -0.1480 N   0  0  0  0  0  0  0  0  0  0  0  0
   -6.0948   -1.2414    0.0393 C   0  0  2  0  0  0  0  0  0  0  0  0
   -5.7641   -2.5239    0.7911 C   0  0  0  0  0  0  0  0  0  0  0  0
   -4.6412   -3.0239    0.8031 O   0  0  0  0  0  0  0  0  0  0  0  0
   -6.7642   -1.5485   -1.2913 C   0  0  0  0  0  0  0  0  0  0  0  0
   -4.9107    0.5087   -0.0973 H   0  0  0  0  0  0  0  0  0  0  0  0
   -6.7487   -0.6145    0.6552 H   0  0  0  0  0  0  0  0  0  0  0  0
   -6.1239   -2.1758   -1.9222 H   0  0  0  0  0  0  0  0  0  0  0  0
   -7.7094   -2.0819   -1.1461 H   0  0  0  0  0  0  0  0  0  0  0  0
   -6.9743   -0.6264   -1.8439 H   0  0  0  0  0  0  0  0  0  0  0  0
   -6.8802   -3.0677    1.4115 N   0  0  0  0  0  0  0  0  0  0  0  0
   -6.8279   -4.2912    2.1772 C   0  0  0  0  0  0  0  0  0  0  0  0
   -7.7674   -2.5754    1.3648 H   0  0  0  0  0  0  0  0  0  0  0  0
   -7.0701   -5.1432    1.5250 H   0  0  0  0  0  0  0  0  0  0  0  0
   -5.8170   -4.4219    2.5908 H   0  0  0  0  0  0  0  0  0  0  0  0
   -7.5567   -4.2403    2.9996 H   0  0  0  0  0  0  0  0  0  0  0  0
  1  3  1  0  0  0  0
  1  7  1  0  0  0  0
  1  2  2  0  0  0  0
 29 30  1  0  0  0  0
 30 38  1  0  0  0  0
 30 31  2  0  0  0  0
  8  9  1  0  0  0  0
  9 17  1  0  0  0  0
  9 10  2  0  0  0  0
 18 19  1  0  0  0  0
 19 28  1  0  0  0  0
 19 20  2  0  0  0  0
 29 32  1  0  0  0  0
  8 11  1  0  0  0  0
 38 39  1  0  0  0  0
 18 21  1  0  0  0  0
 21 22  1  0  0  0  0
 28 29  1  0  0  0  0
  7  8  1  0  0  0  0
 17 18  1  0  0  0  0
  3  4  1  0  0  0  0
  3  5  1  0  0  0  0
  3  6  1  0  0  0  0
 32 35  1  0  0  0  0
 32 36  1  0  0  0  0
 32 37  1  0  0  0  0
 11 14  1  0  0  0  0
 11 15  1  0  0  0  0
 11 16  1  0  0  0  0
 39 41  1  0  0  0  0
 39 42  1  0  0  0  0
 39 43  1  0  0  0  0
 21 25  1  0  0  0  0
 21 26  1  0  0  0  0
 29 34  1  0  0  0  0
  8 13  1  0  0  0  0
 18 24  1  0  0  0  0
 38 40  1  0  0  0  0
  7 12  1  0  0  0  0
 28 33  1  0  0  0  0
 17 23  1  0  0  0  0
 22 27  1  0  0  0  0
M  END
$$$$

  -OEChem-05262214473D

 43 42  0     1  0  0  0  0  0999 V2000
    0.7424   -1.0926    4.5665 C   0  0  0  0  0  0  0  0  0  0  0  0
    0.1409   -0.5364    5.4779 O   0  0  0  0  0  0  0  0  0  0  0  0
    1.7940   -2.1023    4.8871 C   0  0  0  0  0  0  0  0  0  0  0  0
    2.7935   -1.6502    4.9904 H   0  0  0  0  0  0  0  0  0  0  0  0
    1.6064   -2.6156    5.8438 H   0  0  0  0  0  0  0  0  0  0  0  0
    1.9156   -2.9078    4.1453 H   0  0  0  0  0  0  0  0  0  0  0  0
    0.5488   -0.8838    3.2109 N   0  0  0  0  0  0  0  0  0  0  0  0
   -0.4159    0.0446    2.6829 C   0  0  2  0  0  0  0  0  0  0  0  0
   -0.7551   -0.3867    1.2623 C   0  0  0  0  0  0  0  0  0  0  0  0
   -0.0106   -1.0851    0.5774 O   0  0  0  0  0  0  0  0  0  0  0  0
    0.1168    1.4689    2.7060 C   0  0  0  0  0  0  0  0  0  0  0  0
    1.1183   -1.4145    2.5542 H   0  0  0  0  0  0  0  0  0  0  0  0
   -1.3088   -0.0350    3.3125 H   0  0  0  0  0  0  0  0  0  0  0  0
    1.0116    1.5681    2.0808 H   0  0  0  0  0  0  0  0  0  0  0  0
   -0.6289    2.1775    2.3307 H   0  0  0  0  0  0  0  0  0  0  0  0
    0.3882    1.7670    3.7245 H   0  0  0  0  0  0  0  0  0  0  0  0
   -1.9689    0.1350    0.8298 N   0  0  0  0  0  0  0  0  0  0  0  0
   -2.5039   -0.1183   -0.4830 C   0  0  2  0  0  0  0  0  0  0  0  0
   -3.6413   -1.1249   -0.3484 C   0  0  0  0  0  0  0  0  0  0  0  0
   -3.4565   -2.3167   -0.1107 O   0  0  0  0  0  0  0  0  0  0  0  0
   -1.4260   -0.6009   -1.4483 C   0  0  0  0  0  0  0  0  0  0  0  0
   -0.9403   -1.8769   -1.0466 O   0  0  0  0  0  0  0  0  0  0  0  0
   -2.5276    0.6894    1.4750 H   0  0  0  0  0  0  0  0  0  0  0  0
   -2.9139    0.8342   -0.8380 H   0  0  0  0  0  0  0  0  0  0  0  0
   -0.5793    0.0927   -1.4710 H   0  0  0  0  0  0  0  0  0  0  0  0
   -1.8305   -0.6945   -2.4617 H   0  0  0  0  0  0  0  0  0  0  0  0
   -1.7004   -2.4799   -1.0572 H   0  0  0  0  0  0  0  0  0  0  0  0
   -4.8864   -0.5270   -0.4823 N   0  0  0  0  0  0  0  0  0  0  0  0
   -6.1241   -1.2623   -0.3648 C   0  0  2  0  0  0  0  0  0  0  0  0
   -5.9208   -2.3634    0.6675 C   0  0  0  0  0  0  0  0  0  0  0  0
   -4.8139   -2.8070    0.9660 O   0  0  0  0  0  0  0  0  0  0  0  0
   -6.5512   -1.8443   -1.7034 C   0  0  0  0  0  0  0  0  0  0  0  0
   -4.9448    0.4750   -0.6385 H   0  0  0  0  0  0  0  0  0  0  0  0
   -6.8786   -0.5557   -0.0022 H   0  0  0  0  0  0  0  0  0  0  0  0
   -5.8075   -2.5546   -2.0826 H   0  0  0  0  0  0  0  0  0  0  0  0
   -7.5040   -2.3771   -1.6185 H   0  0  0  0  0  0  0  0  0  0  0  0
   -6.6680   -1.0538   -2.4526 H   0  0  0  0  0  0  0  0  0  0  0  0
   -7.1241   -2.8224    1.1848 N   0  0  0  0  0  0  0  0  0  0  0  0
   -7.1978   -3.8740    2.1721 C   0  0  0  0  0  0  0  0  0  0  0  0
   -7.9928   -2.3836    0.8940 H   0  0  0  0  0  0  0  0  0  0  0  0
   -7.3182   -4.8438    1.6672 H   0  0  0  0  0  0  0  0  0  0  0  0
   -6.2729   -3.8831    2.7676 H   0  0  0  0  0  0  0  0  0  0  0  0
   -8.0582   -3.6958    2.8339 H   0  0  0  0  0  0  0  0  0  0  0  0
  1  3  1  0  0  0  0
  1  7  1  0  0  0  0
  1  2  2  0  0  0  0
 29 30  1  0  0  0  0
 30 38  1  0  0  0  0
 30 31  2  0  0  0  0
  8  9  1  0  0  0  0
  9 17  1  0  0  0  0
  9 10  2  0  0  0  0
 18 19  1  0  0  0  0
 19 28  1  0  0  0  0
 19 20  2  0  0  0  0
 29 32  1  0  0  0  0
  8 11  1  0  0  0  0
 38 39  1  0  0  0  0
 18 21  1  0  0  0  0
 21 22  1  0  0  0  0
 28 29  1  0  0  0  0
  7  8  1  0  0  0  0
 17 18  1  0  0  0  0
  3  4  1  0  0  0  0
  3  5  1  0  0  0  0
  3  6  1  0  0  0  0
 32 35  1  0  0  0  0
 32 36  1  0  0  0  0
 32 37  1  0  0  0  0
 11 14  1  0  0  0  0
 11 15  1  0  0  0  0
 11 16  1  0  0  0  0
 39 41  1  0  0  0  0
 39 42  1  0  0  0  0
 39 43  1  0  0  0  0
 21 25  1  0  0  0  0
 21 26  1  0  0  0  0
 29 34  1  0  0  0  0
  8 13  1  0  0  0  0
 18 24  1  0  0  0  0
 38 40  1  0  0  0  0
  7 12  1  0  0  0  0
 28 33  1  0  0  0  0
 17 23  1  0  0  0  0
 22 27  1  0  0  0  0
M  END
$$$$

  -OEChem-05262214473D

 43 42  0     1  0  0  0  0  0999 V2000
    0.7424   -1.0926    4.5665 C   0  0  0  0  0  0  0  0  0  0  0  0
    0.1409   -0.5364    5.4779 O   0  0  0  0  0  0  0  0  0  0  0  0
    1.7940   -2.1023    4.8871 C   0  0  0  0  0  0  0  0  0  0  0  0
    2.7935   -1.6502    4.9904 H   0  0  0  0  0  0  0  0  0  0  0  0
    1.6064   -2.6156    5.8438 H   0  0  0  0  0  0  0  0  0  0  0  0
    1.9156   -2.9078    4.1453 H   0  0  0  0  0  0  0  0  0  0  0  0
    0.5488   -0.8838    3.2109 N   0  0  0  0  0  0  0  0  0  0  0  0
   -0.4159    0.0446    2.6829 C   0  0  2  0  0  0  0  0  0  0  0  0
   -0.7551   -0.3867    1.2623 C   0  0  0  0  0  0  0  0  0  0  0  0
   -0.0106   -1.0851    0.5774 O   0  0  0  0  0  0  0  0  0  0  0  0
    0.1168    1.4689    2.7060 C   0  0  0  0  0  0  0  0  0  0  0  0
    1.1183   -1.4145    2.5542 H   0  0  0  0  0  0  0  0  0  0  0  0
   -1.3088   -0.0350    3.3125 H   0  0  0  0  0  0  0  0  0  0  0  0
    1.0116    1.5681    2.0808 H   0  0  0  0  0  0  0  0  0  0  0  0
   -0.6289    2.1775    2.3307 H   0  0  0  0  0  0  0  0  0  0  0  0
    0.3882    1.7670    3.7245 H   0  0  0  0  0  0  0  0  0  0  0  0
   -1.9689    0.1350    0.8298 N   0  0  0  0  0  0  0  0  0  0  0  0
   -2.5039   -0.1183   -0.4830 C   0  0  2  0  0  0  0  0  0  0  0  0
   -3.6413   -1.1249   -0.3484 C   0  0  0  0  0  0  0  0  0  0  0  0
   -3.4932   -2.2411    0.1449 O   0  0  0  0  0  0  0  0  0  0  0  0
   -1.4260   -0.6009   -1.4483 C   0  0  0  0  0  0  0  0  0  0  0  0
   -0.9403   -1.8769   -1.0466 O   0  0  0  0  0  0  0  0  0  0  0  0
   -2.5276    0.6894    1.4750 H   0  0  0  0  0  0  0  0  0  0  0  0
   -2.9139    0.8342   -0.8380 H   0  0  0  0  0  0  0  0  0  0  0  0
   -0.5793    0.0927   -1.4710 H   0  0  0  0  0  0  0  0  0  0  0  0
   -1.8305   -0.6945   -2.4617 H   0  0  0  0  0  0  0  0  0  0  0  0
   -1.7004   -2.4799   -1.0572 H   0  0  0  0  0  0  0  0  0  0  0  0
   -4.8480   -0.6134   -0.8044 N   0  0  0  0  0  0  0  0  0  0  0  0
   -6.0829   -1.3611   -0.7561 C   0  0  2  0  0  0  0  0  0  0  0  0
   -6.0547   -2.2358    0.4904 C   0  0  0  0  0  0  0  0  0  0  0  0
   -5.0136   -2.5700    1.0519 O   0  0  0  0  0  0  0  0  0  0  0  0
   -6.2683   -2.2046   -2.0079 C   0  0  0  0  0  0  0  0  0  0  0  0
   -4.8846    0.3372   -1.1605 H   0  0  0  0  0  0  0  0  0  0  0  0
   -6.8930   -0.6287   -0.6708 H   0  0  0  0  0  0  0  0  0  0  0  0
   -5.4659   -2.9443   -2.1104 H   0  0  0  0  0  0  0  0  0  0  0  0
   -7.2182   -2.7487   -1.9826 H   0  0  0  0  0  0  0  0  0  0  0  0
   -6.2585   -1.5771   -2.9056 H   0  0  0  0  0  0  0  0  0  0  0  0
   -7.3266   -2.6347    0.8768 N   0  0  0  0  0  0  0  0  0  0  0  0
   -7.5637   -3.4804    2.0234 C   0  0  0  0  0  0  0  0  0  0  0  0
   -8.1345   -2.2944    0.3638 H   0  0  0  0  0  0  0  0  0  0  0  0
   -7.5890   -4.5328    1.7045 H   0  0  0  0  0  0  0  0  0  0  0  0
   -6.7558   -3.3389    2.7565 H   0  0  0  0  0  0  0  0  0  0  0  0
   -8.5267   -3.2133    2.4830 H   0  0  0  0  0  0  0  0  0  0  0  0
  1  3  1  0  0  0  0
  1  7  1  0  0  0  0
  1  2  2  0  0  0  0
 29 30  1  0  0  0  0
 30 38  1  0  0  0  0
 30 31  2  0  0  0  0
  8  9  1  0  0  0  0
  9 17  1  0  0  0  0
  9 10  2  0  0  0  0
 18 19  1  0  0  0  0
 19 28  1  0  0  0  0
 19 20  2  0  0  0  0
 29 32  1  0  0  0  0
  8 11  1  0  0  0  0
 38 39  1  0  0  0  0
 18 21  1  0  0  0  0
 21 22  1  0  0  0  0
 28 29  1  0  0  0  0
  7  8  1  0  0  0  0
 17 18  1  0  0  0  0
  3  4  1  0  0  0  0
  3  5  1  0  0  0  0
  3  6  1  0  0  0  0
 32 35  1  0  0  0  0
 32 36  1  0  0  0  0
 32 37  1  0  0  0  0
 11 14  1  0  0  0  0
 11 15  1  0  0  0  0
 11 16  1  0  0  0  0
 39 41  1  0  0  0  0
 39 42  1  0  0  0  0
 39 43  1  0  0  0  0
 21 25  1  0  0  0  0
 21 26  1  0  0  0  0
 29 34  1  0  0  0  0
  8 13  1  0  0  0  0
 18 24  1  0  0  0  0
 38 40  1  0  0  0  0
  7 12  1  0  0  0  0
 28 33  1  0  0  0  0
 17 23  1  0  0  0  0
 22 27  1  0  0  0  0
M  END
$$$$

  -OEChem-05262214473D

 43 42  0     1  0  0  0  0  0999 V2000
    0.7424   -1.0926    4.5665 C   0  0  0  0  0  0  0  0  0  0  0  0
    0.1409   -0.5364    5.4779 O   0  0  0  0  0  0  0  0  0  0  0  0
    1.7940   -2.1023    4.8871 C   0  0  0  0  0  0  0  0  0  0  0  0
    2.7935   -1.6502    4.9904 H   0  0  0  0  0  0  0  0  0  0  0  0
    1.6064   -2.6156    5.8438 H   0  0  0  0  0  0  0  0  0  0  0  0
    1.9156   -2.9078    4.1453 H   0  0  0  0  0  0  0  0  0  0  0  0
    0.5488   -0.8838    3.2109 N   0  0  0  0  0  0  0  0  0  0  0  0
   -0.4159    0.0446    2.6829 C   0  0  2  0  0  0  0  0  0  0  0  0
   -0.7551   -0.3867    1.2623 C   0  0  0  0  0  0  0  0  0  0  0  0
   -0.0106   -1.0851    0.5774 O   0  0  0  0  0  0  0  0  0  0  0  0
    0.1168    1.4689    2.7060 C   0  0  0  0  0  0  0  0  0  0  0  0
    1.1183   -1.4145    2.5542 H   0  0  0  0  0  0  0  0  0  0  0  0
   -1.3088   -0.0350    3.3125 H   0  0  0  0  0  0  0  0  0  0  0  0
    1.0116    1.5681    2.0808 H   0  0  0  0  0  0  0  0  0  0  0  0
   -0.6289    2.1775    2.3307 H   0  0  0  0  0  0  0  0  0  0  0  0
    0.3882    1.7670    3.7245 H   0  0  0  0  0  0  0  0  0  0  0  0
   -1.9689    0.1350    0.8298 N   0  0  0  0  0  0  0  0  0  0  0  0
   -2.5039   -0.1183   -0.4830 C   0  0  2  0  0  0  0  0  0  0  0  0
   -3.6413   -1.1249   -0.3484 C   0  0  0  0  0  0  0  0  0  0  0  0
   -3.5741   -2.1195    0.3709 O   0  0  0  0  0  0  0  0  0  0  0  0
   -1.4260   -0.6009   -1.4483 C   0  0  0  0  0  0  0  0  0  0  0  0
   -0.9403   -1.8769   -1.0466 O   0  0  0  0  0  0  0  0  0  0  0  0
   -2.5276    0.6894    1.4750 H   0  0  0  0  0  0  0  0  0  0  0  0
   -2.9139    0.8342   -0.8380 H   0  0  0  0  0  0  0  0  0  0  0  0
   -0.5793    0.0927   -1.4710 H   0  0  0  0  0  0  0  0  0  0  0  0
   -1.8305   -0.6945   -2.4617 H   0  0  0  0  0  0  0  0  0  0  0  0
   -1.7004   -2.4799   -1.0572 H   0  0  0  0  0  0  0  0  0  0  0  0
   -4.7539   -0.7581   -1.0922 N   0  0  0  0  0  0  0  0  0  0  0  0
   -5.9740   -1.5312   -1.1080 C   0  0  2  0  0  0  0  0  0  0  0  0
   -6.1567   -2.1498    0.2717 C   0  0  0  0  0  0  0  0  0  0  0  0
   -5.2265   -2.3290    1.0550 O   0  0  0  0  0  0  0  0  0  0  0  0
   -5.9348   -2.6050   -2.1842 C   0  0  0  0  0  0  0  0  0  0  0  0
   -4.7341    0.1046   -1.6279 H   0  0  0  0  0  0  0  0  0  0  0  0
   -6.7911   -0.8287   -1.3050 H   0  0  0  0  0  0  0  0  0  0  0  0
   -5.1223   -3.3183   -2.0036 H   0  0  0  0  0  0  0  0  0  0  0  0
   -6.8714   -3.1715   -2.2138 H   0  0  0  0  0  0  0  0  0  0  0  0
   -5.7735   -2.1607   -3.1723 H   0  0  0  0  0  0  0  0  0  0  0  0
   -7.4738   -2.5176    0.5085 N   0  0  0  0  0  0  0  0  0  0  0  0
   -7.9007   -3.1373    1.7413 C   0  0  0  0  0  0  0  0  0  0  0  0
   -8.1828   -2.3139   -0.1898 H   0  0  0  0  0  0  0  0  0  0  0  0
   -7.8641   -4.2315    1.6341 H   0  0  0  0  0  0  0  0  0  0  0  0
   -7.2328   -2.8265    2.5582 H   0  0  0  0  0  0  0  0  0  0  0  0
   -8.9303   -2.8257    1.9708 H   0  0  0  0  0  0  0  0  0  0  0  0
  1  3  1  0  0  0  0
  1  7  1  0  0  0  0
  1  2  2  0  0  0  0
 29 30  1  0  0  0  0
 30 38  1  0  0  0  0
 30 31  2  0  0  0  0
  8  9  1  0  0  0  0
  9 17  1  0  0  0  0
  9 10  2  0  0  0  0
 18 19  1  0  0  0  0
 19 28  1  0  0  0  0
 19 20  2  0  0  0  0
 29 32  1  0  0  0  0
  8 11  1  0  0  0  0
 38 39  1  0  0  0  0
 18 21  1  0  0  0  0
 21 22  1  0  0  0  0
 28 29  1  0  0  0  0
  7  8  1  0  0  0  0
 17 18  1  0  0  0  0
  3  4  1  0  0  0  0
  3  5  1  0  0  0  0
  3  6  1  0  0  0  0
 32 35  1  0  0  0  0
 32 36  1  0  0  0  0
 32 37  1  0  0  0  0
 11 14  1  0  0  0  0
 11 15  1  0  0  0  0
 11 16  1  0  0  0  0
 39 41  1  0  0  0  0
 39 42  1  0  0  0  0
 39 43  1  0  0  0  0
 21 25  1  0  0  0  0
 21 26  1  0  0  0  0
 29 34  1  0  0  0  0
  8 13  1  0  0  0  0
 18 24  1  0  0  0  0
 38 40  1  0  0  0  0
  7 12  1  0  0  0  0
 28 33  1  0  0  0  0
 17 23  1  0  0  0  0
 22 27  1  0  0  0  0
M  END
$$$$

  -OEChem-05262214473D

 43 42  0     1  0  0  0  0  0999 V2000
    0.7424   -1.0926    4.5665 C   0  0  0  0  0  0  0  0  0  0  0  0
    0.1409   -0.5364    5.4779 O   0  0  0  0  0  0  0  0  0  0  0  0
    1.7940   -2.1023    4.8871 C   0  0  0  0  0  0  0  0  0  0  0  0
    2.7935   -1.6502    4.9904 H   0  0  0  0  0  0  0  0  0  0  0  0
    1.6064   -2.6156    5.8438 H   0  0  0  0  0  0  0  0  0  0  0  0
    1.9156   -2.9078    4.1453 H   0  0  0  0  0  0  0  0  0  0  0  0
    0.5488   -0.8838    3.2109 N   0  0  0  0  0  0  0  0  0  0  0  0
   -0.4159    0.0446    2.6829 C   0  0  2  0  0  0  0  0  0  0  0  0
   -0.7551   -0.3867    1.2623 C   0  0  0  0  0  0  0  0  0  0  0  0
   -0.0106   -1.0851    0.5774 O   0  0  0  0  0  0  0  0  0  0  0  0
    0.1168    1.4689    2.7060 C   0  0  0  0  0  0  0  0  0  0  0  0
    1.1183   -1.4145    2.5542 H   0  0  0  0  0  0  0  0  0  0  0  0
   -1.3088   -0.0350    3.3125 H   0  0  0  0  0  0  0  0  0  0  0  0
    1.0116    1.5681    2.0808 H   0  0  0  0  0  0  0  0  0  0  0  0
   -0.6289    2.1775    2.3307 H   0  0  0  0  0  0  0  0  0  0  0  0
    0.3882    1.7670    3.7245 H   0  0  0  0  0  0  0  0  0  0  0  0
   -1.9689    0.1350    0.8298 N   0  0  0  0  0  0  0  0  0  0  0  0
   -2.5039   -0.1183   -0.4830 C   0  0  2  0  0  0  0  0  0  0  0  0
   -3.6413   -1.1249   -0.3484 C   0  0  0  0  0  0  0  0  0  0  0  0
   -3.6936   -1.9603    0.5519 O   0  0  0  0  0  0  0  0  0  0  0  0
   -1.4260   -0.6009   -1.4483 C   0  0  0  0  0  0  0  0  0  0  0  0
   -0.9403   -1.8769   -1.0466 O   0  0  0  0  0  0  0  0  0  0  0  0
   -2.5276    0.6894    1.4750 H   0  0  0  0  0  0  0  0  0  0  0  0
   -2.9139    0.8342   -0.8380 H   0  0  0  0  0  0  0  0  0  0  0  0
   -0.5793    0.0927   -1.4710 H   0  0  0  0  0  0  0  0  0  0  0  0
   -1.8305   -0.6945   -2.4617 H   0  0  0  0  0  0  0  0  0  0  0  0
   -1.7004   -2.4799   -1.0572 H   0  0  0  0  0  0  0  0  0  0  0  0
   -4.6106   -0.9514   -1.3262 N   0  0  0  0  0  0  0  0  0  0  0  0
   -5.8048   -1.7610   -1.3964 C   0  0  2  0  0  0  0  0  0  0  0  0
   -6.2198   -2.1112    0.0265 C   0  0  0  0  0  0  0  0  0  0  0  0
   -5.4381   -2.1005    0.9751 O   0  0  0  0  0  0  0  0  0  0  0  0
   -5.5734   -3.0182   -2.2201 C   0  0  0  0  0  0  0  0  0  0  0  0
   -4.5036   -0.2068   -2.0087 H   0  0  0  0  0  0  0  0  0  0  0  0
   -6.5797   -1.1419   -1.8615 H   0  0  0  0  0  0  0  0  0  0  0  0
   -4.8001   -3.6511   -1.7696 H   0  0  0  0  0  0  0  0  0  0  0  0
   -6.4873   -3.6165   -2.2962 H   0  0  0  0  0  0  0  0  0  0  0  0
   -5.2462   -2.7649   -3.2343 H   0  0  0  0  0  0  0  0  0  0  0  0
   -7.5558   -2.4789    0.1049 N   0  0  0  0  0  0  0  0  0  0  0  0
   -8.1858   -2.8681    1.3449 C   0  0  0  0  0  0  0  0  0  0  0  0
   -8.1344   -2.4406   -0.7291 H   0  0  0  0  0  0  0  0  0  0  0  0
   -8.1246   -3.9602    1.4610 H   0  0  0  0  0  0  0  0  0  0  0  0
   -7.6713   -2.3807    2.1862 H   0  0  0  0  0  0  0  0  0  0  0  0
   -9.2416   -2.5594    1.3323 H   0  0  0  0  0  0  0  0  0  0  0  0
  1  3  1  0  0  0  0
  1  7  1  0  0  0  0
  1  2  2  0  0  0  0
 29 30  1  0  0  0  0
 30 38  1  0  0  0  0
 30 31  2  0  0  0  0
  8  9  1  0  0  0  0
  9 17  1  0  0  0  0
  9 10  2  0  0  0  0
 18 19  1  0  0  0  0
 19 28  1  0  0  0  0
 19 20  2  0  0  0  0
 29 32  1  0  0  0  0
  8 11  1  0  0  0  0
 38 39  1  0  0  0  0
 18 21  1  0  0  0  0
 21 22  1  0  0  0  0
 28 29  1  0  0  0  0
  7  8  1  0  0  0  0
 17 18  1  0  0  0  0
  3  4  1  0  0  0  0
  3  5  1  0  0  0  0
  3  6  1  0  0  0  0
 32 35  1  0  0  0  0
 32 36  1  0  0  0  0
 32 37  1  0  0  0  0
 11 14  1  0  0  0  0
 11 15  1  0  0  0  0
 11 16  1  0  0  0  0
 39 41  1  0  0  0  0
 39 42  1  0  0  0  0
 39 43  1  0  0  0  0
 21 25  1  0  0  0  0
 21 26  1  0  0  0  0
 29 34  1  0  0  0  0
  8 13  1  0  0  0  0
 18 24  1  0  0  0  0
 38 40  1  0  0  0  0
  7 12  1  0  0  0  0
 28 33  1  0  0  0  0
 17 23  1  0  0  0  0
 22 27  1  0  0  0  0
M  END
$$$$

  -OEChem-05262214473D

 43 42  0     1  0  0  0  0  0999 V2000
    0.7424   -1.0926    4.5665 C   0  0  0  0  0  0  0  0  0  0  0  0
    0.1409   -0.5364    5.4779 O   0  0  0  0  0  0  0  0  0  0  0  0
    1.7940   -2.1023    4.8871 C   0  0  0  0  0  0  0  0  0  0  0  0
    2.7935   -1.6502    4.9904 H   0  0  0  0  0  0  0  0  0  0  0  0
    1.6064   -2.6156    5.8438 H   0  0  0  0  0  0  0  0  0  0  0  0
    1.9156   -2.9078    4.1453 H   0  0  0  0  0  0  0  0  0  0  0  0
    0.5488   -0.8838    3.2109 N   0  0  0  0  0  0  0  0  0  0  0  0
   -0.4159    0.0446    2.6829 C   0  0  2  0  0  0  0  0  0  0  0  0
   -0.7551   -0.3867    1.2623 C   0  0  0  0  0  0  0  0  0  0  0  0
   -0.0106   -1.0851    0.5774 O   0  0  0  0  0  0  0  0  0  0  0  0
    0.1168    1.4689    2.7060 C   0  0  0  0  0  0  0  0  0  0  0  0
    1.1183   -1.4145    2.5542 H   0  0  0  0  0  0  0  0  0  0  0  0
   -1.3088   -0.0350    3.3125 H   0  0  0  0  0  0  0  0  0  0  0  0
    1.0116    1.5681    2.0808 H   0  0  0  0  0  0  0  0  0  0  0  0
   -0.6289    2.1775    2.3307 H   0  0  0  0  0  0  0  0  0  0  0  0
    0.3882    1.7670    3.7245 H   0  0  0  0  0  0  0  0  0  0  0  0
   -1.9689    0.1350    0.8298 N   0  0  0  0  0  0  0  0  0  0  0  0
   -2.5039   -0.1183   -0.4830 C   0  0  2  0  0  0  0  0  0  0  0  0
   -3.6413   -1.1249   -0.3484 C   0  0  0  0  0  0  0  0  0  0  0  0
   -3.8436   -1.7743    0.6755 O   0  0  0  0  0  0  0  0  0  0  0  0
   -1.4260   -0.6009   -1.4483 C   0  0  0  0  0  0  0  0  0  0  0  0
   -0.9403   -1.8769   -1.0466 O   0  0  0  0  0  0  0  0  0  0  0  0
   -2.5276    0.6894    1.4750 H   0  0  0  0  0  0  0  0  0  0  0  0
   -2.9139    0.8342   -0.8380 H   0  0  0  0  0  0  0  0  0  0  0  0
   -0.5793    0.0927   -1.4710 H   0  0  0  0  0  0  0  0  0  0  0  0
   -1.8305   -0.6945   -2.4617 H   0  0  0  0  0  0  0  0  0  0  0  0
   -1.7004   -2.4799   -1.0572 H   0  0  0  0  0  0  0  0  0  0  0  0
   -4.4278   -1.1799   -1.4904 N   0  0  0  0  0  0  0  0  0  0  0  0
   -5.5869   -2.0347   -1.6017 C   0  0  2  0  0  0  0  0  0  0  0  0
   -6.2398   -2.1228   -0.2286 C   0  0  0  0  0  0  0  0  0  0  0  0
   -5.6342   -1.9000    0.8177 O   0  0  0  0  0  0  0  0  0  0  0  0
   -5.2087   -3.4160   -2.1134 C   0  0  0  0  0  0  0  0  0  0  0  0
   -4.2087   -0.5759   -2.2771 H   0  0  0  0  0  0  0  0  0  0  0  0
   -6.2733   -1.5472   -2.3025 H   0  0  0  0  0  0  0  0  0  0  0  0
   -4.5213   -3.9200   -1.4242 H   0  0  0  0  0  0  0  0  0  0  0  0
   -6.0920   -4.0536   -2.2243 H   0  0  0  0  0  0  0  0  0  0  0  0
   -4.7125   -3.3484   -3.0875 H   0  0  0  0  0  0  0  0  0  0  0  0
   -7.5669   -2.5214   -0.3064 N   0  0  0  0  0  0  0  0  0  0  0  0
   -8.3997   -2.6911    0.8614 C   0  0  0  0  0  0  0  0  0  0  0  0
   -7.9926   -2.6661   -1.2172 H   0  0  0  0  0  0  0  0  0  0  0  0
   -8.3529   -3.7376    1.1968 H   0  0  0  0  0  0  0  0  0  0  0  0
   -8.0416   -2.0319    1.6659 H   0  0  0  0  0  0  0  0  0  0  0  0
   -9.4392   -2.4326    0.6110 H   0  0  0  0  0  0  0  0  0  0  0  0
  1  3  1  0  0  0  0
  1  7  1  0  0  0  0
  1  2  2  0  0  0  0
 29 30  1  0  0  0  0
 30 38  1  0  0  0  0
 30 31  2  0  0  0  0
  8  9  1  0  0  0  0
  9 17  1  0  0  0  0
  9 10  2  0  0  0  0
 18 19  1  0  0  0  0
 19 28  1  0  0  0  0
 19 20  2  0  0  0  0
 29 32  1  0  0  0  0
  8 11  1  0  0  0  0
 38 39  1  0  0  0  0
 18 21  1  0  0  0  0
 21 22  1  0  0  0  0
 28 29  1  0  0  0  0
  7  8  1  0  0  0  0
 17 18  1  0  0  0  0
  3  4  1  0  0  0  0
  3  5  1  0  0  0  0
  3  6  1  0  0  0  0
 32 35  1  0  0  0  0
 32 36  1  0  0  0  0
 32 37  1  0  0  0  0
 11 14  1  0  0  0  0
 11 15  1  0  0  0  0
 11 16  1  0  0  0  0
 39 41  1  0  0  0  0
 39 42  1  0  0  0  0
 39 43  1  0  0  0  0
 21 25  1  0  0  0  0
 21 26  1  0  0  0  0
 29 34  1  0  0  0  0
  8 13  1  0  0  0  0
 18 24  1  0  0  0  0
 38 40  1  0  0  0  0
  7 12  1  0  0  0  0
 28 33  1  0  0  0  0
 17 23  1  0  0  0  0
 22 27  1  0  0  0  0
M  END
$$$$

  -OEChem-05262214473D

 43 42  0     1  0  0  0  0  0999 V2000
    0.7424   -1.0926    4.5665 C   0  0  0  0  0  0  0  0  0  0  0  0
    0.1409   -0.5364    5.4779 O   0  0  0  0  0  0  0  0  0  0  0  0
    1.7940   -2.1023    4.8871 C   0  0  0  0  0  0  0  0  0  0  0  0
    2.7935   -1.6502    4.9904 H   0  0  0  0  0  0  0  0  0  0  0  0
    1.6064   -2.6156    5.8438 H   0  0  0  0  0  0  0  0  0  0  0  0
    1.9156   -2.9078    4.1453 H   0  0  0  0  0  0  0  0  0  0  0  0
    0.5488   -0.8838    3.2109 N   0  0  0  0  0  0  0  0  0  0  0  0
   -0.4159    0.0446    2.6829 C   0  0  2  0  0  0  0  0  0  0  0  0
   -0.7551   -0.3867    1.2623 C   0  0  0  0  0  0  0  0  0  0  0  0
   -0.0106   -1.0851    0.5774 O   0  0  0  0  0  0  0  0  0  0  0  0
    0.1168    1.4689    2.7060 C   0  0  0  0  0  0  0  0  0  0  0  0
    1.1183   -1.4145    2.5542 H   0  0  0  0  0  0  0  0  0  0  0  0
   -1.3088   -0.0350    3.3125 H   0  0  0  0  0  0  0  0  0  0  0  0
    1.0116    1.5681    2.0808 H   0  0  0  0  0  0  0  0  0  0  0  0
   -0.6289    2.1775    2.3307 H   0  0  0  0  0  0  0  0  0  0  0  0
    0.3882    1.7670    3.7245 H   0  0  0  0  0  0  0  0  0  0  0  0
   -1.9689    0.1350    0.8298 N   0  0  0  0  0  0  0  0  0  0  0  0
   -2.5039   -0.1183   -0.4830 C   0  0  2  0  0  0  0  0  0  0  0  0
   -3.8522   -0.8122   -0.3228 C   0  0  0  0  0  0  0  0  0  0  0  0
   -4.3575   -1.0496    0.7723 O   0  0  0  0  0  0  0  0  0  0  0  0
   -1.5398   -0.9350   -1.3374 C   0  0  0  0  0  0  0  0  0  0  0  0
   -1.3859   -2.2415   -0.7947 O   0  0  0  0  0  0  0  0  0  0  0  0
   -2.5276    0.6894    1.4750 H   0  0  0  0  0  0  0  0  0  0  0  0
   -2.6629    0.8625   -0.9457 H   0  0  0  0  0  0  0  0  0  0  0  0
   -0.5520   -0.4645   -1.3747 H   0  0  0  0  0  0  0  0  0  0  0  0
   -1.9202   -1.0339   -2.3597 H   0  0  0  0  0  0  0  0  0  0  0  0
   -2.2669   -2.6481   -0.7939 H   0  0  0  0  0  0  0  0  0  0  0  0
   -4.4424   -1.0952   -1.5465 N   0  0  0  0  0  0  0  0  0  0  0  0
   -5.7378   -1.7236   -1.6635 C   0  0  2  0  0  0  0  0  0  0  0  0
   -6.5983   -1.2473   -0.5007 C   0  0  0  0  0  0  0  0  0  0  0  0
   -6.1275   -0.8076    0.5462 O   0  0  0  0  0  0  0  0  0  0  0  0
   -5.6191   -3.2397   -1.6666 C   0  0  0  0  0  0  0  0  0  0  0  0
   -3.9685   -0.8261   -2.4036 H   0  0  0  0  0  0  0  0  0  0  0  0
   -6.1734   -1.3769   -2.6070 H   0  0  0  0  0  0  0  0  0  0  0  0
   -5.1846   -3.6057   -0.7292 H   0  0  0  0  0  0  0  0  0  0  0  0
   -6.5990   -3.7142   -1.7841 H   0  0  0  0  0  0  0  0  0  0  0  0
   -4.9757   -3.5786   -2.4858 H   0  0  0  0  0  0  0  0  0  0  0  0
   -7.9532   -1.4113   -0.7527 N   0  0  0  0  0  0  0  0  0  0  0  0
   -8.9736   -1.0459    0.2019 C   0  0  0  0  0  0  0  0  0  0  0  0
   -8.2542   -1.7660   -1.6557 H   0  0  0  0  0  0  0  0  0  0  0  0
   -9.2260   -1.9189    0.8218 H   0  0  0  0  0  0  0  0  0  0  0  0
   -8.6004   -0.2353    0.8451 H   0  0  0  0  0  0  0  0  0  0  0  0
   -9.8717   -0.7049   -0.3340 H   0  0  0  0  0  0  0  0  0  0  0  0
  1  3  1  0  0  0  0
  1  7  1  0  0  0  0
  1  2  2  0  0  0  0
 29 30  1  0  0  0  0
 30 38  1  0  0  0  0
 30 31  2  0  0  0  0
  8  9  1  0  0  0  0
  9 17  1  0  0  0  0
  9 10  2  0  0  0  0
 18 19  1  0  0  0  0
 19 28  1  0  0  0  0
 19 20  2  0  0  0  0
 29 32  1  0  0  0  0
  8 11  1  0  0  0  0
 38 39  1  0  0  0  0
 18 21  1  0  0  0  0
 21 22  1  0  0  0  0
 28 29  1  0  0  0  0
  7  8  1  0  0  0  0
 17 18  1  0  0  0  0
  3  4  1  0  0  0  0
  3  5  1  0  0  0  0
  3  6  1  0  0  0  0
 32 35  1  0  0  0  0
 32 36  1  0  0  0  0
 32 37  1  0  0  0  0
 11 14  1  0  0  0  0
 11 15  1  0  0  0  0
 11 16  1  0  0  0  0
 39 41  1  0  0  0  0
 39 42  1  0  0  0  0
 39 43  1  0  0  0  0
 21 25  1  0  0  0  0
 21 26  1  0  0  0  0
 29 34  1  0  0  0  0
  8 13  1  0  0  0  0
 18 24  1  0  0  0  0
 38 40  1  0  0  0  0
  7 12  1  0  0  0  0
 28 33  1  0  0  0  0
 17 23  1  0  0  0  0
 22 27  1  0  0  0  0
M  END
$$$$

  -OEChem-05262214473D

 43 42  0     1  0  0  0  0  0999 V2000
    0.7424   -1.0926    4.5665 C   0  0  0  0  0  0  0  0  0  0  0  0
    0.1409   -0.5364    5.4779 O   0  0  0  0  0  0  0  0  0  0  0  0
    1.7940   -2.1023    4.8871 C   0  0  0  0  0  0  0  0  0  0  0  0
    2.7935   -1.6502    4.9904 H   0  0  0  0  0  0  0  0  0  0  0  0
    1.6064   -2.6156    5.8438 H   0  0  0  0  0  0  0  0  0  0  0  0
    1.9156   -2.9078    4.1453 H   0  0  0  0  0  0  0  0  0  0  0  0
    0.5488   -0.8838    3.2109 N   0  0  0  0  0  0  0  0  0  0  0  0
   -0.4159    0.0446    2.6829 C   0  0  2  0  0  0  0  0  0  0  0  0
   -0.7551   -0.3867    1.2623 C   0  0  0  0  0  0  0  0  0  0  0  0
   -0.0106   -1.0851    0.5774 O   0  0  0  0  0  0  0  0  0  0  0  0
    0.1168    1.4689    2.7060 C   0  0  0  0  0  0  0  0  0  0  0  0
    1.1183   -1.4145    2.5542 H   0  0  0  0  0  0  0  0  0  0  0  0
   -1.3088   -0.0350    3.3125 H   0  0  0  0  0  0  0  0  0  0  0  0
    1.0116    1.5681    2.0808 H   0  0  0  0  0  0  0  0  0  0  0  0
   -0.6289    2.1775    2.3307 H   0  0  0  0  0  0  0  0  0  0  0  0
    0.3882    1.7670    3.7245 H   0  0  0  0  0  0  0  0  0  0  0  0
   -1.9689    0.1350    0.8298 N   0  0  0  0  0  0  0  0  0  0  0  0
   -2.5039   -0.1183   -0.4830 C   0  0  2  0  0  0  0  0  0  0  0  0
   -3.8522   -0.8122   -0.3228 C   0  0  0  0  0  0  0  0  0  0  0  0
   -4.4830   -0.8150    0.7322 O   0  0  0  0  0  0  0  0  0  0  0  0
   -1.5398   -0.9350   -1.3374 C   0  0  0  0  0  0  0  0  0  0  0  0
   -1.3859   -2.2415   -0.7947 O   0  0  0  0  0  0  0  0  0  0  0  0
   -2.5276    0.6894    1.4750 H   0  0  0  0  0  0  0  0  0  0  0  0
   -2.6629    0.8625   -0.9457 H   0  0  0  0  0  0  0  0  0  0  0  0
   -0.5520   -0.4645   -1.3747 H   0  0  0  0  0  0  0  0  0  0  0  0
   -1.9202   -1.0339   -2.3597 H   0  0  0  0  0  0  0  0  0  0  0  0
   -2.2669   -2.6481   -0.7939 H   0  0  0  0  0  0  0  0  0  0  0  0
   -4.2862   -1.3898   -1.5076 N   0  0  0  0  0  0  0  0  0  0  0  0
   -5.5494   -2.0807   -1.6244 C   0  0  2  0  0  0  0  0  0  0  0  0
   -6.5506   -1.3883   -0.7091 C   0  0  0  0  0  0  0  0  0  0  0  0
   -6.2157   -0.7033    0.2551 O   0  0  0  0  0  0  0  0  0  0  0  0
   -5.4107   -3.5517   -1.2643 C   0  0  0  0  0  0  0  0  0  0  0  0
   -3.7158   -1.3033   -2.3435 H   0  0  0  0  0  0  0  0  0  0  0  0
   -5.8723   -1.9756   -2.6659 H   0  0  0  0  0  0  0  0  0  0  0  0
   -5.0879   -3.6770   -0.2244 H   0  0  0  0  0  0  0  0  0  0  0  0
   -6.3627   -4.0802   -1.3808 H   0  0  0  0  0  0  0  0  0  0  0  0
   -4.6685   -4.0413   -1.9040 H   0  0  0  0  0  0  0  0  0  0  0  0
   -7.8627   -1.6605   -1.0702 N   0  0  0  0  0  0  0  0  0  0  0  0
   -8.9959   -1.1298   -0.3488 C   0  0  0  0  0  0  0  0  0  0  0  0
   -8.0474   -2.2232   -1.8954 H   0  0  0  0  0  0  0  0  0  0  0  0
   -9.3096   -1.8487    0.4224 H   0  0  0  0  0  0  0  0  0  0  0  0
   -8.7142   -0.1797    0.1286 H   0  0  0  0  0  0  0  0  0  0  0  0
   -9.8270   -0.9565   -1.0482 H   0  0  0  0  0  0  0  0  0  0  0  0
  1  3  1  0  0  0  0
  1  7  1  0  0  0  0
  1  2  2  0  0  0  0
 29 30  1  0  0  0  0
 30 38  1  0  0  0  0
 30 31  2  0  0  0  0
  8  9  1  0  0  0  0
  9 17  1  0  0  0  0
  9 10  2  0  0  0  0
 18 19  1  0  0  0  0
 19 28  1  0  0  0  0
 19 20  2  0  0  0  0
 29 32  1  0  0  0  0
  8 11  1  0  0  0  0
 38 39  1  0  0  0  0
 18 21  1  0  0  0  0
 21 22  1  0  0  0  0
 28 29  1  0  0  0  0
  7  8  1  0  0  0  0
 17 18  1  0  0  0  0
  3  4  1  0  0  0  0
  3  5  1  0  0  0  0
  3  6  1  0  0  0  0
 32 35  1  0  0  0  0
 32 36  1  0  0  0  0
 32 37  1  0  0  0  0
 11 14  1  0  0  0  0
 11 15  1  0  0  0  0
 11 16  1  0  0  0  0
 39 41  1  0  0  0  0
 39 42  1  0  0  0  0
 39 43  1  0  0  0  0
 21 25  1  0  0  0  0
 21 26  1  0  0  0  0
 29 34  1  0  0  0  0
  8 13  1  0  0  0  0
 18 24  1  0  0  0  0
 38 40  1  0  0  0  0
  7 12  1  0  0  0  0
 28 33  1  0  0  0  0
 17 23  1  0  0  0  0
 22 27  1  0  0  0  0
M  END
$$$$

  -OEChem-05262214473D

 43 42  0     1  0  0  0  0  0999 V2000
    0.7424   -1.0926    4.5665 C   0  0  0  0  0  0  0  0  0  0  0  0
    0.1409   -0.5364    5.4779 O   0  0  0  0  0  0  0  0  0  0  0  0
    1.7940   -2.1023    4.8871 C   0  0  0  0  0  0  0  0  0  0  0  0
    2.7935   -1.6502    4.9904 H   0  0  0  0  0  0  0  0  0  0  0  0
    1.6064   -2.6156    5.8438 H   0  0  0  0  0  0  0  0  0  0  0  0
    1.9156   -2.9078    4.1453 H   0  0  0  0  0  0  0  0  0  0  0  0
    0.5488   -0.8838    3.2109 N   0  0  0  0  0  0  0  0  0  0  0  0
   -0.4159    0.0446    2.6829 C   0  0  2  0  0  0  0  0  0  0  0  0
   -0.7551   -0.3867    1.2623 C   0  0  0  0  0  0  0  0  0  0  0  0
   -0.0106   -1.0851    0.5774 O   0  0  0  0  0  0  0  0  0  0  0  0
    0.1168    1.4689    2.7060 C   0  0  0  0  0  0  0  0  0  0  0  0
    1.1183   -1.4145    2.5542 H   0  0  0  0  0  0  0  0  0  0  0  0
   -1.3088   -0.0350    3.3125 H   0  0  0  0  0  0  0  0  0  0  0  0
    1.0116    1.5681    2.0808 H   0  0  0  0  0  0  0  0  0  0  0  0
   -0.6289    2.1775    2.3307 H   0  0  0  0  0  0  0  0  0  0  0  0
    0.3882    1.7670    3.7245 H   0  0  0  0  0  0  0  0  0  0  0  0
   -1.9689    0.1350    0.8298 N   0  0  0  0  0  0  0  0  0  0  0  0
   -2.5039   -0.1183   -0.4830 C   0  0  2  0  0  0  0  0  0  0  0  0
   -3.8522   -0.8122   -0.3228 C   0  0  0  0  0  0  0  0  0  0  0  0
   -4.6059   -0.6009    0.6250 O   0  0  0  0  0  0  0  0  0  0  0  0
   -1.5398   -0.9350   -1.3374 C   0  0  0  0  0  0  0  0  0  0  0  0
   -1.3859   -2.2415   -0.7947 O   0  0  0  0  0  0  0  0  0  0  0  0
   -2.5276    0.6894    1.4750 H   0  0  0  0  0  0  0  0  0  0  0  0
   -2.6629    0.8625   -0.9457 H   0  0  0  0  0  0  0  0  0  0  0  0
   -0.5520   -0.4645   -1.3747 H   0  0  0  0  0  0  0  0  0  0  0  0
   -1.9202   -1.0339   -2.3597 H   0  0  0  0  0  0  0  0  0  0  0  0
   -2.2669   -2.6481   -0.7939 H   0  0  0  0  0  0  0  0  0  0  0  0
   -4.1319   -1.6611   -1.3843 N   0  0  0  0  0  0  0  0  0  0  0  0
   -5.3623   -2.4116   -1.4826 C   0  0  2  0  0  0  0  0  0  0  0  0
   -6.4760   -1.5709   -0.8726 C   0  0  0  0  0  0  0  0  0  0  0  0
   -6.2695   -0.6716   -0.0603 O   0  0  0  0  0  0  0  0  0  0  0  0
   -5.2484   -3.7554   -0.7798 C   0  0  0  0  0  0  0  0  0  0  0  0
   -3.4658   -1.7436   -2.1466 H   0  0  0  0  0  0  0  0  0  0  0  0
   -5.5582   -2.5592   -2.5503 H   0  0  0  0  0  0  0  0  0  0  0  0
   -5.0520   -3.6278    0.2910 H   0  0  0  0  0  0  0  0  0  0  0  0
   -6.1721   -4.3349   -0.8797 H   0  0  0  0  0  0  0  0  0  0  0  0
   -4.4277   -4.3467   -1.2000 H   0  0  0  0  0  0  0  0  0  0  0  0
   -7.7311   -1.9714   -1.3091 N   0  0  0  0  0  0  0  0  0  0  0  0
   -8.9502   -1.3375   -0.8643 C   0  0  0  0  0  0  0  0  0  0  0  0
   -7.8071   -2.7139   -1.9980 H   0  0  0  0  0  0  0  0  0  0  0  0
   -9.3452   -1.8745    0.0107 H   0  0  0  0  0  0  0  0  0  0  0  0
   -8.7412   -0.2931   -0.5897 H   0  0  0  0  0  0  0  0  0  0  0  0
   -9.6930   -1.3618   -1.6753 H   0  0  0  0  0  0  0  0  0  0  0  0
  1  3  1  0  0  0  0
  1  7  1  0  0  0  0
  1  2  2  0  0  0  0
 29 30  1  0  0  0  0
 30 38  1  0  0  0  0
 30 31  2  0  0  0  0
  8  9  1  0  0  0  0
  9 17  1  0  0  0  0
  9 10  2  0  0  0  0
 18 19  1  0  0  0  0
 19 28  1  0  0  0  0
 19 20  2  0  0  0  0
 29 32  1  0  0  0  0
  8 11  1  0  0  0  0
 38 39  1  0  0  0  0
 18 21  1  0  0  0  0
 21 22  1  0  0  0  0
 28 29  1  0  0  0  0
  7  8  1  0  0  0  0
 17 18  1  0  0  0  0
  3  4  1  0  0  0  0
  3  5  1  0  0  0  0
  3  6  1  0  0  0  0
 32 35  1  0  0  0  0
 32 36  1  0  0  0  0
 32 37  1  0  0  0  0
 11 14  1  0  0  0  0
 11 15  1  0  0  0  0
 11 16  1  0  0  0  0
 39 41  1  0  0  0  0
 39 42  1  0  0  0  0
 39 43  1  0  0  0  0
 21 25  1  0  0  0  0
 21 26  1  0  0  0  0
 29 34  1  0  0  0  0
  8 13  1  0  0  0  0
 18 24  1  0  0  0  0
 38 40  1  0  0  0  0
  7 12  1  0  0  0  0
 28 33  1  0  0  0  0
 17 23  1  0  0  0  0
 22 27  1  0  0  0  0
M  END
$$$$

  -OEChem-05262214473D

 43 42  0     1  0  0  0  0  0999 V2000
    0.7424   -1.0926    4.5665 C   0  0  0  0  0  0  0  0  0  0  0  0
    0.1409   -0.5364    5.4779 O   0  0  0  0  0  0  0  0  0  0  0  0
    1.7940   -2.1023    4.8871 C   0  0  0  0  0  0  0  0  0  0  0  0
    2.7935   -1.6502    4.9904 H   0  0  0  0  0  0  0  0  0  0  0  0
    1.6064   -2.6156    5.8438 H   0  0  0  0  0  0  0  0  0  0  0  0
    1.9156   -2.9078    4.1453 H   0  0  0  0  0  0  0  0  0  0  0  0
    0.5488   -0.8838    3.2109 N   0  0  0  0  0  0  0  0  0  0  0  0
   -0.4159    0.0446    2.6829 C   0  0  2  0  0  0  0  0  0  0  0  0
   -0.7551   -0.3867    1.2623 C   0  0  0  0  0  0  0  0  0  0  0  0
   -0.0106   -1.0851    0.5774 O   0  0  0  0  0  0  0  0  0  0  0  0
    0.1168    1.4689    2.7060 C   0  0  0  0  0  0  0  0  0  0  0  0
    1.1183   -1.4145    2.5542 H   0  0  0  0  0  0  0  0  0  0  0  0
   -1.3088   -0.0350    3.3125 H   0  0  0  0  0  0  0  0  0  0  0  0
    1.0116    1.5681    2.0808 H   0  0  0  0  0  0  0  0  0  0  0  0
   -0.6289    2.1775    2.3307 H   0  0  0  0  0  0  0  0  0  0  0  0
    0.3882    1.7670    3.7245 H   0  0  0  0  0  0  0  0  0  0  0  0
   -1.9689    0.1350    0.8298 N   0  0  0  0  0  0  0  0  0  0  0  0
   -2.5039   -0.1183   -0.4830 C   0  0  2  0  0  0  0  0  0  0  0  0
   -3.8522   -0.8122   -0.3228 C   0  0  0  0  0  0  0  0  0  0  0  0
   -4.7178   -0.4221    0.4580 O   0  0  0  0  0  0  0  0  0  0  0  0
   -1.5398   -0.9350   -1.3374 C   0  0  0  0  0  0  0  0  0  0  0  0
   -1.3859   -2.2415   -0.7947 O   0  0  0  0  0  0  0  0  0  0  0  0
   -2.5276    0.6894    1.4750 H   0  0  0  0  0  0  0  0  0  0  0  0
   -2.6629    0.8625   -0.9457 H   0  0  0  0  0  0  0  0  0  0  0  0
   -0.5520   -0.4645   -1.3747 H   0  0  0  0  0  0  0  0  0  0  0  0
   -1.9202   -1.0339   -2.3597 H   0  0  0  0  0  0  0  0  0  0  0  0
   -2.2669   -2.6481   -0.7939 H   0  0  0  0  0  0  0  0  0  0  0  0
   -3.9900   -1.8908   -1.1849 N   0  0  0  0  0  0  0  0  0  0  0  0
   -5.1892   -2.6937   -1.2480 C   0  0  2  0  0  0  0  0  0  0  0  0
   -6.3798   -1.7826   -0.9799 C   0  0  0  0  0  0  0  0  0  0  0  0
   -6.2852   -0.7146   -0.3786 O   0  0  0  0  0  0  0  0  0  0  0  0
   -5.1431   -3.8368   -0.2460 C   0  0  0  0  0  0  0  0  0  0  0  0
   -3.2355   -2.1171   -1.8262 H   0  0  0  0  0  0  0  0  0  0  0  0
   -5.2526   -3.0879   -2.2681 H   0  0  0  0  0  0  0  0  0  0  0  0
   -5.0794   -3.4613    0.7818 H   0  0  0  0  0  0  0  0  0  0  0  0
   -6.0400   -4.4612   -0.3148 H   0  0  0  0  0  0  0  0  0  0  0  0
   -4.2697   -4.4741   -0.4217 H   0  0  0  0  0  0  0  0  0  0  0  0
   -7.5674   -2.3228   -1.4532 N   0  0  0  0  0  0  0  0  0  0  0  0
   -8.8398   -1.6548   -1.3092 C   0  0  0  0  0  0  0  0  0  0  0  0
   -7.5495   -3.2050   -1.9565 H   0  0  0  0  0  0  0  0  0  0  0  0
   -9.3304   -1.9947   -0.3852 H   0  0  0  0  0  0  0  0  0  0  0  0
   -8.6796   -0.5677   -1.2606 H   0  0  0  0  0  0  0  0  0  0  0  0
   -9.4786   -1.8931   -2.1724 H   0  0  0  0  0  0  0  0  0  0  0  0
  1  3  1  0  0  0  0
  1  7  1  0  0  0  0
  1  2  2  0  0  0  0
 29 30  1  0  0  0  0
 30 38  1  0  0  0  0
 30 31  2  0  0  0  0
  8  9  1  0  0  0  0
  9 17  1  0  0  0  0
  9 10  2  0  0  0  0
 18 19  1  0  0  0  0
 19 28  1  0  0  0  0
 19 20  2  0  0  0  0
 29 32  1  0  0  0  0
  8 11  1  0  0  0  0
 38 39  1  0  0  0  0
 18 21  1  0  0  0  0
 21 22  1  0  0  0  0
 28 29  1  0  0  0  0
  7  8  1  0  0  0  0
 17 18  1  0  0  0  0
  3  4  1  0  0  0  0
  3  5  1  0  0  0  0
  3  6  1  0  0  0  0
 32 35  1  0  0  0  0
 32 36  1  0  0  0  0
 32 37  1  0  0  0  0
 11 14  1  0  0  0  0
 11 15  1  0  0  0  0
 11 16  1  0  0  0  0
 39 41  1  0  0  0  0
 39 42  1  0  0  0  0
 39 43  1  0  0  0  0
 21 25  1  0  0  0  0
 21 26  1  0  0  0  0
 29 34  1  0  0  0  0
  8 13  1  0  0  0  0
 18 24  1  0  0  0  0
 38 40  1  0  0  0  0
  7 12  1  0  0  0  0
 28 33  1  0  0  0  0
 17 23  1  0  0  0  0
 22 27  1  0  0  0  0
M  END
$$$$

  -OEChem-05262214473D

 43 42  0     1  0  0  0  0  0999 V2000
    0.7424   -1.0926    4.5665 C   0  0  0  0  0  0  0  0  0  0  0  0
    0.1409   -0.5364    5.4779 O   0  0  0  0  0  0  0  0  0  0  0  0
    1.7940   -2.1023    4.8871 C   0  0  0  0  0  0  0  0  0  0  0  0
    2.7935   -1.6502    4.9904 H   0  0  0  0  0  0  0  0  0  0  0  0
    1.6064   -2.6156    5.8438 H   0  0  0  0  0  0  0  0  0  0  0  0
    1.9156   -2.9078    4.1453 H   0  0  0  0  0  0  0  0  0  0  0  0
    0.5488   -0.8838    3.2109 N   0  0  0  0  0  0  0  0  0  0  0  0
   -0.4159    0.0446    2.6829 C   0  0  2  0  0  0  0  0  0  0  0  0
   -0.7551   -0.3867    1.2623 C   0  0  0  0  0  0  0  0  0  0  0  0
   -0.0106   -1.0851    0.5774 O   0  0  0  0  0  0  0  0  0  0  0  0
    0.1168    1.4689    2.7060 C   0  0  0  0  0  0  0  0  0  0  0  0
    1.1183   -1.4145    2.5542 H   0  0  0  0  0  0  0  0  0  0  0  0
   -1.3088   -0.0350    3.3125 H   0  0  0  0  0  0  0  0  0  0  0  0
    1.0116    1.5681    2.0808 H   0  0  0  0  0  0  0  0  0  0  0  0
   -0.6289    2.1775    2.3307 H   0  0  0  0  0  0  0  0  0  0  0  0
    0.3882    1.7670    3.7245 H   0  0  0  0  0  0  0  0  0  0  0  0
   -1.9689    0.1350    0.8298 N   0  0  0  0  0  0  0  0  0  0  0  0
   -2.5039   -0.1183   -0.4830 C   0  0  2  0  0  0  0  0  0  0  0  0
   -3.8522   -0.8122   -0.3228 C   0  0  0  0  0  0  0  0  0  0  0  0
   -4.8110   -0.2906    0.2426 O   0  0  0  0  0  0  0  0  0  0  0  0
   -1.5398   -0.9350   -1.3374 C   0  0  0  0  0  0  0  0  0  0  0  0
   -1.3859   -2.2415   -0.7947 O   0  0  0  0  0  0  0  0  0  0  0  0
   -2.5276    0.6894    1.4750 H   0  0  0  0  0  0  0  0  0  0  0  0
   -2.6629    0.8625   -0.9457 H   0  0  0  0  0  0  0  0  0  0  0  0
   -0.5520   -0.4645   -1.3747 H   0  0  0  0  0  0  0  0  0  0  0  0
   -1.9202   -1.0339   -2.3597 H   0  0  0  0  0  0  0  0  0  0  0  0
   -2.2669   -2.6481   -0.7939 H   0  0  0  0  0  0  0  0  0  0  0  0
   -3.8702   -2.0632   -0.9231 N   0  0  0  0  0  0  0  0  0  0  0  0
   -5.0420   -2.9078   -0.9364 C   0  0  2  0  0  0  0  0  0  0  0  0
   -6.2685   -2.0091   -1.0238 C   0  0  0  0  0  0  0  0  0  0  0  0
   -6.2617   -0.8294   -0.6781 O   0  0  0  0  0  0  0  0  0  0  0  0
   -5.1020   -3.7904    0.3006 C   0  0  0  0  0  0  0  0  0  0  0  0
   -3.0407   -2.3982   -1.4041 H   0  0  0  0  0  0  0  0  0  0  0  0
   -4.9763   -3.5257   -1.8385 H   0  0  0  0  0  0  0  0  0  0  0  0
   -5.1682   -3.1889    1.2145 H   0  0  0  0  0  0  0  0  0  0  0  0
   -5.9756   -4.4502    0.2752 H   0  0  0  0  0  0  0  0  0  0  0  0
   -4.2053   -4.4147    0.3778 H   0  0  0  0  0  0  0  0  0  0  0  0
   -7.3827   -2.6908   -1.4927 N   0  0  0  0  0  0  0  0  0  0  0  0
   -8.6721   -2.0602   -1.6534 C   0  0  0  0  0  0  0  0  0  0  0  0
   -7.2922   -3.6627   -1.7737 H   0  0  0  0  0  0  0  0  0  0  0  0
   -9.2662   -2.2010   -0.7384 H   0  0  0  0  0  0  0  0  0  0  0  0
   -8.5336   -0.9848   -1.8387 H   0  0  0  0  0  0  0  0  0  0  0  0
   -9.1985   -2.5143   -2.5058 H   0  0  0  0  0  0  0  0  0  0  0  0
  1  3  1  0  0  0  0
  1  7  1  0  0  0  0
  1  2  2  0  0  0  0
 29 30  1  0  0  0  0
 30 38  1  0  0  0  0
 30 31  2  0  0  0  0
  8  9  1  0  0  0  0
  9 17  1  0  0  0  0
  9 10  2  0  0  0  0
 18 19  1  0  0  0  0
 19 28  1  0  0  0  0
 19 20  2  0  0  0  0
 29 32  1  0  0  0  0
  8 11  1  0  0  0  0
 38 39  1  0  0  0  0
 18 21  1  0  0  0  0
 21 22  1  0  0  0  0
 28 29  1  0  0  0  0
  7  8  1  0  0  0  0
 17 18  1  0  0  0  0
  3  4  1  0  0  0  0
  3  5  1  0  0  0  0
  3  6  1  0  0  0  0
 32 35  1  0  0  0  0
 32 36  1  0  0  0  0
 32 37  1  0  0  0  0
 11 14  1  0  0  0  0
 11 15  1  0  0  0  0
 11 16  1  0  0  0  0
 39 41  1  0  0  0  0
 39 42  1  0  0  0  0
 39 43  1  0  0  0  0
 21 25  1  0  0  0  0
 21 26  1  0  0  0  0
 29 34  1  0  0  0  0
  8 13  1  0  0  0  0
 18 24  1  0  0  0  0
 38 40  1  0  0  0  0
  7 12  1  0  0  0  0
 28 33  1  0  0  0  0
 17 23  1  0  0  0  0
 22 27  1  0  0  0  0
M  END
$$$$

  -OEChem-05262214473D

 43 42  0     1  0  0  0  0  0999 V2000
    0.7424   -1.0926    4.5665 C   0  0  0  0  0  0  0  0  0  0  0  0
    0.1409   -0.5364    5.4779 O   0  0  0  0  0  0  0  0  0  0  0  0
    1.7940   -2.1023    4.8871 C   0  0  0  0  0  0  0  0  0  0  0  0
    2.7935   -1.6502    4.9904 H   0  0  0  0  0  0  0  0  0  0  0  0
    1.6064   -2.6156    5.8438 H   0  0  0  0  0  0  0  0  0  0  0  0
    1.9156   -2.9078    4.1453 H   0  0  0  0  0  0  0  0  0  0  0  0
    0.5488   -0.8838    3.2109 N   0  0  0  0  0  0  0  0  0  0  0  0
   -0.4159    0.0446    2.6829 C   0  0  2  0  0  0  0  0  0  0  0  0
   -0.7551   -0.3867    1.2623 C   0  0  0  0  0  0  0  0  0  0  0  0
   -0.0106   -1.0851    0.5774 O   0  0  0  0  0  0  0  0  0  0  0  0
    0.1168    1.4689    2.7060 C   0  0  0  0  0  0  0  0  0  0  0  0
    1.1183   -1.4145    2.5542 H   0  0  0  0  0  0  0  0  0  0  0  0
   -1.3088   -0.0350    3.3125 H   0  0  0  0  0  0  0  0  0  0  0  0
    1.0116    1.5681    2.0808 H   0  0  0  0  0  0  0  0  0  0  0  0
   -0.6289    2.1775    2.3307 H   0  0  0  0  0  0  0  0  0  0  0  0
    0.3882    1.7670    3.7245 H   0  0  0  0  0  0  0  0  0  0  0  0
   -1.9689    0.1350    0.8298 N   0  0  0  0  0  0  0  0  0  0  0  0
   -2.5039   -0.1183   -0.4830 C   0  0  2  0  0  0  0  0  0  0  0  0
   -3.8522   -0.8122   -0.3228 C   0  0  0  0  0  0  0  0  0  0  0  0
   -4.8793   -0.2154   -0.0066 O   0  0  0  0  0  0  0  0  0  0  0  0
   -1.5398   -0.9350   -1.3374 C   0  0  0  0  0  0  0  0  0  0  0  0
   -1.3859   -2.2415   -0.7947 O   0  0  0  0  0  0  0  0  0  0  0  0
   -2.5276    0.6894    1.4750 H   0  0  0  0  0  0  0  0  0  0  0  0
   -2.6629    0.8625   -0.9457 H   0  0  0  0  0  0  0  0  0  0  0  0
   -0.5520   -0.4645   -1.3747 H   0  0  0  0  0  0  0  0  0  0  0  0
   -1.9202   -1.0339   -2.3597 H   0  0  0  0  0  0  0  0  0  0  0  0
   -2.2669   -2.6481   -0.7939 H   0  0  0  0  0  0  0  0  0  0  0  0
   -3.7806   -2.1666   -0.6165 N   0  0  0  0  0  0  0  0  0  0  0  0
   -4.9308   -3.0392   -0.5690 C   0  0  2  0  0  0  0  0  0  0  0  0
   -6.1496   -2.2348   -1.0012 C   0  0  0  0  0  0  0  0  0  0  0  0
   -6.2006   -1.0082   -0.9383 O   0  0  0  0  0  0  0  0  0  0  0  0
   -5.1280   -3.6194    0.8228 C   0  0  0  0  0  0  0  0  0  0  0  0
   -2.8946   -2.5679   -0.9091 H   0  0  0  0  0  0  0  0  0  0  0  0
   -4.7481   -3.8428   -1.2908 H   0  0  0  0  0  0  0  0  0  0  0  0
   -5.3123   -2.8292    1.5597 H   0  0  0  0  0  0  0  0  0  0  0  0
   -5.9831   -4.3029    0.8502 H   0  0  0  0  0  0  0  0  0  0  0  0
   -4.2388   -4.1726    1.1440 H   0  0  0  0  0  0  0  0  0  0  0  0
   -7.1896   -3.0503   -1.4249 N   0  0  0  0  0  0  0  0  0  0  0  0
   -8.4585   -2.5259   -1.8733 C   0  0  0  0  0  0  0  0  0  0  0  0
   -7.0527   -4.0561   -1.4620 H   0  0  0  0  0  0  0  0  0  0  0  0
   -9.1570   -2.4793   -1.0248 H   0  0  0  0  0  0  0  0  0  0  0  0
   -8.3131   -1.5160   -2.2843 H   0  0  0  0  0  0  0  0  0  0  0  0
   -8.8719   -3.1830   -2.6527 H   0  0  0  0  0  0  0  0  0  0  0  0
  1  3  1  0  0  0  0
  1  7  1  0  0  0  0
  1  2  2  0  0  0  0
 29 30  1  0  0  0  0
 30 38  1  0  0  0  0
 30 31  2  0  0  0  0
  8  9  1  0  0  0  0
  9 17  1  0  0  0  0
  9 10  2  0  0  0  0
 18 19  1  0  0  0  0
 19 28  1  0  0  0  0
 19 20  2  0  0  0  0
 29 32  1  0  0  0  0
  8 11  1  0  0  0  0
 38 39  1  0  0  0  0
 18 21  1  0  0  0  0
 21 22  1  0  0  0  0
 28 29  1  0  0  0  0
  7  8  1  0  0  0  0
 17 18  1  0  0  0  0
  3  4  1  0  0  0  0
  3  5  1  0  0  0  0
  3  6  1  0  0  0  0
 32 35  1  0  0  0  0
 32 36  1  0  0  0  0
 32 37  1  0  0  0  0
 11 14  1  0  0  0  0
 11 15  1  0  0  0  0
 11 16  1  0  0  0  0
 39 41  1  0  0  0  0
 39 42  1  0  0  0  0
 39 43  1  0  0  0  0
 21 25  1  0  0  0  0
 21 26  1  0  0  0  0
 29 34  1  0  0  0  0
  8 13  1  0  0  0  0
 18 24  1  0  0  0  0
 38 40  1  0  0  0  0
  7 12  1  0  0  0  0
 28 33  1  0  0  0  0
 17 23  1  0  0  0  0
 22 27  1  0  0  0  0
M  END
$$$$

  -OEChem-05262214473D

 43 42  0     1  0  0  0  0  0999 V2000
    0.7424   -1.0926    4.5665 C   0  0  0  0  0  0  0  0  0  0  0  0
    0.1409   -0.5364    5.4779 O   0  0  0  0  0  0  0  0  0  0  0  0
    1.7940   -2.1023    4.8871 C   0  0  0  0  0  0  0  0  0  0  0  0
    2.7935   -1.6502    4.9904 H   0  0  0  0  0  0  0  0  0  0  0  0
    1.6064   -2.6156    5.8438 H   0  0  0  0  0  0  0  0  0  0  0  0
    1.9156   -2.9078    4.1453 H   0  0  0  0  0  0  0  0  0  0  0  0
    0.5488   -0.8838    3.2109 N   0  0  0  0  0  0  0  0  0  0  0  0
   -0.4159    0.0446    2.6829 C   0  0  2  0  0  0  0  0  0  0  0  0
   -0.7551   -0.3867    1.2623 C   0  0  0  0  0  0  0  0  0  0  0  0
   -0.0106   -1.0851    0.5774 O   0  0  0  0  0  0  0  0  0  0  0  0
    0.1168    1.4689    2.7060 C   0  0  0  0  0  0  0  0  0  0  0  0
    1.1183   -1.4145    2.5542 H   0  0  0  0  0  0  0  0  0  0  0  0
   -1.3088   -0.0350    3.3125 H   0  0  0  0  0  0  0  0  0  0  0  0
    1.0116    1.5681    2.0808 H   0  0  0  0  0  0  0  0  0  0  0  0
   -0.6289    2.1775    2.3307 H   0  0  0  0  0  0  0  0  0  0  0  0
    0.3882    1.7670    3.7245 H   0  0  0  0  0  0  0  0  0  0  0  0
   -1.9689    0.1350    0.8298 N   0  0  0  0  0  0  0  0  0  0  0  0
   -2.5039   -0.1183   -0.4830 C   0  0  2  0  0  0  0  0  0  0  0  0
   -3.8522   -0.8122   -0.3228 C   0  0  0  0  0  0  0  0  0  0  0  0
   -4.9180   -0.2017   -0.2725 O   0  0  0  0  0  0  0  0  0  0  0  0
   -1.5398   -0.9350   -1.3374 C   0  0  0  0  0  0  0  0  0  0  0  0
   -1.3859   -2.2415   -0.7947 O   0  0  0  0  0  0  0  0  0  0  0  0
   -2.5276    0.6894    1.4750 H   0  0  0  0  0  0  0  0  0  0  0  0
   -2.6629    0.8625   -0.9457 H   0  0  0  0  0  0  0  0  0  0  0  0
   -0.5520   -0.4645   -1.3747 H   0  0  0  0  0  0  0  0  0  0  0  0
   -1.9202   -1.0339   -2.3597 H   0  0  0  0  0  0  0  0  0  0  0  0
   -2.2669   -2.6481   -0.7939 H   0  0  0  0  0  0  0  0  0  0  0  0
   -3.7274   -2.1938   -0.2863 N   0  0  0  0  0  0  0  0  0  0  0  0
   -4.8630   -3.0791   -0.1710 C   0  0  2  0  0  0  0  0  0  0  0  0
   -6.0313   -2.4445   -0.9138 C   0  0  0  0  0  0  0  0  0  0  0  0
   -6.1061   -1.2388   -1.1415 O   0  0  0  0  0  0  0  0  0  0  0  0
   -5.2192   -3.3354    1.2850 C   0  0  0  0  0  0  0  0  0  0  0  0
   -2.8072   -2.6145   -0.3749 H   0  0  0  0  0  0  0  0  0  0  0  0
   -4.5835   -4.0175   -0.6624 H   0  0  0  0  0  0  0  0  0  0  0  0
   -5.5019   -2.4066    1.7938 H   0  0  0  0  0  0  0  0  0  0  0  0
   -6.0621   -4.0291    1.3711 H   0  0  0  0  0  0  0  0  0  0  0  0
   -4.3681   -3.7643    1.8248 H   0  0  0  0  0  0  0  0  0  0  0  0
   -7.0014   -3.3767   -1.2544 N   0  0  0  0  0  0  0  0  0  0  0  0
   -8.2137   -3.0203   -1.9540 C   0  0  0  0  0  0  0  0  0  0  0  0
   -6.8474   -4.3582   -1.0428 H   0  0  0  0  0  0  0  0  0  0  0  0
   -9.0102   -2.8107   -1.2249 H   0  0  0  0  0  0  0  0  0  0  0  0
   -8.0333   -2.1252   -2.5673 H   0  0  0  0  0  0  0  0  0  0  0  0
   -8.5208   -3.8536   -2.6030 H   0  0  0  0  0  0  0  0  0  0  0  0
  1  3  1  0  0  0  0
  1  7  1  0  0  0  0
  1  2  2  0  0  0  0
 29 30  1  0  0  0  0
 30 38  1  0  0  0  0
 30 31  2  0  0  0  0
  8  9  1  0  0  0  0
  9 17  1  0  0  0  0
  9 10  2  0  0  0  0
 18 19  1  0  0  0  0
 19 28  1  0  0  0  0
 19 20  2  0  0  0  0
 29 32  1  0  0  0  0
  8 11  1  0  0  0  0
 38 39  1  0  0  0  0
 18 21  1  0  0  0  0
 21 22  1  0  0  0  0
 28 29  1  0  0  0  0
  7  8  1  0  0  0  0
 17 18  1  0  0  0  0
  3  4  1  0  0  0  0
  3  5  1  0  0  0  0
  3  6  1  0  0  0  0
 32 35  1  0  0  0  0
 32 36  1  0  0  0  0
 32 37  1  0  0  0  0
 11 14  1  0  0  0  0
 11 15  1  0  0  0  0
 11 16  1  0  0  0  0
 39 41  1  0  0  0  0
 39 42  1  0  0  0  0
 39 43  1  0  0  0  0
 21 25  1  0  0  0  0
 21 26  1  0  0  0  0
 29 34  1  0  0  0  0
  8 13  1  0  0  0  0
 18 24  1  0  0  0  0
 38 40  1  0  0  0  0
  7 12  1  0  0  0  0
 28 33  1  0  0  0  0
 17 23  1  0  0  0  0
 22 27  1  0  0  0  0
M  END
$$$$

  -OEChem-05262214473D

 43 42  0     1  0  0  0  0  0999 V2000
    0.7424   -1.0926    4.5665 C   0  0  0  0  0  0  0  0  0  0  0  0
    0.1409   -0.5364    5.4779 O   0  0  0  0  0  0  0  0  0  0  0  0
    1.7940   -2.1023    4.8871 C   0  0  0  0  0  0  0  0  0  0  0  0
    2.7935   -1.6502    4.9904 H   0  0  0  0  0  0  0  0  0  0  0  0
    1.6064   -2.6156    5.8438 H   0  0  0  0  0  0  0  0  0  0  0  0
    1.9156   -2.9078    4.1453 H   0  0  0  0  0  0  0  0  0  0  0  0
    0.5488   -0.8838    3.2109 N   0  0  0  0  0  0  0  0  0  0  0  0
   -0.4159    0.0446    2.6829 C   0  0  2  0  0  0  0  0  0  0  0  0
   -0.7551   -0.3867    1.2623 C   0  0  0  0  0  0  0  0  0  0  0  0
   -0.0106   -1.0851    0.5774 O   0  0  0  0  0  0  0  0  0  0  0  0
    0.1168    1.4689    2.7060 C   0  0  0  0  0  0  0  0  0  0  0  0
    1.1183   -1.4145    2.5542 H   0  0  0  0  0  0  0  0  0  0  0  0
   -1.3088   -0.0350    3.3125 H   0  0  0  0  0  0  0  0  0  0  0  0
    1.0116    1.5681    2.0808 H   0  0  0  0  0  0  0  0  0  0  0  0
   -0.6289    2.1775    2.3307 H   0  0  0  0  0  0  0  0  0  0  0  0
    0.3882    1.7670    3.7245 H   0  0  0  0  0  0  0  0  0  0  0  0
   -1.9689    0.1350    0.8298 N   0  0  0  0  0  0  0  0  0  0  0  0
   -2.5039   -0.1183   -0.4830 C   0  0  2  0  0  0  0  0  0  0  0  0
   -3.8522   -0.8122   -0.3228 C   0  0  0  0  0  0  0  0  0  0  0  0
   -4.9244   -0.2503   -0.5371 O   0  0  0  0  0  0  0  0  0  0  0  0
   -1.5398   -0.9350   -1.3374 C   0  0  0  0  0  0  0  0  0  0  0  0
   -1.3859   -2.2415   -0.7947 O   0  0  0  0  0  0  0  0  0  0  0  0
   -2.5276    0.6894    1.4750 H   0  0  0  0  0  0  0  0  0  0  0  0
   -2.6629    0.8625   -0.9457 H   0  0  0  0  0  0  0  0  0  0  0  0
   -0.5520   -0.4645   -1.3747 H   0  0  0  0  0  0  0  0  0  0  0  0
   -1.9202   -1.0339   -2.3597 H   0  0  0  0  0  0  0  0  0  0  0  0
   -2.2669   -2.6481   -0.7939 H   0  0  0  0  0  0  0  0  0  0  0  0
   -3.7141   -2.1430    0.0452 N   0  0  0  0  0  0  0  0  0  0  0  0
   -4.8433   -3.0247    0.2305 C   0  0  2  0  0  0  0  0  0  0  0  0
   -5.9217   -2.6238   -0.7674 C   0  0  0  0  0  0  0  0  0  0  0  0
   -5.9846   -1.5055   -1.2739 O   0  0  0  0  0  0  0  0  0  0  0  0
   -5.3695   -2.9578    1.6557 C   0  0  0  0  0  0  0  0  0  0  0  0
   -2.7844   -2.5349    0.1620 H   0  0  0  0  0  0  0  0  0  0  0  0
   -4.4938   -4.0379    0.0041 H   0  0  0  0  0  0  0  0  0  0  0  0
   -5.7242   -1.9500    1.9009 H   0  0  0  0  0  0  0  0  0  0  0  0
   -6.2072   -3.6477    1.8022 H   0  0  0  0  0  0  0  0  0  0  0  0
   -4.5842   -3.2176    2.3738 H   0  0  0  0  0  0  0  0  0  0  0  0
   -6.8308   -3.6479   -0.9929 N   0  0  0  0  0  0  0  0  0  0  0  0
   -7.9542   -3.5097   -1.8899 C   0  0  0  0  0  0  0  0  0  0  0  0
   -6.6903   -4.5485   -0.5445 H   0  0  0  0  0  0  0  0  0  0  0  0
   -8.8359   -3.1726   -1.3250 H   0  0  0  0  0  0  0  0  0  0  0  0
   -7.7131   -2.7707   -2.6682 H   0  0  0  0  0  0  0  0  0  0  0  0
   -8.1694   -4.4805   -2.3602 H   0  0  0  0  0  0  0  0  0  0  0  0
  1  3  1  0  0  0  0
  1  7  1  0  0  0  0
  1  2  2  0  0  0  0
 29 30  1  0  0  0  0
 30 38  1  0  0  0  0
 30 31  2  0  0  0  0
  8  9  1  0  0  0  0
  9 17  1  0  0  0  0
  9 10  2  0  0  0  0
 18 19  1  0  0  0  0
 19 28  1  0  0  0  0
 19 20  2  0  0  0  0
 29 32  1  0  0  0  0
  8 11  1  0  0  0  0
 38 39  1  0  0  0  0
 18 21  1  0  0  0  0
 21 22  1  0  0  0  0
 28 29  1  0  0  0  0
  7  8  1  0  0  0  0
 17 18  1  0  0  0  0
  3  4  1  0  0  0  0
  3  5  1  0  0  0  0
  3  6  1  0  0  0  0
 32 35  1  0  0  0  0
 32 36  1  0  0  0  0
 32 37  1  0  0  0  0
 11 14  1  0  0  0  0
 11 15  1  0  0  0  0
 11 16  1  0  0  0  0
 39 41  1  0  0  0  0
 39 42  1  0  0  0  0
 39 43  1  0  0  0  0
 21 25  1  0  0  0  0
 21 26  1  0  0  0  0
 29 34  1  0  0  0  0
  8 13  1  0  0  0  0
 18 24  1  0  0  0  0
 38 40  1  0  0  0  0
  7 12  1  0  0  0  0
 28 33  1  0  0  0  0
 17 23  1  0  0  0  0
 22 27  1  0  0  0  0
M  END
$$$$

  -OEChem-05262214473D

 43 42  0     1  0  0  0  0  0999 V2000
    0.7424   -1.0926    4.5665 C   0  0  0  0  0  0  0  0  0  0  0  0
    0.1409   -0.5364    5.4779 O   0  0  0  0  0  0  0  0  0  0  0  0
    1.7940   -2.1023    4.8871 C   0  0  0  0  0  0  0  0  0  0  0  0
    2.7935   -1.6502    4.9904 H   0  0  0  0  0  0  0  0  0  0  0  0
    1.6064   -2.6156    5.8438 H   0  0  0  0  0  0  0  0  0  0  0  0
    1.9156   -2.9078    4.1453 H   0  0  0  0  0  0  0  0  0  0  0  0
    0.5488   -0.8838    3.2109 N   0  0  0  0  0  0  0  0  0  0  0  0
   -0.4159    0.0446    2.6829 C   0  0  2  0  0  0  0  0  0  0  0  0
   -0.7551   -0.3867    1.2623 C   0  0  0  0  0  0  0  0  0  0  0  0
   -0.0106   -1.0851    0.5774 O   0  0  0  0  0  0  0  0  0  0  0  0
    0.1168    1.4689    2.7060 C   0  0  0  0  0  0  0  0  0  0  0  0
    1.1183   -1.4145    2.5542 H   0  0  0  0  0  0  0  0  0  0  0  0
   -1.3088   -0.0350    3.3125 H   0  0  0  0  0  0  0  0  0  0  0  0
    1.0116    1.5681    2.0808 H   0  0  0  0  0  0  0  0  0  0  0  0
   -0.6289    2.1775    2.3307 H   0  0  0  0  0  0  0  0  0  0  0  0
    0.3882    1.7670    3.7245 H   0  0  0  0  0  0  0  0  0  0  0  0
   -1.9689    0.1350    0.8298 N   0  0  0  0  0  0  0  0  0  0  0  0
   -2.5039   -0.1183   -0.4830 C   0  0  2  0  0  0  0  0  0  0  0  0
   -3.8522   -0.8122   -0.3228 C   0  0  0  0  0  0  0  0  0  0  0  0
   -4.8981   -0.3581   -0.7822 O   0  0  0  0  0  0  0  0  0  0  0  0
   -1.5398   -0.9350   -1.3374 C   0  0  0  0  0  0  0  0  0  0  0  0
   -1.3859   -2.2415   -0.7947 O   0  0  0  0  0  0  0  0  0  0  0  0
   -2.5276    0.6894    1.4750 H   0  0  0  0  0  0  0  0  0  0  0  0
   -2.6629    0.8625   -0.9457 H   0  0  0  0  0  0  0  0  0  0  0  0
   -0.5520   -0.4645   -1.3747 H   0  0  0  0  0  0  0  0  0  0  0  0
   -1.9202   -1.0339   -2.3597 H   0  0  0  0  0  0  0  0  0  0  0  0
   -2.2669   -2.6481   -0.7939 H   0  0  0  0  0  0  0  0  0  0  0  0
   -3.7417   -2.0178    0.3554 N   0  0  0  0  0  0  0  0  0  0  0  0
   -4.8730   -2.8797    0.6082 C   0  0  2  0  0  0  0  0  0  0  0  0
   -5.8281   -2.7605   -0.5720 C   0  0  0  0  0  0  0  0  0  0  0  0
   -5.8443   -1.7901   -1.3264 O   0  0  0  0  0  0  0  0  0  0  0  0
   -5.5686   -2.5123    1.9097 C   0  0  0  0  0  0  0  0  0  0  0  0
   -2.8277   -2.3345    0.6651 H   0  0  0  0  0  0  0  0  0  0  0  0
   -4.4851   -3.9027    0.6630 H   0  0  0  0  0  0  0  0  0  0  0  0
   -5.9639   -1.4905    1.8737 H   0  0  0  0  0  0  0  0  0  0  0  0
   -6.4084   -3.1845    2.1142 H   0  0  0  0  0  0  0  0  0  0  0  0
   -4.8725   -2.5698    2.7534 H   0  0  0  0  0  0  0  0  0  0  0  0
   -6.6894   -3.8454   -0.6581 N   0  0  0  0  0  0  0  0  0  0  0  0
   -7.6979   -3.9607   -1.6855 C   0  0  0  0  0  0  0  0  0  0  0  0
   -6.5921   -4.6139   -0.0011 H   0  0  0  0  0  0  0  0  0  0  0  0
   -8.6458   -3.5404   -1.3184 H   0  0  0  0  0  0  0  0  0  0  0  0
   -7.3743   -3.4086   -2.5803 H   0  0  0  0  0  0  0  0  0  0  0  0
   -7.8415   -5.0209   -1.9408 H   0  0  0  0  0  0  0  0  0  0  0  0
  1  3  1  0  0  0  0
  1  7  1  0  0  0  0
  1  2  2  0  0  0  0
 29 30  1  0  0  0  0
 30 38  1  0  0  0  0
 30 31  2  0  0  0  0
  8  9  1  0  0  0  0
  9 17  1  0  0  0  0
  9 10  2  0  0  0  0
 18 19  1  0  0  0  0
 19 28  1  0  0  0  0
 19 20  2  0  0  0  0
 29 32  1  0  0  0  0
  8 11  1  0  0  0  0
 38 39  1  0  0  0  0
 18 21  1  0  0  0  0
 21 22  1  0  0  0  0
 28 29  1  0  0  0  0
  7  8  1  0  0  0  0
 17 18  1  0  0  0  0
  3  4  1  0  0  0  0
  3  5  1  0  0  0  0
  3  6  1  0  0  0  0
 32 35  1  0  0  0  0
 32 36  1  0  0  0  0
 32 37  1  0  0  0  0
 11 14  1  0  0  0  0
 11 15  1  0  0  0  0
 11 16  1  0  0  0  0
 39 41  1  0  0  0  0
 39 42  1  0  0  0  0
 39 43  1  0  0  0  0
 21 25  1  0  0  0  0
 21 26  1  0  0  0  0
 29 34  1  0  0  0  0
  8 13  1  0  0  0  0
 18 24  1  0  0  0  0
 38 40  1  0  0  0  0
  7 12  1  0  0  0  0
 28 33  1  0  0  0  0
 17 23  1  0  0  0  0
 22 27  1  0  0  0  0
M  END
$$$$

  -OEChem-05262214473D

 43 42  0     1  0  0  0  0  0999 V2000
    0.7424   -1.0926    4.5665 C   0  0  0  0  0  0  0  0  0  0  0  0
    0.1409   -0.5364    5.4779 O   0  0  0  0  0  0  0  0  0  0  0  0
    1.7940   -2.1023    4.8871 C   0  0  0  0  0  0  0  0  0  0  0  0
    2.7935   -1.6502    4.9904 H   0  0  0  0  0  0  0  0  0  0  0  0
    1.6064   -2.6156    5.8438 H   0  0  0  0  0  0  0  0  0  0  0  0
    1.9156   -2.9078    4.1453 H   0  0  0  0  0  0  0  0  0  0  0  0
    0.5488   -0.8838    3.2109 N   0  0  0  0  0  0  0  0  0  0  0  0
   -0.4159    0.0446    2.6829 C   0  0  2  0  0  0  0  0  0  0  0  0
   -0.7551   -0.3867    1.2623 C   0  0  0  0  0  0  0  0  0  0  0  0
   -0.0106   -1.0851    0.5774 O   0  0  0  0  0  0  0  0  0  0  0  0
    0.1168    1.4689    2.7060 C   0  0  0  0  0  0  0  0  0  0  0  0
    1.1183   -1.4145    2.5542 H   0  0  0  0  0  0  0  0  0  0  0  0
   -1.3088   -0.0350    3.3125 H   0  0  0  0  0  0  0  0  0  0  0  0
    1.0116    1.5681    2.0808 H   0  0  0  0  0  0  0  0  0  0  0  0
   -0.6289    2.1775    2.3307 H   0  0  0  0  0  0  0  0  0  0  0  0
    0.3882    1.7670    3.7245 H   0  0  0  0  0  0  0  0  0  0  0  0
   -1.9689    0.1350    0.8298 N   0  0  0  0  0  0  0  0  0  0  0  0
   -2.5039   -0.1183   -0.4830 C   0  0  2  0  0  0  0  0  0  0  0  0
   -3.8522   -0.8122   -0.3228 C   0  0  0  0  0  0  0  0  0  0  0  0
   -4.8409   -0.5175   -0.9913 O   0  0  0  0  0  0  0  0  0  0  0  0
   -1.5398   -0.9350   -1.3374 C   0  0  0  0  0  0  0  0  0  0  0  0
   -1.3859   -2.2415   -0.7947 O   0  0  0  0  0  0  0  0  0  0  0  0
   -2.5276    0.6894    1.4750 H   0  0  0  0  0  0  0  0  0  0  0  0
   -2.6629    0.8625   -0.9457 H   0  0  0  0  0  0  0  0  0  0  0  0
   -0.5520   -0.4645   -1.3747 H   0  0  0  0  0  0  0  0  0  0  0  0
   -1.9202   -1.0339   -2.3597 H   0  0  0  0  0  0  0  0  0  0  0  0
   -2.2669   -2.6481   -0.7939 H   0  0  0  0  0  0  0  0  0  0  0  0
   -3.8083   -1.8266    0.6231 N   0  0  0  0  0  0  0  0  0  0  0  0
   -4.9501   -2.6540    0.9364 C   0  0  2  0  0  0  0  0  0  0  0  0
   -5.7571   -2.8453   -0.3410 C   0  0  0  0  0  0  0  0  0  0  0  0
   -5.6950   -2.0732   -1.2955 O   0  0  0  0  0  0  0  0  0  0  0  0
   -5.8030   -2.0292    2.0296 C   0  0  0  0  0  0  0  0  0  0  0  0
   -2.9343   -2.0269    1.1001 H   0  0  0  0  0  0  0  0  0  0  0  0
   -4.5580   -3.6211    1.2696 H   0  0  0  0  0  0  0  0  0  0  0  0
   -6.2047   -1.0595    1.7140 H   0  0  0  0  0  0  0  0  0  0  0  0
   -6.6522   -2.6712    2.2859 H   0  0  0  0  0  0  0  0  0  0  0  0
   -5.2133   -1.8650    2.9379 H   0  0  0  0  0  0  0  0  0  0  0  0
   -6.5869   -3.9556   -0.2728 N   0  0  0  0  0  0  0  0  0  0  0  0
   -7.4621   -4.3425   -1.3547 C   0  0  0  0  0  0  0  0  0  0  0  0
   -6.5594   -4.5502    0.5503 H   0  0  0  0  0  0  0  0  0  0  0  0
   -8.4530   -3.8890   -1.2054 H   0  0  0  0  0  0  0  0  0  0  0  0
   -7.0402   -3.9954   -2.3094 H   0  0  0  0  0  0  0  0  0  0  0  0
   -7.5594   -5.4380   -1.3735 H   0  0  0  0  0  0  0  0  0  0  0  0
  1  3  1  0  0  0  0
  1  7  1  0  0  0  0
  1  2  2  0  0  0  0
 29 30  1  0  0  0  0
 30 38  1  0  0  0  0
 30 31  2  0  0  0  0
  8  9  1  0  0  0  0
  9 17  1  0  0  0  0
  9 10  2  0  0  0  0
 18 19  1  0  0  0  0
 19 28  1  0  0  0  0
 19 20  2  0  0  0  0
 29 32  1  0  0  0  0
  8 11  1  0  0  0  0
 38 39  1  0  0  0  0
 18 21  1  0  0  0  0
 21 22  1  0  0  0  0
 28 29  1  0  0  0  0
  7  8  1  0  0  0  0
 17 18  1  0  0  0  0
  3  4  1  0  0  0  0
  3  5  1  0  0  0  0
  3  6  1  0  0  0  0
 32 35  1  0  0  0  0
 32 36  1  0  0  0  0
 32 37  1  0  0  0  0
 11 14  1  0  0  0  0
 11 15  1  0  0  0  0
 11 16  1  0  0  0  0
 39 41  1  0  0  0  0
 39 42  1  0  0  0  0
 39 43  1  0  0  0  0
 21 25  1  0  0  0  0
 21 26  1  0  0  0  0
 29 34  1  0  0  0  0
  8 13  1  0  0  0  0
 18 24  1  0  0  0  0
 38 40  1  0  0  0  0
  7 12  1  0  0  0  0
 28 33  1  0  0  0  0
 17 23  1  0  0  0  0
 22 27  1  0  0  0  0
M  END
$$$$

  -OEChem-05262214473D

 43 42  0     1  0  0  0  0  0999 V2000
    0.7424   -1.0926    4.5665 C   0  0  0  0  0  0  0  0  0  0  0  0
    0.1409   -0.5364    5.4779 O   0  0  0  0  0  0  0  0  0  0  0  0
    1.7940   -2.1023    4.8871 C   0  0  0  0  0  0  0  0  0  0  0  0
    2.7935   -1.6502    4.9904 H   0  0  0  0  0  0  0  0  0  0  0  0
    1.6064   -2.6156    5.8438 H   0  0  0  0  0  0  0  0  0  0  0  0
    1.9156   -2.9078    4.1453 H   0  0  0  0  0  0  0  0  0  0  0  0
    0.5488   -0.8838    3.2109 N   0  0  0  0  0  0  0  0  0  0  0  0
   -0.4159    0.0446    2.6829 C   0  0  2  0  0  0  0  0  0  0  0  0
   -0.7551   -0.3867    1.2623 C   0  0  0  0  0  0  0  0  0  0  0  0
   -0.0106   -1.0851    0.5774 O   0  0  0  0  0  0  0  0  0  0  0  0
    0.1168    1.4689    2.7060 C   0  0  0  0  0  0  0  0  0  0  0  0
    1.1183   -1.4145    2.5542 H   0  0  0  0  0  0  0  0  0  0  0  0
   -1.3088   -0.0350    3.3125 H   0  0  0  0  0  0  0  0  0  0  0  0
    1.0116    1.5681    2.0808 H   0  0  0  0  0  0  0  0  0  0  0  0
   -0.6289    2.1775    2.3307 H   0  0  0  0  0  0  0  0  0  0  0  0
    0.3882    1.7670    3.7245 H   0  0  0  0  0  0  0  0  0  0  0  0
   -1.9689    0.1350    0.8298 N   0  0  0  0  0  0  0  0  0  0  0  0
   -2.5039   -0.1183   -0.4830 C   0  0  2  0  0  0  0  0  0  0  0  0
   -3.8522   -0.8122   -0.3228 C   0  0  0  0  0  0  0  0  0  0  0  0
   -4.7566   -0.7178   -1.1500 O   0  0  0  0  0  0  0  0  0  0  0  0
   -1.5398   -0.9350   -1.3374 C   0  0  0  0  0  0  0  0  0  0  0  0
   -1.3859   -2.2415   -0.7947 O   0  0  0  0  0  0  0  0  0  0  0  0
   -2.5276    0.6894    1.4750 H   0  0  0  0  0  0  0  0  0  0  0  0
   -2.6629    0.8625   -0.9457 H   0  0  0  0  0  0  0  0  0  0  0  0
   -0.5520   -0.4645   -1.3747 H   0  0  0  0  0  0  0  0  0  0  0  0
   -1.9202   -1.0339   -2.3597 H   0  0  0  0  0  0  0  0  0  0  0  0
   -2.2669   -2.6481   -0.7939 H   0  0  0  0  0  0  0  0  0  0  0  0
   -3.9094   -1.5824    0.8300 N   0  0  0  0  0  0  0  0  0  0  0  0
   -5.0695   -2.3630    1.1927 C   0  0  2  0  0  0  0  0  0  0  0  0
   -5.7133   -2.8724   -0.0901 C   0  0  0  0  0  0  0  0  0  0  0  0
   -5.5467   -2.3355   -1.1833 O   0  0  0  0  0  0  0  0  0  0  0  0
   -6.0566   -1.5416    2.0073 C   0  0  0  0  0  0  0  0  0  0  0  0
   -3.0968   -1.6332    1.4374 H   0  0  0  0  0  0  0  0  0  0  0  0
   -4.7075   -3.2122    1.7825 H   0  0  0  0  0  0  0  0  0  0  0  0
   -6.4302   -0.6861    1.4327 H   0  0  0  0  0  0  0  0  0  0  0  0
   -6.9219   -2.1427    2.3056 H   0  0  0  0  0  0  0  0  0  0  0  0
   -5.5833   -1.1513    2.9147 H   0  0  0  0  0  0  0  0  0  0  0  0
   -6.5303   -3.9712    0.1366 N   0  0  0  0  0  0  0  0  0  0  0  0
   -7.2629   -4.6292   -0.9199 C   0  0  0  0  0  0  0  0  0  0  0  0
   -6.5945   -4.3615    1.0722 H   0  0  0  0  0  0  0  0  0  0  0  0
   -8.2706   -4.1945   -0.9938 H   0  0  0  0  0  0  0  0  0  0  0  0
   -6.7333   -4.4912   -1.8741 H   0  0  0  0  0  0  0  0  0  0  0  0
   -7.3425   -5.7034   -0.6967 H   0  0  0  0  0  0  0  0  0  0  0  0
  1  3  1  0  0  0  0
  1  7  1  0  0  0  0
  1  2  2  0  0  0  0
 29 30  1  0  0  0  0
 30 38  1  0  0  0  0
 30 31  2  0  0  0  0
  8  9  1  0  0  0  0
  9 17  1  0  0  0  0
  9 10  2  0  0  0  0
 18 19  1  0  0  0  0
 19 28  1  0  0  0  0
 19 20  2  0  0  0  0
 29 32  1  0  0  0  0
  8 11  1  0  0  0  0
 38 39  1  0  0  0  0
 18 21  1  0  0  0  0
 21 22  1  0  0  0  0
 28 29  1  0  0  0  0
  7  8  1  0  0  0  0
 17 18  1  0  0  0  0
  3  4  1  0  0  0  0
  3  5  1  0  0  0  0
  3  6  1  0  0  0  0
 32 35  1  0  0  0  0
 32 36  1  0  0  0  0
 32 37  1  0  0  0  0
 11 14  1  0  0  0  0
 11 15  1  0  0  0  0
 11 16  1  0  0  0  0
 39 41  1  0  0  0  0
 39 42  1  0  0  0  0
 39 43  1  0  0  0  0
 21 25  1  0  0  0  0
 21 26  1  0  0  0  0
 29 34  1  0  0  0  0
  8 13  1  0  0  0  0
 18 24  1  0  0  0  0
 38 40  1  0  0  0  0
  7 12  1  0  0  0  0
 28 33  1  0  0  0  0
 17 23  1  0  0  0  0
 22 27  1  0  0  0  0
M  END
$$$$

  -OEChem-05262214473D

 43 42  0     1  0  0  0  0  0999 V2000
    0.7424   -1.0926    4.5665 C   0  0  0  0  0  0  0  0  0  0  0  0
    0.1409   -0.5364    5.4779 O   0  0  0  0  0  0  0  0  0  0  0  0
    1.7940   -2.1023    4.8871 C   0  0  0  0  0  0  0  0  0  0  0  0
    2.7935   -1.6502    4.9904 H   0  0  0  0  0  0  0  0  0  0  0  0
    1.6064   -2.6156    5.8438 H   0  0  0  0  0  0  0  0  0  0  0  0
    1.9156   -2.9078    4.1453 H   0  0  0  0  0  0  0  0  0  0  0  0
    0.5488   -0.8838    3.2109 N   0  0  0  0  0  0  0  0  0  0  0  0
   -0.4159    0.0446    2.6829 C   0  0  2  0  0  0  0  0  0  0  0  0
   -0.7551   -0.3867    1.2623 C   0  0  0  0  0  0  0  0  0  0  0  0
   -0.0106   -1.0851    0.5774 O   0  0  0  0  0  0  0  0  0  0  0  0
    0.1168    1.4689    2.7060 C   0  0  0  0  0  0  0  0  0  0  0  0
    1.1183   -1.4145    2.5542 H   0  0  0  0  0  0  0  0  0  0  0  0
   -1.3088   -0.0350    3.3125 H   0  0  0  0  0  0  0  0  0  0  0  0
    1.0116    1.5681    2.0808 H   0  0  0  0  0  0  0  0  0  0  0  0
   -0.6289    2.1775    2.3307 H   0  0  0  0  0  0  0  0  0  0  0  0
    0.3882    1.7670    3.7245 H   0  0  0  0  0  0  0  0  0  0  0  0
   -1.9689    0.1350    0.8298 N   0  0  0  0  0  0  0  0  0  0  0  0
   -2.5039   -0.1183   -0.4830 C   0  0  2  0  0  0  0  0  0  0  0  0
   -3.8522   -0.8122   -0.3228 C   0  0  0  0  0  0  0  0  0  0  0  0
   -4.6511   -0.9453   -1.2475 O   0  0  0  0  0  0  0  0  0  0  0  0
   -1.5398   -0.9350   -1.3374 C   0  0  0  0  0  0  0  0  0  0  0  0
   -1.3859   -2.2415   -0.7947 O   0  0  0  0  0  0  0  0  0  0  0  0
   -2.5276    0.6894    1.4750 H   0  0  0  0  0  0  0  0  0  0  0  0
   -2.6629    0.8625   -0.9457 H   0  0  0  0  0  0  0  0  0  0  0  0
   -0.5520   -0.4645   -1.3747 H   0  0  0  0  0  0  0  0  0  0  0  0
   -1.9202   -1.0339   -2.3597 H   0  0  0  0  0  0  0  0  0  0  0  0
   -2.2669   -2.6481   -0.7939 H   0  0  0  0  0  0  0  0  0  0  0  0
   -4.0380   -1.3020    0.9622 N   0  0  0  0  0  0  0  0  0  0  0  0
   -5.2228   -2.0265    1.3595 C   0  0  2  0  0  0  0  0  0  0  0  0
   -5.6999   -2.8399    0.1636 C   0  0  0  0  0  0  0  0  0  0  0  0
   -5.4095   -2.5592   -0.9974 O   0  0  0  0  0  0  0  0  0  0  0  0
   -6.3122   -1.0826    1.8442 C   0  0  0  0  0  0  0  0  0  0  0  0
   -3.3043   -1.1802    1.6539 H   0  0  0  0  0  0  0  0  0  0  0  0
   -4.9234   -2.7040    2.1667 H   0  0  0  0  0  0  0  0  0  0  0  0
   -6.6251   -0.3961    1.0491 H   0  0  0  0  0  0  0  0  0  0  0  0
   -7.1990   -1.6350    2.1719 H   0  0  0  0  0  0  0  0  0  0  0  0
   -5.9574   -0.4772    2.6854 H   0  0  0  0  0  0  0  0  0  0  0  0
   -6.5233   -3.8909    0.5423 N   0  0  0  0  0  0  0  0  0  0  0  0
   -7.1139   -4.8012   -0.4109 C   0  0  0  0  0  0  0  0  0  0  0  0
   -6.6950   -4.0607    1.5289 H   0  0  0  0  0  0  0  0  0  0  0  0
   -8.1111   -4.4363   -0.6980 H   0  0  0  0  0  0  0  0  0  0  0  0
   -6.4747   -4.8622   -1.3041 H   0  0  0  0  0  0  0  0  0  0  0  0
   -7.2054   -5.7989    0.0432 H   0  0  0  0  0  0  0  0  0  0  0  0
  1  3  1  0  0  0  0
  1  7  1  0  0  0  0
  1  2  2  0  0  0  0
 29 30  1  0  0  0  0
 30 38  1  0  0  0  0
 30 31  2  0  0  0  0
  8  9  1  0  0  0  0
  9 17  1  0  0  0  0
  9 10  2  0  0  0  0
 18 19  1  0  0  0  0
 19 28  1  0  0  0  0
 19 20  2  0  0  0  0
 29 32  1  0  0  0  0
  8 11  1  0  0  0  0
 38 39  1  0  0  0  0
 18 21  1  0  0  0  0
 21 22  1  0  0  0  0
 28 29  1  0  0  0  0
  7  8  1  0  0  0  0
 17 18  1  0  0  0  0
  3  4  1  0  0  0  0
  3  5  1  0  0  0  0
  3  6  1  0  0  0  0
 32 35  1  0  0  0  0
 32 36  1  0  0  0  0
 32 37  1  0  0  0  0
 11 14  1  0  0  0  0
 11 15  1  0  0  0  0
 11 16  1  0  0  0  0
 39 41  1  0  0  0  0
 39 42  1  0  0  0  0
 39 43  1  0  0  0  0
 21 25  1  0  0  0  0
 21 26  1  0  0  0  0
 29 34  1  0  0  0  0
  8 13  1  0  0  0  0
 18 24  1  0  0  0  0
 38 40  1  0  0  0  0
  7 12  1  0  0  0  0
 28 33  1  0  0  0  0
 17 23  1  0  0  0  0
 22 27  1  0  0  0  0
M  END
$$$$

  -OEChem-05262214473D

 43 42  0     1  0  0  0  0  0999 V2000
    0.7424   -1.0926    4.5665 C   0  0  0  0  0  0  0  0  0  0  0  0
    0.1409   -0.5364    5.4779 O   0  0  0  0  0  0  0  0  0  0  0  0
    1.7940   -2.1023    4.8871 C   0  0  0  0  0  0  0  0  0  0  0  0
    2.7935   -1.6502    4.9904 H   0  0  0  0  0  0  0  0  0  0  0  0
    1.6064   -2.6156    5.8438 H   0  0  0  0  0  0  0  0  0  0  0  0
    1.9156   -2.9078    4.1453 H   0  0  0  0  0  0  0  0  0  0  0  0
    0.5488   -0.8838    3.2109 N   0  0  0  0  0  0  0  0  0  0  0  0
   -0.4159    0.0446    2.6829 C   0  0  2  0  0  0  0  0  0  0  0  0
   -0.7551   -0.3867    1.2623 C   0  0  0  0  0  0  0  0  0  0  0  0
   -0.0106   -1.0851    0.5774 O   0  0  0  0  0  0  0  0  0  0  0  0
    0.1168    1.4689    2.7060 C   0  0  0  0  0  0  0  0  0  0  0  0
    1.1183   -1.4145    2.5542 H   0  0  0  0  0  0  0  0  0  0  0  0
   -1.3088   -0.0350    3.3125 H   0  0  0  0  0  0  0  0  0  0  0  0
    1.0116    1.5681    2.0808 H   0  0  0  0  0  0  0  0  0  0  0  0
   -0.6289    2.1775    2.3307 H   0  0  0  0  0  0  0  0  0  0  0  0
    0.3882    1.7670    3.7245 H   0  0  0  0  0  0  0  0  0  0  0  0
   -1.9689    0.1350    0.8298 N   0  0  0  0  0  0  0  0  0  0  0  0
   -2.5039   -0.1183   -0.4830 C   0  0  2  0  0  0  0  0  0  0  0  0
   -3.8522   -0.8122   -0.3228 C   0  0  0  0  0  0  0  0  0  0  0  0
   -4.5316   -1.1845   -1.2773 O   0  0  0  0  0  0  0  0  0  0  0  0
   -1.5398   -0.9350   -1.3374 C   0  0  0  0  0  0  0  0  0  0  0  0
   -1.3859   -2.2415   -0.7947 O   0  0  0  0  0  0  0  0  0  0  0  0
   -2.5276    0.6894    1.4750 H   0  0  0  0  0  0  0  0  0  0  0  0
   -2.6629    0.8625   -0.9457 H   0  0  0  0  0  0  0  0  0  0  0  0
   -0.5520   -0.4645   -1.3747 H   0  0  0  0  0  0  0  0  0  0  0  0
   -1.9202   -1.0339   -2.3597 H   0  0  0  0  0  0  0  0  0  0  0  0
   -2.2669   -2.6481   -0.7939 H   0  0  0  0  0  0  0  0  0  0  0  0
   -4.1855   -1.0044    1.0105 N   0  0  0  0  0  0  0  0  0  0  0  0
   -5.3997   -1.6675    1.4257 C   0  0  2  0  0  0  0  0  0  0  0  0
   -5.7176   -2.7502    0.4028 C   0  0  0  0  0  0  0  0  0  0  0  0
   -5.2928   -2.7290   -0.7505 O   0  0  0  0  0  0  0  0  0  0  0  0
   -6.5523   -0.6834    1.5516 C   0  0  0  0  0  0  0  0  0  0  0  0
   -3.5425   -0.6987    1.7349 H   0  0  0  0  0  0  0  0  0  0  0  0
   -5.1910   -2.1310    2.3961 H   0  0  0  0  0  0  0  0  0  0  0  0
   -6.7760   -0.2090    0.5891 H   0  0  0  0  0  0  0  0  0  0  0  0
   -7.4648   -1.1828    1.8939 H   0  0  0  0  0  0  0  0  0  0  0  0
   -6.3101    0.1112    2.2655 H   0  0  0  0  0  0  0  0  0  0  0  0
   -6.5666   -3.7204    0.9166 N   0  0  0  0  0  0  0  0  0  0  0  0
   -7.0252   -4.8469    0.1377 C   0  0  0  0  0  0  0  0  0  0  0  0
   -6.8541   -3.6685    1.8895 H   0  0  0  0  0  0  0  0  0  0  0  0
   -7.9852   -4.5978   -0.3381 H   0  0  0  0  0  0  0  0  0  0  0  0
   -6.2820   -5.0830   -0.6381 H   0  0  0  0  0  0  0  0  0  0  0  0
   -7.1576   -5.7182    0.7960 H   0  0  0  0  0  0  0  0  0  0  0  0
  1  3  1  0  0  0  0
  1  7  1  0  0  0  0
  1  2  2  0  0  0  0
 29 30  1  0  0  0  0
 30 38  1  0  0  0  0
 30 31  2  0  0  0  0
  8  9  1  0  0  0  0
  9 17  1  0  0  0  0
  9 10  2  0  0  0  0
 18 19  1  0  0  0  0
 19 28  1  0  0  0  0
 19 20  2  0  0  0  0
 29 32  1  0  0  0  0
  8 11  1  0  0  0  0
 38 39  1  0  0  0  0
 18 21  1  0  0  0  0
 21 22  1  0  0  0  0
 28 29  1  0  0  0  0
  7  8  1  0  0  0  0
 17 18  1  0  0  0  0
  3  4  1  0  0  0  0
  3  5  1  0  0  0  0
  3  6  1  0  0  0  0
 32 35  1  0  0  0  0
 32 36  1  0  0  0  0
 32 37  1  0  0  0  0
 11 14  1  0  0  0  0
 11 15  1  0  0  0  0
 11 16  1  0  0  0  0
 39 41  1  0  0  0  0
 39 42  1  0  0  0  0
 39 43  1  0  0  0  0
 21 25  1  0  0  0  0
 21 26  1  0  0  0  0
 29 34  1  0  0  0  0
  8 13  1  0  0  0  0
 18 24  1  0  0  0  0
 38 40  1  0  0  0  0
  7 12  1  0  0  0  0
 28 33  1  0  0  0  0
 17 23  1  0  0  0  0
 22 27  1  0  0  0  0
M  END
$$$$

  -OEChem-05262214473D

 43 42  0     1  0  0  0  0  0999 V2000
    0.7424   -1.0926    4.5665 C   0  0  0  0  0  0  0  0  0  0  0  0
    0.1409   -0.5364    5.4779 O   0  0  0  0  0  0  0  0  0  0  0  0
    1.7940   -2.1023    4.8871 C   0  0  0  0  0  0  0  0  0  0  0  0
    2.7935   -1.6502    4.9904 H   0  0  0  0  0  0  0  0  0  0  0  0
    1.6064   -2.6156    5.8438 H   0  0  0  0  0  0  0  0  0  0  0  0
    1.9156   -2.9078    4.1453 H   0  0  0  0  0  0  0  0  0  0  0  0
    0.5488   -0.8838    3.2109 N   0  0  0  0  0  0  0  0  0  0  0  0
   -0.4159    0.0446    2.6829 C   0  0  2  0  0  0  0  0  0  0  0  0
   -0.7551   -0.3867    1.2623 C   0  0  0  0  0  0  0  0  0  0  0  0
   -0.0106   -1.0851    0.5774 O   0  0  0  0  0  0  0  0  0  0  0  0
    0.1168    1.4689    2.7060 C   0  0  0  0  0  0  0  0  0  0  0  0
    1.1183   -1.4145    2.5542 H   0  0  0  0  0  0  0  0  0  0  0  0
   -1.3088   -0.0350    3.3125 H   0  0  0  0  0  0  0  0  0  0  0  0
    1.0116    1.5681    2.0808 H   0  0  0  0  0  0  0  0  0  0  0  0
   -0.6289    2.1775    2.3307 H   0  0  0  0  0  0  0  0  0  0  0  0
    0.3882    1.7670    3.7245 H   0  0  0  0  0  0  0  0  0  0  0  0
   -1.9689    0.1350    0.8298 N   0  0  0  0  0  0  0  0  0  0  0  0
   -2.5039   -0.1183   -0.4830 C   0  0  2  0  0  0  0  0  0  0  0  0
   -3.8522   -0.8122   -0.3228 C   0  0  0  0  0  0  0  0  0  0  0  0
   -4.4061   -1.4191   -1.2372 O   0  0  0  0  0  0  0  0  0  0  0  0
   -1.5398   -0.9350   -1.3374 C   0  0  0  0  0  0  0  0  0  0  0  0
   -1.3859   -2.2415   -0.7947 O   0  0  0  0  0  0  0  0  0  0  0  0
   -2.5276    0.6894    1.4750 H   0  0  0  0  0  0  0  0  0  0  0  0
   -2.6629    0.8625   -0.9457 H   0  0  0  0  0  0  0  0  0  0  0  0
   -0.5520   -0.4645   -1.3747 H   0  0  0  0  0  0  0  0  0  0  0  0
   -1.9202   -1.0339   -2.3597 H   0  0  0  0  0  0  0  0  0  0  0  0
   -2.2669   -2.6481   -0.7939 H   0  0  0  0  0  0  0  0  0  0  0  0
   -4.3416   -0.7098    0.9716 N   0  0  0  0  0  0  0  0  0  0  0  0
   -5.5882   -1.3104    1.3865 C   0  0  2  0  0  0  0  0  0  0  0  0
   -5.7654   -2.6092    0.6113 C   0  0  0  0  0  0  0  0  0  0  0  0
   -5.2045   -2.8333   -0.4594 O   0  0  0  0  0  0  0  0  0  0  0  0
   -6.7607   -0.3714    1.1493 C   0  0  0  0  0  0  0  0  0  0  0  0
   -3.7951   -0.2215    1.6749 H   0  0  0  0  0  0  0  0  0  0  0  0
   -5.4921   -1.5323    2.4550 H   0  0  0  0  0  0  0  0  0  0  0  0
   -6.8727   -0.1376    0.0843 H   0  0  0  0  0  0  0  0  0  0  0  0
   -7.7010   -0.8168    1.4905 H   0  0  0  0  0  0  0  0  0  0  0  0
   -6.6173    0.5739    1.6838 H   0  0  0  0  0  0  0  0  0  0  0  0
   -6.6572   -3.4712    1.2341 N   0  0  0  0  0  0  0  0  0  0  0  0
   -7.0030   -4.7630    0.6885 C   0  0  0  0  0  0  0  0  0  0  0  0
   -7.0608   -3.2113    2.1292 H   0  0  0  0  0  0  0  0  0  0  0  0
   -7.9016   -4.6680    0.0612 H   0  0  0  0  0  0  0  0  0  0  0  0
   -6.1682   -5.1386    0.0784 H   0  0  0  0  0  0  0  0  0  0  0  0
   -7.2022   -5.4666    1.5102 H   0  0  0  0  0  0  0  0  0  0  0  0
  1  3  1  0  0  0  0
  1  7  1  0  0  0  0
  1  2  2  0  0  0  0
 29 30  1  0  0  0  0
 30 38  1  0  0  0  0
 30 31  2  0  0  0  0
  8  9  1  0  0  0  0
  9 17  1  0  0  0  0
  9 10  2  0  0  0  0
 18 19  1  0  0  0  0
 19 28  1  0  0  0  0
 19 20  2  0  0  0  0
 29 32  1  0  0  0  0
  8 11  1  0  0  0  0
 38 39  1  0  0  0  0
 18 21  1  0  0  0  0
 21 22  1  0  0  0  0
 28 29  1  0  0  0  0
  7  8  1  0  0  0  0
 17 18  1  0  0  0  0
  3  4  1  0  0  0  0
  3  5  1  0  0  0  0
  3  6  1  0  0  0  0
 32 35  1  0  0  0  0
 32 36  1  0  0  0  0
 32 37  1  0  0  0  0
 11 14  1  0  0  0  0
 11 15  1  0  0  0  0
 11 16  1  0  0  0  0
 39 41  1  0  0  0  0
 39 42  1  0  0  0  0
 39 43  1  0  0  0  0
 21 25  1  0  0  0  0
 21 26  1  0  0  0  0
 29 34  1  0  0  0  0
  8 13  1  0  0  0  0
 18 24  1  0  0  0  0
 38 40  1  0  0  0  0
  7 12  1  0  0  0  0
 28 33  1  0  0  0  0
 17 23  1  0  0  0  0
 22 27  1  0  0  0  0
M  END
$$$$

  -OEChem-05262214473D

 43 42  0     1  0  0  0  0  0999 V2000
    0.7424   -1.0926    4.5665 C   0  0  0  0  0  0  0  0  0  0  0  0
    0.1409   -0.5364    5.4779 O   0  0  0  0  0  0  0  0  0  0  0  0
    1.7940   -2.1023    4.8871 C   0  0  0  0  0  0  0  0  0  0  0  0
    2.7935   -1.6502    4.9904 H   0  0  0  0  0  0  0  0  0  0  0  0
    1.6064   -2.6156    5.8438 H   0  0  0  0  0  0  0  0  0  0  0  0
    1.9156   -2.9078    4.1453 H   0  0  0  0  0  0  0  0  0  0  0  0
    0.5488   -0.8838    3.2109 N   0  0  0  0  0  0  0  0  0  0  0  0
   -0.4159    0.0446    2.6829 C   0  0  2  0  0  0  0  0  0  0  0  0
   -0.7551   -0.3867    1.2623 C   0  0  0  0  0  0  0  0  0  0  0  0
   -0.0106   -1.0851    0.5774 O   0  0  0  0  0  0  0  0  0  0  0  0
    0.1168    1.4689    2.7060 C   0  0  0  0  0  0  0  0  0  0  0  0
    1.1183   -1.4145    2.5542 H   0  0  0  0  0  0  0  0  0  0  0  0
   -1.3088   -0.0350    3.3125 H   0  0  0  0  0  0  0  0  0  0  0  0
    1.0116    1.5681    2.0808 H   0  0  0  0  0  0  0  0  0  0  0  0
   -0.6289    2.1775    2.3307 H   0  0  0  0  0  0  0  0  0  0  0  0
    0.3882    1.7670    3.7245 H   0  0  0  0  0  0  0  0  0  0  0  0
   -1.9689    0.1350    0.8298 N   0  0  0  0  0  0  0  0  0  0  0  0
   -2.5039   -0.1183   -0.4830 C   0  0  2  0  0  0  0  0  0  0  0  0
   -3.8522   -0.8122   -0.3228 C   0  0  0  0  0  0  0  0  0  0  0  0
   -4.2832   -1.6331   -1.1300 O   0  0  0  0  0  0  0  0  0  0  0  0
   -1.5398   -0.9350   -1.3374 C   0  0  0  0  0  0  0  0  0  0  0  0
   -1.3859   -2.2415   -0.7947 O   0  0  0  0  0  0  0  0  0  0  0  0
   -2.5276    0.6894    1.4750 H   0  0  0  0  0  0  0  0  0  0  0  0
   -2.6629    0.8625   -0.9457 H   0  0  0  0  0  0  0  0  0  0  0  0
   -0.5520   -0.4645   -1.3747 H   0  0  0  0  0  0  0  0  0  0  0  0
   -1.9202   -1.0339   -2.3597 H   0  0  0  0  0  0  0  0  0  0  0  0
   -2.2669   -2.6481   -0.7939 H   0  0  0  0  0  0  0  0  0  0  0  0
   -4.4959   -0.4385    0.8483 N   0  0  0  0  0  0  0  0  0  0  0  0
   -5.7753   -0.9795    1.2448 C   0  0  2  0  0  0  0  0  0  0  0  0
   -5.8399   -2.4267    0.7747 C   0  0  0  0  0  0  0  0  0  0  0  0
   -5.1507   -2.8650   -0.1439 O   0  0  0  0  0  0  0  0  0  0  0  0
   -6.9230   -0.1677    0.6647 C   0  0  0  0  0  0  0  0  0  0  0  0
   -4.0451    0.2188    1.4779 H   0  0  0  0  0  0  0  0  0  0  0  0
   -5.8062   -0.9487    2.3394 H   0  0  0  0  0  0  0  0  0  0  0  0
   -6.9086   -0.1869   -0.4311 H   0  0  0  0  0  0  0  0  0  0  0  0
   -7.8916   -0.5620    0.9894 H   0  0  0  0  0  0  0  0  0  0  0  0
   -6.8581    0.8793    0.9798 H   0  0  0  0  0  0  0  0  0  0  0  0
   -6.7888   -3.1603    1.4730 N   0  0  0  0  0  0  0  0  0  0  0  0
   -7.0486   -4.5553    1.2039 C   0  0  0  0  0  0  0  0  0  0  0  0
   -7.3012   -2.7205    2.2318 H   0  0  0  0  0  0  0  0  0  0  0  0
   -7.8660   -4.6422    0.4729 H   0  0  0  0  0  0  0  0  0  0  0  0
   -6.1413   -5.0252    0.7966 H   0  0  0  0  0  0  0  0  0  0  0  0
   -7.3363   -5.0613    2.1373 H   0  0  0  0  0  0  0  0  0  0  0  0
  1  3  1  0  0  0  0
  1  7  1  0  0  0  0
  1  2  2  0  0  0  0
 29 30  1  0  0  0  0
 30 38  1  0  0  0  0
 30 31  2  0  0  0  0
  8  9  1  0  0  0  0
  9 17  1  0  0  0  0
  9 10  2  0  0  0  0
 18 19  1  0  0  0  0
 19 28  1  0  0  0  0
 19 20  2  0  0  0  0
 29 32  1  0  0  0  0
  8 11  1  0  0  0  0
 38 39  1  0  0  0  0
 18 21  1  0  0  0  0
 21 22  1  0  0  0  0
 28 29  1  0  0  0  0
  7  8  1  0  0  0  0
 17 18  1  0  0  0  0
  3  4  1  0  0  0  0
  3  5  1  0  0  0  0
  3  6  1  0  0  0  0
 32 35  1  0  0  0  0
 32 36  1  0  0  0  0
 32 37  1  0  0  0  0
 11 14  1  0  0  0  0
 11 15  1  0  0  0  0
 11 16  1  0  0  0  0
 39 41  1  0  0  0  0
 39 42  1  0  0  0  0
 39 43  1  0  0  0  0
 21 25  1  0  0  0  0
 21 26  1  0  0  0  0
 29 34  1  0  0  0  0
  8 13  1  0  0  0  0
 18 24  1  0  0  0  0
 38 40  1  0  0  0  0
  7 12  1  0  0  0  0
 28 33  1  0  0  0  0
 17 23  1  0  0  0  0
 22 27  1  0  0  0  0
M  END
$$$$

  -OEChem-05262214473D

 43 42  0     1  0  0  0  0  0999 V2000
    0.7424   -1.0926    4.5665 C   0  0  0  0  0  0  0  0  0  0  0  0
    0.1409   -0.5364    5.4779 O   0  0  0  0  0  0  0  0  0  0  0  0
    1.7940   -2.1023    4.8871 C   0  0  0  0  0  0  0  0  0  0  0  0
    2.7935   -1.6502    4.9904 H   0  0  0  0  0  0  0  0  0  0  0  0
    1.6064   -2.6156    5.8438 H   0  0  0  0  0  0  0  0  0  0  0  0
    1.9156   -2.9078    4.1453 H   0  0  0  0  0  0  0  0  0  0  0  0
    0.5488   -0.8838    3.2109 N   0  0  0  0  0  0  0  0  0  0  0  0
   -0.4159    0.0446    2.6829 C   0  0  2  0  0  0  0  0  0  0  0  0
   -0.7551   -0.3867    1.2623 C   0  0  0  0  0  0  0  0  0  0  0  0
   -0.0106   -1.0851    0.5774 O   0  0  0  0  0  0  0  0  0  0  0  0
    0.1168    1.4689    2.7060 C   0  0  0  0  0  0  0  0  0  0  0  0
    1.1183   -1.4145    2.5542 H   0  0  0  0  0  0  0  0  0  0  0  0
   -1.3088   -0.0350    3.3125 H   0  0  0  0  0  0  0  0  0  0  0  0
    1.0116    1.5681    2.0808 H   0  0  0  0  0  0  0  0  0  0  0  0
   -0.6289    2.1775    2.3307 H   0  0  0  0  0  0  0  0  0  0  0  0
    0.3882    1.7670    3.7245 H   0  0  0  0  0  0  0  0  0  0  0  0
   -1.9689    0.1350    0.8298 N   0  0  0  0  0  0  0  0  0  0  0  0
   -2.5039   -0.1183   -0.4830 C   0  0  2  0  0  0  0  0  0  0  0  0
   -3.8522   -0.8122   -0.3228 C   0  0  0  0  0  0  0  0  0  0  0  0
   -4.1713   -1.8119   -0.9629 O   0  0  0  0  0  0  0  0  0  0  0  0
   -1.5398   -0.9350   -1.3374 C   0  0  0  0  0  0  0  0  0  0  0  0
   -1.3859   -2.2415   -0.7947 O   0  0  0  0  0  0  0  0  0  0  0  0
   -2.5276    0.6894    1.4750 H   0  0  0  0  0  0  0  0  0  0  0  0
   -2.6629    0.8625   -0.9457 H   0  0  0  0  0  0  0  0  0  0  0  0
   -0.5520   -0.4645   -1.3747 H   0  0  0  0  0  0  0  0  0  0  0  0
   -1.9202   -1.0339   -2.3597 H   0  0  0  0  0  0  0  0  0  0  0  0
   -2.2669   -2.6481   -0.7939 H   0  0  0  0  0  0  0  0  0  0  0  0
   -4.6378   -0.2088    0.6489 N   0  0  0  0  0  0  0  0  0  0  0  0
   -5.9483   -0.6974    1.0101 C   0  0  2  0  0  0  0  0  0  0  0  0
   -5.9362   -2.2149    0.8820 C   0  0  0  0  0  0  0  0  0  0  0  0
   -5.1350   -2.8220    0.1744 O   0  0  0  0  0  0  0  0  0  0  0  0
   -7.0283   -0.0863    0.1310 C   0  0  0  0  0  0  0  0  0  0  0  0
   -4.2754    0.5923    1.1575 H   0  0  0  0  0  0  0  0  0  0  0  0
   -6.1118   -0.4200    2.0572 H   0  0  0  0  0  0  0  0  0  0  0  0
   -6.8812   -0.3533   -0.9219 H   0  0  0  0  0  0  0  0  0  0  0  0
   -8.0237   -0.4358    0.4245 H   0  0  0  0  0  0  0  0  0  0  0  0
   -7.0161    1.0067    0.2015 H   0  0  0  0  0  0  0  0  0  0  0  0
   -6.9525   -2.8089    1.6171 N   0  0  0  0  0  0  0  0  0  0  0  0
   -7.1591   -4.2380    1.6488 C   0  0  0  0  0  0  0  0  0  0  0  0
   -7.5588   -2.2295    2.1903 H   0  0  0  0  0  0  0  0  0  0  0  0
   -7.8808   -4.5220    0.8689 H   0  0  0  0  0  0  0  0  0  0  0  0
   -6.2029   -4.7506    1.4676 H   0  0  0  0  0  0  0  0  0  0  0  0
   -7.5506   -4.5299    2.6344 H   0  0  0  0  0  0  0  0  0  0  0  0
  1  3  1  0  0  0  0
  1  7  1  0  0  0  0
  1  2  2  0  0  0  0
 29 30  1  0  0  0  0
 30 38  1  0  0  0  0
 30 31  2  0  0  0  0
  8  9  1  0  0  0  0
  9 17  1  0  0  0  0
  9 10  2  0  0  0  0
 18 19  1  0  0  0  0
 19 28  1  0  0  0  0
 19 20  2  0  0  0  0
 29 32  1  0  0  0  0
  8 11  1  0  0  0  0
 38 39  1  0  0  0  0
 18 21  1  0  0  0  0
 21 22  1  0  0  0  0
 28 29  1  0  0  0  0
  7  8  1  0  0  0  0
 17 18  1  0  0  0  0
  3  4  1  0  0  0  0
  3  5  1  0  0  0  0
  3  6  1  0  0  0  0
 32 35  1  0  0  0  0
 32 36  1  0  0  0  0
 32 37  1  0  0  0  0
 11 14  1  0  0  0  0
 11 15  1  0  0  0  0
 11 16  1  0  0  0  0
 39 41  1  0  0  0  0
 39 42  1  0  0  0  0
 39 43  1  0  0  0  0
 21 25  1  0  0  0  0
 21 26  1  0  0  0  0
 29 34  1  0  0  0  0
  8 13  1  0  0  0  0
 18 24  1  0  0  0  0
 38 40  1  0  0  0  0
  7 12  1  0  0  0  0
 28 33  1  0  0  0  0
 17 23  1  0  0  0  0
 22 27  1  0  0  0  0
M  END
$$$$

  -OEChem-05262214473D

 43 42  0     1  0  0  0  0  0999 V2000
    0.7424   -1.0926    4.5665 C   0  0  0  0  0  0  0  0  0  0  0  0
    0.1409   -0.5364    5.4779 O   0  0  0  0  0  0  0  0  0  0  0  0
    1.7940   -2.1023    4.8871 C   0  0  0  0  0  0  0  0  0  0  0  0
    2.7935   -1.6502    4.9904 H   0  0  0  0  0  0  0  0  0  0  0  0
    1.6064   -2.6156    5.8438 H   0  0  0  0  0  0  0  0  0  0  0  0
    1.9156   -2.9078    4.1453 H   0  0  0  0  0  0  0  0  0  0  0  0
    0.5488   -0.8838    3.2109 N   0  0  0  0  0  0  0  0  0  0  0  0
   -0.4159    0.0446    2.6829 C   0  0  2  0  0  0  0  0  0  0  0  0
   -0.7551   -0.3867    1.2623 C   0  0  0  0  0  0  0  0  0  0  0  0
   -0.0106   -1.0851    0.5774 O   0  0  0  0  0  0  0  0  0  0  0  0
    0.1168    1.4689    2.7060 C   0  0  0  0  0  0  0  0  0  0  0  0
    1.1183   -1.4145    2.5542 H   0  0  0  0  0  0  0  0  0  0  0  0
   -1.3088   -0.0350    3.3125 H   0  0  0  0  0  0  0  0  0  0  0  0
    1.0116    1.5681    2.0808 H   0  0  0  0  0  0  0  0  0  0  0  0
   -0.6289    2.1775    2.3307 H   0  0  0  0  0  0  0  0  0  0  0  0
    0.3882    1.7670    3.7245 H   0  0  0  0  0  0  0  0  0  0  0  0
   -1.9689    0.1350    0.8298 N   0  0  0  0  0  0  0  0  0  0  0  0
   -2.5039   -0.1183   -0.4830 C   0  0  2  0  0  0  0  0  0  0  0  0
   -3.8522   -0.8122   -0.3228 C   0  0  0  0  0  0  0  0  0  0  0  0
   -4.0781   -1.9434   -0.7475 O   0  0  0  0  0  0  0  0  0  0  0  0
   -1.5398   -0.9350   -1.3374 C   0  0  0  0  0  0  0  0  0  0  0  0
   -1.3859   -2.2415   -0.7947 O   0  0  0  0  0  0  0  0  0  0  0  0
   -2.5276    0.6894    1.4750 H   0  0  0  0  0  0  0  0  0  0  0  0
   -2.6629    0.8625   -0.9457 H   0  0  0  0  0  0  0  0  0  0  0  0
   -0.5520   -0.4645   -1.3747 H   0  0  0  0  0  0  0  0  0  0  0  0
   -1.9202   -1.0339   -2.3597 H   0  0  0  0  0  0  0  0  0  0  0  0
   -2.2669   -2.6481   -0.7939 H   0  0  0  0  0  0  0  0  0  0  0  0
   -4.7577   -0.0364    0.3871 N   0  0  0  0  0  0  0  0  0  0  0  0
   -6.0955   -0.4833    0.6985 C   0  0  2  0  0  0  0  0  0  0  0  0
   -6.0475   -1.9885    0.9259 C   0  0  0  0  0  0  0  0  0  0  0  0
   -5.1586   -2.7072    0.4738 O   0  0  0  0  0  0  0  0  0  0  0  0
   -7.0694   -0.1327   -0.4156 C   0  0  0  0  0  0  0  0  0  0  0  0
   -4.4702    0.8734    0.7354 H   0  0  0  0  0  0  0  0  0  0  0  0
   -6.3881    0.0179    1.6276 H   0  0  0  0  0  0  0  0  0  0  0  0
   -6.7924   -0.6257   -1.3546 H   0  0  0  0  0  0  0  0  0  0  0  0
   -8.0882   -0.4467   -0.1655 H   0  0  0  0  0  0  0  0  0  0  0  0
   -7.0805    0.9473   -0.5980 H   0  0  0  0  0  0  0  0  0  0  0  0
   -7.1372   -2.4409    1.6567 N   0  0  0  0  0  0  0  0  0  0  0  0
   -7.3268   -3.8326    1.9930 C   0  0  0  0  0  0  0  0  0  0  0  0
   -7.8161   -1.7718    2.0075 H   0  0  0  0  0  0  0  0  0  0  0  0
   -7.9450   -4.3158    1.2221 H   0  0  0  0  0  0  0  0  0  0  0  0
   -6.3489   -4.3335    2.0457 H   0  0  0  0  0  0  0  0  0  0  0  0
   -7.8307   -3.9088    2.9678 H   0  0  0  0  0  0  0  0  0  0  0  0
  1  3  1  0  0  0  0
  1  7  1  0  0  0  0
  1  2  2  0  0  0  0
 29 30  1  0  0  0  0
 30 38  1  0  0  0  0
 30 31  2  0  0  0  0
  8  9  1  0  0  0  0
  9 17  1  0  0  0  0
  9 10  2  0  0  0  0
 18 19  1  0  0  0  0
 19 28  1  0  0  0  0
 19 20  2  0  0  0  0
 29 32  1  0  0  0  0
  8 11  1  0  0  0  0
 38 39  1  0  0  0  0
 18 21  1  0  0  0  0
 21 22  1  0  0  0  0
 28 29  1  0  0  0  0
  7  8  1  0  0  0  0
 17 18  1  0  0  0  0
  3  4  1  0  0  0  0
  3  5  1  0  0  0  0
  3  6  1  0  0  0  0
 32 35  1  0  0  0  0
 32 36  1  0  0  0  0
 32 37  1  0  0  0  0
 11 14  1  0  0  0  0
 11 15  1  0  0  0  0
 11 16  1  0  0  0  0
 39 41  1  0  0  0  0
 39 42  1  0  0  0  0
 39 43  1  0  0  0  0
 21 25  1  0  0  0  0
 21 26  1  0  0  0  0
 29 34  1  0  0  0  0
  8 13  1  0  0  0  0
 18 24  1  0  0  0  0
 38 40  1  0  0  0  0
  7 12  1  0  0  0  0
 28 33  1  0  0  0  0
 17 23  1  0  0  0  0
 22 27  1  0  0  0  0
M  END
$$$$

  -OEChem-05262214473D

 43 42  0     1  0  0  0  0  0999 V2000
    0.7424   -1.0926    4.5665 C   0  0  0  0  0  0  0  0  0  0  0  0
    0.1409   -0.5364    5.4779 O   0  0  0  0  0  0  0  0  0  0  0  0
    1.7940   -2.1023    4.8871 C   0  0  0  0  0  0  0  0  0  0  0  0
    2.7935   -1.6502    4.9904 H   0  0  0  0  0  0  0  0  0  0  0  0
    1.6064   -2.6156    5.8438 H   0  0  0  0  0  0  0  0  0  0  0  0
    1.9156   -2.9078    4.1453 H   0  0  0  0  0  0  0  0  0  0  0  0
    0.5488   -0.8838    3.2109 N   0  0  0  0  0  0  0  0  0  0  0  0
   -0.4159    0.0446    2.6829 C   0  0  2  0  0  0  0  0  0  0  0  0
   -0.7551   -0.3867    1.2623 C   0  0  0  0  0  0  0  0  0  0  0  0
   -0.0106   -1.0851    0.5774 O   0  0  0  0  0  0  0  0  0  0  0  0
    0.1168    1.4689    2.7060 C   0  0  0  0  0  0  0  0  0  0  0  0
    1.1183   -1.4145    2.5542 H   0  0  0  0  0  0  0  0  0  0  0  0
   -1.3088   -0.0350    3.3125 H   0  0  0  0  0  0  0  0  0  0  0  0
    1.0116    1.5681    2.0808 H   0  0  0  0  0  0  0  0  0  0  0  0
   -0.6289    2.1775    2.3307 H   0  0  0  0  0  0  0  0  0  0  0  0
    0.3882    1.7670    3.7245 H   0  0  0  0  0  0  0  0  0  0  0  0
   -1.9689    0.1350    0.8298 N   0  0  0  0  0  0  0  0  0  0  0  0
   -2.5039   -0.1183   -0.4830 C   0  0  2  0  0  0  0  0  0  0  0  0
   -3.8522   -0.8122   -0.3228 C   0  0  0  0  0  0  0  0  0  0  0  0
   -4.0098   -2.0186   -0.4983 O   0  0  0  0  0  0  0  0  0  0  0  0
   -1.5398   -0.9350   -1.3374 C   0  0  0  0  0  0  0  0  0  0  0  0
   -1.3859   -2.2415   -0.7947 O   0  0  0  0  0  0  0  0  0  0  0  0
   -2.5276    0.6894    1.4750 H   0  0  0  0  0  0  0  0  0  0  0  0
   -2.6629    0.8625   -0.9457 H   0  0  0  0  0  0  0  0  0  0  0  0
   -0.5520   -0.4645   -1.3747 H   0  0  0  0  0  0  0  0  0  0  0  0
   -1.9202   -1.0339   -2.3597 H   0  0  0  0  0  0  0  0  0  0  0  0
   -2.2669   -2.6481   -0.7939 H   0  0  0  0  0  0  0  0  0  0  0  0
   -4.8472    0.0670    0.0806 N   0  0  0  0  0  0  0  0  0  0  0  0
   -6.2068   -0.3519    0.3312 C   0  0  2  0  0  0  0  0  0  0  0  0
   -6.1663   -1.7627    0.9033 C   0  0  0  0  0  0  0  0  0  0  0  0
   -5.2197   -2.5284    0.7340 O   0  0  0  0  0  0  0  0  0  0  0  0
   -7.0434   -0.3037   -0.9378 C   0  0  0  0  0  0  0  0  0  0  0  0
   -4.6163    1.0431    0.2404 H   0  0  0  0  0  0  0  0  0  0  0  0
   -6.6163    0.3349    1.0799 H   0  0  0  0  0  0  0  0  0  0  0  0
   -6.6483   -0.9855   -1.6998 H   0  0  0  0  0  0  0  0  0  0  0  0
   -8.0806   -0.5941   -0.7405 H   0  0  0  0  0  0  0  0  0  0  0  0
   -7.0470    0.7052   -1.3643 H   0  0  0  0  0  0  0  0  0  0  0  0
   -7.3302   -2.0814    1.5889 N   0  0  0  0  0  0  0  0  0  0  0  0
   -7.5403   -3.3669    2.2129 C   0  0  0  0  0  0  0  0  0  0  0  0
   -8.0556   -1.3784    1.6958 H   0  0  0  0  0  0  0  0  0  0  0  0
   -8.0542   -4.0374    1.5085 H   0  0  0  0  0  0  0  0  0  0  0  0
   -6.5693   -3.8023    2.4913 H   0  0  0  0  0  0  0  0  0  0  0  0
   -8.1574   -3.2401    3.1147 H   0  0  0  0  0  0  0  0  0  0  0  0
  1  3  1  0  0  0  0
  1  7  1  0  0  0  0
  1  2  2  0  0  0  0
 29 30  1  0  0  0  0
 30 38  1  0  0  0  0
 30 31  2  0  0  0  0
  8  9  1  0  0  0  0
  9 17  1  0  0  0  0
  9 10  2  0  0  0  0
 18 19  1  0  0  0  0
 19 28  1  0  0  0  0
 19 20  2  0  0  0  0
 29 32  1  0  0  0  0
  8 11  1  0  0  0  0
 38 39  1  0  0  0  0
 18 21  1  0  0  0  0
 21 22  1  0  0  0  0
 28 29  1  0  0  0  0
  7  8  1  0  0  0  0
 17 18  1  0  0  0  0
  3  4  1  0  0  0  0
  3  5  1  0  0  0  0
  3  6  1  0  0  0  0
 32 35  1  0  0  0  0
 32 36  1  0  0  0  0
 32 37  1  0  0  0  0
 11 14  1  0  0  0  0
 11 15  1  0  0  0  0
 11 16  1  0  0  0  0
 39 41  1  0  0  0  0
 39 42  1  0  0  0  0
 39 43  1  0  0  0  0
 21 25  1  0  0  0  0
 21 26  1  0  0  0  0
 29 34  1  0  0  0  0
  8 13  1  0  0  0  0
 18 24  1  0  0  0  0
 38 40  1  0  0  0  0
  7 12  1  0  0  0  0
 28 33  1  0  0  0  0
 17 23  1  0  0  0  0
 22 27  1  0  0  0  0
M  END
$$$$

  -OEChem-05262214473D

 43 42  0     1  0  0  0  0  0999 V2000
    0.7424   -1.0926    4.5665 C   0  0  0  0  0  0  0  0  0  0  0  0
    0.1409   -0.5364    5.4779 O   0  0  0  0  0  0  0  0  0  0  0  0
    1.7940   -2.1023    4.8871 C   0  0  0  0  0  0  0  0  0  0  0  0
    2.7935   -1.6502    4.9904 H   0  0  0  0  0  0  0  0  0  0  0  0
    1.6064   -2.6156    5.8438 H   0  0  0  0  0  0  0  0  0  0  0  0
    1.9156   -2.9078    4.1453 H   0  0  0  0  0  0  0  0  0  0  0  0
    0.5488   -0.8838    3.2109 N   0  0  0  0  0  0  0  0  0  0  0  0
   -0.4159    0.0446    2.6829 C   0  0  2  0  0  0  0  0  0  0  0  0
   -0.7551   -0.3867    1.2623 C   0  0  0  0  0  0  0  0  0  0  0  0
   -0.0106   -1.0851    0.5774 O   0  0  0  0  0  0  0  0  0  0  0  0
    0.1168    1.4689    2.7060 C   0  0  0  0  0  0  0  0  0  0  0  0
    1.1183   -1.4145    2.5542 H   0  0  0  0  0  0  0  0  0  0  0  0
   -1.3088   -0.0350    3.3125 H   0  0  0  0  0  0  0  0  0  0  0  0
    1.0116    1.5681    2.0808 H   0  0  0  0  0  0  0  0  0  0  0  0
   -0.6289    2.1775    2.3307 H   0  0  0  0  0  0  0  0  0  0  0  0
    0.3882    1.7670    3.7245 H   0  0  0  0  0  0  0  0  0  0  0  0
   -1.9689    0.1350    0.8298 N   0  0  0  0  0  0  0  0  0  0  0  0
   -2.5039   -0.1183   -0.4830 C   0  0  2  0  0  0  0  0  0  0  0  0
   -3.8522   -0.8122   -0.3228 C   0  0  0  0  0  0  0  0  0  0  0  0
   -3.9711   -2.0323   -0.2324 O   0  0  0  0  0  0  0  0  0  0  0  0
   -1.5398   -0.9350   -1.3374 C   0  0  0  0  0  0  0  0  0  0  0  0
   -1.3859   -2.2415   -0.7947 O   0  0  0  0  0  0  0  0  0  0  0  0
   -2.5276    0.6894    1.4750 H   0  0  0  0  0  0  0  0  0  0  0  0
   -2.6629    0.8625   -0.9457 H   0  0  0  0  0  0  0  0  0  0  0  0
   -0.5520   -0.4645   -1.3747 H   0  0  0  0  0  0  0  0  0  0  0  0
   -1.9202   -1.0339   -2.3597 H   0  0  0  0  0  0  0  0  0  0  0  0
   -2.2669   -2.6481   -0.7939 H   0  0  0  0  0  0  0  0  0  0  0  0
   -4.9005    0.0942   -0.2497 N   0  0  0  0  0  0  0  0  0  0  0  0
   -6.2746   -0.3120   -0.0668 C   0  0  2  0  0  0  0  0  0  0  0  0
   -6.2846   -1.5530    0.8159 C   0  0  0  0  0  0  0  0  0  0  0  0
   -5.3142   -2.2978    0.9372 O   0  0  0  0  0  0  0  0  0  0  0  0
   -6.9522   -0.5877   -1.4001 C   0  0  0  0  0  0  0  0  0  0  0  0
   -4.7037    1.0897   -0.2938 H   0  0  0  0  0  0  0  0  0  0  0  0
   -6.7809    0.5096    0.4514 H   0  0  0  0  0  0  0  0  0  0  0  0
   -6.4586   -1.4080   -1.9339 H   0  0  0  0  0  0  0  0  0  0  0  0
   -8.0016   -0.8678   -1.2613 H   0  0  0  0  0  0  0  0  0  0  0  0
   -6.9177    0.2969   -2.0451 H   0  0  0  0  0  0  0  0  0  0  0  0
   -7.5185   -1.7550    1.4184 N   0  0  0  0  0  0  0  0  0  0  0  0
   -7.7852   -2.8725    2.2936 C   0  0  0  0  0  0  0  0  0  0  0  0
   -8.2608   -1.0763    1.2766 H   0  0  0  0  0  0  0  0  0  0  0  0
   -8.2010   -3.7060    1.7085 H   0  0  0  0  0  0  0  0  0  0  0  0
   -6.8492   -3.1931    2.7743 H   0  0  0  0  0  0  0  0  0  0  0  0
   -8.5084   -2.5694    3.0650 H   0  0  0  0  0  0  0  0  0  0  0  0
  1  3  1  0  0  0  0
  1  7  1  0  0  0  0
  1  2  2  0  0  0  0
 29 30  1  0  0  0  0
 30 38  1  0  0  0  0
 30 31  2  0  0  0  0
  8  9  1  0  0  0  0
  9 17  1  0  0  0  0
  9 10  2  0  0  0  0
 18 19  1  0  0  0  0
 19 28  1  0  0  0  0
 19 20  2  0  0  0  0
 29 32  1  0  0  0  0
  8 11  1  0  0  0  0
 38 39  1  0  0  0  0
 18 21  1  0  0  0  0
 21 22  1  0  0  0  0
 28 29  1  0  0  0  0
  7  8  1  0  0  0  0
 17 18  1  0  0  0  0
  3  4  1  0  0  0  0
  3  5  1  0  0  0  0
  3  6  1  0  0  0  0
 32 35  1  0  0  0  0
 32 36  1  0  0  0  0
 32 37  1  0  0  0  0
 11 14  1  0  0  0  0
 11 15  1  0  0  0  0
 11 16  1  0  0  0  0
 39 41  1  0  0  0  0
 39 42  1  0  0  0  0
 39 43  1  0  0  0  0
 21 25  1  0  0  0  0
 21 26  1  0  0  0  0
 29 34  1  0  0  0  0
  8 13  1  0  0  0  0
 18 24  1  0  0  0  0
 38 40  1  0  0  0  0
  7 12  1  0  0  0  0
 28 33  1  0  0  0  0
 17 23  1  0  0  0  0
 22 27  1  0  0  0  0
M  END
$$$$

  -OEChem-05262214473D

 43 42  0     1  0  0  0  0  0999 V2000
    0.7424   -1.0926    4.5665 C   0  0  0  0  0  0  0  0  0  0  0  0
    0.1409   -0.5364    5.4779 O   0  0  0  0  0  0  0  0  0  0  0  0
    1.7940   -2.1023    4.8871 C   0  0  0  0  0  0  0  0  0  0  0  0
    2.7935   -1.6502    4.9904 H   0  0  0  0  0  0  0  0  0  0  0  0
    1.6064   -2.6156    5.8438 H   0  0  0  0  0  0  0  0  0  0  0  0
    1.9156   -2.9078    4.1453 H   0  0  0  0  0  0  0  0  0  0  0  0
    0.5488   -0.8838    3.2109 N   0  0  0  0  0  0  0  0  0  0  0  0
   -0.4159    0.0446    2.6829 C   0  0  2  0  0  0  0  0  0  0  0  0
   -0.7551   -0.3867    1.2623 C   0  0  0  0  0  0  0  0  0  0  0  0
   -0.0106   -1.0851    0.5774 O   0  0  0  0  0  0  0  0  0  0  0  0
    0.1168    1.4689    2.7060 C   0  0  0  0  0  0  0  0  0  0  0  0
    1.1183   -1.4145    2.5542 H   0  0  0  0  0  0  0  0  0  0  0  0
   -1.3088   -0.0350    3.3125 H   0  0  0  0  0  0  0  0  0  0  0  0
    1.0116    1.5681    2.0808 H   0  0  0  0  0  0  0  0  0  0  0  0
   -0.6289    2.1775    2.3307 H   0  0  0  0  0  0  0  0  0  0  0  0
    0.3882    1.7670    3.7245 H   0  0  0  0  0  0  0  0  0  0  0  0
   -1.9689    0.1350    0.8298 N   0  0  0  0  0  0  0  0  0  0  0  0
   -2.5039   -0.1183   -0.4830 C   0  0  2  0  0  0  0  0  0  0  0  0
   -3.8522   -0.8122   -0.3228 C   0  0  0  0  0  0  0  0  0  0  0  0
   -3.9648   -1.9837    0.0321 O   0  0  0  0  0  0  0  0  0  0  0  0
   -1.5398   -0.9350   -1.3374 C   0  0  0  0  0  0  0  0  0  0  0  0
   -1.3859   -2.2415   -0.7947 O   0  0  0  0  0  0  0  0  0  0  0  0
   -2.5276    0.6894    1.4750 H   0  0  0  0  0  0  0  0  0  0  0  0
   -2.6629    0.8625   -0.9457 H   0  0  0  0  0  0  0  0  0  0  0  0
   -0.5520   -0.4645   -1.3747 H   0  0  0  0  0  0  0  0  0  0  0  0
   -1.9202   -1.0339   -2.3597 H   0  0  0  0  0  0  0  0  0  0  0  0
   -2.2669   -2.6481   -0.7939 H   0  0  0  0  0  0  0  0  0  0  0  0
   -4.9137    0.0434   -0.5812 N   0  0  0  0  0  0  0  0  0  0  0  0
   -6.2943   -0.3664   -0.4684 C   0  0  2  0  0  0  0  0  0  0  0  0
   -6.3943   -1.3737    0.6695 C   0  0  0  0  0  0  0  0  0  0  0  0
   -5.4357   -2.0311    1.0696 O   0  0  0  0  0  0  0  0  0  0  0  0
   -6.8019   -0.9654   -1.7708 C   0  0  0  0  0  0  0  0  0  0  0  0
   -4.7266    1.0101   -0.8307 H   0  0  0  0  0  0  0  0  0  0  0  0
   -6.8706    0.5301   -0.2150 H   0  0  0  0  0  0  0  0  0  0  0  0
   -6.2364   -1.8646   -2.0410 H   0  0  0  0  0  0  0  0  0  0  0  0
   -7.8565   -1.2493   -1.6924 H   0  0  0  0  0  0  0  0  0  0  0  0
   -6.7016   -0.2498   -2.5940 H   0  0  0  0  0  0  0  0  0  0  0  0
   -7.6891   -1.4838    1.1568 N   0  0  0  0  0  0  0  0  0  0  0  0
   -8.0446   -2.3831    2.2295 C   0  0  0  0  0  0  0  0  0  0  0  0
   -8.4179   -0.8860    0.7783 H   0  0  0  0  0  0  0  0  0  0  0  0
   -8.3754   -3.3441    1.8087 H   0  0  0  0  0  0  0  0  0  0  0  0
   -7.1694   -2.5476    2.8752 H   0  0  0  0  0  0  0  0  0  0  0  0
   -8.8599   -1.9425    2.8222 H   0  0  0  0  0  0  0  0  0  0  0  0
  1  3  1  0  0  0  0
  1  7  1  0  0  0  0
  1  2  2  0  0  0  0
 29 30  1  0  0  0  0
 30 38  1  0  0  0  0
 30 31  2  0  0  0  0
  8  9  1  0  0  0  0
  9 17  1  0  0  0  0
  9 10  2  0  0  0  0
 18 19  1  0  0  0  0
 19 28  1  0  0  0  0
 19 20  2  0  0  0  0
 29 32  1  0  0  0  0
  8 11  1  0  0  0  0
 38 39  1  0  0  0  0
 18 21  1  0  0  0  0
 21 22  1  0  0  0  0
 28 29  1  0  0  0  0
  7  8  1  0  0  0  0
 17 18  1  0  0  0  0
  3  4  1  0  0  0  0
  3  5  1  0  0  0  0
  3  6  1  0  0  0  0
 32 35  1  0  0  0  0
 32 36  1  0  0  0  0
 32 37  1  0  0  0  0
 11 14  1  0  0  0  0
 11 15  1  0  0  0  0
 11 16  1  0  0  0  0
 39 41  1  0  0  0  0
 39 42  1  0  0  0  0
 39 43  1  0  0  0  0
 21 25  1  0  0  0  0
 21 26  1  0  0  0  0
 29 34  1  0  0  0  0
  8 13  1  0  0  0  0
 18 24  1  0  0  0  0
 38 40  1  0  0  0  0
  7 12  1  0  0  0  0
 28 33  1  0  0  0  0
 17 23  1  0  0  0  0
 22 27  1  0  0  0  0
M  END
$$$$

  -OEChem-05262214473D

 43 42  0     1  0  0  0  0  0999 V2000
    0.7424   -1.0926    4.5665 C   0  0  0  0  0  0  0  0  0  0  0  0
    0.1409   -0.5364    5.4779 O   0  0  0  0  0  0  0  0  0  0  0  0
    1.7940   -2.1023    4.8871 C   0  0  0  0  0  0  0  0  0  0  0  0
    2.7935   -1.6502    4.9904 H   0  0  0  0  0  0  0  0  0  0  0  0
    1.6064   -2.6156    5.8438 H   0  0  0  0  0  0  0  0  0  0  0  0
    1.9156   -2.9078    4.1453 H   0  0  0  0  0  0  0  0  0  0  0  0
    0.5488   -0.8838    3.2109 N   0  0  0  0  0  0  0  0  0  0  0  0
   -0.4159    0.0446    2.6829 C   0  0  2  0  0  0  0  0  0  0  0  0
   -0.7551   -0.3867    1.2623 C   0  0  0  0  0  0  0  0  0  0  0  0
   -0.0106   -1.0851    0.5774 O   0  0  0  0  0  0  0  0  0  0  0  0
    0.1168    1.4689    2.7060 C   0  0  0  0  0  0  0  0  0  0  0  0
    1.1183   -1.4145    2.5542 H   0  0  0  0  0  0  0  0  0  0  0  0
   -1.3088   -0.0350    3.3125 H   0  0  0  0  0  0  0  0  0  0  0  0
    1.0116    1.5681    2.0808 H   0  0  0  0  0  0  0  0  0  0  0  0
   -0.6289    2.1775    2.3307 H   0  0  0  0  0  0  0  0  0  0  0  0
    0.3882    1.7670    3.7245 H   0  0  0  0  0  0  0  0  0  0  0  0
   -1.9689    0.1350    0.8298 N   0  0  0  0  0  0  0  0  0  0  0  0
   -2.5039   -0.1183   -0.4830 C   0  0  2  0  0  0  0  0  0  0  0  0
   -3.8522   -0.8122   -0.3228 C   0  0  0  0  0  0  0  0  0  0  0  0
   -3.9911   -1.8760    0.2773 O   0  0  0  0  0  0  0  0  0  0  0  0
   -1.5398   -0.9350   -1.3374 C   0  0  0  0  0  0  0  0  0  0  0  0
   -1.3859   -2.2415   -0.7947 O   0  0  0  0  0  0  0  0  0  0  0  0
   -2.5276    0.6894    1.4750 H   0  0  0  0  0  0  0  0  0  0  0  0
   -2.6629    0.8625   -0.9457 H   0  0  0  0  0  0  0  0  0  0  0  0
   -0.5520   -0.4645   -1.3747 H   0  0  0  0  0  0  0  0  0  0  0  0
   -1.9202   -1.0339   -2.3597 H   0  0  0  0  0  0  0  0  0  0  0  0
   -2.2669   -2.6481   -0.7939 H   0  0  0  0  0  0  0  0  0  0  0  0
   -4.8861   -0.0818   -0.8914 N   0  0  0  0  0  0  0  0  0  0  0  0
   -6.2645   -0.5114   -0.8461 C   0  0  2  0  0  0  0  0  0  0  0  0
   -6.4878   -1.2370    0.4741 C   0  0  0  0  0  0  0  0  0  0  0  0
   -5.5759   -1.7465    1.1222 O   0  0  0  0  0  0  0  0  0  0  0  0
   -6.6028   -1.4109   -2.0247 C   0  0  0  0  0  0  0  0  0  0  0  0
   -4.6832    0.8097   -1.3338 H   0  0  0  0  0  0  0  0  0  0  0  0
   -6.8793    0.3949   -0.8739 H   0  0  0  0  0  0  0  0  0  0  0  0
   -5.9967   -2.3241   -2.0138 H   0  0  0  0  0  0  0  0  0  0  0  0
   -7.6553   -1.7124   -2.0045 H   0  0  0  0  0  0  0  0  0  0  0  0
   -6.4133   -0.8976   -2.9737 H   0  0  0  0  0  0  0  0  0  0  0  0
   -7.8305   -1.2863    0.8220 N   0  0  0  0  0  0  0  0  0  0  0  0
   -8.3010   -1.9321    2.0251 C   0  0  0  0  0  0  0  0  0  0  0  0
   -8.5162   -0.8206    0.2349 H   0  0  0  0  0  0  0  0  0  0  0  0
   -8.5654   -2.9763    1.8020 H   0  0  0  0  0  0  0  0  0  0  0  0
   -7.5081   -1.9097    2.7872 H   0  0  0  0  0  0  0  0  0  0  0  0
   -9.1878   -1.4021    2.4029 H   0  0  0  0  0  0  0  0  0  0  0  0
  1  3  1  0  0  0  0
  1  7  1  0  0  0  0
  1  2  2  0  0  0  0
 29 30  1  0  0  0  0
 30 38  1  0  0  0  0
 30 31  2  0  0  0  0
  8  9  1  0  0  0  0
  9 17  1  0  0  0  0
  9 10  2  0  0  0  0
 18 19  1  0  0  0  0
 19 28  1  0  0  0  0
 19 20  2  0  0  0  0
 29 32  1  0  0  0  0
  8 11  1  0  0  0  0
 38 39  1  0  0  0  0
 18 21  1  0  0  0  0
 21 22  1  0  0  0  0
 28 29  1  0  0  0  0
  7  8  1  0  0  0  0
 17 18  1  0  0  0  0
  3  4  1  0  0  0  0
  3  5  1  0  0  0  0
  3  6  1  0  0  0  0
 32 35  1  0  0  0  0
 32 36  1  0  0  0  0
 32 37  1  0  0  0  0
 11 14  1  0  0  0  0
 11 15  1  0  0  0  0
 11 16  1  0  0  0  0
 39 41  1  0  0  0  0
 39 42  1  0  0  0  0
 39 43  1  0  0  0  0
 21 25  1  0  0  0  0
 21 26  1  0  0  0  0
 29 34  1  0  0  0  0
  8 13  1  0  0  0  0
 18 24  1  0  0  0  0
 38 40  1  0  0  0  0
  7 12  1  0  0  0  0
 28 33  1  0  0  0  0
 17 23  1  0  0  0  0
 22 27  1  0  0  0  0
M  END
$$$$

  -OEChem-05262214473D

 43 42  0     1  0  0  0  0  0999 V2000
    0.7424   -1.0926    4.5665 C   0  0  0  0  0  0  0  0  0  0  0  0
    0.1409   -0.5364    5.4779 O   0  0  0  0  0  0  0  0  0  0  0  0
    1.7940   -2.1023    4.8871 C   0  0  0  0  0  0  0  0  0  0  0  0
    2.7935   -1.6502    4.9904 H   0  0  0  0  0  0  0  0  0  0  0  0
    1.6064   -2.6156    5.8438 H   0  0  0  0  0  0  0  0  0  0  0  0
    1.9156   -2.9078    4.1453 H   0  0  0  0  0  0  0  0  0  0  0  0
    0.5488   -0.8838    3.2109 N   0  0  0  0  0  0  0  0  0  0  0  0
   -0.4159    0.0446    2.6829 C   0  0  2  0  0  0  0  0  0  0  0  0
   -0.7551   -0.3867    1.2623 C   0  0  0  0  0  0  0  0  0  0  0  0
   -0.0106   -1.0851    0.5774 O   0  0  0  0  0  0  0  0  0  0  0  0
    0.1168    1.4689    2.7060 C   0  0  0  0  0  0  0  0  0  0  0  0
    1.1183   -1.4145    2.5542 H   0  0  0  0  0  0  0  0  0  0  0  0
   -1.3088   -0.0350    3.3125 H   0  0  0  0  0  0  0  0  0  0  0  0
    1.0116    1.5681    2.0808 H   0  0  0  0  0  0  0  0  0  0  0  0
   -0.6289    2.1775    2.3307 H   0  0  0  0  0  0  0  0  0  0  0  0
    0.3882    1.7670    3.7245 H   0  0  0  0  0  0  0  0  0  0  0  0
   -1.9689    0.1350    0.8298 N   0  0  0  0  0  0  0  0  0  0  0  0
   -2.5039   -0.1183   -0.4830 C   0  0  2  0  0  0  0  0  0  0  0  0
   -3.8522   -0.8122   -0.3228 C   0  0  0  0  0  0  0  0  0  0  0  0
   -4.0483   -1.7165    0.4863 O   0  0  0  0  0  0  0  0  0  0  0  0
   -1.5398   -0.9350   -1.3374 C   0  0  0  0  0  0  0  0  0  0  0  0
   -1.3859   -2.2415   -0.7947 O   0  0  0  0  0  0  0  0  0  0  0  0
   -2.5276    0.6894    1.4750 H   0  0  0  0  0  0  0  0  0  0  0  0
   -2.6629    0.8625   -0.9457 H   0  0  0  0  0  0  0  0  0  0  0  0
   -0.5520   -0.4645   -1.3747 H   0  0  0  0  0  0  0  0  0  0  0  0
   -1.9202   -1.0339   -2.3597 H   0  0  0  0  0  0  0  0  0  0  0  0
   -2.2669   -2.6481   -0.7939 H   0  0  0  0  0  0  0  0  0  0  0  0
   -4.8195   -0.2730   -1.1591 N   0  0  0  0  0  0  0  0  0  0  0  0
   -6.1874   -0.7371   -1.1743 C   0  0  2  0  0  0  0  0  0  0  0  0
   -6.5589   -1.1523    0.2431 C   0  0  0  0  0  0  0  0  0  0  0  0
   -5.7253   -1.4634    1.0913 O   0  0  0  0  0  0  0  0  0  0  0  0
   -6.3685   -1.8939   -2.1446 C   0  0  0  0  0  0  0  0  0  0  0  0
   -4.5766    0.5022   -1.7688 H   0  0  0  0  0  0  0  0  0  0  0  0
   -6.8064    0.1132   -1.4805 H   0  0  0  0  0  0  0  0  0  0  0  0
   -5.7559   -2.7552   -1.8541 H   0  0  0  0  0  0  0  0  0  0  0  0
   -7.4115   -2.2258   -2.1762 H   0  0  0  0  0  0  0  0  0  0  0  0
   -6.0725   -1.6024   -3.1582 H   0  0  0  0  0  0  0  0  0  0  0  0
   -7.9330   -1.1761    0.4367 N   0  0  0  0  0  0  0  0  0  0  0  0
   -8.5368   -1.5503    1.6943 C   0  0  0  0  0  0  0  0  0  0  0  0
   -8.5489   -0.8843   -0.3165 H   0  0  0  0  0  0  0  0  0  0  0  0
   -8.7582   -2.6278    1.6890 H   0  0  0  0  0  0  0  0  0  0  0  0
   -7.8423   -1.3228    2.5164 H   0  0  0  0  0  0  0  0  0  0  0  0
   -9.4698   -0.9850    1.8355 H   0  0  0  0  0  0  0  0  0  0  0  0
  1  3  1  0  0  0  0
  1  7  1  0  0  0  0
  1  2  2  0  0  0  0
 29 30  1  0  0  0  0
 30 38  1  0  0  0  0
 30 31  2  0  0  0  0
  8  9  1  0  0  0  0
  9 17  1  0  0  0  0
  9 10  2  0  0  0  0
 18 19  1  0  0  0  0
 19 28  1  0  0  0  0
 19 20  2  0  0  0  0
 29 32  1  0  0  0  0
  8 11  1  0  0  0  0
 38 39  1  0  0  0  0
 18 21  1  0  0  0  0
 21 22  1  0  0  0  0
 28 29  1  0  0  0  0
  7  8  1  0  0  0  0
 17 18  1  0  0  0  0
  3  4  1  0  0  0  0
  3  5  1  0  0  0  0
  3  6  1  0  0  0  0
 32 35  1  0  0  0  0
 32 36  1  0  0  0  0
 32 37  1  0  0  0  0
 11 14  1  0  0  0  0
 11 15  1  0  0  0  0
 11 16  1  0  0  0  0
 39 41  1  0  0  0  0
 39 42  1  0  0  0  0
 39 43  1  0  0  0  0
 21 25  1  0  0  0  0
 21 26  1  0  0  0  0
 29 34  1  0  0  0  0
  8 13  1  0  0  0  0
 18 24  1  0  0  0  0
 38 40  1  0  0  0  0
  7 12  1  0  0  0  0
 28 33  1  0  0  0  0
 17 23  1  0  0  0  0
 22 27  1  0  0  0  0
M  END
$$$$

  -OEChem-05262214473D

 43 42  0     1  0  0  0  0  0999 V2000
    0.7424   -1.0926    4.5665 C   0  0  0  0  0  0  0  0  0  0  0  0
    0.1409   -0.5364    5.4779 O   0  0  0  0  0  0  0  0  0  0  0  0
    1.7940   -2.1023    4.8871 C   0  0  0  0  0  0  0  0  0  0  0  0
    2.7935   -1.6502    4.9904 H   0  0  0  0  0  0  0  0  0  0  0  0
    1.6064   -2.6156    5.8438 H   0  0  0  0  0  0  0  0  0  0  0  0
    1.9156   -2.9078    4.1453 H   0  0  0  0  0  0  0  0  0  0  0  0
    0.5488   -0.8838    3.2109 N   0  0  0  0  0  0  0  0  0  0  0  0
   -0.4159    0.0446    2.6829 C   0  0  2  0  0  0  0  0  0  0  0  0
   -0.7551   -0.3867    1.2623 C   0  0  0  0  0  0  0  0  0  0  0  0
   -0.0106   -1.0851    0.5774 O   0  0  0  0  0  0  0  0  0  0  0  0
    0.1168    1.4689    2.7060 C   0  0  0  0  0  0  0  0  0  0  0  0
    1.1183   -1.4145    2.5542 H   0  0  0  0  0  0  0  0  0  0  0  0
   -1.3088   -0.0350    3.3125 H   0  0  0  0  0  0  0  0  0  0  0  0
    1.0116    1.5681    2.0808 H   0  0  0  0  0  0  0  0  0  0  0  0
   -0.6289    2.1775    2.3307 H   0  0  0  0  0  0  0  0  0  0  0  0
    0.3882    1.7670    3.7245 H   0  0  0  0  0  0  0  0  0  0  0  0
   -1.9689    0.1350    0.8298 N   0  0  0  0  0  0  0  0  0  0  0  0
   -2.5039   -0.1183   -0.4830 C   0  0  2  0  0  0  0  0  0  0  0  0
   -3.8522   -0.8122   -0.3228 C   0  0  0  0  0  0  0  0  0  0  0  0
   -4.1325   -1.5163    0.6451 O   0  0  0  0  0  0  0  0  0  0  0  0
   -1.5398   -0.9350   -1.3374 C   0  0  0  0  0  0  0  0  0  0  0  0
   -1.3859   -2.2415   -0.7947 O   0  0  0  0  0  0  0  0  0  0  0  0
   -2.5276    0.6894    1.4750 H   0  0  0  0  0  0  0  0  0  0  0  0
   -2.6629    0.8625   -0.9457 H   0  0  0  0  0  0  0  0  0  0  0  0
   -0.5520   -0.4645   -1.3747 H   0  0  0  0  0  0  0  0  0  0  0  0
   -1.9202   -1.0339   -2.3597 H   0  0  0  0  0  0  0  0  0  0  0  0
   -2.2669   -2.6481   -0.7939 H   0  0  0  0  0  0  0  0  0  0  0  0
   -4.7185   -0.5172   -1.3660 N   0  0  0  0  0  0  0  0  0  0  0  0
   -6.0681   -1.0281   -1.4305 C   0  0  2  0  0  0  0  0  0  0  0  0
   -6.6027   -1.1252   -0.0078 C   0  0  0  0  0  0  0  0  0  0  0  0
   -5.8736   -1.2011    0.9790 O   0  0  0  0  0  0  0  0  0  0  0  0
   -6.1149   -2.3816   -2.1223 C   0  0  0  0  0  0  0  0  0  0  0  0
   -4.4141    0.1084   -2.1060 H   0  0  0  0  0  0  0  0  0  0  0  0
   -6.6569   -0.2956   -1.9934 H   0  0  0  0  0  0  0  0  0  0  0  0
   -5.5304   -3.1285   -1.5728 H   0  0  0  0  0  0  0  0  0  0  0  0
   -7.1418   -2.7543   -2.1958 H   0  0  0  0  0  0  0  0  0  0  0  0
   -5.7025   -2.3161   -3.1350 H   0  0  0  0  0  0  0  0  0  0  0  0
   -7.9896   -1.1605    0.0273 N   0  0  0  0  0  0  0  0  0  0  0  0
   -8.7360   -1.2636    1.2595 C   0  0  0  0  0  0  0  0  0  0  0  0
   -8.5138   -1.0730   -0.8384 H   0  0  0  0  0  0  0  0  0  0  0  0
   -8.9406   -2.3222    1.4774 H   0  0  0  0  0  0  0  0  0  0  0  0
   -8.1491   -0.8270    2.0811 H   0  0  0  0  0  0  0  0  0  0  0  0
   -9.6868   -0.7197    1.1587 H   0  0  0  0  0  0  0  0  0  0  0  0
  1  3  1  0  0  0  0
  1  7  1  0  0  0  0
  1  2  2  0  0  0  0
 29 30  1  0  0  0  0
 30 38  1  0  0  0  0
 30 31  2  0  0  0  0
  8  9  1  0  0  0  0
  9 17  1  0  0  0  0
  9 10  2  0  0  0  0
 18 19  1  0  0  0  0
 19 28  1  0  0  0  0
 19 20  2  0  0  0  0
 29 32  1  0  0  0  0
  8 11  1  0  0  0  0
 38 39  1  0  0  0  0
 18 21  1  0  0  0  0
 21 22  1  0  0  0  0
 28 29  1  0  0  0  0
  7  8  1  0  0  0  0
 17 18  1  0  0  0  0
  3  4  1  0  0  0  0
  3  5  1  0  0  0  0
  3  6  1  0  0  0  0
 32 35  1  0  0  0  0
 32 36  1  0  0  0  0
 32 37  1  0  0  0  0
 11 14  1  0  0  0  0
 11 15  1  0  0  0  0
 11 16  1  0  0  0  0
 39 41  1  0  0  0  0
 39 42  1  0  0  0  0
 39 43  1  0  0  0  0
 21 25  1  0  0  0  0
 21 26  1  0  0  0  0
 29 34  1  0  0  0  0
  8 13  1  0  0  0  0
 18 24  1  0  0  0  0
 38 40  1  0  0  0  0
  7 12  1  0  0  0  0
 28 33  1  0  0  0  0
 17 23  1  0  0  0  0
 22 27  1  0  0  0  0
M  END
$$$$

  -OEChem-05262214473D

 43 42  0     1  0  0  0  0  0999 V2000
    0.7424   -1.0926    4.5665 C   0  0  0  0  0  0  0  0  0  0  0  0
    0.1409   -0.5364    5.4779 O   0  0  0  0  0  0  0  0  0  0  0  0
    1.7940   -2.1023    4.8871 C   0  0  0  0  0  0  0  0  0  0  0  0
    2.7935   -1.6502    4.9904 H   0  0  0  0  0  0  0  0  0  0  0  0
    1.6064   -2.6156    5.8438 H   0  0  0  0  0  0  0  0  0  0  0  0
    1.9156   -2.9078    4.1453 H   0  0  0  0  0  0  0  0  0  0  0  0
    0.5488   -0.8838    3.2109 N   0  0  0  0  0  0  0  0  0  0  0  0
   -0.4159    0.0446    2.6829 C   0  0  2  0  0  0  0  0  0  0  0  0
   -0.7551   -0.3867    1.2623 C   0  0  0  0  0  0  0  0  0  0  0  0
   -0.0106   -1.0851    0.5774 O   0  0  0  0  0  0  0  0  0  0  0  0
    0.1168    1.4689    2.7060 C   0  0  0  0  0  0  0  0  0  0  0  0
    1.1183   -1.4145    2.5542 H   0  0  0  0  0  0  0  0  0  0  0  0
   -1.3088   -0.0350    3.3125 H   0  0  0  0  0  0  0  0  0  0  0  0
    1.0116    1.5681    2.0808 H   0  0  0  0  0  0  0  0  0  0  0  0
   -0.6289    2.1775    2.3307 H   0  0  0  0  0  0  0  0  0  0  0  0
    0.3882    1.7670    3.7245 H   0  0  0  0  0  0  0  0  0  0  0  0
   -1.9689    0.1350    0.8298 N   0  0  0  0  0  0  0  0  0  0  0  0
   -2.5039   -0.1183   -0.4830 C   0  0  2  0  0  0  0  0  0  0  0  0
   -3.8522   -0.8122   -0.3228 C   0  0  0  0  0  0  0  0  0  0  0  0
   -4.2380   -1.2888    0.7426 O   0  0  0  0  0  0  0  0  0  0  0  0
   -1.5398   -0.9350   -1.3374 C   0  0  0  0  0  0  0  0  0  0  0  0
   -1.3859   -2.2415   -0.7947 O   0  0  0  0  0  0  0  0  0  0  0  0
   -2.5276    0.6894    1.4750 H   0  0  0  0  0  0  0  0  0  0  0  0
   -2.6629    0.8625   -0.9457 H   0  0  0  0  0  0  0  0  0  0  0  0
   -0.5520   -0.4645   -1.3747 H   0  0  0  0  0  0  0  0  0  0  0  0
   -1.9202   -1.0339   -2.3597 H   0  0  0  0  0  0  0  0  0  0  0  0
   -2.2669   -2.6481   -0.7939 H   0  0  0  0  0  0  0  0  0  0  0  0
   -4.5898   -0.7976   -1.4982 N   0  0  0  0  0  0  0  0  0  0  0  0
   -5.9147   -1.3646   -1.5974 C   0  0  2  0  0  0  0  0  0  0  0  0
   -6.6161   -1.1576   -0.2615 C   0  0  0  0  0  0  0  0  0  0  0  0
   -6.0108   -0.9774    0.7931 O   0  0  0  0  0  0  0  0  0  0  0  0
   -5.8593   -2.8406   -1.9593 C   0  0  0  0  0  0  0  0  0  0  0  0
   -4.2066   -0.3446   -2.3225 H   0  0  0  0  0  0  0  0  0  0  0  0
   -6.4410   -0.8039   -2.3776 H   0  0  0  0  0  0  0  0  0  0  0  0
   -5.3355   -3.4186   -1.1892 H   0  0  0  0  0  0  0  0  0  0  0  0
   -6.8647   -3.2619   -2.0621 H   0  0  0  0  0  0  0  0  0  0  0  0
   -5.3284   -2.9902   -2.9056 H   0  0  0  0  0  0  0  0  0  0  0  0
   -7.9965   -1.2408   -0.3784 N   0  0  0  0  0  0  0  0  0  0  0  0
   -8.8850   -1.0916    0.7505 C   0  0  0  0  0  0  0  0  0  0  0  0
   -8.4133   -1.3737   -1.2951 H   0  0  0  0  0  0  0  0  0  0  0  0
   -9.1002   -2.0804    1.1816 H   0  0  0  0  0  0  0  0  0  0  0  0
   -8.4077   -0.4561    1.5111 H   0  0  0  0  0  0  0  0  0  0  0  0
   -9.8238   -0.6241    0.4188 H   0  0  0  0  0  0  0  0  0  0  0  0
  1  3  1  0  0  0  0
  1  7  1  0  0  0  0
  1  2  2  0  0  0  0
 29 30  1  0  0  0  0
 30 38  1  0  0  0  0
 30 31  2  0  0  0  0
  8  9  1  0  0  0  0
  9 17  1  0  0  0  0
  9 10  2  0  0  0  0
 18 19  1  0  0  0  0
 19 28  1  0  0  0  0
 19 20  2  0  0  0  0
 29 32  1  0  0  0  0
  8 11  1  0  0  0  0
 38 39  1  0  0  0  0
 18 21  1  0  0  0  0
 21 22  1  0  0  0  0
 28 29  1  0  0  0  0
  7  8  1  0  0  0  0
 17 18  1  0  0  0  0
  3  4  1  0  0  0  0
  3  5  1  0  0  0  0
  3  6  1  0  0  0  0
 32 35  1  0  0  0  0
 32 36  1  0  0  0  0
 32 37  1  0  0  0  0
 11 14  1  0  0  0  0
 11 15  1  0  0  0  0
 11 16  1  0  0  0  0
 39 41  1  0  0  0  0
 39 42  1  0  0  0  0
 39 43  1  0  0  0  0
 21 25  1  0  0  0  0
 21 26  1  0  0  0  0
 29 34  1  0  0  0  0
  8 13  1  0  0  0  0
 18 24  1  0  0  0  0
 38 40  1  0  0  0  0
  7 12  1  0  0  0  0
 28 33  1  0  0  0  0
 17 23  1  0  0  0  0
 22 27  1  0  0  0  0
M  END
$$$$

  -OEChem-05262214473D

 43 42  0     1  0  0  0  0  0999 V2000
    0.7424   -1.0926    4.5665 C   0  0  0  0  0  0  0  0  0  0  0  0
    0.1409   -0.5364    5.4779 O   0  0  0  0  0  0  0  0  0  0  0  0
    1.7940   -2.1023    4.8871 C   0  0  0  0  0  0  0  0  0  0  0  0
    2.7935   -1.6502    4.9904 H   0  0  0  0  0  0  0  0  0  0  0  0
    1.6064   -2.6156    5.8438 H   0  0  0  0  0  0  0  0  0  0  0  0
    1.9156   -2.9078    4.1453 H   0  0  0  0  0  0  0  0  0  0  0  0
    0.5488   -0.8838    3.2109 N   0  0  0  0  0  0  0  0  0  0  0  0
   -0.4159    0.0446    2.6829 C   0  0  2  0  0  0  0  0  0  0  0  0
   -0.7551   -0.3867    1.2623 C   0  0  0  0  0  0  0  0  0  0  0  0
   -0.0106   -1.0851    0.5774 O   0  0  0  0  0  0  0  0  0  0  0  0
    0.1168    1.4689    2.7060 C   0  0  0  0  0  0  0  0  0  0  0  0
    1.1183   -1.4145    2.5542 H   0  0  0  0  0  0  0  0  0  0  0  0
   -1.3088   -0.0350    3.3125 H   0  0  0  0  0  0  0  0  0  0  0  0
    1.0116    1.5681    2.0808 H   0  0  0  0  0  0  0  0  0  0  0  0
   -0.6289    2.1775    2.3307 H   0  0  0  0  0  0  0  0  0  0  0  0
    0.3882    1.7670    3.7245 H   0  0  0  0  0  0  0  0  0  0  0  0
   -1.9689    0.1350    0.8298 N   0  0  0  0  0  0  0  0  0  0  0  0
   -2.5039   -0.1183   -0.4830 C   0  0  2  0  0  0  0  0  0  0  0  0
   -3.9833   -0.4579   -0.3378 C   0  0  0  0  0  0  0  0  0  0  0  0
   -4.5676   -0.4580    0.7438 O   0  0  0  0  0  0  0  0  0  0  0  0
   -1.7336   -1.2202   -1.2034 C   0  0  0  0  0  0  0  0  0  0  0  0
   -1.9138   -2.4644   -0.5365 O   0  0  0  0  0  0  0  0  0  0  0  0
   -2.5276    0.6894    1.4750 H   0  0  0  0  0  0  0  0  0  0  0  0
   -2.4089    0.8202   -1.0411 H   0  0  0  0  0  0  0  0  0  0  0  0
   -0.6614   -0.9999   -1.2267 H   0  0  0  0  0  0  0  0  0  0  0  0
   -2.0917   -1.3308   -2.2325 H   0  0  0  0  0  0  0  0  0  0  0  0
   -2.8658   -2.6515   -0.5492 H   0  0  0  0  0  0  0  0  0  0  0  0
   -4.5820   -0.7180   -1.5624 N   0  0  0  0  0  0  0  0  0  0  0  0
   -5.9850   -1.0347   -1.6957 C   0  0  2  0  0  0  0  0  0  0  0  0
   -6.7464   -0.2549   -0.6319 C   0  0  0  0  0  0  0  0  0  0  0  0
   -6.2202    0.1666    0.3960 O   0  0  0  0  0  0  0  0  0  0  0  0
   -6.2308   -2.5288   -1.5545 C   0  0  0  0  0  0  0  0  0  0  0  0
   -4.0287   -0.6556   -2.4119 H   0  0  0  0  0  0  0  0  0  0  0  0
   -6.2932   -0.6935   -2.6900 H   0  0  0  0  0  0  0  0  0  0  0  0
   -5.9281   -2.8890   -0.5645 H   0  0  0  0  0  0  0  0  0  0  0  0
   -7.2909   -2.7706   -1.6842 H   0  0  0  0  0  0  0  0  0  0  0  0
   -5.6592   -3.0901   -2.3015 H   0  0  0  0  0  0  0  0  0  0  0  0
   -8.0920   -0.1224   -0.9449 N   0  0  0  0  0  0  0  0  0  0  0  0
   -9.0278    0.5664   -0.0871 C   0  0  0  0  0  0  0  0  0  0  0  0
   -8.4379   -0.4868   -1.8276 H   0  0  0  0  0  0  0  0  0  0  0  0
   -9.5018   -0.1558    0.5939 H   0  0  0  0  0  0  0  0  0  0  0  0
   -8.4944    1.3284    0.5001 H   0  0  0  0  0  0  0  0  0  0  0  0
   -9.8000    1.0516   -0.7021 H   0  0  0  0  0  0  0  0  0  0  0  0
  1  3  1  0  0  0  0
  1  7  1  0  0  0  0
  1  2  2  0  0  0  0
 29 30  1  0  0  0  0
 30 38  1  0  0  0  0
 30 31  2  0  0  0  0
  8  9  1  0  0  0  0
  9 17  1  0  0  0  0
  9 10  2  0  0  0  0
 18 19  1  0  0  0  0
 19 28  1  0  0  0  0
 19 20  2  0  0  0  0
 29 32  1  0  0  0  0
  8 11  1  0  0  0  0
 38 39  1  0  0  0  0
 18 21  1  0  0  0  0
 21 22  1  0  0  0  0
 28 29  1  0  0  0  0
  7  8  1  0  0  0  0
 17 18  1  0  0  0  0
  3  4  1  0  0  0  0
  3  5  1  0  0  0  0
  3  6  1  0  0  0  0
 32 35  1  0  0  0  0
 32 36  1  0  0  0  0
 32 37  1  0  0  0  0
 11 14  1  0  0  0  0
 11 15  1  0  0  0  0
 11 16  1  0  0  0  0
 39 41  1  0  0  0  0
 39 42  1  0  0  0  0
 39 43  1  0  0  0  0
 21 25  1  0  0  0  0
 21 26  1  0  0  0  0
 29 34  1  0  0  0  0
  8 13  1  0  0  0  0
 18 24  1  0  0  0  0
 38 40  1  0  0  0  0
  7 12  1  0  0  0  0
 28 33  1  0  0  0  0
 17 23  1  0  0  0  0
 22 27  1  0  0  0  0
M  END
$$$$

  -OEChem-05262214473D

 43 42  0     1  0  0  0  0  0999 V2000
    0.7424   -1.0926    4.5665 C   0  0  0  0  0  0  0  0  0  0  0  0
    0.1409   -0.5364    5.4779 O   0  0  0  0  0  0  0  0  0  0  0  0
    1.7940   -2.1023    4.8871 C   0  0  0  0  0  0  0  0  0  0  0  0
    2.7935   -1.6502    4.9904 H   0  0  0  0  0  0  0  0  0  0  0  0
    1.6064   -2.6156    5.8438 H   0  0  0  0  0  0  0  0  0  0  0  0
    1.9156   -2.9078    4.1453 H   0  0  0  0  0  0  0  0  0  0  0  0
    0.5488   -0.8838    3.2109 N   0  0  0  0  0  0  0  0  0  0  0  0
   -0.4159    0.0446    2.6829 C   0  0  2  0  0  0  0  0  0  0  0  0
   -0.7551   -0.3867    1.2623 C   0  0  0  0  0  0  0  0  0  0  0  0
   -0.0106   -1.0851    0.5774 O   0  0  0  0  0  0  0  0  0  0  0  0
    0.1168    1.4689    2.7060 C   0  0  0  0  0  0  0  0  0  0  0  0
    1.1183   -1.4145    2.5542 H   0  0  0  0  0  0  0  0  0  0  0  0
   -1.3088   -0.0350    3.3125 H   0  0  0  0  0  0  0  0  0  0  0  0
    1.0116    1.5681    2.0808 H   0  0  0  0  0  0  0  0  0  0  0  0
   -0.6289    2.1775    2.3307 H   0  0  0  0  0  0  0  0  0  0  0  0
    0.3882    1.7670    3.7245 H   0  0  0  0  0  0  0  0  0  0  0  0
   -1.9689    0.1350    0.8298 N   0  0  0  0  0  0  0  0  0  0  0  0
   -2.5039   -0.1183   -0.4830 C   0  0  2  0  0  0  0  0  0  0  0  0
   -3.9833   -0.4579   -0.3378 C   0  0  0  0  0  0  0  0  0  0  0  0
   -4.6321   -0.2059    0.6755 O   0  0  0  0  0  0  0  0  0  0  0  0
   -1.7336   -1.2202   -1.2034 C   0  0  0  0  0  0  0  0  0  0  0  0
   -1.9138   -2.4644   -0.5365 O   0  0  0  0  0  0  0  0  0  0  0  0
   -2.5276    0.6894    1.4750 H   0  0  0  0  0  0  0  0  0  0  0  0
   -2.4089    0.8202   -1.0411 H   0  0  0  0  0  0  0  0  0  0  0  0
   -0.6614   -0.9999   -1.2267 H   0  0  0  0  0  0  0  0  0  0  0  0
   -2.0917   -1.3308   -2.2325 H   0  0  0  0  0  0  0  0  0  0  0  0
   -2.8658   -2.6515   -0.5492 H   0  0  0  0  0  0  0  0  0  0  0  0
   -4.5019   -1.0353   -1.4881 N   0  0  0  0  0  0  0  0  0  0  0  0
   -5.8885   -1.4201   -1.6136 C   0  0  2  0  0  0  0  0  0  0  0  0
   -6.7265   -0.4236   -0.8236 C   0  0  0  0  0  0  0  0  0  0  0  0
   -6.2711    0.2585    0.0921 O   0  0  0  0  0  0  0  0  0  0  0  0
   -6.1165   -2.8384   -1.1144 C   0  0  0  0  0  0  0  0  0  0  0  0
   -3.8992   -1.1700   -2.2945 H   0  0  0  0  0  0  0  0  0  0  0  0
   -6.1415   -1.3488   -2.6771 H   0  0  0  0  0  0  0  0  0  0  0  0
   -5.8684   -2.9293   -0.0506 H   0  0  0  0  0  0  0  0  0  0  0  0
   -7.1625   -3.1387   -1.2366 H   0  0  0  0  0  0  0  0  0  0  0  0
   -5.4909   -3.5502   -1.6636 H   0  0  0  0  0  0  0  0  0  0  0  0
   -8.0527   -0.4168   -1.2327 N   0  0  0  0  0  0  0  0  0  0  0  0
   -9.0507    0.4345   -0.6284 C   0  0  0  0  0  0  0  0  0  0  0  0
   -8.3379   -1.0016   -2.0128 H   0  0  0  0  0  0  0  0  0  0  0  0
   -9.5526   -0.1089    0.1857 H   0  0  0  0  0  0  0  0  0  0  0  0
   -8.5672    1.3359   -0.2238 H   0  0  0  0  0  0  0  0  0  0  0  0
   -9.7924    0.7253   -1.3868 H   0  0  0  0  0  0  0  0  0  0  0  0
  1  3  1  0  0  0  0
  1  7  1  0  0  0  0
  1  2  2  0  0  0  0
 29 30  1  0  0  0  0
 30 38  1  0  0  0  0
 30 31  2  0  0  0  0
  8  9  1  0  0  0  0
  9 17  1  0  0  0  0
  9 10  2  0  0  0  0
 18 19  1  0  0  0  0
 19 28  1  0  0  0  0
 19 20  2  0  0  0  0
 29 32  1  0  0  0  0
  8 11  1  0  0  0  0
 38 39  1  0  0  0  0
 18 21  1  0  0  0  0
 21 22  1  0  0  0  0
 28 29  1  0  0  0  0
  7  8  1  0  0  0  0
 17 18  1  0  0  0  0
  3  4  1  0  0  0  0
  3  5  1  0  0  0  0
  3  6  1  0  0  0  0
 32 35  1  0  0  0  0
 32 36  1  0  0  0  0
 32 37  1  0  0  0  0
 11 14  1  0  0  0  0
 11 15  1  0  0  0  0
 11 16  1  0  0  0  0
 39 41  1  0  0  0  0
 39 42  1  0  0  0  0
 39 43  1  0  0  0  0
 21 25  1  0  0  0  0
 21 26  1  0  0  0  0
 29 34  1  0  0  0  0
  8 13  1  0  0  0  0
 18 24  1  0  0  0  0
 38 40  1  0  0  0  0
  7 12  1  0  0  0  0
 28 33  1  0  0  0  0
 17 23  1  0  0  0  0
 22 27  1  0  0  0  0
M  END
$$$$

  -OEChem-05262214473D

 43 42  0     1  0  0  0  0  0999 V2000
    0.7424   -1.0926    4.5665 C   0  0  0  0  0  0  0  0  0  0  0  0
    0.1409   -0.5364    5.4779 O   0  0  0  0  0  0  0  0  0  0  0  0
    1.7940   -2.1023    4.8871 C   0  0  0  0  0  0  0  0  0  0  0  0
    2.7935   -1.6502    4.9904 H   0  0  0  0  0  0  0  0  0  0  0  0
    1.6064   -2.6156    5.8438 H   0  0  0  0  0  0  0  0  0  0  0  0
    1.9156   -2.9078    4.1453 H   0  0  0  0  0  0  0  0  0  0  0  0
    0.5488   -0.8838    3.2109 N   0  0  0  0  0  0  0  0  0  0  0  0
   -0.4159    0.0446    2.6829 C   0  0  2  0  0  0  0  0  0  0  0  0
   -0.7551   -0.3867    1.2623 C   0  0  0  0  0  0  0  0  0  0  0  0
   -0.0106   -1.0851    0.5774 O   0  0  0  0  0  0  0  0  0  0  0  0
    0.1168    1.4689    2.7060 C   0  0  0  0  0  0  0  0  0  0  0  0
    1.1183   -1.4145    2.5542 H   0  0  0  0  0  0  0  0  0  0  0  0
   -1.3088   -0.0350    3.3125 H   0  0  0  0  0  0  0  0  0  0  0  0
    1.0116    1.5681    2.0808 H   0  0  0  0  0  0  0  0  0  0  0  0
   -0.6289    2.1775    2.3307 H   0  0  0  0  0  0  0  0  0  0  0  0
    0.3882    1.7670    3.7245 H   0  0  0  0  0  0  0  0  0  0  0  0
   -1.9689    0.1350    0.8298 N   0  0  0  0  0  0  0  0  0  0  0  0
   -2.5039   -0.1183   -0.4830 C   0  0  2  0  0  0  0  0  0  0  0  0
   -3.9833   -0.4579   -0.3378 C   0  0  0  0  0  0  0  0  0  0  0  0
   -4.6968    0.0189    0.5424 O   0  0  0  0  0  0  0  0  0  0  0  0
   -1.7336   -1.2202   -1.2034 C   0  0  0  0  0  0  0  0  0  0  0  0
   -1.9138   -2.4644   -0.5365 O   0  0  0  0  0  0  0  0  0  0  0  0
   -2.5276    0.6894    1.4750 H   0  0  0  0  0  0  0  0  0  0  0  0
   -2.4089    0.8202   -1.0411 H   0  0  0  0  0  0  0  0  0  0  0  0
   -0.6614   -0.9999   -1.2267 H   0  0  0  0  0  0  0  0  0  0  0  0
   -2.0917   -1.3308   -2.2325 H   0  0  0  0  0  0  0  0  0  0  0  0
   -2.8658   -2.6515   -0.5492 H   0  0  0  0  0  0  0  0  0  0  0  0
   -4.4209   -1.3213   -1.3321 N   0  0  0  0  0  0  0  0  0  0  0  0
   -5.7905   -1.7694   -1.4320 C   0  0  2  0  0  0  0  0  0  0  0  0
   -6.6921   -0.6342   -0.9653 C   0  0  0  0  0  0  0  0  0  0  0  0
   -6.3051    0.2697   -0.2275 O   0  0  0  0  0  0  0  0  0  0  0  0
   -6.0239   -3.0240   -0.6049 C   0  0  0  0  0  0  0  0  0  0  0  0
   -3.7681   -1.6342   -2.0445 H   0  0  0  0  0  0  0  0  0  0  0  0
   -5.9796   -1.9748   -2.4913 H   0  0  0  0  0  0  0  0  0  0  0  0
   -5.8393   -2.8377    0.4594 H   0  0  0  0  0  0  0  0  0  0  0  0
   -7.0551   -3.3787   -0.7043 H   0  0  0  0  0  0  0  0  0  0  0  0
   -5.3539   -3.8303   -0.9222 H   0  0  0  0  0  0  0  0  0  0  0  0
   -7.9908   -0.7725   -1.4346 N   0  0  0  0  0  0  0  0  0  0  0  0
   -9.0383    0.1706   -1.1194 C   0  0  0  0  0  0  0  0  0  0  0  0
   -8.2180   -1.5427   -2.0565 H   0  0  0  0  0  0  0  0  0  0  0  0
   -9.5793   -0.1674   -0.2233 H   0  0  0  0  0  0  0  0  0  0  0  0
   -8.5960    1.1596   -0.9291 H   0  0  0  0  0  0  0  0  0  0  0  0
   -9.7375    0.2383   -1.9659 H   0  0  0  0  0  0  0  0  0  0  0  0
  1  3  1  0  0  0  0
  1  7  1  0  0  0  0
  1  2  2  0  0  0  0
 29 30  1  0  0  0  0
 30 38  1  0  0  0  0
 30 31  2  0  0  0  0
  8  9  1  0  0  0  0
  9 17  1  0  0  0  0
  9 10  2  0  0  0  0
 18 19  1  0  0  0  0
 19 28  1  0  0  0  0
 19 20  2  0  0  0  0
 29 32  1  0  0  0  0
  8 11  1  0  0  0  0
 38 39  1  0  0  0  0
 18 21  1  0  0  0  0
 21 22  1  0  0  0  0
 28 29  1  0  0  0  0
  7  8  1  0  0  0  0
 17 18  1  0  0  0  0
  3  4  1  0  0  0  0
  3  5  1  0  0  0  0
  3  6  1  0  0  0  0
 32 35  1  0  0  0  0
 32 36  1  0  0  0  0
 32 37  1  0  0  0  0
 11 14  1  0  0  0  0
 11 15  1  0  0  0  0
 11 16  1  0  0  0  0
 39 41  1  0  0  0  0
 39 42  1  0  0  0  0
 39 43  1  0  0  0  0
 21 25  1  0  0  0  0
 21 26  1  0  0  0  0
 29 34  1  0  0  0  0
  8 13  1  0  0  0  0
 18 24  1  0  0  0  0
 38 40  1  0  0  0  0
  7 12  1  0  0  0  0
 28 33  1  0  0  0  0
 17 23  1  0  0  0  0
 22 27  1  0  0  0  0
M  END
$$$$

  -OEChem-05262214473D

 43 42  0     1  0  0  0  0  0999 V2000
    0.7424   -1.0926    4.5665 C   0  0  0  0  0  0  0  0  0  0  0  0
    0.1409   -0.5364    5.4779 O   0  0  0  0  0  0  0  0  0  0  0  0
    1.7940   -2.1023    4.8871 C   0  0  0  0  0  0  0  0  0  0  0  0
    2.7935   -1.6502    4.9904 H   0  0  0  0  0  0  0  0  0  0  0  0
    1.6064   -2.6156    5.8438 H   0  0  0  0  0  0  0  0  0  0  0  0
    1.9156   -2.9078    4.1453 H   0  0  0  0  0  0  0  0  0  0  0  0
    0.5488   -0.8838    3.2109 N   0  0  0  0  0  0  0  0  0  0  0  0
   -0.4159    0.0446    2.6829 C   0  0  2  0  0  0  0  0  0  0  0  0
   -0.7551   -0.3867    1.2623 C   0  0  0  0  0  0  0  0  0  0  0  0
   -0.0106   -1.0851    0.5774 O   0  0  0  0  0  0  0  0  0  0  0  0
    0.1168    1.4689    2.7060 C   0  0  0  0  0  0  0  0  0  0  0  0
    1.1183   -1.4145    2.5542 H   0  0  0  0  0  0  0  0  0  0  0  0
   -1.3088   -0.0350    3.3125 H   0  0  0  0  0  0  0  0  0  0  0  0
    1.0116    1.5681    2.0808 H   0  0  0  0  0  0  0  0  0  0  0  0
   -0.6289    2.1775    2.3307 H   0  0  0  0  0  0  0  0  0  0  0  0
    0.3882    1.7670    3.7245 H   0  0  0  0  0  0  0  0  0  0  0  0
   -1.9689    0.1350    0.8298 N   0  0  0  0  0  0  0  0  0  0  0  0
   -2.5039   -0.1183   -0.4830 C   0  0  2  0  0  0  0  0  0  0  0  0
   -3.9833   -0.4579   -0.3378 C   0  0  0  0  0  0  0  0  0  0  0  0
   -4.7571    0.2010    0.3538 O   0  0  0  0  0  0  0  0  0  0  0  0
   -1.7336   -1.2202   -1.2034 C   0  0  0  0  0  0  0  0  0  0  0  0
   -1.9138   -2.4644   -0.5365 O   0  0  0  0  0  0  0  0  0  0  0  0
   -2.5276    0.6894    1.4750 H   0  0  0  0  0  0  0  0  0  0  0  0
   -2.4089    0.8202   -1.0411 H   0  0  0  0  0  0  0  0  0  0  0  0
   -0.6614   -0.9999   -1.2267 H   0  0  0  0  0  0  0  0  0  0  0  0
   -2.0917   -1.3308   -2.2325 H   0  0  0  0  0  0  0  0  0  0  0  0
   -2.8658   -2.6515   -0.5492 H   0  0  0  0  0  0  0  0  0  0  0  0
   -4.3447   -1.5563   -1.1050 N   0  0  0  0  0  0  0  0  0  0  0  0
   -5.6977   -2.0588   -1.1633 C   0  0  2  0  0  0  0  0  0  0  0  0
   -6.6455   -0.8723   -1.0473 C   0  0  0  0  0  0  0  0  0  0  0  0
   -6.3197    0.1994   -0.5410 O   0  0  0  0  0  0  0  0  0  0  0  0
   -5.9593   -3.0731   -0.0608 C   0  0  0  0  0  0  0  0  0  0  0  0
   -3.6444   -2.0166   -1.6789 H   0  0  0  0  0  0  0  0  0  0  0  0
   -5.8185   -2.5288   -2.1454 H   0  0  0  0  0  0  0  0  0  0  0  0
   -5.8429   -2.6205    0.9307 H   0  0  0  0  0  0  0  0  0  0  0  0
   -6.9762   -3.4742   -0.1237 H   0  0  0  0  0  0  0  0  0  0  0  0
   -5.2573   -3.9113   -0.1278 H   0  0  0  0  0  0  0  0  0  0  0  0
   -7.9107   -1.1652   -1.5367 N   0  0  0  0  0  0  0  0  0  0  0  0
   -8.9915   -0.2073   -1.5267 C   0  0  0  0  0  0  0  0  0  0  0  0
   -8.0863   -2.0735   -1.9560 H   0  0  0  0  0  0  0  0  0  0  0  0
   -9.5801   -0.3273   -0.6052 H   0  0  0  0  0  0  0  0  0  0  0  0
   -8.5788    0.8115   -1.5678 H   0  0  0  0  0  0  0  0  0  0  0  0
   -9.6390   -0.3761   -2.3998 H   0  0  0  0  0  0  0  0  0  0  0  0
  1  3  1  0  0  0  0
  1  7  1  0  0  0  0
  1  2  2  0  0  0  0
 29 30  1  0  0  0  0
 30 38  1  0  0  0  0
 30 31  2  0  0  0  0
  8  9  1  0  0  0  0
  9 17  1  0  0  0  0
  9 10  2  0  0  0  0
 18 19  1  0  0  0  0
 19 28  1  0  0  0  0
 19 20  2  0  0  0  0
 29 32  1  0  0  0  0
  8 11  1  0  0  0  0
 38 39  1  0  0  0  0
 18 21  1  0  0  0  0
 21 22  1  0  0  0  0
 28 29  1  0  0  0  0
  7  8  1  0  0  0  0
 17 18  1  0  0  0  0
  3  4  1  0  0  0  0
  3  5  1  0  0  0  0
  3  6  1  0  0  0  0
 32 35  1  0  0  0  0
 32 36  1  0  0  0  0
 32 37  1  0  0  0  0
 11 14  1  0  0  0  0
 11 15  1  0  0  0  0
 11 16  1  0  0  0  0
 39 41  1  0  0  0  0
 39 42  1  0  0  0  0
 39 43  1  0  0  0  0
 21 25  1  0  0  0  0
 21 26  1  0  0  0  0
 29 34  1  0  0  0  0
  8 13  1  0  0  0  0
 18 24  1  0  0  0  0
 38 40  1  0  0  0  0
  7 12  1  0  0  0  0
 28 33  1  0  0  0  0
 17 23  1  0  0  0  0
 22 27  1  0  0  0  0
M  END
$$$$

  -OEChem-05262214473D

 43 42  0     1  0  0  0  0  0999 V2000
    0.7424   -1.0926    4.5665 C   0  0  0  0  0  0  0  0  0  0  0  0
    0.1409   -0.5364    5.4779 O   0  0  0  0  0  0  0  0  0  0  0  0
    1.7940   -2.1023    4.8871 C   0  0  0  0  0  0  0  0  0  0  0  0
    2.7935   -1.6502    4.9904 H   0  0  0  0  0  0  0  0  0  0  0  0
    1.6064   -2.6156    5.8438 H   0  0  0  0  0  0  0  0  0  0  0  0
    1.9156   -2.9078    4.1453 H   0  0  0  0  0  0  0  0  0  0  0  0
    0.5488   -0.8838    3.2109 N   0  0  0  0  0  0  0  0  0  0  0  0
   -0.4159    0.0446    2.6829 C   0  0  2  0  0  0  0  0  0  0  0  0
   -0.7551   -0.3867    1.2623 C   0  0  0  0  0  0  0  0  0  0  0  0
   -0.0106   -1.0851    0.5774 O   0  0  0  0  0  0  0  0  0  0  0  0
    0.1168    1.4689    2.7060 C   0  0  0  0  0  0  0  0  0  0  0  0
    1.1183   -1.4145    2.5542 H   0  0  0  0  0  0  0  0  0  0  0  0
   -1.3088   -0.0350    3.3125 H   0  0  0  0  0  0  0  0  0  0  0  0
    1.0116    1.5681    2.0808 H   0  0  0  0  0  0  0  0  0  0  0  0
   -0.6289    2.1775    2.3307 H   0  0  0  0  0  0  0  0  0  0  0  0
    0.3882    1.7670    3.7245 H   0  0  0  0  0  0  0  0  0  0  0  0
   -1.9689    0.1350    0.8298 N   0  0  0  0  0  0  0  0  0  0  0  0
   -2.5039   -0.1183   -0.4830 C   0  0  2  0  0  0  0  0  0  0  0  0
   -3.9833   -0.4579   -0.3378 C   0  0  0  0  0  0  0  0  0  0  0  0
   -4.8090    0.3280    0.1223 O   0  0  0  0  0  0  0  0  0  0  0  0
   -1.7336   -1.2202   -1.2034 C   0  0  0  0  0  0  0  0  0  0  0  0
   -1.9138   -2.4644   -0.5365 O   0  0  0  0  0  0  0  0  0  0  0  0
   -2.5276    0.6894    1.4750 H   0  0  0  0  0  0  0  0  0  0  0  0
   -2.4089    0.8202   -1.0411 H   0  0  0  0  0  0  0  0  0  0  0  0
   -0.6614   -0.9999   -1.2267 H   0  0  0  0  0  0  0  0  0  0  0  0
   -2.0917   -1.3308   -2.2325 H   0  0  0  0  0  0  0  0  0  0  0  0
   -2.8658   -2.6515   -0.5492 H   0  0  0  0  0  0  0  0  0  0  0  0
   -4.2784   -1.7244   -0.8221 N   0  0  0  0  0  0  0  0  0  0  0  0
   -5.6164   -2.2685   -0.8256 C   0  0  2  0  0  0  0  0  0  0  0  0
   -6.5899   -1.1217   -1.0640 C   0  0  0  0  0  0  0  0  0  0  0  0
   -6.3141    0.0525   -0.8269 O   0  0  0  0  0  0  0  0  0  0  0  0
   -5.9269   -2.9823    0.4808 C   0  0  0  0  0  0  0  0  0  0  0  0
   -3.5366   -2.2911   -1.2227 H   0  0  0  0  0  0  0  0  0  0  0  0
   -5.6691   -2.9731   -1.6628 H   0  0  0  0  0  0  0  0  0  0  0  0
   -5.8789   -2.2923    1.3312 H   0  0  0  0  0  0  0  0  0  0  0  0
   -6.9311   -3.4187    0.4656 H   0  0  0  0  0  0  0  0  0  0  0  0
   -5.2078   -3.7877    0.6653 H   0  0  0  0  0  0  0  0  0  0  0  0
   -7.8178   -1.5682   -1.5320 N   0  0  0  0  0  0  0  0  0  0  0  0
   -8.9136   -0.6734   -1.8226 C   0  0  0  0  0  0  0  0  0  0  0  0
   -7.9518   -2.5578   -1.7181 H   0  0  0  0  0  0  0  0  0  0  0  0
   -9.5549   -0.5777   -0.9340 H   0  0  0  0  0  0  0  0  0  0  0  0
   -8.5167    0.3153   -2.0964 H   0  0  0  0  0  0  0  0  0  0  0  0
   -9.5038   -1.0761   -2.6589 H   0  0  0  0  0  0  0  0  0  0  0  0
  1  3  1  0  0  0  0
  1  7  1  0  0  0  0
  1  2  2  0  0  0  0
 29 30  1  0  0  0  0
 30 38  1  0  0  0  0
 30 31  2  0  0  0  0
  8  9  1  0  0  0  0
  9 17  1  0  0  0  0
  9 10  2  0  0  0  0
 18 19  1  0  0  0  0
 19 28  1  0  0  0  0
 19 20  2  0  0  0  0
 29 32  1  0  0  0  0
  8 11  1  0  0  0  0
 38 39  1  0  0  0  0
 18 21  1  0  0  0  0
 21 22  1  0  0  0  0
 28 29  1  0  0  0  0
  7  8  1  0  0  0  0
 17 18  1  0  0  0  0
  3  4  1  0  0  0  0
  3  5  1  0  0  0  0
  3  6  1  0  0  0  0
 32 35  1  0  0  0  0
 32 36  1  0  0  0  0
 32 37  1  0  0  0  0
 11 14  1  0  0  0  0
 11 15  1  0  0  0  0
 11 16  1  0  0  0  0
 39 41  1  0  0  0  0
 39 42  1  0  0  0  0
 39 43  1  0  0  0  0
 21 25  1  0  0  0  0
 21 26  1  0  0  0  0
 29 34  1  0  0  0  0
  8 13  1  0  0  0  0
 18 24  1  0  0  0  0
 38 40  1  0  0  0  0
  7 12  1  0  0  0  0
 28 33  1  0  0  0  0
 17 23  1  0  0  0  0
 22 27  1  0  0  0  0
M  END
$$$$

  -OEChem-05262214473D

 43 42  0     1  0  0  0  0  0999 V2000
    0.7424   -1.0926    4.5665 C   0  0  0  0  0  0  0  0  0  0  0  0
    0.1409   -0.5364    5.4779 O   0  0  0  0  0  0  0  0  0  0  0  0
    1.7940   -2.1023    4.8871 C   0  0  0  0  0  0  0  0  0  0  0  0
    2.7935   -1.6502    4.9904 H   0  0  0  0  0  0  0  0  0  0  0  0
    1.6064   -2.6156    5.8438 H   0  0  0  0  0  0  0  0  0  0  0  0
    1.9156   -2.9078    4.1453 H   0  0  0  0  0  0  0  0  0  0  0  0
    0.5488   -0.8838    3.2109 N   0  0  0  0  0  0  0  0  0  0  0  0
   -0.4159    0.0446    2.6829 C   0  0  2  0  0  0  0  0  0  0  0  0
   -0.7551   -0.3867    1.2623 C   0  0  0  0  0  0  0  0  0  0  0  0
   -0.0106   -1.0851    0.5774 O   0  0  0  0  0  0  0  0  0  0  0  0
    0.1168    1.4689    2.7060 C   0  0  0  0  0  0  0  0  0  0  0  0
    1.1183   -1.4145    2.5542 H   0  0  0  0  0  0  0  0  0  0  0  0
   -1.3088   -0.0350    3.3125 H   0  0  0  0  0  0  0  0  0  0  0  0
    1.0116    1.5681    2.0808 H   0  0  0  0  0  0  0  0  0  0  0  0
   -0.6289    2.1775    2.3307 H   0  0  0  0  0  0  0  0  0  0  0  0
    0.3882    1.7670    3.7245 H   0  0  0  0  0  0  0  0  0  0  0  0
   -1.9689    0.1350    0.8298 N   0  0  0  0  0  0  0  0  0  0  0  0
   -2.5039   -0.1183   -0.4830 C   0  0  2  0  0  0  0  0  0  0  0  0
   -3.9833   -0.4579   -0.3378 C   0  0  0  0  0  0  0  0  0  0  0  0
   -4.8489    0.3914   -0.1361 O   0  0  0  0  0  0  0  0  0  0  0  0
   -1.7336   -1.2202   -1.2034 C   0  0  0  0  0  0  0  0  0  0  0  0
   -1.9138   -2.4644   -0.5365 O   0  0  0  0  0  0  0  0  0  0  0  0
   -2.5276    0.6894    1.4750 H   0  0  0  0  0  0  0  0  0  0  0  0
   -2.4089    0.8202   -1.0411 H   0  0  0  0  0  0  0  0  0  0  0  0
   -0.6614   -0.9999   -1.2267 H   0  0  0  0  0  0  0  0  0  0  0  0
   -2.0917   -1.3308   -2.2325 H   0  0  0  0  0  0  0  0  0  0  0  0
   -2.8658   -2.6515   -0.5492 H   0  0  0  0  0  0  0  0  0  0  0  0
   -4.2264   -1.8141   -0.5029 N   0  0  0  0  0  0  0  0  0  0  0  0
   -5.5522   -2.3843   -0.4422 C   0  0  2  0  0  0  0  0  0  0  0  0
   -6.5290   -1.3655   -1.0144 C   0  0  0  0  0  0  0  0  0  0  0  0
   -6.2885   -0.1611   -1.0659 O   0  0  0  0  0  0  0  0  0  0  0  0
   -5.9292   -2.7578    0.9830 C   0  0  0  0  0  0  0  0  0  0  0  0
   -3.4521   -2.4390   -0.7068 H   0  0  0  0  0  0  0  0  0  0  0  0
   -5.5418   -3.2774   -1.0765 H   0  0  0  0  0  0  0  0  0  0  0  0
   -5.9449   -1.8757    1.6335 H   0  0  0  0  0  0  0  0  0  0  0  0
   -6.9228   -3.2161    1.0235 H   0  0  0  0  0  0  0  0  0  0  0  0
   -5.2088   -3.4679    1.4033 H   0  0  0  0  0  0  0  0  0  0  0  0
   -7.7183   -1.9540   -1.4210 N   0  0  0  0  0  0  0  0  0  0  0  0
   -8.8098   -1.1960   -1.9868 C   0  0  0  0  0  0  0  0  0  0  0  0
   -7.8237   -2.9624   -1.3589 H   0  0  0  0  0  0  0  0  0  0  0  0
   -9.5055   -0.9014   -1.1873 H   0  0  0  0  0  0  0  0  0  0  0  0
   -8.4142   -0.2952   -2.4787 H   0  0  0  0  0  0  0  0  0  0  0  0
   -9.3410   -1.8140   -2.7257 H   0  0  0  0  0  0  0  0  0  0  0  0
  1  3  1  0  0  0  0
  1  7  1  0  0  0  0
  1  2  2  0  0  0  0
 29 30  1  0  0  0  0
 30 38  1  0  0  0  0
 30 31  2  0  0  0  0
  8  9  1  0  0  0  0
  9 17  1  0  0  0  0
  9 10  2  0  0  0  0
 18 19  1  0  0  0  0
 19 28  1  0  0  0  0
 19 20  2  0  0  0  0
 29 32  1  0  0  0  0
  8 11  1  0  0  0  0
 38 39  1  0  0  0  0
 18 21  1  0  0  0  0
 21 22  1  0  0  0  0
 28 29  1  0  0  0  0
  7  8  1  0  0  0  0
 17 18  1  0  0  0  0
  3  4  1  0  0  0  0
  3  5  1  0  0  0  0
  3  6  1  0  0  0  0
 32 35  1  0  0  0  0
 32 36  1  0  0  0  0
 32 37  1  0  0  0  0
 11 14  1  0  0  0  0
 11 15  1  0  0  0  0
 11 16  1  0  0  0  0
 39 41  1  0  0  0  0
 39 42  1  0  0  0  0
 39 43  1  0  0  0  0
 21 25  1  0  0  0  0
 21 26  1  0  0  0  0
 29 34  1  0  0  0  0
  8 13  1  0  0  0  0
 18 24  1  0  0  0  0
 38 40  1  0  0  0  0
  7 12  1  0  0  0  0
 28 33  1  0  0  0  0
 17 23  1  0  0  0  0
 22 27  1  0  0  0  0
M  END
$$$$

  -OEChem-05262214473D

 43 42  0     1  0  0  0  0  0999 V2000
    0.7424   -1.0926    4.5665 C   0  0  0  0  0  0  0  0  0  0  0  0
    0.1409   -0.5364    5.4779 O   0  0  0  0  0  0  0  0  0  0  0  0
    1.7940   -2.1023    4.8871 C   0  0  0  0  0  0  0  0  0  0  0  0
    2.7935   -1.6502    4.9904 H   0  0  0  0  0  0  0  0  0  0  0  0
    1.6064   -2.6156    5.8438 H   0  0  0  0  0  0  0  0  0  0  0  0
    1.9156   -2.9078    4.1453 H   0  0  0  0  0  0  0  0  0  0  0  0
    0.5488   -0.8838    3.2109 N   0  0  0  0  0  0  0  0  0  0  0  0
   -0.4159    0.0446    2.6829 C   0  0  2  0  0  0  0  0  0  0  0  0
   -0.7551   -0.3867    1.2623 C   0  0  0  0  0  0  0  0  0  0  0  0
   -0.0106   -1.0851    0.5774 O   0  0  0  0  0  0  0  0  0  0  0  0
    0.1168    1.4689    2.7060 C   0  0  0  0  0  0  0  0  0  0  0  0
    1.1183   -1.4145    2.5542 H   0  0  0  0  0  0  0  0  0  0  0  0
   -1.3088   -0.0350    3.3125 H   0  0  0  0  0  0  0  0  0  0  0  0
    1.0116    1.5681    2.0808 H   0  0  0  0  0  0  0  0  0  0  0  0
   -0.6289    2.1775    2.3307 H   0  0  0  0  0  0  0  0  0  0  0  0
    0.3882    1.7670    3.7245 H   0  0  0  0  0  0  0  0  0  0  0  0
   -1.9689    0.1350    0.8298 N   0  0  0  0  0  0  0  0  0  0  0  0
   -2.5039   -0.1183   -0.4830 C   0  0  2  0  0  0  0  0  0  0  0  0
   -3.9833   -0.4579   -0.3378 C   0  0  0  0  0  0  0  0  0  0  0  0
   -4.8741    0.3867   -0.4039 O   0  0  0  0  0  0  0  0  0  0  0  0
   -1.7336   -1.2202   -1.2034 C   0  0  0  0  0  0  0  0  0  0  0  0
   -1.9138   -2.4644   -0.5365 O   0  0  0  0  0  0  0  0  0  0  0  0
   -2.5276    0.6894    1.4750 H   0  0  0  0  0  0  0  0  0  0  0  0
   -2.4089    0.8202   -1.0411 H   0  0  0  0  0  0  0  0  0  0  0  0
   -0.6614   -0.9999   -1.2267 H   0  0  0  0  0  0  0  0  0  0  0  0
   -2.0917   -1.3308   -2.2325 H   0  0  0  0  0  0  0  0  0  0  0  0
   -2.8658   -2.6515   -0.5492 H   0  0  0  0  0  0  0  0  0  0  0  0
   -4.1925   -1.8193   -0.1690 N   0  0  0  0  0  0  0  0  0  0  0  0
   -5.5094   -2.3983   -0.0390 C   0  0  2  0  0  0  0  0  0  0  0  0
   -6.4671   -1.5870   -0.9016 C   0  0  0  0  0  0  0  0  0  0  0  0
   -6.2448   -0.4269   -1.2417 O   0  0  0  0  0  0  0  0  0  0  0  0
   -5.9658   -2.4149    1.4116 C   0  0  0  0  0  0  0  0  0  0  0  0
   -3.3964   -2.4502   -0.1665 H   0  0  0  0  0  0  0  0  0  0  0  0
   -5.4450   -3.4209   -0.4264 H   0  0  0  0  0  0  0  0  0  0  0  0
   -6.0363   -1.3990    1.8171 H   0  0  0  0  0  0  0  0  0  0  0  0
   -6.9520   -2.8800    1.5120 H   0  0  0  0  0  0  0  0  0  0  0  0
   -5.2601   -2.9737    2.0358 H   0  0  0  0  0  0  0  0  0  0  0  0
   -7.6191   -2.2964   -1.2112 N   0  0  0  0  0  0  0  0  0  0  0  0
   -8.6871   -1.7395   -2.0082 C   0  0  0  0  0  0  0  0  0  0  0  0
   -7.7107   -3.2599   -0.9029 H   0  0  0  0  0  0  0  0  0  0  0  0
   -9.4352   -1.2765   -1.3478 H   0  0  0  0  0  0  0  0  0  0  0  0
   -8.2780   -0.9784   -2.6888 H   0  0  0  0  0  0  0  0  0  0  0  0
   -9.1617   -2.5395   -2.5954 H   0  0  0  0  0  0  0  0  0  0  0  0
  1  3  1  0  0  0  0
  1  7  1  0  0  0  0
  1  2  2  0  0  0  0
 29 30  1  0  0  0  0
 30 38  1  0  0  0  0
 30 31  2  0  0  0  0
  8  9  1  0  0  0  0
  9 17  1  0  0  0  0
  9 10  2  0  0  0  0
 18 19  1  0  0  0  0
 19 28  1  0  0  0  0
 19 20  2  0  0  0  0
 29 32  1  0  0  0  0
  8 11  1  0  0  0  0
 38 39  1  0  0  0  0
 18 21  1  0  0  0  0
 21 22  1  0  0  0  0
 28 29  1  0  0  0  0
  7  8  1  0  0  0  0
 17 18  1  0  0  0  0
  3  4  1  0  0  0  0
  3  5  1  0  0  0  0
  3  6  1  0  0  0  0
 32 35  1  0  0  0  0
 32 36  1  0  0  0  0
 32 37  1  0  0  0  0
 11 14  1  0  0  0  0
 11 15  1  0  0  0  0
 11 16  1  0  0  0  0
 39 41  1  0  0  0  0
 39 42  1  0  0  0  0
 39 43  1  0  0  0  0
 21 25  1  0  0  0  0
 21 26  1  0  0  0  0
 29 34  1  0  0  0  0
  8 13  1  0  0  0  0
 18 24  1  0  0  0  0
 38 40  1  0  0  0  0
  7 12  1  0  0  0  0
 28 33  1  0  0  0  0
 17 23  1  0  0  0  0
 22 27  1  0  0  0  0
M  END
$$$$

  -OEChem-05262214473D

 43 42  0     1  0  0  0  0  0999 V2000
    0.7424   -1.0926    4.5665 C   0  0  0  0  0  0  0  0  0  0  0  0
    0.1409   -0.5364    5.4779 O   0  0  0  0  0  0  0  0  0  0  0  0
    1.7940   -2.1023    4.8871 C   0  0  0  0  0  0  0  0  0  0  0  0
    2.7935   -1.6502    4.9904 H   0  0  0  0  0  0  0  0  0  0  0  0
    1.6064   -2.6156    5.8438 H   0  0  0  0  0  0  0  0  0  0  0  0
    1.9156   -2.9078    4.1453 H   0  0  0  0  0  0  0  0  0  0  0  0
    0.5488   -0.8838    3.2109 N   0  0  0  0  0  0  0  0  0  0  0  0
   -0.4159    0.0446    2.6829 C   0  0  2  0  0  0  0  0  0  0  0  0
   -0.7551   -0.3867    1.2623 C   0  0  0  0  0  0  0  0  0  0  0  0
   -0.0106   -1.0851    0.5774 O   0  0  0  0  0  0  0  0  0  0  0  0
    0.1168    1.4689    2.7060 C   0  0  0  0  0  0  0  0  0  0  0  0
    1.1183   -1.4145    2.5542 H   0  0  0  0  0  0  0  0  0  0  0  0
   -1.3088   -0.0350    3.3125 H   0  0  0  0  0  0  0  0  0  0  0  0
    1.0116    1.5681    2.0808 H   0  0  0  0  0  0  0  0  0  0  0  0
   -0.6289    2.1775    2.3307 H   0  0  0  0  0  0  0  0  0  0  0  0
    0.3882    1.7670    3.7245 H   0  0  0  0  0  0  0  0  0  0  0  0
   -1.9689    0.1350    0.8298 N   0  0  0  0  0  0  0  0  0  0  0  0
   -2.5039   -0.1183   -0.4830 C   0  0  2  0  0  0  0  0  0  0  0  0
   -3.9833   -0.4579   -0.3378 C   0  0  0  0  0  0  0  0  0  0  0  0
   -4.8829    0.3142   -0.6629 O   0  0  0  0  0  0  0  0  0  0  0  0
   -1.7336   -1.2202   -1.2034 C   0  0  0  0  0  0  0  0  0  0  0  0
   -1.9138   -2.4644   -0.5365 O   0  0  0  0  0  0  0  0  0  0  0  0
   -2.5276    0.6894    1.4750 H   0  0  0  0  0  0  0  0  0  0  0  0
   -2.4089    0.8202   -1.0411 H   0  0  0  0  0  0  0  0  0  0  0  0
   -0.6614   -0.9999   -1.2267 H   0  0  0  0  0  0  0  0  0  0  0  0
   -2.0917   -1.3308   -2.2325 H   0  0  0  0  0  0  0  0  0  0  0  0
   -2.8658   -2.6515   -0.5492 H   0  0  0  0  0  0  0  0  0  0  0  0
   -4.1788   -1.7396    0.1567 N   0  0  0  0  0  0  0  0  0  0  0  0
   -5.4910   -2.3095    0.3565 C   0  0  2  0  0  0  0  0  0  0  0  0
   -6.4084   -1.7712   -0.7336 C   0  0  0  0  0  0  0  0  0  0  0  0
   -6.1858   -0.7266   -1.3422 O   0  0  0  0  0  0  0  0  0  0  0  0
   -6.0343   -1.9770    1.7374 C   0  0  0  0  0  0  0  0  0  0  0  0
   -3.3736   -2.3240    0.3615 H   0  0  0  0  0  0  0  0  0  0  0  0
   -5.3855   -3.3939    0.2432 H   0  0  0  0  0  0  0  0  0  0  0  0
   -6.1469   -0.8947    1.8695 H   0  0  0  0  0  0  0  0  0  0  0  0
   -7.0166   -2.4334    1.8978 H   0  0  0  0  0  0  0  0  0  0  0  0
   -5.3584   -2.3388    2.5197 H   0  0  0  0  0  0  0  0  0  0  0  0
   -7.5270   -2.5719   -0.9168 N   0  0  0  0  0  0  0  0  0  0  0  0
   -8.5540   -2.2668   -1.8853 C   0  0  0  0  0  0  0  0  0  0  0  0
   -7.6204   -3.4300   -0.3813 H   0  0  0  0  0  0  0  0  0  0  0  0
   -9.3487   -1.6775   -1.4046 H   0  0  0  0  0  0  0  0  0  0  0  0
   -8.1175   -1.6877   -2.7124 H   0  0  0  0  0  0  0  0  0  0  0  0
   -8.9781   -3.2031   -2.2771 H   0  0  0  0  0  0  0  0  0  0  0  0
  1  3  1  0  0  0  0
  1  7  1  0  0  0  0
  1  2  2  0  0  0  0
 29 30  1  0  0  0  0
 30 38  1  0  0  0  0
 30 31  2  0  0  0  0
  8  9  1  0  0  0  0
  9 17  1  0  0  0  0
  9 10  2  0  0  0  0
 18 19  1  0  0  0  0
 19 28  1  0  0  0  0
 19 20  2  0  0  0  0
 29 32  1  0  0  0  0
  8 11  1  0  0  0  0
 38 39  1  0  0  0  0
 18 21  1  0  0  0  0
 21 22  1  0  0  0  0
 28 29  1  0  0  0  0
  7  8  1  0  0  0  0
 17 18  1  0  0  0  0
  3  4  1  0  0  0  0
  3  5  1  0  0  0  0
  3  6  1  0  0  0  0
 32 35  1  0  0  0  0
 32 36  1  0  0  0  0
 32 37  1  0  0  0  0
 11 14  1  0  0  0  0
 11 15  1  0  0  0  0
 11 16  1  0  0  0  0
 39 41  1  0  0  0  0
 39 42  1  0  0  0  0
 39 43  1  0  0  0  0
 21 25  1  0  0  0  0
 21 26  1  0  0  0  0
 29 34  1  0  0  0  0
  8 13  1  0  0  0  0
 18 24  1  0  0  0  0
 38 40  1  0  0  0  0
  7 12  1  0  0  0  0
 28 33  1  0  0  0  0
 17 23  1  0  0  0  0
 22 27  1  0  0  0  0
M  END
$$$$

  -OEChem-05262214473D

 43 42  0     1  0  0  0  0  0999 V2000
    0.7424   -1.0926    4.5665 C   0  0  0  0  0  0  0  0  0  0  0  0
    0.1409   -0.5364    5.4779 O   0  0  0  0  0  0  0  0  0  0  0  0
    1.7940   -2.1023    4.8871 C   0  0  0  0  0  0  0  0  0  0  0  0
    2.7935   -1.6502    4.9904 H   0  0  0  0  0  0  0  0  0  0  0  0
    1.6064   -2.6156    5.8438 H   0  0  0  0  0  0  0  0  0  0  0  0
    1.9156   -2.9078    4.1453 H   0  0  0  0  0  0  0  0  0  0  0  0
    0.5488   -0.8838    3.2109 N   0  0  0  0  0  0  0  0  0  0  0  0
   -0.4159    0.0446    2.6829 C   0  0  2  0  0  0  0  0  0  0  0  0
   -0.7551   -0.3867    1.2623 C   0  0  0  0  0  0  0  0  0  0  0  0
   -0.0106   -1.0851    0.5774 O   0  0  0  0  0  0  0  0  0  0  0  0
    0.1168    1.4689    2.7060 C   0  0  0  0  0  0  0  0  0  0  0  0
    1.1183   -1.4145    2.5542 H   0  0  0  0  0  0  0  0  0  0  0  0
   -1.3088   -0.0350    3.3125 H   0  0  0  0  0  0  0  0  0  0  0  0
    1.0116    1.5681    2.0808 H   0  0  0  0  0  0  0  0  0  0  0  0
   -0.6289    2.1775    2.3307 H   0  0  0  0  0  0  0  0  0  0  0  0
    0.3882    1.7670    3.7245 H   0  0  0  0  0  0  0  0  0  0  0  0
   -1.9689    0.1350    0.8298 N   0  0  0  0  0  0  0  0  0  0  0  0
   -2.5039   -0.1183   -0.4830 C   0  0  2  0  0  0  0  0  0  0  0  0
   -3.9833   -0.4579   -0.3378 C   0  0  0  0  0  0  0  0  0  0  0  0
   -4.8747    0.1790   -0.8954 O   0  0  0  0  0  0  0  0  0  0  0  0
   -1.7336   -1.2202   -1.2034 C   0  0  0  0  0  0  0  0  0  0  0  0
   -1.9138   -2.4644   -0.5365 O   0  0  0  0  0  0  0  0  0  0  0  0
   -2.5276    0.6894    1.4750 H   0  0  0  0  0  0  0  0  0  0  0  0
   -2.4089    0.8202   -1.0411 H   0  0  0  0  0  0  0  0  0  0  0  0
   -0.6614   -0.9999   -1.2267 H   0  0  0  0  0  0  0  0  0  0  0  0
   -2.0917   -1.3308   -2.2325 H   0  0  0  0  0  0  0  0  0  0  0  0
   -2.8658   -2.6515   -0.5492 H   0  0  0  0  0  0  0  0  0  0  0  0
   -4.1863   -1.5806    0.4522 N   0  0  0  0  0  0  0  0  0  0  0  0
   -5.4982   -2.1240    0.7172 C   0  0  2  0  0  0  0  0  0  0  0  0
   -6.3568   -1.9054   -0.5216 C   0  0  0  0  0  0  0  0  0  0  0  0
   -6.1157   -1.0399   -1.3606 O   0  0  0  0  0  0  0  0  0  0  0  0
   -6.1301   -1.4738    1.9381 C   0  0  0  0  0  0  0  0  0  0  0  0
   -3.3850   -2.0689    0.8410 H   0  0  0  0  0  0  0  0  0  0  0  0
   -5.3672   -3.1983    0.8865 H   0  0  0  0  0  0  0  0  0  0  0  0
   -6.2692   -0.3971    1.7871 H   0  0  0  0  0  0  0  0  0  0  0  0
   -7.1123   -1.9068    2.1545 H   0  0  0  0  0  0  0  0  0  0  0  0
   -5.4968   -1.6064    2.8219 H   0  0  0  0  0  0  0  0  0  0  0  0
   -7.4482   -2.7619   -0.5579 N   0  0  0  0  0  0  0  0  0  0  0  0
   -8.4196   -2.7420   -1.6265 C   0  0  0  0  0  0  0  0  0  0  0  0
   -7.5591   -3.4610    0.1705 H   0  0  0  0  0  0  0  0  0  0  0  0
   -9.2521   -2.0768   -1.3537 H   0  0  0  0  0  0  0  0  0  0  0  0
   -7.9436   -2.3748   -2.5477 H   0  0  0  0  0  0  0  0  0  0  0  0
   -8.8028   -3.7597   -1.7924 H   0  0  0  0  0  0  0  0  0  0  0  0
  1  3  1  0  0  0  0
  1  7  1  0  0  0  0
  1  2  2  0  0  0  0
 29 30  1  0  0  0  0
 30 38  1  0  0  0  0
 30 31  2  0  0  0  0
  8  9  1  0  0  0  0
  9 17  1  0  0  0  0
  9 10  2  0  0  0  0
 18 19  1  0  0  0  0
 19 28  1  0  0  0  0
 19 20  2  0  0  0  0
 29 32  1  0  0  0  0
  8 11  1  0  0  0  0
 38 39  1  0  0  0  0
 18 21  1  0  0  0  0
 21 22  1  0  0  0  0
 28 29  1  0  0  0  0
  7  8  1  0  0  0  0
 17 18  1  0  0  0  0
  3  4  1  0  0  0  0
  3  5  1  0  0  0  0
  3  6  1  0  0  0  0
 32 35  1  0  0  0  0
 32 36  1  0  0  0  0
 32 37  1  0  0  0  0
 11 14  1  0  0  0  0
 11 15  1  0  0  0  0
 11 16  1  0  0  0  0
 39 41  1  0  0  0  0
 39 42  1  0  0  0  0
 39 43  1  0  0  0  0
 21 25  1  0  0  0  0
 21 26  1  0  0  0  0
 29 34  1  0  0  0  0
  8 13  1  0  0  0  0
 18 24  1  0  0  0  0
 38 40  1  0  0  0  0
  7 12  1  0  0  0  0
 28 33  1  0  0  0  0
 17 23  1  0  0  0  0
 22 27  1  0  0  0  0
M  END
$$$$

  -OEChem-05262214473D

 43 42  0     1  0  0  0  0  0999 V2000
    0.7424   -1.0926    4.5665 C   0  0  0  0  0  0  0  0  0  0  0  0
    0.1409   -0.5364    5.4779 O   0  0  0  0  0  0  0  0  0  0  0  0
    1.7940   -2.1023    4.8871 C   0  0  0  0  0  0  0  0  0  0  0  0
    2.7935   -1.6502    4.9904 H   0  0  0  0  0  0  0  0  0  0  0  0
    1.6064   -2.6156    5.8438 H   0  0  0  0  0  0  0  0  0  0  0  0
    1.9156   -2.9078    4.1453 H   0  0  0  0  0  0  0  0  0  0  0  0
    0.5488   -0.8838    3.2109 N   0  0  0  0  0  0  0  0  0  0  0  0
   -0.4159    0.0446    2.6829 C   0  0  2  0  0  0  0  0  0  0  0  0
   -0.7551   -0.3867    1.2623 C   0  0  0  0  0  0  0  0  0  0  0  0
   -0.0106   -1.0851    0.5774 O   0  0  0  0  0  0  0  0  0  0  0  0
    0.1168    1.4689    2.7060 C   0  0  0  0  0  0  0  0  0  0  0  0
    1.1183   -1.4145    2.5542 H   0  0  0  0  0  0  0  0  0  0  0  0
   -1.3088   -0.0350    3.3125 H   0  0  0  0  0  0  0  0  0  0  0  0
    1.0116    1.5681    2.0808 H   0  0  0  0  0  0  0  0  0  0  0  0
   -0.6289    2.1775    2.3307 H   0  0  0  0  0  0  0  0  0  0  0  0
    0.3882    1.7670    3.7245 H   0  0  0  0  0  0  0  0  0  0  0  0
   -1.9689    0.1350    0.8298 N   0  0  0  0  0  0  0  0  0  0  0  0
   -2.5039   -0.1183   -0.4830 C   0  0  2  0  0  0  0  0  0  0  0  0
   -3.9833   -0.4579   -0.3378 C   0  0  0  0  0  0  0  0  0  0  0  0
   -4.8500   -0.0098   -1.0855 O   0  0  0  0  0  0  0  0  0  0  0  0
   -1.7336   -1.2202   -1.2034 C   0  0  0  0  0  0  0  0  0  0  0  0
   -1.9138   -2.4644   -0.5365 O   0  0  0  0  0  0  0  0  0  0  0  0
   -2.5276    0.6894    1.4750 H   0  0  0  0  0  0  0  0  0  0  0  0
   -2.4089    0.8202   -1.0411 H   0  0  0  0  0  0  0  0  0  0  0  0
   -0.6614   -0.9999   -1.2267 H   0  0  0  0  0  0  0  0  0  0  0  0
   -2.0917   -1.3308   -2.2325 H   0  0  0  0  0  0  0  0  0  0  0  0
   -2.8658   -2.6515   -0.5492 H   0  0  0  0  0  0  0  0  0  0  0  0
   -4.2145   -1.3529    0.6972 N   0  0  0  0  0  0  0  0  0  0  0  0
   -5.5305   -1.8543    1.0186 C   0  0  2  0  0  0  0  0  0  0  0  0
   -6.3158   -1.9805   -0.2802 C   0  0  0  0  0  0  0  0  0  0  0  0
   -6.0392   -1.3454   -1.2957 O   0  0  0  0  0  0  0  0  0  0  0  0
   -6.2466   -0.9398    2.0002 C   0  0  0  0  0  0  0  0  0  0  0  0
   -3.4300   -1.7025    1.2395 H   0  0  0  0  0  0  0  0  0  0  0  0
   -5.3915   -2.8473    1.4599 H   0  0  0  0  0  0  0  0  0  0  0  0
   -6.3948    0.0598    1.5755 H   0  0  0  0  0  0  0  0  0  0  0  0
   -7.2325   -1.3360    2.2648 H   0  0  0  0  0  0  0  0  0  0  0  0
   -5.6659   -0.8265    2.9220 H   0  0  0  0  0  0  0  0  0  0  0  0
   -7.3880   -2.8533   -0.1590 N   0  0  0  0  0  0  0  0  0  0  0  0
   -8.2929   -3.1328   -1.2495 C   0  0  0  0  0  0  0  0  0  0  0  0
   -7.5309   -3.3510    0.7148 H   0  0  0  0  0  0  0  0  0  0  0  0
   -9.1518   -2.4474   -1.1988 H   0  0  0  0  0  0  0  0  0  0  0  0
   -7.7683   -2.9928   -2.2062 H   0  0  0  0  0  0  0  0  0  0  0  0
   -8.6477   -4.1713   -1.1744 H   0  0  0  0  0  0  0  0  0  0  0  0
  1  3  1  0  0  0  0
  1  7  1  0  0  0  0
  1  2  2  0  0  0  0
 29 30  1  0  0  0  0
 30 38  1  0  0  0  0
 30 31  2  0  0  0  0
  8  9  1  0  0  0  0
  9 17  1  0  0  0  0
  9 10  2  0  0  0  0
 18 19  1  0  0  0  0
 19 28  1  0  0  0  0
 19 20  2  0  0  0  0
 29 32  1  0  0  0  0
  8 11  1  0  0  0  0
 38 39  1  0  0  0  0
 18 21  1  0  0  0  0
 21 22  1  0  0  0  0
 28 29  1  0  0  0  0
  7  8  1  0  0  0  0
 17 18  1  0  0  0  0
  3  4  1  0  0  0  0
  3  5  1  0  0  0  0
  3  6  1  0  0  0  0
 32 35  1  0  0  0  0
 32 36  1  0  0  0  0
 32 37  1  0  0  0  0
 11 14  1  0  0  0  0
 11 15  1  0  0  0  0
 11 16  1  0  0  0  0
 39 41  1  0  0  0  0
 39 42  1  0  0  0  0
 39 43  1  0  0  0  0
 21 25  1  0  0  0  0
 21 26  1  0  0  0  0
 29 34  1  0  0  0  0
  8 13  1  0  0  0  0
 18 24  1  0  0  0  0
 38 40  1  0  0  0  0
  7 12  1  0  0  0  0
 28 33  1  0  0  0  0
 17 23  1  0  0  0  0
 22 27  1  0  0  0  0
M  END
$$$$

  -OEChem-05262214473D

 43 42  0     1  0  0  0  0  0999 V2000
    0.7424   -1.0926    4.5665 C   0  0  0  0  0  0  0  0  0  0  0  0
    0.1409   -0.5364    5.4779 O   0  0  0  0  0  0  0  0  0  0  0  0
    1.7940   -2.1023    4.8871 C   0  0  0  0  0  0  0  0  0  0  0  0
    2.7935   -1.6502    4.9904 H   0  0  0  0  0  0  0  0  0  0  0  0
    1.6064   -2.6156    5.8438 H   0  0  0  0  0  0  0  0  0  0  0  0
    1.9156   -2.9078    4.1453 H   0  0  0  0  0  0  0  0  0  0  0  0
    0.5488   -0.8838    3.2109 N   0  0  0  0  0  0  0  0  0  0  0  0
   -0.4159    0.0446    2.6829 C   0  0  2  0  0  0  0  0  0  0  0  0
   -0.7551   -0.3867    1.2623 C   0  0  0  0  0  0  0  0  0  0  0  0
   -0.0106   -1.0851    0.5774 O   0  0  0  0  0  0  0  0  0  0  0  0
    0.1168    1.4689    2.7060 C   0  0  0  0  0  0  0  0  0  0  0  0
    1.1183   -1.4145    2.5542 H   0  0  0  0  0  0  0  0  0  0  0  0
   -1.3088   -0.0350    3.3125 H   0  0  0  0  0  0  0  0  0  0  0  0
    1.0116    1.5681    2.0808 H   0  0  0  0  0  0  0  0  0  0  0  0
   -0.6289    2.1775    2.3307 H   0  0  0  0  0  0  0  0  0  0  0  0
    0.3882    1.7670    3.7245 H   0  0  0  0  0  0  0  0  0  0  0  0
   -1.9689    0.1350    0.8298 N   0  0  0  0  0  0  0  0  0  0  0  0
   -2.5039   -0.1183   -0.4830 C   0  0  2  0  0  0  0  0  0  0  0  0
   -3.9833   -0.4579   -0.3378 C   0  0  0  0  0  0  0  0  0  0  0  0
   -4.8106   -0.2393   -1.2204 O   0  0  0  0  0  0  0  0  0  0  0  0
   -1.7336   -1.2202   -1.2034 C   0  0  0  0  0  0  0  0  0  0  0  0
   -1.9138   -2.4644   -0.5365 O   0  0  0  0  0  0  0  0  0  0  0  0
   -2.5276    0.6894    1.4750 H   0  0  0  0  0  0  0  0  0  0  0  0
   -2.4089    0.8202   -1.0411 H   0  0  0  0  0  0  0  0  0  0  0  0
   -0.6614   -0.9999   -1.2267 H   0  0  0  0  0  0  0  0  0  0  0  0
   -2.0917   -1.3308   -2.2325 H   0  0  0  0  0  0  0  0  0  0  0  0
   -2.8658   -2.6515   -0.5492 H   0  0  0  0  0  0  0  0  0  0  0  0
   -4.2615   -1.0722    0.8751 N   0  0  0  0  0  0  0  0  0  0  0  0
   -5.5857   -1.5190    1.2402 C   0  0  2  0  0  0  0  0  0  0  0  0
   -6.2883   -1.9914   -0.0258 C   0  0  0  0  0  0  0  0  0  0  0  0
   -5.9616   -1.6223   -1.1519 O   0  0  0  0  0  0  0  0  0  0  0  0
   -6.3758   -0.4112    1.9193 C   0  0  0  0  0  0  0  0  0  0  0  0
   -3.5055   -1.2495    1.5299 H   0  0  0  0  0  0  0  0  0  0  0  0
   -5.4566   -2.3648    1.9242 H   0  0  0  0  0  0  0  0  0  0  0  0
   -6.5152    0.4449    1.2491 H   0  0  0  0  0  0  0  0  0  0  0  0
   -7.3690   -0.7599    2.2210 H   0  0  0  0  0  0  0  0  0  0  0  0
   -5.8544   -0.0522    2.8131 H   0  0  0  0  0  0  0  0  0  0  0  0
   -7.3507   -2.8400    0.2527 N   0  0  0  0  0  0  0  0  0  0  0  0
   -8.1826   -3.4124   -0.7799 C   0  0  0  0  0  0  0  0  0  0  0  0
   -7.5378   -3.1073    1.2146 H   0  0  0  0  0  0  0  0  0  0  0  0
   -9.0547   -2.7641   -0.9503 H   0  0  0  0  0  0  0  0  0  0  0  0
   -7.6033   -3.4997   -1.7109 H   0  0  0  0  0  0  0  0  0  0  0  0
   -8.5233   -4.4098   -0.4651 H   0  0  0  0  0  0  0  0  0  0  0  0
  1  3  1  0  0  0  0
  1  7  1  0  0  0  0
  1  2  2  0  0  0  0
 29 30  1  0  0  0  0
 30 38  1  0  0  0  0
 30 31  2  0  0  0  0
  8  9  1  0  0  0  0
  9 17  1  0  0  0  0
  9 10  2  0  0  0  0
 18 19  1  0  0  0  0
 19 28  1  0  0  0  0
 19 20  2  0  0  0  0
 29 32  1  0  0  0  0
  8 11  1  0  0  0  0
 38 39  1  0  0  0  0
 18 21  1  0  0  0  0
 21 22  1  0  0  0  0
 28 29  1  0  0  0  0
  7  8  1  0  0  0  0
 17 18  1  0  0  0  0
  3  4  1  0  0  0  0
  3  5  1  0  0  0  0
  3  6  1  0  0  0  0
 32 35  1  0  0  0  0
 32 36  1  0  0  0  0
 32 37  1  0  0  0  0
 11 14  1  0  0  0  0
 11 15  1  0  0  0  0
 11 16  1  0  0  0  0
 39 41  1  0  0  0  0
 39 42  1  0  0  0  0
 39 43  1  0  0  0  0
 21 25  1  0  0  0  0
 21 26  1  0  0  0  0
 29 34  1  0  0  0  0
  8 13  1  0  0  0  0
 18 24  1  0  0  0  0
 38 40  1  0  0  0  0
  7 12  1  0  0  0  0
 28 33  1  0  0  0  0
 17 23  1  0  0  0  0
 22 27  1  0  0  0  0
M  END
$$$$

  -OEChem-05262214473D

 43 42  0     1  0  0  0  0  0999 V2000
    0.7424   -1.0926    4.5665 C   0  0  0  0  0  0  0  0  0  0  0  0
    0.1409   -0.5364    5.4779 O   0  0  0  0  0  0  0  0  0  0  0  0
    1.7940   -2.1023    4.8871 C   0  0  0  0  0  0  0  0  0  0  0  0
    2.7935   -1.6502    4.9904 H   0  0  0  0  0  0  0  0  0  0  0  0
    1.6064   -2.6156    5.8438 H   0  0  0  0  0  0  0  0  0  0  0  0
    1.9156   -2.9078    4.1453 H   0  0  0  0  0  0  0  0  0  0  0  0
    0.5488   -0.8838    3.2109 N   0  0  0  0  0  0  0  0  0  0  0  0
   -0.4159    0.0446    2.6829 C   0  0  2  0  0  0  0  0  0  0  0  0
   -0.7551   -0.3867    1.2623 C   0  0  0  0  0  0  0  0  0  0  0  0
   -0.0106   -1.0851    0.5774 O   0  0  0  0  0  0  0  0  0  0  0  0
    0.1168    1.4689    2.7060 C   0  0  0  0  0  0  0  0  0  0  0  0
    1.1183   -1.4145    2.5542 H   0  0  0  0  0  0  0  0  0  0  0  0
   -1.3088   -0.0350    3.3125 H   0  0  0  0  0  0  0  0  0  0  0  0
    1.0116    1.5681    2.0808 H   0  0  0  0  0  0  0  0  0  0  0  0
   -0.6289    2.1775    2.3307 H   0  0  0  0  0  0  0  0  0  0  0  0
    0.3882    1.7670    3.7245 H   0  0  0  0  0  0  0  0  0  0  0  0
   -1.9689    0.1350    0.8298 N   0  0  0  0  0  0  0  0  0  0  0  0
   -2.5039   -0.1183   -0.4830 C   0  0  2  0  0  0  0  0  0  0  0  0
   -3.9833   -0.4579   -0.3378 C   0  0  0  0  0  0  0  0  0  0  0  0
   -4.7590   -0.4938   -1.2907 O   0  0  0  0  0  0  0  0  0  0  0  0
   -1.7336   -1.2202   -1.2034 C   0  0  0  0  0  0  0  0  0  0  0  0
   -1.9138   -2.4644   -0.5365 O   0  0  0  0  0  0  0  0  0  0  0  0
   -2.5276    0.6894    1.4750 H   0  0  0  0  0  0  0  0  0  0  0  0
   -2.4089    0.8202   -1.0411 H   0  0  0  0  0  0  0  0  0  0  0  0
   -0.6614   -0.9999   -1.2267 H   0  0  0  0  0  0  0  0  0  0  0  0
   -2.0917   -1.3308   -2.2325 H   0  0  0  0  0  0  0  0  0  0  0  0
   -2.8658   -2.6515   -0.5492 H   0  0  0  0  0  0  0  0  0  0  0  0
   -4.3240   -0.7575    0.9736 N   0  0  0  0  0  0  0  0  0  0  0  0
   -5.6600   -1.1408    1.3668 C   0  0  2  0  0  0  0  0  0  0  0  0
   -6.2762   -1.9374    0.2243 C   0  0  0  0  0  0  0  0  0  0  0  0
   -5.8880   -1.8518   -0.9389 O   0  0  0  0  0  0  0  0  0  0  0  0
   -6.5090    0.0758    1.7009 C   0  0  0  0  0  0  0  0  0  0  0  0
   -3.6063   -0.7409    1.6922 H   0  0  0  0  0  0  0  0  0  0  0  0
   -5.5582   -1.7839    2.2478 H   0  0  0  0  0  0  0  0  0  0  0  0
   -6.6222    0.7320    0.8303 H   0  0  0  0  0  0  0  0  0  0  0  0
   -7.5126   -0.2178    2.0262 H   0  0  0  0  0  0  0  0  0  0  0  0
   -6.0491    0.6637    2.5026 H   0  0  0  0  0  0  0  0  0  0  0  0
   -7.3387   -2.7228    0.6492 N   0  0  0  0  0  0  0  0  0  0  0  0
   -8.0963   -3.5619   -0.2497 C   0  0  0  0  0  0  0  0  0  0  0  0
   -7.5793   -2.7466    1.6357 H   0  0  0  0  0  0  0  0  0  0  0  0
   -8.9675   -3.0051   -0.6252 H   0  0  0  0  0  0  0  0  0  0  0  0
   -7.4600   -3.8609   -1.0957 H   0  0  0  0  0  0  0  0  0  0  0  0
   -8.4382   -4.4591    0.2870 H   0  0  0  0  0  0  0  0  0  0  0  0
  1  3  1  0  0  0  0
  1  7  1  0  0  0  0
  1  2  2  0  0  0  0
 29 30  1  0  0  0  0
 30 38  1  0  0  0  0
 30 31  2  0  0  0  0
  8  9  1  0  0  0  0
  9 17  1  0  0  0  0
  9 10  2  0  0  0  0
 18 19  1  0  0  0  0
 19 28  1  0  0  0  0
 19 20  2  0  0  0  0
 29 32  1  0  0  0  0
  8 11  1  0  0  0  0
 38 39  1  0  0  0  0
 18 21  1  0  0  0  0
 21 22  1  0  0  0  0
 28 29  1  0  0  0  0
  7  8  1  0  0  0  0
 17 18  1  0  0  0  0
  3  4  1  0  0  0  0
  3  5  1  0  0  0  0
  3  6  1  0  0  0  0
 32 35  1  0  0  0  0
 32 36  1  0  0  0  0
 32 37  1  0  0  0  0
 11 14  1  0  0  0  0
 11 15  1  0  0  0  0
 11 16  1  0  0  0  0
 39 41  1  0  0  0  0
 39 42  1  0  0  0  0
 39 43  1  0  0  0  0
 21 25  1  0  0  0  0
 21 26  1  0  0  0  0
 29 34  1  0  0  0  0
  8 13  1  0  0  0  0
 18 24  1  0  0  0  0
 38 40  1  0  0  0  0
  7 12  1  0  0  0  0
 28 33  1  0  0  0  0
 17 23  1  0  0  0  0
 22 27  1  0  0  0  0
M  END
$$$$

  -OEChem-05262214473D

 43 42  0     1  0  0  0  0  0999 V2000
    0.7424   -1.0926    4.5665 C   0  0  0  0  0  0  0  0  0  0  0  0
    0.1409   -0.5364    5.4779 O   0  0  0  0  0  0  0  0  0  0  0  0
    1.7940   -2.1023    4.8871 C   0  0  0  0  0  0  0  0  0  0  0  0
    2.7935   -1.6502    4.9904 H   0  0  0  0  0  0  0  0  0  0  0  0
    1.6064   -2.6156    5.8438 H   0  0  0  0  0  0  0  0  0  0  0  0
    1.9156   -2.9078    4.1453 H   0  0  0  0  0  0  0  0  0  0  0  0
    0.5488   -0.8838    3.2109 N   0  0  0  0  0  0  0  0  0  0  0  0
   -0.4159    0.0446    2.6829 C   0  0  2  0  0  0  0  0  0  0  0  0
   -0.7551   -0.3867    1.2623 C   0  0  0  0  0  0  0  0  0  0  0  0
   -0.0106   -1.0851    0.5774 O   0  0  0  0  0  0  0  0  0  0  0  0
    0.1168    1.4689    2.7060 C   0  0  0  0  0  0  0  0  0  0  0  0
    1.1183   -1.4145    2.5542 H   0  0  0  0  0  0  0  0  0  0  0  0
   -1.3088   -0.0350    3.3125 H   0  0  0  0  0  0  0  0  0  0  0  0
    1.0116    1.5681    2.0808 H   0  0  0  0  0  0  0  0  0  0  0  0
   -0.6289    2.1775    2.3307 H   0  0  0  0  0  0  0  0  0  0  0  0
    0.3882    1.7670    3.7245 H   0  0  0  0  0  0  0  0  0  0  0  0
   -1.9689    0.1350    0.8298 N   0  0  0  0  0  0  0  0  0  0  0  0
   -2.5039   -0.1183   -0.4830 C   0  0  2  0  0  0  0  0  0  0  0  0
   -3.9833   -0.4579   -0.3378 C   0  0  0  0  0  0  0  0  0  0  0  0
   -4.6990   -0.7561   -1.2917 O   0  0  0  0  0  0  0  0  0  0  0  0
   -1.7336   -1.2202   -1.2034 C   0  0  0  0  0  0  0  0  0  0  0  0
   -1.9138   -2.4644   -0.5365 O   0  0  0  0  0  0  0  0  0  0  0  0
   -2.5276    0.6894    1.4750 H   0  0  0  0  0  0  0  0  0  0  0  0
   -2.4089    0.8202   -1.0411 H   0  0  0  0  0  0  0  0  0  0  0  0
   -0.6614   -0.9999   -1.2267 H   0  0  0  0  0  0  0  0  0  0  0  0
   -2.0917   -1.3308   -2.2325 H   0  0  0  0  0  0  0  0  0  0  0  0
   -2.8658   -2.6515   -0.5492 H   0  0  0  0  0  0  0  0  0  0  0  0
   -4.3979   -0.4303    0.9863 N   0  0  0  0  0  0  0  0  0  0  0  0
   -5.7485   -0.7456    1.3899 C   0  0  2  0  0  0  0  0  0  0  0  0
   -6.2802   -1.8222    0.4530 C   0  0  0  0  0  0  0  0  0  0  0  0
   -5.8236   -2.0181   -0.6714 O   0  0  0  0  0  0  0  0  0  0  0  0
   -6.6371    0.4882    1.3601 C   0  0  0  0  0  0  0  0  0  0  0  0
   -3.7255   -0.2114    1.7155 H   0  0  0  0  0  0  0  0  0  0  0  0
   -5.6893   -1.1439    2.4087 H   0  0  0  0  0  0  0  0  0  0  0  0
   -6.7085    0.9014    0.3474 H   0  0  0  0  0  0  0  0  0  0  0  0
   -7.6533    0.2533    1.6936 H   0  0  0  0  0  0  0  0  0  0  0  0
   -6.2371    1.2725    2.0117 H   0  0  0  0  0  0  0  0  0  0  0  0
   -7.3528   -2.5097    1.0034 N   0  0  0  0  0  0  0  0  0  0  0  0
   -8.0397   -3.5709    0.3049 C   0  0  0  0  0  0  0  0  0  0  0  0
   -7.6525   -2.2934    1.9495 H   0  0  0  0  0  0  0  0  0  0  0  0
   -8.8960   -3.1541   -0.2455 H   0  0  0  0  0  0  0  0  0  0  0  0
   -7.3482   -4.0518   -0.4026 H   0  0  0  0  0  0  0  0  0  0  0  0
   -8.3981   -4.3156    1.0309 H   0  0  0  0  0  0  0  0  0  0  0  0
  1  3  1  0  0  0  0
  1  7  1  0  0  0  0
  1  2  2  0  0  0  0
 29 30  1  0  0  0  0
 30 38  1  0  0  0  0
 30 31  2  0  0  0  0
  8  9  1  0  0  0  0
  9 17  1  0  0  0  0
  9 10  2  0  0  0  0
 18 19  1  0  0  0  0
 19 28  1  0  0  0  0
 19 20  2  0  0  0  0
 29 32  1  0  0  0  0
  8 11  1  0  0  0  0
 38 39  1  0  0  0  0
 18 21  1  0  0  0  0
 21 22  1  0  0  0  0
 28 29  1  0  0  0  0
  7  8  1  0  0  0  0
 17 18  1  0  0  0  0
  3  4  1  0  0  0  0
  3  5  1  0  0  0  0
  3  6  1  0  0  0  0
 32 35  1  0  0  0  0
 32 36  1  0  0  0  0
 32 37  1  0  0  0  0
 11 14  1  0  0  0  0
 11 15  1  0  0  0  0
 11 16  1  0  0  0  0
 39 41  1  0  0  0  0
 39 42  1  0  0  0  0
 39 43  1  0  0  0  0
 21 25  1  0  0  0  0
 21 26  1  0  0  0  0
 29 34  1  0  0  0  0
  8 13  1  0  0  0  0
 18 24  1  0  0  0  0
 38 40  1  0  0  0  0
  7 12  1  0  0  0  0
 28 33  1  0  0  0  0
 17 23  1  0  0  0  0
 22 27  1  0  0  0  0
M  END
$$$$

  -OEChem-05262214473D

 43 42  0     1  0  0  0  0  0999 V2000
    0.7424   -1.0926    4.5665 C   0  0  0  0  0  0  0  0  0  0  0  0
    0.1409   -0.5364    5.4779 O   0  0  0  0  0  0  0  0  0  0  0  0
    1.7940   -2.1023    4.8871 C   0  0  0  0  0  0  0  0  0  0  0  0
    2.7935   -1.6502    4.9904 H   0  0  0  0  0  0  0  0  0  0  0  0
    1.6064   -2.6156    5.8438 H   0  0  0  0  0  0  0  0  0  0  0  0
    1.9156   -2.9078    4.1453 H   0  0  0  0  0  0  0  0  0  0  0  0
    0.5488   -0.8838    3.2109 N   0  0  0  0  0  0  0  0  0  0  0  0
   -0.4159    0.0446    2.6829 C   0  0  2  0  0  0  0  0  0  0  0  0
   -0.7551   -0.3867    1.2623 C   0  0  0  0  0  0  0  0  0  0  0  0
   -0.0106   -1.0851    0.5774 O   0  0  0  0  0  0  0  0  0  0  0  0
    0.1168    1.4689    2.7060 C   0  0  0  0  0  0  0  0  0  0  0  0
    1.1183   -1.4145    2.5542 H   0  0  0  0  0  0  0  0  0  0  0  0
   -1.3088   -0.0350    3.3125 H   0  0  0  0  0  0  0  0  0  0  0  0
    1.0116    1.5681    2.0808 H   0  0  0  0  0  0  0  0  0  0  0  0
   -0.6289    2.1775    2.3307 H   0  0  0  0  0  0  0  0  0  0  0  0
    0.3882    1.7670    3.7245 H   0  0  0  0  0  0  0  0  0  0  0  0
   -1.9689    0.1350    0.8298 N   0  0  0  0  0  0  0  0  0  0  0  0
   -2.5039   -0.1183   -0.4830 C   0  0  2  0  0  0  0  0  0  0  0  0
   -3.9833   -0.4579   -0.3378 C   0  0  0  0  0  0  0  0  0  0  0  0
   -4.6344   -1.0082   -1.2234 O   0  0  0  0  0  0  0  0  0  0  0  0
   -1.7336   -1.2202   -1.2034 C   0  0  0  0  0  0  0  0  0  0  0  0
   -1.9138   -2.4644   -0.5365 O   0  0  0  0  0  0  0  0  0  0  0  0
   -2.5276    0.6894    1.4750 H   0  0  0  0  0  0  0  0  0  0  0  0
   -2.4089    0.8202   -1.0411 H   0  0  0  0  0  0  0  0  0  0  0  0
   -0.6614   -0.9999   -1.2267 H   0  0  0  0  0  0  0  0  0  0  0  0
   -2.0917   -1.3308   -2.2325 H   0  0  0  0  0  0  0  0  0  0  0  0
   -2.8658   -2.6515   -0.5492 H   0  0  0  0  0  0  0  0  0  0  0  0
   -4.4780   -0.1130    0.9120 N   0  0  0  0  0  0  0  0  0  0  0  0
   -5.8450   -0.3602    1.3078 C   0  0  2  0  0  0  0  0  0  0  0  0
   -6.3001   -1.6535    0.6447 C   0  0  0  0  0  0  0  0  0  0  0  0
   -5.7726   -2.1100   -0.3674 O   0  0  0  0  0  0  0  0  0  0  0  0
   -6.7514    0.7977    0.9199 C   0  0  0  0  0  0  0  0  0  0  0  0
   -3.8551    0.3030    1.5981 H   0  0  0  0  0  0  0  0  0  0  0  0
   -5.8410   -0.4886    2.3957 H   0  0  0  0  0  0  0  0  0  0  0  0
   -6.7682    0.9417   -0.1666 H   0  0  0  0  0  0  0  0  0  0  0  0
   -7.7818    0.6215    1.2459 H   0  0  0  0  0  0  0  0  0  0  0  0
   -6.4053    1.7326    1.3738 H   0  0  0  0  0  0  0  0  0  0  0  0
   -7.3921   -2.2153    1.2912 N   0  0  0  0  0  0  0  0  0  0  0  0
   -8.0169   -3.4391    0.8462 C   0  0  0  0  0  0  0  0  0  0  0  0
   -7.7524   -1.7787    2.1346 H   0  0  0  0  0  0  0  0  0  0  0  0
   -8.8452   -3.2010    0.1627 H   0  0  0  0  0  0  0  0  0  0  0  0
   -7.2754   -4.0593    0.3213 H   0  0  0  0  0  0  0  0  0  0  0  0
   -8.4057   -3.9893    1.7156 H   0  0  0  0  0  0  0  0  0  0  0  0
  1  3  1  0  0  0  0
  1  7  1  0  0  0  0
  1  2  2  0  0  0  0
 29 30  1  0  0  0  0
 30 38  1  0  0  0  0
 30 31  2  0  0  0  0
  8  9  1  0  0  0  0
  9 17  1  0  0  0  0
  9 10  2  0  0  0  0
 18 19  1  0  0  0  0
 19 28  1  0  0  0  0
 19 20  2  0  0  0  0
 29 32  1  0  0  0  0
  8 11  1  0  0  0  0
 38 39  1  0  0  0  0
 18 21  1  0  0  0  0
 21 22  1  0  0  0  0
 28 29  1  0  0  0  0
  7  8  1  0  0  0  0
 17 18  1  0  0  0  0
  3  4  1  0  0  0  0
  3  5  1  0  0  0  0
  3  6  1  0  0  0  0
 32 35  1  0  0  0  0
 32 36  1  0  0  0  0
 32 37  1  0  0  0  0
 11 14  1  0  0  0  0
 11 15  1  0  0  0  0
 11 16  1  0  0  0  0
 39 41  1  0  0  0  0
 39 42  1  0  0  0  0
 39 43  1  0  0  0  0
 21 25  1  0  0  0  0
 21 26  1  0  0  0  0
 29 34  1  0  0  0  0
  8 13  1  0  0  0  0
 18 24  1  0  0  0  0
 38 40  1  0  0  0  0
  7 12  1  0  0  0  0
 28 33  1  0  0  0  0
 17 23  1  0  0  0  0
 22 27  1  0  0  0  0
M  END
$$$$

  -OEChem-05262214473D

 43 42  0     1  0  0  0  0  0999 V2000
    0.7424   -1.0926    4.5665 C   0  0  0  0  0  0  0  0  0  0  0  0
    0.1409   -0.5364    5.4779 O   0  0  0  0  0  0  0  0  0  0  0  0
    1.7940   -2.1023    4.8871 C   0  0  0  0  0  0  0  0  0  0  0  0
    2.7935   -1.6502    4.9904 H   0  0  0  0  0  0  0  0  0  0  0  0
    1.6064   -2.6156    5.8438 H   0  0  0  0  0  0  0  0  0  0  0  0
    1.9156   -2.9078    4.1453 H   0  0  0  0  0  0  0  0  0  0  0  0
    0.5488   -0.8838    3.2109 N   0  0  0  0  0  0  0  0  0  0  0  0
   -0.4159    0.0446    2.6829 C   0  0  2  0  0  0  0  0  0  0  0  0
   -0.7551   -0.3867    1.2623 C   0  0  0  0  0  0  0  0  0  0  0  0
   -0.0106   -1.0851    0.5774 O   0  0  0  0  0  0  0  0  0  0  0  0
    0.1168    1.4689    2.7060 C   0  0  0  0  0  0  0  0  0  0  0  0
    1.1183   -1.4145    2.5542 H   0  0  0  0  0  0  0  0  0  0  0  0
   -1.3088   -0.0350    3.3125 H   0  0  0  0  0  0  0  0  0  0  0  0
    1.0116    1.5681    2.0808 H   0  0  0  0  0  0  0  0  0  0  0  0
   -0.6289    2.1775    2.3307 H   0  0  0  0  0  0  0  0  0  0  0  0
    0.3882    1.7670    3.7245 H   0  0  0  0  0  0  0  0  0  0  0  0
   -1.9689    0.1350    0.8298 N   0  0  0  0  0  0  0  0  0  0  0  0
   -2.5039   -0.1183   -0.4830 C   0  0  2  0  0  0  0  0  0  0  0  0
   -3.9833   -0.4579   -0.3378 C   0  0  0  0  0  0  0  0  0  0  0  0
   -4.5697   -1.2330   -1.0904 O   0  0  0  0  0  0  0  0  0  0  0  0
   -1.7336   -1.2202   -1.2034 C   0  0  0  0  0  0  0  0  0  0  0  0
   -1.9138   -2.4644   -0.5365 O   0  0  0  0  0  0  0  0  0  0  0  0
   -2.5276    0.6894    1.4750 H   0  0  0  0  0  0  0  0  0  0  0  0
   -2.4089    0.8202   -1.0411 H   0  0  0  0  0  0  0  0  0  0  0  0
   -0.6614   -0.9999   -1.2267 H   0  0  0  0  0  0  0  0  0  0  0  0
   -2.0917   -1.3308   -2.2325 H   0  0  0  0  0  0  0  0  0  0  0  0
   -2.8658   -2.6515   -0.5492 H   0  0  0  0  0  0  0  0  0  0  0  0
   -4.5589    0.1730    0.7560 N   0  0  0  0  0  0  0  0  0  0  0  0
   -5.9430   -0.0109    1.1262 C   0  0  2  0  0  0  0  0  0  0  0  0
   -6.3345   -1.4429    0.7864 C   0  0  0  0  0  0  0  0  0  0  0  0
   -5.7387   -2.1212   -0.0478 O   0  0  0  0  0  0  0  0  0  0  0  0
   -6.8440    0.9833    0.4104 C   0  0  0  0  0  0  0  0  0  0  0  0
   -3.9862    0.7672    1.3481 H   0  0  0  0  0  0  0  0  0  0  0  0
   -6.0029    0.1373    2.2100 H   0  0  0  0  0  0  0  0  0  0  0  0
   -6.7973    0.8501   -0.6766 H   0  0  0  0  0  0  0  0  0  0  0  0
   -7.8891    0.8615    0.7137 H   0  0  0  0  0  0  0  0  0  0  0  0
   -6.5423    2.0127    0.6324 H   0  0  0  0  0  0  0  0  0  0  0  0
   -7.4539   -1.8596    1.4931 N   0  0  0  0  0  0  0  0  0  0  0  0
   -8.0292   -3.1752    1.3372 C   0  0  0  0  0  0  0  0  0  0  0  0
   -7.8723   -1.2375    2.1784 H   0  0  0  0  0  0  0  0  0  0  0  0
   -8.8185   -3.1424    0.5717 H   0  0  0  0  0  0  0  0  0  0  0  0
   -7.2466   -3.8830    1.0267 H   0  0  0  0  0  0  0  0  0  0  0  0
   -8.4607   -3.5024    2.2947 H   0  0  0  0  0  0  0  0  0  0  0  0
  1  3  1  0  0  0  0
  1  7  1  0  0  0  0
  1  2  2  0  0  0  0
 29 30  1  0  0  0  0
 30 38  1  0  0  0  0
 30 31  2  0  0  0  0
  8  9  1  0  0  0  0
  9 17  1  0  0  0  0
  9 10  2  0  0  0  0
 18 19  1  0  0  0  0
 19 28  1  0  0  0  0
 19 20  2  0  0  0  0
 29 32  1  0  0  0  0
  8 11  1  0  0  0  0
 38 39  1  0  0  0  0
 18 21  1  0  0  0  0
 21 22  1  0  0  0  0
 28 29  1  0  0  0  0
  7  8  1  0  0  0  0
 17 18  1  0  0  0  0
  3  4  1  0  0  0  0
  3  5  1  0  0  0  0
  3  6  1  0  0  0  0
 32 35  1  0  0  0  0
 32 36  1  0  0  0  0
 32 37  1  0  0  0  0
 11 14  1  0  0  0  0
 11 15  1  0  0  0  0
 11 16  1  0  0  0  0
 39 41  1  0  0  0  0
 39 42  1  0  0  0  0
 39 43  1  0  0  0  0
 21 25  1  0  0  0  0
 21 26  1  0  0  0  0
 29 34  1  0  0  0  0
  8 13  1  0  0  0  0
 18 24  1  0  0  0  0
 38 40  1  0  0  0  0
  7 12  1  0  0  0  0
 28 33  1  0  0  0  0
 17 23  1  0  0  0  0
 22 27  1  0  0  0  0
M  END
$$$$

  -OEChem-05262214473D

 43 42  0     1  0  0  0  0  0999 V2000
    0.7424   -1.0926    4.5665 C   0  0  0  0  0  0  0  0  0  0  0  0
    0.1409   -0.5364    5.4779 O   0  0  0  0  0  0  0  0  0  0  0  0
    1.7940   -2.1023    4.8871 C   0  0  0  0  0  0  0  0  0  0  0  0
    2.7935   -1.6502    4.9904 H   0  0  0  0  0  0  0  0  0  0  0  0
    1.6064   -2.6156    5.8438 H   0  0  0  0  0  0  0  0  0  0  0  0
    1.9156   -2.9078    4.1453 H   0  0  0  0  0  0  0  0  0  0  0  0
    0.5488   -0.8838    3.2109 N   0  0  0  0  0  0  0  0  0  0  0  0
   -0.4159    0.0446    2.6829 C   0  0  2  0  0  0  0  0  0  0  0  0
   -0.7551   -0.3867    1.2623 C   0  0  0  0  0  0  0  0  0  0  0  0
   -0.0106   -1.0851    0.5774 O   0  0  0  0  0  0  0  0  0  0  0  0
    0.1168    1.4689    2.7060 C   0  0  0  0  0  0  0  0  0  0  0  0
    1.1183   -1.4145    2.5542 H   0  0  0  0  0  0  0  0  0  0  0  0
   -1.3088   -0.0350    3.3125 H   0  0  0  0  0  0  0  0  0  0  0  0
    1.0116    1.5681    2.0808 H   0  0  0  0  0  0  0  0  0  0  0  0
   -0.6289    2.1775    2.3307 H   0  0  0  0  0  0  0  0  0  0  0  0
    0.3882    1.7670    3.7245 H   0  0  0  0  0  0  0  0  0  0  0  0
   -1.9689    0.1350    0.8298 N   0  0  0  0  0  0  0  0  0  0  0  0
   -2.5039   -0.1183   -0.4830 C   0  0  2  0  0  0  0  0  0  0  0  0
   -3.9833   -0.4579   -0.3378 C   0  0  0  0  0  0  0  0  0  0  0  0
   -4.5094   -1.4151   -0.9017 O   0  0  0  0  0  0  0  0  0  0  0  0
   -1.7336   -1.2202   -1.2034 C   0  0  0  0  0  0  0  0  0  0  0  0
   -1.9138   -2.4644   -0.5365 O   0  0  0  0  0  0  0  0  0  0  0  0
   -2.5276    0.6894    1.4750 H   0  0  0  0  0  0  0  0  0  0  0  0
   -2.4089    0.8202   -1.0411 H   0  0  0  0  0  0  0  0  0  0  0  0
   -0.6614   -0.9999   -1.2267 H   0  0  0  0  0  0  0  0  0  0  0  0
   -2.0917   -1.3308   -2.2325 H   0  0  0  0  0  0  0  0  0  0  0  0
   -2.8658   -2.6515   -0.5492 H   0  0  0  0  0  0  0  0  0  0  0  0
   -4.6352    0.4080    0.5289 N   0  0  0  0  0  0  0  0  0  0  0  0
   -6.0358    0.2785    0.8575 C   0  0  2  0  0  0  0  0  0  0  0  0
   -6.3811   -1.2048    0.8684 C   0  0  0  0  0  0  0  0  0  0  0  0
   -5.7240   -2.0510    0.2656 O   0  0  0  0  0  0  0  0  0  0  0  0
   -6.9087    1.0324   -0.1337 C   0  0  0  0  0  0  0  0  0  0  0  0
   -4.1099    1.1496    0.9825 H   0  0  0  0  0  0  0  0  0  0  0  0
   -6.1640    0.6914    1.8640 H   0  0  0  0  0  0  0  0  0  0  0  0
   -6.7937    0.6329   -1.1478 H   0  0  0  0  0  0  0  0  0  0  0  0
   -7.9680    0.9570    0.1331 H   0  0  0  0  0  0  0  0  0  0  0  0
   -6.6389    2.0937   -0.1620 H   0  0  0  0  0  0  0  0  0  0  0  0
   -7.5340   -1.4669    1.5952 N   0  0  0  0  0  0  0  0  0  0  0  0
   -8.0760   -2.7973    1.7445 C   0  0  0  0  0  0  0  0  0  0  0  0
   -8.0040   -0.7068    2.0779 H   0  0  0  0  0  0  0  0  0  0  0  0
   -8.8177   -2.9826    0.9536 H   0  0  0  0  0  0  0  0  0  0  0  0
   -7.2638   -3.5349    1.6654 H   0  0  0  0  0  0  0  0  0  0  0  0
   -8.5591   -2.8880    2.7286 H   0  0  0  0  0  0  0  0  0  0  0  0
  1  3  1  0  0  0  0
  1  7  1  0  0  0  0
  1  2  2  0  0  0  0
 29 30  1  0  0  0  0
 30 38  1  0  0  0  0
 30 31  2  0  0  0  0
  8  9  1  0  0  0  0
  9 17  1  0  0  0  0
  9 10  2  0  0  0  0
 18 19  1  0  0  0  0
 19 28  1  0  0  0  0
 19 20  2  0  0  0  0
 29 32  1  0  0  0  0
  8 11  1  0  0  0  0
 38 39  1  0  0  0  0
 18 21  1  0  0  0  0
 21 22  1  0  0  0  0
 28 29  1  0  0  0  0
  7  8  1  0  0  0  0
 17 18  1  0  0  0  0
  3  4  1  0  0  0  0
  3  5  1  0  0  0  0
  3  6  1  0  0  0  0
 32 35  1  0  0  0  0
 32 36  1  0  0  0  0
 32 37  1  0  0  0  0
 11 14  1  0  0  0  0
 11 15  1  0  0  0  0
 11 16  1  0  0  0  0
 39 41  1  0  0  0  0
 39 42  1  0  0  0  0
 39 43  1  0  0  0  0
 21 25  1  0  0  0  0
 21 26  1  0  0  0  0
 29 34  1  0  0  0  0
  8 13  1  0  0  0  0
 18 24  1  0  0  0  0
 38 40  1  0  0  0  0
  7 12  1  0  0  0  0
 28 33  1  0  0  0  0
 17 23  1  0  0  0  0
 22 27  1  0  0  0  0
M  END
$$$$

  -OEChem-05262214473D

 43 42  0     1  0  0  0  0  0999 V2000
    0.7424   -1.0926    4.5665 C   0  0  0  0  0  0  0  0  0  0  0  0
    0.1409   -0.5364    5.4779 O   0  0  0  0  0  0  0  0  0  0  0  0
    1.7940   -2.1023    4.8871 C   0  0  0  0  0  0  0  0  0  0  0  0
    2.7935   -1.6502    4.9904 H   0  0  0  0  0  0  0  0  0  0  0  0
    1.6064   -2.6156    5.8438 H   0  0  0  0  0  0  0  0  0  0  0  0
    1.9156   -2.9078    4.1453 H   0  0  0  0  0  0  0  0  0  0  0  0
    0.5488   -0.8838    3.2109 N   0  0  0  0  0  0  0  0  0  0  0  0
   -0.4159    0.0446    2.6829 C   0  0  2  0  0  0  0  0  0  0  0  0
   -0.7551   -0.3867    1.2623 C   0  0  0  0  0  0  0  0  0  0  0  0
   -0.0106   -1.0851    0.5774 O   0  0  0  0  0  0  0  0  0  0  0  0
    0.1168    1.4689    2.7060 C   0  0  0  0  0  0  0  0  0  0  0  0
    1.1183   -1.4145    2.5542 H   0  0  0  0  0  0  0  0  0  0  0  0
   -1.3088   -0.0350    3.3125 H   0  0  0  0  0  0  0  0  0  0  0  0
    1.0116    1.5681    2.0808 H   0  0  0  0  0  0  0  0  0  0  0  0
   -0.6289    2.1775    2.3307 H   0  0  0  0  0  0  0  0  0  0  0  0
    0.3882    1.7670    3.7245 H   0  0  0  0  0  0  0  0  0  0  0  0
   -1.9689    0.1350    0.8298 N   0  0  0  0  0  0  0  0  0  0  0  0
   -2.5039   -0.1183   -0.4830 C   0  0  2  0  0  0  0  0  0  0  0  0
   -3.9833   -0.4579   -0.3378 C   0  0  0  0  0  0  0  0  0  0  0  0
   -4.4575   -1.5421   -0.6703 O   0  0  0  0  0  0  0  0  0  0  0  0
   -1.7336   -1.2202   -1.2034 C   0  0  0  0  0  0  0  0  0  0  0  0
   -1.9138   -2.4644   -0.5365 O   0  0  0  0  0  0  0  0  0  0  0  0
   -2.5276    0.6894    1.4750 H   0  0  0  0  0  0  0  0  0  0  0  0
   -2.4089    0.8202   -1.0411 H   0  0  0  0  0  0  0  0  0  0  0  0
   -0.6614   -0.9999   -1.2267 H   0  0  0  0  0  0  0  0  0  0  0  0
   -2.0917   -1.3308   -2.2325 H   0  0  0  0  0  0  0  0  0  0  0  0
   -2.8658   -2.6515   -0.5492 H   0  0  0  0  0  0  0  0  0  0  0  0
   -4.7015    0.5761    0.2460 N   0  0  0  0  0  0  0  0  0  0  0  0
   -6.1171    0.4882    0.5198 C   0  0  2  0  0  0  0  0  0  0  0  0
   -6.4367   -0.9554    0.8852 C   0  0  0  0  0  0  0  0  0  0  0  0
   -5.7297   -1.9040    0.5516 O   0  0  0  0  0  0  0  0  0  0  0  0
   -6.9410    0.9416   -0.6753 C   0  0  0  0  0  0  0  0  0  0  0  0
   -4.2176    1.4240    0.5262 H   0  0  0  0  0  0  0  0  0  0  0  0
   -6.3133    1.1356    1.3814 H   0  0  0  0  0  0  0  0  0  0  0  0
   -6.7577    0.3047   -1.5483 H   0  0  0  0  0  0  0  0  0  0  0  0
   -8.0131    0.9015   -0.4562 H   0  0  0  0  0  0  0  0  0  0  0  0
   -6.6884    1.9700   -0.9552 H   0  0  0  0  0  0  0  0  0  0  0  0
   -7.6270   -1.0639    1.5906 N   0  0  0  0  0  0  0  0  0  0  0  0
   -8.1539   -2.3312    2.0404 C   0  0  0  0  0  0  0  0  0  0  0  0
   -8.1385   -0.2225    1.8400 H   0  0  0  0  0  0  0  0  0  0  0  0
   -8.8429   -2.7322    1.2824 H   0  0  0  0  0  0  0  0  0  0  0  0
   -7.3258   -3.0387    2.1939 H   0  0  0  0  0  0  0  0  0  0  0  0
   -8.6943   -2.1880    2.9877 H   0  0  0  0  0  0  0  0  0  0  0  0
  1  3  1  0  0  0  0
  1  7  1  0  0  0  0
  1  2  2  0  0  0  0
 29 30  1  0  0  0  0
 30 38  1  0  0  0  0
 30 31  2  0  0  0  0
  8  9  1  0  0  0  0
  9 17  1  0  0  0  0
  9 10  2  0  0  0  0
 18 19  1  0  0  0  0
 19 28  1  0  0  0  0
 19 20  2  0  0  0  0
 29 32  1  0  0  0  0
  8 11  1  0  0  0  0
 38 39  1  0  0  0  0
 18 21  1  0  0  0  0
 21 22  1  0  0  0  0
 28 29  1  0  0  0  0
  7  8  1  0  0  0  0
 17 18  1  0  0  0  0
  3  4  1  0  0  0  0
  3  5  1  0  0  0  0
  3  6  1  0  0  0  0
 32 35  1  0  0  0  0
 32 36  1  0  0  0  0
 32 37  1  0  0  0  0
 11 14  1  0  0  0  0
 11 15  1  0  0  0  0
 11 16  1  0  0  0  0
 39 41  1  0  0  0  0
 39 42  1  0  0  0  0
 39 43  1  0  0  0  0
 21 25  1  0  0  0  0
 21 26  1  0  0  0  0
 29 34  1  0  0  0  0
  8 13  1  0  0  0  0
 18 24  1  0  0  0  0
 38 40  1  0  0  0  0
  7 12  1  0  0  0  0
 28 33  1  0  0  0  0
 17 23  1  0  0  0  0
 22 27  1  0  0  0  0
M  END
$$$$

  -OEChem-05262214473D

 43 42  0     1  0  0  0  0  0999 V2000
    0.7424   -1.0926    4.5665 C   0  0  0  0  0  0  0  0  0  0  0  0
    0.1409   -0.5364    5.4779 O   0  0  0  0  0  0  0  0  0  0  0  0
    1.7940   -2.1023    4.8871 C   0  0  0  0  0  0  0  0  0  0  0  0
    2.7935   -1.6502    4.9904 H   0  0  0  0  0  0  0  0  0  0  0  0
    1.6064   -2.6156    5.8438 H   0  0  0  0  0  0  0  0  0  0  0  0
    1.9156   -2.9078    4.1453 H   0  0  0  0  0  0  0  0  0  0  0  0
    0.5488   -0.8838    3.2109 N   0  0  0  0  0  0  0  0  0  0  0  0
   -0.4159    0.0446    2.6829 C   0  0  2  0  0  0  0  0  0  0  0  0
   -0.7551   -0.3867    1.2623 C   0  0  0  0  0  0  0  0  0  0  0  0
   -0.0106   -1.0851    0.5774 O   0  0  0  0  0  0  0  0  0  0  0  0
    0.1168    1.4689    2.7060 C   0  0  0  0  0  0  0  0  0  0  0  0
    1.1183   -1.4145    2.5542 H   0  0  0  0  0  0  0  0  0  0  0  0
   -1.3088   -0.0350    3.3125 H   0  0  0  0  0  0  0  0  0  0  0  0
    1.0116    1.5681    2.0808 H   0  0  0  0  0  0  0  0  0  0  0  0
   -0.6289    2.1775    2.3307 H   0  0  0  0  0  0  0  0  0  0  0  0
    0.3882    1.7670    3.7245 H   0  0  0  0  0  0  0  0  0  0  0  0
   -1.9689    0.1350    0.8298 N   0  0  0  0  0  0  0  0  0  0  0  0
   -2.5039   -0.1183   -0.4830 C   0  0  2  0  0  0  0  0  0  0  0  0
   -3.9833   -0.4579   -0.3378 C   0  0  0  0  0  0  0  0  0  0  0  0
   -4.4176   -1.6055   -0.4119 O   0  0  0  0  0  0  0  0  0  0  0  0
   -1.7336   -1.2202   -1.2034 C   0  0  0  0  0  0  0  0  0  0  0  0
   -1.9138   -2.4644   -0.5365 O   0  0  0  0  0  0  0  0  0  0  0  0
   -2.5276    0.6894    1.4750 H   0  0  0  0  0  0  0  0  0  0  0  0
   -2.4089    0.8202   -1.0411 H   0  0  0  0  0  0  0  0  0  0  0  0
   -0.6614   -0.9999   -1.2267 H   0  0  0  0  0  0  0  0  0  0  0  0
   -2.0917   -1.3308   -2.2325 H   0  0  0  0  0  0  0  0  0  0  0  0
   -2.8658   -2.6515   -0.5492 H   0  0  0  0  0  0  0  0  0  0  0  0
   -4.7534    0.6658   -0.0732 N   0  0  0  0  0  0  0  0  0  0  0  0
   -6.1813    0.6040    0.1364 C   0  0  2  0  0  0  0  0  0  0  0  0
   -6.4975   -0.7116    0.8355 C   0  0  0  0  0  0  0  0  0  0  0  0
   -5.7553   -1.6904    0.7906 O   0  0  0  0  0  0  0  0  0  0  0  0
   -6.9388    0.7171   -1.1775 C   0  0  0  0  0  0  0  0  0  0  0  0
   -4.3022    1.5719    0.0104 H   0  0  0  0  0  0  0  0  0  0  0  0
   -6.4407    1.4399    0.7951 H   0  0  0  0  0  0  0  0  0  0  0  0
   -6.6917   -0.1119   -1.8507 H   0  0  0  0  0  0  0  0  0  0  0  0
   -8.0214    0.6988   -1.0141 H   0  0  0  0  0  0  0  0  0  0  0  0
   -6.6874    1.6502   -1.6932 H   0  0  0  0  0  0  0  0  0  0  0  0
   -7.7264   -0.6781    1.4795 N   0  0  0  0  0  0  0  0  0  0  0  0
   -8.2577   -1.8086    2.2046 C   0  0  0  0  0  0  0  0  0  0  0  0
   -8.2667    0.1821    1.4808 H   0  0  0  0  0  0  0  0  0  0  0  0
   -8.8923   -2.4085    1.5357 H   0  0  0  0  0  0  0  0  0  0  0  0
   -7.4284   -2.4282    2.5763 H   0  0  0  0  0  0  0  0  0  0  0  0
   -8.8571   -1.4501    3.0544 H   0  0  0  0  0  0  0  0  0  0  0  0
  1  3  1  0  0  0  0
  1  7  1  0  0  0  0
  1  2  2  0  0  0  0
 29 30  1  0  0  0  0
 30 38  1  0  0  0  0
 30 31  2  0  0  0  0
  8  9  1  0  0  0  0
  9 17  1  0  0  0  0
  9 10  2  0  0  0  0
 18 19  1  0  0  0  0
 19 28  1  0  0  0  0
 19 20  2  0  0  0  0
 29 32  1  0  0  0  0
  8 11  1  0  0  0  0
 38 39  1  0  0  0  0
 18 21  1  0  0  0  0
 21 22  1  0  0  0  0
 28 29  1  0  0  0  0
  7  8  1  0  0  0  0
 17 18  1  0  0  0  0
  3  4  1  0  0  0  0
  3  5  1  0  0  0  0
  3  6  1  0  0  0  0
 32 35  1  0  0  0  0
 32 36  1  0  0  0  0
 32 37  1  0  0  0  0
 11 14  1  0  0  0  0
 11 15  1  0  0  0  0
 11 16  1  0  0  0  0
 39 41  1  0  0  0  0
 39 42  1  0  0  0  0
 39 43  1  0  0  0  0
 21 25  1  0  0  0  0
 21 26  1  0  0  0  0
 29 34  1  0  0  0  0
  8 13  1  0  0  0  0
 18 24  1  0  0  0  0
 38 40  1  0  0  0  0
  7 12  1  0  0  0  0
 28 33  1  0  0  0  0
 17 23  1  0  0  0  0
 22 27  1  0  0  0  0
M  END
$$$$

  -OEChem-05262214473D

 43 42  0     1  0  0  0  0  0999 V2000
    0.7424   -1.0926    4.5665 C   0  0  0  0  0  0  0  0  0  0  0  0
    0.1409   -0.5364    5.4779 O   0  0  0  0  0  0  0  0  0  0  0  0
    1.7940   -2.1023    4.8871 C   0  0  0  0  0  0  0  0  0  0  0  0
    2.7935   -1.6502    4.9904 H   0  0  0  0  0  0  0  0  0  0  0  0
    1.6064   -2.6156    5.8438 H   0  0  0  0  0  0  0  0  0  0  0  0
    1.9156   -2.9078    4.1453 H   0  0  0  0  0  0  0  0  0  0  0  0
    0.5488   -0.8838    3.2109 N   0  0  0  0  0  0  0  0  0  0  0  0
   -0.4159    0.0446    2.6829 C   0  0  2  0  0  0  0  0  0  0  0  0
   -0.7551   -0.3867    1.2623 C   0  0  0  0  0  0  0  0  0  0  0  0
   -0.0106   -1.0851    0.5774 O   0  0  0  0  0  0  0  0  0  0  0  0
    0.1168    1.4689    2.7060 C   0  0  0  0  0  0  0  0  0  0  0  0
    1.1183   -1.4145    2.5542 H   0  0  0  0  0  0  0  0  0  0  0  0
   -1.3088   -0.0350    3.3125 H   0  0  0  0  0  0  0  0  0  0  0  0
    1.0116    1.5681    2.0808 H   0  0  0  0  0  0  0  0  0  0  0  0
   -0.6289    2.1775    2.3307 H   0  0  0  0  0  0  0  0  0  0  0  0
    0.3882    1.7670    3.7245 H   0  0  0  0  0  0  0  0  0  0  0  0
   -1.9689    0.1350    0.8298 N   0  0  0  0  0  0  0  0  0  0  0  0
   -2.5039   -0.1183   -0.4830 C   0  0  2  0  0  0  0  0  0  0  0  0
   -3.9833   -0.4579   -0.3378 C   0  0  0  0  0  0  0  0  0  0  0  0
   -4.3924   -1.6008   -0.1440 O   0  0  0  0  0  0  0  0  0  0  0  0
   -1.7336   -1.2202   -1.2034 C   0  0  0  0  0  0  0  0  0  0  0  0
   -1.9138   -2.4644   -0.5365 O   0  0  0  0  0  0  0  0  0  0  0  0
   -2.5276    0.6894    1.4750 H   0  0  0  0  0  0  0  0  0  0  0  0
   -2.4089    0.8202   -1.0411 H   0  0  0  0  0  0  0  0  0  0  0  0
   -0.6614   -0.9999   -1.2267 H   0  0  0  0  0  0  0  0  0  0  0  0
   -2.0917   -1.3308   -2.2325 H   0  0  0  0  0  0  0  0  0  0  0  0
   -2.8658   -2.6515   -0.5492 H   0  0  0  0  0  0  0  0  0  0  0  0
   -4.7874    0.6710   -0.4071 N   0  0  0  0  0  0  0  0  0  0  0  0
   -6.2241    0.6180   -0.2668 C   0  0  2  0  0  0  0  0  0  0  0  0
   -6.5594   -0.4901    0.7228 C   0  0  0  0  0  0  0  0  0  0  0  0
   -5.7990   -1.4247    0.9663 O   0  0  0  0  0  0  0  0  0  0  0  0
   -6.9022    0.3742   -1.6061 C   0  0  0  0  0  0  0  0  0  0  0  0
   -4.3578    1.5832   -0.5299 H   0  0  0  0  0  0  0  0  0  0  0  0
   -6.5375    1.5835    0.1450 H   0  0  0  0  0  0  0  0  0  0  0  0
   -6.6003   -0.5886   -2.0343 H   0  0  0  0  0  0  0  0  0  0  0  0
   -7.9922    0.3628   -1.5026 H   0  0  0  0  0  0  0  0  0  0  0  0
   -6.6361    1.1560   -2.3256 H   0  0  0  0  0  0  0  0  0  0  0  0
   -7.8256   -0.3357    1.2697 N   0  0  0  0  0  0  0  0  0  0  0  0
   -8.3804   -1.2651    2.2260 C   0  0  0  0  0  0  0  0  0  0  0  0
   -8.3797    0.4796    1.0248 H   0  0  0  0  0  0  0  0  0  0  0  0
   -8.9627   -2.0333    1.6962 H   0  0  0  0  0  0  0  0  0  0  0  0
   -7.5646   -1.7450    2.7864 H   0  0  0  0  0  0  0  0  0  0  0  0
   -9.0364   -0.7246    2.9242 H   0  0  0  0  0  0  0  0  0  0  0  0
  1  3  1  0  0  0  0
  1  7  1  0  0  0  0
  1  2  2  0  0  0  0
 29 30  1  0  0  0  0
 30 38  1  0  0  0  0
 30 31  2  0  0  0  0
  8  9  1  0  0  0  0
  9 17  1  0  0  0  0
  9 10  2  0  0  0  0
 18 19  1  0  0  0  0
 19 28  1  0  0  0  0
 19 20  2  0  0  0  0
 29 32  1  0  0  0  0
  8 11  1  0  0  0  0
 38 39  1  0  0  0  0
 18 21  1  0  0  0  0
 21 22  1  0  0  0  0
 28 29  1  0  0  0  0
  7  8  1  0  0  0  0
 17 18  1  0  0  0  0
  3  4  1  0  0  0  0
  3  5  1  0  0  0  0
  3  6  1  0  0  0  0
 32 35  1  0  0  0  0
 32 36  1  0  0  0  0
 32 37  1  0  0  0  0
 11 14  1  0  0  0  0
 11 15  1  0  0  0  0
 11 16  1  0  0  0  0
 39 41  1  0  0  0  0
 39 42  1  0  0  0  0
 39 43  1  0  0  0  0
 21 25  1  0  0  0  0
 21 26  1  0  0  0  0
 29 34  1  0  0  0  0
  8 13  1  0  0  0  0
 18 24  1  0  0  0  0
 38 40  1  0  0  0  0
  7 12  1  0  0  0  0
 28 33  1  0  0  0  0
 17 23  1  0  0  0  0
 22 27  1  0  0  0  0
M  END
$$$$

  -OEChem-05262214473D

 43 42  0     1  0  0  0  0  0999 V2000
    0.7424   -1.0926    4.5665 C   0  0  0  0  0  0  0  0  0  0  0  0
    0.1409   -0.5364    5.4779 O   0  0  0  0  0  0  0  0  0  0  0  0
    1.7940   -2.1023    4.8871 C   0  0  0  0  0  0  0  0  0  0  0  0
    2.7935   -1.6502    4.9904 H   0  0  0  0  0  0  0  0  0  0  0  0
    1.6064   -2.6156    5.8438 H   0  0  0  0  0  0  0  0  0  0  0  0
    1.9156   -2.9078    4.1453 H   0  0  0  0  0  0  0  0  0  0  0  0
    0.5488   -0.8838    3.2109 N   0  0  0  0  0  0  0  0  0  0  0  0
   -0.4159    0.0446    2.6829 C   0  0  2  0  0  0  0  0  0  0  0  0
   -0.7551   -0.3867    1.2623 C   0  0  0  0  0  0  0  0  0  0  0  0
   -0.0106   -1.0851    0.5774 O   0  0  0  0  0  0  0  0  0  0  0  0
    0.1168    1.4689    2.7060 C   0  0  0  0  0  0  0  0  0  0  0  0
    1.1183   -1.4145    2.5542 H   0  0  0  0  0  0  0  0  0  0  0  0
   -1.3088   -0.0350    3.3125 H   0  0  0  0  0  0  0  0  0  0  0  0
    1.0116    1.5681    2.0808 H   0  0  0  0  0  0  0  0  0  0  0  0
   -0.6289    2.1775    2.3307 H   0  0  0  0  0  0  0  0  0  0  0  0
    0.3882    1.7670    3.7245 H   0  0  0  0  0  0  0  0  0  0  0  0
   -1.9689    0.1350    0.8298 N   0  0  0  0  0  0  0  0  0  0  0  0
   -2.5039   -0.1183   -0.4830 C   0  0  2  0  0  0  0  0  0  0  0  0
   -3.9833   -0.4579   -0.3378 C   0  0  0  0  0  0  0  0  0  0  0  0
   -4.3836   -1.5283    0.1150 O   0  0  0  0  0  0  0  0  0  0  0  0
   -1.7336   -1.2202   -1.2034 C   0  0  0  0  0  0  0  0  0  0  0  0
   -1.9138   -2.4644   -0.5365 O   0  0  0  0  0  0  0  0  0  0  0  0
   -2.5276    0.6894    1.4750 H   0  0  0  0  0  0  0  0  0  0  0  0
   -2.4089    0.8202   -1.0411 H   0  0  0  0  0  0  0  0  0  0  0  0
   -0.6614   -0.9999   -1.2267 H   0  0  0  0  0  0  0  0  0  0  0  0
   -2.0917   -1.3308   -2.2325 H   0  0  0  0  0  0  0  0  0  0  0  0
   -2.8658   -2.6515   -0.5492 H   0  0  0  0  0  0  0  0  0  0  0  0
   -4.8011    0.5913   -0.7328 N   0  0  0  0  0  0  0  0  0  0  0  0
   -6.2425    0.5292   -0.6623 C   0  0  2  0  0  0  0  0  0  0  0  0
   -6.6182   -0.3059    0.5547 C   0  0  0  0  0  0  0  0  0  0  0  0
   -5.8579   -1.1249    1.0668 O   0  0  0  0  0  0  0  0  0  0  0  0
   -6.8336   -0.0637   -1.9318 C   0  0  0  0  0  0  0  0  0  0  0  0
   -4.3807    1.4570   -1.0579 H   0  0  0  0  0  0  0  0  0  0  0  0
   -6.5970    1.5565   -0.5245 H   0  0  0  0  0  0  0  0  0  0  0  0
   -6.4897   -1.0929   -2.0867 H   0  0  0  0  0  0  0  0  0  0  0  0
   -7.9276   -0.0838   -1.8884 H   0  0  0  0  0  0  0  0  0  0  0  0
   -6.5379    0.5211   -2.8095 H   0  0  0  0  0  0  0  0  0  0  0  0
   -7.9178   -0.0602    0.9753 N   0  0  0  0  0  0  0  0  0  0  0  0
   -8.5135   -0.7377    2.1031 C   0  0  0  0  0  0  0  0  0  0  0  0
   -8.4700    0.6497    0.5032 H   0  0  0  0  0  0  0  0  0  0  0  0
   -9.0491   -1.6324    1.7529 H   0  0  0  0  0  0  0  0  0  0  0  0
   -7.7250   -1.0357    2.8099 H   0  0  0  0  0  0  0  0  0  0  0  0
   -9.2200   -0.0609    2.6059 H   0  0  0  0  0  0  0  0  0  0  0  0
  1  3  1  0  0  0  0
  1  7  1  0  0  0  0
  1  2  2  0  0  0  0
 29 30  1  0  0  0  0
 30 38  1  0  0  0  0
 30 31  2  0  0  0  0
  8  9  1  0  0  0  0
  9 17  1  0  0  0  0
  9 10  2  0  0  0  0
 18 19  1  0  0  0  0
 19 28  1  0  0  0  0
 19 20  2  0  0  0  0
 29 32  1  0  0  0  0
  8 11  1  0  0  0  0
 38 39  1  0  0  0  0
 18 21  1  0  0  0  0
 21 22  1  0  0  0  0
 28 29  1  0  0  0  0
  7  8  1  0  0  0  0
 17 18  1  0  0  0  0
  3  4  1  0  0  0  0
  3  5  1  0  0  0  0
  3  6  1  0  0  0  0
 32 35  1  0  0  0  0
 32 36  1  0  0  0  0
 32 37  1  0  0  0  0
 11 14  1  0  0  0  0
 11 15  1  0  0  0  0
 11 16  1  0  0  0  0
 39 41  1  0  0  0  0
 39 42  1  0  0  0  0
 39 43  1  0  0  0  0
 21 25  1  0  0  0  0
 21 26  1  0  0  0  0
 29 34  1  0  0  0  0
  8 13  1  0  0  0  0
 18 24  1  0  0  0  0
 38 40  1  0  0  0  0
  7 12  1  0  0  0  0
 28 33  1  0  0  0  0
 17 23  1  0  0  0  0
 22 27  1  0  0  0  0
M  END
$$$$

  -OEChem-05262214473D

 43 42  0     1  0  0  0  0  0999 V2000
    0.7424   -1.0926    4.5665 C   0  0  0  0  0  0  0  0  0  0  0  0
    0.1409   -0.5364    5.4779 O   0  0  0  0  0  0  0  0  0  0  0  0
    1.7940   -2.1023    4.8871 C   0  0  0  0  0  0  0  0  0  0  0  0
    2.7935   -1.6502    4.9904 H   0  0  0  0  0  0  0  0  0  0  0  0
    1.6064   -2.6156    5.8438 H   0  0  0  0  0  0  0  0  0  0  0  0
    1.9156   -2.9078    4.1453 H   0  0  0  0  0  0  0  0  0  0  0  0
    0.5488   -0.8838    3.2109 N   0  0  0  0  0  0  0  0  0  0  0  0
   -0.4159    0.0446    2.6829 C   0  0  2  0  0  0  0  0  0  0  0  0
   -0.7551   -0.3867    1.2623 C   0  0  0  0  0  0  0  0  0  0  0  0
   -0.0106   -1.0851    0.5774 O   0  0  0  0  0  0  0  0  0  0  0  0
    0.1168    1.4689    2.7060 C   0  0  0  0  0  0  0  0  0  0  0  0
    1.1183   -1.4145    2.5542 H   0  0  0  0  0  0  0  0  0  0  0  0
   -1.3088   -0.0350    3.3125 H   0  0  0  0  0  0  0  0  0  0  0  0
    1.0116    1.5681    2.0808 H   0  0  0  0  0  0  0  0  0  0  0  0
   -0.6289    2.1775    2.3307 H   0  0  0  0  0  0  0  0  0  0  0  0
    0.3882    1.7670    3.7245 H   0  0  0  0  0  0  0  0  0  0  0  0
   -1.9689    0.1350    0.8298 N   0  0  0  0  0  0  0  0  0  0  0  0
   -2.5039   -0.1183   -0.4830 C   0  0  2  0  0  0  0  0  0  0  0  0
   -3.9833   -0.4579   -0.3378 C   0  0  0  0  0  0  0  0  0  0  0  0
   -4.3918   -1.3931    0.3474 O   0  0  0  0  0  0  0  0  0  0  0  0
   -1.7336   -1.2202   -1.2034 C   0  0  0  0  0  0  0  0  0  0  0  0
   -1.9138   -2.4644   -0.5365 O   0  0  0  0  0  0  0  0  0  0  0  0
   -2.5276    0.6894    1.4750 H   0  0  0  0  0  0  0  0  0  0  0  0
   -2.4089    0.8202   -1.0411 H   0  0  0  0  0  0  0  0  0  0  0  0
   -0.6614   -0.9999   -1.2267 H   0  0  0  0  0  0  0  0  0  0  0  0
   -2.0917   -1.3308   -2.2325 H   0  0  0  0  0  0  0  0  0  0  0  0
   -2.8658   -2.6515   -0.5492 H   0  0  0  0  0  0  0  0  0  0  0  0
   -4.7936    0.4323   -1.0283 N   0  0  0  0  0  0  0  0  0  0  0  0
   -6.2353    0.3436   -1.0230 C   0  0  2  0  0  0  0  0  0  0  0  0
   -6.6698   -0.1717    0.3427 C   0  0  0  0  0  0  0  0  0  0  0  0
   -5.9280   -0.8116    1.0853 O   0  0  0  0  0  0  0  0  0  0  0  0
   -6.7379   -0.5669   -2.1326 C   0  0  0  0  0  0  0  0  0  0  0  0
   -4.3692    1.2019   -1.5374 H   0  0  0  0  0  0  0  0  0  0  0  0
   -6.6153    1.3608   -1.1679 H   0  0  0  0  0  0  0  0  0  0  0  0
   -6.3674   -1.5905   -2.0043 H   0  0  0  0  0  0  0  0  0  0  0  0
   -7.8319   -0.6104   -2.1451 H   0  0  0  0  0  0  0  0  0  0  0  0
   -6.3994   -0.2113   -3.1118 H   0  0  0  0  0  0  0  0  0  0  0  0
   -7.9966    0.1298    0.6164 N   0  0  0  0  0  0  0  0  0  0  0  0
   -8.6479   -0.2625    1.8444 C   0  0  0  0  0  0  0  0  0  0  0  0
   -8.5312    0.6808   -0.0486 H   0  0  0  0  0  0  0  0  0  0  0  0
   -9.1458   -1.2331    1.7021 H   0  0  0  0  0  0  0  0  0  0  0  0
   -7.8989   -0.3486    2.6453 H   0  0  0  0  0  0  0  0  0  0  0  0
   -9.3953    0.4957    2.1212 H   0  0  0  0  0  0  0  0  0  0  0  0
  1  3  1  0  0  0  0
  1  7  1  0  0  0  0
  1  2  2  0  0  0  0
 29 30  1  0  0  0  0
 30 38  1  0  0  0  0
 30 31  2  0  0  0  0
  8  9  1  0  0  0  0
  9 17  1  0  0  0  0
  9 10  2  0  0  0  0
 18 19  1  0  0  0  0
 19 28  1  0  0  0  0
 19 20  2  0  0  0  0
 29 32  1  0  0  0  0
  8 11  1  0  0  0  0
 38 39  1  0  0  0  0
 18 21  1  0  0  0  0
 21 22  1  0  0  0  0
 28 29  1  0  0  0  0
  7  8  1  0  0  0  0
 17 18  1  0  0  0  0
  3  4  1  0  0  0  0
  3  5  1  0  0  0  0
  3  6  1  0  0  0  0
 32 35  1  0  0  0  0
 32 36  1  0  0  0  0
 32 37  1  0  0  0  0
 11 14  1  0  0  0  0
 11 15  1  0  0  0  0
 11 16  1  0  0  0  0
 39 41  1  0  0  0  0
 39 42  1  0  0  0  0
 39 43  1  0  0  0  0
 21 25  1  0  0  0  0
 21 26  1  0  0  0  0
 29 34  1  0  0  0  0
  8 13  1  0  0  0  0
 18 24  1  0  0  0  0
 38 40  1  0  0  0  0
  7 12  1  0  0  0  0
 28 33  1  0  0  0  0
 17 23  1  0  0  0  0
 22 27  1  0  0  0  0
M  END
$$$$

  -OEChem-05262214473D

 43 42  0     1  0  0  0  0  0999 V2000
    0.7424   -1.0926    4.5665 C   0  0  0  0  0  0  0  0  0  0  0  0
    0.1409   -0.5364    5.4779 O   0  0  0  0  0  0  0  0  0  0  0  0
    1.7940   -2.1023    4.8871 C   0  0  0  0  0  0  0  0  0  0  0  0
    2.7935   -1.6502    4.9904 H   0  0  0  0  0  0  0  0  0  0  0  0
    1.6064   -2.6156    5.8438 H   0  0  0  0  0  0  0  0  0  0  0  0
    1.9156   -2.9078    4.1453 H   0  0  0  0  0  0  0  0  0  0  0  0
    0.5488   -0.8838    3.2109 N   0  0  0  0  0  0  0  0  0  0  0  0
   -0.4159    0.0446    2.6829 C   0  0  2  0  0  0  0  0  0  0  0  0
   -0.7551   -0.3867    1.2623 C   0  0  0  0  0  0  0  0  0  0  0  0
   -0.0106   -1.0851    0.5774 O   0  0  0  0  0  0  0  0  0  0  0  0
    0.1168    1.4689    2.7060 C   0  0  0  0  0  0  0  0  0  0  0  0
    1.1183   -1.4145    2.5542 H   0  0  0  0  0  0  0  0  0  0  0  0
   -1.3088   -0.0350    3.3125 H   0  0  0  0  0  0  0  0  0  0  0  0
    1.0116    1.5681    2.0808 H   0  0  0  0  0  0  0  0  0  0  0  0
   -0.6289    2.1775    2.3307 H   0  0  0  0  0  0  0  0  0  0  0  0
    0.3882    1.7670    3.7245 H   0  0  0  0  0  0  0  0  0  0  0  0
   -1.9689    0.1350    0.8298 N   0  0  0  0  0  0  0  0  0  0  0  0
   -2.5039   -0.1183   -0.4830 C   0  0  2  0  0  0  0  0  0  0  0  0
   -3.9833   -0.4579   -0.3378 C   0  0  0  0  0  0  0  0  0  0  0  0
   -4.4165   -1.2043    0.5376 O   0  0  0  0  0  0  0  0  0  0  0  0
   -1.7336   -1.2202   -1.2034 C   0  0  0  0  0  0  0  0  0  0  0  0
   -1.9138   -2.4644   -0.5365 O   0  0  0  0  0  0  0  0  0  0  0  0
   -2.5276    0.6894    1.4750 H   0  0  0  0  0  0  0  0  0  0  0  0
   -2.4089    0.8202   -1.0411 H   0  0  0  0  0  0  0  0  0  0  0  0
   -0.6614   -0.9999   -1.2267 H   0  0  0  0  0  0  0  0  0  0  0  0
   -2.0917   -1.3308   -2.2325 H   0  0  0  0  0  0  0  0  0  0  0  0
   -2.8658   -2.6515   -0.5492 H   0  0  0  0  0  0  0  0  0  0  0  0
   -4.7654    0.2046   -1.2733 N   0  0  0  0  0  0  0  0  0  0  0  0
   -6.2031    0.0740   -1.3244 C   0  0  2  0  0  0  0  0  0  0  0  0
   -6.7107   -0.0966    0.1013 C   0  0  0  0  0  0  0  0  0  0  0  0
   -6.0045   -0.5061    1.0203 O   0  0  0  0  0  0  0  0  0  0  0  0
   -6.6214   -1.1009   -2.1946 C   0  0  0  0  0  0  0  0  0  0  0  0
   -4.3242    0.8354   -1.9360 H   0  0  0  0  0  0  0  0  0  0  0  0
   -6.5910    1.0098   -1.7413 H   0  0  0  0  0  0  0  0  0  0  0  0
   -6.2418   -2.0474   -1.7927 H   0  0  0  0  0  0  0  0  0  0  0  0
   -7.7117   -1.1812   -2.2554 H   0  0  0  0  0  0  0  0  0  0  0  0
   -6.2303   -0.9912   -3.2118 H   0  0  0  0  0  0  0  0  0  0  0  0
   -8.0567    0.2212    0.2175 N   0  0  0  0  0  0  0  0  0  0  0  0
   -8.7746    0.1282    1.4673 C   0  0  0  0  0  0  0  0  0  0  0  0
   -8.5594    0.5707   -0.5929 H   0  0  0  0  0  0  0  0  0  0  0  0
   -9.2460   -0.8624    1.5472 H   0  0  0  0  0  0  0  0  0  0  0  0
   -8.0743    0.2694    2.3037 H   0  0  0  0  0  0  0  0  0  0  0  0
   -9.5504    0.9072    1.5032 H   0  0  0  0  0  0  0  0  0  0  0  0
  1  3  1  0  0  0  0
  1  7  1  0  0  0  0
  1  2  2  0  0  0  0
 29 30  1  0  0  0  0
 30 38  1  0  0  0  0
 30 31  2  0  0  0  0
  8  9  1  0  0  0  0
  9 17  1  0  0  0  0
  9 10  2  0  0  0  0
 18 19  1  0  0  0  0
 19 28  1  0  0  0  0
 19 20  2  0  0  0  0
 29 32  1  0  0  0  0
  8 11  1  0  0  0  0
 38 39  1  0  0  0  0
 18 21  1  0  0  0  0
 21 22  1  0  0  0  0
 28 29  1  0  0  0  0
  7  8  1  0  0  0  0
 17 18  1  0  0  0  0
  3  4  1  0  0  0  0
  3  5  1  0  0  0  0
  3  6  1  0  0  0  0
 32 35  1  0  0  0  0
 32 36  1  0  0  0  0
 32 37  1  0  0  0  0
 11 14  1  0  0  0  0
 11 15  1  0  0  0  0
 11 16  1  0  0  0  0
 39 41  1  0  0  0  0
 39 42  1  0  0  0  0
 39 43  1  0  0  0  0
 21 25  1  0  0  0  0
 21 26  1  0  0  0  0
 29 34  1  0  0  0  0
  8 13  1  0  0  0  0
 18 24  1  0  0  0  0
 38 40  1  0  0  0  0
  7 12  1  0  0  0  0
 28 33  1  0  0  0  0
 17 23  1  0  0  0  0
 22 27  1  0  0  0  0
M  END
$$$$

  -OEChem-05262214473D

 43 42  0     1  0  0  0  0  0999 V2000
    0.7424   -1.0926    4.5665 C   0  0  0  0  0  0  0  0  0  0  0  0
    0.1409   -0.5364    5.4779 O   0  0  0  0  0  0  0  0  0  0  0  0
    1.7940   -2.1023    4.8871 C   0  0  0  0  0  0  0  0  0  0  0  0
    2.7935   -1.6502    4.9904 H   0  0  0  0  0  0  0  0  0  0  0  0
    1.6064   -2.6156    5.8438 H   0  0  0  0  0  0  0  0  0  0  0  0
    1.9156   -2.9078    4.1453 H   0  0  0  0  0  0  0  0  0  0  0  0
    0.5488   -0.8838    3.2109 N   0  0  0  0  0  0  0  0  0  0  0  0
   -0.4159    0.0446    2.6829 C   0  0  2  0  0  0  0  0  0  0  0  0
   -0.7551   -0.3867    1.2623 C   0  0  0  0  0  0  0  0  0  0  0  0
   -0.0106   -1.0851    0.5774 O   0  0  0  0  0  0  0  0  0  0  0  0
    0.1168    1.4689    2.7060 C   0  0  0  0  0  0  0  0  0  0  0  0
    1.1183   -1.4145    2.5542 H   0  0  0  0  0  0  0  0  0  0  0  0
   -1.3088   -0.0350    3.3125 H   0  0  0  0  0  0  0  0  0  0  0  0
    1.0116    1.5681    2.0808 H   0  0  0  0  0  0  0  0  0  0  0  0
   -0.6289    2.1775    2.3307 H   0  0  0  0  0  0  0  0  0  0  0  0
    0.3882    1.7670    3.7245 H   0  0  0  0  0  0  0  0  0  0  0  0
   -1.9689    0.1350    0.8298 N   0  0  0  0  0  0  0  0  0  0  0  0
   -2.5039   -0.1183   -0.4830 C   0  0  2  0  0  0  0  0  0  0  0  0
   -3.9833   -0.4579   -0.3378 C   0  0  0  0  0  0  0  0  0  0  0  0
   -4.4559   -0.9748    0.6724 O   0  0  0  0  0  0  0  0  0  0  0  0
   -1.7336   -1.2202   -1.2034 C   0  0  0  0  0  0  0  0  0  0  0  0
   -1.9138   -2.4644   -0.5365 O   0  0  0  0  0  0  0  0  0  0  0  0
   -2.5276    0.6894    1.4750 H   0  0  0  0  0  0  0  0  0  0  0  0
   -2.4089    0.8202   -1.0411 H   0  0  0  0  0  0  0  0  0  0  0  0
   -0.6614   -0.9999   -1.2267 H   0  0  0  0  0  0  0  0  0  0  0  0
   -2.0917   -1.3308   -2.2325 H   0  0  0  0  0  0  0  0  0  0  0  0
   -2.8658   -2.6515   -0.5492 H   0  0  0  0  0  0  0  0  0  0  0  0
   -4.7184   -0.0761   -1.4512 N   0  0  0  0  0  0  0  0  0  0  0  0
   -6.1478   -0.2613   -1.5460 C   0  0  2  0  0  0  0  0  0  0  0  0
   -6.7382   -0.0857   -0.1531 C   0  0  0  0  0  0  0  0  0  0  0  0
   -6.0822   -0.2292    0.8765 O   0  0  0  0  0  0  0  0  0  0  0  0
   -6.4921   -1.6295   -2.1137 C   0  0  0  0  0  0  0  0  0  0  0  0
   -4.2488    0.3825   -2.2263 H   0  0  0  0  0  0  0  0  0  0  0  0
   -6.5258    0.5274   -2.2056 H   0  0  0  0  0  0  0  0  0  0  0  0
   -6.1214   -2.4325   -1.4663 H   0  0  0  0  0  0  0  0  0  0  0  0
   -7.5752   -1.7573   -2.2116 H   0  0  0  0  0  0  0  0  0  0  0  0
   -6.0419   -1.7655   -3.1029 H   0  0  0  0  0  0  0  0  0  0  0  0
   -8.0941    0.2078   -0.1942 N   0  0  0  0  0  0  0  0  0  0  0  0
   -8.8849    0.4078    0.9977 C   0  0  0  0  0  0  0  0  0  0  0  0
   -8.5525    0.3270   -1.0927 H   0  0  0  0  0  0  0  0  0  0  0  0
   -9.3431   -0.5458    1.2987 H   0  0  0  0  0  0  0  0  0  0  0  0
   -8.2392    0.7763    1.8085 H   0  0  0  0  0  0  0  0  0  0  0  0
   -9.6748    1.1458    0.7939 H   0  0  0  0  0  0  0  0  0  0  0  0
  1  3  1  0  0  0  0
  1  7  1  0  0  0  0
  1  2  2  0  0  0  0
 29 30  1  0  0  0  0
 30 38  1  0  0  0  0
 30 31  2  0  0  0  0
  8  9  1  0  0  0  0
  9 17  1  0  0  0  0
  9 10  2  0  0  0  0
 18 19  1  0  0  0  0
 19 28  1  0  0  0  0
 19 20  2  0  0  0  0
 29 32  1  0  0  0  0
  8 11  1  0  0  0  0
 38 39  1  0  0  0  0
 18 21  1  0  0  0  0
 21 22  1  0  0  0  0
 28 29  1  0  0  0  0
  7  8  1  0  0  0  0
 17 18  1  0  0  0  0
  3  4  1  0  0  0  0
  3  5  1  0  0  0  0
  3  6  1  0  0  0  0
 32 35  1  0  0  0  0
 32 36  1  0  0  0  0
 32 37  1  0  0  0  0
 11 14  1  0  0  0  0
 11 15  1  0  0  0  0
 11 16  1  0  0  0  0
 39 41  1  0  0  0  0
 39 42  1  0  0  0  0
 39 43  1  0  0  0  0
 21 25  1  0  0  0  0
 21 26  1  0  0  0  0
 29 34  1  0  0  0  0
  8 13  1  0  0  0  0
 18 24  1  0  0  0  0
 38 40  1  0  0  0  0
  7 12  1  0  0  0  0
 28 33  1  0  0  0  0
 17 23  1  0  0  0  0
 22 27  1  0  0  0  0
M  END
$$$$

  -OEChem-05262214473D

 43 42  0     1  0  0  0  0  0999 V2000
    0.7424   -1.0926    4.5665 C   0  0  0  0  0  0  0  0  0  0  0  0
    0.1409   -0.5364    5.4779 O   0  0  0  0  0  0  0  0  0  0  0  0
    1.7940   -2.1023    4.8871 C   0  0  0  0  0  0  0  0  0  0  0  0
    2.7935   -1.6502    4.9904 H   0  0  0  0  0  0  0  0  0  0  0  0
    1.6064   -2.6156    5.8438 H   0  0  0  0  0  0  0  0  0  0  0  0
    1.9156   -2.9078    4.1453 H   0  0  0  0  0  0  0  0  0  0  0  0
    0.5488   -0.8838    3.2109 N   0  0  0  0  0  0  0  0  0  0  0  0
   -0.4159    0.0446    2.6829 C   0  0  2  0  0  0  0  0  0  0  0  0
   -0.7551   -0.3867    1.2623 C   0  0  0  0  0  0  0  0  0  0  0  0
   -0.0106   -1.0851    0.5774 O   0  0  0  0  0  0  0  0  0  0  0  0
    0.1168    1.4689    2.7060 C   0  0  0  0  0  0  0  0  0  0  0  0
    1.1183   -1.4145    2.5542 H   0  0  0  0  0  0  0  0  0  0  0  0
   -1.3088   -0.0350    3.3125 H   0  0  0  0  0  0  0  0  0  0  0  0
    1.0116    1.5681    2.0808 H   0  0  0  0  0  0  0  0  0  0  0  0
   -0.6289    2.1775    2.3307 H   0  0  0  0  0  0  0  0  0  0  0  0
    0.3882    1.7670    3.7245 H   0  0  0  0  0  0  0  0  0  0  0  0
   -1.9689    0.1350    0.8298 N   0  0  0  0  0  0  0  0  0  0  0  0
   -2.5039   -0.1183   -0.4830 C   0  0  2  0  0  0  0  0  0  0  0  0
   -3.9833   -0.4579   -0.3378 C   0  0  0  0  0  0  0  0  0  0  0  0
   -4.5075   -0.7203    0.7427 O   0  0  0  0  0  0  0  0  0  0  0  0
   -1.7336   -1.2202   -1.2034 C   0  0  0  0  0  0  0  0  0  0  0  0
   -1.9138   -2.4644   -0.5365 O   0  0  0  0  0  0  0  0  0  0  0  0
   -2.5276    0.6894    1.4750 H   0  0  0  0  0  0  0  0  0  0  0  0
   -2.4089    0.8202   -1.0411 H   0  0  0  0  0  0  0  0  0  0  0  0
   -0.6614   -0.9999   -1.2267 H   0  0  0  0  0  0  0  0  0  0  0  0
   -2.0917   -1.3308   -2.2325 H   0  0  0  0  0  0  0  0  0  0  0  0
   -2.8658   -2.6515   -0.5492 H   0  0  0  0  0  0  0  0  0  0  0  0
   -4.6559   -0.3908   -1.5498 N   0  0  0  0  0  0  0  0  0  0  0  0
   -6.0735   -0.6395   -1.6726 C   0  0  2  0  0  0  0  0  0  0  0  0
   -6.7504   -0.1397   -0.4032 C   0  0  0  0  0  0  0  0  0  0  0  0
   -6.1558    0.0003    0.6636 O   0  0  0  0  0  0  0  0  0  0  0  0
   -6.3589   -2.1165   -1.8954 C   0  0  0  0  0  0  0  0  0  0  0  0
   -4.1480   -0.1261   -2.3886 H   0  0  0  0  0  0  0  0  0  0  0  0
   -6.4243   -0.0536   -2.5292 H   0  0  0  0  0  0  0  0  0  0  0  0
   -6.0144   -2.7196   -1.0474 H   0  0  0  0  0  0  0  0  0  0  0  0
   -7.4317   -2.2994   -2.0168 H   0  0  0  0  0  0  0  0  0  0  0  0
   -5.8471   -2.4814   -2.7924 H   0  0  0  0  0  0  0  0  0  0  0  0
   -8.1061    0.0907   -0.5906 N   0  0  0  0  0  0  0  0  0  0  0  0
   -8.9713    0.5573    0.4675 C   0  0  0  0  0  0  0  0  0  0  0  0
   -8.5111   -0.0337   -1.5138 H   0  0  0  0  0  0  0  0  0  0  0  0
   -9.4303   -0.3048    0.9735 H   0  0  0  0  0  0  0  0  0  0  0  0
   -8.3825    1.1375    1.1933 H   0  0  0  0  0  0  0  0  0  0  0  0
   -9.7599    1.1950    0.0417 H   0  0  0  0  0  0  0  0  0  0  0  0
  1  3  1  0  0  0  0
  1  7  1  0  0  0  0
  1  2  2  0  0  0  0
 29 30  1  0  0  0  0
 30 38  1  0  0  0  0
 30 31  2  0  0  0  0
  8  9  1  0  0  0  0
  9 17  1  0  0  0  0
  9 10  2  0  0  0  0
 18 19  1  0  0  0  0
 19 28  1  0  0  0  0
 19 20  2  0  0  0  0
 29 32  1  0  0  0  0
  8 11  1  0  0  0  0
 38 39  1  0  0  0  0
 18 21  1  0  0  0  0
 21 22  1  0  0  0  0
 28 29  1  0  0  0  0
  7  8  1  0  0  0  0
 17 18  1  0  0  0  0
  3  4  1  0  0  0  0
  3  5  1  0  0  0  0
  3  6  1  0  0  0  0
 32 35  1  0  0  0  0
 32 36  1  0  0  0  0
 32 37  1  0  0  0  0
 11 14  1  0  0  0  0
 11 15  1  0  0  0  0
 11 16  1  0  0  0  0
 39 41  1  0  0  0  0
 39 42  1  0  0  0  0
 39 43  1  0  0  0  0
 21 25  1  0  0  0  0
 21 26  1  0  0  0  0
 29 34  1  0  0  0  0
  8 13  1  0  0  0  0
 18 24  1  0  0  0  0
 38 40  1  0  0  0  0
  7 12  1  0  0  0  0
 28 33  1  0  0  0  0
 17 23  1  0  0  0  0
 22 27  1  0  0  0  0
M  END
$$$$

  -OEChem-05262214473D

 43 42  0     1  0  0  0  0  0999 V2000
    0.7424   -1.0926    4.5665 C   0  0  0  0  0  0  0  0  0  0  0  0
    0.1409   -0.5364    5.4779 O   0  0  0  0  0  0  0  0  0  0  0  0
    1.7940   -2.1023    4.8871 C   0  0  0  0  0  0  0  0  0  0  0  0
    2.7935   -1.6502    4.9904 H   0  0  0  0  0  0  0  0  0  0  0  0
    1.6064   -2.6156    5.8438 H   0  0  0  0  0  0  0  0  0  0  0  0
    1.9156   -2.9078    4.1453 H   0  0  0  0  0  0  0  0  0  0  0  0
    0.5488   -0.8838    3.2109 N   0  0  0  0  0  0  0  0  0  0  0  0
   -0.4159    0.0446    2.6829 C   0  0  2  0  0  0  0  0  0  0  0  0
   -0.7551   -0.3867    1.2623 C   0  0  0  0  0  0  0  0  0  0  0  0
   -0.0106   -1.0851    0.5774 O   0  0  0  0  0  0  0  0  0  0  0  0
    0.1168    1.4689    2.7060 C   0  0  0  0  0  0  0  0  0  0  0  0
    1.1183   -1.4145    2.5542 H   0  0  0  0  0  0  0  0  0  0  0  0
   -1.3088   -0.0350    3.3125 H   0  0  0  0  0  0  0  0  0  0  0  0
    1.0116    1.5681    2.0808 H   0  0  0  0  0  0  0  0  0  0  0  0
   -0.6289    2.1775    2.3307 H   0  0  0  0  0  0  0  0  0  0  0  0
    0.3882    1.7670    3.7245 H   0  0  0  0  0  0  0  0  0  0  0  0
   -1.9689    0.1350    0.8298 N   0  0  0  0  0  0  0  0  0  0  0  0
   -2.5039   -0.1183   -0.4830 C   0  0  2  0  0  0  0  0  0  0  0  0
   -4.0256   -0.0861   -0.3923 C   0  0  0  0  0  0  0  0  0  0  0  0
   -4.6295    0.1602    0.6497 O   0  0  0  0  0  0  0  0  0  0  0  0
   -1.9941   -1.4371   -1.0554 C   0  0  0  0  0  0  0  0  0  0  0  0
   -2.4881   -2.5303   -0.2898 O   0  0  0  0  0  0  0  0  0  0  0  0
   -2.5276    0.6894    1.4750 H   0  0  0  0  0  0  0  0  0  0  0  0
   -2.1692    0.7103   -1.1176 H   0  0  0  0  0  0  0  0  0  0  0  0
   -0.9002   -1.4770   -1.0374 H   0  0  0  0  0  0  0  0  0  0  0  0
   -2.3331   -1.5649   -2.0890 H   0  0  0  0  0  0  0  0  0  0  0  0
   -3.4563   -2.4900   -0.3397 H   0  0  0  0  0  0  0  0  0  0  0  0
   -4.6271   -0.3222   -1.6204 N   0  0  0  0  0  0  0  0  0  0  0  0
   -6.0598   -0.3141   -1.8043 C   0  0  2  0  0  0  0  0  0  0  0  0
   -6.6492    0.7260   -0.8607 C   0  0  0  0  0  0  0  0  0  0  0  0
   -6.0731    1.1151    0.1530 O   0  0  0  0  0  0  0  0  0  0  0  0
   -6.6590   -1.6871   -1.5424 C   0  0  0  0  0  0  0  0  0  0  0  0
   -4.0464   -0.4775   -2.4391 H   0  0  0  0  0  0  0  0  0  0  0  0
   -6.2439   -0.0132   -2.8414 H   0  0  0  0  0  0  0  0  0  0  0  0
   -6.4846   -2.0055   -0.5082 H   0  0  0  0  0  0  0  0  0  0  0  0
   -7.7411   -1.6863   -1.7100 H   0  0  0  0  0  0  0  0  0  0  0  0
   -6.2125   -2.4394   -2.2016 H   0  0  0  0  0  0  0  0  0  0  0  0
   -7.9131    1.1368   -1.2607 N   0  0  0  0  0  0  0  0  0  0  0  0
   -8.6866    2.1088   -0.5238 C   0  0  0  0  0  0  0  0  0  0  0  0
   -8.3057    0.7756   -2.1251 H   0  0  0  0  0  0  0  0  0  0  0  0
   -9.3418    1.5904    0.1918 H   0  0  0  0  0  0  0  0  0  0  0  0
   -8.0073    2.7806    0.0214 H   0  0  0  0  0  0  0  0  0  0  0  0
   -9.2997    2.6959   -1.2233 H   0  0  0  0  0  0  0  0  0  0  0  0
  1  3  1  0  0  0  0
  1  7  1  0  0  0  0
  1  2  2  0  0  0  0
 29 30  1  0  0  0  0
 30 38  1  0  0  0  0
 30 31  2  0  0  0  0
  8  9  1  0  0  0  0
  9 17  1  0  0  0  0
  9 10  2  0  0  0  0
 18 19  1  0  0  0  0
 19 28  1  0  0  0  0
 19 20  2  0  0  0  0
 29 32  1  0  0  0  0
  8 11  1  0  0  0  0
 38 39  1  0  0  0  0
 18 21  1  0  0  0  0
 21 22  1  0  0  0  0
 28 29  1  0  0  0  0
  7  8  1  0  0  0  0
 17 18  1  0  0  0  0
  3  4  1  0  0  0  0
  3  5  1  0  0  0  0
  3  6  1  0  0  0  0
 32 35  1  0  0  0  0
 32 36  1  0  0  0  0
 32 37  1  0  0  0  0
 11 14  1  0  0  0  0
 11 15  1  0  0  0  0
 11 16  1  0  0  0  0
 39 41  1  0  0  0  0
 39 42  1  0  0  0  0
 39 43  1  0  0  0  0
 21 25  1  0  0  0  0
 21 26  1  0  0  0  0
 29 34  1  0  0  0  0
  8 13  1  0  0  0  0
 18 24  1  0  0  0  0
 38 40  1  0  0  0  0
  7 12  1  0  0  0  0
 28 33  1  0  0  0  0
 17 23  1  0  0  0  0
 22 27  1  0  0  0  0
M  END
$$$$

  -OEChem-05262214473D

 43 42  0     1  0  0  0  0  0999 V2000
    0.7424   -1.0926    4.5665 C   0  0  0  0  0  0  0  0  0  0  0  0
    0.1409   -0.5364    5.4779 O   0  0  0  0  0  0  0  0  0  0  0  0
    1.7940   -2.1023    4.8871 C   0  0  0  0  0  0  0  0  0  0  0  0
    2.7935   -1.6502    4.9904 H   0  0  0  0  0  0  0  0  0  0  0  0
    1.6064   -2.6156    5.8438 H   0  0  0  0  0  0  0  0  0  0  0  0
    1.9156   -2.9078    4.1453 H   0  0  0  0  0  0  0  0  0  0  0  0
    0.5488   -0.8838    3.2109 N   0  0  0  0  0  0  0  0  0  0  0  0
   -0.4159    0.0446    2.6829 C   0  0  2  0  0  0  0  0  0  0  0  0
   -0.7551   -0.3867    1.2623 C   0  0  0  0  0  0  0  0  0  0  0  0
   -0.0106   -1.0851    0.5774 O   0  0  0  0  0  0  0  0  0  0  0  0
    0.1168    1.4689    2.7060 C   0  0  0  0  0  0  0  0  0  0  0  0
    1.1183   -1.4145    2.5542 H   0  0  0  0  0  0  0  0  0  0  0  0
   -1.3088   -0.0350    3.3125 H   0  0  0  0  0  0  0  0  0  0  0  0
    1.0116    1.5681    2.0808 H   0  0  0  0  0  0  0  0  0  0  0  0
   -0.6289    2.1775    2.3307 H   0  0  0  0  0  0  0  0  0  0  0  0
    0.3882    1.7670    3.7245 H   0  0  0  0  0  0  0  0  0  0  0  0
   -1.9689    0.1350    0.8298 N   0  0  0  0  0  0  0  0  0  0  0  0
   -2.5039   -0.1183   -0.4830 C   0  0  2  0  0  0  0  0  0  0  0  0
   -4.0256   -0.0861   -0.3923 C   0  0  0  0  0  0  0  0  0  0  0  0
   -4.6298    0.4121    0.5553 O   0  0  0  0  0  0  0  0  0  0  0  0
   -1.9941   -1.4371   -1.0554 C   0  0  0  0  0  0  0  0  0  0  0  0
   -2.4881   -2.5303   -0.2898 O   0  0  0  0  0  0  0  0  0  0  0  0
   -2.5276    0.6894    1.4750 H   0  0  0  0  0  0  0  0  0  0  0  0
   -2.1692    0.7103   -1.1176 H   0  0  0  0  0  0  0  0  0  0  0  0
   -0.9002   -1.4770   -1.0374 H   0  0  0  0  0  0  0  0  0  0  0  0
   -2.3331   -1.5649   -2.0890 H   0  0  0  0  0  0  0  0  0  0  0  0
   -3.4563   -2.4900   -0.3397 H   0  0  0  0  0  0  0  0  0  0  0  0
   -4.6274   -0.6402   -1.5132 N   0  0  0  0  0  0  0  0  0  0  0  0
   -6.0607   -0.7010   -1.6822 C   0  0  2  0  0  0  0  0  0  0  0  0
   -6.6636    0.5388   -1.0349 C   0  0  0  0  0  0  0  0  0  0  0  0
   -6.0903    1.1850   -0.1604 O   0  0  0  0  0  0  0  0  0  0  0  0
   -6.6368   -1.9684   -1.0702 C   0  0  0  0  0  0  0  0  0  0  0  0
   -4.0471   -0.9933   -2.2683 H   0  0  0  0  0  0  0  0  0  0  0  0
   -6.2532   -0.6810   -2.7605 H   0  0  0  0  0  0  0  0  0  0  0  0
   -6.4538   -2.0062    0.0099 H   0  0  0  0  0  0  0  0  0  0  0  0
   -7.7194   -2.0267   -1.2242 H   0  0  0  0  0  0  0  0  0  0  0  0
   -6.1805   -2.8588   -1.5160 H   0  0  0  0  0  0  0  0  0  0  0  0
   -7.9353    0.8137   -1.5180 N   0  0  0  0  0  0  0  0  0  0  0  0
   -8.7218    1.9316   -1.0513 C   0  0  0  0  0  0  0  0  0  0  0  0
   -8.3249    0.2357   -2.2568 H   0  0  0  0  0  0  0  0  0  0  0  0
   -9.3661    1.6061   -0.2212 H   0  0  0  0  0  0  0  0  0  0  0  0
   -8.0515    2.7313   -0.7032 H   0  0  0  0  0  0  0  0  0  0  0  0
   -9.3467    2.3090   -1.8741 H   0  0  0  0  0  0  0  0  0  0  0  0
  1  3  1  0  0  0  0
  1  7  1  0  0  0  0
  1  2  2  0  0  0  0
 29 30  1  0  0  0  0
 30 38  1  0  0  0  0
 30 31  2  0  0  0  0
  8  9  1  0  0  0  0
  9 17  1  0  0  0  0
  9 10  2  0  0  0  0
 18 19  1  0  0  0  0
 19 28  1  0  0  0  0
 19 20  2  0  0  0  0
 29 32  1  0  0  0  0
  8 11  1  0  0  0  0
 38 39  1  0  0  0  0
 18 21  1  0  0  0  0
 21 22  1  0  0  0  0
 28 29  1  0  0  0  0
  7  8  1  0  0  0  0
 17 18  1  0  0  0  0
  3  4  1  0  0  0  0
  3  5  1  0  0  0  0
  3  6  1  0  0  0  0
 32 35  1  0  0  0  0
 32 36  1  0  0  0  0
 32 37  1  0  0  0  0
 11 14  1  0  0  0  0
 11 15  1  0  0  0  0
 11 16  1  0  0  0  0
 39 41  1  0  0  0  0
 39 42  1  0  0  0  0
 39 43  1  0  0  0  0
 21 25  1  0  0  0  0
 21 26  1  0  0  0  0
 29 34  1  0  0  0  0
  8 13  1  0  0  0  0
 18 24  1  0  0  0  0
 38 40  1  0  0  0  0
  7 12  1  0  0  0  0
 28 33  1  0  0  0  0
 17 23  1  0  0  0  0
 22 27  1  0  0  0  0
M  END
$$$$

  -OEChem-05262214473D

 43 42  0     1  0  0  0  0  0999 V2000
    0.7424   -1.0926    4.5665 C   0  0  0  0  0  0  0  0  0  0  0  0
    0.1409   -0.5364    5.4779 O   0  0  0  0  0  0  0  0  0  0  0  0
    1.7940   -2.1023    4.8871 C   0  0  0  0  0  0  0  0  0  0  0  0
    2.7935   -1.6502    4.9904 H   0  0  0  0  0  0  0  0  0  0  0  0
    1.6064   -2.6156    5.8438 H   0  0  0  0  0  0  0  0  0  0  0  0
    1.9156   -2.9078    4.1453 H   0  0  0  0  0  0  0  0  0  0  0  0
    0.5488   -0.8838    3.2109 N   0  0  0  0  0  0  0  0  0  0  0  0
   -0.4159    0.0446    2.6829 C   0  0  2  0  0  0  0  0  0  0  0  0
   -0.7551   -0.3867    1.2623 C   0  0  0  0  0  0  0  0  0  0  0  0
   -0.0106   -1.0851    0.5774 O   0  0  0  0  0  0  0  0  0  0  0  0
    0.1168    1.4689    2.7060 C   0  0  0  0  0  0  0  0  0  0  0  0
    1.1183   -1.4145    2.5542 H   0  0  0  0  0  0  0  0  0  0  0  0
   -1.3088   -0.0350    3.3125 H   0  0  0  0  0  0  0  0  0  0  0  0
    1.0116    1.5681    2.0808 H   0  0  0  0  0  0  0  0  0  0  0  0
   -0.6289    2.1775    2.3307 H   0  0  0  0  0  0  0  0  0  0  0  0
    0.3882    1.7670    3.7245 H   0  0  0  0  0  0  0  0  0  0  0  0
   -1.9689    0.1350    0.8298 N   0  0  0  0  0  0  0  0  0  0  0  0
   -2.5039   -0.1183   -0.4830 C   0  0  2  0  0  0  0  0  0  0  0  0
   -4.0256   -0.0861   -0.3923 C   0  0  0  0  0  0  0  0  0  0  0  0
   -4.6345    0.6310    0.3989 O   0  0  0  0  0  0  0  0  0  0  0  0
   -1.9941   -1.4371   -1.0554 C   0  0  0  0  0  0  0  0  0  0  0  0
   -2.4881   -2.5303   -0.2898 O   0  0  0  0  0  0  0  0  0  0  0  0
   -2.5276    0.6894    1.4750 H   0  0  0  0  0  0  0  0  0  0  0  0
   -2.1692    0.7103   -1.1176 H   0  0  0  0  0  0  0  0  0  0  0  0
   -0.9002   -1.4770   -1.0374 H   0  0  0  0  0  0  0  0  0  0  0  0
   -2.3331   -1.5649   -2.0890 H   0  0  0  0  0  0  0  0  0  0  0  0
   -3.4563   -2.4900   -0.3397 H   0  0  0  0  0  0  0  0  0  0  0  0
   -4.6223   -0.9198   -1.3275 N   0  0  0  0  0  0  0  0  0  0  0  0
   -6.0550   -1.0432   -1.4644 C   0  0  2  0  0  0  0  0  0  0  0  0
   -6.6755    0.3127   -1.1547 C   0  0  0  0  0  0  0  0  0  0  0  0
   -6.1097    1.1713   -0.4811 O   0  0  0  0  0  0  0  0  0  0  0  0
   -6.6085   -2.1178   -0.5415 C   0  0  0  0  0  0  0  0  0  0  0  0
   -4.0389   -1.4474   -1.9702 H   0  0  0  0  0  0  0  0  0  0  0  0
   -6.2514   -1.3052   -2.5097 H   0  0  0  0  0  0  0  0  0  0  0  0
   -6.4211   -1.8726    0.5103 H   0  0  0  0  0  0  0  0  0  0  0  0
   -7.6904   -2.2298   -0.6671 H   0  0  0  0  0  0  0  0  0  0  0  0
   -6.1393   -3.0863   -0.7457 H   0  0  0  0  0  0  0  0  0  0  0  0
   -7.9531    0.4348   -1.6829 N   0  0  0  0  0  0  0  0  0  0  0  0
   -8.7559    1.6236   -1.5148 C   0  0  0  0  0  0  0  0  0  0  0  0
   -8.3360   -0.3201   -2.2444 H   0  0  0  0  0  0  0  0  0  0  0  0
   -9.3920    1.5142   -0.6241 H   0  0  0  0  0  0  0  0  0  0  0  0
   -8.0975    2.4959   -1.3901 H   0  0  0  0  0  0  0  0  0  0  0  0
   -9.3896    1.7665   -2.4025 H   0  0  0  0  0  0  0  0  0  0  0  0
  1  3  1  0  0  0  0
  1  7  1  0  0  0  0
  1  2  2  0  0  0  0
 29 30  1  0  0  0  0
 30 38  1  0  0  0  0
 30 31  2  0  0  0  0
  8  9  1  0  0  0  0
  9 17  1  0  0  0  0
  9 10  2  0  0  0  0
 18 19  1  0  0  0  0
 19 28  1  0  0  0  0
 19 20  2  0  0  0  0
 29 32  1  0  0  0  0
  8 11  1  0  0  0  0
 38 39  1  0  0  0  0
 18 21  1  0  0  0  0
 21 22  1  0  0  0  0
 28 29  1  0  0  0  0
  7  8  1  0  0  0  0
 17 18  1  0  0  0  0
  3  4  1  0  0  0  0
  3  5  1  0  0  0  0
  3  6  1  0  0  0  0
 32 35  1  0  0  0  0
 32 36  1  0  0  0  0
 32 37  1  0  0  0  0
 11 14  1  0  0  0  0
 11 15  1  0  0  0  0
 11 16  1  0  0  0  0
 39 41  1  0  0  0  0
 39 42  1  0  0  0  0
 39 43  1  0  0  0  0
 21 25  1  0  0  0  0
 21 26  1  0  0  0  0
 29 34  1  0  0  0  0
  8 13  1  0  0  0  0
 18 24  1  0  0  0  0
 38 40  1  0  0  0  0
  7 12  1  0  0  0  0
 28 33  1  0  0  0  0
 17 23  1  0  0  0  0
 22 27  1  0  0  0  0
M  END
$$$$

  -OEChem-05262214473D

 43 42  0     1  0  0  0  0  0999 V2000
    0.7424   -1.0926    4.5665 C   0  0  0  0  0  0  0  0  0  0  0  0
    0.1409   -0.5364    5.4779 O   0  0  0  0  0  0  0  0  0  0  0  0
    1.7940   -2.1023    4.8871 C   0  0  0  0  0  0  0  0  0  0  0  0
    2.7935   -1.6502    4.9904 H   0  0  0  0  0  0  0  0  0  0  0  0
    1.6064   -2.6156    5.8438 H   0  0  0  0  0  0  0  0  0  0  0  0
    1.9156   -2.9078    4.1453 H   0  0  0  0  0  0  0  0  0  0  0  0
    0.5488   -0.8838    3.2109 N   0  0  0  0  0  0  0  0  0  0  0  0
   -0.4159    0.0446    2.6829 C   0  0  2  0  0  0  0  0  0  0  0  0
   -0.7551   -0.3867    1.2623 C   0  0  0  0  0  0  0  0  0  0  0  0
   -0.0106   -1.0851    0.5774 O   0  0  0  0  0  0  0  0  0  0  0  0
    0.1168    1.4689    2.7060 C   0  0  0  0  0  0  0  0  0  0  0  0
    1.1183   -1.4145    2.5542 H   0  0  0  0  0  0  0  0  0  0  0  0
   -1.3088   -0.0350    3.3125 H   0  0  0  0  0  0  0  0  0  0  0  0
    1.0116    1.5681    2.0808 H   0  0  0  0  0  0  0  0  0  0  0  0
   -0.6289    2.1775    2.3307 H   0  0  0  0  0  0  0  0  0  0  0  0
    0.3882    1.7670    3.7245 H   0  0  0  0  0  0  0  0  0  0  0  0
   -1.9689    0.1350    0.8298 N   0  0  0  0  0  0  0  0  0  0  0  0
   -2.5039   -0.1183   -0.4830 C   0  0  2  0  0  0  0  0  0  0  0  0
   -4.0256   -0.0861   -0.3923 C   0  0  0  0  0  0  0  0  0  0  0  0
   -4.6433    0.8021    0.1914 O   0  0  0  0  0  0  0  0  0  0  0  0
   -1.9941   -1.4371   -1.0554 C   0  0  0  0  0  0  0  0  0  0  0  0
   -2.4881   -2.5303   -0.2898 O   0  0  0  0  0  0  0  0  0  0  0  0
   -2.5276    0.6894    1.4750 H   0  0  0  0  0  0  0  0  0  0  0  0
   -2.1692    0.7103   -1.1176 H   0  0  0  0  0  0  0  0  0  0  0  0
   -0.9002   -1.4770   -1.0374 H   0  0  0  0  0  0  0  0  0  0  0  0
   -2.3331   -1.5649   -2.0890 H   0  0  0  0  0  0  0  0  0  0  0  0
   -3.4563   -2.4900   -0.3397 H   0  0  0  0  0  0  0  0  0  0  0  0
   -4.6120   -1.1418   -1.0760 N   0  0  0  0  0  0  0  0  0  0  0  0
   -6.0430   -1.3174   -1.1656 C   0  0  2  0  0  0  0  0  0  0  0  0
   -6.6842    0.0632   -1.2120 C   0  0  0  0  0  0  0  0  0  0  0  0
   -6.1300    1.0749   -0.7872 O   0  0  0  0  0  0  0  0  0  0  0  0
   -6.5759   -2.1251    0.0076 C   0  0  0  0  0  0  0  0  0  0  0  0
   -4.0224   -1.8089   -1.5650 H   0  0  0  0  0  0  0  0  0  0  0  0
   -6.2387   -1.8435   -2.1063 H   0  0  0  0  0  0  0  0  0  0  0  0
   -6.3889   -1.6138    0.9589 H   0  0  0  0  0  0  0  0  0  0  0  0
   -7.6563   -2.2816   -0.0767 H   0  0  0  0  0  0  0  0  0  0  0  0
   -6.0919   -3.1065    0.0570 H   0  0  0  0  0  0  0  0  0  0  0  0
   -7.9654    0.0260   -1.7442 N   0  0  0  0  0  0  0  0  0  0  0  0
   -8.7867    1.2059   -1.8829 C   0  0  0  0  0  0  0  0  0  0  0  0
   -8.3380   -0.8539   -2.0888 H   0  0  0  0  0  0  0  0  0  0  0  0
   -9.4179    1.3210   -0.9894 H   0  0  0  0  0  0  0  0  0  0  0  0
   -8.1420    2.0904   -1.9926 H   0  0  0  0  0  0  0  0  0  0  0  0
   -9.4257    1.1053   -2.7726 H   0  0  0  0  0  0  0  0  0  0  0  0
  1  3  1  0  0  0  0
  1  7  1  0  0  0  0
  1  2  2  0  0  0  0
 29 30  1  0  0  0  0
 30 38  1  0  0  0  0
 30 31  2  0  0  0  0
  8  9  1  0  0  0  0
  9 17  1  0  0  0  0
  9 10  2  0  0  0  0
 18 19  1  0  0  0  0
 19 28  1  0  0  0  0
 19 20  2  0  0  0  0
 29 32  1  0  0  0  0
  8 11  1  0  0  0  0
 38 39  1  0  0  0  0
 18 21  1  0  0  0  0
 21 22  1  0  0  0  0
 28 29  1  0  0  0  0
  7  8  1  0  0  0  0
 17 18  1  0  0  0  0
  3  4  1  0  0  0  0
  3  5  1  0  0  0  0
  3  6  1  0  0  0  0
 32 35  1  0  0  0  0
 32 36  1  0  0  0  0
 32 37  1  0  0  0  0
 11 14  1  0  0  0  0
 11 15  1  0  0  0  0
 11 16  1  0  0  0  0
 39 41  1  0  0  0  0
 39 42  1  0  0  0  0
 39 43  1  0  0  0  0
 21 25  1  0  0  0  0
 21 26  1  0  0  0  0
 29 34  1  0  0  0  0
  8 13  1  0  0  0  0
 18 24  1  0  0  0  0
 38 40  1  0  0  0  0
  7 12  1  0  0  0  0
 28 33  1  0  0  0  0
 17 23  1  0  0  0  0
 22 27  1  0  0  0  0
M  END
$$$$

  -OEChem-05262214473D

 43 42  0     1  0  0  0  0  0999 V2000
    0.7424   -1.0926    4.5665 C   0  0  0  0  0  0  0  0  0  0  0  0
    0.1409   -0.5364    5.4779 O   0  0  0  0  0  0  0  0  0  0  0  0
    1.7940   -2.1023    4.8871 C   0  0  0  0  0  0  0  0  0  0  0  0
    2.7935   -1.6502    4.9904 H   0  0  0  0  0  0  0  0  0  0  0  0
    1.6064   -2.6156    5.8438 H   0  0  0  0  0  0  0  0  0  0  0  0
    1.9156   -2.9078    4.1453 H   0  0  0  0  0  0  0  0  0  0  0  0
    0.5488   -0.8838    3.2109 N   0  0  0  0  0  0  0  0  0  0  0  0
   -0.4159    0.0446    2.6829 C   0  0  2  0  0  0  0  0  0  0  0  0
   -0.7551   -0.3867    1.2623 C   0  0  0  0  0  0  0  0  0  0  0  0
   -0.0106   -1.0851    0.5774 O   0  0  0  0  0  0  0  0  0  0  0  0
    0.1168    1.4689    2.7060 C   0  0  0  0  0  0  0  0  0  0  0  0
    1.1183   -1.4145    2.5542 H   0  0  0  0  0  0  0  0  0  0  0  0
   -1.3088   -0.0350    3.3125 H   0  0  0  0  0  0  0  0  0  0  0  0
    1.0116    1.5681    2.0808 H   0  0  0  0  0  0  0  0  0  0  0  0
   -0.6289    2.1775    2.3307 H   0  0  0  0  0  0  0  0  0  0  0  0
    0.3882    1.7670    3.7245 H   0  0  0  0  0  0  0  0  0  0  0  0
   -1.9689    0.1350    0.8298 N   0  0  0  0  0  0  0  0  0  0  0  0
   -2.5039   -0.1183   -0.4830 C   0  0  2  0  0  0  0  0  0  0  0  0
   -4.0256   -0.0861   -0.3923 C   0  0  0  0  0  0  0  0  0  0  0  0
   -4.6555    0.9135   -0.0532 O   0  0  0  0  0  0  0  0  0  0  0  0
   -1.9941   -1.4371   -1.0554 C   0  0  0  0  0  0  0  0  0  0  0  0
   -2.4881   -2.5303   -0.2898 O   0  0  0  0  0  0  0  0  0  0  0  0
   -2.5276    0.6894    1.4750 H   0  0  0  0  0  0  0  0  0  0  0  0
   -2.1692    0.7103   -1.1176 H   0  0  0  0  0  0  0  0  0  0  0  0
   -0.9002   -1.4770   -1.0374 H   0  0  0  0  0  0  0  0  0  0  0  0
   -2.3331   -1.5649   -2.0890 H   0  0  0  0  0  0  0  0  0  0  0  0
   -3.4563   -2.4900   -0.3397 H   0  0  0  0  0  0  0  0  0  0  0  0
   -4.5972   -1.2911   -0.7758 N   0  0  0  0  0  0  0  0  0  0  0  0
   -6.0255   -1.5049   -0.8063 C   0  0  2  0  0  0  0  0  0  0  0  0
   -6.6891   -0.1927   -1.2029 C   0  0  0  0  0  0  0  0  0  0  0  0
   -6.1498    0.9024   -1.0579 O   0  0  0  0  0  0  0  0  0  0  0  0
   -6.5413   -1.9898    0.5397 C   0  0  0  0  0  0  0  0  0  0  0  0
   -3.9987   -2.0531   -1.0803 H   0  0  0  0  0  0  0  0  0  0  0  0
   -6.2160   -2.2589   -1.5777 H   0  0  0  0  0  0  0  0  0  0  0  0
   -6.3593   -1.2474    1.3253 H   0  0  0  0  0  0  0  0  0  0  0  0
   -7.6194   -2.1787    0.5068 H   0  0  0  0  0  0  0  0  0  0  0  0
   -6.0414   -2.9179    0.8372 H   0  0  0  0  0  0  0  0  0  0  0  0
   -7.9714   -0.3850   -1.6978 N   0  0  0  0  0  0  0  0  0  0  0  0
   -8.8120    0.7069   -2.1303 C   0  0  0  0  0  0  0  0  0  0  0  0
   -8.3308   -1.3294   -1.8006 H   0  0  0  0  0  0  0  0  0  0  0  0
   -9.4419    1.0396   -1.2921 H   0  0  0  0  0  0  0  0  0  0  0  0
   -8.1820    1.5424   -2.4695 H   0  0  0  0  0  0  0  0  0  0  0  0
   -9.4524    0.3704   -2.9590 H   0  0  0  0  0  0  0  0  0  0  0  0
  1  3  1  0  0  0  0
  1  7  1  0  0  0  0
  1  2  2  0  0  0  0
 29 30  1  0  0  0  0
 30 38  1  0  0  0  0
 30 31  2  0  0  0  0
  8  9  1  0  0  0  0
  9 17  1  0  0  0  0
  9 10  2  0  0  0  0
 18 19  1  0  0  0  0
 19 28  1  0  0  0  0
 19 20  2  0  0  0  0
 29 32  1  0  0  0  0
  8 11  1  0  0  0  0
 38 39  1  0  0  0  0
 18 21  1  0  0  0  0
 21 22  1  0  0  0  0
 28 29  1  0  0  0  0
  7  8  1  0  0  0  0
 17 18  1  0  0  0  0
  3  4  1  0  0  0  0
  3  5  1  0  0  0  0
  3  6  1  0  0  0  0
 32 35  1  0  0  0  0
 32 36  1  0  0  0  0
 32 37  1  0  0  0  0
 11 14  1  0  0  0  0
 11 15  1  0  0  0  0
 11 16  1  0  0  0  0
 39 41  1  0  0  0  0
 39 42  1  0  0  0  0
 39 43  1  0  0  0  0
 21 25  1  0  0  0  0
 21 26  1  0  0  0  0
 29 34  1  0  0  0  0
  8 13  1  0  0  0  0
 18 24  1  0  0  0  0
 38 40  1  0  0  0  0
  7 12  1  0  0  0  0
 28 33  1  0  0  0  0
 17 23  1  0  0  0  0
 22 27  1  0  0  0  0
M  END
$$$$

  -OEChem-05262214473D

 43 42  0     1  0  0  0  0  0999 V2000
    0.7424   -1.0926    4.5665 C   0  0  0  0  0  0  0  0  0  0  0  0
    0.1409   -0.5364    5.4779 O   0  0  0  0  0  0  0  0  0  0  0  0
    1.7940   -2.1023    4.8871 C   0  0  0  0  0  0  0  0  0  0  0  0
    2.7935   -1.6502    4.9904 H   0  0  0  0  0  0  0  0  0  0  0  0
    1.6064   -2.6156    5.8438 H   0  0  0  0  0  0  0  0  0  0  0  0
    1.9156   -2.9078    4.1453 H   0  0  0  0  0  0  0  0  0  0  0  0
    0.5488   -0.8838    3.2109 N   0  0  0  0  0  0  0  0  0  0  0  0
   -0.4159    0.0446    2.6829 C   0  0  2  0  0  0  0  0  0  0  0  0
   -0.7551   -0.3867    1.2623 C   0  0  0  0  0  0  0  0  0  0  0  0
   -0.0106   -1.0851    0.5774 O   0  0  0  0  0  0  0  0  0  0  0  0
    0.1168    1.4689    2.7060 C   0  0  0  0  0  0  0  0  0  0  0  0
    1.1183   -1.4145    2.5542 H   0  0  0  0  0  0  0  0  0  0  0  0
   -1.3088   -0.0350    3.3125 H   0  0  0  0  0  0  0  0  0  0  0  0
    1.0116    1.5681    2.0808 H   0  0  0  0  0  0  0  0  0  0  0  0
   -0.6289    2.1775    2.3307 H   0  0  0  0  0  0  0  0  0  0  0  0
    0.3882    1.7670    3.7245 H   0  0  0  0  0  0  0  0  0  0  0  0
   -1.9689    0.1350    0.8298 N   0  0  0  0  0  0  0  0  0  0  0  0
   -2.5039   -0.1183   -0.4830 C   0  0  2  0  0  0  0  0  0  0  0  0
   -4.0256   -0.0861   -0.3923 C   0  0  0  0  0  0  0  0  0  0  0  0
   -4.6704    0.9578   -0.3181 O   0  0  0  0  0  0  0  0  0  0  0  0
   -1.9941   -1.4371   -1.0554 C   0  0  0  0  0  0  0  0  0  0  0  0
   -2.4881   -2.5303   -0.2898 O   0  0  0  0  0  0  0  0  0  0  0  0
   -2.5276    0.6894    1.4750 H   0  0  0  0  0  0  0  0  0  0  0  0
   -2.1692    0.7103   -1.1176 H   0  0  0  0  0  0  0  0  0  0  0  0
   -0.9002   -1.4770   -1.0374 H   0  0  0  0  0  0  0  0  0  0  0  0
   -2.3331   -1.5649   -2.0890 H   0  0  0  0  0  0  0  0  0  0  0  0
   -3.4563   -2.4900   -0.3397 H   0  0  0  0  0  0  0  0  0  0  0  0
   -4.5790   -1.3575   -0.4473 N   0  0  0  0  0  0  0  0  0  0  0  0
   -6.0038   -1.5929   -0.4108 C   0  0  2  0  0  0  0  0  0  0  0  0
   -6.6898   -0.4376   -1.1279 C   0  0  0  0  0  0  0  0  0  0  0  0
   -6.1677    0.6656   -1.2747 O   0  0  0  0  0  0  0  0  0  0  0  0
   -6.5070   -1.7212    1.0185 C   0  0  0  0  0  0  0  0  0  0  0  0
   -3.9693   -2.1635   -0.5491 H   0  0  0  0  0  0  0  0  0  0  0  0
   -6.1848   -2.5234   -0.9599 H   0  0  0  0  0  0  0  0  0  0  0  0
   -6.3343   -0.7984    1.5843 H   0  0  0  0  0  0  0  0  0  0  0  0
   -7.5820   -1.9279    1.0436 H   0  0  0  0  0  0  0  0  0  0  0  0
   -5.9912   -2.5334    1.5419 H   0  0  0  0  0  0  0  0  0  0  0  0
   -7.9705   -0.7700   -1.5467 N   0  0  0  0  0  0  0  0  0  0  0  0
   -8.8301    0.1606   -2.2402 C   0  0  0  0  0  0  0  0  0  0  0  0
   -8.3151   -1.7142   -1.3995 H   0  0  0  0  0  0  0  0  0  0  0  0
   -9.4624    0.6893   -1.5118 H   0  0  0  0  0  0  0  0  0  0  0  0
   -8.2149    0.8892   -2.7885 H   0  0  0  0  0  0  0  0  0  0  0  0
   -9.4678   -0.3879   -2.9491 H   0  0  0  0  0  0  0  0  0  0  0  0
  1  3  1  0  0  0  0
  1  7  1  0  0  0  0
  1  2  2  0  0  0  0
 29 30  1  0  0  0  0
 30 38  1  0  0  0  0
 30 31  2  0  0  0  0
  8  9  1  0  0  0  0
  9 17  1  0  0  0  0
  9 10  2  0  0  0  0
 18 19  1  0  0  0  0
 19 28  1  0  0  0  0
 19 20  2  0  0  0  0
 29 32  1  0  0  0  0
  8 11  1  0  0  0  0
 38 39  1  0  0  0  0
 18 21  1  0  0  0  0
 21 22  1  0  0  0  0
 28 29  1  0  0  0  0
  7  8  1  0  0  0  0
 17 18  1  0  0  0  0
  3  4  1  0  0  0  0
  3  5  1  0  0  0  0
  3  6  1  0  0  0  0
 32 35  1  0  0  0  0
 32 36  1  0  0  0  0
 32 37  1  0  0  0  0
 11 14  1  0  0  0  0
 11 15  1  0  0  0  0
 11 16  1  0  0  0  0
 39 41  1  0  0  0  0
 39 42  1  0  0  0  0
 39 43  1  0  0  0  0
 21 25  1  0  0  0  0
 21 26  1  0  0  0  0
 29 34  1  0  0  0  0
  8 13  1  0  0  0  0
 18 24  1  0  0  0  0
 38 40  1  0  0  0  0
  7 12  1  0  0  0  0
 28 33  1  0  0  0  0
 17 23  1  0  0  0  0
 22 27  1  0  0  0  0
M  END
$$$$

  -OEChem-05262214473D

 43 42  0     1  0  0  0  0  0999 V2000
    0.7424   -1.0926    4.5665 C   0  0  0  0  0  0  0  0  0  0  0  0
    0.1409   -0.5364    5.4779 O   0  0  0  0  0  0  0  0  0  0  0  0
    1.7940   -2.1023    4.8871 C   0  0  0  0  0  0  0  0  0  0  0  0
    2.7935   -1.6502    4.9904 H   0  0  0  0  0  0  0  0  0  0  0  0
    1.6064   -2.6156    5.8438 H   0  0  0  0  0  0  0  0  0  0  0  0
    1.9156   -2.9078    4.1453 H   0  0  0  0  0  0  0  0  0  0  0  0
    0.5488   -0.8838    3.2109 N   0  0  0  0  0  0  0  0  0  0  0  0
   -0.4159    0.0446    2.6829 C   0  0  2  0  0  0  0  0  0  0  0  0
   -0.7551   -0.3867    1.2623 C   0  0  0  0  0  0  0  0  0  0  0  0
   -0.0106   -1.0851    0.5774 O   0  0  0  0  0  0  0  0  0  0  0  0
    0.1168    1.4689    2.7060 C   0  0  0  0  0  0  0  0  0  0  0  0
    1.1183   -1.4145    2.5542 H   0  0  0  0  0  0  0  0  0  0  0  0
   -1.3088   -0.0350    3.3125 H   0  0  0  0  0  0  0  0  0  0  0  0
    1.0116    1.5681    2.0808 H   0  0  0  0  0  0  0  0  0  0  0  0
   -0.6289    2.1775    2.3307 H   0  0  0  0  0  0  0  0  0  0  0  0
    0.3882    1.7670    3.7245 H   0  0  0  0  0  0  0  0  0  0  0  0
   -1.9689    0.1350    0.8298 N   0  0  0  0  0  0  0  0  0  0  0  0
   -2.5039   -0.1183   -0.4830 C   0  0  2  0  0  0  0  0  0  0  0  0
   -4.0256   -0.0861   -0.3923 C   0  0  0  0  0  0  0  0  0  0  0  0
   -4.6869    0.9320   -0.5855 O   0  0  0  0  0  0  0  0  0  0  0  0
   -1.9941   -1.4371   -1.0554 C   0  0  0  0  0  0  0  0  0  0  0  0
   -2.4881   -2.5303   -0.2898 O   0  0  0  0  0  0  0  0  0  0  0  0
   -2.5276    0.6894    1.4750 H   0  0  0  0  0  0  0  0  0  0  0  0
   -2.1692    0.7103   -1.1176 H   0  0  0  0  0  0  0  0  0  0  0  0
   -0.9002   -1.4770   -1.0374 H   0  0  0  0  0  0  0  0  0  0  0  0
   -2.3331   -1.5649   -2.0890 H   0  0  0  0  0  0  0  0  0  0  0  0
   -3.4563   -2.4900   -0.3397 H   0  0  0  0  0  0  0  0  0  0  0  0
   -4.5587   -1.3366   -0.1129 N   0  0  0  0  0  0  0  0  0  0  0  0
   -5.9793   -1.5754   -0.0063 C   0  0  2  0  0  0  0  0  0  0  0  0
   -6.6863   -0.6548   -0.9922 C   0  0  0  0  0  0  0  0  0  0  0  0
   -6.1826    0.3805   -1.4228 O   0  0  0  0  0  0  0  0  0  0  0  0
   -6.4755   -1.3375    1.4114 C   0  0  0  0  0  0  0  0  0  0  0  0
   -3.9364   -2.1324   -0.0078 H   0  0  0  0  0  0  0  0  0  0  0  0
   -6.1471   -2.6187   -0.2951 H   0  0  0  0  0  0  0  0  0  0  0  0
   -6.3157   -0.2974    1.7185 H   0  0  0  0  0  0  0  0  0  0  0  0
   -7.5469   -1.5465    1.4971 H   0  0  0  0  0  0  0  0  0  0  0  0
   -5.9448   -1.9793    2.1230 H   0  0  0  0  0  0  0  0  0  0  0  0
   -7.9629   -1.1029   -1.3014 N   0  0  0  0  0  0  0  0  0  0  0  0
   -8.8398   -0.3958   -2.2052 C   0  0  0  0  0  0  0  0  0  0  0  0
   -8.2917   -1.9819   -0.9127 H   0  0  0  0  0  0  0  0  0  0  0  0
   -9.4780    0.2938   -1.6333 H   0  0  0  0  0  0  0  0  0  0  0  0
   -8.2383    0.1754   -2.9276 H   0  0  0  0  0  0  0  0  0  0  0  0
   -9.4710   -1.1181   -2.7436 H   0  0  0  0  0  0  0  0  0  0  0  0
  1  3  1  0  0  0  0
  1  7  1  0  0  0  0
  1  2  2  0  0  0  0
 29 30  1  0  0  0  0
 30 38  1  0  0  0  0
 30 31  2  0  0  0  0
  8  9  1  0  0  0  0
  9 17  1  0  0  0  0
  9 10  2  0  0  0  0
 18 19  1  0  0  0  0
 19 28  1  0  0  0  0
 19 20  2  0  0  0  0
 29 32  1  0  0  0  0
  8 11  1  0  0  0  0
 38 39  1  0  0  0  0
 18 21  1  0  0  0  0
 21 22  1  0  0  0  0
 28 29  1  0  0  0  0
  7  8  1  0  0  0  0
 17 18  1  0  0  0  0
  3  4  1  0  0  0  0
  3  5  1  0  0  0  0
  3  6  1  0  0  0  0
 32 35  1  0  0  0  0
 32 36  1  0  0  0  0
 32 37  1  0  0  0  0
 11 14  1  0  0  0  0
 11 15  1  0  0  0  0
 11 16  1  0  0  0  0
 39 41  1  0  0  0  0
 39 42  1  0  0  0  0
 39 43  1  0  0  0  0
 21 25  1  0  0  0  0
 21 26  1  0  0  0  0
 29 34  1  0  0  0  0
  8 13  1  0  0  0  0
 18 24  1  0  0  0  0
 38 40  1  0  0  0  0
  7 12  1  0  0  0  0
 28 33  1  0  0  0  0
 17 23  1  0  0  0  0
 22 27  1  0  0  0  0
M  END
$$$$

  -OEChem-05262214473D

 43 42  0     1  0  0  0  0  0999 V2000
    0.7424   -1.0926    4.5665 C   0  0  0  0  0  0  0  0  0  0  0  0
    0.1409   -0.5364    5.4779 O   0  0  0  0  0  0  0  0  0  0  0  0
    1.7940   -2.1023    4.8871 C   0  0  0  0  0  0  0  0  0  0  0  0
    2.7935   -1.6502    4.9904 H   0  0  0  0  0  0  0  0  0  0  0  0
    1.6064   -2.6156    5.8438 H   0  0  0  0  0  0  0  0  0  0  0  0
    1.9156   -2.9078    4.1453 H   0  0  0  0  0  0  0  0  0  0  0  0
    0.5488   -0.8838    3.2109 N   0  0  0  0  0  0  0  0  0  0  0  0
   -0.4159    0.0446    2.6829 C   0  0  2  0  0  0  0  0  0  0  0  0
   -0.7551   -0.3867    1.2623 C   0  0  0  0  0  0  0  0  0  0  0  0
   -0.0106   -1.0851    0.5774 O   0  0  0  0  0  0  0  0  0  0  0  0
    0.1168    1.4689    2.7060 C   0  0  0  0  0  0  0  0  0  0  0  0
    1.1183   -1.4145    2.5542 H   0  0  0  0  0  0  0  0  0  0  0  0
   -1.3088   -0.0350    3.3125 H   0  0  0  0  0  0  0  0  0  0  0  0
    1.0116    1.5681    2.0808 H   0  0  0  0  0  0  0  0  0  0  0  0
   -0.6289    2.1775    2.3307 H   0  0  0  0  0  0  0  0  0  0  0  0
    0.3882    1.7670    3.7245 H   0  0  0  0  0  0  0  0  0  0  0  0
   -1.9689    0.1350    0.8298 N   0  0  0  0  0  0  0  0  0  0  0  0
   -2.5039   -0.1183   -0.4830 C   0  0  2  0  0  0  0  0  0  0  0  0
   -4.0256   -0.0861   -0.3923 C   0  0  0  0  0  0  0  0  0  0  0  0
   -4.7039    0.8377   -0.8369 O   0  0  0  0  0  0  0  0  0  0  0  0
   -1.9941   -1.4371   -1.0554 C   0  0  0  0  0  0  0  0  0  0  0  0
   -2.4881   -2.5303   -0.2898 O   0  0  0  0  0  0  0  0  0  0  0  0
   -2.5276    0.6894    1.4750 H   0  0  0  0  0  0  0  0  0  0  0  0
   -2.1692    0.7103   -1.1176 H   0  0  0  0  0  0  0  0  0  0  0  0
   -0.9002   -1.4770   -1.0374 H   0  0  0  0  0  0  0  0  0  0  0  0
   -2.3331   -1.5649   -2.0890 H   0  0  0  0  0  0  0  0  0  0  0  0
   -3.4563   -2.4900   -0.3397 H   0  0  0  0  0  0  0  0  0  0  0  0
   -4.5375   -1.2297    0.2045 N   0  0  0  0  0  0  0  0  0  0  0  0
   -5.9537   -1.4537    0.3799 C   0  0  2  0  0  0  0  0  0  0  0  0
   -6.6788   -0.8295   -0.8050 C   0  0  0  0  0  0  0  0  0  0  0  0
   -6.1934    0.0667   -1.4922 O   0  0  0  0  0  0  0  0  0  0  0  0
   -6.4488   -0.8648    1.6917 C   0  0  0  0  0  0  0  0  0  0  0  0
   -3.9021   -1.9621    0.5070 H   0  0  0  0  0  0  0  0  0  0  0  0
   -6.1057   -2.5385    0.3716 H   0  0  0  0  0  0  0  0  0  0  0  0
   -6.3047    0.2214    1.7185 H   0  0  0  0  0  0  0  0  0  0  0  0
   -7.5164   -1.0604    1.8365 H   0  0  0  0  0  0  0  0  0  0  0  0
   -5.9054   -1.2932    2.5408 H   0  0  0  0  0  0  0  0  0  0  0  0
   -7.9491   -1.3610   -0.9784 N   0  0  0  0  0  0  0  0  0  0  0  0
   -8.8404   -0.9244   -2.0277 C   0  0  0  0  0  0  0  0  0  0  0  0
   -8.2623   -2.1145   -0.3735 H   0  0  0  0  0  0  0  0  0  0  0  0
   -9.4877   -0.1199   -1.6485 H   0  0  0  0  0  0  0  0  0  0  0  0
   -8.2506   -0.5504   -2.8776 H   0  0  0  0  0  0  0  0  0  0  0  0
   -9.4617   -1.7704   -2.3565 H   0  0  0  0  0  0  0  0  0  0  0  0
  1  3  1  0  0  0  0
  1  7  1  0  0  0  0
  1  2  2  0  0  0  0
 29 30  1  0  0  0  0
 30 38  1  0  0  0  0
 30 31  2  0  0  0  0
  8  9  1  0  0  0  0
  9 17  1  0  0  0  0
  9 10  2  0  0  0  0
 18 19  1  0  0  0  0
 19 28  1  0  0  0  0
 19 20  2  0  0  0  0
 29 32  1  0  0  0  0
  8 11  1  0  0  0  0
 38 39  1  0  0  0  0
 18 21  1  0  0  0  0
 21 22  1  0  0  0  0
 28 29  1  0  0  0  0
  7  8  1  0  0  0  0
 17 18  1  0  0  0  0
  3  4  1  0  0  0  0
  3  5  1  0  0  0  0
  3  6  1  0  0  0  0
 32 35  1  0  0  0  0
 32 36  1  0  0  0  0
 32 37  1  0  0  0  0
 11 14  1  0  0  0  0
 11 15  1  0  0  0  0
 11 16  1  0  0  0  0
 39 41  1  0  0  0  0
 39 42  1  0  0  0  0
 39 43  1  0  0  0  0
 21 25  1  0  0  0  0
 21 26  1  0  0  0  0
 29 34  1  0  0  0  0
  8 13  1  0  0  0  0
 18 24  1  0  0  0  0
 38 40  1  0  0  0  0
  7 12  1  0  0  0  0
 28 33  1  0  0  0  0
 17 23  1  0  0  0  0
 22 27  1  0  0  0  0
M  END
$$$$

  -OEChem-05262214473D

 43 42  0     1  0  0  0  0  0999 V2000
    0.7424   -1.0926    4.5665 C   0  0  0  0  0  0  0  0  0  0  0  0
    0.1409   -0.5364    5.4779 O   0  0  0  0  0  0  0  0  0  0  0  0
    1.7940   -2.1023    4.8871 C   0  0  0  0  0  0  0  0  0  0  0  0
    2.7935   -1.6502    4.9904 H   0  0  0  0  0  0  0  0  0  0  0  0
    1.6064   -2.6156    5.8438 H   0  0  0  0  0  0  0  0  0  0  0  0
    1.9156   -2.9078    4.1453 H   0  0  0  0  0  0  0  0  0  0  0  0
    0.5488   -0.8838    3.2109 N   0  0  0  0  0  0  0  0  0  0  0  0
   -0.4159    0.0446    2.6829 C   0  0  2  0  0  0  0  0  0  0  0  0
   -0.7551   -0.3867    1.2623 C   0  0  0  0  0  0  0  0  0  0  0  0
   -0.0106   -1.0851    0.5774 O   0  0  0  0  0  0  0  0  0  0  0  0
    0.1168    1.4689    2.7060 C   0  0  0  0  0  0  0  0  0  0  0  0
    1.1183   -1.4145    2.5542 H   0  0  0  0  0  0  0  0  0  0  0  0
   -1.3088   -0.0350    3.3125 H   0  0  0  0  0  0  0  0  0  0  0  0
    1.0116    1.5681    2.0808 H   0  0  0  0  0  0  0  0  0  0  0  0
   -0.6289    2.1775    2.3307 H   0  0  0  0  0  0  0  0  0  0  0  0
    0.3882    1.7670    3.7245 H   0  0  0  0  0  0  0  0  0  0  0  0
   -1.9689    0.1350    0.8298 N   0  0  0  0  0  0  0  0  0  0  0  0
   -2.5039   -0.1183   -0.4830 C   0  0  2  0  0  0  0  0  0  0  0  0
   -4.0256   -0.0861   -0.3923 C   0  0  0  0  0  0  0  0  0  0  0  0
   -4.7202    0.6814   -1.0553 O   0  0  0  0  0  0  0  0  0  0  0  0
   -1.9941   -1.4371   -1.0554 C   0  0  0  0  0  0  0  0  0  0  0  0
   -2.4881   -2.5303   -0.2898 O   0  0  0  0  0  0  0  0  0  0  0  0
   -2.5276    0.6894    1.4750 H   0  0  0  0  0  0  0  0  0  0  0  0
   -2.1692    0.7103   -1.1176 H   0  0  0  0  0  0  0  0  0  0  0  0
   -0.9002   -1.4770   -1.0374 H   0  0  0  0  0  0  0  0  0  0  0  0
   -2.3331   -1.5649   -2.0890 H   0  0  0  0  0  0  0  0  0  0  0  0
   -3.4563   -2.4900   -0.3397 H   0  0  0  0  0  0  0  0  0  0  0  0
   -4.5169   -1.0441    0.4834 N   0  0  0  0  0  0  0  0  0  0  0  0
   -5.9287   -1.2360    0.7213 C   0  0  2  0  0  0  0  0  0  0  0  0
   -6.6679   -0.9498   -0.5792 C   0  0  0  0  0  0  0  0  0  0  0  0
   -6.1993   -0.2545   -1.4781 O   0  0  0  0  0  0  0  0  0  0  0  0
   -6.4287   -0.3355    1.8402 C   0  0  0  0  0  0  0  0  0  0  0  0
   -3.8687   -1.6641    0.9600 H   0  0  0  0  0  0  0  0  0  0  0  0
   -6.0632   -2.2882    0.9946 H   0  0  0  0  0  0  0  0  0  0  0  0
   -6.3021    0.7228    1.5845 H   0  0  0  0  0  0  0  0  0  0  0  0
   -7.4926   -0.5027    2.0385 H   0  0  0  0  0  0  0  0  0  0  0  0
   -5.8756   -0.5219    2.7671 H   0  0  0  0  0  0  0  0  0  0  0  0
   -7.9300   -1.5266   -0.5999 N   0  0  0  0  0  0  0  0  0  0  0  0
   -8.8318   -1.3890   -1.7196 C   0  0  0  0  0  0  0  0  0  0  0  0
   -8.2290   -2.1028    0.1814 H   0  0  0  0  0  0  0  0  0  0  0  0
   -9.4907   -0.5235   -1.5562 H   0  0  0  0  0  0  0  0  0  0  0  0
   -8.2511   -1.2387   -2.6416 H   0  0  0  0  0  0  0  0  0  0  0  0
   -9.4406   -2.3004   -1.8141 H   0  0  0  0  0  0  0  0  0  0  0  0
  1  3  1  0  0  0  0
  1  7  1  0  0  0  0
  1  2  2  0  0  0  0
 29 30  1  0  0  0  0
 30 38  1  0  0  0  0
 30 31  2  0  0  0  0
  8  9  1  0  0  0  0
  9 17  1  0  0  0  0
  9 10  2  0  0  0  0
 18 19  1  0  0  0  0
 19 28  1  0  0  0  0
 19 20  2  0  0  0  0
 29 32  1  0  0  0  0
  8 11  1  0  0  0  0
 38 39  1  0  0  0  0
 18 21  1  0  0  0  0
 21 22  1  0  0  0  0
 28 29  1  0  0  0  0
  7  8  1  0  0  0  0
 17 18  1  0  0  0  0
  3  4  1  0  0  0  0
  3  5  1  0  0  0  0
  3  6  1  0  0  0  0
 32 35  1  0  0  0  0
 32 36  1  0  0  0  0
 32 37  1  0  0  0  0
 11 14  1  0  0  0  0
 11 15  1  0  0  0  0
 11 16  1  0  0  0  0
 39 41  1  0  0  0  0
 39 42  1  0  0  0  0
 39 43  1  0  0  0  0
 21 25  1  0  0  0  0
 21 26  1  0  0  0  0
 29 34  1  0  0  0  0
  8 13  1  0  0  0  0
 18 24  1  0  0  0  0
 38 40  1  0  0  0  0
  7 12  1  0  0  0  0
 28 33  1  0  0  0  0
 17 23  1  0  0  0  0
 22 27  1  0  0  0  0
M  END
$$$$

  -OEChem-05262214473D

 43 42  0     1  0  0  0  0  0999 V2000
    0.7424   -1.0926    4.5665 C   0  0  0  0  0  0  0  0  0  0  0  0
    0.1409   -0.5364    5.4779 O   0  0  0  0  0  0  0  0  0  0  0  0
    1.7940   -2.1023    4.8871 C   0  0  0  0  0  0  0  0  0  0  0  0
    2.7935   -1.6502    4.9904 H   0  0  0  0  0  0  0  0  0  0  0  0
    1.6064   -2.6156    5.8438 H   0  0  0  0  0  0  0  0  0  0  0  0
    1.9156   -2.9078    4.1453 H   0  0  0  0  0  0  0  0  0  0  0  0
    0.5488   -0.8838    3.2109 N   0  0  0  0  0  0  0  0  0  0  0  0
   -0.4159    0.0446    2.6829 C   0  0  2  0  0  0  0  0  0  0  0  0
   -0.7551   -0.3867    1.2623 C   0  0  0  0  0  0  0  0  0  0  0  0
   -0.0106   -1.0851    0.5774 O   0  0  0  0  0  0  0  0  0  0  0  0
    0.1168    1.4689    2.7060 C   0  0  0  0  0  0  0  0  0  0  0  0
    1.1183   -1.4145    2.5542 H   0  0  0  0  0  0  0  0  0  0  0  0
   -1.3088   -0.0350    3.3125 H   0  0  0  0  0  0  0  0  0  0  0  0
    1.0116    1.5681    2.0808 H   0  0  0  0  0  0  0  0  0  0  0  0
   -0.6289    2.1775    2.3307 H   0  0  0  0  0  0  0  0  0  0  0  0
    0.3882    1.7670    3.7245 H   0  0  0  0  0  0  0  0  0  0  0  0
   -1.9689    0.1350    0.8298 N   0  0  0  0  0  0  0  0  0  0  0  0
   -2.5039   -0.1183   -0.4830 C   0  0  2  0  0  0  0  0  0  0  0  0
   -4.0256   -0.0861   -0.3923 C   0  0  0  0  0  0  0  0  0  0  0  0
   -4.7348    0.4737   -1.2258 O   0  0  0  0  0  0  0  0  0  0  0  0
   -1.9941   -1.4371   -1.0554 C   0  0  0  0  0  0  0  0  0  0  0  0
   -2.4881   -2.5303   -0.2898 O   0  0  0  0  0  0  0  0  0  0  0  0
   -2.5276    0.6894    1.4750 H   0  0  0  0  0  0  0  0  0  0  0  0
   -2.1692    0.7103   -1.1176 H   0  0  0  0  0  0  0  0  0  0  0  0
   -0.9002   -1.4770   -1.0374 H   0  0  0  0  0  0  0  0  0  0  0  0
   -2.3331   -1.5649   -2.0890 H   0  0  0  0  0  0  0  0  0  0  0  0
   -3.4563   -2.4900   -0.3397 H   0  0  0  0  0  0  0  0  0  0  0  0
   -4.4984   -0.7924    0.7047 N   0  0  0  0  0  0  0  0  0  0  0  0
   -5.9061   -0.9371    0.9947 C   0  0  2  0  0  0  0  0  0  0  0  0
   -6.6543   -1.0075   -0.3300 C   0  0  0  0  0  0  0  0  0  0  0  0
   -6.2000   -0.5612   -1.3815 O   0  0  0  0  0  0  0  0  0  0  0  0
   -6.4167    0.2144    1.8468 C   0  0  0  0  0  0  0  0  0  0  0  0
   -3.8387   -1.2587    1.3204 H   0  0  0  0  0  0  0  0  0  0  0  0
   -6.0227   -1.8849    1.5314 H   0  0  0  0  0  0  0  0  0  0  0  0
   -6.3081    1.1725    1.3255 H   0  0  0  0  0  0  0  0  0  0  0  0
   -7.4770    0.0886    2.0895 H   0  0  0  0  0  0  0  0  0  0  0  0
   -5.8575    0.2819    2.7862 H   0  0  0  0  0  0  0  0  0  0  0  0
   -7.9070   -1.5886   -0.1916 N   0  0  0  0  0  0  0  0  0  0  0  0
   -8.8147   -1.7581   -1.3021 C   0  0  0  0  0  0  0  0  0  0  0  0
   -8.1939   -1.9476    0.7142 H   0  0  0  0  0  0  0  0  0  0  0  0
   -9.4869   -0.8895   -1.3628 H   0  0  0  0  0  0  0  0  0  0  0  0
   -8.2397   -1.8426   -2.2360 H   0  0  0  0  0  0  0  0  0  0  0  0
   -9.4090   -2.6718   -1.1535 H   0  0  0  0  0  0  0  0  0  0  0  0
  1  3  1  0  0  0  0
  1  7  1  0  0  0  0
  1  2  2  0  0  0  0
 29 30  1  0  0  0  0
 30 38  1  0  0  0  0
 30 31  2  0  0  0  0
  8  9  1  0  0  0  0
  9 17  1  0  0  0  0
  9 10  2  0  0  0  0
 18 19  1  0  0  0  0
 19 28  1  0  0  0  0
 19 20  2  0  0  0  0
 29 32  1  0  0  0  0
  8 11  1  0  0  0  0
 38 39  1  0  0  0  0
 18 21  1  0  0  0  0
 21 22  1  0  0  0  0
 28 29  1  0  0  0  0
  7  8  1  0  0  0  0
 17 18  1  0  0  0  0
  3  4  1  0  0  0  0
  3  5  1  0  0  0  0
  3  6  1  0  0  0  0
 32 35  1  0  0  0  0
 32 36  1  0  0  0  0
 32 37  1  0  0  0  0
 11 14  1  0  0  0  0
 11 15  1  0  0  0  0
 11 16  1  0  0  0  0
 39 41  1  0  0  0  0
 39 42  1  0  0  0  0
 39 43  1  0  0  0  0
 21 25  1  0  0  0  0
 21 26  1  0  0  0  0
 29 34  1  0  0  0  0
  8 13  1  0  0  0  0
 18 24  1  0  0  0  0
 38 40  1  0  0  0  0
  7 12  1  0  0  0  0
 28 33  1  0  0  0  0
 17 23  1  0  0  0  0
 22 27  1  0  0  0  0
M  END
$$$$

  -OEChem-05262214473D

 43 42  0     1  0  0  0  0  0999 V2000
    0.7424   -1.0926    4.5665 C   0  0  0  0  0  0  0  0  0  0  0  0
    0.1409   -0.5364    5.4779 O   0  0  0  0  0  0  0  0  0  0  0  0
    1.7940   -2.1023    4.8871 C   0  0  0  0  0  0  0  0  0  0  0  0
    2.7935   -1.6502    4.9904 H   0  0  0  0  0  0  0  0  0  0  0  0
    1.6064   -2.6156    5.8438 H   0  0  0  0  0  0  0  0  0  0  0  0
    1.9156   -2.9078    4.1453 H   0  0  0  0  0  0  0  0  0  0  0  0
    0.5488   -0.8838    3.2109 N   0  0  0  0  0  0  0  0  0  0  0  0
   -0.4159    0.0446    2.6829 C   0  0  2  0  0  0  0  0  0  0  0  0
   -0.7551   -0.3867    1.2623 C   0  0  0  0  0  0  0  0  0  0  0  0
   -0.0106   -1.0851    0.5774 O   0  0  0  0  0  0  0  0  0  0  0  0
    0.1168    1.4689    2.7060 C   0  0  0  0  0  0  0  0  0  0  0  0
    1.1183   -1.4145    2.5542 H   0  0  0  0  0  0  0  0  0  0  0  0
   -1.3088   -0.0350    3.3125 H   0  0  0  0  0  0  0  0  0  0  0  0
    1.0116    1.5681    2.0808 H   0  0  0  0  0  0  0  0  0  0  0  0
   -0.6289    2.1775    2.3307 H   0  0  0  0  0  0  0  0  0  0  0  0
    0.3882    1.7670    3.7245 H   0  0  0  0  0  0  0  0  0  0  0  0
   -1.9689    0.1350    0.8298 N   0  0  0  0  0  0  0  0  0  0  0  0
   -2.5039   -0.1183   -0.4830 C   0  0  2  0  0  0  0  0  0  0  0  0
   -4.0256   -0.0861   -0.3923 C   0  0  0  0  0  0  0  0  0  0  0  0
   -4.7466    0.2289   -1.3368 O   0  0  0  0  0  0  0  0  0  0  0  0
   -1.9941   -1.4371   -1.0554 C   0  0  0  0  0  0  0  0  0  0  0  0
   -2.4881   -2.5303   -0.2898 O   0  0  0  0  0  0  0  0  0  0  0  0
   -2.5276    0.6894    1.4750 H   0  0  0  0  0  0  0  0  0  0  0  0
   -2.1692    0.7103   -1.1176 H   0  0  0  0  0  0  0  0  0  0  0  0
   -0.9002   -1.4770   -1.0374 H   0  0  0  0  0  0  0  0  0  0  0  0
   -2.3331   -1.5649   -2.0890 H   0  0  0  0  0  0  0  0  0  0  0  0
   -3.4563   -2.4900   -0.3397 H   0  0  0  0  0  0  0  0  0  0  0  0
   -4.4832   -0.4919    0.8534 N   0  0  0  0  0  0  0  0  0  0  0  0
   -5.8873   -0.5774    1.1814 C   0  0  2  0  0  0  0  0  0  0  0  0
   -6.6388   -0.9986   -0.0745 C   0  0  0  0  0  0  0  0  0  0  0  0
   -6.1955   -0.8325   -1.2089 O   0  0  0  0  0  0  0  0  0  0  0  0
   -6.4135    0.7475    1.7110 C   0  0  0  0  0  0  0  0  0  0  0  0
   -3.8139   -0.7735    1.5637 H   0  0  0  0  0  0  0  0  0  0  0  0
   -5.9868   -1.3559    1.9456 H   0  0  0  0  0  0  0  0  0  0  0  0
   -6.3221    1.5399    0.9592 H   0  0  0  0  0  0  0  0  0  0  0  0
   -7.4708    0.6731    1.9860 H   0  0  0  0  0  0  0  0  0  0  0  0
   -5.8522    1.0636    2.5969 H   0  0  0  0  0  0  0  0  0  0  0  0
   -7.8815   -1.5426    0.2187 N   0  0  0  0  0  0  0  0  0  0  0  0
   -8.7903   -2.0066   -0.8035 C   0  0  0  0  0  0  0  0  0  0  0  0
   -8.1596   -1.6596    1.1886 H   0  0  0  0  0  0  0  0  0  0  0  0
   -9.4766   -1.1931   -1.0815 H   0  0  0  0  0  0  0  0  0  0  0  0
   -8.2171   -2.3210   -1.6882 H   0  0  0  0  0  0  0  0  0  0  0  0
   -9.3692   -2.8595   -0.4196 H   0  0  0  0  0  0  0  0  0  0  0  0
  1  3  1  0  0  0  0
  1  7  1  0  0  0  0
  1  2  2  0  0  0  0
 29 30  1  0  0  0  0
 30 38  1  0  0  0  0
 30 31  2  0  0  0  0
  8  9  1  0  0  0  0
  9 17  1  0  0  0  0
  9 10  2  0  0  0  0
 18 19  1  0  0  0  0
 19 28  1  0  0  0  0
 19 20  2  0  0  0  0
 29 32  1  0  0  0  0
  8 11  1  0  0  0  0
 38 39  1  0  0  0  0
 18 21  1  0  0  0  0
 21 22  1  0  0  0  0
 28 29  1  0  0  0  0
  7  8  1  0  0  0  0
 17 18  1  0  0  0  0
  3  4  1  0  0  0  0
  3  5  1  0  0  0  0
  3  6  1  0  0  0  0
 32 35  1  0  0  0  0
 32 36  1  0  0  0  0
 32 37  1  0  0  0  0
 11 14  1  0  0  0  0
 11 15  1  0  0  0  0
 11 16  1  0  0  0  0
 39 41  1  0  0  0  0
 39 42  1  0  0  0  0
 39 43  1  0  0  0  0
 21 25  1  0  0  0  0
 21 26  1  0  0  0  0
 29 34  1  0  0  0  0
  8 13  1  0  0  0  0
 18 24  1  0  0  0  0
 38 40  1  0  0  0  0
  7 12  1  0  0  0  0
 28 33  1  0  0  0  0
 17 23  1  0  0  0  0
 22 27  1  0  0  0  0
M  END
$$$$

  -OEChem-05262214473D

 43 42  0     1  0  0  0  0  0999 V2000
    0.7424   -1.0926    4.5665 C   0  0  0  0  0  0  0  0  0  0  0  0
    0.1409   -0.5364    5.4779 O   0  0  0  0  0  0  0  0  0  0  0  0
    1.7940   -2.1023    4.8871 C   0  0  0  0  0  0  0  0  0  0  0  0
    2.7935   -1.6502    4.9904 H   0  0  0  0  0  0  0  0  0  0  0  0
    1.6064   -2.6156    5.8438 H   0  0  0  0  0  0  0  0  0  0  0  0
    1.9156   -2.9078    4.1453 H   0  0  0  0  0  0  0  0  0  0  0  0
    0.5488   -0.8838    3.2109 N   0  0  0  0  0  0  0  0  0  0  0  0
   -0.4159    0.0446    2.6829 C   0  0  2  0  0  0  0  0  0  0  0  0
   -0.7551   -0.3867    1.2623 C   0  0  0  0  0  0  0  0  0  0  0  0
   -0.0106   -1.0851    0.5774 O   0  0  0  0  0  0  0  0  0  0  0  0
    0.1168    1.4689    2.7060 C   0  0  0  0  0  0  0  0  0  0  0  0
    1.1183   -1.4145    2.5542 H   0  0  0  0  0  0  0  0  0  0  0  0
   -1.3088   -0.0350    3.3125 H   0  0  0  0  0  0  0  0  0  0  0  0
    1.0116    1.5681    2.0808 H   0  0  0  0  0  0  0  0  0  0  0  0
   -0.6289    2.1775    2.3307 H   0  0  0  0  0  0  0  0  0  0  0  0
    0.3882    1.7670    3.7245 H   0  0  0  0  0  0  0  0  0  0  0  0
   -1.9689    0.1350    0.8298 N   0  0  0  0  0  0  0  0  0  0  0  0
   -2.5039   -0.1183   -0.4830 C   0  0  2  0  0  0  0  0  0  0  0  0
   -4.0256   -0.0861   -0.3923 C   0  0  0  0  0  0  0  0  0  0  0  0
   -4.7548   -0.0364   -1.3807 O   0  0  0  0  0  0  0  0  0  0  0  0
   -1.9941   -1.4371   -1.0554 C   0  0  0  0  0  0  0  0  0  0  0  0
   -2.4881   -2.5303   -0.2898 O   0  0  0  0  0  0  0  0  0  0  0  0
   -2.5276    0.6894    1.4750 H   0  0  0  0  0  0  0  0  0  0  0  0
   -2.1692    0.7103   -1.1176 H   0  0  0  0  0  0  0  0  0  0  0  0
   -0.9002   -1.4770   -1.0374 H   0  0  0  0  0  0  0  0  0  0  0  0
   -2.3331   -1.5649   -2.0890 H   0  0  0  0  0  0  0  0  0  0  0  0
   -3.4563   -2.4900   -0.3397 H   0  0  0  0  0  0  0  0  0  0  0  0
   -4.4723   -0.1630    0.9194 N   0  0  0  0  0  0  0  0  0  0  0  0
   -5.8737   -0.1815    1.2688 C   0  0  2  0  0  0  0  0  0  0  0  0
   -6.6227   -0.9238    0.1699 C   0  0  0  0  0  0  0  0  0  0  0  0
   -6.1860   -1.0499   -0.9722 O   0  0  0  0  0  0  0  0  0  0  0  0
   -6.4194    1.2274    1.4422 C   0  0  0  0  0  0  0  0  0  0  0  0
   -3.7961   -0.2417    1.6732 H   0  0  0  0  0  0  0  0  0  0  0  0
   -5.9580   -0.7375    2.2089 H   0  0  0  0  0  0  0  0  0  0  0  0
   -6.3434    1.7999    0.5106 H   0  0  0  0  0  0  0  0  0  0  0  0
   -7.4744    1.2110    1.7349 H   0  0  0  0  0  0  0  0  0  0  0  0
   -5.8602    1.7699    2.2122 H   0  0  0  0  0  0  0  0  0  0  0  0
   -7.8554   -1.3918    0.6029 N   0  0  0  0  0  0  0  0  0  0  0  0
   -8.7601   -2.1174   -0.2579 C   0  0  0  0  0  0  0  0  0  0  0  0
   -8.1282   -1.2583    1.5722 H   0  0  0  0  0  0  0  0  0  0  0  0
   -9.4604   -1.4136   -0.7314 H   0  0  0  0  0  0  0  0  0  0  0  0
   -8.1850   -2.6412   -1.0356 H   0  0  0  0  0  0  0  0  0  0  0  0
   -9.3239   -2.8505    0.3376 H   0  0  0  0  0  0  0  0  0  0  0  0
  1  3  1  0  0  0  0
  1  7  1  0  0  0  0
  1  2  2  0  0  0  0
 29 30  1  0  0  0  0
 30 38  1  0  0  0  0
 30 31  2  0  0  0  0
  8  9  1  0  0  0  0
  9 17  1  0  0  0  0
  9 10  2  0  0  0  0
 18 19  1  0  0  0  0
 19 28  1  0  0  0  0
 19 20  2  0  0  0  0
 29 32  1  0  0  0  0
  8 11  1  0  0  0  0
 38 39  1  0  0  0  0
 18 21  1  0  0  0  0
 21 22  1  0  0  0  0
 28 29  1  0  0  0  0
  7  8  1  0  0  0  0
 17 18  1  0  0  0  0
  3  4  1  0  0  0  0
  3  5  1  0  0  0  0
  3  6  1  0  0  0  0
 32 35  1  0  0  0  0
 32 36  1  0  0  0  0
 32 37  1  0  0  0  0
 11 14  1  0  0  0  0
 11 15  1  0  0  0  0
 11 16  1  0  0  0  0
 39 41  1  0  0  0  0
 39 42  1  0  0  0  0
 39 43  1  0  0  0  0
 21 25  1  0  0  0  0
 21 26  1  0  0  0  0
 29 34  1  0  0  0  0
  8 13  1  0  0  0  0
 18 24  1  0  0  0  0
 38 40  1  0  0  0  0
  7 12  1  0  0  0  0
 28 33  1  0  0  0  0
 17 23  1  0  0  0  0
 22 27  1  0  0  0  0
M  END
$$$$

  -OEChem-05262214473D

 43 42  0     1  0  0  0  0  0999 V2000
    0.7424   -1.0926    4.5665 C   0  0  0  0  0  0  0  0  0  0  0  0
    0.1409   -0.5364    5.4779 O   0  0  0  0  0  0  0  0  0  0  0  0
    1.7940   -2.1023    4.8871 C   0  0  0  0  0  0  0  0  0  0  0  0
    2.7935   -1.6502    4.9904 H   0  0  0  0  0  0  0  0  0  0  0  0
    1.6064   -2.6156    5.8438 H   0  0  0  0  0  0  0  0  0  0  0  0
    1.9156   -2.9078    4.1453 H   0  0  0  0  0  0  0  0  0  0  0  0
    0.5488   -0.8838    3.2109 N   0  0  0  0  0  0  0  0  0  0  0  0
   -0.4159    0.0446    2.6829 C   0  0  2  0  0  0  0  0  0  0  0  0
   -0.7551   -0.3867    1.2623 C   0  0  0  0  0  0  0  0  0  0  0  0
   -0.0106   -1.0851    0.5774 O   0  0  0  0  0  0  0  0  0  0  0  0
    0.1168    1.4689    2.7060 C   0  0  0  0  0  0  0  0  0  0  0  0
    1.1183   -1.4145    2.5542 H   0  0  0  0  0  0  0  0  0  0  0  0
   -1.3088   -0.0350    3.3125 H   0  0  0  0  0  0  0  0  0  0  0  0
    1.0116    1.5681    2.0808 H   0  0  0  0  0  0  0  0  0  0  0  0
   -0.6289    2.1775    2.3307 H   0  0  0  0  0  0  0  0  0  0  0  0
    0.3882    1.7670    3.7245 H   0  0  0  0  0  0  0  0  0  0  0  0
   -1.9689    0.1350    0.8298 N   0  0  0  0  0  0  0  0  0  0  0  0
   -2.5039   -0.1183   -0.4830 C   0  0  2  0  0  0  0  0  0  0  0  0
   -4.0256   -0.0861   -0.3923 C   0  0  0  0  0  0  0  0  0  0  0  0
   -4.7589   -0.3042   -1.3545 O   0  0  0  0  0  0  0  0  0  0  0  0
   -1.9941   -1.4371   -1.0554 C   0  0  0  0  0  0  0  0  0  0  0  0
   -2.4881   -2.5303   -0.2898 O   0  0  0  0  0  0  0  0  0  0  0  0
   -2.5276    0.6894    1.4750 H   0  0  0  0  0  0  0  0  0  0  0  0
   -2.1692    0.7103   -1.1176 H   0  0  0  0  0  0  0  0  0  0  0  0
   -0.9002   -1.4770   -1.0374 H   0  0  0  0  0  0  0  0  0  0  0  0
   -2.3331   -1.5649   -2.0890 H   0  0  0  0  0  0  0  0  0  0  0  0
   -3.4563   -2.4900   -0.3397 H   0  0  0  0  0  0  0  0  0  0  0  0
   -4.4665    0.1719    0.8980 N   0  0  0  0  0  0  0  0  0  0  0  0
   -5.8662    0.2238    1.2508 C   0  0  2  0  0  0  0  0  0  0  0  0
   -6.6069   -0.7882    0.3866 C   0  0  0  0  0  0  0  0  0  0  0  0
   -6.1721   -1.1987   -0.6874 O   0  0  0  0  0  0  0  0  0  0  0  0
   -6.4339    1.6214    1.0586 C   0  0  0  0  0  0  0  0  0  0  0  0
   -3.7866    0.3006    1.6415 H   0  0  0  0  0  0  0  0  0  0  0  0
   -5.9383   -0.0717    2.3032 H   0  0  0  0  0  0  0  0  0  0  0  0
   -6.3704    1.9348    0.0102 H   0  0  0  0  0  0  0  0  0  0  0  0
   -7.4876    1.6658    1.3535 H   0  0  0  0  0  0  0  0  0  0  0  0
   -5.8809    2.3526    1.6581 H   0  0  0  0  0  0  0  0  0  0  0  0
   -7.8305   -1.1464    0.9350 N   0  0  0  0  0  0  0  0  0  0  0  0
   -8.7262   -2.0831    0.2976 C   0  0  0  0  0  0  0  0  0  0  0  0
   -8.1020   -0.7711    1.8390 H   0  0  0  0  0  0  0  0  0  0  0  0
   -9.4394   -1.5358   -0.3364 H   0  0  0  0  0  0  0  0  0  0  0  0
   -8.1454   -2.7815   -0.3228 H   0  0  0  0  0  0  0  0  0  0  0  0
   -9.2761   -2.6457    1.0664 H   0  0  0  0  0  0  0  0  0  0  0  0
  1  3  1  0  0  0  0
  1  7  1  0  0  0  0
  1  2  2  0  0  0  0
 29 30  1  0  0  0  0
 30 38  1  0  0  0  0
 30 31  2  0  0  0  0
  8  9  1  0  0  0  0
  9 17  1  0  0  0  0
  9 10  2  0  0  0  0
 18 19  1  0  0  0  0
 19 28  1  0  0  0  0
 19 20  2  0  0  0  0
 29 32  1  0  0  0  0
  8 11  1  0  0  0  0
 38 39  1  0  0  0  0
 18 21  1  0  0  0  0
 21 22  1  0  0  0  0
 28 29  1  0  0  0  0
  7  8  1  0  0  0  0
 17 18  1  0  0  0  0
  3  4  1  0  0  0  0
  3  5  1  0  0  0  0
  3  6  1  0  0  0  0
 32 35  1  0  0  0  0
 32 36  1  0  0  0  0
 32 37  1  0  0  0  0
 11 14  1  0  0  0  0
 11 15  1  0  0  0  0
 11 16  1  0  0  0  0
 39 41  1  0  0  0  0
 39 42  1  0  0  0  0
 39 43  1  0  0  0  0
 21 25  1  0  0  0  0
 21 26  1  0  0  0  0
 29 34  1  0  0  0  0
  8 13  1  0  0  0  0
 18 24  1  0  0  0  0
 38 40  1  0  0  0  0
  7 12  1  0  0  0  0
 28 33  1  0  0  0  0
 17 23  1  0  0  0  0
 22 27  1  0  0  0  0
M  END
$$$$

  -OEChem-05262214473D

 43 42  0     1  0  0  0  0  0999 V2000
    0.7424   -1.0926    4.5665 C   0  0  0  0  0  0  0  0  0  0  0  0
    0.1409   -0.5364    5.4779 O   0  0  0  0  0  0  0  0  0  0  0  0
    1.7940   -2.1023    4.8871 C   0  0  0  0  0  0  0  0  0  0  0  0
    2.7935   -1.6502    4.9904 H   0  0  0  0  0  0  0  0  0  0  0  0
    1.6064   -2.6156    5.8438 H   0  0  0  0  0  0  0  0  0  0  0  0
    1.9156   -2.9078    4.1453 H   0  0  0  0  0  0  0  0  0  0  0  0
    0.5488   -0.8838    3.2109 N   0  0  0  0  0  0  0  0  0  0  0  0
   -0.4159    0.0446    2.6829 C   0  0  2  0  0  0  0  0  0  0  0  0
   -0.7551   -0.3867    1.2623 C   0  0  0  0  0  0  0  0  0  0  0  0
   -0.0106   -1.0851    0.5774 O   0  0  0  0  0  0  0  0  0  0  0  0
    0.1168    1.4689    2.7060 C   0  0  0  0  0  0  0  0  0  0  0  0
    1.1183   -1.4145    2.5542 H   0  0  0  0  0  0  0  0  0  0  0  0
   -1.3088   -0.0350    3.3125 H   0  0  0  0  0  0  0  0  0  0  0  0
    1.0116    1.5681    2.0808 H   0  0  0  0  0  0  0  0  0  0  0  0
   -0.6289    2.1775    2.3307 H   0  0  0  0  0  0  0  0  0  0  0  0
    0.3882    1.7670    3.7245 H   0  0  0  0  0  0  0  0  0  0  0  0
   -1.9689    0.1350    0.8298 N   0  0  0  0  0  0  0  0  0  0  0  0
   -2.5039   -0.1183   -0.4830 C   0  0  2  0  0  0  0  0  0  0  0  0
   -4.0256   -0.0861   -0.3923 C   0  0  0  0  0  0  0  0  0  0  0  0
   -4.7586   -0.5561   -1.2600 O   0  0  0  0  0  0  0  0  0  0  0  0
   -1.9941   -1.4371   -1.0554 C   0  0  0  0  0  0  0  0  0  0  0  0
   -2.4881   -2.5303   -0.2898 O   0  0  0  0  0  0  0  0  0  0  0  0
   -2.5276    0.6894    1.4750 H   0  0  0  0  0  0  0  0  0  0  0  0
   -2.1692    0.7103   -1.1176 H   0  0  0  0  0  0  0  0  0  0  0  0
   -0.9002   -1.4770   -1.0374 H   0  0  0  0  0  0  0  0  0  0  0  0
   -2.3331   -1.5649   -2.0890 H   0  0  0  0  0  0  0  0  0  0  0  0
   -3.4563   -2.4900   -0.3397 H   0  0  0  0  0  0  0  0  0  0  0  0
   -4.4661    0.4900    0.7909 N   0  0  0  0  0  0  0  0  0  0  0  0
   -5.8653    0.6107    1.1288 C   0  0  2  0  0  0  0  0  0  0  0  0
   -6.5925   -0.6010    0.5608 C   0  0  0  0  0  0  0  0  0  0  0  0
   -6.1549   -1.2686   -0.3740 O   0  0  0  0  0  0  0  0  0  0  0  0
   -6.4562    1.9027    0.5864 C   0  0  0  0  0  0  0  0  0  0  0  0
   -3.7858    0.8164    1.4708 H   0  0  0  0  0  0  0  0  0  0  0  0
   -5.9290    0.5961    2.2223 H   0  0  0  0  0  0  0  0  0  0  0  0
   -6.4013    1.9355   -0.5079 H   0  0  0  0  0  0  0  0  0  0  0  0
   -7.5093    2.0063    0.8677 H   0  0  0  0  0  0  0  0  0  0  0  0
   -5.9130    2.7720    0.9726 H   0  0  0  0  0  0  0  0  0  0  0  0
   -7.8083   -0.8233    1.1922 N   0  0  0  0  0  0  0  0  0  0  0  0
   -8.6910   -1.9059    0.8251 C   0  0  0  0  0  0  0  0  0  0  0  0
   -8.0827   -0.2312    1.9706 H   0  0  0  0  0  0  0  0  0  0  0  0
   -9.4151   -1.5515    0.0766 H   0  0  0  0  0  0  0  0  0  0  0  0
   -8.1012   -2.7323    0.4018 H   0  0  0  0  0  0  0  0  0  0  0  0
   -9.2291   -2.2587    1.7172 H   0  0  0  0  0  0  0  0  0  0  0  0
  1  3  1  0  0  0  0
  1  7  1  0  0  0  0
  1  2  2  0  0  0  0
 29 30  1  0  0  0  0
 30 38  1  0  0  0  0
 30 31  2  0  0  0  0
  8  9  1  0  0  0  0
  9 17  1  0  0  0  0
  9 10  2  0  0  0  0
 18 19  1  0  0  0  0
 19 28  1  0  0  0  0
 19 20  2  0  0  0  0
 29 32  1  0  0  0  0
  8 11  1  0  0  0  0
 38 39  1  0  0  0  0
 18 21  1  0  0  0  0
 21 22  1  0  0  0  0
 28 29  1  0  0  0  0
  7  8  1  0  0  0  0
 17 18  1  0  0  0  0
  3  4  1  0  0  0  0
  3  5  1  0  0  0  0
  3  6  1  0  0  0  0
 32 35  1  0  0  0  0
 32 36  1  0  0  0  0
 32 37  1  0  0  0  0
 11 14  1  0  0  0  0
 11 15  1  0  0  0  0
 11 16  1  0  0  0  0
 39 41  1  0  0  0  0
 39 42  1  0  0  0  0
 39 43  1  0  0  0  0
 21 25  1  0  0  0  0
 21 26  1  0  0  0  0
 29 34  1  0  0  0  0
  8 13  1  0  0  0  0
 18 24  1  0  0  0  0
 38 40  1  0  0  0  0
  7 12  1  0  0  0  0
 28 33  1  0  0  0  0
 17 23  1  0  0  0  0
 22 27  1  0  0  0  0
M  END
$$$$

  -OEChem-05262214473D

 43 42  0     1  0  0  0  0  0999 V2000
    0.7424   -1.0926    4.5665 C   0  0  0  0  0  0  0  0  0  0  0  0
    0.1409   -0.5364    5.4779 O   0  0  0  0  0  0  0  0  0  0  0  0
    1.7940   -2.1023    4.8871 C   0  0  0  0  0  0  0  0  0  0  0  0
    2.7935   -1.6502    4.9904 H   0  0  0  0  0  0  0  0  0  0  0  0
    1.6064   -2.6156    5.8438 H   0  0  0  0  0  0  0  0  0  0  0  0
    1.9156   -2.9078    4.1453 H   0  0  0  0  0  0  0  0  0  0  0  0
    0.5488   -0.8838    3.2109 N   0  0  0  0  0  0  0  0  0  0  0  0
   -0.4159    0.0446    2.6829 C   0  0  2  0  0  0  0  0  0  0  0  0
   -0.7551   -0.3867    1.2623 C   0  0  0  0  0  0  0  0  0  0  0  0
   -0.0106   -1.0851    0.5774 O   0  0  0  0  0  0  0  0  0  0  0  0
    0.1168    1.4689    2.7060 C   0  0  0  0  0  0  0  0  0  0  0  0
    1.1183   -1.4145    2.5542 H   0  0  0  0  0  0  0  0  0  0  0  0
   -1.3088   -0.0350    3.3125 H   0  0  0  0  0  0  0  0  0  0  0  0
    1.0116    1.5681    2.0808 H   0  0  0  0  0  0  0  0  0  0  0  0
   -0.6289    2.1775    2.3307 H   0  0  0  0  0  0  0  0  0  0  0  0
    0.3882    1.7670    3.7245 H   0  0  0  0  0  0  0  0  0  0  0  0
   -1.9689    0.1350    0.8298 N   0  0  0  0  0  0  0  0  0  0  0  0
   -2.5039   -0.1183   -0.4830 C   0  0  2  0  0  0  0  0  0  0  0  0
   -4.0256   -0.0861   -0.3923 C   0  0  0  0  0  0  0  0  0  0  0  0
   -4.7539   -0.7751   -1.1037 O   0  0  0  0  0  0  0  0  0  0  0  0
   -1.9941   -1.4371   -1.0554 C   0  0  0  0  0  0  0  0  0  0  0  0
   -2.4881   -2.5303   -0.2898 O   0  0  0  0  0  0  0  0  0  0  0  0
   -2.5276    0.6894    1.4750 H   0  0  0  0  0  0  0  0  0  0  0  0
   -2.1692    0.7103   -1.1176 H   0  0  0  0  0  0  0  0  0  0  0  0
   -0.9002   -1.4770   -1.0374 H   0  0  0  0  0  0  0  0  0  0  0  0
   -2.3331   -1.5649   -2.0890 H   0  0  0  0  0  0  0  0  0  0  0  0
   -3.4563   -2.4900   -0.3397 H   0  0  0  0  0  0  0  0  0  0  0  0
   -4.4713    0.7696    0.6052 N   0  0  0  0  0  0  0  0  0  0  0  0
   -5.8711    0.9529    0.9110 C   0  0  2  0  0  0  0  0  0  0  0  0
   -6.5806   -0.3749    0.6806 C   0  0  0  0  0  0  0  0  0  0  0  0
   -6.1355   -1.2548   -0.0533 O   0  0  0  0  0  0  0  0  0  0  0  0
   -6.4845    2.0521    0.0577 C   0  0  0  0  0  0  0  0  0  0  0  0
   -3.7940    1.2705    1.1727 H   0  0  0  0  0  0  0  0  0  0  0  0
   -5.9307    1.2203    1.9716 H   0  0  0  0  0  0  0  0  0  0  0  0
   -6.4339    1.8019   -1.0083 H   0  0  0  0  0  0  0  0  0  0  0  0
   -7.5383    2.2093    0.3106 H   0  0  0  0  0  0  0  0  0  0  0  0
   -5.9541    2.9995    0.2023 H   0  0  0  0  0  0  0  0  0  0  0  0
   -7.7904   -0.4444    1.3571 N   0  0  0  0  0  0  0  0  0  0  0  0
   -8.6569   -1.5979    1.2886 C   0  0  0  0  0  0  0  0  0  0  0  0
   -8.0717    0.3246    1.9582 H   0  0  0  0  0  0  0  0  0  0  0  0
   -9.3891   -1.4596    0.4795 H   0  0  0  0  0  0  0  0  0  0  0  0
   -8.0552   -2.4969    1.0888 H   0  0  0  0  0  0  0  0  0  0  0  0
   -9.1861   -1.7162    2.2457 H   0  0  0  0  0  0  0  0  0  0  0  0
  1  3  1  0  0  0  0
  1  7  1  0  0  0  0
  1  2  2  0  0  0  0
 29 30  1  0  0  0  0
 30 38  1  0  0  0  0
 30 31  2  0  0  0  0
  8  9  1  0  0  0  0
  9 17  1  0  0  0  0
  9 10  2  0  0  0  0
 18 19  1  0  0  0  0
 19 28  1  0  0  0  0
 19 20  2  0  0  0  0
 29 32  1  0  0  0  0
  8 11  1  0  0  0  0
 38 39  1  0  0  0  0
 18 21  1  0  0  0  0
 21 22  1  0  0  0  0
 28 29  1  0  0  0  0
  7  8  1  0  0  0  0
 17 18  1  0  0  0  0
  3  4  1  0  0  0  0
  3  5  1  0  0  0  0
  3  6  1  0  0  0  0
 32 35  1  0  0  0  0
 32 36  1  0  0  0  0
 32 37  1  0  0  0  0
 11 14  1  0  0  0  0
 11 15  1  0  0  0  0
 11 16  1  0  0  0  0
 39 41  1  0  0  0  0
 39 42  1  0  0  0  0
 39 43  1  0  0  0  0
 21 25  1  0  0  0  0
 21 26  1  0  0  0  0
 29 34  1  0  0  0  0
  8 13  1  0  0  0  0
 18 24  1  0  0  0  0
 38 40  1  0  0  0  0
  7 12  1  0  0  0  0
 28 33  1  0  0  0  0
 17 23  1  0  0  0  0
 22 27  1  0  0  0  0
M  END
$$$$

  -OEChem-05262214473D

 43 42  0     1  0  0  0  0  0999 V2000
    0.7424   -1.0926    4.5665 C   0  0  0  0  0  0  0  0  0  0  0  0
    0.1409   -0.5364    5.4779 O   0  0  0  0  0  0  0  0  0  0  0  0
    1.7940   -2.1023    4.8871 C   0  0  0  0  0  0  0  0  0  0  0  0
    2.7935   -1.6502    4.9904 H   0  0  0  0  0  0  0  0  0  0  0  0
    1.6064   -2.6156    5.8438 H   0  0  0  0  0  0  0  0  0  0  0  0
    1.9156   -2.9078    4.1453 H   0  0  0  0  0  0  0  0  0  0  0  0
    0.5488   -0.8838    3.2109 N   0  0  0  0  0  0  0  0  0  0  0  0
   -0.4159    0.0446    2.6829 C   0  0  2  0  0  0  0  0  0  0  0  0
   -0.7551   -0.3867    1.2623 C   0  0  0  0  0  0  0  0  0  0  0  0
   -0.0106   -1.0851    0.5774 O   0  0  0  0  0  0  0  0  0  0  0  0
    0.1168    1.4689    2.7060 C   0  0  0  0  0  0  0  0  0  0  0  0
    1.1183   -1.4145    2.5542 H   0  0  0  0  0  0  0  0  0  0  0  0
   -1.3088   -0.0350    3.3125 H   0  0  0  0  0  0  0  0  0  0  0  0
    1.0116    1.5681    2.0808 H   0  0  0  0  0  0  0  0  0  0  0  0
   -0.6289    2.1775    2.3307 H   0  0  0  0  0  0  0  0  0  0  0  0
    0.3882    1.7670    3.7245 H   0  0  0  0  0  0  0  0  0  0  0  0
   -1.9689    0.1350    0.8298 N   0  0  0  0  0  0  0  0  0  0  0  0
   -2.5039   -0.1183   -0.4830 C   0  0  2  0  0  0  0  0  0  0  0  0
   -4.0256   -0.0861   -0.3923 C   0  0  0  0  0  0  0  0  0  0  0  0
   -4.7451   -0.9461   -0.8962 O   0  0  0  0  0  0  0  0  0  0  0  0
   -1.9941   -1.4371   -1.0554 C   0  0  0  0  0  0  0  0  0  0  0  0
   -2.4881   -2.5303   -0.2898 O   0  0  0  0  0  0  0  0  0  0  0  0
   -2.5276    0.6894    1.4750 H   0  0  0  0  0  0  0  0  0  0  0  0
   -2.1692    0.7103   -1.1176 H   0  0  0  0  0  0  0  0  0  0  0  0
   -0.9002   -1.4770   -1.0374 H   0  0  0  0  0  0  0  0  0  0  0  0
   -2.3331   -1.5649   -2.0890 H   0  0  0  0  0  0  0  0  0  0  0  0
   -3.4563   -2.4900   -0.3397 H   0  0  0  0  0  0  0  0  0  0  0  0
   -4.4816    0.9915    0.3537 N   0  0  0  0  0  0  0  0  0  0  0  0
   -5.8831    1.2271    0.6122 C   0  0  2  0  0  0  0  0  0  0  0  0
   -6.5719   -0.1254    0.7379 C   0  0  0  0  0  0  0  0  0  0  0  0
   -6.1152   -1.1585    0.2528 O   0  0  0  0  0  0  0  0  0  0  0  0
   -6.5171    2.0594   -0.4914 C   0  0  0  0  0  0  0  0  0  0  0  0
   -3.8105    1.6319    0.7675 H   0  0  0  0  0  0  0  0  0  0  0  0
   -5.9434    1.7585    1.5682 H   0  0  0  0  0  0  0  0  0  0  0  0
   -6.4662    1.5431   -1.4569 H   0  0  0  0  0  0  0  0  0  0  0  0
   -7.5724    2.2612   -0.2798 H   0  0  0  0  0  0  0  0  0  0  0  0
   -6.0015    3.0197   -0.6004 H   0  0  0  0  0  0  0  0  0  0  0  0
   -7.7781   -0.0356    1.4185 N   0  0  0  0  0  0  0  0  0  0  0  0
   -8.6261   -1.1802    1.6567 C   0  0  0  0  0  0  0  0  0  0  0  0
   -8.0697    0.8584    1.8027 H   0  0  0  0  0  0  0  0  0  0  0  0
   -9.3632   -1.2664    0.8448 H   0  0  0  0  0  0  0  0  0  0  0  0
   -8.0107   -2.0913    1.6912 H   0  0  0  0  0  0  0  0  0  0  0  0
   -9.1500   -1.0550    2.6157 H   0  0  0  0  0  0  0  0  0  0  0  0
  1  3  1  0  0  0  0
  1  7  1  0  0  0  0
  1  2  2  0  0  0  0
 29 30  1  0  0  0  0
 30 38  1  0  0  0  0
 30 31  2  0  0  0  0
  8  9  1  0  0  0  0
  9 17  1  0  0  0  0
  9 10  2  0  0  0  0
 18 19  1  0  0  0  0
 19 28  1  0  0  0  0
 19 20  2  0  0  0  0
 29 32  1  0  0  0  0
  8 11  1  0  0  0  0
 38 39  1  0  0  0  0
 18 21  1  0  0  0  0
 21 22  1  0  0  0  0
 28 29  1  0  0  0  0
  7  8  1  0  0  0  0
 17 18  1  0  0  0  0
  3  4  1  0  0  0  0
  3  5  1  0  0  0  0
  3  6  1  0  0  0  0
 32 35  1  0  0  0  0
 32 36  1  0  0  0  0
 32 37  1  0  0  0  0
 11 14  1  0  0  0  0
 11 15  1  0  0  0  0
 11 16  1  0  0  0  0
 39 41  1  0  0  0  0
 39 42  1  0  0  0  0
 39 43  1  0  0  0  0
 21 25  1  0  0  0  0
 21 26  1  0  0  0  0
 29 34  1  0  0  0  0
  8 13  1  0  0  0  0
 18 24  1  0  0  0  0
 38 40  1  0  0  0  0
  7 12  1  0  0  0  0
 28 33  1  0  0  0  0
 17 23  1  0  0  0  0
 22 27  1  0  0  0  0
M  END
$$$$

  -OEChem-05262214473D

 43 42  0     1  0  0  0  0  0999 V2000
    0.7424   -1.0926    4.5665 C   0  0  0  0  0  0  0  0  0  0  0  0
    0.1409   -0.5364    5.4779 O   0  0  0  0  0  0  0  0  0  0  0  0
    1.7940   -2.1023    4.8871 C   0  0  0  0  0  0  0  0  0  0  0  0
    2.7935   -1.6502    4.9904 H   0  0  0  0  0  0  0  0  0  0  0  0
    1.6064   -2.6156    5.8438 H   0  0  0  0  0  0  0  0  0  0  0  0
    1.9156   -2.9078    4.1453 H   0  0  0  0  0  0  0  0  0  0  0  0
    0.5488   -0.8838    3.2109 N   0  0  0  0  0  0  0  0  0  0  0  0
   -0.4159    0.0446    2.6829 C   0  0  2  0  0  0  0  0  0  0  0  0
   -0.7551   -0.3867    1.2623 C   0  0  0  0  0  0  0  0  0  0  0  0
   -0.0106   -1.0851    0.5774 O   0  0  0  0  0  0  0  0  0  0  0  0
    0.1168    1.4689    2.7060 C   0  0  0  0  0  0  0  0  0  0  0  0
    1.1183   -1.4145    2.5542 H   0  0  0  0  0  0  0  0  0  0  0  0
   -1.3088   -0.0350    3.3125 H   0  0  0  0  0  0  0  0  0  0  0  0
    1.0116    1.5681    2.0808 H   0  0  0  0  0  0  0  0  0  0  0  0
   -0.6289    2.1775    2.3307 H   0  0  0  0  0  0  0  0  0  0  0  0
    0.3882    1.7670    3.7245 H   0  0  0  0  0  0  0  0  0  0  0  0
   -1.9689    0.1350    0.8298 N   0  0  0  0  0  0  0  0  0  0  0  0
   -2.5039   -0.1183   -0.4830 C   0  0  2  0  0  0  0  0  0  0  0  0
   -4.0256   -0.0861   -0.3923 C   0  0  0  0  0  0  0  0  0  0  0  0
   -4.7329   -1.0576   -0.6516 O   0  0  0  0  0  0  0  0  0  0  0  0
   -1.9941   -1.4371   -1.0554 C   0  0  0  0  0  0  0  0  0  0  0  0
   -2.4881   -2.5303   -0.2898 O   0  0  0  0  0  0  0  0  0  0  0  0
   -2.5276    0.6894    1.4750 H   0  0  0  0  0  0  0  0  0  0  0  0
   -2.1692    0.7103   -1.1176 H   0  0  0  0  0  0  0  0  0  0  0  0
   -0.9002   -1.4770   -1.0374 H   0  0  0  0  0  0  0  0  0  0  0  0
   -2.3331   -1.5649   -2.0890 H   0  0  0  0  0  0  0  0  0  0  0  0
   -3.4563   -2.4900   -0.3397 H   0  0  0  0  0  0  0  0  0  0  0  0
   -4.4963    1.1409    0.0534 N   0  0  0  0  0  0  0  0  0  0  0  0
   -5.9006    1.4145    0.2529 C   0  0  2  0  0  0  0  0  0  0  0  0
   -6.5670    0.1305    0.7288 C   0  0  0  0  0  0  0  0  0  0  0  0
   -6.0954   -0.9860    0.5235 O   0  0  0  0  0  0  0  0  0  0  0  0
   -6.5517    1.9241   -1.0235 C   0  0  0  0  0  0  0  0  0  0  0  0
   -3.8343    1.8762    0.2828 H   0  0  0  0  0  0  0  0  0  0  0  0
   -5.9662    2.1740    1.0396 H   0  0  0  0  0  0  0  0  0  0  0  0
   -6.4958    1.1767   -1.8233 H   0  0  0  0  0  0  0  0  0  0  0  0
   -7.6093    2.1582   -0.8632 H   0  0  0  0  0  0  0  0  0  0  0  0
   -6.0520    2.8311   -1.3806 H   0  0  0  0  0  0  0  0  0  0  0  0
   -7.7722    0.3754    1.3720 N   0  0  0  0  0  0  0  0  0  0  0  0
   -8.6008   -0.6812    1.9041 C   0  0  0  0  0  0  0  0  0  0  0  0
   -8.0768    1.3339    1.5145 H   0  0  0  0  0  0  0  0  0  0  0  0
   -9.3392   -0.9850    1.1475 H   0  0  0  0  0  0  0  0  0  0  0  0
   -7.9707   -1.5433    2.1682 H   0  0  0  0  0  0  0  0  0  0  0  0
   -9.1234   -0.3201    2.8022 H   0  0  0  0  0  0  0  0  0  0  0  0
  1  3  1  0  0  0  0
  1  7  1  0  0  0  0
  1  2  2  0  0  0  0
 29 30  1  0  0  0  0
 30 38  1  0  0  0  0
 30 31  2  0  0  0  0
  8  9  1  0  0  0  0
  9 17  1  0  0  0  0
  9 10  2  0  0  0  0
 18 19  1  0  0  0  0
 19 28  1  0  0  0  0
 19 20  2  0  0  0  0
 29 32  1  0  0  0  0
  8 11  1  0  0  0  0
 38 39  1  0  0  0  0
 18 21  1  0  0  0  0
 21 22  1  0  0  0  0
 28 29  1  0  0  0  0
  7  8  1  0  0  0  0
 17 18  1  0  0  0  0
  3  4  1  0  0  0  0
  3  5  1  0  0  0  0
  3  6  1  0  0  0  0
 32 35  1  0  0  0  0
 32 36  1  0  0  0  0
 32 37  1  0  0  0  0
 11 14  1  0  0  0  0
 11 15  1  0  0  0  0
 11 16  1  0  0  0  0
 39 41  1  0  0  0  0
 39 42  1  0  0  0  0
 39 43  1  0  0  0  0
 21 25  1  0  0  0  0
 21 26  1  0  0  0  0
 29 34  1  0  0  0  0
  8 13  1  0  0  0  0
 18 24  1  0  0  0  0
 38 40  1  0  0  0  0
  7 12  1  0  0  0  0
 28 33  1  0  0  0  0
 17 23  1  0  0  0  0
 22 27  1  0  0  0  0
M  END
$$$$

  -OEChem-05262214473D

 43 42  0     1  0  0  0  0  0999 V2000
    0.7424   -1.0926    4.5665 C   0  0  0  0  0  0  0  0  0  0  0  0
    0.1409   -0.5364    5.4779 O   0  0  0  0  0  0  0  0  0  0  0  0
    1.7940   -2.1023    4.8871 C   0  0  0  0  0  0  0  0  0  0  0  0
    2.7935   -1.6502    4.9904 H   0  0  0  0  0  0  0  0  0  0  0  0
    1.6064   -2.6156    5.8438 H   0  0  0  0  0  0  0  0  0  0  0  0
    1.9156   -2.9078    4.1453 H   0  0  0  0  0  0  0  0  0  0  0  0
    0.5488   -0.8838    3.2109 N   0  0  0  0  0  0  0  0  0  0  0  0
   -0.4159    0.0446    2.6829 C   0  0  2  0  0  0  0  0  0  0  0  0
   -0.7551   -0.3867    1.2623 C   0  0  0  0  0  0  0  0  0  0  0  0
   -0.0106   -1.0851    0.5774 O   0  0  0  0  0  0  0  0  0  0  0  0
    0.1168    1.4689    2.7060 C   0  0  0  0  0  0  0  0  0  0  0  0
    1.1183   -1.4145    2.5542 H   0  0  0  0  0  0  0  0  0  0  0  0
   -1.3088   -0.0350    3.3125 H   0  0  0  0  0  0  0  0  0  0  0  0
    1.0116    1.5681    2.0808 H   0  0  0  0  0  0  0  0  0  0  0  0
   -0.6289    2.1775    2.3307 H   0  0  0  0  0  0  0  0  0  0  0  0
    0.3882    1.7670    3.7245 H   0  0  0  0  0  0  0  0  0  0  0  0
   -1.9689    0.1350    0.8298 N   0  0  0  0  0  0  0  0  0  0  0  0
   -2.5039   -0.1183   -0.4830 C   0  0  2  0  0  0  0  0  0  0  0  0
   -4.0256   -0.0861   -0.3923 C   0  0  0  0  0  0  0  0  0  0  0  0
   -4.7180   -1.1019   -0.3866 O   0  0  0  0  0  0  0  0  0  0  0  0
   -1.9941   -1.4371   -1.0554 C   0  0  0  0  0  0  0  0  0  0  0  0
   -2.4881   -2.5303   -0.2898 O   0  0  0  0  0  0  0  0  0  0  0  0
   -2.5276    0.6894    1.4750 H   0  0  0  0  0  0  0  0  0  0  0  0
   -2.1692    0.7103   -1.1176 H   0  0  0  0  0  0  0  0  0  0  0  0
   -0.9002   -1.4770   -1.0374 H   0  0  0  0  0  0  0  0  0  0  0  0
   -2.3331   -1.5649   -2.0890 H   0  0  0  0  0  0  0  0  0  0  0  0
   -3.4563   -2.4900   -0.3397 H   0  0  0  0  0  0  0  0  0  0  0  0
   -4.5145    1.2073   -0.2751 N   0  0  0  0  0  0  0  0  0  0  0  0
   -5.9223    1.5026   -0.1426 C   0  0  2  0  0  0  0  0  0  0  0  0
   -6.5663    0.3754    0.6538 C   0  0  0  0  0  0  0  0  0  0  0  0
   -6.0775   -0.7492    0.7403 O   0  0  0  0  0  0  0  0  0  0  0  0
   -6.5859    1.6555   -1.5023 C   0  0  0  0  0  0  0  0  0  0  0  0
   -3.8636    1.9866   -0.2484 H   0  0  0  0  0  0  0  0  0  0  0  0
   -5.9974    2.4384    0.4218 H   0  0  0  0  0  0  0  0  0  0  0  0
   -6.5207    0.7277   -2.0824 H   0  0  0  0  0  0  0  0  0  0  0  0
   -7.6467    1.9074   -1.4000 H   0  0  0  0  0  0  0  0  0  0  0  0
   -6.1022    2.4466   -2.0853 H   0  0  0  0  0  0  0  0  0  0  0  0
   -7.7731    0.7604    1.2210 N   0  0  0  0  0  0  0  0  0  0  0  0
   -8.5827   -0.1349    2.0140 C   0  0  0  0  0  0  0  0  0  0  0  0
   -8.0926    1.7186    1.1133 H   0  0  0  0  0  0  0  0  0  0  0  0
   -9.3187   -0.6346    1.3672 H   0  0  0  0  0  0  0  0  0  0  0  0
   -7.9379   -0.8901    2.4871 H   0  0  0  0  0  0  0  0  0  0  0  0
   -9.1079    0.4382    2.7923 H   0  0  0  0  0  0  0  0  0  0  0  0
  1  3  1  0  0  0  0
  1  7  1  0  0  0  0
  1  2  2  0  0  0  0
 29 30  1  0  0  0  0
 30 38  1  0  0  0  0
 30 31  2  0  0  0  0
  8  9  1  0  0  0  0
  9 17  1  0  0  0  0
  9 10  2  0  0  0  0
 18 19  1  0  0  0  0
 19 28  1  0  0  0  0
 19 20  2  0  0  0  0
 29 32  1  0  0  0  0
  8 11  1  0  0  0  0
 38 39  1  0  0  0  0
 18 21  1  0  0  0  0
 21 22  1  0  0  0  0
 28 29  1  0  0  0  0
  7  8  1  0  0  0  0
 17 18  1  0  0  0  0
  3  4  1  0  0  0  0
  3  5  1  0  0  0  0
  3  6  1  0  0  0  0
 32 35  1  0  0  0  0
 32 36  1  0  0  0  0
 32 37  1  0  0  0  0
 11 14  1  0  0  0  0
 11 15  1  0  0  0  0
 11 16  1  0  0  0  0
 39 41  1  0  0  0  0
 39 42  1  0  0  0  0
 39 43  1  0  0  0  0
 21 25  1  0  0  0  0
 21 26  1  0  0  0  0
 29 34  1  0  0  0  0
  8 13  1  0  0  0  0
 18 24  1  0  0  0  0
 38 40  1  0  0  0  0
  7 12  1  0  0  0  0
 28 33  1  0  0  0  0
 17 23  1  0  0  0  0
 22 27  1  0  0  0  0
M  END
$$$$

  -OEChem-05262214473D

 43 42  0     1  0  0  0  0  0999 V2000
    0.7424   -1.0926    4.5665 C   0  0  0  0  0  0  0  0  0  0  0  0
    0.1409   -0.5364    5.4779 O   0  0  0  0  0  0  0  0  0  0  0  0
    1.7940   -2.1023    4.8871 C   0  0  0  0  0  0  0  0  0  0  0  0
    2.7935   -1.6502    4.9904 H   0  0  0  0  0  0  0  0  0  0  0  0
    1.6064   -2.6156    5.8438 H   0  0  0  0  0  0  0  0  0  0  0  0
    1.9156   -2.9078    4.1453 H   0  0  0  0  0  0  0  0  0  0  0  0
    0.5488   -0.8838    3.2109 N   0  0  0  0  0  0  0  0  0  0  0  0
   -0.4159    0.0446    2.6829 C   0  0  2  0  0  0  0  0  0  0  0  0
   -0.7551   -0.3867    1.2623 C   0  0  0  0  0  0  0  0  0  0  0  0
   -0.0106   -1.0851    0.5774 O   0  0  0  0  0  0  0  0  0  0  0  0
    0.1168    1.4689    2.7060 C   0  0  0  0  0  0  0  0  0  0  0  0
    1.1183   -1.4145    2.5542 H   0  0  0  0  0  0  0  0  0  0  0  0
   -1.3088   -0.0350    3.3125 H   0  0  0  0  0  0  0  0  0  0  0  0
    1.0116    1.5681    2.0808 H   0  0  0  0  0  0  0  0  0  0  0  0
   -0.6289    2.1775    2.3307 H   0  0  0  0  0  0  0  0  0  0  0  0
    0.3882    1.7670    3.7245 H   0  0  0  0  0  0  0  0  0  0  0  0
   -1.9689    0.1350    0.8298 N   0  0  0  0  0  0  0  0  0  0  0  0
   -2.5039   -0.1183   -0.4830 C   0  0  2  0  0  0  0  0  0  0  0  0
   -4.0256   -0.0861   -0.3923 C   0  0  0  0  0  0  0  0  0  0  0  0
   -4.7016   -1.0760   -0.1193 O   0  0  0  0  0  0  0  0  0  0  0  0
   -1.9941   -1.4371   -1.0554 C   0  0  0  0  0  0  0  0  0  0  0  0
   -2.4881   -2.5303   -0.2898 O   0  0  0  0  0  0  0  0  0  0  0  0
   -2.5276    0.6894    1.4750 H   0  0  0  0  0  0  0  0  0  0  0  0
   -2.1692    0.7103   -1.1176 H   0  0  0  0  0  0  0  0  0  0  0  0
   -0.9002   -1.4770   -1.0374 H   0  0  0  0  0  0  0  0  0  0  0  0
   -2.3331   -1.5649   -2.0890 H   0  0  0  0  0  0  0  0  0  0  0  0
   -3.4563   -2.4900   -0.3397 H   0  0  0  0  0  0  0  0  0  0  0  0
   -4.5349    1.1863   -0.6094 N   0  0  0  0  0  0  0  0  0  0  0  0
   -5.9468    1.4851   -0.5471 C   0  0  2  0  0  0  0  0  0  0  0  0
   -6.5698    0.5926    0.5181 C   0  0  0  0  0  0  0  0  0  0  0  0
   -6.0626   -0.4641    0.8884 O   0  0  0  0  0  0  0  0  0  0  0  0
   -6.6175    1.2718   -1.8952 C   0  0  0  0  0  0  0  0  0  0  0  0
   -3.8966    1.9555   -0.7898 H   0  0  0  0  0  0  0  0  0  0  0  0
   -6.0350    2.5338   -0.2431 H   0  0  0  0  0  0  0  0  0  0  0  0
   -6.5393    0.2267   -2.2165 H   0  0  0  0  0  0  0  0  0  0  0  0
   -7.6818    1.5260   -1.8536 H   0  0  0  0  0  0  0  0  0  0  0  0
   -6.1486    1.8925   -2.6664 H   0  0  0  0  0  0  0  0  0  0  0  0
   -7.7807    1.0933    0.9756 N   0  0  0  0  0  0  0  0  0  0  0  0
   -8.5730    0.4215    1.9790 C   0  0  0  0  0  0  0  0  0  0  0  0
   -8.1160    1.9864    0.6266 H   0  0  0  0  0  0  0  0  0  0  0  0
   -9.3031   -0.2391    1.4887 H   0  0  0  0  0  0  0  0  0  0  0  0
   -7.9145   -0.1763    2.6263 H   0  0  0  0  0  0  0  0  0  0  0  0
   -9.1047    1.1684    2.5868 H   0  0  0  0  0  0  0  0  0  0  0  0
  1  3  1  0  0  0  0
  1  7  1  0  0  0  0
  1  2  2  0  0  0  0
 29 30  1  0  0  0  0
 30 38  1  0  0  0  0
 30 31  2  0  0  0  0
  8  9  1  0  0  0  0
  9 17  1  0  0  0  0
  9 10  2  0  0  0  0
 18 19  1  0  0  0  0
 19 28  1  0  0  0  0
 19 20  2  0  0  0  0
 29 32  1  0  0  0  0
  8 11  1  0  0  0  0
 38 39  1  0  0  0  0
 18 21  1  0  0  0  0
 21 22  1  0  0  0  0
 28 29  1  0  0  0  0
  7  8  1  0  0  0  0
 17 18  1  0  0  0  0
  3  4  1  0  0  0  0
  3  5  1  0  0  0  0
  3  6  1  0  0  0  0
 32 35  1  0  0  0  0
 32 36  1  0  0  0  0
 32 37  1  0  0  0  0
 11 14  1  0  0  0  0
 11 15  1  0  0  0  0
 11 16  1  0  0  0  0
 39 41  1  0  0  0  0
 39 42  1  0  0  0  0
 39 43  1  0  0  0  0
 21 25  1  0  0  0  0
 21 26  1  0  0  0  0
 29 34  1  0  0  0  0
  8 13  1  0  0  0  0
 18 24  1  0  0  0  0
 38 40  1  0  0  0  0
  7 12  1  0  0  0  0
 28 33  1  0  0  0  0
 17 23  1  0  0  0  0
 22 27  1  0  0  0  0
M  END
$$$$

  -OEChem-05262214473D

 43 42  0     1  0  0  0  0  0999 V2000
    0.7424   -1.0926    4.5665 C   0  0  0  0  0  0  0  0  0  0  0  0
    0.1409   -0.5364    5.4779 O   0  0  0  0  0  0  0  0  0  0  0  0
    1.7940   -2.1023    4.8871 C   0  0  0  0  0  0  0  0  0  0  0  0
    2.7935   -1.6502    4.9904 H   0  0  0  0  0  0  0  0  0  0  0  0
    1.6064   -2.6156    5.8438 H   0  0  0  0  0  0  0  0  0  0  0  0
    1.9156   -2.9078    4.1453 H   0  0  0  0  0  0  0  0  0  0  0  0
    0.5488   -0.8838    3.2109 N   0  0  0  0  0  0  0  0  0  0  0  0
   -0.4159    0.0446    2.6829 C   0  0  2  0  0  0  0  0  0  0  0  0
   -0.7551   -0.3867    1.2623 C   0  0  0  0  0  0  0  0  0  0  0  0
   -0.0106   -1.0851    0.5774 O   0  0  0  0  0  0  0  0  0  0  0  0
    0.1168    1.4689    2.7060 C   0  0  0  0  0  0  0  0  0  0  0  0
    1.1183   -1.4145    2.5542 H   0  0  0  0  0  0  0  0  0  0  0  0
   -1.3088   -0.0350    3.3125 H   0  0  0  0  0  0  0  0  0  0  0  0
    1.0116    1.5681    2.0808 H   0  0  0  0  0  0  0  0  0  0  0  0
   -0.6289    2.1775    2.3307 H   0  0  0  0  0  0  0  0  0  0  0  0
    0.3882    1.7670    3.7245 H   0  0  0  0  0  0  0  0  0  0  0  0
   -1.9689    0.1350    0.8298 N   0  0  0  0  0  0  0  0  0  0  0  0
   -2.5039   -0.1183   -0.4830 C   0  0  2  0  0  0  0  0  0  0  0  0
   -4.0256   -0.0861   -0.3923 C   0  0  0  0  0  0  0  0  0  0  0  0
   -4.6846   -0.9817    0.1321 O   0  0  0  0  0  0  0  0  0  0  0  0
   -1.9941   -1.4371   -1.0554 C   0  0  0  0  0  0  0  0  0  0  0  0
   -2.4881   -2.5303   -0.2898 O   0  0  0  0  0  0  0  0  0  0  0  0
   -2.5276    0.6894    1.4750 H   0  0  0  0  0  0  0  0  0  0  0  0
   -2.1692    0.7103   -1.1176 H   0  0  0  0  0  0  0  0  0  0  0  0
   -0.9002   -1.4770   -1.0374 H   0  0  0  0  0  0  0  0  0  0  0  0
   -2.3331   -1.5649   -2.0890 H   0  0  0  0  0  0  0  0  0  0  0  0
   -3.4563   -2.4900   -0.3397 H   0  0  0  0  0  0  0  0  0  0  0  0
   -4.5561    1.0794   -0.9269 N   0  0  0  0  0  0  0  0  0  0  0  0
   -5.9724    1.3634   -0.9333 C   0  0  2  0  0  0  0  0  0  0  0  0
   -6.5773    0.7673    0.3310 C   0  0  0  0  0  0  0  0  0  0  0  0
   -6.0518   -0.1503    0.9578 O   0  0  0  0  0  0  0  0  0  0  0  0
   -6.6442    0.7992   -2.1755 C   0  0  0  0  0  0  0  0  0  0  0  0
   -3.9309    1.7852   -1.3045 H   0  0  0  0  0  0  0  0  0  0  0  0
   -6.0765    2.4536   -0.9097 H   0  0  0  0  0  0  0  0  0  0  0  0
   -6.5503   -0.2921   -2.2165 H   0  0  0  0  0  0  0  0  0  0  0  0
   -7.7123    1.0399   -2.1929 H   0  0  0  0  0  0  0  0  0  0  0  0
   -6.1880    1.2064   -3.0843 H   0  0  0  0  0  0  0  0  0  0  0  0
   -7.7945    1.3514    0.6527 N   0  0  0  0  0  0  0  0  0  0  0  0
   -8.5724    0.9501    1.8015 C   0  0  0  0  0  0  0  0  0  0  0  0
   -8.1453    2.1189    0.0874 H   0  0  0  0  0  0  0  0  0  0  0  0
   -9.2935    0.1745    1.5039 H   0  0  0  0  0  0  0  0  0  0  0  0
   -7.9021    0.5494    2.5762 H   0  0  0  0  0  0  0  0  0  0  0  0
   -9.1140    1.8207    2.1997 H   0  0  0  0  0  0  0  0  0  0  0  0
  1  3  1  0  0  0  0
  1  7  1  0  0  0  0
  1  2  2  0  0  0  0
 29 30  1  0  0  0  0
 30 38  1  0  0  0  0
 30 31  2  0  0  0  0
  8  9  1  0  0  0  0
  9 17  1  0  0  0  0
  9 10  2  0  0  0  0
 18 19  1  0  0  0  0
 19 28  1  0  0  0  0
 19 20  2  0  0  0  0
 29 32  1  0  0  0  0
  8 11  1  0  0  0  0
 38 39  1  0  0  0  0
 18 21  1  0  0  0  0
 21 22  1  0  0  0  0
 28 29  1  0  0  0  0
  7  8  1  0  0  0  0
 17 18  1  0  0  0  0
  3  4  1  0  0  0  0
  3  5  1  0  0  0  0
  3  6  1  0  0  0  0
 32 35  1  0  0  0  0
 32 36  1  0  0  0  0
 32 37  1  0  0  0  0
 11 14  1  0  0  0  0
 11 15  1  0  0  0  0
 11 16  1  0  0  0  0
 39 41  1  0  0  0  0
 39 42  1  0  0  0  0
 39 43  1  0  0  0  0
 21 25  1  0  0  0  0
 21 26  1  0  0  0  0
 29 34  1  0  0  0  0
  8 13  1  0  0  0  0
 18 24  1  0  0  0  0
 38 40  1  0  0  0  0
  7 12  1  0  0  0  0
 28 33  1  0  0  0  0
 17 23  1  0  0  0  0
 22 27  1  0  0  0  0
M  END
$$$$

  -OEChem-05262214473D

 43 42  0     1  0  0  0  0  0999 V2000
    0.7424   -1.0926    4.5665 C   0  0  0  0  0  0  0  0  0  0  0  0
    0.1409   -0.5364    5.4779 O   0  0  0  0  0  0  0  0  0  0  0  0
    1.7940   -2.1023    4.8871 C   0  0  0  0  0  0  0  0  0  0  0  0
    2.7935   -1.6502    4.9904 H   0  0  0  0  0  0  0  0  0  0  0  0
    1.6064   -2.6156    5.8438 H   0  0  0  0  0  0  0  0  0  0  0  0
    1.9156   -2.9078    4.1453 H   0  0  0  0  0  0  0  0  0  0  0  0
    0.5488   -0.8838    3.2109 N   0  0  0  0  0  0  0  0  0  0  0  0
   -0.4159    0.0446    2.6829 C   0  0  2  0  0  0  0  0  0  0  0  0
   -0.7551   -0.3867    1.2623 C   0  0  0  0  0  0  0  0  0  0  0  0
   -0.0106   -1.0851    0.5774 O   0  0  0  0  0  0  0  0  0  0  0  0
    0.1168    1.4689    2.7060 C   0  0  0  0  0  0  0  0  0  0  0  0
    1.1183   -1.4145    2.5542 H   0  0  0  0  0  0  0  0  0  0  0  0
   -1.3088   -0.0350    3.3125 H   0  0  0  0  0  0  0  0  0  0  0  0
    1.0116    1.5681    2.0808 H   0  0  0  0  0  0  0  0  0  0  0  0
   -0.6289    2.1775    2.3307 H   0  0  0  0  0  0  0  0  0  0  0  0
    0.3882    1.7670    3.7245 H   0  0  0  0  0  0  0  0  0  0  0  0
   -1.9689    0.1350    0.8298 N   0  0  0  0  0  0  0  0  0  0  0  0
   -2.5039   -0.1183   -0.4830 C   0  0  2  0  0  0  0  0  0  0  0  0
   -4.0256   -0.0861   -0.3923 C   0  0  0  0  0  0  0  0  0  0  0  0
   -4.6682   -0.8254    0.3505 O   0  0  0  0  0  0  0  0  0  0  0  0
   -1.9941   -1.4371   -1.0554 C   0  0  0  0  0  0  0  0  0  0  0  0
   -2.4881   -2.5303   -0.2898 O   0  0  0  0  0  0  0  0  0  0  0  0
   -2.5276    0.6894    1.4750 H   0  0  0  0  0  0  0  0  0  0  0  0
   -2.1692    0.7103   -1.1176 H   0  0  0  0  0  0  0  0  0  0  0  0
   -0.9002   -1.4770   -1.0374 H   0  0  0  0  0  0  0  0  0  0  0  0
   -2.3331   -1.5649   -2.0890 H   0  0  0  0  0  0  0  0  0  0  0  0
   -3.4563   -2.4900   -0.3397 H   0  0  0  0  0  0  0  0  0  0  0  0
   -4.5767    0.8938   -1.2058 N   0  0  0  0  0  0  0  0  0  0  0  0
   -5.9974    1.1456   -1.2747 C   0  0  2  0  0  0  0  0  0  0  0  0
   -6.5882    0.8876    0.1051 C   0  0  0  0  0  0  0  0  0  0  0  0
   -6.0459    0.1709    0.9437 O   0  0  0  0  0  0  0  0  0  0  0  0
   -6.6643    0.2699   -2.3240 C   0  0  0  0  0  0  0  0  0  0  0  0
   -3.9642    1.4872   -1.7575 H   0  0  0  0  0  0  0  0  0  0  0  0
   -6.1189    2.2033   -1.5327 H   0  0  0  0  0  0  0  0  0  0  0  0
   -6.5529   -0.7935   -2.0825 H   0  0  0  0  0  0  0  0  0  0  0  0
   -7.7361    0.4822   -2.3950 H   0  0  0  0  0  0  0  0  0  0  0  0
   -6.2178    0.4351   -3.3105 H   0  0  0  0  0  0  0  0  0  0  0  0
   -7.8135    1.5170    0.2741 N   0  0  0  0  0  0  0  0  0  0  0  0
   -8.5809    1.4147    1.4934 C   0  0  0  0  0  0  0  0  0  0  0  0
   -8.1787    2.1072   -0.4676 H   0  0  0  0  0  0  0  0  0  0  0  0
   -9.2904    0.5781    1.4116 H   0  0  0  0  0  0  0  0  0  0  0  0
   -7.9016    1.2377    2.3403 H   0  0  0  0  0  0  0  0  0  0  0  0
   -9.1352    2.3506    1.6573 H   0  0  0  0  0  0  0  0  0  0  0  0
  1  3  1  0  0  0  0
  1  7  1  0  0  0  0
  1  2  2  0  0  0  0
 29 30  1  0  0  0  0
 30 38  1  0  0  0  0
 30 31  2  0  0  0  0
  8  9  1  0  0  0  0
  9 17  1  0  0  0  0
  9 10  2  0  0  0  0
 18 19  1  0  0  0  0
 19 28  1  0  0  0  0
 19 20  2  0  0  0  0
 29 32  1  0  0  0  0
  8 11  1  0  0  0  0
 38 39  1  0  0  0  0
 18 21  1  0  0  0  0
 21 22  1  0  0  0  0
 28 29  1  0  0  0  0
  7  8  1  0  0  0  0
 17 18  1  0  0  0  0
  3  4  1  0  0  0  0
  3  5  1  0  0  0  0
  3  6  1  0  0  0  0
 32 35  1  0  0  0  0
 32 36  1  0  0  0  0
 32 37  1  0  0  0  0
 11 14  1  0  0  0  0
 11 15  1  0  0  0  0
 11 16  1  0  0  0  0
 39 41  1  0  0  0  0
 39 42  1  0  0  0  0
 39 43  1  0  0  0  0
 21 25  1  0  0  0  0
 21 26  1  0  0  0  0
 29 34  1  0  0  0  0
  8 13  1  0  0  0  0
 18 24  1  0  0  0  0
 38 40  1  0  0  0  0
  7 12  1  0  0  0  0
 28 33  1  0  0  0  0
 17 23  1  0  0  0  0
 22 27  1  0  0  0  0
M  END
$$$$

  -OEChem-05262214473D

 43 42  0     1  0  0  0  0  0999 V2000
    0.7424   -1.0926    4.5665 C   0  0  0  0  0  0  0  0  0  0  0  0
    0.1409   -0.5364    5.4779 O   0  0  0  0  0  0  0  0  0  0  0  0
    1.7940   -2.1023    4.8871 C   0  0  0  0  0  0  0  0  0  0  0  0
    2.7935   -1.6502    4.9904 H   0  0  0  0  0  0  0  0  0  0  0  0
    1.6064   -2.6156    5.8438 H   0  0  0  0  0  0  0  0  0  0  0  0
    1.9156   -2.9078    4.1453 H   0  0  0  0  0  0  0  0  0  0  0  0
    0.5488   -0.8838    3.2109 N   0  0  0  0  0  0  0  0  0  0  0  0
   -0.4159    0.0446    2.6829 C   0  0  2  0  0  0  0  0  0  0  0  0
   -0.7551   -0.3867    1.2623 C   0  0  0  0  0  0  0  0  0  0  0  0
   -0.0106   -1.0851    0.5774 O   0  0  0  0  0  0  0  0  0  0  0  0
    0.1168    1.4689    2.7060 C   0  0  0  0  0  0  0  0  0  0  0  0
    1.1183   -1.4145    2.5542 H   0  0  0  0  0  0  0  0  0  0  0  0
   -1.3088   -0.0350    3.3125 H   0  0  0  0  0  0  0  0  0  0  0  0
    1.0116    1.5681    2.0808 H   0  0  0  0  0  0  0  0  0  0  0  0
   -0.6289    2.1775    2.3307 H   0  0  0  0  0  0  0  0  0  0  0  0
    0.3882    1.7670    3.7245 H   0  0  0  0  0  0  0  0  0  0  0  0
   -1.9689    0.1350    0.8298 N   0  0  0  0  0  0  0  0  0  0  0  0
   -2.5039   -0.1183   -0.4830 C   0  0  2  0  0  0  0  0  0  0  0  0
   -4.0256   -0.0861   -0.3923 C   0  0  0  0  0  0  0  0  0  0  0  0
   -4.6537   -0.6178    0.5210 O   0  0  0  0  0  0  0  0  0  0  0  0
   -1.9941   -1.4371   -1.0554 C   0  0  0  0  0  0  0  0  0  0  0  0
   -2.4881   -2.5303   -0.2898 O   0  0  0  0  0  0  0  0  0  0  0  0
   -2.5276    0.6894    1.4750 H   0  0  0  0  0  0  0  0  0  0  0  0
   -2.1692    0.7103   -1.1176 H   0  0  0  0  0  0  0  0  0  0  0  0
   -0.9002   -1.4770   -1.0374 H   0  0  0  0  0  0  0  0  0  0  0  0
   -2.3331   -1.5649   -2.0890 H   0  0  0  0  0  0  0  0  0  0  0  0
   -3.4563   -2.4900   -0.3397 H   0  0  0  0  0  0  0  0  0  0  0  0
   -4.5952    0.6422   -1.4271 N   0  0  0  0  0  0  0  0  0  0  0  0
   -6.0200    0.8467   -1.5481 C   0  0  2  0  0  0  0  0  0  0  0  0
   -6.6019    0.9453   -0.1441 C   0  0  0  0  0  0  0  0  0  0  0  0
   -6.0452    0.4776    0.8471 O   0  0  0  0  0  0  0  0  0  0  0  0
   -6.6763   -0.2801   -2.3306 C   0  0  0  0  0  0  0  0  0  0  0  0
   -3.9942    1.0818   -2.1180 H   0  0  0  0  0  0  0  0  0  0  0  0
   -6.1595    1.7999   -2.0696 H   0  0  0  0  0  0  0  0  0  0  0  0
   -6.5470   -1.2432   -1.8235 H   0  0  0  0  0  0  0  0  0  0  0  0
   -7.7517   -0.1091   -2.4460 H   0  0  0  0  0  0  0  0  0  0  0  0
   -6.2360   -0.3687   -3.3296 H   0  0  0  0  0  0  0  0  0  0  0  0
   -7.8366    1.5790   -0.1342 N   0  0  0  0  0  0  0  0  0  0  0  0
   -8.5980    1.7839    1.0759 C   0  0  0  0  0  0  0  0  0  0  0  0
   -8.2137    1.9521   -1.0004 H   0  0  0  0  0  0  0  0  0  0  0  0
   -9.2942    0.9442    1.2182 H   0  0  0  0  0  0  0  0  0  0  0  0
   -7.9130    1.8417    1.9346 H   0  0  0  0  0  0  0  0  0  0  0  0
   -9.1667    2.7221    0.9966 H   0  0  0  0  0  0  0  0  0  0  0  0
  1  3  1  0  0  0  0
  1  7  1  0  0  0  0
  1  2  2  0  0  0  0
 29 30  1  0  0  0  0
 30 38  1  0  0  0  0
 30 31  2  0  0  0  0
  8  9  1  0  0  0  0
  9 17  1  0  0  0  0
  9 10  2  0  0  0  0
 18 19  1  0  0  0  0
 19 28  1  0  0  0  0
 19 20  2  0  0  0  0
 29 32  1  0  0  0  0
  8 11  1  0  0  0  0
 38 39  1  0  0  0  0
 18 21  1  0  0  0  0
 21 22  1  0  0  0  0
 28 29  1  0  0  0  0
  7  8  1  0  0  0  0
 17 18  1  0  0  0  0
  3  4  1  0  0  0  0
  3  5  1  0  0  0  0
  3  6  1  0  0  0  0
 32 35  1  0  0  0  0
 32 36  1  0  0  0  0
 32 37  1  0  0  0  0
 11 14  1  0  0  0  0
 11 15  1  0  0  0  0
 11 16  1  0  0  0  0
 39 41  1  0  0  0  0
 39 42  1  0  0  0  0
 39 43  1  0  0  0  0
 21 25  1  0  0  0  0
 21 26  1  0  0  0  0
 29 34  1  0  0  0  0
  8 13  1  0  0  0  0
 18 24  1  0  0  0  0
 38 40  1  0  0  0  0
  7 12  1  0  0  0  0
 28 33  1  0  0  0  0
 17 23  1  0  0  0  0
 22 27  1  0  0  0  0
M  END
$$$$

  -OEChem-05262214473D

 43 42  0     1  0  0  0  0  0999 V2000
    0.7424   -1.0926    4.5665 C   0  0  0  0  0  0  0  0  0  0  0  0
    0.1409   -0.5364    5.4779 O   0  0  0  0  0  0  0  0  0  0  0  0
    1.7940   -2.1023    4.8871 C   0  0  0  0  0  0  0  0  0  0  0  0
    2.7935   -1.6502    4.9904 H   0  0  0  0  0  0  0  0  0  0  0  0
    1.6064   -2.6156    5.8438 H   0  0  0  0  0  0  0  0  0  0  0  0
    1.9156   -2.9078    4.1453 H   0  0  0  0  0  0  0  0  0  0  0  0
    0.5488   -0.8838    3.2109 N   0  0  0  0  0  0  0  0  0  0  0  0
   -0.4159    0.0446    2.6829 C   0  0  2  0  0  0  0  0  0  0  0  0
   -0.7551   -0.3867    1.2623 C   0  0  0  0  0  0  0  0  0  0  0  0
   -0.0106   -1.0851    0.5774 O   0  0  0  0  0  0  0  0  0  0  0  0
    0.1168    1.4689    2.7060 C   0  0  0  0  0  0  0  0  0  0  0  0
    1.1183   -1.4145    2.5542 H   0  0  0  0  0  0  0  0  0  0  0  0
   -1.3088   -0.0350    3.3125 H   0  0  0  0  0  0  0  0  0  0  0  0
    1.0116    1.5681    2.0808 H   0  0  0  0  0  0  0  0  0  0  0  0
   -0.6289    2.1775    2.3307 H   0  0  0  0  0  0  0  0  0  0  0  0
    0.3882    1.7670    3.7245 H   0  0  0  0  0  0  0  0  0  0  0  0
   -1.9689    0.1350    0.8298 N   0  0  0  0  0  0  0  0  0  0  0  0
   -2.5039   -0.1183   -0.4830 C   0  0  2  0  0  0  0  0  0  0  0  0
   -4.0256   -0.0861   -0.3923 C   0  0  0  0  0  0  0  0  0  0  0  0
   -4.6419   -0.3729    0.6320 O   0  0  0  0  0  0  0  0  0  0  0  0
   -1.9941   -1.4371   -1.0554 C   0  0  0  0  0  0  0  0  0  0  0  0
   -2.4881   -2.5303   -0.2898 O   0  0  0  0  0  0  0  0  0  0  0  0
   -2.5276    0.6894    1.4750 H   0  0  0  0  0  0  0  0  0  0  0  0
   -2.1692    0.7103   -1.1176 H   0  0  0  0  0  0  0  0  0  0  0  0
   -0.9002   -1.4770   -1.0374 H   0  0  0  0  0  0  0  0  0  0  0  0
   -2.3331   -1.5649   -2.0890 H   0  0  0  0  0  0  0  0  0  0  0  0
   -3.4563   -2.4900   -0.3397 H   0  0  0  0  0  0  0  0  0  0  0  0
   -4.6104    0.3417   -1.5758 N   0  0  0  0  0  0  0  0  0  0  0  0
   -6.0387    0.4871   -1.7348 C   0  0  2  0  0  0  0  0  0  0  0  0
   -6.6173    0.9364   -0.3996 C   0  0  0  0  0  0  0  0  0  0  0  0
   -6.0497    0.7489    0.6745 O   0  0  0  0  0  0  0  0  0  0  0  0
   -6.6795   -0.8132   -2.1949 C   0  0  0  0  0  0  0  0  0  0  0  0
   -4.0190    0.5966   -2.3612 H   0  0  0  0  0  0  0  0  0  0  0  0
   -6.1954    1.2710   -2.4838 H   0  0  0  0  0  0  0  0  0  0  0  0
   -6.5329   -1.6105   -1.4572 H   0  0  0  0  0  0  0  0  0  0  0  0
   -7.7579   -0.6936   -2.3424 H   0  0  0  0  0  0  0  0  0  0  0  0
   -6.2412   -1.1504   -3.1404 H   0  0  0  0  0  0  0  0  0  0  0  0
   -7.8620    1.5330   -0.5444 N   0  0  0  0  0  0  0  0  0  0  0  0
   -8.6225    2.0323    0.5773 C   0  0  0  0  0  0  0  0  0  0  0  0
   -8.2481    1.6640   -1.4747 H   0  0  0  0  0  0  0  0  0  0  0  0
   -9.3046    1.2478    0.9369 H   0  0  0  0  0  0  0  0  0  0  0  0
   -7.9356    2.3201    1.3868 H   0  0  0  0  0  0  0  0  0  0  0  0
   -9.2065    2.9098    0.2627 H   0  0  0  0  0  0  0  0  0  0  0  0
  1  3  1  0  0  0  0
  1  7  1  0  0  0  0
  1  2  2  0  0  0  0
 29 30  1  0  0  0  0
 30 38  1  0  0  0  0
 30 31  2  0  0  0  0
  8  9  1  0  0  0  0
  9 17  1  0  0  0  0
  9 10  2  0  0  0  0
 18 19  1  0  0  0  0
 19 28  1  0  0  0  0
 19 20  2  0  0  0  0
 29 32  1  0  0  0  0
  8 11  1  0  0  0  0
 38 39  1  0  0  0  0
 18 21  1  0  0  0  0
 21 22  1  0  0  0  0
 28 29  1  0  0  0  0
  7  8  1  0  0  0  0
 17 18  1  0  0  0  0
  3  4  1  0  0  0  0
  3  5  1  0  0  0  0
  3  6  1  0  0  0  0
 32 35  1  0  0  0  0
 32 36  1  0  0  0  0
 32 37  1  0  0  0  0
 11 14  1  0  0  0  0
 11 15  1  0  0  0  0
 11 16  1  0  0  0  0
 39 41  1  0  0  0  0
 39 42  1  0  0  0  0
 39 43  1  0  0  0  0
 21 25  1  0  0  0  0
 21 26  1  0  0  0  0
 29 34  1  0  0  0  0
  8 13  1  0  0  0  0
 18 24  1  0  0  0  0
 38 40  1  0  0  0  0
  7 12  1  0  0  0  0
 28 33  1  0  0  0  0
 17 23  1  0  0  0  0
 22 27  1  0  0  0  0
M  END
$$$$

  -OEChem-05262214473D

 43 42  0     1  0  0  0  0  0999 V2000
    0.7424   -1.0926    4.5665 C   0  0  0  0  0  0  0  0  0  0  0  0
    0.1409   -0.5364    5.4779 O   0  0  0  0  0  0  0  0  0  0  0  0
    1.7940   -2.1023    4.8871 C   0  0  0  0  0  0  0  0  0  0  0  0
    2.7935   -1.6502    4.9904 H   0  0  0  0  0  0  0  0  0  0  0  0
    1.6064   -2.6156    5.8438 H   0  0  0  0  0  0  0  0  0  0  0  0
    1.9156   -2.9078    4.1453 H   0  0  0  0  0  0  0  0  0  0  0  0
    0.5488   -0.8838    3.2109 N   0  0  0  0  0  0  0  0  0  0  0  0
   -0.4159    0.0446    2.6829 C   0  0  2  0  0  0  0  0  0  0  0  0
   -0.7551   -0.3867    1.2623 C   0  0  0  0  0  0  0  0  0  0  0  0
   -0.0106   -1.0851    0.5774 O   0  0  0  0  0  0  0  0  0  0  0  0
    0.1168    1.4689    2.7060 C   0  0  0  0  0  0  0  0  0  0  0  0
    1.1183   -1.4145    2.5542 H   0  0  0  0  0  0  0  0  0  0  0  0
   -1.3088   -0.0350    3.3125 H   0  0  0  0  0  0  0  0  0  0  0  0
    1.0116    1.5681    2.0808 H   0  0  0  0  0  0  0  0  0  0  0  0
   -0.6289    2.1775    2.3307 H   0  0  0  0  0  0  0  0  0  0  0  0
    0.3882    1.7670    3.7245 H   0  0  0  0  0  0  0  0  0  0  0  0
   -1.9689    0.1350    0.8298 N   0  0  0  0  0  0  0  0  0  0  0  0
   -2.5039   -0.1183   -0.4830 C   0  0  2  0  0  0  0  0  0  0  0  0
   -4.0256   -0.0861   -0.3923 C   0  0  0  0  0  0  0  0  0  0  0  0
   -4.6336   -0.1076    0.6759 O   0  0  0  0  0  0  0  0  0  0  0  0
   -1.9941   -1.4371   -1.0554 C   0  0  0  0  0  0  0  0  0  0  0  0
   -2.4881   -2.5303   -0.2898 O   0  0  0  0  0  0  0  0  0  0  0  0
   -2.5276    0.6894    1.4750 H   0  0  0  0  0  0  0  0  0  0  0  0
   -2.1692    0.7103   -1.1176 H   0  0  0  0  0  0  0  0  0  0  0  0
   -0.9002   -1.4770   -1.0374 H   0  0  0  0  0  0  0  0  0  0  0  0
   -2.3331   -1.5649   -2.0890 H   0  0  0  0  0  0  0  0  0  0  0  0
   -3.4563   -2.4900   -0.3397 H   0  0  0  0  0  0  0  0  0  0  0  0
   -4.6213    0.0127   -1.6417 N   0  0  0  0  0  0  0  0  0  0  0  0
   -6.0523    0.0911   -1.8222 C   0  0  2  0  0  0  0  0  0  0  0  0
   -6.6334    0.8616   -0.6440 C   0  0  0  0  0  0  0  0  0  0  0  0
   -6.0592    0.9664    0.4378 O   0  0  0  0  0  0  0  0  0  0  0  0
   -6.6736   -1.2931   -1.9260 C   0  0  0  0  0  0  0  0  0  0  0  0
   -4.0368    0.0648   -2.4708 H   0  0  0  0  0  0  0  0  0  0  0  0
   -6.2242    0.6526   -2.7470 H   0  0  0  0  0  0  0  0  0  0  0  0
   -6.5116   -1.8706   -1.0086 H   0  0  0  0  0  0  0  0  0  0  0  0
   -7.7543   -1.2315   -2.0914 H   0  0  0  0  0  0  0  0  0  0  0  0
   -6.2332   -1.8567   -2.7556 H   0  0  0  0  0  0  0  0  0  0  0  0
   -7.8881    1.3822   -0.9287 N   0  0  0  0  0  0  0  0  0  0  0  0
   -8.6527    2.1431    0.0317 C   0  0  0  0  0  0  0  0  0  0  0  0
   -8.2795    1.2628   -1.8584 H   0  0  0  0  0  0  0  0  0  0  0  0
   -9.3208    1.4682    0.5868 H   0  0  0  0  0  0  0  0  0  0  0  0
   -7.9677    2.6403    0.7343 H   0  0  0  0  0  0  0  0  0  0  0  0
   -9.2519    2.9008   -0.4945 H   0  0  0  0  0  0  0  0  0  0  0  0
  1  3  1  0  0  0  0
  1  7  1  0  0  0  0
  1  2  2  0  0  0  0
 29 30  1  0  0  0  0
 30 38  1  0  0  0  0
 30 31  2  0  0  0  0
  8  9  1  0  0  0  0
  9 17  1  0  0  0  0
  9 10  2  0  0  0  0
 18 19  1  0  0  0  0
 19 28  1  0  0  0  0
 19 20  2  0  0  0  0
 29 32  1  0  0  0  0
  8 11  1  0  0  0  0
 38 39  1  0  0  0  0
 18 21  1  0  0  0  0
 21 22  1  0  0  0  0
 28 29  1  0  0  0  0
  7  8  1  0  0  0  0
 17 18  1  0  0  0  0
  3  4  1  0  0  0  0
  3  5  1  0  0  0  0
  3  6  1  0  0  0  0
 32 35  1  0  0  0  0
 32 36  1  0  0  0  0
 32 37  1  0  0  0  0
 11 14  1  0  0  0  0
 11 15  1  0  0  0  0
 11 16  1  0  0  0  0
 39 41  1  0  0  0  0
 39 42  1  0  0  0  0
 39 43  1  0  0  0  0
 21 25  1  0  0  0  0
 21 26  1  0  0  0  0
 29 34  1  0  0  0  0
  8 13  1  0  0  0  0
 18 24  1  0  0  0  0
 38 40  1  0  0  0  0
  7 12  1  0  0  0  0
 28 33  1  0  0  0  0
 17 23  1  0  0  0  0
 22 27  1  0  0  0  0
M  END
$$$$

  -OEChem-05262214473D

 43 42  0     1  0  0  0  0  0999 V2000
    0.7424   -1.0926    4.5665 C   0  0  0  0  0  0  0  0  0  0  0  0
    0.1409   -0.5364    5.4779 O   0  0  0  0  0  0  0  0  0  0  0  0
    1.7940   -2.1023    4.8871 C   0  0  0  0  0  0  0  0  0  0  0  0
    2.7935   -1.6502    4.9904 H   0  0  0  0  0  0  0  0  0  0  0  0
    1.6064   -2.6156    5.8438 H   0  0  0  0  0  0  0  0  0  0  0  0
    1.9156   -2.9078    4.1453 H   0  0  0  0  0  0  0  0  0  0  0  0
    0.5488   -0.8838    3.2109 N   0  0  0  0  0  0  0  0  0  0  0  0
   -0.4159    0.0446    2.6829 C   0  0  2  0  0  0  0  0  0  0  0  0
   -0.7551   -0.3867    1.2623 C   0  0  0  0  0  0  0  0  0  0  0  0
   -0.0106   -1.0851    0.5774 O   0  0  0  0  0  0  0  0  0  0  0  0
    0.1168    1.4689    2.7060 C   0  0  0  0  0  0  0  0  0  0  0  0
    1.1183   -1.4145    2.5542 H   0  0  0  0  0  0  0  0  0  0  0  0
   -1.3088   -0.0350    3.3125 H   0  0  0  0  0  0  0  0  0  0  0  0
    1.0116    1.5681    2.0808 H   0  0  0  0  0  0  0  0  0  0  0  0
   -0.6289    2.1775    2.3307 H   0  0  0  0  0  0  0  0  0  0  0  0
    0.3882    1.7670    3.7245 H   0  0  0  0  0  0  0  0  0  0  0  0
   -1.9689    0.1350    0.8298 N   0  0  0  0  0  0  0  0  0  0  0  0
   -2.5039   -0.1183   -0.4830 C   0  0  2  0  0  0  0  0  0  0  0  0
   -3.9764    0.2777   -0.4825 C   0  0  0  0  0  0  0  0  0  0  0  0
   -4.5393    0.7629    0.4967 O   0  0  0  0  0  0  0  0  0  0  0  0
   -2.3037   -1.5708   -0.9034 C   0  0  0  0  0  0  0  0  0  0  0  0
   -3.0696   -2.4347   -0.0713 O   0  0  0  0  0  0  0  0  0  0  0  0
   -2.5276    0.6894    1.4750 H   0  0  0  0  0  0  0  0  0  0  0  0
   -1.9601    0.5403   -1.1700 H   0  0  0  0  0  0  0  0  0  0  0  0
   -1.2521   -1.8632   -0.8194 H   0  0  0  0  0  0  0  0  0  0  0  0
   -2.6280   -1.7202   -1.9388 H   0  0  0  0  0  0  0  0  0  0  0  0
   -3.9981   -2.1746   -0.1798 H   0  0  0  0  0  0  0  0  0  0  0  0
   -4.5746    0.0652   -1.7165 N   0  0  0  0  0  0  0  0  0  0  0  0
   -5.9571    0.3892   -1.9818 C   0  0  2  0  0  0  0  0  0  0  0  0
   -6.3136    1.6286   -1.1717 C   0  0  0  0  0  0  0  0  0  0  0  0
   -5.6961    1.9732   -0.1662 O   0  0  0  0  0  0  0  0  0  0  0  0
   -6.8746   -0.7718   -1.6312 C   0  0  0  0  0  0  0  0  0  0  0  0
   -4.0201   -0.3039   -2.4833 H   0  0  0  0  0  0  0  0  0  0  0  0
   -6.0288    0.6178   -3.0508 H   0  0  0  0  0  0  0  0  0  0  0  0
   -6.8163   -1.0154   -0.5641 H   0  0  0  0  0  0  0  0  0  0  0  0
   -7.9191   -0.5351   -1.8596 H   0  0  0  0  0  0  0  0  0  0  0  0
   -6.5979   -1.6706   -2.1928 H   0  0  0  0  0  0  0  0  0  0  0  0
   -7.4289    2.2806   -1.6788 N   0  0  0  0  0  0  0  0  0  0  0  0
   -7.9731    3.4761   -1.0783 C   0  0  0  0  0  0  0  0  0  0  0  0
   -7.8666    1.9352   -2.5278 H   0  0  0  0  0  0  0  0  0  0  0  0
   -8.7569    3.2007   -0.3573 H   0  0  0  0  0  0  0  0  0  0  0  0
   -7.1723    4.0224   -0.5584 H   0  0  0  0  0  0  0  0  0  0  0  0
   -8.4046    4.1161   -1.8620 H   0  0  0  0  0  0  0  0  0  0  0  0
  1  3  1  0  0  0  0
  1  7  1  0  0  0  0
  1  2  2  0  0  0  0
 29 30  1  0  0  0  0
 30 38  1  0  0  0  0
 30 31  2  0  0  0  0
  8  9  1  0  0  0  0
  9 17  1  0  0  0  0
  9 10  2  0  0  0  0
 18 19  1  0  0  0  0
 19 28  1  0  0  0  0
 19 20  2  0  0  0  0
 29 32  1  0  0  0  0
  8 11  1  0  0  0  0
 38 39  1  0  0  0  0
 18 21  1  0  0  0  0
 21 22  1  0  0  0  0
 28 29  1  0  0  0  0
  7  8  1  0  0  0  0
 17 18  1  0  0  0  0
  3  4  1  0  0  0  0
  3  5  1  0  0  0  0
  3  6  1  0  0  0  0
 32 35  1  0  0  0  0
 32 36  1  0  0  0  0
 32 37  1  0  0  0  0
 11 14  1  0  0  0  0
 11 15  1  0  0  0  0
 11 16  1  0  0  0  0
 39 41  1  0  0  0  0
 39 42  1  0  0  0  0
 39 43  1  0  0  0  0
 21 25  1  0  0  0  0
 21 26  1  0  0  0  0
 29 34  1  0  0  0  0
  8 13  1  0  0  0  0
 18 24  1  0  0  0  0
 38 40  1  0  0  0  0
  7 12  1  0  0  0  0
 28 33  1  0  0  0  0
 17 23  1  0  0  0  0
 22 27  1  0  0  0  0
M  END
$$$$

  -OEChem-05262214473D

 43 42  0     1  0  0  0  0  0999 V2000
    0.7424   -1.0926    4.5665 C   0  0  0  0  0  0  0  0  0  0  0  0
    0.1409   -0.5364    5.4779 O   0  0  0  0  0  0  0  0  0  0  0  0
    1.7940   -2.1023    4.8871 C   0  0  0  0  0  0  0  0  0  0  0  0
    2.7935   -1.6502    4.9904 H   0  0  0  0  0  0  0  0  0  0  0  0
    1.6064   -2.6156    5.8438 H   0  0  0  0  0  0  0  0  0  0  0  0
    1.9156   -2.9078    4.1453 H   0  0  0  0  0  0  0  0  0  0  0  0
    0.5488   -0.8838    3.2109 N   0  0  0  0  0  0  0  0  0  0  0  0
   -0.4159    0.0446    2.6829 C   0  0  2  0  0  0  0  0  0  0  0  0
   -0.7551   -0.3867    1.2623 C   0  0  0  0  0  0  0  0  0  0  0  0
   -0.0106   -1.0851    0.5774 O   0  0  0  0  0  0  0  0  0  0  0  0
    0.1168    1.4689    2.7060 C   0  0  0  0  0  0  0  0  0  0  0  0
    1.1183   -1.4145    2.5542 H   0  0  0  0  0  0  0  0  0  0  0  0
   -1.3088   -0.0350    3.3125 H   0  0  0  0  0  0  0  0  0  0  0  0
    1.0116    1.5681    2.0808 H   0  0  0  0  0  0  0  0  0  0  0  0
   -0.6289    2.1775    2.3307 H   0  0  0  0  0  0  0  0  0  0  0  0
    0.3882    1.7670    3.7245 H   0  0  0  0  0  0  0  0  0  0  0  0
   -1.9689    0.1350    0.8298 N   0  0  0  0  0  0  0  0  0  0  0  0
   -2.5039   -0.1183   -0.4830 C   0  0  2  0  0  0  0  0  0  0  0  0
   -3.9764    0.2777   -0.4825 C   0  0  0  0  0  0  0  0  0  0  0  0
   -4.4764    0.9970    0.3799 O   0  0  0  0  0  0  0  0  0  0  0  0
   -2.3037   -1.5708   -0.9034 C   0  0  0  0  0  0  0  0  0  0  0  0
   -3.0696   -2.4347   -0.0713 O   0  0  0  0  0  0  0  0  0  0  0  0
   -2.5276    0.6894    1.4750 H   0  0  0  0  0  0  0  0  0  0  0  0
   -1.9601    0.5403   -1.1700 H   0  0  0  0  0  0  0  0  0  0  0  0
   -1.2521   -1.8632   -0.8194 H   0  0  0  0  0  0  0  0  0  0  0  0
   -2.6280   -1.7202   -1.9388 H   0  0  0  0  0  0  0  0  0  0  0  0
   -3.9981   -2.1746   -0.1798 H   0  0  0  0  0  0  0  0  0  0  0  0
   -4.6544   -0.2314   -1.5811 N   0  0  0  0  0  0  0  0  0  0  0  0
   -6.0543    0.0277   -1.8255 C   0  0  2  0  0  0  0  0  0  0  0  0
   -6.3661    1.4332   -1.3287 C   0  0  0  0  0  0  0  0  0  0  0  0
   -5.6855    2.0129   -0.4851 O   0  0  0  0  0  0  0  0  0  0  0  0
   -6.9361   -1.0010   -1.1349 C   0  0  0  0  0  0  0  0  0  0  0  0
   -4.1495   -0.7851   -2.2668 H   0  0  0  0  0  0  0  0  0  0  0  0
   -6.1996   -0.0175   -2.9103 H   0  0  0  0  0  0  0  0  0  0  0  0
   -6.8041   -0.9707   -0.0472 H   0  0  0  0  0  0  0  0  0  0  0  0
   -7.9955   -0.8201   -1.3445 H   0  0  0  0  0  0  0  0  0  0  0  0
   -6.6901   -2.0140   -1.4714 H   0  0  0  0  0  0  0  0  0  0  0  0
   -7.5186    1.9472   -1.9065 N   0  0  0  0  0  0  0  0  0  0  0  0
   -8.0316    3.2594   -1.5887 C   0  0  0  0  0  0  0  0  0  0  0  0
   -8.0094    1.4042   -2.6109 H   0  0  0  0  0  0  0  0  0  0  0  0
   -8.7627    3.1796   -0.7707 H   0  0  0  0  0  0  0  0  0  0  0  0
   -7.2024    3.9115   -1.2769 H   0  0  0  0  0  0  0  0  0  0  0  0
   -8.5203    3.6868   -2.4767 H   0  0  0  0  0  0  0  0  0  0  0  0
  1  3  1  0  0  0  0
  1  7  1  0  0  0  0
  1  2  2  0  0  0  0
 29 30  1  0  0  0  0
 30 38  1  0  0  0  0
 30 31  2  0  0  0  0
  8  9  1  0  0  0  0
  9 17  1  0  0  0  0
  9 10  2  0  0  0  0
 18 19  1  0  0  0  0
 19 28  1  0  0  0  0
 19 20  2  0  0  0  0
 29 32  1  0  0  0  0
  8 11  1  0  0  0  0
 38 39  1  0  0  0  0
 18 21  1  0  0  0  0
 21 22  1  0  0  0  0
 28 29  1  0  0  0  0
  7  8  1  0  0  0  0
 17 18  1  0  0  0  0
  3  4  1  0  0  0  0
  3  5  1  0  0  0  0
  3  6  1  0  0  0  0
 32 35  1  0  0  0  0
 32 36  1  0  0  0  0
 32 37  1  0  0  0  0
 11 14  1  0  0  0  0
 11 15  1  0  0  0  0
 11 16  1  0  0  0  0
 39 41  1  0  0  0  0
 39 42  1  0  0  0  0
 39 43  1  0  0  0  0
 21 25  1  0  0  0  0
 21 26  1  0  0  0  0
 29 34  1  0  0  0  0
  8 13  1  0  0  0  0
 18 24  1  0  0  0  0
 38 40  1  0  0  0  0
  7 12  1  0  0  0  0
 28 33  1  0  0  0  0
 17 23  1  0  0  0  0
 22 27  1  0  0  0  0
M  END
$$$$

  -OEChem-05262214473D

 43 42  0     1  0  0  0  0  0999 V2000
    0.7424   -1.0926    4.5665 C   0  0  0  0  0  0  0  0  0  0  0  0
    0.1409   -0.5364    5.4779 O   0  0  0  0  0  0  0  0  0  0  0  0
    1.7940   -2.1023    4.8871 C   0  0  0  0  0  0  0  0  0  0  0  0
    2.7935   -1.6502    4.9904 H   0  0  0  0  0  0  0  0  0  0  0  0
    1.6064   -2.6156    5.8438 H   0  0  0  0  0  0  0  0  0  0  0  0
    1.9156   -2.9078    4.1453 H   0  0  0  0  0  0  0  0  0  0  0  0
    0.5488   -0.8838    3.2109 N   0  0  0  0  0  0  0  0  0  0  0  0
   -0.4159    0.0446    2.6829 C   0  0  2  0  0  0  0  0  0  0  0  0
   -0.7551   -0.3867    1.2623 C   0  0  0  0  0  0  0  0  0  0  0  0
   -0.0106   -1.0851    0.5774 O   0  0  0  0  0  0  0  0  0  0  0  0
    0.1168    1.4689    2.7060 C   0  0  0  0  0  0  0  0  0  0  0  0
    1.1183   -1.4145    2.5542 H   0  0  0  0  0  0  0  0  0  0  0  0
   -1.3088   -0.0350    3.3125 H   0  0  0  0  0  0  0  0  0  0  0  0
    1.0116    1.5681    2.0808 H   0  0  0  0  0  0  0  0  0  0  0  0
   -0.6289    2.1775    2.3307 H   0  0  0  0  0  0  0  0  0  0  0  0
    0.3882    1.7670    3.7245 H   0  0  0  0  0  0  0  0  0  0  0  0
   -1.9689    0.1350    0.8298 N   0  0  0  0  0  0  0  0  0  0  0  0
   -2.5039   -0.1183   -0.4830 C   0  0  2  0  0  0  0  0  0  0  0  0
   -3.9764    0.2777   -0.4825 C   0  0  0  0  0  0  0  0  0  0  0  0
   -4.4235    1.1939    0.2043 O   0  0  0  0  0  0  0  0  0  0  0  0
   -2.3037   -1.5708   -0.9034 C   0  0  0  0  0  0  0  0  0  0  0  0
   -3.0696   -2.4347   -0.0713 O   0  0  0  0  0  0  0  0  0  0  0  0
   -2.5276    0.6894    1.4750 H   0  0  0  0  0  0  0  0  0  0  0  0
   -1.9601    0.5403   -1.1700 H   0  0  0  0  0  0  0  0  0  0  0  0
   -1.2521   -1.8632   -0.8194 H   0  0  0  0  0  0  0  0  0  0  0  0
   -2.6280   -1.7202   -1.9388 H   0  0  0  0  0  0  0  0  0  0  0  0
   -3.9981   -2.1746   -0.1798 H   0  0  0  0  0  0  0  0  0  0  0  0
   -4.7222   -0.4840   -1.3709 N   0  0  0  0  0  0  0  0  0  0  0  0
   -6.1376   -0.2824   -1.5775 C   0  0  2  0  0  0  0  0  0  0  0  0
   -6.4275    1.2052   -1.4280 C   0  0  0  0  0  0  0  0  0  0  0  0
   -5.6967    1.9716   -0.8038 O   0  0  0  0  0  0  0  0  0  0  0  0
   -6.9621   -1.0984   -0.5941 C   0  0  0  0  0  0  0  0  0  0  0  0
   -4.2598   -1.1958   -1.9287 H   0  0  0  0  0  0  0  0  0  0  0  0
   -6.3552   -0.5961   -2.6043 H   0  0  0  0  0  0  0  0  0  0  0  0
   -6.7576   -0.7982    0.4401 H   0  0  0  0  0  0  0  0  0  0  0  0
   -8.0347   -0.9666   -0.7705 H   0  0  0  0  0  0  0  0  0  0  0  0
   -6.7305   -2.1653   -0.6825 H   0  0  0  0  0  0  0  0  0  0  0  0
   -7.6206    1.5682   -2.0371 N   0  0  0  0  0  0  0  0  0  0  0  0
   -8.1223    2.9225   -2.0236 C   0  0  0  0  0  0  0  0  0  0  0  0
   -8.1529    0.8706   -2.5488 H   0  0  0  0  0  0  0  0  0  0  0  0
   -8.7961    3.0559   -1.1644 H   0  0  0  0  0  0  0  0  0  0  0  0
   -7.2797    3.6247   -1.9412 H   0  0  0  0  0  0  0  0  0  0  0  0
   -8.6732    3.1185   -2.9553 H   0  0  0  0  0  0  0  0  0  0  0  0
  1  3  1  0  0  0  0
  1  7  1  0  0  0  0
  1  2  2  0  0  0  0
 29 30  1  0  0  0  0
 30 38  1  0  0  0  0
 30 31  2  0  0  0  0
  8  9  1  0  0  0  0
  9 17  1  0  0  0  0
  9 10  2  0  0  0  0
 18 19  1  0  0  0  0
 19 28  1  0  0  0  0
 19 20  2  0  0  0  0
 29 32  1  0  0  0  0
  8 11  1  0  0  0  0
 38 39  1  0  0  0  0
 18 21  1  0  0  0  0
 21 22  1  0  0  0  0
 28 29  1  0  0  0  0
  7  8  1  0  0  0  0
 17 18  1  0  0  0  0
  3  4  1  0  0  0  0
  3  5  1  0  0  0  0
  3  6  1  0  0  0  0
 32 35  1  0  0  0  0
 32 36  1  0  0  0  0
 32 37  1  0  0  0  0
 11 14  1  0  0  0  0
 11 15  1  0  0  0  0
 11 16  1  0  0  0  0
 39 41  1  0  0  0  0
 39 42  1  0  0  0  0
 39 43  1  0  0  0  0
 21 25  1  0  0  0  0
 21 26  1  0  0  0  0
 29 34  1  0  0  0  0
  8 13  1  0  0  0  0
 18 24  1  0  0  0  0
 38 40  1  0  0  0  0
  7 12  1  0  0  0  0
 28 33  1  0  0  0  0
 17 23  1  0  0  0  0
 22 27  1  0  0  0  0
M  END
$$$$

  -OEChem-05262214473D

 43 42  0     1  0  0  0  0  0999 V2000
    0.7424   -1.0926    4.5665 C   0  0  0  0  0  0  0  0  0  0  0  0
    0.1409   -0.5364    5.4779 O   0  0  0  0  0  0  0  0  0  0  0  0
    1.7940   -2.1023    4.8871 C   0  0  0  0  0  0  0  0  0  0  0  0
    2.7935   -1.6502    4.9904 H   0  0  0  0  0  0  0  0  0  0  0  0
    1.6064   -2.6156    5.8438 H   0  0  0  0  0  0  0  0  0  0  0  0
    1.9156   -2.9078    4.1453 H   0  0  0  0  0  0  0  0  0  0  0  0
    0.5488   -0.8838    3.2109 N   0  0  0  0  0  0  0  0  0  0  0  0
   -0.4159    0.0446    2.6829 C   0  0  2  0  0  0  0  0  0  0  0  0
   -0.7551   -0.3867    1.2623 C   0  0  0  0  0  0  0  0  0  0  0  0
   -0.0106   -1.0851    0.5774 O   0  0  0  0  0  0  0  0  0  0  0  0
    0.1168    1.4689    2.7060 C   0  0  0  0  0  0  0  0  0  0  0  0
    1.1183   -1.4145    2.5542 H   0  0  0  0  0  0  0  0  0  0  0  0
   -1.3088   -0.0350    3.3125 H   0  0  0  0  0  0  0  0  0  0  0  0
    1.0116    1.5681    2.0808 H   0  0  0  0  0  0  0  0  0  0  0  0
   -0.6289    2.1775    2.3307 H   0  0  0  0  0  0  0  0  0  0  0  0
    0.3882    1.7670    3.7245 H   0  0  0  0  0  0  0  0  0  0  0  0
   -1.9689    0.1350    0.8298 N   0  0  0  0  0  0  0  0  0  0  0  0
   -2.5039   -0.1183   -0.4830 C   0  0  2  0  0  0  0  0  0  0  0  0
   -3.9764    0.2777   -0.4825 C   0  0  0  0  0  0  0  0  0  0  0  0
   -4.3842    1.3402   -0.0180 O   0  0  0  0  0  0  0  0  0  0  0  0
   -2.3037   -1.5708   -0.9034 C   0  0  0  0  0  0  0  0  0  0  0  0
   -3.0696   -2.4347   -0.0713 O   0  0  0  0  0  0  0  0  0  0  0  0
   -2.5276    0.6894    1.4750 H   0  0  0  0  0  0  0  0  0  0  0  0
   -1.9601    0.5403   -1.1700 H   0  0  0  0  0  0  0  0  0  0  0  0
   -1.2521   -1.8632   -0.8194 H   0  0  0  0  0  0  0  0  0  0  0  0
   -2.6280   -1.7202   -1.9388 H   0  0  0  0  0  0  0  0  0  0  0  0
   -3.9981   -2.1746   -0.1798 H   0  0  0  0  0  0  0  0  0  0  0  0
   -4.7737   -0.6756   -1.1001 N   0  0  0  0  0  0  0  0  0  0  0  0
   -6.2014   -0.5200   -1.2549 C   0  0  2  0  0  0  0  0  0  0  0  0
   -6.4934    0.9602   -1.4629 C   0  0  0  0  0  0  0  0  0  0  0  0
   -5.7290    1.8521   -1.1006 O   0  0  0  0  0  0  0  0  0  0  0  0
   -6.9509   -1.0573   -0.0456 C   0  0  0  0  0  0  0  0  0  0  0  0
   -4.3437   -1.5081   -1.4921 H   0  0  0  0  0  0  0  0  0  0  0  0
   -6.4847   -1.0785   -2.1537 H   0  0  0  0  0  0  0  0  0  0  0  0
   -6.6799   -0.5099    0.8645 H   0  0  0  0  0  0  0  0  0  0  0  0
   -8.0340   -0.9647   -0.1769 H   0  0  0  0  0  0  0  0  0  0  0  0
   -6.7165   -2.1144    0.1201 H   0  0  0  0  0  0  0  0  0  0  0  0
   -7.7278    1.1695   -2.0617 N   0  0  0  0  0  0  0  0  0  0  0  0
   -8.2392    2.4883   -2.3534 C   0  0  0  0  0  0  0  0  0  0  0  0
   -8.2872    0.3707   -2.3458 H   0  0  0  0  0  0  0  0  0  0  0  0
   -8.8548    2.8380   -1.5115 H   0  0  0  0  0  0  0  0  0  0  0  0
   -7.3990    3.1818   -2.5059 H   0  0  0  0  0  0  0  0  0  0  0  0
   -8.8531    2.4500   -3.2653 H   0  0  0  0  0  0  0  0  0  0  0  0
  1  3  1  0  0  0  0
  1  7  1  0  0  0  0
  1  2  2  0  0  0  0
 29 30  1  0  0  0  0
 30 38  1  0  0  0  0
 30 31  2  0  0  0  0
  8  9  1  0  0  0  0
  9 17  1  0  0  0  0
  9 10  2  0  0  0  0
 18 19  1  0  0  0  0
 19 28  1  0  0  0  0
 19 20  2  0  0  0  0
 29 32  1  0  0  0  0
  8 11  1  0  0  0  0
 38 39  1  0  0  0  0
 18 21  1  0  0  0  0
 21 22  1  0  0  0  0
 28 29  1  0  0  0  0
  7  8  1  0  0  0  0
 17 18  1  0  0  0  0
  3  4  1  0  0  0  0
  3  5  1  0  0  0  0
  3  6  1  0  0  0  0
 32 35  1  0  0  0  0
 32 36  1  0  0  0  0
 32 37  1  0  0  0  0
 11 14  1  0  0  0  0
 11 15  1  0  0  0  0
 11 16  1  0  0  0  0
 39 41  1  0  0  0  0
 39 42  1  0  0  0  0
 39 43  1  0  0  0  0
 21 25  1  0  0  0  0
 21 26  1  0  0  0  0
 29 34  1  0  0  0  0
  8 13  1  0  0  0  0
 18 24  1  0  0  0  0
 38 40  1  0  0  0  0
  7 12  1  0  0  0  0
 28 33  1  0  0  0  0
 17 23  1  0  0  0  0
 22 27  1  0  0  0  0
M  END
$$$$

  -OEChem-05262214473D

 43 42  0     1  0  0  0  0  0999 V2000
    0.7424   -1.0926    4.5665 C   0  0  0  0  0  0  0  0  0  0  0  0
    0.1409   -0.5364    5.4779 O   0  0  0  0  0  0  0  0  0  0  0  0
    1.7940   -2.1023    4.8871 C   0  0  0  0  0  0  0  0  0  0  0  0
    2.7935   -1.6502    4.9904 H   0  0  0  0  0  0  0  0  0  0  0  0
    1.6064   -2.6156    5.8438 H   0  0  0  0  0  0  0  0  0  0  0  0
    1.9156   -2.9078    4.1453 H   0  0  0  0  0  0  0  0  0  0  0  0
    0.5488   -0.8838    3.2109 N   0  0  0  0  0  0  0  0  0  0  0  0
   -0.4159    0.0446    2.6829 C   0  0  2  0  0  0  0  0  0  0  0  0
   -0.7551   -0.3867    1.2623 C   0  0  0  0  0  0  0  0  0  0  0  0
   -0.0106   -1.0851    0.5774 O   0  0  0  0  0  0  0  0  0  0  0  0
    0.1168    1.4689    2.7060 C   0  0  0  0  0  0  0  0  0  0  0  0
    1.1183   -1.4145    2.5542 H   0  0  0  0  0  0  0  0  0  0  0  0
   -1.3088   -0.0350    3.3125 H   0  0  0  0  0  0  0  0  0  0  0  0
    1.0116    1.5681    2.0808 H   0  0  0  0  0  0  0  0  0  0  0  0
   -0.6289    2.1775    2.3307 H   0  0  0  0  0  0  0  0  0  0  0  0
    0.3882    1.7670    3.7245 H   0  0  0  0  0  0  0  0  0  0  0  0
   -1.9689    0.1350    0.8298 N   0  0  0  0  0  0  0  0  0  0  0  0
   -2.5039   -0.1183   -0.4830 C   0  0  2  0  0  0  0  0  0  0  0  0
   -3.9764    0.2777   -0.4825 C   0  0  0  0  0  0  0  0  0  0  0  0
   -4.3612    1.4260   -0.2720 O   0  0  0  0  0  0  0  0  0  0  0  0
   -2.3037   -1.5708   -0.9034 C   0  0  0  0  0  0  0  0  0  0  0  0
   -3.0696   -2.4347   -0.0713 O   0  0  0  0  0  0  0  0  0  0  0  0
   -2.5276    0.6894    1.4750 H   0  0  0  0  0  0  0  0  0  0  0  0
   -1.9601    0.5403   -1.1700 H   0  0  0  0  0  0  0  0  0  0  0  0
   -1.2521   -1.8632   -0.8194 H   0  0  0  0  0  0  0  0  0  0  0  0
   -2.6280   -1.7202   -1.9388 H   0  0  0  0  0  0  0  0  0  0  0  0
   -3.9981   -2.1746   -0.1798 H   0  0  0  0  0  0  0  0  0  0  0  0
   -4.8051   -0.7929   -0.7872 N   0  0  0  0  0  0  0  0  0  0  0  0
   -6.2413   -0.6689   -0.8796 C   0  0  2  0  0  0  0  0  0  0  0  0
   -6.5594    0.7148   -1.4308 C   0  0  0  0  0  0  0  0  0  0  0  0
   -5.7800    1.6624   -1.3552 O   0  0  0  0  0  0  0  0  0  0  0  0
   -6.9032   -0.8805    0.4731 C   0  0  0  0  0  0  0  0  0  0  0  0
   -4.3953   -1.7006   -0.9867 H   0  0  0  0  0  0  0  0  0  0  0  0
   -6.5796   -1.4319   -1.5891 H   0  0  0  0  0  0  0  0  0  0  0  0
   -6.5764   -0.1253    1.1972 H   0  0  0  0  0  0  0  0  0  0  0  0
   -7.9935   -0.8145    0.3960 H   0  0  0  0  0  0  0  0  0  0  0  0
   -6.6491   -1.8645    0.8816 H   0  0  0  0  0  0  0  0  0  0  0  0
   -7.8330    0.7782   -1.9786 N   0  0  0  0  0  0  0  0  0  0  0  0
   -8.3742    1.9866   -2.5556 C   0  0  0  0  0  0  0  0  0  0  0  0
   -8.4034   -0.0615   -2.0157 H   0  0  0  0  0  0  0  0  0  0  0  0
   -8.9348    2.5407   -1.7884 H   0  0  0  0  0  0  0  0  0  0  0  0
   -7.5522    2.6127   -2.9327 H   0  0  0  0  0  0  0  0  0  0  0  0
   -9.0477    1.7267   -3.3856 H   0  0  0  0  0  0  0  0  0  0  0  0
  1  3  1  0  0  0  0
  1  7  1  0  0  0  0
  1  2  2  0  0  0  0
 29 30  1  0  0  0  0
 30 38  1  0  0  0  0
 30 31  2  0  0  0  0
  8  9  1  0  0  0  0
  9 17  1  0  0  0  0
  9 10  2  0  0  0  0
 18 19  1  0  0  0  0
 19 28  1  0  0  0  0
 19 20  2  0  0  0  0
 29 32  1  0  0  0  0
  8 11  1  0  0  0  0
 38 39  1  0  0  0  0
 18 21  1  0  0  0  0
 21 22  1  0  0  0  0
 28 29  1  0  0  0  0
  7  8  1  0  0  0  0
 17 18  1  0  0  0  0
  3  4  1  0  0  0  0
  3  5  1  0  0  0  0
  3  6  1  0  0  0  0
 32 35  1  0  0  0  0
 32 36  1  0  0  0  0
 32 37  1  0  0  0  0
 11 14  1  0  0  0  0
 11 15  1  0  0  0  0
 11 16  1  0  0  0  0
 39 41  1  0  0  0  0
 39 42  1  0  0  0  0
 39 43  1  0  0  0  0
 21 25  1  0  0  0  0
 21 26  1  0  0  0  0
 29 34  1  0  0  0  0
  8 13  1  0  0  0  0
 18 24  1  0  0  0  0
 38 40  1  0  0  0  0
  7 12  1  0  0  0  0
 28 33  1  0  0  0  0
 17 23  1  0  0  0  0
 22 27  1  0  0  0  0
M  END
$$$$

  -OEChem-05262214473D

 43 42  0     1  0  0  0  0  0999 V2000
    0.7424   -1.0926    4.5665 C   0  0  0  0  0  0  0  0  0  0  0  0
    0.1409   -0.5364    5.4779 O   0  0  0  0  0  0  0  0  0  0  0  0
    1.7940   -2.1023    4.8871 C   0  0  0  0  0  0  0  0  0  0  0  0
    2.7935   -1.6502    4.9904 H   0  0  0  0  0  0  0  0  0  0  0  0
    1.6064   -2.6156    5.8438 H   0  0  0  0  0  0  0  0  0  0  0  0
    1.9156   -2.9078    4.1453 H   0  0  0  0  0  0  0  0  0  0  0  0
    0.5488   -0.8838    3.2109 N   0  0  0  0  0  0  0  0  0  0  0  0
   -0.4159    0.0446    2.6829 C   0  0  2  0  0  0  0  0  0  0  0  0
   -0.7551   -0.3867    1.2623 C   0  0  0  0  0  0  0  0  0  0  0  0
   -0.0106   -1.0851    0.5774 O   0  0  0  0  0  0  0  0  0  0  0  0
    0.1168    1.4689    2.7060 C   0  0  0  0  0  0  0  0  0  0  0  0
    1.1183   -1.4145    2.5542 H   0  0  0  0  0  0  0  0  0  0  0  0
   -1.3088   -0.0350    3.3125 H   0  0  0  0  0  0  0  0  0  0  0  0
    1.0116    1.5681    2.0808 H   0  0  0  0  0  0  0  0  0  0  0  0
   -0.6289    2.1775    2.3307 H   0  0  0  0  0  0  0  0  0  0  0  0
    0.3882    1.7670    3.7245 H   0  0  0  0  0  0  0  0  0  0  0  0
   -1.9689    0.1350    0.8298 N   0  0  0  0  0  0  0  0  0  0  0  0
   -2.5039   -0.1183   -0.4830 C   0  0  2  0  0  0  0  0  0  0  0  0
   -3.9764    0.2777   -0.4825 C   0  0  0  0  0  0  0  0  0  0  0  0
   -4.3561    1.4454   -0.5403 O   0  0  0  0  0  0  0  0  0  0  0  0
   -2.3037   -1.5708   -0.9034 C   0  0  0  0  0  0  0  0  0  0  0  0
   -3.0696   -2.4347   -0.0713 O   0  0  0  0  0  0  0  0  0  0  0  0
   -2.5276    0.6894    1.4750 H   0  0  0  0  0  0  0  0  0  0  0  0
   -1.9601    0.5403   -1.1700 H   0  0  0  0  0  0  0  0  0  0  0  0
   -1.2521   -1.8632   -0.8194 H   0  0  0  0  0  0  0  0  0  0  0  0
   -2.6280   -1.7202   -1.9388 H   0  0  0  0  0  0  0  0  0  0  0  0
   -3.9981   -2.1746   -0.1798 H   0  0  0  0  0  0  0  0  0  0  0  0
   -4.8145   -0.8280   -0.4535 N   0  0  0  0  0  0  0  0  0  0  0  0
   -6.2546   -0.7189   -0.4773 C   0  0  2  0  0  0  0  0  0  0  0  0
   -6.6210    0.4857   -1.3341 C   0  0  0  0  0  0  0  0  0  0  0  0
   -5.8465    1.4155   -1.5503 O   0  0  0  0  0  0  0  0  0  0  0  0
   -6.8222   -0.5801    0.9268 C   0  0  0  0  0  0  0  0  0  0  0  0
   -4.4111   -1.7602   -0.4469 H   0  0  0  0  0  0  0  0  0  0  0  0
   -6.6332   -1.6321   -0.9491 H   0  0  0  0  0  0  0  0  0  0  0  0
   -6.4540    0.3294    1.4155 H   0  0  0  0  0  0  0  0  0  0  0  0
   -7.9158   -0.5262    0.9091 H   0  0  0  0  0  0  0  0  0  0  0  0
   -6.5328   -1.4329    1.5502 H   0  0  0  0  0  0  0  0  0  0  0  0
   -7.9290    0.4210   -1.7934 N   0  0  0  0  0  0  0  0  0  0  0  0
   -8.5182    1.4513   -2.6164 C   0  0  0  0  0  0  0  0  0  0  0  0
   -8.4933   -0.3964   -1.5811 H   0  0  0  0  0  0  0  0  0  0  0  0
   -9.0307    2.1844   -1.9762 H   0  0  0  0  0  0  0  0  0  0  0  0
   -7.7288    1.9564   -3.1925 H   0  0  0  0  0  0  0  0  0  0  0  0
   -9.2437    0.9980   -3.3079 H   0  0  0  0  0  0  0  0  0  0  0  0
  1  3  1  0  0  0  0
  1  7  1  0  0  0  0
  1  2  2  0  0  0  0
 29 30  1  0  0  0  0
 30 38  1  0  0  0  0
 30 31  2  0  0  0  0
  8  9  1  0  0  0  0
  9 17  1  0  0  0  0
  9 10  2  0  0  0  0
 18 19  1  0  0  0  0
 19 28  1  0  0  0  0
 19 20  2  0  0  0  0
 29 32  1  0  0  0  0
  8 11  1  0  0  0  0
 38 39  1  0  0  0  0
 18 21  1  0  0  0  0
 21 22  1  0  0  0  0
 28 29  1  0  0  0  0
  7  8  1  0  0  0  0
 17 18  1  0  0  0  0
  3  4  1  0  0  0  0
  3  5  1  0  0  0  0
  3  6  1  0  0  0  0
 32 35  1  0  0  0  0
 32 36  1  0  0  0  0
 32 37  1  0  0  0  0
 11 14  1  0  0  0  0
 11 15  1  0  0  0  0
 11 16  1  0  0  0  0
 39 41  1  0  0  0  0
 39 42  1  0  0  0  0
 39 43  1  0  0  0  0
 21 25  1  0  0  0  0
 21 26  1  0  0  0  0
 29 34  1  0  0  0  0
  8 13  1  0  0  0  0
 18 24  1  0  0  0  0
 38 40  1  0  0  0  0
  7 12  1  0  0  0  0
 28 33  1  0  0  0  0
 17 23  1  0  0  0  0
 22 27  1  0  0  0  0
M  END
$$$$

  -OEChem-05262214473D

 43 42  0     1  0  0  0  0  0999 V2000
    0.7424   -1.0926    4.5665 C   0  0  0  0  0  0  0  0  0  0  0  0
    0.1409   -0.5364    5.4779 O   0  0  0  0  0  0  0  0  0  0  0  0
    1.7940   -2.1023    4.8871 C   0  0  0  0  0  0  0  0  0  0  0  0
    2.7935   -1.6502    4.9904 H   0  0  0  0  0  0  0  0  0  0  0  0
    1.6064   -2.6156    5.8438 H   0  0  0  0  0  0  0  0  0  0  0  0
    1.9156   -2.9078    4.1453 H   0  0  0  0  0  0  0  0  0  0  0  0
    0.5488   -0.8838    3.2109 N   0  0  0  0  0  0  0  0  0  0  0  0
   -0.4159    0.0446    2.6829 C   0  0  2  0  0  0  0  0  0  0  0  0
   -0.7551   -0.3867    1.2623 C   0  0  0  0  0  0  0  0  0  0  0  0
   -0.0106   -1.0851    0.5774 O   0  0  0  0  0  0  0  0  0  0  0  0
    0.1168    1.4689    2.7060 C   0  0  0  0  0  0  0  0  0  0  0  0
    1.1183   -1.4145    2.5542 H   0  0  0  0  0  0  0  0  0  0  0  0
   -1.3088   -0.0350    3.3125 H   0  0  0  0  0  0  0  0  0  0  0  0
    1.0116    1.5681    2.0808 H   0  0  0  0  0  0  0  0  0  0  0  0
   -0.6289    2.1775    2.3307 H   0  0  0  0  0  0  0  0  0  0  0  0
    0.3882    1.7670    3.7245 H   0  0  0  0  0  0  0  0  0  0  0  0
   -1.9689    0.1350    0.8298 N   0  0  0  0  0  0  0  0  0  0  0  0
   -2.5039   -0.1183   -0.4830 C   0  0  2  0  0  0  0  0  0  0  0  0
   -3.9764    0.2777   -0.4825 C   0  0  0  0  0  0  0  0  0  0  0  0
   -4.3691    1.3971   -0.8047 O   0  0  0  0  0  0  0  0  0  0  0  0
   -2.3037   -1.5708   -0.9034 C   0  0  0  0  0  0  0  0  0  0  0  0
   -3.0696   -2.4347   -0.0713 O   0  0  0  0  0  0  0  0  0  0  0  0
   -2.5276    0.6894    1.4750 H   0  0  0  0  0  0  0  0  0  0  0  0
   -1.9601    0.5403   -1.1700 H   0  0  0  0  0  0  0  0  0  0  0  0
   -1.2521   -1.8632   -0.8194 H   0  0  0  0  0  0  0  0  0  0  0  0
   -2.6280   -1.7202   -1.9388 H   0  0  0  0  0  0  0  0  0  0  0  0
   -3.9981   -2.1746   -0.1798 H   0  0  0  0  0  0  0  0  0  0  0  0
   -4.8010   -0.7785   -0.1218 N   0  0  0  0  0  0  0  0  0  0  0  0
   -6.2404   -0.6666   -0.0752 C   0  0  2  0  0  0  0  0  0  0  0  0
   -6.6739    0.2887   -1.1793 C   0  0  0  0  0  0  0  0  0  0  0  0
   -5.9238    1.1283   -1.6726 O   0  0  0  0  0  0  0  0  0  0  0  0
   -6.7136   -0.1765    1.2844 C   0  0  0  0  0  0  0  0  0  0  0  0
   -4.3901   -1.6828    0.0904 H   0  0  0  0  0  0  0  0  0  0  0  0
   -6.6420   -1.6656   -0.2773 H   0  0  0  0  0  0  0  0  0  0  0  0
   -6.3212    0.8231    1.5045 H   0  0  0  0  0  0  0  0  0  0  0  0
   -7.8062   -0.1195    1.3274 H   0  0  0  0  0  0  0  0  0  0  0  0
   -6.3756   -0.8488    2.0804 H   0  0  0  0  0  0  0  0  0  0  0  0
   -8.0093    0.1223   -1.5189 N   0  0  0  0  0  0  0  0  0  0  0  0
   -8.6613    0.9192   -2.5317 C   0  0  0  0  0  0  0  0  0  0  0  0
   -8.5509   -0.6113   -1.0715 H   0  0  0  0  0  0  0  0  0  0  0  0
   -9.1360    1.7933   -2.0620 H   0  0  0  0  0  0  0  0  0  0  0  0
   -7.9168    1.2575   -3.2674 H   0  0  0  0  0  0  0  0  0  0  0  0
   -9.4276    0.3135   -3.0375 H   0  0  0  0  0  0  0  0  0  0  0  0
  1  3  1  0  0  0  0
  1  7  1  0  0  0  0
  1  2  2  0  0  0  0
 29 30  1  0  0  0  0
 30 38  1  0  0  0  0
 30 31  2  0  0  0  0
  8  9  1  0  0  0  0
  9 17  1  0  0  0  0
  9 10  2  0  0  0  0
 18 19  1  0  0  0  0
 19 28  1  0  0  0  0
 19 20  2  0  0  0  0
 29 32  1  0  0  0  0
  8 11  1  0  0  0  0
 38 39  1  0  0  0  0
 18 21  1  0  0  0  0
 21 22  1  0  0  0  0
 28 29  1  0  0  0  0
  7  8  1  0  0  0  0
 17 18  1  0  0  0  0
  3  4  1  0  0  0  0
  3  5  1  0  0  0  0
  3  6  1  0  0  0  0
 32 35  1  0  0  0  0
 32 36  1  0  0  0  0
 32 37  1  0  0  0  0
 11 14  1  0  0  0  0
 11 15  1  0  0  0  0
 11 16  1  0  0  0  0
 39 41  1  0  0  0  0
 39 42  1  0  0  0  0
 39 43  1  0  0  0  0
 21 25  1  0  0  0  0
 21 26  1  0  0  0  0
 29 34  1  0  0  0  0
  8 13  1  0  0  0  0
 18 24  1  0  0  0  0
 38 40  1  0  0  0  0
  7 12  1  0  0  0  0
 28 33  1  0  0  0  0
 17 23  1  0  0  0  0
 22 27  1  0  0  0  0
M  END
$$$$

  -OEChem-05262214473D

 43 42  0     1  0  0  0  0  0999 V2000
    0.7424   -1.0926    4.5665 C   0  0  0  0  0  0  0  0  0  0  0  0
    0.1409   -0.5364    5.4779 O   0  0  0  0  0  0  0  0  0  0  0  0
    1.7940   -2.1023    4.8871 C   0  0  0  0  0  0  0  0  0  0  0  0
    2.7935   -1.6502    4.9904 H   0  0  0  0  0  0  0  0  0  0  0  0
    1.6064   -2.6156    5.8438 H   0  0  0  0  0  0  0  0  0  0  0  0
    1.9156   -2.9078    4.1453 H   0  0  0  0  0  0  0  0  0  0  0  0
    0.5488   -0.8838    3.2109 N   0  0  0  0  0  0  0  0  0  0  0  0
   -0.4159    0.0446    2.6829 C   0  0  2  0  0  0  0  0  0  0  0  0
   -0.7551   -0.3867    1.2623 C   0  0  0  0  0  0  0  0  0  0  0  0
   -0.0106   -1.0851    0.5774 O   0  0  0  0  0  0  0  0  0  0  0  0
    0.1168    1.4689    2.7060 C   0  0  0  0  0  0  0  0  0  0  0  0
    1.1183   -1.4145    2.5542 H   0  0  0  0  0  0  0  0  0  0  0  0
   -1.3088   -0.0350    3.3125 H   0  0  0  0  0  0  0  0  0  0  0  0
    1.0116    1.5681    2.0808 H   0  0  0  0  0  0  0  0  0  0  0  0
   -0.6289    2.1775    2.3307 H   0  0  0  0  0  0  0  0  0  0  0  0
    0.3882    1.7670    3.7245 H   0  0  0  0  0  0  0  0  0  0  0  0
   -1.9689    0.1350    0.8298 N   0  0  0  0  0  0  0  0  0  0  0  0
   -2.5039   -0.1183   -0.4830 C   0  0  2  0  0  0  0  0  0  0  0  0
   -3.9764    0.2777   -0.4825 C   0  0  0  0  0  0  0  0  0  0  0  0
   -4.3995    1.2843   -1.0471 O   0  0  0  0  0  0  0  0  0  0  0  0
   -2.3037   -1.5708   -0.9034 C   0  0  0  0  0  0  0  0  0  0  0  0
   -3.0696   -2.4347   -0.0713 O   0  0  0  0  0  0  0  0  0  0  0  0
   -2.5276    0.6894    1.4750 H   0  0  0  0  0  0  0  0  0  0  0  0
   -1.9601    0.5403   -1.1700 H   0  0  0  0  0  0  0  0  0  0  0  0
   -1.2521   -1.8632   -0.8194 H   0  0  0  0  0  0  0  0  0  0  0  0
   -2.6280   -1.7202   -1.9388 H   0  0  0  0  0  0  0  0  0  0  0  0
   -3.9981   -2.1746   -0.1798 H   0  0  0  0  0  0  0  0  0  0  0  0
   -4.7658   -0.6478    0.1853 N   0  0  0  0  0  0  0  0  0  0  0  0
   -6.1997   -0.5156    0.2991 C   0  0  2  0  0  0  0  0  0  0  0  0
   -6.7146    0.1370   -0.9769 C   0  0  0  0  0  0  0  0  0  0  0  0
   -6.0066    0.8204   -1.7137 O   0  0  0  0  0  0  0  0  0  0  0  0
   -6.5846    0.3028    1.5217 C   0  0  0  0  0  0  0  0  0  0  0  0
   -4.3338   -1.4738    0.5887 H   0  0  0  0  0  0  0  0  0  0  0  0
   -6.6053   -1.5300    0.3806 H   0  0  0  0  0  0  0  0  0  0  0  0
   -6.1870    1.3222    1.4581 H   0  0  0  0  0  0  0  0  0  0  0  0
   -7.6724    0.3780    1.6225 H   0  0  0  0  0  0  0  0  0  0  0  0
   -6.1881   -0.1521    2.4359 H   0  0  0  0  0  0  0  0  0  0  0  0
   -8.0683   -0.0977   -1.1736 N   0  0  0  0  0  0  0  0  0  0  0  0
   -8.7937    0.4263   -2.3073 C   0  0  0  0  0  0  0  0  0  0  0  0
   -8.5723   -0.6916   -0.5217 H   0  0  0  0  0  0  0  0  0  0  0  0
   -9.2433    1.3940   -2.0402 H   0  0  0  0  0  0  0  0  0  0  0  0
   -8.1034    0.5637   -3.1525 H   0  0  0  0  0  0  0  0  0  0  0  0
   -9.5871   -0.2801   -2.5930 H   0  0  0  0  0  0  0  0  0  0  0  0
  1  3  1  0  0  0  0
  1  7  1  0  0  0  0
  1  2  2  0  0  0  0
 29 30  1  0  0  0  0
 30 38  1  0  0  0  0
 30 31  2  0  0  0  0
  8  9  1  0  0  0  0
  9 17  1  0  0  0  0
  9 10  2  0  0  0  0
 18 19  1  0  0  0  0
 19 28  1  0  0  0  0
 19 20  2  0  0  0  0
 29 32  1  0  0  0  0
  8 11  1  0  0  0  0
 38 39  1  0  0  0  0
 18 21  1  0  0  0  0
 21 22  1  0  0  0  0
 28 29  1  0  0  0  0
  7  8  1  0  0  0  0
 17 18  1  0  0  0  0
  3  4  1  0  0  0  0
  3  5  1  0  0  0  0
  3  6  1  0  0  0  0
 32 35  1  0  0  0  0
 32 36  1  0  0  0  0
 32 37  1  0  0  0  0
 11 14  1  0  0  0  0
 11 15  1  0  0  0  0
 11 16  1  0  0  0  0
 39 41  1  0  0  0  0
 39 42  1  0  0  0  0
 39 43  1  0  0  0  0
 21 25  1  0  0  0  0
 21 26  1  0  0  0  0
 29 34  1  0  0  0  0
  8 13  1  0  0  0  0
 18 24  1  0  0  0  0
 38 40  1  0  0  0  0
  7 12  1  0  0  0  0
 28 33  1  0  0  0  0
 17 23  1  0  0  0  0
 22 27  1  0  0  0  0
M  END
$$$$

  -OEChem-05262214473D

 43 42  0     1  0  0  0  0  0999 V2000
    0.7424   -1.0926    4.5665 C   0  0  0  0  0  0  0  0  0  0  0  0
    0.1409   -0.5364    5.4779 O   0  0  0  0  0  0  0  0  0  0  0  0
    1.7940   -2.1023    4.8871 C   0  0  0  0  0  0  0  0  0  0  0  0
    2.7935   -1.6502    4.9904 H   0  0  0  0  0  0  0  0  0  0  0  0
    1.6064   -2.6156    5.8438 H   0  0  0  0  0  0  0  0  0  0  0  0
    1.9156   -2.9078    4.1453 H   0  0  0  0  0  0  0  0  0  0  0  0
    0.5488   -0.8838    3.2109 N   0  0  0  0  0  0  0  0  0  0  0  0
   -0.4159    0.0446    2.6829 C   0  0  2  0  0  0  0  0  0  0  0  0
   -0.7551   -0.3867    1.2623 C   0  0  0  0  0  0  0  0  0  0  0  0
   -0.0106   -1.0851    0.5774 O   0  0  0  0  0  0  0  0  0  0  0  0
    0.1168    1.4689    2.7060 C   0  0  0  0  0  0  0  0  0  0  0  0
    1.1183   -1.4145    2.5542 H   0  0  0  0  0  0  0  0  0  0  0  0
   -1.3088   -0.0350    3.3125 H   0  0  0  0  0  0  0  0  0  0  0  0
    1.0116    1.5681    2.0808 H   0  0  0  0  0  0  0  0  0  0  0  0
   -0.6289    2.1775    2.3307 H   0  0  0  0  0  0  0  0  0  0  0  0
    0.3882    1.7670    3.7245 H   0  0  0  0  0  0  0  0  0  0  0  0
   -1.9689    0.1350    0.8298 N   0  0  0  0  0  0  0  0  0  0  0  0
   -2.5039   -0.1183   -0.4830 C   0  0  2  0  0  0  0  0  0  0  0  0
   -3.9764    0.2777   -0.4825 C   0  0  0  0  0  0  0  0  0  0  0  0
   -4.4452    1.1148   -1.2510 O   0  0  0  0  0  0  0  0  0  0  0  0
   -2.3037   -1.5708   -0.9034 C   0  0  0  0  0  0  0  0  0  0  0  0
   -3.0696   -2.4347   -0.0713 O   0  0  0  0  0  0  0  0  0  0  0  0
   -2.5276    0.6894    1.4750 H   0  0  0  0  0  0  0  0  0  0  0  0
   -1.9601    0.5403   -1.1700 H   0  0  0  0  0  0  0  0  0  0  0  0
   -1.2521   -1.8632   -0.8194 H   0  0  0  0  0  0  0  0  0  0  0  0
   -2.6280   -1.7202   -1.9388 H   0  0  0  0  0  0  0  0  0  0  0  0
   -3.9981   -2.1746   -0.1798 H   0  0  0  0  0  0  0  0  0  0  0  0
   -4.7111   -0.4448    0.4469 N   0  0  0  0  0  0  0  0  0  0  0  0
   -6.1352   -0.2762    0.6203 C   0  0  2  0  0  0  0  0  0  0  0  0
   -6.7404    0.0411   -0.7409 C   0  0  0  0  0  0  0  0  0  0  0  0
   -6.0894    0.5126   -1.6709 O   0  0  0  0  0  0  0  0  0  0  0  0
   -6.4441    0.8250    1.6225 C   0  0  0  0  0  0  0  0  0  0  0  0
   -4.2459   -1.1474    1.0140 H   0  0  0  0  0  0  0  0  0  0  0  0
   -6.5257   -1.2345    0.9797 H   0  0  0  0  0  0  0  0  0  0  0  0
   -6.0605    1.7928    1.2795 H   0  0  0  0  0  0  0  0  0  0  0  0
   -7.5233    0.9322    1.7742 H   0  0  0  0  0  0  0  0  0  0  0  0
   -5.9832    0.6097    2.5925 H   0  0  0  0  0  0  0  0  0  0  0  0
   -8.1021   -0.2238   -0.7812 N   0  0  0  0  0  0  0  0  0  0  0  0
   -8.9066    0.0062   -1.9584 C   0  0  0  0  0  0  0  0  0  0  0  0
   -8.5561   -0.6317    0.0308 H   0  0  0  0  0  0  0  0  0  0  0  0
   -9.3455    1.0138   -1.9120 H   0  0  0  0  0  0  0  0  0  0  0  0
   -8.2758   -0.0778   -2.8556 H   0  0  0  0  0  0  0  0  0  0  0  0
   -9.7113   -0.7423   -2.0045 H   0  0  0  0  0  0  0  0  0  0  0  0
  1  3  1  0  0  0  0
  1  7  1  0  0  0  0
  1  2  2  0  0  0  0
 29 30  1  0  0  0  0
 30 38  1  0  0  0  0
 30 31  2  0  0  0  0
  8  9  1  0  0  0  0
  9 17  1  0  0  0  0
  9 10  2  0  0  0  0
 18 19  1  0  0  0  0
 19 28  1  0  0  0  0
 19 20  2  0  0  0  0
 29 32  1  0  0  0  0
  8 11  1  0  0  0  0
 38 39  1  0  0  0  0
 18 21  1  0  0  0  0
 21 22  1  0  0  0  0
 28 29  1  0  0  0  0
  7  8  1  0  0  0  0
 17 18  1  0  0  0  0
  3  4  1  0  0  0  0
  3  5  1  0  0  0  0
  3  6  1  0  0  0  0
 32 35  1  0  0  0  0
 32 36  1  0  0  0  0
 32 37  1  0  0  0  0
 11 14  1  0  0  0  0
 11 15  1  0  0  0  0
 11 16  1  0  0  0  0
 39 41  1  0  0  0  0
 39 42  1  0  0  0  0
 39 43  1  0  0  0  0
 21 25  1  0  0  0  0
 21 26  1  0  0  0  0
 29 34  1  0  0  0  0
  8 13  1  0  0  0  0
 18 24  1  0  0  0  0
 38 40  1  0  0  0  0
  7 12  1  0  0  0  0
 28 33  1  0  0  0  0
 17 23  1  0  0  0  0
 22 27  1  0  0  0  0
M  END
$$$$

  -OEChem-05262214473D

 43 42  0     1  0  0  0  0  0999 V2000
    0.7424   -1.0926    4.5665 C   0  0  0  0  0  0  0  0  0  0  0  0
    0.1409   -0.5364    5.4779 O   0  0  0  0  0  0  0  0  0  0  0  0
    1.7940   -2.1023    4.8871 C   0  0  0  0  0  0  0  0  0  0  0  0
    2.7935   -1.6502    4.9904 H   0  0  0  0  0  0  0  0  0  0  0  0
    1.6064   -2.6156    5.8438 H   0  0  0  0  0  0  0  0  0  0  0  0
    1.9156   -2.9078    4.1453 H   0  0  0  0  0  0  0  0  0  0  0  0
    0.5488   -0.8838    3.2109 N   0  0  0  0  0  0  0  0  0  0  0  0
   -0.4159    0.0446    2.6829 C   0  0  2  0  0  0  0  0  0  0  0  0
   -0.7551   -0.3867    1.2623 C   0  0  0  0  0  0  0  0  0  0  0  0
   -0.0106   -1.0851    0.5774 O   0  0  0  0  0  0  0  0  0  0  0  0
    0.1168    1.4689    2.7060 C   0  0  0  0  0  0  0  0  0  0  0  0
    1.1183   -1.4145    2.5542 H   0  0  0  0  0  0  0  0  0  0  0  0
   -1.3088   -0.0350    3.3125 H   0  0  0  0  0  0  0  0  0  0  0  0
    1.0116    1.5681    2.0808 H   0  0  0  0  0  0  0  0  0  0  0  0
   -0.6289    2.1775    2.3307 H   0  0  0  0  0  0  0  0  0  0  0  0
    0.3882    1.7670    3.7245 H   0  0  0  0  0  0  0  0  0  0  0  0
   -1.9689    0.1350    0.8298 N   0  0  0  0  0  0  0  0  0  0  0  0
   -2.5039   -0.1183   -0.4830 C   0  0  2  0  0  0  0  0  0  0  0  0
   -3.9764    0.2777   -0.4825 C   0  0  0  0  0  0  0  0  0  0  0  0
   -4.5030    0.9001   -1.4025 O   0  0  0  0  0  0  0  0  0  0  0  0
   -2.3037   -1.5708   -0.9034 C   0  0  0  0  0  0  0  0  0  0  0  0
   -3.0696   -2.4347   -0.0713 O   0  0  0  0  0  0  0  0  0  0  0  0
   -2.5276    0.6894    1.4750 H   0  0  0  0  0  0  0  0  0  0  0  0
   -1.9601    0.5403   -1.1700 H   0  0  0  0  0  0  0  0  0  0  0  0
   -1.2521   -1.8632   -0.8194 H   0  0  0  0  0  0  0  0  0  0  0  0
   -2.6280   -1.7202   -1.9388 H   0  0  0  0  0  0  0  0  0  0  0  0
   -3.9981   -2.1746   -0.1798 H   0  0  0  0  0  0  0  0  0  0  0  0
   -4.6407   -0.1833    0.6452 N   0  0  0  0  0  0  0  0  0  0  0  0
   -6.0514    0.0353    0.8663 C   0  0  2  0  0  0  0  0  0  0  0  0
   -6.7493    0.0074   -0.4871 C   0  0  0  0  0  0  0  0  0  0  0  0
   -6.1664    0.2260   -1.5471 O   0  0  0  0  0  0  0  0  0  0  0  0
   -6.3017    1.3546    1.5799 C   0  0  0  0  0  0  0  0  0  0  0  0
   -4.1324   -0.7258    1.3373 H   0  0  0  0  0  0  0  0  0  0  0  0
   -6.4085   -0.7994    1.4792 H   0  0  0  0  0  0  0  0  0  0  0  0
   -5.9504    2.2027    0.9809 H   0  0  0  0  0  0  0  0  0  0  0  0
   -7.3691    1.5055    1.7721 H   0  0  0  0  0  0  0  0  0  0  0  0
   -5.7747    1.3847    2.5397 H   0  0  0  0  0  0  0  0  0  0  0  0
   -8.1084   -0.2476   -0.3683 N   0  0  0  0  0  0  0  0  0  0  0  0
   -8.9921   -0.3123   -1.5088 C   0  0  0  0  0  0  0  0  0  0  0  0
   -8.5032   -0.4357    0.5485 H   0  0  0  0  0  0  0  0  0  0  0  0
   -9.4356    0.6786   -1.6863 H   0  0  0  0  0  0  0  0  0  0  0  0
   -8.4223   -0.6233   -2.3968 H   0  0  0  0  0  0  0  0  0  0  0  0
   -9.7916   -1.0418   -1.3121 H   0  0  0  0  0  0  0  0  0  0  0  0
  1  3  1  0  0  0  0
  1  7  1  0  0  0  0
  1  2  2  0  0  0  0
 29 30  1  0  0  0  0
 30 38  1  0  0  0  0
 30 31  2  0  0  0  0
  8  9  1  0  0  0  0
  9 17  1  0  0  0  0
  9 10  2  0  0  0  0
 18 19  1  0  0  0  0
 19 28  1  0  0  0  0
 19 20  2  0  0  0  0
 29 32  1  0  0  0  0
  8 11  1  0  0  0  0
 38 39  1  0  0  0  0
 18 21  1  0  0  0  0
 21 22  1  0  0  0  0
 28 29  1  0  0  0  0
  7  8  1  0  0  0  0
 17 18  1  0  0  0  0
  3  4  1  0  0  0  0
  3  5  1  0  0  0  0
  3  6  1  0  0  0  0
 32 35  1  0  0  0  0
 32 36  1  0  0  0  0
 32 37  1  0  0  0  0
 11 14  1  0  0  0  0
 11 15  1  0  0  0  0
 11 16  1  0  0  0  0
 39 41  1  0  0  0  0
 39 42  1  0  0  0  0
 39 43  1  0  0  0  0
 21 25  1  0  0  0  0
 21 26  1  0  0  0  0
 29 34  1  0  0  0  0
  8 13  1  0  0  0  0
 18 24  1  0  0  0  0
 38 40  1  0  0  0  0
  7 12  1  0  0  0  0
 28 33  1  0  0  0  0
 17 23  1  0  0  0  0
 22 27  1  0  0  0  0
M  END
$$$$

  -OEChem-05262214473D

 43 42  0     1  0  0  0  0  0999 V2000
    0.7424   -1.0926    4.5665 C   0  0  0  0  0  0  0  0  0  0  0  0
    0.1409   -0.5364    5.4779 O   0  0  0  0  0  0  0  0  0  0  0  0
    1.7940   -2.1023    4.8871 C   0  0  0  0  0  0  0  0  0  0  0  0
    2.7935   -1.6502    4.9904 H   0  0  0  0  0  0  0  0  0  0  0  0
    1.6064   -2.6156    5.8438 H   0  0  0  0  0  0  0  0  0  0  0  0
    1.9156   -2.9078    4.1453 H   0  0  0  0  0  0  0  0  0  0  0  0
    0.5488   -0.8838    3.2109 N   0  0  0  0  0  0  0  0  0  0  0  0
   -0.4159    0.0446    2.6829 C   0  0  2  0  0  0  0  0  0  0  0  0
   -0.7551   -0.3867    1.2623 C   0  0  0  0  0  0  0  0  0  0  0  0
   -0.0106   -1.0851    0.5774 O   0  0  0  0  0  0  0  0  0  0  0  0
    0.1168    1.4689    2.7060 C   0  0  0  0  0  0  0  0  0  0  0  0
    1.1183   -1.4145    2.5542 H   0  0  0  0  0  0  0  0  0  0  0  0
   -1.3088   -0.0350    3.3125 H   0  0  0  0  0  0  0  0  0  0  0  0
    1.0116    1.5681    2.0808 H   0  0  0  0  0  0  0  0  0  0  0  0
   -0.6289    2.1775    2.3307 H   0  0  0  0  0  0  0  0  0  0  0  0
    0.3882    1.7670    3.7245 H   0  0  0  0  0  0  0  0  0  0  0  0
   -1.9689    0.1350    0.8298 N   0  0  0  0  0  0  0  0  0  0  0  0
   -2.5039   -0.1183   -0.4830 C   0  0  2  0  0  0  0  0  0  0  0  0
   -3.9764    0.2777   -0.4825 C   0  0  0  0  0  0  0  0  0  0  0  0
   -4.5690    0.6548   -1.4913 O   0  0  0  0  0  0  0  0  0  0  0  0
   -2.3037   -1.5708   -0.9034 C   0  0  0  0  0  0  0  0  0  0  0  0
   -3.0696   -2.4347   -0.0713 O   0  0  0  0  0  0  0  0  0  0  0  0
   -2.5276    0.6894    1.4750 H   0  0  0  0  0  0  0  0  0  0  0  0
   -1.9601    0.5403   -1.1700 H   0  0  0  0  0  0  0  0  0  0  0  0
   -1.2521   -1.8632   -0.8194 H   0  0  0  0  0  0  0  0  0  0  0  0
   -2.6280   -1.7202   -1.9388 H   0  0  0  0  0  0  0  0  0  0  0  0
   -3.9981   -2.1746   -0.1798 H   0  0  0  0  0  0  0  0  0  0  0  0
   -4.5594    0.1188    0.7667 N   0  0  0  0  0  0  0  0  0  0  0  0
   -5.9539    0.3977    1.0204 C   0  0  2  0  0  0  0  0  0  0  0  0
   -6.7409    0.0384   -0.2330 C   0  0  0  0  0  0  0  0  0  0  0  0
   -6.2325   -0.0199   -1.3506 O   0  0  0  0  0  0  0  0  0  0  0  0
   -6.1670    1.8556    1.3968 C   0  0  0  0  0  0  0  0  0  0  0  0
   -4.0010   -0.2377    1.5366 H   0  0  0  0  0  0  0  0  0  0  0  0
   -6.2618   -0.2543    1.8451 H   0  0  0  0  0  0  0  0  0  0  0  0
   -5.8641    2.5240    0.5826 H   0  0  0  0  0  0  0  0  0  0  0  0
   -7.2204    2.0587    1.6165 H   0  0  0  0  0  0  0  0  0  0  0  0
   -5.5770    2.1201    2.2809 H   0  0  0  0  0  0  0  0  0  0  0  0
   -8.0867   -0.1674    0.0369 N   0  0  0  0  0  0  0  0  0  0  0  0
   -9.0445   -0.5076   -0.9892 C   0  0  0  0  0  0  0  0  0  0  0  0
   -8.4173   -0.1170    0.9960 H   0  0  0  0  0  0  0  0  0  0  0  0
   -9.5074    0.4112   -1.3785 H   0  0  0  0  0  0  0  0  0  0  0  0
   -8.5330   -1.0355   -1.8075 H   0  0  0  0  0  0  0  0  0  0  0  0
   -9.8226   -1.1580   -0.5631 H   0  0  0  0  0  0  0  0  0  0  0  0
  1  3  1  0  0  0  0
  1  7  1  0  0  0  0
  1  2  2  0  0  0  0
 29 30  1  0  0  0  0
 30 38  1  0  0  0  0
 30 31  2  0  0  0  0
  8  9  1  0  0  0  0
  9 17  1  0  0  0  0
  9 10  2  0  0  0  0
 18 19  1  0  0  0  0
 19 28  1  0  0  0  0
 19 20  2  0  0  0  0
 29 32  1  0  0  0  0
  8 11  1  0  0  0  0
 38 39  1  0  0  0  0
 18 21  1  0  0  0  0
 21 22  1  0  0  0  0
 28 29  1  0  0  0  0
  7  8  1  0  0  0  0
 17 18  1  0  0  0  0
  3  4  1  0  0  0  0
  3  5  1  0  0  0  0
  3  6  1  0  0  0  0
 32 35  1  0  0  0  0
 32 36  1  0  0  0  0
 32 37  1  0  0  0  0
 11 14  1  0  0  0  0
 11 15  1  0  0  0  0
 11 16  1  0  0  0  0
 39 41  1  0  0  0  0
 39 42  1  0  0  0  0
 39 43  1  0  0  0  0
 21 25  1  0  0  0  0
 21 26  1  0  0  0  0
 29 34  1  0  0  0  0
  8 13  1  0  0  0  0
 18 24  1  0  0  0  0
 38 40  1  0  0  0  0
  7 12  1  0  0  0  0
 28 33  1  0  0  0  0
 17 23  1  0  0  0  0
 22 27  1  0  0  0  0
M  END
$$$$

  -OEChem-05262214473D

 43 42  0     1  0  0  0  0  0999 V2000
    0.7424   -1.0926    4.5665 C   0  0  0  0  0  0  0  0  0  0  0  0
    0.1409   -0.5364    5.4779 O   0  0  0  0  0  0  0  0  0  0  0  0
    1.7940   -2.1023    4.8871 C   0  0  0  0  0  0  0  0  0  0  0  0
    2.7935   -1.6502    4.9904 H   0  0  0  0  0  0  0  0  0  0  0  0
    1.6064   -2.6156    5.8438 H   0  0  0  0  0  0  0  0  0  0  0  0
    1.9156   -2.9078    4.1453 H   0  0  0  0  0  0  0  0  0  0  0  0
    0.5488   -0.8838    3.2109 N   0  0  0  0  0  0  0  0  0  0  0  0
   -0.4159    0.0446    2.6829 C   0  0  2  0  0  0  0  0  0  0  0  0
   -0.7551   -0.3867    1.2623 C   0  0  0  0  0  0  0  0  0  0  0  0
   -0.0106   -1.0851    0.5774 O   0  0  0  0  0  0  0  0  0  0  0  0
    0.1168    1.4689    2.7060 C   0  0  0  0  0  0  0  0  0  0  0  0
    1.1183   -1.4145    2.5542 H   0  0  0  0  0  0  0  0  0  0  0  0
   -1.3088   -0.0350    3.3125 H   0  0  0  0  0  0  0  0  0  0  0  0
    1.0116    1.5681    2.0808 H   0  0  0  0  0  0  0  0  0  0  0  0
   -0.6289    2.1775    2.3307 H   0  0  0  0  0  0  0  0  0  0  0  0
    0.3882    1.7670    3.7245 H   0  0  0  0  0  0  0  0  0  0  0  0
   -1.9689    0.1350    0.8298 N   0  0  0  0  0  0  0  0  0  0  0  0
   -2.5039   -0.1183   -0.4830 C   0  0  2  0  0  0  0  0  0  0  0  0
   -3.9764    0.2777   -0.4825 C   0  0  0  0  0  0  0  0  0  0  0  0
   -4.6387    0.3957   -1.5114 O   0  0  0  0  0  0  0  0  0  0  0  0
   -2.3037   -1.5708   -0.9034 C   0  0  0  0  0  0  0  0  0  0  0  0
   -3.0696   -2.4347   -0.0713 O   0  0  0  0  0  0  0  0  0  0  0  0
   -2.5276    0.6894    1.4750 H   0  0  0  0  0  0  0  0  0  0  0  0
   -1.9601    0.5403   -1.1700 H   0  0  0  0  0  0  0  0  0  0  0  0
   -1.2521   -1.8632   -0.8194 H   0  0  0  0  0  0  0  0  0  0  0  0
   -2.6280   -1.7202   -1.9388 H   0  0  0  0  0  0  0  0  0  0  0  0
   -3.9981   -2.1746   -0.1798 H   0  0  0  0  0  0  0  0  0  0  0  0
   -4.4728    0.4410    0.8030 N   0  0  0  0  0  0  0  0  0  0  0  0
   -5.8493    0.7862    1.0721 C   0  0  2  0  0  0  0  0  0  0  0  0
   -6.7157    0.1317    0.0042 C   0  0  0  0  0  0  0  0  0  0  0  0
   -6.2831   -0.2083   -1.0950 O   0  0  0  0  0  0  0  0  0  0  0  0
   -6.0493    2.2937    1.0856 C   0  0  0  0  0  0  0  0  0  0  0  0
   -3.8608    0.2835    1.5983 H   0  0  0  0  0  0  0  0  0  0  0  0
   -6.0955    0.3637    2.0524 H   0  0  0  0  0  0  0  0  0  0  0  0
   -5.8075    2.7349    0.1118 H   0  0  0  0  0  0  0  0  0  0  0  0
   -7.0872    2.5542    1.3180 H   0  0  0  0  0  0  0  0  0  0  0  0
   -5.4035    2.7658    1.8339 H   0  0  0  0  0  0  0  0  0  0  0  0
   -8.0385    0.0114    0.4068 N   0  0  0  0  0  0  0  0  0  0  0  0
   -9.0601   -0.5663   -0.4349 C   0  0  0  0  0  0  0  0  0  0  0  0
   -8.3044    0.3027    1.3428 H   0  0  0  0  0  0  0  0  0  0  0  0
   -9.5561    0.2298   -1.0095 H   0  0  0  0  0  0  0  0  0  0  0  0
   -8.6002   -1.2863   -1.1279 H   0  0  0  0  0  0  0  0  0  0  0  0
   -9.8022   -1.0830    0.1915 H   0  0  0  0  0  0  0  0  0  0  0  0
  1  3  1  0  0  0  0
  1  7  1  0  0  0  0
  1  2  2  0  0  0  0
 29 30  1  0  0  0  0
 30 38  1  0  0  0  0
 30 31  2  0  0  0  0
  8  9  1  0  0  0  0
  9 17  1  0  0  0  0
  9 10  2  0  0  0  0
 18 19  1  0  0  0  0
 19 28  1  0  0  0  0
 19 20  2  0  0  0  0
 29 32  1  0  0  0  0
  8 11  1  0  0  0  0
 38 39  1  0  0  0  0
 18 21  1  0  0  0  0
 21 22  1  0  0  0  0
 28 29  1  0  0  0  0
  7  8  1  0  0  0  0
 17 18  1  0  0  0  0
  3  4  1  0  0  0  0
  3  5  1  0  0  0  0
  3  6  1  0  0  0  0
 32 35  1  0  0  0  0
 32 36  1  0  0  0  0
 32 37  1  0  0  0  0
 11 14  1  0  0  0  0
 11 15  1  0  0  0  0
 11 16  1  0  0  0  0
 39 41  1  0  0  0  0
 39 42  1  0  0  0  0
 39 43  1  0  0  0  0
 21 25  1  0  0  0  0
 21 26  1  0  0  0  0
 29 34  1  0  0  0  0
  8 13  1  0  0  0  0
 18 24  1  0  0  0  0
 38 40  1  0  0  0  0
  7 12  1  0  0  0  0
 28 33  1  0  0  0  0
 17 23  1  0  0  0  0
 22 27  1  0  0  0  0
M  END
$$$$

  -OEChem-05262214473D

 43 42  0     1  0  0  0  0  0999 V2000
    0.7424   -1.0926    4.5665 C   0  0  0  0  0  0  0  0  0  0  0  0
    0.1409   -0.5364    5.4779 O   0  0  0  0  0  0  0  0  0  0  0  0
    1.7940   -2.1023    4.8871 C   0  0  0  0  0  0  0  0  0  0  0  0
    2.7935   -1.6502    4.9904 H   0  0  0  0  0  0  0  0  0  0  0  0
    1.6064   -2.6156    5.8438 H   0  0  0  0  0  0  0  0  0  0  0  0
    1.9156   -2.9078    4.1453 H   0  0  0  0  0  0  0  0  0  0  0  0
    0.5488   -0.8838    3.2109 N   0  0  0  0  0  0  0  0  0  0  0  0
   -0.4159    0.0446    2.6829 C   0  0  2  0  0  0  0  0  0  0  0  0
   -0.7551   -0.3867    1.2623 C   0  0  0  0  0  0  0  0  0  0  0  0
   -0.0106   -1.0851    0.5774 O   0  0  0  0  0  0  0  0  0  0  0  0
    0.1168    1.4689    2.7060 C   0  0  0  0  0  0  0  0  0  0  0  0
    1.1183   -1.4145    2.5542 H   0  0  0  0  0  0  0  0  0  0  0  0
   -1.3088   -0.0350    3.3125 H   0  0  0  0  0  0  0  0  0  0  0  0
    1.0116    1.5681    2.0808 H   0  0  0  0  0  0  0  0  0  0  0  0
   -0.6289    2.1775    2.3307 H   0  0  0  0  0  0  0  0  0  0  0  0
    0.3882    1.7670    3.7245 H   0  0  0  0  0  0  0  0  0  0  0  0
   -1.9689    0.1350    0.8298 N   0  0  0  0  0  0  0  0  0  0  0  0
   -2.5039   -0.1183   -0.4830 C   0  0  2  0  0  0  0  0  0  0  0  0
   -3.9764    0.2777   -0.4825 C   0  0  0  0  0  0  0  0  0  0  0  0
   -4.7073    0.1404   -1.4613 O   0  0  0  0  0  0  0  0  0  0  0  0
   -2.3037   -1.5708   -0.9034 C   0  0  0  0  0  0  0  0  0  0  0  0
   -3.0696   -2.4347   -0.0713 O   0  0  0  0  0  0  0  0  0  0  0  0
   -2.5276    0.6894    1.4750 H   0  0  0  0  0  0  0  0  0  0  0  0
   -1.9601    0.5403   -1.1700 H   0  0  0  0  0  0  0  0  0  0  0  0
   -1.2521   -1.8632   -0.8194 H   0  0  0  0  0  0  0  0  0  0  0  0
   -2.6280   -1.7202   -1.9388 H   0  0  0  0  0  0  0  0  0  0  0  0
   -3.9981   -2.1746   -0.1798 H   0  0  0  0  0  0  0  0  0  0  0  0
   -4.3866    0.7614    0.7517 N   0  0  0  0  0  0  0  0  0  0  0  0
   -5.7449    1.1745    1.0180 C   0  0  2  0  0  0  0  0  0  0  0  0
   -6.6755    0.2812    0.2082 C   0  0  0  0  0  0  0  0  0  0  0  0
   -6.3147   -0.3264   -0.7976 O   0  0  0  0  0  0  0  0  0  0  0  0
   -5.9565    2.6392    0.6677 C   0  0  0  0  0  0  0  0  0  0  0  0
   -3.7213    0.8024    1.5181 H   0  0  0  0  0  0  0  0  0  0  0  0
   -5.9210    1.0125    2.0870 H   0  0  0  0  0  0  0  0  0  0  0  0
   -5.7846    2.8208   -0.3995 H   0  0  0  0  0  0  0  0  0  0  0  0
   -6.9787    2.9582    0.8968 H   0  0  0  0  0  0  0  0  0  0  0  0
   -5.2660    3.2778    1.2290 H   0  0  0  0  0  0  0  0  0  0  0  0
   -7.9671    0.2765    0.7161 N   0  0  0  0  0  0  0  0  0  0  0  0
   -9.0379   -0.4846    0.1162 C   0  0  0  0  0  0  0  0  0  0  0  0
   -8.1719    0.7947    1.5653 H   0  0  0  0  0  0  0  0  0  0  0  0
   -9.5783    0.1469   -0.6045 H   0  0  0  0  0  0  0  0  0  0  0  0
   -8.6195   -1.3588   -0.4041 H   0  0  0  0  0  0  0  0  0  0  0  0
   -9.7318   -0.8220    0.9002 H   0  0  0  0  0  0  0  0  0  0  0  0
  1  3  1  0  0  0  0
  1  7  1  0  0  0  0
  1  2  2  0  0  0  0
 29 30  1  0  0  0  0
 30 38  1  0  0  0  0
 30 31  2  0  0  0  0
  8  9  1  0  0  0  0
  9 17  1  0  0  0  0
  9 10  2  0  0  0  0
 18 19  1  0  0  0  0
 19 28  1  0  0  0  0
 19 20  2  0  0  0  0
 29 32  1  0  0  0  0
  8 11  1  0  0  0  0
 38 39  1  0  0  0  0
 18 21  1  0  0  0  0
 21 22  1  0  0  0  0
 28 29  1  0  0  0  0
  7  8  1  0  0  0  0
 17 18  1  0  0  0  0
  3  4  1  0  0  0  0
  3  5  1  0  0  0  0
  3  6  1  0  0  0  0
 32 35  1  0  0  0  0
 32 36  1  0  0  0  0
 32 37  1  0  0  0  0
 11 14  1  0  0  0  0
 11 15  1  0  0  0  0
 11 16  1  0  0  0  0
 39 41  1  0  0  0  0
 39 42  1  0  0  0  0
 39 43  1  0  0  0  0
 21 25  1  0  0  0  0
 21 26  1  0  0  0  0
 29 34  1  0  0  0  0
  8 13  1  0  0  0  0
 18 24  1  0  0  0  0
 38 40  1  0  0  0  0
  7 12  1  0  0  0  0
 28 33  1  0  0  0  0
 17 23  1  0  0  0  0
 22 27  1  0  0  0  0
M  END
$$$$

  -OEChem-05262214473D

 43 42  0     1  0  0  0  0  0999 V2000
    0.7424   -1.0926    4.5665 C   0  0  0  0  0  0  0  0  0  0  0  0
    0.1409   -0.5364    5.4779 O   0  0  0  0  0  0  0  0  0  0  0  0
    1.7940   -2.1023    4.8871 C   0  0  0  0  0  0  0  0  0  0  0  0
    2.7935   -1.6502    4.9904 H   0  0  0  0  0  0  0  0  0  0  0  0
    1.6064   -2.6156    5.8438 H   0  0  0  0  0  0  0  0  0  0  0  0
    1.9156   -2.9078    4.1453 H   0  0  0  0  0  0  0  0  0  0  0  0
    0.5488   -0.8838    3.2109 N   0  0  0  0  0  0  0  0  0  0  0  0
   -0.4159    0.0446    2.6829 C   0  0  2  0  0  0  0  0  0  0  0  0
   -0.7551   -0.3867    1.2623 C   0  0  0  0  0  0  0  0  0  0  0  0
   -0.0106   -1.0851    0.5774 O   0  0  0  0  0  0  0  0  0  0  0  0
    0.1168    1.4689    2.7060 C   0  0  0  0  0  0  0  0  0  0  0  0
    1.1183   -1.4145    2.5542 H   0  0  0  0  0  0  0  0  0  0  0  0
   -1.3088   -0.0350    3.3125 H   0  0  0  0  0  0  0  0  0  0  0  0
    1.0116    1.5681    2.0808 H   0  0  0  0  0  0  0  0  0  0  0  0
   -0.6289    2.1775    2.3307 H   0  0  0  0  0  0  0  0  0  0  0  0
    0.3882    1.7670    3.7245 H   0  0  0  0  0  0  0  0  0  0  0  0
   -1.9689    0.1350    0.8298 N   0  0  0  0  0  0  0  0  0  0  0  0
   -2.5039   -0.1183   -0.4830 C   0  0  2  0  0  0  0  0  0  0  0  0
   -3.9764    0.2777   -0.4825 C   0  0  0  0  0  0  0  0  0  0  0  0
   -4.7702   -0.0937   -1.3445 O   0  0  0  0  0  0  0  0  0  0  0  0
   -2.3037   -1.5708   -0.9034 C   0  0  0  0  0  0  0  0  0  0  0  0
   -3.0696   -2.4347   -0.0713 O   0  0  0  0  0  0  0  0  0  0  0  0
   -2.5276    0.6894    1.4750 H   0  0  0  0  0  0  0  0  0  0  0  0
   -1.9601    0.5403   -1.1700 H   0  0  0  0  0  0  0  0  0  0  0  0
   -1.2521   -1.8632   -0.8194 H   0  0  0  0  0  0  0  0  0  0  0  0
   -2.6280   -1.7202   -1.9388 H   0  0  0  0  0  0  0  0  0  0  0  0
   -3.9981   -2.1746   -0.1798 H   0  0  0  0  0  0  0  0  0  0  0  0
   -4.3069    1.0580    0.6164 N   0  0  0  0  0  0  0  0  0  0  0  0
   -5.6478    1.5360    0.8616 C   0  0  2  0  0  0  0  0  0  0  0  0
   -6.6229    0.4766    0.3653 C   0  0  0  0  0  0  0  0  0  0  0  0
   -6.3253   -0.3662   -0.4787 O   0  0  0  0  0  0  0  0  0  0  0  0
   -5.8951    2.8684    0.1714 C   0  0  0  0  0  0  0  0  0  0  0  0
   -3.5920    1.2836    1.3017 H   0  0  0  0  0  0  0  0  0  0  0  0
   -5.7502    1.6479    1.9465 H   0  0  0  0  0  0  0  0  0  0  0  0
   -5.7968    2.7761   -0.9164 H   0  0  0  0  0  0  0  0  0  0  0  0
   -6.9022    3.2432    0.3816 H   0  0  0  0  0  0  0  0  0  0  0  0
   -5.1739    3.6212    0.5076 H   0  0  0  0  0  0  0  0  0  0  0  0
   -7.8773    0.6099    0.9438 N   0  0  0  0  0  0  0  0  0  0  0  0
   -8.9795   -0.2679    0.6266 C   0  0  0  0  0  0  0  0  0  0  0  0
   -8.0291    1.3257    1.6484 H   0  0  0  0  0  0  0  0  0  0  0  0
   -9.5724    0.1680   -0.1910 H   0  0  0  0  0  0  0  0  0  0  0  0
   -8.5894   -1.2479    0.3144 H   0  0  0  0  0  0  0  0  0  0  0  0
   -9.6161   -0.3927    1.5149 H   0  0  0  0  0  0  0  0  0  0  0  0
  1  3  1  0  0  0  0
  1  7  1  0  0  0  0
  1  2  2  0  0  0  0
 29 30  1  0  0  0  0
 30 38  1  0  0  0  0
 30 31  2  0  0  0  0
  8  9  1  0  0  0  0
  9 17  1  0  0  0  0
  9 10  2  0  0  0  0
 18 19  1  0  0  0  0
 19 28  1  0  0  0  0
 19 20  2  0  0  0  0
 29 32  1  0  0  0  0
  8 11  1  0  0  0  0
 38 39  1  0  0  0  0
 18 21  1  0  0  0  0
 21 22  1  0  0  0  0
 28 29  1  0  0  0  0
  7  8  1  0  0  0  0
 17 18  1  0  0  0  0
  3  4  1  0  0  0  0
  3  5  1  0  0  0  0
  3  6  1  0  0  0  0
 32 35  1  0  0  0  0
 32 36  1  0  0  0  0
 32 37  1  0  0  0  0
 11 14  1  0  0  0  0
 11 15  1  0  0  0  0
 11 16  1  0  0  0  0
 39 41  1  0  0  0  0
 39 42  1  0  0  0  0
 39 43  1  0  0  0  0
 21 25  1  0  0  0  0
 21 26  1  0  0  0  0
 29 34  1  0  0  0  0
  8 13  1  0  0  0  0
 18 24  1  0  0  0  0
 38 40  1  0  0  0  0
  7 12  1  0  0  0  0
 28 33  1  0  0  0  0
 17 23  1  0  0  0  0
 22 27  1  0  0  0  0
M  END
$$$$

  -OEChem-05262214473D

 43 42  0     1  0  0  0  0  0999 V2000
    0.7424   -1.0926    4.5665 C   0  0  0  0  0  0  0  0  0  0  0  0
    0.1409   -0.5364    5.4779 O   0  0  0  0  0  0  0  0  0  0  0  0
    1.7940   -2.1023    4.8871 C   0  0  0  0  0  0  0  0  0  0  0  0
    2.7935   -1.6502    4.9904 H   0  0  0  0  0  0  0  0  0  0  0  0
    1.6064   -2.6156    5.8438 H   0  0  0  0  0  0  0  0  0  0  0  0
    1.9156   -2.9078    4.1453 H   0  0  0  0  0  0  0  0  0  0  0  0
    0.5488   -0.8838    3.2109 N   0  0  0  0  0  0  0  0  0  0  0  0
   -0.4159    0.0446    2.6829 C   0  0  2  0  0  0  0  0  0  0  0  0
   -0.7551   -0.3867    1.2623 C   0  0  0  0  0  0  0  0  0  0  0  0
   -0.0106   -1.0851    0.5774 O   0  0  0  0  0  0  0  0  0  0  0  0
    0.1168    1.4689    2.7060 C   0  0  0  0  0  0  0  0  0  0  0  0
    1.1183   -1.4145    2.5542 H   0  0  0  0  0  0  0  0  0  0  0  0
   -1.3088   -0.0350    3.3125 H   0  0  0  0  0  0  0  0  0  0  0  0
    1.0116    1.5681    2.0808 H   0  0  0  0  0  0  0  0  0  0  0  0
   -0.6289    2.1775    2.3307 H   0  0  0  0  0  0  0  0  0  0  0  0
    0.3882    1.7670    3.7245 H   0  0  0  0  0  0  0  0  0  0  0  0
   -1.9689    0.1350    0.8298 N   0  0  0  0  0  0  0  0  0  0  0  0
   -2.5039   -0.1183   -0.4830 C   0  0  2  0  0  0  0  0  0  0  0  0
   -3.9764    0.2777   -0.4825 C   0  0  0  0  0  0  0  0  0  0  0  0
   -4.8231   -0.2906   -1.1690 O   0  0  0  0  0  0  0  0  0  0  0  0
   -2.3037   -1.5708   -0.9034 C   0  0  0  0  0  0  0  0  0  0  0  0
   -3.0696   -2.4347   -0.0713 O   0  0  0  0  0  0  0  0  0  0  0  0
   -2.5276    0.6894    1.4750 H   0  0  0  0  0  0  0  0  0  0  0  0
   -1.9601    0.5403   -1.1700 H   0  0  0  0  0  0  0  0  0  0  0  0
   -1.2521   -1.8632   -0.8194 H   0  0  0  0  0  0  0  0  0  0  0  0
   -2.6280   -1.7202   -1.9388 H   0  0  0  0  0  0  0  0  0  0  0  0
   -3.9981   -2.1746   -0.1798 H   0  0  0  0  0  0  0  0  0  0  0  0
   -4.2390    1.3106    0.4061 N   0  0  0  0  0  0  0  0  0  0  0  0
   -5.5644    1.8461    0.6137 C   0  0  2  0  0  0  0  0  0  0  0  0
   -6.5615    0.7046    0.4646 C   0  0  0  0  0  0  0  0  0  0  0  0
   -6.3141   -0.3249   -0.1600 O   0  0  0  0  0  0  0  0  0  0  0  0
   -5.8690    2.9657   -0.3694 C   0  0  0  0  0  0  0  0  0  0  0  0
   -3.4816    1.6944    0.9636 H   0  0  0  0  0  0  0  0  0  0  0  0
   -5.5947    2.2265    1.6405 H   0  0  0  0  0  0  0  0  0  0  0  0
   -5.8433    2.6037   -1.4037 H   0  0  0  0  0  0  0  0  0  0  0  0
   -6.8630    3.3897   -0.1923 H   0  0  0  0  0  0  0  0  0  0  0  0
   -5.1335    3.7726   -0.2813 H   0  0  0  0  0  0  0  0  0  0  0  0
   -7.7754    0.9889    1.0744 N   0  0  0  0  0  0  0  0  0  0  0  0
   -8.8887    0.0690    1.0615 C   0  0  0  0  0  0  0  0  0  0  0  0
   -7.8856    1.8593    1.5863 H   0  0  0  0  0  0  0  0  0  0  0  0
   -9.5391    0.2917    0.2027 H   0  0  0  0  0  0  0  0  0  0  0  0
   -8.5121   -0.9612    0.9786 H   0  0  0  0  0  0  0  0  0  0  0  0
   -9.4631    0.1756    1.9935 H   0  0  0  0  0  0  0  0  0  0  0  0
  1  3  1  0  0  0  0
  1  7  1  0  0  0  0
  1  2  2  0  0  0  0
 29 30  1  0  0  0  0
 30 38  1  0  0  0  0
 30 31  2  0  0  0  0
  8  9  1  0  0  0  0
  9 17  1  0  0  0  0
  9 10  2  0  0  0  0
 18 19  1  0  0  0  0
 19 28  1  0  0  0  0
 19 20  2  0  0  0  0
 29 32  1  0  0  0  0
  8 11  1  0  0  0  0
 38 39  1  0  0  0  0
 18 21  1  0  0  0  0
 21 22  1  0  0  0  0
 28 29  1  0  0  0  0
  7  8  1  0  0  0  0
 17 18  1  0  0  0  0
  3  4  1  0  0  0  0
  3  5  1  0  0  0  0
  3  6  1  0  0  0  0
 32 35  1  0  0  0  0
 32 36  1  0  0  0  0
 32 37  1  0  0  0  0
 11 14  1  0  0  0  0
 11 15  1  0  0  0  0
 11 16  1  0  0  0  0
 39 41  1  0  0  0  0
 39 42  1  0  0  0  0
 39 43  1  0  0  0  0
 21 25  1  0  0  0  0
 21 26  1  0  0  0  0
 29 34  1  0  0  0  0
  8 13  1  0  0  0  0
 18 24  1  0  0  0  0
 38 40  1  0  0  0  0
  7 12  1  0  0  0  0
 28 33  1  0  0  0  0
 17 23  1  0  0  0  0
 22 27  1  0  0  0  0
M  END
$$$$

  -OEChem-05262214473D

 43 42  0     1  0  0  0  0  0999 V2000
    0.7424   -1.0926    4.5665 C   0  0  0  0  0  0  0  0  0  0  0  0
    0.1409   -0.5364    5.4779 O   0  0  0  0  0  0  0  0  0  0  0  0
    1.7940   -2.1023    4.8871 C   0  0  0  0  0  0  0  0  0  0  0  0
    2.7935   -1.6502    4.9904 H   0  0  0  0  0  0  0  0  0  0  0  0
    1.6064   -2.6156    5.8438 H   0  0  0  0  0  0  0  0  0  0  0  0
    1.9156   -2.9078    4.1453 H   0  0  0  0  0  0  0  0  0  0  0  0
    0.5488   -0.8838    3.2109 N   0  0  0  0  0  0  0  0  0  0  0  0
   -0.4159    0.0446    2.6829 C   0  0  2  0  0  0  0  0  0  0  0  0
   -0.7551   -0.3867    1.2623 C   0  0  0  0  0  0  0  0  0  0  0  0
   -0.0106   -1.0851    0.5774 O   0  0  0  0  0  0  0  0  0  0  0  0
    0.1168    1.4689    2.7060 C   0  0  0  0  0  0  0  0  0  0  0  0
    1.1183   -1.4145    2.5542 H   0  0  0  0  0  0  0  0  0  0  0  0
   -1.3088   -0.0350    3.3125 H   0  0  0  0  0  0  0  0  0  0  0  0
    1.0116    1.5681    2.0808 H   0  0  0  0  0  0  0  0  0  0  0  0
   -0.6289    2.1775    2.3307 H   0  0  0  0  0  0  0  0  0  0  0  0
    0.3882    1.7670    3.7245 H   0  0  0  0  0  0  0  0  0  0  0  0
   -1.9689    0.1350    0.8298 N   0  0  0  0  0  0  0  0  0  0  0  0
   -2.5039   -0.1183   -0.4830 C   0  0  2  0  0  0  0  0  0  0  0  0
   -3.9764    0.2777   -0.4825 C   0  0  0  0  0  0  0  0  0  0  0  0
   -4.8624   -0.4369   -0.9466 O   0  0  0  0  0  0  0  0  0  0  0  0
   -2.3037   -1.5708   -0.9034 C   0  0  0  0  0  0  0  0  0  0  0  0
   -3.0696   -2.4347   -0.0713 O   0  0  0  0  0  0  0  0  0  0  0  0
   -2.5276    0.6894    1.4750 H   0  0  0  0  0  0  0  0  0  0  0  0
   -1.9601    0.5403   -1.1700 H   0  0  0  0  0  0  0  0  0  0  0  0
   -1.2521   -1.8632   -0.8194 H   0  0  0  0  0  0  0  0  0  0  0  0
   -2.6280   -1.7202   -1.9388 H   0  0  0  0  0  0  0  0  0  0  0  0
   -3.9981   -2.1746   -0.1798 H   0  0  0  0  0  0  0  0  0  0  0  0
   -4.1876    1.5021    0.1353 N   0  0  0  0  0  0  0  0  0  0  0  0
   -5.5007    2.0837    0.2911 C   0  0  2  0  0  0  0  0  0  0  0  0
   -6.4956    0.9496    0.4994 C   0  0  0  0  0  0  0  0  0  0  0  0
   -6.2819   -0.2053    0.1368 O   0  0  0  0  0  0  0  0  0  0  0  0
   -5.8803    2.9246   -0.9179 C   0  0  0  0  0  0  0  0  0  0  0  0
   -3.3978    2.0066    0.5270 H   0  0  0  0  0  0  0  0  0  0  0  0
   -5.4651    2.7089    1.1899 H   0  0  0  0  0  0  0  0  0  0  0  0
   -5.9210    2.3153   -1.8281 H   0  0  0  0  0  0  0  0  0  0  0  0
   -6.8637    3.3878   -0.7860 H   0  0  0  0  0  0  0  0  0  0  0  0
   -5.1474    3.7216   -1.0839 H   0  0  0  0  0  0  0  0  0  0  0  0
   -7.6681    1.3876    1.0990 N   0  0  0  0  0  0  0  0  0  0  0  0
   -8.7719    0.5031    1.3913 C   0  0  0  0  0  0  0  0  0  0  0  0
   -7.7513    2.3592    1.3833 H   0  0  0  0  0  0  0  0  0  0  0  0
   -9.4803    0.5096    0.5498 H   0  0  0  0  0  0  0  0  0  0  0  0
   -8.3928   -0.5182    1.5434 H   0  0  0  0  0  0  0  0  0  0  0  0
   -9.2832    0.8441    2.3035 H   0  0  0  0  0  0  0  0  0  0  0  0
  1  3  1  0  0  0  0
  1  7  1  0  0  0  0
  1  2  2  0  0  0  0
 29 30  1  0  0  0  0
 30 38  1  0  0  0  0
 30 31  2  0  0  0  0
  8  9  1  0  0  0  0
  9 17  1  0  0  0  0
  9 10  2  0  0  0  0
 18 19  1  0  0  0  0
 19 28  1  0  0  0  0
 19 20  2  0  0  0  0
 29 32  1  0  0  0  0
  8 11  1  0  0  0  0
 38 39  1  0  0  0  0
 18 21  1  0  0  0  0
 21 22  1  0  0  0  0
 28 29  1  0  0  0  0
  7  8  1  0  0  0  0
 17 18  1  0  0  0  0
  3  4  1  0  0  0  0
  3  5  1  0  0  0  0
  3  6  1  0  0  0  0
 32 35  1  0  0  0  0
 32 36  1  0  0  0  0
 32 37  1  0  0  0  0
 11 14  1  0  0  0  0
 11 15  1  0  0  0  0
 11 16  1  0  0  0  0
 39 41  1  0  0  0  0
 39 42  1  0  0  0  0
 39 43  1  0  0  0  0
 21 25  1  0  0  0  0
 21 26  1  0  0  0  0
 29 34  1  0  0  0  0
  8 13  1  0  0  0  0
 18 24  1  0  0  0  0
 38 40  1  0  0  0  0
  7 12  1  0  0  0  0
 28 33  1  0  0  0  0
 17 23  1  0  0  0  0
 22 27  1  0  0  0  0
M  END
$$$$

  -OEChem-05262214473D

 43 42  0     1  0  0  0  0  0999 V2000
    0.7424   -1.0926    4.5665 C   0  0  0  0  0  0  0  0  0  0  0  0
    0.1409   -0.5364    5.4779 O   0  0  0  0  0  0  0  0  0  0  0  0
    1.7940   -2.1023    4.8871 C   0  0  0  0  0  0  0  0  0  0  0  0
    2.7935   -1.6502    4.9904 H   0  0  0  0  0  0  0  0  0  0  0  0
    1.6064   -2.6156    5.8438 H   0  0  0  0  0  0  0  0  0  0  0  0
    1.9156   -2.9078    4.1453 H   0  0  0  0  0  0  0  0  0  0  0  0
    0.5488   -0.8838    3.2109 N   0  0  0  0  0  0  0  0  0  0  0  0
   -0.4159    0.0446    2.6829 C   0  0  2  0  0  0  0  0  0  0  0  0
   -0.7551   -0.3867    1.2623 C   0  0  0  0  0  0  0  0  0  0  0  0
   -0.0106   -1.0851    0.5774 O   0  0  0  0  0  0  0  0  0  0  0  0
    0.1168    1.4689    2.7060 C   0  0  0  0  0  0  0  0  0  0  0  0
    1.1183   -1.4145    2.5542 H   0  0  0  0  0  0  0  0  0  0  0  0
   -1.3088   -0.0350    3.3125 H   0  0  0  0  0  0  0  0  0  0  0  0
    1.0116    1.5681    2.0808 H   0  0  0  0  0  0  0  0  0  0  0  0
   -0.6289    2.1775    2.3307 H   0  0  0  0  0  0  0  0  0  0  0  0
    0.3882    1.7670    3.7245 H   0  0  0  0  0  0  0  0  0  0  0  0
   -1.9689    0.1350    0.8298 N   0  0  0  0  0  0  0  0  0  0  0  0
   -2.5039   -0.1183   -0.4830 C   0  0  2  0  0  0  0  0  0  0  0  0
   -3.9764    0.2777   -0.4825 C   0  0  0  0  0  0  0  0  0  0  0  0
   -4.8854   -0.5227   -0.6927 O   0  0  0  0  0  0  0  0  0  0  0  0
   -2.3037   -1.5708   -0.9034 C   0  0  0  0  0  0  0  0  0  0  0  0
   -3.0696   -2.4347   -0.0713 O   0  0  0  0  0  0  0  0  0  0  0  0
   -2.5276    0.6894    1.4750 H   0  0  0  0  0  0  0  0  0  0  0  0
   -1.9601    0.5403   -1.1700 H   0  0  0  0  0  0  0  0  0  0  0  0
   -1.2521   -1.8632   -0.8194 H   0  0  0  0  0  0  0  0  0  0  0  0
   -2.6280   -1.7202   -1.9388 H   0  0  0  0  0  0  0  0  0  0  0  0
   -3.9981   -2.1746   -0.1798 H   0  0  0  0  0  0  0  0  0  0  0  0
   -4.1562    1.6195   -0.1775 N   0  0  0  0  0  0  0  0  0  0  0  0
   -5.4607    2.2326   -0.0842 C   0  0  2  0  0  0  0  0  0  0  0  0
   -6.4296    1.1950    0.4674 C   0  0  0  0  0  0  0  0  0  0  0  0
   -6.2308   -0.0157    0.3914 O   0  0  0  0  0  0  0  0  0  0  0  0
   -5.9280    2.7478   -1.4366 C   0  0  0  0  0  0  0  0  0  0  0  0
   -3.3462    2.1991    0.0216 H   0  0  0  0  0  0  0  0  0  0  0  0
   -5.3702    3.0622    0.6254 H   0  0  0  0  0  0  0  0  0  0  0  0
   -6.0245    1.9307   -2.1608 H   0  0  0  0  0  0  0  0  0  0  0  0
   -6.9043    3.2376   -1.3588 H   0  0  0  0  0  0  0  0  0  0  0  0
   -5.2149    3.4718   -1.8454 H   0  0  0  0  0  0  0  0  0  0  0  0
   -7.5629    1.7789    1.0159 N   0  0  0  0  0  0  0  0  0  0  0  0
   -8.6369    1.0049    1.5935 C   0  0  0  0  0  0  0  0  0  0  0  0
   -7.6351    2.7914    1.0533 H   0  0  0  0  0  0  0  0  0  0  0  0
   -9.4003    0.8069    0.8267 H   0  0  0  0  0  0  0  0  0  0  0  0
   -8.2396    0.0508    1.9702 H   0  0  0  0  0  0  0  0  0  0  0  0
   -9.0887    1.5674    2.4238 H   0  0  0  0  0  0  0  0  0  0  0  0
  1  3  1  0  0  0  0
  1  7  1  0  0  0  0
  1  2  2  0  0  0  0
 29 30  1  0  0  0  0
 30 38  1  0  0  0  0
 30 31  2  0  0  0  0
  8  9  1  0  0  0  0
  9 17  1  0  0  0  0
  9 10  2  0  0  0  0
 18 19  1  0  0  0  0
 19 28  1  0  0  0  0
 19 20  2  0  0  0  0
 29 32  1  0  0  0  0
  8 11  1  0  0  0  0
 38 39  1  0  0  0  0
 18 21  1  0  0  0  0
 21 22  1  0  0  0  0
 28 29  1  0  0  0  0
  7  8  1  0  0  0  0
 17 18  1  0  0  0  0
  3  4  1  0  0  0  0
  3  5  1  0  0  0  0
  3  6  1  0  0  0  0
 32 35  1  0  0  0  0
 32 36  1  0  0  0  0
 32 37  1  0  0  0  0
 11 14  1  0  0  0  0
 11 15  1  0  0  0  0
 11 16  1  0  0  0  0
 39 41  1  0  0  0  0
 39 42  1  0  0  0  0
 39 43  1  0  0  0  0
 21 25  1  0  0  0  0
 21 26  1  0  0  0  0
 29 34  1  0  0  0  0
  8 13  1  0  0  0  0
 18 24  1  0  0  0  0
 38 40  1  0  0  0  0
  7 12  1  0  0  0  0
 28 33  1  0  0  0  0
 17 23  1  0  0  0  0
 22 27  1  0  0  0  0
M  END
$$$$

  -OEChem-05262214473D

 43 42  0     1  0  0  0  0  0999 V2000
    0.7424   -1.0926    4.5665 C   0  0  0  0  0  0  0  0  0  0  0  0
    0.1409   -0.5364    5.4779 O   0  0  0  0  0  0  0  0  0  0  0  0
    1.7940   -2.1023    4.8871 C   0  0  0  0  0  0  0  0  0  0  0  0
    2.7935   -1.6502    4.9904 H   0  0  0  0  0  0  0  0  0  0  0  0
    1.6064   -2.6156    5.8438 H   0  0  0  0  0  0  0  0  0  0  0  0
    1.9156   -2.9078    4.1453 H   0  0  0  0  0  0  0  0  0  0  0  0
    0.5488   -0.8838    3.2109 N   0  0  0  0  0  0  0  0  0  0  0  0
   -0.4159    0.0446    2.6829 C   0  0  2  0  0  0  0  0  0  0  0  0
   -0.7551   -0.3867    1.2623 C   0  0  0  0  0  0  0  0  0  0  0  0
   -0.0106   -1.0851    0.5774 O   0  0  0  0  0  0  0  0  0  0  0  0
    0.1168    1.4689    2.7060 C   0  0  0  0  0  0  0  0  0  0  0  0
    1.1183   -1.4145    2.5542 H   0  0  0  0  0  0  0  0  0  0  0  0
   -1.3088   -0.0350    3.3125 H   0  0  0  0  0  0  0  0  0  0  0  0
    1.0116    1.5681    2.0808 H   0  0  0  0  0  0  0  0  0  0  0  0
   -0.6289    2.1775    2.3307 H   0  0  0  0  0  0  0  0  0  0  0  0
    0.3882    1.7670    3.7245 H   0  0  0  0  0  0  0  0  0  0  0  0
   -1.9689    0.1350    0.8298 N   0  0  0  0  0  0  0  0  0  0  0  0
   -2.5039   -0.1183   -0.4830 C   0  0  2  0  0  0  0  0  0  0  0  0
   -3.9764    0.2777   -0.4825 C   0  0  0  0  0  0  0  0  0  0  0  0
   -4.8905   -0.5421   -0.4243 O   0  0  0  0  0  0  0  0  0  0  0  0
   -2.3037   -1.5708   -0.9034 C   0  0  0  0  0  0  0  0  0  0  0  0
   -3.0696   -2.4347   -0.0713 O   0  0  0  0  0  0  0  0  0  0  0  0
   -2.5276    0.6894    1.4750 H   0  0  0  0  0  0  0  0  0  0  0  0
   -1.9601    0.5403   -1.1700 H   0  0  0  0  0  0  0  0  0  0  0  0
   -1.2521   -1.8632   -0.8194 H   0  0  0  0  0  0  0  0  0  0  0  0
   -2.6280   -1.7202   -1.9388 H   0  0  0  0  0  0  0  0  0  0  0  0
   -3.9981   -2.1746   -0.1798 H   0  0  0  0  0  0  0  0  0  0  0  0
   -4.1468    1.6546   -0.5112 N   0  0  0  0  0  0  0  0  0  0  0  0
   -5.4474    2.2826   -0.4866 C   0  0  2  0  0  0  0  0  0  0  0  0
   -6.3681    1.4241    0.3706 C   0  0  0  0  0  0  0  0  0  0  0  0
   -6.1643    0.2312    0.5865 O   0  0  0  0  0  0  0  0  0  0  0  0
   -6.0089    2.4474   -1.8903 C   0  0  0  0  0  0  0  0  0  0  0  0
   -3.3303    2.2587   -0.5182 H   0  0  0  0  0  0  0  0  0  0  0  0
   -5.3166    3.2625   -0.0146 H   0  0  0  0  0  0  0  0  0  0  0  0
   -6.1469    1.4761   -2.3791 H   0  0  0  0  0  0  0  0  0  0  0  0
   -6.9820    2.9493   -1.8719 H   0  0  0  0  0  0  0  0  0  0  0  0
   -5.3312    3.0401   -2.5140 H   0  0  0  0  0  0  0  0  0  0  0  0
   -7.4669    2.1361    0.8308 N   0  0  0  0  0  0  0  0  0  0  0  0
   -8.4929    1.5401    1.6543 C   0  0  0  0  0  0  0  0  0  0  0  0
   -7.5452    3.1263    0.6186 H   0  0  0  0  0  0  0  0  0  0  0  0
   -9.3044    1.1632    1.0144 H   0  0  0  0  0  0  0  0  0  0  0  0
   -8.0630    0.7072    2.2299 H   0  0  0  0  0  0  0  0  0  0  0  0
   -8.8927    2.2961    2.3461 H   0  0  0  0  0  0  0  0  0  0  0  0
  1  3  1  0  0  0  0
  1  7  1  0  0  0  0
  1  2  2  0  0  0  0
 29 30  1  0  0  0  0
 30 38  1  0  0  0  0
 30 31  2  0  0  0  0
  8  9  1  0  0  0  0
  9 17  1  0  0  0  0
  9 10  2  0  0  0  0
 18 19  1  0  0  0  0
 19 28  1  0  0  0  0
 19 20  2  0  0  0  0
 29 32  1  0  0  0  0
  8 11  1  0  0  0  0
 38 39  1  0  0  0  0
 18 21  1  0  0  0  0
 21 22  1  0  0  0  0
 28 29  1  0  0  0  0
  7  8  1  0  0  0  0
 17 18  1  0  0  0  0
  3  4  1  0  0  0  0
  3  5  1  0  0  0  0
  3  6  1  0  0  0  0
 32 35  1  0  0  0  0
 32 36  1  0  0  0  0
 32 37  1  0  0  0  0
 11 14  1  0  0  0  0
 11 15  1  0  0  0  0
 11 16  1  0  0  0  0
 39 41  1  0  0  0  0
 39 42  1  0  0  0  0
 39 43  1  0  0  0  0
 21 25  1  0  0  0  0
 21 26  1  0  0  0  0
 29 34  1  0  0  0  0
  8 13  1  0  0  0  0
 18 24  1  0  0  0  0
 38 40  1  0  0  0  0
  7 12  1  0  0  0  0
 28 33  1  0  0  0  0
 17 23  1  0  0  0  0
 22 27  1  0  0  0  0
M  END
$$$$

  -OEChem-05262214473D

 43 42  0     1  0  0  0  0  0999 V2000
    0.7424   -1.0926    4.5665 C   0  0  0  0  0  0  0  0  0  0  0  0
    0.1409   -0.5364    5.4779 O   0  0  0  0  0  0  0  0  0  0  0  0
    1.7940   -2.1023    4.8871 C   0  0  0  0  0  0  0  0  0  0  0  0
    2.7935   -1.6502    4.9904 H   0  0  0  0  0  0  0  0  0  0  0  0
    1.6064   -2.6156    5.8438 H   0  0  0  0  0  0  0  0  0  0  0  0
    1.9156   -2.9078    4.1453 H   0  0  0  0  0  0  0  0  0  0  0  0
    0.5488   -0.8838    3.2109 N   0  0  0  0  0  0  0  0  0  0  0  0
   -0.4159    0.0446    2.6829 C   0  0  2  0  0  0  0  0  0  0  0  0
   -0.7551   -0.3867    1.2623 C   0  0  0  0  0  0  0  0  0  0  0  0
   -0.0106   -1.0851    0.5774 O   0  0  0  0  0  0  0  0  0  0  0  0
    0.1168    1.4689    2.7060 C   0  0  0  0  0  0  0  0  0  0  0  0
    1.1183   -1.4145    2.5542 H   0  0  0  0  0  0  0  0  0  0  0  0
   -1.3088   -0.0350    3.3125 H   0  0  0  0  0  0  0  0  0  0  0  0
    1.0116    1.5681    2.0808 H   0  0  0  0  0  0  0  0  0  0  0  0
   -0.6289    2.1775    2.3307 H   0  0  0  0  0  0  0  0  0  0  0  0
    0.3882    1.7670    3.7245 H   0  0  0  0  0  0  0  0  0  0  0  0
   -1.9689    0.1350    0.8298 N   0  0  0  0  0  0  0  0  0  0  0  0
   -2.5039   -0.1183   -0.4830 C   0  0  2  0  0  0  0  0  0  0  0  0
   -3.9764    0.2777   -0.4825 C   0  0  0  0  0  0  0  0  0  0  0  0
   -4.8774   -0.4938   -0.1600 O   0  0  0  0  0  0  0  0  0  0  0  0
   -2.3037   -1.5708   -0.9034 C   0  0  0  0  0  0  0  0  0  0  0  0
   -3.0696   -2.4347   -0.0713 O   0  0  0  0  0  0  0  0  0  0  0  0
   -2.5276    0.6894    1.4750 H   0  0  0  0  0  0  0  0  0  0  0  0
   -1.9601    0.5403   -1.1700 H   0  0  0  0  0  0  0  0  0  0  0  0
   -1.2521   -1.8632   -0.8194 H   0  0  0  0  0  0  0  0  0  0  0  0
   -2.6280   -1.7202   -1.9388 H   0  0  0  0  0  0  0  0  0  0  0  0
   -3.9981   -2.1746   -0.1798 H   0  0  0  0  0  0  0  0  0  0  0  0
   -4.1602    1.6051   -0.8429 N   0  0  0  0  0  0  0  0  0  0  0  0
   -5.4616    2.2303   -0.8887 C   0  0  2  0  0  0  0  0  0  0  0  0
   -6.3151    1.6211    0.2158 C   0  0  0  0  0  0  0  0  0  0  0  0
   -6.0871    0.5184    0.7088 O   0  0  0  0  0  0  0  0  0  0  0  0
   -6.1176    2.0438   -2.2479 C   0  0  0  0  0  0  0  0  0  0  0  0
   -3.3513    2.1814   -1.0556 H   0  0  0  0  0  0  0  0  0  0  0  0
   -5.3078    3.2959   -0.6865 H   0  0  0  0  0  0  0  0  0  0  0  0
   -6.2797    0.9823   -2.4681 H   0  0  0  0  0  0  0  0  0  0  0  0
   -7.0915    2.5426   -2.2903 H   0  0  0  0  0  0  0  0  0  0  0  0
   -5.4884    2.4560   -3.0442 H   0  0  0  0  0  0  0  0  0  0  0  0
   -7.3867    2.4348    0.5562 N   0  0  0  0  0  0  0  0  0  0  0  0
   -8.3498    2.0723    1.5696 C   0  0  0  0  0  0  0  0  0  0  0  0
   -7.4876    3.3413    0.1091 H   0  0  0  0  0  0  0  0  0  0  0  0
   -9.1992    1.5543    1.1003 H   0  0  0  0  0  0  0  0  0  0  0  0
   -7.8750    1.4061    2.3049 H   0  0  0  0  0  0  0  0  0  0  0  0
   -8.7087    2.9806    2.0757 H   0  0  0  0  0  0  0  0  0  0  0  0
  1  3  1  0  0  0  0
  1  7  1  0  0  0  0
  1  2  2  0  0  0  0
 29 30  1  0  0  0  0
 30 38  1  0  0  0  0
 30 31  2  0  0  0  0
  8  9  1  0  0  0  0
  9 17  1  0  0  0  0
  9 10  2  0  0  0  0
 18 19  1  0  0  0  0
 19 28  1  0  0  0  0
 19 20  2  0  0  0  0
 29 32  1  0  0  0  0
  8 11  1  0  0  0  0
 38 39  1  0  0  0  0
 18 21  1  0  0  0  0
 21 22  1  0  0  0  0
 28 29  1  0  0  0  0
  7  8  1  0  0  0  0
 17 18  1  0  0  0  0
  3  4  1  0  0  0  0
  3  5  1  0  0  0  0
  3  6  1  0  0  0  0
 32 35  1  0  0  0  0
 32 36  1  0  0  0  0
 32 37  1  0  0  0  0
 11 14  1  0  0  0  0
 11 15  1  0  0  0  0
 11 16  1  0  0  0  0
 39 41  1  0  0  0  0
 39 42  1  0  0  0  0
 39 43  1  0  0  0  0
 21 25  1  0  0  0  0
 21 26  1  0  0  0  0
 29 34  1  0  0  0  0
  8 13  1  0  0  0  0
 18 24  1  0  0  0  0
 38 40  1  0  0  0  0
  7 12  1  0  0  0  0
 28 33  1  0  0  0  0
 17 23  1  0  0  0  0
 22 27  1  0  0  0  0
M  END
$$$$

  -OEChem-05262214473D

 43 42  0     1  0  0  0  0  0999 V2000
    0.7424   -1.0926    4.5665 C   0  0  0  0  0  0  0  0  0  0  0  0
    0.1409   -0.5364    5.4779 O   0  0  0  0  0  0  0  0  0  0  0  0
    1.7940   -2.1023    4.8871 C   0  0  0  0  0  0  0  0  0  0  0  0
    2.7935   -1.6502    4.9904 H   0  0  0  0  0  0  0  0  0  0  0  0
    1.6064   -2.6156    5.8438 H   0  0  0  0  0  0  0  0  0  0  0  0
    1.9156   -2.9078    4.1453 H   0  0  0  0  0  0  0  0  0  0  0  0
    0.5488   -0.8838    3.2109 N   0  0  0  0  0  0  0  0  0  0  0  0
   -0.4159    0.0446    2.6829 C   0  0  2  0  0  0  0  0  0  0  0  0
   -0.7551   -0.3867    1.2623 C   0  0  0  0  0  0  0  0  0  0  0  0
   -0.0106   -1.0851    0.5774 O   0  0  0  0  0  0  0  0  0  0  0  0
    0.1168    1.4689    2.7060 C   0  0  0  0  0  0  0  0  0  0  0  0
    1.1183   -1.4145    2.5542 H   0  0  0  0  0  0  0  0  0  0  0  0
   -1.3088   -0.0350    3.3125 H   0  0  0  0  0  0  0  0  0  0  0  0
    1.0116    1.5681    2.0808 H   0  0  0  0  0  0  0  0  0  0  0  0
   -0.6289    2.1775    2.3307 H   0  0  0  0  0  0  0  0  0  0  0  0
    0.3882    1.7670    3.7245 H   0  0  0  0  0  0  0  0  0  0  0  0
   -1.9689    0.1350    0.8298 N   0  0  0  0  0  0  0  0  0  0  0  0
   -2.5039   -0.1183   -0.4830 C   0  0  2  0  0  0  0  0  0  0  0  0
   -3.9764    0.2777   -0.4825 C   0  0  0  0  0  0  0  0  0  0  0  0
   -4.8470   -0.3810    0.0824 O   0  0  0  0  0  0  0  0  0  0  0  0
   -2.3037   -1.5708   -0.9034 C   0  0  0  0  0  0  0  0  0  0  0  0
   -3.0696   -2.4347   -0.0713 O   0  0  0  0  0  0  0  0  0  0  0  0
   -2.5276    0.6894    1.4750 H   0  0  0  0  0  0  0  0  0  0  0  0
   -1.9601    0.5403   -1.1700 H   0  0  0  0  0  0  0  0  0  0  0  0
   -1.2521   -1.8632   -0.8194 H   0  0  0  0  0  0  0  0  0  0  0  0
   -2.6280   -1.7202   -1.9388 H   0  0  0  0  0  0  0  0  0  0  0  0
   -3.9981   -2.1746   -0.1798 H   0  0  0  0  0  0  0  0  0  0  0  0
   -4.1955    1.4744   -1.1500 N   0  0  0  0  0  0  0  0  0  0  0  0
   -5.5023    2.0793   -1.2630 C   0  0  2  0  0  0  0  0  0  0  0  0
   -6.2744    1.7728    0.0135 C   0  0  0  0  0  0  0  0  0  0  0  0
   -6.0042    0.8264    0.7499 O   0  0  0  0  0  0  0  0  0  0  0  0
   -6.2466    1.5646   -2.4852 C   0  0  0  0  0  0  0  0  0  0  0  0
   -3.4077    1.9723   -1.5538 H   0  0  0  0  0  0  0  0  0  0  0  0
   -5.3445    3.1603   -1.3444 H   0  0  0  0  0  0  0  0  0  0  0  0
   -6.4139    0.4832   -2.4217 H   0  0  0  0  0  0  0  0  0  0  0  0
   -7.2254    2.0452   -2.5853 H   0  0  0  0  0  0  0  0  0  0  0  0
   -5.6759    1.7594   -3.3997 H   0  0  0  0  0  0  0  0  0  0  0  0
   -7.3276    2.6548    0.2109 N   0  0  0  0  0  0  0  0  0  0  0  0
   -8.2173    2.5652    1.3451 C   0  0  0  0  0  0  0  0  0  0  0  0
   -7.4662    3.4215   -0.4407 H   0  0  0  0  0  0  0  0  0  0  0  0
   -9.0918    1.9536    1.0784 H   0  0  0  0  0  0  0  0  0  0  0  0
   -7.6885    2.0999    2.1900 H   0  0  0  0  0  0  0  0  0  0  0  0
   -8.5492    3.5742    1.6312 H   0  0  0  0  0  0  0  0  0  0  0  0
  1  3  1  0  0  0  0
  1  7  1  0  0  0  0
  1  2  2  0  0  0  0
 29 30  1  0  0  0  0
 30 38  1  0  0  0  0
 30 31  2  0  0  0  0
  8  9  1  0  0  0  0
  9 17  1  0  0  0  0
  9 10  2  0  0  0  0
 18 19  1  0  0  0  0
 19 28  1  0  0  0  0
 19 20  2  0  0  0  0
 29 32  1  0  0  0  0
  8 11  1  0  0  0  0
 38 39  1  0  0  0  0
 18 21  1  0  0  0  0
 21 22  1  0  0  0  0
 28 29  1  0  0  0  0
  7  8  1  0  0  0  0
 17 18  1  0  0  0  0
  3  4  1  0  0  0  0
  3  5  1  0  0  0  0
  3  6  1  0  0  0  0
 32 35  1  0  0  0  0
 32 36  1  0  0  0  0
 32 37  1  0  0  0  0
 11 14  1  0  0  0  0
 11 15  1  0  0  0  0
 11 16  1  0  0  0  0
 39 41  1  0  0  0  0
 39 42  1  0  0  0  0
 39 43  1  0  0  0  0
 21 25  1  0  0  0  0
 21 26  1  0  0  0  0
 29 34  1  0  0  0  0
  8 13  1  0  0  0  0
 18 24  1  0  0  0  0
 38 40  1  0  0  0  0
  7 12  1  0  0  0  0
 28 33  1  0  0  0  0
 17 23  1  0  0  0  0
 22 27  1  0  0  0  0
M  END
$$$$

  -OEChem-05262214473D

 43 42  0     1  0  0  0  0  0999 V2000
    0.7424   -1.0926    4.5665 C   0  0  0  0  0  0  0  0  0  0  0  0
    0.1409   -0.5364    5.4779 O   0  0  0  0  0  0  0  0  0  0  0  0
    1.7940   -2.1023    4.8871 C   0  0  0  0  0  0  0  0  0  0  0  0
    2.7935   -1.6502    4.9904 H   0  0  0  0  0  0  0  0  0  0  0  0
    1.6064   -2.6156    5.8438 H   0  0  0  0  0  0  0  0  0  0  0  0
    1.9156   -2.9078    4.1453 H   0  0  0  0  0  0  0  0  0  0  0  0
    0.5488   -0.8838    3.2109 N   0  0  0  0  0  0  0  0  0  0  0  0
   -0.4159    0.0446    2.6829 C   0  0  2  0  0  0  0  0  0  0  0  0
   -0.7551   -0.3867    1.2623 C   0  0  0  0  0  0  0  0  0  0  0  0
   -0.0106   -1.0851    0.5774 O   0  0  0  0  0  0  0  0  0  0  0  0
    0.1168    1.4689    2.7060 C   0  0  0  0  0  0  0  0  0  0  0  0
    1.1183   -1.4145    2.5542 H   0  0  0  0  0  0  0  0  0  0  0  0
   -1.3088   -0.0350    3.3125 H   0  0  0  0  0  0  0  0  0  0  0  0
    1.0116    1.5681    2.0808 H   0  0  0  0  0  0  0  0  0  0  0  0
   -0.6289    2.1775    2.3307 H   0  0  0  0  0  0  0  0  0  0  0  0
    0.3882    1.7670    3.7245 H   0  0  0  0  0  0  0  0  0  0  0  0
   -1.9689    0.1350    0.8298 N   0  0  0  0  0  0  0  0  0  0  0  0
   -2.5039   -0.1183   -0.4830 C   0  0  2  0  0  0  0  0  0  0  0  0
   -3.9764    0.2777   -0.4825 C   0  0  0  0  0  0  0  0  0  0  0  0
   -4.8014   -0.2115    0.2863 O   0  0  0  0  0  0  0  0  0  0  0  0
   -2.3037   -1.5708   -0.9034 C   0  0  0  0  0  0  0  0  0  0  0  0
   -3.0696   -2.4347   -0.0713 O   0  0  0  0  0  0  0  0  0  0  0  0
   -2.5276    0.6894    1.4750 H   0  0  0  0  0  0  0  0  0  0  0  0
   -1.9601    0.5403   -1.1700 H   0  0  0  0  0  0  0  0  0  0  0  0
   -1.2521   -1.8632   -0.8194 H   0  0  0  0  0  0  0  0  0  0  0  0
   -2.6280   -1.7202   -1.9388 H   0  0  0  0  0  0  0  0  0  0  0  0
   -3.9981   -2.1746   -0.1798 H   0  0  0  0  0  0  0  0  0  0  0  0
   -4.2502    1.2714   -1.4117 N   0  0  0  0  0  0  0  0  0  0  0  0
   -5.5668    1.8399   -1.5841 C   0  0  2  0  0  0  0  0  0  0  0  0
   -6.2487    1.8687   -0.2226 C   0  0  0  0  0  0  0  0  0  0  0  0
   -5.9215    1.1341    0.7071 O   0  0  0  0  0  0  0  0  0  0  0  0
   -6.3870    1.0423   -2.5860 C   0  0  0  0  0  0  0  0  0  0  0  0
   -3.4956    1.6459   -1.9791 H   0  0  0  0  0  0  0  0  0  0  0  0
   -5.4241    2.8649   -1.9435 H   0  0  0  0  0  0  0  0  0  0  0  0
   -6.5404    0.0126   -2.2431 H   0  0  0  0  0  0  0  0  0  0  0  0
   -7.3745    1.4909   -2.7370 H   0  0  0  0  0  0  0  0  0  0  0  0
   -5.8808    0.9976   -3.5564 H   0  0  0  0  0  0  0  0  0  0  0  0
   -7.2938    2.7809   -0.1815 N   0  0  0  0  0  0  0  0  0  0  0  0
   -8.1045    2.9852    0.9962 C   0  0  0  0  0  0  0  0  0  0  0  0
   -7.4824    3.3616   -0.9933 H   0  0  0  0  0  0  0  0  0  0  0  0
   -8.9896    2.3338    0.9503 H   0  0  0  0  0  0  0  0  0  0  0  0
   -7.5161    2.7414    1.8930 H   0  0  0  0  0  0  0  0  0  0  0  0
   -8.4251    4.0365    1.0426 H   0  0  0  0  0  0  0  0  0  0  0  0
  1  3  1  0  0  0  0
  1  7  1  0  0  0  0
  1  2  2  0  0  0  0
 29 30  1  0  0  0  0
 30 38  1  0  0  0  0
 30 31  2  0  0  0  0
  8  9  1  0  0  0  0
  9 17  1  0  0  0  0
  9 10  2  0  0  0  0
 18 19  1  0  0  0  0
 19 28  1  0  0  0  0
 19 20  2  0  0  0  0
 29 32  1  0  0  0  0
  8 11  1  0  0  0  0
 38 39  1  0  0  0  0
 18 21  1  0  0  0  0
 21 22  1  0  0  0  0
 28 29  1  0  0  0  0
  7  8  1  0  0  0  0
 17 18  1  0  0  0  0
  3  4  1  0  0  0  0
  3  5  1  0  0  0  0
  3  6  1  0  0  0  0
 32 35  1  0  0  0  0
 32 36  1  0  0  0  0
 32 37  1  0  0  0  0
 11 14  1  0  0  0  0
 11 15  1  0  0  0  0
 11 16  1  0  0  0  0
 39 41  1  0  0  0  0
 39 42  1  0  0  0  0
 39 43  1  0  0  0  0
 21 25  1  0  0  0  0
 21 26  1  0  0  0  0
 29 34  1  0  0  0  0
  8 13  1  0  0  0  0
 18 24  1  0  0  0  0
 38 40  1  0  0  0  0
  7 12  1  0  0  0  0
 28 33  1  0  0  0  0
 17 23  1  0  0  0  0
 22 27  1  0  0  0  0
M  END
$$$$

  -OEChem-05262214473D

 43 42  0     1  0  0  0  0  0999 V2000
    0.7424   -1.0926    4.5665 C   0  0  0  0  0  0  0  0  0  0  0  0
    0.1409   -0.5364    5.4779 O   0  0  0  0  0  0  0  0  0  0  0  0
    1.7940   -2.1023    4.8871 C   0  0  0  0  0  0  0  0  0  0  0  0
    2.7935   -1.6502    4.9904 H   0  0  0  0  0  0  0  0  0  0  0  0
    1.6064   -2.6156    5.8438 H   0  0  0  0  0  0  0  0  0  0  0  0
    1.9156   -2.9078    4.1453 H   0  0  0  0  0  0  0  0  0  0  0  0
    0.5488   -0.8838    3.2109 N   0  0  0  0  0  0  0  0  0  0  0  0
   -0.4159    0.0446    2.6829 C   0  0  2  0  0  0  0  0  0  0  0  0
   -0.7551   -0.3867    1.2623 C   0  0  0  0  0  0  0  0  0  0  0  0
   -0.0106   -1.0851    0.5774 O   0  0  0  0  0  0  0  0  0  0  0  0
    0.1168    1.4689    2.7060 C   0  0  0  0  0  0  0  0  0  0  0  0
    1.1183   -1.4145    2.5542 H   0  0  0  0  0  0  0  0  0  0  0  0
   -1.3088   -0.0350    3.3125 H   0  0  0  0  0  0  0  0  0  0  0  0
    1.0116    1.5681    2.0808 H   0  0  0  0  0  0  0  0  0  0  0  0
   -0.6289    2.1775    2.3307 H   0  0  0  0  0  0  0  0  0  0  0  0
    0.3882    1.7670    3.7245 H   0  0  0  0  0  0  0  0  0  0  0  0
   -1.9689    0.1350    0.8298 N   0  0  0  0  0  0  0  0  0  0  0  0
   -2.5039   -0.1183   -0.4830 C   0  0  2  0  0  0  0  0  0  0  0  0
   -3.9764    0.2777   -0.4825 C   0  0  0  0  0  0  0  0  0  0  0  0
   -4.7436    0.0032    0.4379 O   0  0  0  0  0  0  0  0  0  0  0  0
   -2.3037   -1.5708   -0.9034 C   0  0  0  0  0  0  0  0  0  0  0  0
   -3.0696   -2.4347   -0.0713 O   0  0  0  0  0  0  0  0  0  0  0  0
   -2.5276    0.6894    1.4750 H   0  0  0  0  0  0  0  0  0  0  0  0
   -1.9601    0.5403   -1.1700 H   0  0  0  0  0  0  0  0  0  0  0  0
   -1.2521   -1.8632   -0.8194 H   0  0  0  0  0  0  0  0  0  0  0  0
   -2.6280   -1.7202   -1.9388 H   0  0  0  0  0  0  0  0  0  0  0  0
   -3.9981   -2.1746   -0.1798 H   0  0  0  0  0  0  0  0  0  0  0  0
   -4.3205    1.0099   -1.6100 N   0  0  0  0  0  0  0  0  0  0  0  0
   -5.6507    1.5284   -1.8301 C   0  0  2  0  0  0  0  0  0  0  0  0
   -6.2397    1.9024   -0.4763 C   0  0  0  0  0  0  0  0  0  0  0  0
   -5.8444    1.4207    0.5833 O   0  0  0  0  0  0  0  0  0  0  0  0
   -6.5295    0.5127   -2.5434 C   0  0  0  0  0  0  0  0  0  0  0  0
   -3.6091    1.2243   -2.3024 H   0  0  0  0  0  0  0  0  0  0  0  0
   -5.5413    2.4297   -2.4430 H   0  0  0  0  0  0  0  0  0  0  0  0
   -6.6505   -0.3973   -1.9445 H   0  0  0  0  0  0  0  0  0  0  0  0
   -7.5286    0.9177   -2.7350 H   0  0  0  0  0  0  0  0  0  0  0  0
   -6.0892    0.2225   -3.5035 H   0  0  0  0  0  0  0  0  0  0  0  0
   -7.2876    2.8047   -0.5944 N   0  0  0  0  0  0  0  0  0  0  0  0
   -8.0190    3.3037    0.5466 C   0  0  0  0  0  0  0  0  0  0  0  0
   -7.5353    3.1656   -1.5110 H   0  0  0  0  0  0  0  0  0  0  0  0
   -8.8995    2.6690    0.7246 H   0  0  0  0  0  0  0  0  0  0  0  0
   -7.3695    3.2868    1.4343 H   0  0  0  0  0  0  0  0  0  0  0  0
   -8.3448    4.3359    0.3503 H   0  0  0  0  0  0  0  0  0  0  0  0
  1  3  1  0  0  0  0
  1  7  1  0  0  0  0
  1  2  2  0  0  0  0
 29 30  1  0  0  0  0
 30 38  1  0  0  0  0
 30 31  2  0  0  0  0
  8  9  1  0  0  0  0
  9 17  1  0  0  0  0
  9 10  2  0  0  0  0
 18 19  1  0  0  0  0
 19 28  1  0  0  0  0
 19 20  2  0  0  0  0
 29 32  1  0  0  0  0
  8 11  1  0  0  0  0
 38 39  1  0  0  0  0
 18 21  1  0  0  0  0
 21 22  1  0  0  0  0
 28 29  1  0  0  0  0
  7  8  1  0  0  0  0
 17 18  1  0  0  0  0
  3  4  1  0  0  0  0
  3  5  1  0  0  0  0
  3  6  1  0  0  0  0
 32 35  1  0  0  0  0
 32 36  1  0  0  0  0
 32 37  1  0  0  0  0
 11 14  1  0  0  0  0
 11 15  1  0  0  0  0
 11 16  1  0  0  0  0
 39 41  1  0  0  0  0
 39 42  1  0  0  0  0
 39 43  1  0  0  0  0
 21 25  1  0  0  0  0
 21 26  1  0  0  0  0
 29 34  1  0  0  0  0
  8 13  1  0  0  0  0
 18 24  1  0  0  0  0
 38 40  1  0  0  0  0
  7 12  1  0  0  0  0
 28 33  1  0  0  0  0
 17 23  1  0  0  0  0
 22 27  1  0  0  0  0
M  END
$$$$

  -OEChem-05262214473D

 43 42  0     1  0  0  0  0  0999 V2000
    0.7424   -1.0926    4.5665 C   0  0  0  0  0  0  0  0  0  0  0  0
    0.1409   -0.5364    5.4779 O   0  0  0  0  0  0  0  0  0  0  0  0
    1.7940   -2.1023    4.8871 C   0  0  0  0  0  0  0  0  0  0  0  0
    2.7935   -1.6502    4.9904 H   0  0  0  0  0  0  0  0  0  0  0  0
    1.6064   -2.6156    5.8438 H   0  0  0  0  0  0  0  0  0  0  0  0
    1.9156   -2.9078    4.1453 H   0  0  0  0  0  0  0  0  0  0  0  0
    0.5488   -0.8838    3.2109 N   0  0  0  0  0  0  0  0  0  0  0  0
   -0.4159    0.0446    2.6829 C   0  0  2  0  0  0  0  0  0  0  0  0
   -0.7551   -0.3867    1.2623 C   0  0  0  0  0  0  0  0  0  0  0  0
   -0.0106   -1.0851    0.5774 O   0  0  0  0  0  0  0  0  0  0  0  0
    0.1168    1.4689    2.7060 C   0  0  0  0  0  0  0  0  0  0  0  0
    1.1183   -1.4145    2.5542 H   0  0  0  0  0  0  0  0  0  0  0  0
   -1.3088   -0.0350    3.3125 H   0  0  0  0  0  0  0  0  0  0  0  0
    1.0116    1.5681    2.0808 H   0  0  0  0  0  0  0  0  0  0  0  0
   -0.6289    2.1775    2.3307 H   0  0  0  0  0  0  0  0  0  0  0  0
    0.3882    1.7670    3.7245 H   0  0  0  0  0  0  0  0  0  0  0  0
   -1.9689    0.1350    0.8298 N   0  0  0  0  0  0  0  0  0  0  0  0
   -2.5039   -0.1183   -0.4830 C   0  0  2  0  0  0  0  0  0  0  0  0
   -3.9764    0.2777   -0.4825 C   0  0  0  0  0  0  0  0  0  0  0  0
   -4.6776    0.2485    0.5267 O   0  0  0  0  0  0  0  0  0  0  0  0
   -2.3037   -1.5708   -0.9034 C   0  0  0  0  0  0  0  0  0  0  0  0
   -3.0696   -2.4347   -0.0713 O   0  0  0  0  0  0  0  0  0  0  0  0
   -2.5276    0.6894    1.4750 H   0  0  0  0  0  0  0  0  0  0  0  0
   -1.9601    0.5403   -1.1700 H   0  0  0  0  0  0  0  0  0  0  0  0
   -1.2521   -1.8632   -0.8194 H   0  0  0  0  0  0  0  0  0  0  0  0
   -2.6280   -1.7202   -1.9388 H   0  0  0  0  0  0  0  0  0  0  0  0
   -3.9981   -2.1746   -0.1798 H   0  0  0  0  0  0  0  0  0  0  0  0
   -4.4018    0.7078   -1.7314 N   0  0  0  0  0  0  0  0  0  0  0  0
   -5.7482    1.1660   -1.9842 C   0  0  2  0  0  0  0  0  0  0  0  0
   -6.2481    1.8714   -0.7305 C   0  0  0  0  0  0  0  0  0  0  0  0
   -5.7784    1.6666    0.3869 O   0  0  0  0  0  0  0  0  0  0  0  0
   -6.6641    0.0117   -2.3603 C   0  0  0  0  0  0  0  0  0  0  0  0
   -3.7404    0.7363   -2.5017 H   0  0  0  0  0  0  0  0  0  0  0  0
   -5.6881    1.8846   -2.8089 H   0  0  0  0  0  0  0  0  0  0  0  0
   -6.7368   -0.7186   -1.5462 H   0  0  0  0  0  0  0  0  0  0  0  0
   -7.6774    0.3644   -2.5794 H   0  0  0  0  0  0  0  0  0  0  0  0
   -6.2869   -0.5129   -3.2447 H   0  0  0  0  0  0  0  0  0  0  0  0
   -7.3093    2.7245   -0.9996 N   0  0  0  0  0  0  0  0  0  0  0  0
   -7.9666    3.4990    0.0270 C   0  0  0  0  0  0  0  0  0  0  0  0
   -7.6212    2.8469   -1.9585 H   0  0  0  0  0  0  0  0  0  0  0  0
   -8.8277    2.9364    0.4168 H   0  0  0  0  0  0  0  0  0  0  0  0
   -7.2589    3.6990    0.8450 H   0  0  0  0  0  0  0  0  0  0  0  0
   -8.3138    4.4521   -0.3987 H   0  0  0  0  0  0  0  0  0  0  0  0
  1  3  1  0  0  0  0
  1  7  1  0  0  0  0
  1  2  2  0  0  0  0
 29 30  1  0  0  0  0
 30 38  1  0  0  0  0
 30 31  2  0  0  0  0
  8  9  1  0  0  0  0
  9 17  1  0  0  0  0
  9 10  2  0  0  0  0
 18 19  1  0  0  0  0
 19 28  1  0  0  0  0
 19 20  2  0  0  0  0
 29 32  1  0  0  0  0
  8 11  1  0  0  0  0
 38 39  1  0  0  0  0
 18 21  1  0  0  0  0
 21 22  1  0  0  0  0
 28 29  1  0  0  0  0
  7  8  1  0  0  0  0
 17 18  1  0  0  0  0
  3  4  1  0  0  0  0
  3  5  1  0  0  0  0
  3  6  1  0  0  0  0
 32 35  1  0  0  0  0
 32 36  1  0  0  0  0
 32 37  1  0  0  0  0
 11 14  1  0  0  0  0
 11 15  1  0  0  0  0
 11 16  1  0  0  0  0
 39 41  1  0  0  0  0
 39 42  1  0  0  0  0
 39 43  1  0  0  0  0
 21 25  1  0  0  0  0
 21 26  1  0  0  0  0
 29 34  1  0  0  0  0
  8 13  1  0  0  0  0
 18 24  1  0  0  0  0
 38 40  1  0  0  0  0
  7 12  1  0  0  0  0
 28 33  1  0  0  0  0
 17 23  1  0  0  0  0
 22 27  1  0  0  0  0
M  END
$$$$

  -OEChem-05262214473D

 43 42  0     1  0  0  0  0  0999 V2000
    0.7424   -1.0926    4.5665 C   0  0  0  0  0  0  0  0  0  0  0  0
    0.1409   -0.5364    5.4779 O   0  0  0  0  0  0  0  0  0  0  0  0
    1.7940   -2.1023    4.8871 C   0  0  0  0  0  0  0  0  0  0  0  0
    2.7935   -1.6502    4.9904 H   0  0  0  0  0  0  0  0  0  0  0  0
    1.6064   -2.6156    5.8438 H   0  0  0  0  0  0  0  0  0  0  0  0
    1.9156   -2.9078    4.1453 H   0  0  0  0  0  0  0  0  0  0  0  0
    0.5488   -0.8838    3.2109 N   0  0  0  0  0  0  0  0  0  0  0  0
   -0.4159    0.0446    2.6829 C   0  0  2  0  0  0  0  0  0  0  0  0
   -0.7551   -0.3867    1.2623 C   0  0  0  0  0  0  0  0  0  0  0  0
   -0.0106   -1.0851    0.5774 O   0  0  0  0  0  0  0  0  0  0  0  0
    0.1168    1.4689    2.7060 C   0  0  0  0  0  0  0  0  0  0  0  0
    1.1183   -1.4145    2.5542 H   0  0  0  0  0  0  0  0  0  0  0  0
   -1.3088   -0.0350    3.3125 H   0  0  0  0  0  0  0  0  0  0  0  0
    1.0116    1.5681    2.0808 H   0  0  0  0  0  0  0  0  0  0  0  0
   -0.6289    2.1775    2.3307 H   0  0  0  0  0  0  0  0  0  0  0  0
    0.3882    1.7670    3.7245 H   0  0  0  0  0  0  0  0  0  0  0  0
   -1.9689    0.1350    0.8298 N   0  0  0  0  0  0  0  0  0  0  0  0
   -2.5039   -0.1183   -0.4830 C   0  0  2  0  0  0  0  0  0  0  0  0
   -3.9764    0.2777   -0.4825 C   0  0  0  0  0  0  0  0  0  0  0  0
   -4.6079    0.5076    0.5467 O   0  0  0  0  0  0  0  0  0  0  0  0
   -2.3037   -1.5708   -0.9034 C   0  0  0  0  0  0  0  0  0  0  0  0
   -3.0696   -2.4347   -0.0713 O   0  0  0  0  0  0  0  0  0  0  0  0
   -2.5276    0.6894    1.4750 H   0  0  0  0  0  0  0  0  0  0  0  0
   -1.9601    0.5403   -1.1700 H   0  0  0  0  0  0  0  0  0  0  0  0
   -1.2521   -1.8632   -0.8194 H   0  0  0  0  0  0  0  0  0  0  0  0
   -2.6280   -1.7202   -1.9388 H   0  0  0  0  0  0  0  0  0  0  0  0
   -3.9981   -2.1746   -0.1798 H   0  0  0  0  0  0  0  0  0  0  0  0
   -4.4885    0.3855   -1.7678 N   0  0  0  0  0  0  0  0  0  0  0  0
   -5.8527    0.7775   -2.0360 C   0  0  2  0  0  0  0  0  0  0  0  0
   -6.2733    1.7781   -0.9676 C   0  0  0  0  0  0  0  0  0  0  0  0
   -5.7278    1.8550    0.1313 O   0  0  0  0  0  0  0  0  0  0  0  0
   -6.7819   -0.4264   -2.0491 C   0  0  0  0  0  0  0  0  0  0  0  0
   -3.8806    0.2150   -2.5634 H   0  0  0  0  0  0  0  0  0  0  0  0
   -5.8543    1.2666   -3.0162 H   0  0  0  0  0  0  0  0  0  0  0  0
   -6.7934   -0.9294   -1.0754 H   0  0  0  0  0  0  0  0  0  0  0  0
   -7.8105   -0.1311   -2.2808 H   0  0  0  0  0  0  0  0  0  0  0  0
   -6.4604   -1.1586   -2.7977 H   0  0  0  0  0  0  0  0  0  0  0  0
   -7.3575    2.5457   -1.3694 N   0  0  0  0  0  0  0  0  0  0  0  0
   -7.9510    3.5578   -0.5272 C   0  0  0  0  0  0  0  0  0  0  0  0
   -7.7341    2.4272   -2.3053 H   0  0  0  0  0  0  0  0  0  0  0  0
   -8.7791    3.1177    0.0478 H   0  0  0  0  0  0  0  0  0  0  0  0
   -7.1916    3.9499    0.1653 H   0  0  0  0  0  0  0  0  0  0  0  0
   -8.3342    4.3771   -1.1533 H   0  0  0  0  0  0  0  0  0  0  0  0
  1  3  1  0  0  0  0
  1  7  1  0  0  0  0
  1  2  2  0  0  0  0
 29 30  1  0  0  0  0
 30 38  1  0  0  0  0
 30 31  2  0  0  0  0
  8  9  1  0  0  0  0
  9 17  1  0  0  0  0
  9 10  2  0  0  0  0
 18 19  1  0  0  0  0
 19 28  1  0  0  0  0
 19 20  2  0  0  0  0
 29 32  1  0  0  0  0
  8 11  1  0  0  0  0
 38 39  1  0  0  0  0
 18 21  1  0  0  0  0
 21 22  1  0  0  0  0
 28 29  1  0  0  0  0
  7  8  1  0  0  0  0
 17 18  1  0  0  0  0
  3  4  1  0  0  0  0
  3  5  1  0  0  0  0
  3  6  1  0  0  0  0
 32 35  1  0  0  0  0
 32 36  1  0  0  0  0
 32 37  1  0  0  0  0
 11 14  1  0  0  0  0
 11 15  1  0  0  0  0
 11 16  1  0  0  0  0
 39 41  1  0  0  0  0
 39 42  1  0  0  0  0
 39 43  1  0  0  0  0
 21 25  1  0  0  0  0
 21 26  1  0  0  0  0
 29 34  1  0  0  0  0
  8 13  1  0  0  0  0
 18 24  1  0  0  0  0
 38 40  1  0  0  0  0
  7 12  1  0  0  0  0
 28 33  1  0  0  0  0
 17 23  1  0  0  0  0
 22 27  1  0  0  0  0
M  END
$$$$
