
  -OEChem-05262217303D

 43 42  0     1  0  0  0  0  0999 V2000
    3.6286   -1.7300    3.9668 C   0  0  0  0  0  0  0  0  0  0  0  0
    2.7817   -1.6234    4.8394 O   0  0  0  0  0  0  0  0  0  0  0  0
    4.8547   -2.5934    4.1962 C   0  0  0  0  0  0  0  0  0  0  0  0
    5.7564   -1.9774    4.1623 H   0  0  0  0  0  0  0  0  0  0  0  0
    4.7958   -3.0798    5.1738 H   0  0  0  0  0  0  0  0  0  0  0  0
    4.9191   -3.3636    3.4239 H   0  0  0  0  0  0  0  0  0  0  0  0
    3.4694   -1.0722    2.7659 N   0  0  0  0  0  0  0  0  0  0  0  0
    2.2498   -0.3564    2.3696 C   0  0  2  0  0  0  0  0  0  0  0  0
    2.0056   -0.4557    0.8498 C   0  0  0  0  0  0  0  0  0  0  0  0
    2.9046   -0.8221    0.0988 O   0  0  0  0  0  0  0  0  0  0  0  0
    2.3830    1.1072    2.8013 C   0  0  0  0  0  0  0  0  0  0  0  0
    4.1334   -1.2894    2.0235 H   0  0  0  0  0  0  0  0  0  0  0  0
    1.3808   -0.8012    2.8667 H   0  0  0  0  0  0  0  0  0  0  0  0
    3.2476    1.5723    2.3167 H   0  0  0  0  0  0  0  0  0  0  0  0
    1.4856    1.6720    2.5306 H   0  0  0  0  0  0  0  0  0  0  0  0
    2.5151    1.1711    3.8862 H   0  0  0  0  0  0  0  0  0  0  0  0
    0.7858   -0.0957    0.3106 N   0  0  0  0  0  0  0  0  0  0  0  0
    0.3401   -0.4229   -1.0560 C   0  0  2  0  0  0  0  0  0  0  0  0
   -1.0692    0.1267   -1.3495 C   0  0  0  0  0  0  0  0  0  0  0  0
   -1.6995    0.6832   -0.4574 O   0  0  0  0  0  0  0  0  0  0  0  0
    0.3097   -1.9535   -1.2616 C   0  0  0  0  0  0  0  0  0  0  0  0
   -0.6849   -2.5779   -0.4346 O   0  0  0  0  0  0  0  0  0  0  0  0
    0.0540    0.1648    0.9708 H   0  0  0  0  0  0  0  0  0  0  0  0
    1.0392    0.0224   -1.7702 H   0  0  0  0  0  0  0  0  0  0  0  0
    1.2873   -2.3935   -1.0433 H   0  0  0  0  0  0  0  0  0  0  0  0
    0.0916   -2.1758   -2.3109 H   0  0  0  0  0  0  0  0  0  0  0  0
   -1.5727   -2.2050   -0.5789 H   0  0  0  0  0  0  0  0  0  0  0  0
   -1.6610   -0.0783   -2.5868 N   0  0  0  0  0  0  0  0  0  0  0  0
   -3.0218    0.3233   -3.0039 C   0  0  2  0  0  0  0  0  0  0  0  0
   -3.2538    1.8507   -3.0804 C   0  0  0  0  0  0  0  0  0  0  0  0
   -3.6458    2.3439   -4.1290 O   0  0  0  0  0  0  0  0  0  0  0  0
   -4.0930   -0.3534   -2.1369 C   0  0  0  0  0  0  0  0  0  0  0  0
   -1.0709   -0.5052   -3.2968 H   0  0  0  0  0  0  0  0  0  0  0  0
   -3.1617   -0.0501   -4.0240 H   0  0  0  0  0  0  0  0  0  0  0  0
   -4.0871    0.0368   -1.1152 H   0  0  0  0  0  0  0  0  0  0  0  0
   -5.0850   -0.1723   -2.5623 H   0  0  0  0  0  0  0  0  0  0  0  0
   -3.9259   -1.4337   -2.0990 H   0  0  0  0  0  0  0  0  0  0  0  0
   -3.0120    2.6713   -1.9967 N   0  0  0  0  0  0  0  0  0  0  0  0
   -3.1554    4.1204   -2.0223 C   0  0  0  0  0  0  0  0  0  0  0  0
   -2.6413    2.2177   -1.1580 H   0  0  0  0  0  0  0  0  0  0  0  0
   -2.9433    4.5386   -1.0335 H   0  0  0  0  0  0  0  0  0  0  0  0
   -2.4584    4.5606   -2.7427 H   0  0  0  0  0  0  0  0  0  0  0  0
   -4.1763    4.3992   -2.3031 H   0  0  0  0  0  0  0  0  0  0  0  0
  1  2  2  0  0  0  0
  1  3  1  0  0  0  0
  1  7  1  0  0  0  0
  3  4  1  0  0  0  0
  3  5  1  0  0  0  0
  3  6  1  0  0  0  0
  7  8  1  0  0  0  0
  7 12  1  0  0  0  0
  8  9  1  0  0  0  0
  8 11  1  0  0  0  0
  8 13  1  0  0  0  0
  9 10  2  0  0  0  0
  9 17  1  0  0  0  0
 11 14  1  0  0  0  0
 11 15  1  0  0  0  0
 11 16  1  0  0  0  0
 17 18  1  0  0  0  0
 17 23  1  0  0  0  0
 18 19  1  0  0  0  0
 18 21  1  0  0  0  0
 18 24  1  0  0  0  0
 19 20  2  0  0  0  0
 19 28  1  0  0  0  0
 21 22  1  0  0  0  0
 21 25  1  0  0  0  0
 21 26  1  0  0  0  0
 22 27  1  0  0  0  0
 28 29  1  0  0  0  0
 28 33  1  0  0  0  0
 29 30  1  0  0  0  0
 29 32  1  0  0  0  0
 29 34  1  0  0  0  0
 30 31  2  0  0  0  0
 30 38  1  0  0  0  0
 32 35  1  0  0  0  0
 32 36  1  0  0  0  0
 32 37  1  0  0  0  0
 38 39  1  0  0  0  0
 38 40  1  0  0  0  0
 39 41  1  0  0  0  0
 39 42  1  0  0  0  0
 39 43  1  0  0  0  0
M  END
$$$$

  -OEChem-05262217303D

 43 42  0     1  0  0  0  0  0999 V2000
    3.7078   -1.6756    3.9692 C   0  0  0  0  0  0  0  0  0  0  0  0
    2.8760   -1.5847    4.8582 O   0  0  0  0  0  0  0  0  0  0  0  0
    4.9796   -2.4717    4.1932 C   0  0  0  0  0  0  0  0  0  0  0  0
    5.8467   -1.8084    4.1460 H   0  0  0  0  0  0  0  0  0  0  0  0
    4.9555   -2.9524    5.1752 H   0  0  0  0  0  0  0  0  0  0  0  0
    5.0775   -3.2438    3.4262 H   0  0  0  0  0  0  0  0  0  0  0  0
    3.4910   -1.0586    2.7557 N   0  0  0  0  0  0  0  0  0  0  0  0
    2.2344   -0.4011    2.3748 C   0  0  2  0  0  0  0  0  0  0  0  0
    1.9704   -0.5202    0.8591 C   0  0  0  0  0  0  0  0  0  0  0  0
    2.8667   -0.8785    0.1013 O   0  0  0  0  0  0  0  0  0  0  0  0
    2.3105    1.0693    2.7992 C   0  0  0  0  0  0  0  0  0  0  0  0
    4.1481   -1.2613    2.0032 H   0  0  0  0  0  0  0  0  0  0  0  0
    1.3953   -0.8831    2.8887 H   0  0  0  0  0  0  0  0  0  0  0  0
    3.1415    1.5712    2.2933 H   0  0  0  0  0  0  0  0  0  0  0  0
    1.3824    1.5921    2.5486 H   0  0  0  0  0  0  0  0  0  0  0  0
    2.4651    1.1440    3.8805 H   0  0  0  0  0  0  0  0  0  0  0  0
    0.7391   -0.1803    0.3318 N   0  0  0  0  0  0  0  0  0  0  0  0
    0.2866   -0.4783   -1.0405 C   0  0  2  0  0  0  0  0  0  0  0  0
   -1.1422    0.0498   -1.2923 C   0  0  0  0  0  0  0  0  0  0  0  0
   -1.6573    0.8066   -0.4771 O   0  0  0  0  0  0  0  0  0  0  0  0
    0.3081   -2.0029   -1.2982 C   0  0  0  0  0  0  0  0  0  0  0  0
   -0.6526   -2.6915   -0.4822 O   0  0  0  0  0  0  0  0  0  0  0  0
    0.0215    0.1179    0.9914 H   0  0  0  0  0  0  0  0  0  0  0  0
    0.9606    0.0124   -1.7493 H   0  0  0  0  0  0  0  0  0  0  0  0
    1.3027   -2.4129   -1.1019 H   0  0  0  0  0  0  0  0  0  0  0  0
    0.0931   -2.2018   -2.3528 H   0  0  0  0  0  0  0  0  0  0  0  0
   -1.5624   -2.3883   -0.6480 H   0  0  0  0  0  0  0  0  0  0  0  0
   -1.8799   -0.3761   -2.3884 N   0  0  0  0  0  0  0  0  0  0  0  0
   -3.2665    0.0034   -2.7352 C   0  0  2  0  0  0  0  0  0  0  0  0
   -3.4501    1.4906   -3.1174 C   0  0  0  0  0  0  0  0  0  0  0  0
   -3.9062    1.7734   -4.2166 O   0  0  0  0  0  0  0  0  0  0  0  0
   -4.2556   -0.4079   -1.6352 C   0  0  0  0  0  0  0  0  0  0  0  0
   -1.3777   -0.9423   -3.0681 H   0  0  0  0  0  0  0  0  0  0  0  0
   -3.5364   -0.5709   -3.6280 H   0  0  0  0  0  0  0  0  0  0  0  0
   -4.1252    0.1962   -0.7329 H   0  0  0  0  0  0  0  0  0  0  0  0
   -5.2825   -0.2707   -1.9885 H   0  0  0  0  0  0  0  0  0  0  0  0
   -4.1187   -1.4610   -1.3733 H   0  0  0  0  0  0  0  0  0  0  0  0
   -3.0832    2.5043   -2.2549 N   0  0  0  0  0  0  0  0  0  0  0  0
   -3.1570    3.9210   -2.5840 C   0  0  0  0  0  0  0  0  0  0  0  0
   -2.6427    2.2149   -1.3780 H   0  0  0  0  0  0  0  0  0  0  0  0
   -2.8687    4.5239   -1.7177 H   0  0  0  0  0  0  0  0  0  0  0  0
   -2.4809    4.1570   -3.4123 H   0  0  0  0  0  0  0  0  0  0  0  0
   -4.1775    4.1963   -2.8708 H   0  0  0  0  0  0  0  0  0  0  0  0
  1  2  2  0  0  0  0
  1  3  1  0  0  0  0
  1  7  1  0  0  0  0
  3  4  1  0  0  0  0
  3  5  1  0  0  0  0
  3  6  1  0  0  0  0
  7  8  1  0  0  0  0
  7 12  1  0  0  0  0
  8  9  1  0  0  0  0
  8 11  1  0  0  0  0
  8 13  1  0  0  0  0
  9 10  2  0  0  0  0
  9 17  1  0  0  0  0
 11 14  1  0  0  0  0
 11 15  1  0  0  0  0
 11 16  1  0  0  0  0
 17 18  1  0  0  0  0
 17 23  1  0  0  0  0
 18 19  1  0  0  0  0
 18 21  1  0  0  0  0
 18 24  1  0  0  0  0
 19 20  2  0  0  0  0
 19 28  1  0  0  0  0
 21 22  1  0  0  0  0
 21 25  1  0  0  0  0
 21 26  1  0  0  0  0
 22 27  1  0  0  0  0
 28 29  1  0  0  0  0
 28 33  1  0  0  0  0
 29 30  1  0  0  0  0
 29 32  1  0  0  0  0
 29 34  1  0  0  0  0
 30 31  2  0  0  0  0
 30 38  1  0  0  0  0
 32 35  1  0  0  0  0
 32 36  1  0  0  0  0
 32 37  1  0  0  0  0
 38 39  1  0  0  0  0
 38 40  1  0  0  0  0
 39 41  1  0  0  0  0
 39 42  1  0  0  0  0
 39 43  1  0  0  0  0
M  END
$$$$

  -OEChem-05262217303D

 43 42  0     1  0  0  0  0  0999 V2000
    3.7448   -1.6532    3.9650 C   0  0  0  0  0  0  0  0  0  0  0  0
    2.9209   -1.5524    4.8604 O   0  0  0  0  0  0  0  0  0  0  0  0
    5.0225   -2.4390    4.1902 C   0  0  0  0  0  0  0  0  0  0  0  0
    5.8866   -1.7754    4.1092 H   0  0  0  0  0  0  0  0  0  0  0  0
    5.0168   -2.8908    5.1860 H   0  0  0  0  0  0  0  0  0  0  0  0
    5.1099   -3.2328    3.4443 H   0  0  0  0  0  0  0  0  0  0  0  0
    3.5127   -1.0593    2.7428 N   0  0  0  0  0  0  0  0  0  0  0  0
    2.2516   -0.4089    2.3650 C   0  0  2  0  0  0  0  0  0  0  0  0
    1.9708   -0.5465    0.8537 C   0  0  0  0  0  0  0  0  0  0  0  0
    2.8621   -0.9045    0.0904 O   0  0  0  0  0  0  0  0  0  0  0  0
    2.3291    1.0660    2.7719 C   0  0  0  0  0  0  0  0  0  0  0  0
    4.1661   -1.2667    1.9882 H   0  0  0  0  0  0  0  0  0  0  0  0
    1.4189   -0.8857    2.8934 H   0  0  0  0  0  0  0  0  0  0  0  0
    3.1488    1.5654    2.2456 H   0  0  0  0  0  0  0  0  0  0  0  0
    1.3944    1.5821    2.5327 H   0  0  0  0  0  0  0  0  0  0  0  0
    2.5031    1.1525    3.8494 H   0  0  0  0  0  0  0  0  0  0  0  0
    0.7296   -0.2203    0.3401 N   0  0  0  0  0  0  0  0  0  0  0  0
    0.2614   -0.5034   -1.0308 C   0  0  2  0  0  0  0  0  0  0  0  0
   -1.1798    0.0115   -1.2461 C   0  0  0  0  0  0  0  0  0  0  0  0
   -1.5915    0.9298   -0.5472 O   0  0  0  0  0  0  0  0  0  0  0  0
    0.3188   -2.0218   -1.3224 C   0  0  0  0  0  0  0  0  0  0  0  0
   -0.6086   -2.7556   -0.5056 O   0  0  0  0  0  0  0  0  0  0  0  0
    0.0324    0.1193    1.0008 H   0  0  0  0  0  0  0  0  0  0  0  0
    0.9132    0.0152   -1.7406 H   0  0  0  0  0  0  0  0  0  0  0  0
    1.3269   -2.4108   -1.1559 H   0  0  0  0  0  0  0  0  0  0  0  0
    0.0900   -2.2000   -2.3780 H   0  0  0  0  0  0  0  0  0  0  0  0
   -1.5243   -2.4435   -0.6122 H   0  0  0  0  0  0  0  0  0  0  0  0
   -2.0513   -0.6071   -2.1340 N   0  0  0  0  0  0  0  0  0  0  0  0
   -3.4656   -0.2568   -2.3884 C   0  0  2  0  0  0  0  0  0  0  0  0
   -3.6777    1.1299   -3.0389 C   0  0  0  0  0  0  0  0  0  0  0  0
   -4.2334    1.2008   -4.1263 O   0  0  0  0  0  0  0  0  0  0  0  0
   -4.3203   -0.4084   -1.1214 C   0  0  0  0  0  0  0  0  0  0  0  0
   -1.6354   -1.3007   -2.7515 H   0  0  0  0  0  0  0  0  0  0  0  0
   -3.8474   -0.9869   -3.1102 H   0  0  0  0  0  0  0  0  0  0  0  0
   -4.0747    0.3560   -0.3785 H   0  0  0  0  0  0  0  0  0  0  0  0
   -5.3808   -0.3064   -1.3729 H   0  0  0  0  0  0  0  0  0  0  0  0
   -4.1662   -1.3940   -0.6724 H   0  0  0  0  0  0  0  0  0  0  0  0
   -3.2263    2.2849   -2.4321 N   0  0  0  0  0  0  0  0  0  0  0  0
   -3.3265    3.6088   -3.0302 C   0  0  0  0  0  0  0  0  0  0  0  0
   -2.6925    2.1630   -1.5676 H   0  0  0  0  0  0  0  0  0  0  0  0
   -2.9223    4.3624   -2.3474 H   0  0  0  0  0  0  0  0  0  0  0  0
   -2.7609    3.6486   -3.9669 H   0  0  0  0  0  0  0  0  0  0  0  0
   -4.3726    3.8568   -3.2379 H   0  0  0  0  0  0  0  0  0  0  0  0
  1  2  2  0  0  0  0
  1  3  1  0  0  0  0
  1  7  1  0  0  0  0
  3  4  1  0  0  0  0
  3  5  1  0  0  0  0
  3  6  1  0  0  0  0
  7  8  1  0  0  0  0
  7 12  1  0  0  0  0
  8  9  1  0  0  0  0
  8 11  1  0  0  0  0
  8 13  1  0  0  0  0
  9 10  2  0  0  0  0
  9 17  1  0  0  0  0
 11 14  1  0  0  0  0
 11 15  1  0  0  0  0
 11 16  1  0  0  0  0
 17 18  1  0  0  0  0
 17 23  1  0  0  0  0
 18 19  1  0  0  0  0
 18 21  1  0  0  0  0
 18 24  1  0  0  0  0
 19 20  2  0  0  0  0
 19 28  1  0  0  0  0
 21 22  1  0  0  0  0
 21 25  1  0  0  0  0
 21 26  1  0  0  0  0
 22 27  1  0  0  0  0
 28 29  1  0  0  0  0
 28 33  1  0  0  0  0
 29 30  1  0  0  0  0
 29 32  1  0  0  0  0
 29 34  1  0  0  0  0
 30 31  2  0  0  0  0
 30 38  1  0  0  0  0
 32 35  1  0  0  0  0
 32 36  1  0  0  0  0
 32 37  1  0  0  0  0
 38 39  1  0  0  0  0
 38 40  1  0  0  0  0
 39 41  1  0  0  0  0
 39 42  1  0  0  0  0
 39 43  1  0  0  0  0
M  END
$$$$

  -OEChem-05262217303D

 43 42  0     1  0  0  0  0  0999 V2000
    2.3735   -2.0358    2.7992 C   0  0  0  0  0  0  0  0  0  0  0  0
    1.2138   -2.0336    2.4039 O   0  0  0  0  0  0  0  0  0  0  0  0
    3.0776   -3.3485    3.0839 C   0  0  0  0  0  0  0  0  0  0  0  0
    3.3650   -3.3983    4.1371 H   0  0  0  0  0  0  0  0  0  0  0  0
    2.4143   -4.1889    2.8603 H   0  0  0  0  0  0  0  0  0  0  0  0
    3.9734   -3.4343    2.4635 H   0  0  0  0  0  0  0  0  0  0  0  0
    3.0577   -0.8429    2.9238 N   0  0  0  0  0  0  0  0  0  0  0  0
    2.5024    0.4364    2.4601 C   0  0  2  0  0  0  0  0  0  0  0  0
    2.2432    0.4270    0.9375 C   0  0  0  0  0  0  0  0  0  0  0  0
    3.1647    0.2512    0.1496 O   0  0  0  0  0  0  0  0  0  0  0  0
    3.4742    1.5550    2.8446 C   0  0  0  0  0  0  0  0  0  0  0  0
    4.0638   -0.9080    3.0526 H   0  0  0  0  0  0  0  0  0  0  0  0
    1.5511    0.6192    2.9706 H   0  0  0  0  0  0  0  0  0  0  0  0
    4.4478    1.4030    2.3668 H   0  0  0  0  0  0  0  0  0  0  0  0
    3.0800    2.5248    2.5248 H   0  0  0  0  0  0  0  0  0  0  0  0
    3.6156    1.5808    3.9296 H   0  0  0  0  0  0  0  0  0  0  0  0
    0.9449    0.4882    0.4721 N   0  0  0  0  0  0  0  0  0  0  0  0
    0.5027   -0.0344   -0.8338 C   0  0  2  0  0  0  0  0  0  0  0  0
   -1.0120    0.2051   -1.0289 C   0  0  0  0  0  0  0  0  0  0  0  0
   -1.4706    1.3105   -0.7649 O   0  0  0  0  0  0  0  0  0  0  0  0
    0.8479   -1.5321   -0.9905 C   0  0  0  0  0  0  0  0  0  0  0  0
    0.1097   -2.3374   -0.0622 O   0  0  0  0  0  0  0  0  0  0  0  0
    0.2235    0.5808    1.1837 H   0  0  0  0  0  0  0  0  0  0  0  0
    1.0202    0.5166   -1.6252 H   0  0  0  0  0  0  0  0  0  0  0  0
    1.9190   -1.7045   -0.8525 H   0  0  0  0  0  0  0  0  0  0  0  0
    0.6071   -1.8499   -2.0103 H   0  0  0  0  0  0  0  0  0  0  0  0
    0.4616   -2.2207    0.8573 H   0  0  0  0  0  0  0  0  0  0  0  0
   -1.8505   -0.7842   -1.5182 N   0  0  0  0  0  0  0  0  0  0  0  0
   -3.3258   -0.7431   -1.6040 C   0  0  2  0  0  0  0  0  0  0  0  0
   -3.9138    0.2342   -2.6496 C   0  0  0  0  0  0  0  0  0  0  0  0
   -4.8788   -0.1155   -3.3172 O   0  0  0  0  0  0  0  0  0  0  0  0
   -3.9476   -0.4989   -0.2217 C   0  0  0  0  0  0  0  0  0  0  0  0
   -1.4247   -1.7121   -1.5003 H   0  0  0  0  0  0  0  0  0  0  0  0
   -3.6443   -1.7405   -1.9243 H   0  0  0  0  0  0  0  0  0  0  0  0
   -3.7636    0.5236    0.1210 H   0  0  0  0  0  0  0  0  0  0  0  0
   -5.0304   -0.6533   -0.2660 H   0  0  0  0  0  0  0  0  0  0  0  0
   -3.5294   -1.1943    0.5126 H   0  0  0  0  0  0  0  0  0  0  0  0
   -3.4038    1.5056   -2.8233 N   0  0  0  0  0  0  0  0  0  0  0  0
   -3.9939    2.5061   -3.7018 C   0  0  0  0  0  0  0  0  0  0  0  0
   -2.6776    1.7876   -2.1601 H   0  0  0  0  0  0  0  0  0  0  0  0
   -3.3586    3.3962   -3.7402 H   0  0  0  0  0  0  0  0  0  0  0  0
   -4.0962    2.1128   -4.7188 H   0  0  0  0  0  0  0  0  0  0  0  0
   -4.9829    2.7994   -3.3352 H   0  0  0  0  0  0  0  0  0  0  0  0
  1  2  2  0  0  0  0
  1  3  1  0  0  0  0
  1  7  1  0  0  0  0
  3  4  1  0  0  0  0
  3  5  1  0  0  0  0
  3  6  1  0  0  0  0
  7  8  1  0  0  0  0
  7 12  1  0  0  0  0
  8  9  1  0  0  0  0
  8 11  1  0  0  0  0
  8 13  1  0  0  0  0
  9 10  2  0  0  0  0
  9 17  1  0  0  0  0
 11 14  1  0  0  0  0
 11 15  1  0  0  0  0
 11 16  1  0  0  0  0
 17 18  1  0  0  0  0
 17 23  1  0  0  0  0
 18 19  1  0  0  0  0
 18 21  1  0  0  0  0
 18 24  1  0  0  0  0
 19 20  2  0  0  0  0
 19 28  1  0  0  0  0
 21 22  1  0  0  0  0
 21 25  1  0  0  0  0
 21 26  1  0  0  0  0
 22 27  1  0  0  0  0
 28 29  1  0  0  0  0
 28 33  1  0  0  0  0
 29 30  1  0  0  0  0
 29 32  1  0  0  0  0
 29 34  1  0  0  0  0
 30 31  2  0  0  0  0
 30 38  1  0  0  0  0
 32 35  1  0  0  0  0
 32 36  1  0  0  0  0
 32 37  1  0  0  0  0
 38 39  1  0  0  0  0
 38 40  1  0  0  0  0
 39 41  1  0  0  0  0
 39 42  1  0  0  0  0
 39 43  1  0  0  0  0
M  END
$$$$

  -OEChem-05262217303D

 43 42  0     1  0  0  0  0  0999 V2000
    3.5941   -1.7660    3.9198 C   0  0  0  0  0  0  0  0  0  0  0  0
    2.6730   -1.7487    4.7205 O   0  0  0  0  0  0  0  0  0  0  0  0
    4.8131   -2.6303    4.1826 C   0  0  0  0  0  0  0  0  0  0  0  0
    5.7185   -2.0198    4.1438 H   0  0  0  0  0  0  0  0  0  0  0  0
    4.7418   -3.0904    5.1723 H   0  0  0  0  0  0  0  0  0  0  0  0
    4.8817   -3.4199    3.4304 H   0  0  0  0  0  0  0  0  0  0  0  0
    3.5278   -1.0054    2.7710 N   0  0  0  0  0  0  0  0  0  0  0  0
    2.3315   -0.2730    2.3307 C   0  0  2  0  0  0  0  0  0  0  0  0
    1.9626   -0.6008    0.8686 C   0  0  0  0  0  0  0  0  0  0  0  0
    2.7911   -1.1164    0.1289 O   0  0  0  0  0  0  0  0  0  0  0  0
    2.6107    1.2224    2.4990 C   0  0  0  0  0  0  0  0  0  0  0  0
    4.2387   -1.1861    2.0638 H   0  0  0  0  0  0  0  0  0  0  0  0
    1.4687   -0.5423    2.9492 H   0  0  0  0  0  0  0  0  0  0  0  0
    3.4612    1.5263    1.8802 H   0  0  0  0  0  0  0  0  0  0  0  0
    1.7373    1.8130    2.2059 H   0  0  0  0  0  0  0  0  0  0  0  0
    2.8426    1.4473    3.5451 H   0  0  0  0  0  0  0  0  0  0  0  0
    0.7066   -0.2815    0.3853 N   0  0  0  0  0  0  0  0  0  0  0  0
    0.1999   -0.4932   -0.9879 C   0  0  2  0  0  0  0  0  0  0  0  0
   -1.2566    0.0115   -1.0957 C   0  0  0  0  0  0  0  0  0  0  0  0
   -1.4778    1.1800   -0.8015 O   0  0  0  0  0  0  0  0  0  0  0  0
    0.3278   -1.9530   -1.4825 C   0  0  0  0  0  0  0  0  0  0  0  0
   -0.5063   -2.8447   -0.7319 O   0  0  0  0  0  0  0  0  0  0  0  0
    0.1107    0.2623    1.0082 H   0  0  0  0  0  0  0  0  0  0  0  0
    0.7950    0.1271   -1.6657 H   0  0  0  0  0  0  0  0  0  0  0  0
    1.3634   -2.2992   -1.4496 H   0  0  0  0  0  0  0  0  0  0  0  0
    0.0219   -1.9908   -2.5335 H   0  0  0  0  0  0  0  0  0  0  0  0
   -0.1015   -3.0225    0.1380 H   0  0  0  0  0  0  0  0  0  0  0  0
   -2.3082   -0.8200   -1.4448 N   0  0  0  0  0  0  0  0  0  0  0  0
   -3.7517   -0.5026   -1.4484 C   0  0  2  0  0  0  0  0  0  0  0  0
   -4.1978    0.5226   -2.5165 C   0  0  0  0  0  0  0  0  0  0  0  0
   -5.1833    0.2847   -3.2021 O   0  0  0  0  0  0  0  0  0  0  0  0
   -4.2263   -0.0752   -0.0531 C   0  0  0  0  0  0  0  0  0  0  0  0
   -2.0471   -1.8065   -1.5160 H   0  0  0  0  0  0  0  0  0  0  0  0
   -4.2750   -1.4328   -1.6927 H   0  0  0  0  0  0  0  0  0  0  0  0
   -3.8326    0.9093    0.2153 H   0  0  0  0  0  0  0  0  0  0  0  0
   -5.3192   -0.0220   -0.0309 H   0  0  0  0  0  0  0  0  0  0  0  0
   -3.9003   -0.7995    0.6991 H   0  0  0  0  0  0  0  0  0  0  0  0
   -3.5222    1.7128   -2.6990 N   0  0  0  0  0  0  0  0  0  0  0  0
   -3.9180    2.7382   -3.6537 C   0  0  0  0  0  0  0  0  0  0  0  0
   -2.7396    1.8892   -2.0643 H   0  0  0  0  0  0  0  0  0  0  0  0
   -4.8987    3.1477   -3.3907 H   0  0  0  0  0  0  0  0  0  0  0  0
   -3.1890    3.5541   -3.6540 H   0  0  0  0  0  0  0  0  0  0  0  0
   -3.9686    2.3207   -4.6648 H   0  0  0  0  0  0  0  0  0  0  0  0
  1  2  2  0  0  0  0
  1  3  1  0  0  0  0
  1  7  1  0  0  0  0
  3  4  1  0  0  0  0
  3  5  1  0  0  0  0
  3  6  1  0  0  0  0
  7  8  1  0  0  0  0
  7 12  1  0  0  0  0
  8  9  1  0  0  0  0
  8 11  1  0  0  0  0
  8 13  1  0  0  0  0
  9 10  2  0  0  0  0
  9 17  1  0  0  0  0
 11 14  1  0  0  0  0
 11 15  1  0  0  0  0
 11 16  1  0  0  0  0
 17 18  1  0  0  0  0
 17 23  1  0  0  0  0
 18 19  1  0  0  0  0
 18 21  1  0  0  0  0
 18 24  1  0  0  0  0
 19 20  2  0  0  0  0
 19 28  1  0  0  0  0
 21 22  1  0  0  0  0
 21 25  1  0  0  0  0
 21 26  1  0  0  0  0
 22 27  1  0  0  0  0
 28 29  1  0  0  0  0
 28 33  1  0  0  0  0
 29 30  1  0  0  0  0
 29 32  1  0  0  0  0
 29 34  1  0  0  0  0
 30 31  2  0  0  0  0
 30 38  1  0  0  0  0
 32 35  1  0  0  0  0
 32 36  1  0  0  0  0
 32 37  1  0  0  0  0
 38 39  1  0  0  0  0
 38 40  1  0  0  0  0
 39 41  1  0  0  0  0
 39 42  1  0  0  0  0
 39 43  1  0  0  0  0
M  END
$$$$

  -OEChem-05262217303D

 43 42  0     1  0  0  0  0  0999 V2000
    2.4264   -2.0361    2.7820 C   0  0  0  0  0  0  0  0  0  0  0  0
    1.2468   -1.9970    2.4534 O   0  0  0  0  0  0  0  0  0  0  0  0
    3.0949   -3.3671    3.0669 C   0  0  0  0  0  0  0  0  0  0  0  0
    3.5056   -3.3693    4.0796 H   0  0  0  0  0  0  0  0  0  0  0  0
    2.3690   -4.1806    2.9800 H   0  0  0  0  0  0  0  0  0  0  0  0
    3.9036   -3.5402    2.3523 H   0  0  0  0  0  0  0  0  0  0  0  0
    3.1609   -0.8686    2.8319 N   0  0  0  0  0  0  0  0  0  0  0  0
    2.6241    0.4260    2.3897 C   0  0  2  0  0  0  0  0  0  0  0  0
    2.2600    0.4116    0.8884 C   0  0  0  0  0  0  0  0  0  0  0  0
    3.1269    0.2412    0.0403 O   0  0  0  0  0  0  0  0  0  0  0  0
    3.6660    1.5063    2.6947 C   0  0  0  0  0  0  0  0  0  0  0  0
    4.1699   -0.9687    2.9042 H   0  0  0  0  0  0  0  0  0  0  0  0
    1.7182    0.6538    2.9611 H   0  0  0  0  0  0  0  0  0  0  0  0
    4.5969    1.3080    2.1533 H   0  0  0  0  0  0  0  0  0  0  0  0
    3.2934    2.4900    2.3917 H   0  0  0  0  0  0  0  0  0  0  0  0
    3.8837    1.5350    3.7668 H   0  0  0  0  0  0  0  0  0  0  0  0
    0.9330    0.4923    0.5107 N   0  0  0  0  0  0  0  0  0  0  0  0
    0.4015   -0.0245   -0.7658 C   0  0  2  0  0  0  0  0  0  0  0  0
   -1.1188    0.2229   -0.8911 C   0  0  0  0  0  0  0  0  0  0  0  0
   -1.5088    1.3698   -1.0685 O   0  0  0  0  0  0  0  0  0  0  0  0
    0.7495   -1.5226   -0.9456 C   0  0  0  0  0  0  0  0  0  0  0  0
    0.0950   -2.3538    0.0267 O   0  0  0  0  0  0  0  0  0  0  0  0
    0.2712    0.5453    1.2810 H   0  0  0  0  0  0  0  0  0  0  0  0
    0.8763    0.5268   -1.5838 H   0  0  0  0  0  0  0  0  0  0  0  0
    1.8295   -1.6855   -0.8970 H   0  0  0  0  0  0  0  0  0  0  0  0
    0.4281   -1.8360   -1.9444 H   0  0  0  0  0  0  0  0  0  0  0  0
    0.4994   -2.2284    0.9235 H   0  0  0  0  0  0  0  0  0  0  0  0
   -2.0469   -0.7932   -0.7342 N   0  0  0  0  0  0  0  0  0  0  0  0
   -3.5176   -0.6808   -0.6489 C   0  0  2  0  0  0  0  0  0  0  0  0
   -4.2252   -0.2371   -1.9504 C   0  0  0  0  0  0  0  0  0  0  0  0
   -5.2079   -0.8544   -2.3408 O   0  0  0  0  0  0  0  0  0  0  0  0
   -3.9297    0.2150    0.5273 C   0  0  0  0  0  0  0  0  0  0  0  0
   -1.6305   -1.7028   -0.5158 H   0  0  0  0  0  0  0  0  0  0  0  0
   -3.8957   -1.6855   -0.4331 H   0  0  0  0  0  0  0  0  0  0  0  0
   -3.6756    1.2618    0.3360 H   0  0  0  0  0  0  0  0  0  0  0  0
   -5.0108    0.1506    0.6864 H   0  0  0  0  0  0  0  0  0  0  0  0
   -3.4258   -0.1058    1.4439 H   0  0  0  0  0  0  0  0  0  0  0  0
   -3.7903    0.8571   -2.6711 N   0  0  0  0  0  0  0  0  0  0  0  0
   -4.4128    1.3279   -3.9004 C   0  0  0  0  0  0  0  0  0  0  0  0
   -2.9798    1.3536   -2.2919 H   0  0  0  0  0  0  0  0  0  0  0  0
   -5.4710    1.5546   -3.7337 H   0  0  0  0  0  0  0  0  0  0  0  0
   -3.9161    2.2381   -4.2495 H   0  0  0  0  0  0  0  0  0  0  0  0
   -4.3341    0.5667   -4.6833 H   0  0  0  0  0  0  0  0  0  0  0  0
  1  2  2  0  0  0  0
  1  3  1  0  0  0  0
  1  7  1  0  0  0  0
  3  4  1  0  0  0  0
  3  5  1  0  0  0  0
  3  6  1  0  0  0  0
  7  8  1  0  0  0  0
  7 12  1  0  0  0  0
  8  9  1  0  0  0  0
  8 11  1  0  0  0  0
  8 13  1  0  0  0  0
  9 10  2  0  0  0  0
  9 17  1  0  0  0  0
 11 14  1  0  0  0  0
 11 15  1  0  0  0  0
 11 16  1  0  0  0  0
 17 18  1  0  0  0  0
 17 23  1  0  0  0  0
 18 19  1  0  0  0  0
 18 21  1  0  0  0  0
 18 24  1  0  0  0  0
 19 20  2  0  0  0  0
 19 28  1  0  0  0  0
 21 22  1  0  0  0  0
 21 25  1  0  0  0  0
 21 26  1  0  0  0  0
 22 27  1  0  0  0  0
 28 29  1  0  0  0  0
 28 33  1  0  0  0  0
 29 30  1  0  0  0  0
 29 32  1  0  0  0  0
 29 34  1  0  0  0  0
 30 31  2  0  0  0  0
 30 38  1  0  0  0  0
 32 35  1  0  0  0  0
 32 36  1  0  0  0  0
 32 37  1  0  0  0  0
 38 39  1  0  0  0  0
 38 40  1  0  0  0  0
 39 41  1  0  0  0  0
 39 42  1  0  0  0  0
 39 43  1  0  0  0  0
M  END
$$$$

  -OEChem-05262217303D

 43 42  0     1  0  0  0  0  0999 V2000
    3.8410   -1.8847    3.7803 C   0  0  0  0  0  0  0  0  0  0  0  0
    3.0328   -1.8336    4.6938 O   0  0  0  0  0  0  0  0  0  0  0  0
    5.0512   -2.7935    3.8866 C   0  0  0  0  0  0  0  0  0  0  0  0
    5.9684   -2.2015    3.8377 H   0  0  0  0  0  0  0  0  0  0  0  0
    5.0319   -3.3354    4.8364 H   0  0  0  0  0  0  0  0  0  0  0  0
    5.0487   -3.5177    3.0684 H   0  0  0  0  0  0  0  0  0  0  0  0
    3.6487   -1.1251    2.6454 N   0  0  0  0  0  0  0  0  0  0  0  0
    2.4368   -0.3418    2.3695 C   0  0  2  0  0  0  0  0  0  0  0  0
    2.0092   -0.4524    0.8909 C   0  0  0  0  0  0  0  0  0  0  0  0
    2.8104   -0.8402    0.0474 O   0  0  0  0  0  0  0  0  0  0  0  0
    2.7181    1.1145    2.7486 C   0  0  0  0  0  0  0  0  0  0  0  0
    4.2709   -1.2997    1.8572 H   0  0  0  0  0  0  0  0  0  0  0  0
    1.6035   -0.7149    2.9748 H   0  0  0  0  0  0  0  0  0  0  0  0
    3.5463    1.5119    2.1532 H   0  0  0  0  0  0  0  0  0  0  0  0
    1.8345    1.7365    2.5760 H   0  0  0  0  0  0  0  0  0  0  0  0
    2.9864    1.1828    3.8079 H   0  0  0  0  0  0  0  0  0  0  0  0
    0.7306   -0.0880    0.5102 N   0  0  0  0  0  0  0  0  0  0  0  0
    0.1176   -0.3476   -0.8093 C   0  0  2  0  0  0  0  0  0  0  0  0
   -1.3211    0.2066   -0.8720 C   0  0  0  0  0  0  0  0  0  0  0  0
   -1.4885    1.3744   -1.1977 O   0  0  0  0  0  0  0  0  0  0  0  0
    0.1647   -1.8451   -1.2009 C   0  0  0  0  0  0  0  0  0  0  0  0
   -0.6390   -2.6717   -0.3430 O   0  0  0  0  0  0  0  0  0  0  0  0
    0.1120    0.2153    1.2581 H   0  0  0  0  0  0  0  0  0  0  0  0
    0.6966    0.2001   -1.5604 H   0  0  0  0  0  0  0  0  0  0  0  0
    1.1938   -2.2127   -1.1937 H   0  0  0  0  0  0  0  0  0  0  0  0
   -0.1989   -1.9482   -2.2287 H   0  0  0  0  0  0  0  0  0  0  0  0
   -0.4652   -3.6148   -0.5245 H   0  0  0  0  0  0  0  0  0  0  0  0
   -2.4100   -0.5641   -0.5054 N   0  0  0  0  0  0  0  0  0  0  0  0
   -3.8272   -0.1601   -0.4119 C   0  0  2  0  0  0  0  0  0  0  0  0
   -4.4984    0.1738   -1.7638 C   0  0  0  0  0  0  0  0  0  0  0  0
   -5.5723   -0.3419   -2.0452 O   0  0  0  0  0  0  0  0  0  0  0  0
   -4.0095    0.9912    0.5863 C   0  0  0  0  0  0  0  0  0  0  0  0
   -2.1704   -1.5269   -0.2569 H   0  0  0  0  0  0  0  0  0  0  0  0
   -4.3731   -1.0193   -0.0089 H   0  0  0  0  0  0  0  0  0  0  0  0
   -3.5730    1.9194    0.2059 H   0  0  0  0  0  0  0  0  0  0  0  0
   -5.0754    1.1649    0.7647 H   0  0  0  0  0  0  0  0  0  0  0  0
   -3.5343    0.7466    1.5410 H   0  0  0  0  0  0  0  0  0  0  0  0
   -3.9163    1.0508   -2.6574 N   0  0  0  0  0  0  0  0  0  0  0  0
   -4.5125    1.4368   -3.9289 C   0  0  0  0  0  0  0  0  0  0  0  0
   -3.0337    1.4768   -2.3624 H   0  0  0  0  0  0  0  0  0  0  0  0
   -5.4504    1.9768   -3.7618 H   0  0  0  0  0  0  0  0  0  0  0  0
   -3.8306    2.0883   -4.4838 H   0  0  0  0  0  0  0  0  0  0  0  0
   -4.7174    0.5518   -4.5406 H   0  0  0  0  0  0  0  0  0  0  0  0
  1  2  2  0  0  0  0
  1  3  1  0  0  0  0
  1  7  1  0  0  0  0
  3  4  1  0  0  0  0
  3  5  1  0  0  0  0
  3  6  1  0  0  0  0
  7  8  1  0  0  0  0
  7 12  1  0  0  0  0
  8  9  1  0  0  0  0
  8 11  1  0  0  0  0
  8 13  1  0  0  0  0
  9 10  2  0  0  0  0
  9 17  1  0  0  0  0
 11 14  1  0  0  0  0
 11 15  1  0  0  0  0
 11 16  1  0  0  0  0
 17 18  1  0  0  0  0
 17 23  1  0  0  0  0
 18 19  1  0  0  0  0
 18 21  1  0  0  0  0
 18 24  1  0  0  0  0
 19 20  2  0  0  0  0
 19 28  1  0  0  0  0
 21 22  1  0  0  0  0
 21 25  1  0  0  0  0
 21 26  1  0  0  0  0
 22 27  1  0  0  0  0
 28 29  1  0  0  0  0
 28 33  1  0  0  0  0
 29 30  1  0  0  0  0
 29 32  1  0  0  0  0
 29 34  1  0  0  0  0
 30 31  2  0  0  0  0
 30 38  1  0  0  0  0
 32 35  1  0  0  0  0
 32 36  1  0  0  0  0
 32 37  1  0  0  0  0
 38 39  1  0  0  0  0
 38 40  1  0  0  0  0
 39 41  1  0  0  0  0
 39 42  1  0  0  0  0
 39 43  1  0  0  0  0
M  END
$$$$

  -OEChem-05262217303D

 43 42  0     1  0  0  0  0  0999 V2000
    3.9391   -1.9332    3.7145 C   0  0  0  0  0  0  0  0  0  0  0  0
    3.1706   -1.8868    4.6619 O   0  0  0  0  0  0  0  0  0  0  0  0
    5.1402   -2.8595    3.7520 C   0  0  0  0  0  0  0  0  0  0  0  0
    6.0614   -2.2793    3.6596 H   0  0  0  0  0  0  0  0  0  0  0  0
    5.1634   -3.4092    4.6972 H   0  0  0  0  0  0  0  0  0  0  0  0
    5.0853   -3.5764    2.9291 H   0  0  0  0  0  0  0  0  0  0  0  0
    3.7094   -1.1529    2.6012 N   0  0  0  0  0  0  0  0  0  0  0  0
    2.4950   -0.3545    2.3864 C   0  0  2  0  0  0  0  0  0  0  0  0
    2.0136   -0.4307    0.9229 C   0  0  0  0  0  0  0  0  0  0  0  0
    2.7806   -0.8079    0.0436 O   0  0  0  0  0  0  0  0  0  0  0  0
    2.8017    1.0932    2.7796 C   0  0  0  0  0  0  0  0  0  0  0  0
    4.2946   -1.3249    1.7846 H   0  0  0  0  0  0  0  0  0  0  0  0
    1.6816   -0.7329    3.0150 H   0  0  0  0  0  0  0  0  0  0  0  0
    3.6042    1.4982    2.1544 H   0  0  0  0  0  0  0  0  0  0  0  0
    1.9148    1.7222    2.6580 H   0  0  0  0  0  0  0  0  0  0  0  0
    3.1169    1.1407    3.8269 H   0  0  0  0  0  0  0  0  0  0  0  0
    0.7304   -0.0339    0.5933 N   0  0  0  0  0  0  0  0  0  0  0  0
    0.0808   -0.2481   -0.7164 C   0  0  2  0  0  0  0  0  0  0  0  0
   -1.3498    0.3243   -0.7392 C   0  0  0  0  0  0  0  0  0  0  0  0
   -1.5476    1.4047   -1.2787 O   0  0  0  0  0  0  0  0  0  0  0  0
    0.0703   -1.7398   -1.1265 C   0  0  0  0  0  0  0  0  0  0  0  0
   -0.7445   -2.5434   -0.2565 O   0  0  0  0  0  0  0  0  0  0  0  0
    0.1328    0.2317    1.3718 H   0  0  0  0  0  0  0  0  0  0  0  0
    0.6559    0.2982   -1.4718 H   0  0  0  0  0  0  0  0  0  0  0  0
    1.0860   -2.1427   -1.1469 H   0  0  0  0  0  0  0  0  0  0  0  0
   -0.3217   -1.8182   -2.1460 H   0  0  0  0  0  0  0  0  0  0  0  0
   -0.6481   -3.4881   -0.4815 H   0  0  0  0  0  0  0  0  0  0  0  0
   -2.3863   -0.3251   -0.0911 N   0  0  0  0  0  0  0  0  0  0  0  0
   -3.8031    0.0843   -0.0106 C   0  0  2  0  0  0  0  0  0  0  0  0
   -4.5464    0.1003   -1.3661 C   0  0  0  0  0  0  0  0  0  0  0  0
   -5.5585   -0.5733   -1.5073 O   0  0  0  0  0  0  0  0  0  0  0  0
   -3.9474    1.4298    0.7136 C   0  0  0  0  0  0  0  0  0  0  0  0
   -2.1494   -1.2754    0.2042 H   0  0  0  0  0  0  0  0  0  0  0  0
   -4.3141   -0.6630    0.6052 H   0  0  0  0  0  0  0  0  0  0  0  0
   -3.5355    2.2493    0.1176 H   0  0  0  0  0  0  0  0  0  0  0  0
   -5.0046    1.6432    0.9006 H   0  0  0  0  0  0  0  0  0  0  0  0
   -3.4253    1.4008    1.6746 H   0  0  0  0  0  0  0  0  0  0  0  0
   -4.0801    0.8496   -2.4275 N   0  0  0  0  0  0  0  0  0  0  0  0
   -4.6844    0.8551   -3.7518 C   0  0  0  0  0  0  0  0  0  0  0  0
   -3.1958    1.3423   -2.2761 H   0  0  0  0  0  0  0  0  0  0  0  0
   -4.1618    1.5652   -4.4001 H   0  0  0  0  0  0  0  0  0  0  0  0
   -4.6219   -0.1399   -4.2046 H   0  0  0  0  0  0  0  0  0  0  0  0
   -5.7371    1.1515   -3.6926 H   0  0  0  0  0  0  0  0  0  0  0  0
  1  2  2  0  0  0  0
  1  3  1  0  0  0  0
  1  7  1  0  0  0  0
  3  4  1  0  0  0  0
  3  5  1  0  0  0  0
  3  6  1  0  0  0  0
  7  8  1  0  0  0  0
  7 12  1  0  0  0  0
  8  9  1  0  0  0  0
  8 11  1  0  0  0  0
  8 13  1  0  0  0  0
  9 10  2  0  0  0  0
  9 17  1  0  0  0  0
 11 14  1  0  0  0  0
 11 15  1  0  0  0  0
 11 16  1  0  0  0  0
 17 18  1  0  0  0  0
 17 23  1  0  0  0  0
 18 19  1  0  0  0  0
 18 21  1  0  0  0  0
 18 24  1  0  0  0  0
 19 20  2  0  0  0  0
 19 28  1  0  0  0  0
 21 22  1  0  0  0  0
 21 25  1  0  0  0  0
 21 26  1  0  0  0  0
 22 27  1  0  0  0  0
 28 29  1  0  0  0  0
 28 33  1  0  0  0  0
 29 30  1  0  0  0  0
 29 32  1  0  0  0  0
 29 34  1  0  0  0  0
 30 31  2  0  0  0  0
 30 38  1  0  0  0  0
 32 35  1  0  0  0  0
 32 36  1  0  0  0  0
 32 37  1  0  0  0  0
 38 39  1  0  0  0  0
 38 40  1  0  0  0  0
 39 41  1  0  0  0  0
 39 42  1  0  0  0  0
 39 43  1  0  0  0  0
M  END
$$$$

  -OEChem-05262217303D

 43 42  0     1  0  0  0  0  0999 V2000
    3.9957   -2.0348    3.6485 C   0  0  0  0  0  0  0  0  0  0  0  0
    3.2560   -1.9856    4.6184 O   0  0  0  0  0  0  0  0  0  0  0  0
    5.1735   -2.9913    3.6374 C   0  0  0  0  0  0  0  0  0  0  0  0
    6.1078   -2.4318    3.5476 H   0  0  0  0  0  0  0  0  0  0  0  0
    5.1972   -3.5704    4.5649 H   0  0  0  0  0  0  0  0  0  0  0  0
    5.0879   -3.6815    2.7945 H   0  0  0  0  0  0  0  0  0  0  0  0
    3.7558   -1.2271    2.5569 N   0  0  0  0  0  0  0  0  0  0  0  0
    2.5562   -0.3950    2.3926 C   0  0  2  0  0  0  0  0  0  0  0  0
    2.0354   -0.4208    0.9406 C   0  0  0  0  0  0  0  0  0  0  0  0
    2.7579   -0.8228    0.0351 O   0  0  0  0  0  0  0  0  0  0  0  0
    2.9047    1.0349    2.8161 C   0  0  0  0  0  0  0  0  0  0  0  0
    4.3134   -1.3976    1.7209 H   0  0  0  0  0  0  0  0  0  0  0  0
    1.7499   -0.7723    3.0308 H   0  0  0  0  0  0  0  0  0  0  0  0
    3.6952    1.4419    2.1774 H   0  0  0  0  0  0  0  0  0  0  0  0
    2.0272    1.6842    2.7402 H   0  0  0  0  0  0  0  0  0  0  0  0
    3.2535    1.0472    3.8538 H   0  0  0  0  0  0  0  0  0  0  0  0
    0.7666    0.0471    0.6499 N   0  0  0  0  0  0  0  0  0  0  0  0
    0.0798   -0.1144   -0.6487 C   0  0  2  0  0  0  0  0  0  0  0  0
   -1.3205    0.5241   -0.6457 C   0  0  0  0  0  0  0  0  0  0  0  0
   -1.5643    1.4426   -1.4168 O   0  0  0  0  0  0  0  0  0  0  0  0
   -0.0491   -1.6011   -1.0465 C   0  0  0  0  0  0  0  0  0  0  0  0
   -0.9101   -2.3213   -0.1485 O   0  0  0  0  0  0  0  0  0  0  0  0
    0.2030    0.3338    1.4459 H   0  0  0  0  0  0  0  0  0  0  0  0
    0.6722    0.3942   -1.4171 H   0  0  0  0  0  0  0  0  0  0  0  0
    0.9318   -2.0826   -1.0796 H   0  0  0  0  0  0  0  0  0  0  0  0
   -0.4664   -1.6589   -2.0574 H   0  0  0  0  0  0  0  0  0  0  0  0
   -0.9478   -3.2636   -0.3991 H   0  0  0  0  0  0  0  0  0  0  0  0
   -2.2792    0.0853    0.2523 N   0  0  0  0  0  0  0  0  0  0  0  0
   -3.6916    0.5121    0.3244 C   0  0  2  0  0  0  0  0  0  0  0  0
   -4.5284    0.1392   -0.9207 C   0  0  0  0  0  0  0  0  0  0  0  0
   -5.5167   -0.5711   -0.7927 O   0  0  0  0  0  0  0  0  0  0  0  0
   -3.8142    2.0089    0.6424 C   0  0  0  0  0  0  0  0  0  0  0  0
   -2.0537   -0.8302    0.6479 H   0  0  0  0  0  0  0  0  0  0  0  0
   -4.1418   -0.0256    1.1656 H   0  0  0  0  0  0  0  0  0  0  0  0
   -3.4792    2.6248   -0.1970 H   0  0  0  0  0  0  0  0  0  0  0  0
   -4.8582    2.2613    0.8532 H   0  0  0  0  0  0  0  0  0  0  0  0
   -3.2138    2.2604    1.5212 H   0  0  0  0  0  0  0  0  0  0  0  0
   -4.1634    0.5692   -2.1810 N   0  0  0  0  0  0  0  0  0  0  0  0
   -4.8623    0.1989   -3.4033 C   0  0  0  0  0  0  0  0  0  0  0  0
   -3.2919    1.1026   -2.2404 H   0  0  0  0  0  0  0  0  0  0  0  0
   -4.3812    0.6651   -4.2684 H   0  0  0  0  0  0  0  0  0  0  0  0
   -4.8452   -0.8872   -3.5410 H   0  0  0  0  0  0  0  0  0  0  0  0
   -5.9042    0.5335   -3.3649 H   0  0  0  0  0  0  0  0  0  0  0  0
  1  2  2  0  0  0  0
  1  3  1  0  0  0  0
  1  7  1  0  0  0  0
  3  4  1  0  0  0  0
  3  5  1  0  0  0  0
  3  6  1  0  0  0  0
  7  8  1  0  0  0  0
  7 12  1  0  0  0  0
  8  9  1  0  0  0  0
  8 11  1  0  0  0  0
  8 13  1  0  0  0  0
  9 10  2  0  0  0  0
  9 17  1  0  0  0  0
 11 14  1  0  0  0  0
 11 15  1  0  0  0  0
 11 16  1  0  0  0  0
 17 18  1  0  0  0  0
 17 23  1  0  0  0  0
 18 19  1  0  0  0  0
 18 21  1  0  0  0  0
 18 24  1  0  0  0  0
 19 20  2  0  0  0  0
 19 28  1  0  0  0  0
 21 22  1  0  0  0  0
 21 25  1  0  0  0  0
 21 26  1  0  0  0  0
 22 27  1  0  0  0  0
 28 29  1  0  0  0  0
 28 33  1  0  0  0  0
 29 30  1  0  0  0  0
 29 32  1  0  0  0  0
 29 34  1  0  0  0  0
 30 31  2  0  0  0  0
 30 38  1  0  0  0  0
 32 35  1  0  0  0  0
 32 36  1  0  0  0  0
 32 37  1  0  0  0  0
 38 39  1  0  0  0  0
 38 40  1  0  0  0  0
 39 41  1  0  0  0  0
 39 42  1  0  0  0  0
 39 43  1  0  0  0  0
M  END
$$$$

  -OEChem-05262217303D

 43 42  0     1  0  0  0  0  0999 V2000
    3.9847   -2.0367    3.6918 C   0  0  0  0  0  0  0  0  0  0  0  0
    3.2598   -1.9194    4.6671 O   0  0  0  0  0  0  0  0  0  0  0  0
    5.1346   -3.0258    3.7121 C   0  0  0  0  0  0  0  0  0  0  0  0
    6.0841   -2.4947    3.6098 H   0  0  0  0  0  0  0  0  0  0  0  0
    5.1393   -3.5784    4.6559 H   0  0  0  0  0  0  0  0  0  0  0  0
    5.0316   -3.7369    2.8888 H   0  0  0  0  0  0  0  0  0  0  0  0
    3.7544   -1.2749    2.5659 N   0  0  0  0  0  0  0  0  0  0  0  0
    2.5787   -0.4151    2.3768 C   0  0  2  0  0  0  0  0  0  0  0  0
    2.0576   -0.4715    0.9260 C   0  0  0  0  0  0  0  0  0  0  0  0
    2.7602   -0.9401    0.0371 O   0  0  0  0  0  0  0  0  0  0  0  0
    2.9675    1.0161    2.7572 C   0  0  0  0  0  0  0  0  0  0  0  0
    4.2935   -1.5038    1.7315 H   0  0  0  0  0  0  0  0  0  0  0  0
    1.7627   -0.7506    3.0261 H   0  0  0  0  0  0  0  0  0  0  0  0
    3.7740    1.3782    2.1112 H   0  0  0  0  0  0  0  0  0  0  0  0
    2.1105    1.6886    2.6554 H   0  0  0  0  0  0  0  0  0  0  0  0
    3.3106    1.0508    3.7963 H   0  0  0  0  0  0  0  0  0  0  0  0
    0.8076    0.0327    0.6162 N   0  0  0  0  0  0  0  0  0  0  0  0
    0.1184   -0.1480   -0.6794 C   0  0  2  0  0  0  0  0  0  0  0  0
   -1.2571    0.5369   -0.7112 C   0  0  0  0  0  0  0  0  0  0  0  0
   -1.5511    1.2543   -1.6582 O   0  0  0  0  0  0  0  0  0  0  0  0
   -0.0984   -1.6430   -0.9872 C   0  0  0  0  0  0  0  0  0  0  0  0
   -1.0091   -2.2340   -0.0450 O   0  0  0  0  0  0  0  0  0  0  0  0
    0.2620    0.3932    1.3943 H   0  0  0  0  0  0  0  0  0  0  0  0
    0.7332    0.2917   -1.4720 H   0  0  0  0  0  0  0  0  0  0  0  0
    0.8502   -2.1865   -0.9763 H   0  0  0  0  0  0  0  0  0  0  0  0
   -0.5127   -1.7423   -1.9963 H   0  0  0  0  0  0  0  0  0  0  0  0
   -1.1290   -3.1826   -0.2377 H   0  0  0  0  0  0  0  0  0  0  0  0
   -2.1154    0.3942    0.3675 N   0  0  0  0  0  0  0  0  0  0  0  0
   -3.4758    0.9558    0.4942 C   0  0  2  0  0  0  0  0  0  0  0  0
   -4.4971    0.3905   -0.5197 C   0  0  0  0  0  0  0  0  0  0  0  0
   -5.5117   -0.1582   -0.1104 O   0  0  0  0  0  0  0  0  0  0  0  0
   -3.4541    2.4902    0.4575 C   0  0  0  0  0  0  0  0  0  0  0  0
   -1.9154   -0.4440    0.9149 H   0  0  0  0  0  0  0  0  0  0  0  0
   -3.8440    0.6718    1.4855 H   0  0  0  0  0  0  0  0  0  0  0  0
   -3.1913    2.8629   -0.5366 H   0  0  0  0  0  0  0  0  0  0  0  0
   -4.4423    2.8830    0.7168 H   0  0  0  0  0  0  0  0  0  0  0  0
   -2.7276    2.8767    1.1784 H   0  0  0  0  0  0  0  0  0  0  0  0
   -4.2765    0.4783   -1.8799 N   0  0  0  0  0  0  0  0  0  0  0  0
   -5.1641   -0.0804   -2.8896 C   0  0  0  0  0  0  0  0  0  0  0  0
   -3.3844    0.8907   -2.1659 H   0  0  0  0  0  0  0  0  0  0  0  0
   -4.7711    0.1221   -3.8905 H   0  0  0  0  0  0  0  0  0  0  0  0
   -5.2518   -1.1644   -2.7643 H   0  0  0  0  0  0  0  0  0  0  0  0
   -6.1607    0.3665   -2.8126 H   0  0  0  0  0  0  0  0  0  0  0  0
  1  2  2  0  0  0  0
  1  3  1  0  0  0  0
  1  7  1  0  0  0  0
  3  4  1  0  0  0  0
  3  5  1  0  0  0  0
  3  6  1  0  0  0  0
  7  8  1  0  0  0  0
  7 12  1  0  0  0  0
  8  9  1  0  0  0  0
  8 11  1  0  0  0  0
  8 13  1  0  0  0  0
  9 10  2  0  0  0  0
  9 17  1  0  0  0  0
 11 14  1  0  0  0  0
 11 15  1  0  0  0  0
 11 16  1  0  0  0  0
 17 18  1  0  0  0  0
 17 23  1  0  0  0  0
 18 19  1  0  0  0  0
 18 21  1  0  0  0  0
 18 24  1  0  0  0  0
 19 20  2  0  0  0  0
 19 28  1  0  0  0  0
 21 22  1  0  0  0  0
 21 25  1  0  0  0  0
 21 26  1  0  0  0  0
 22 27  1  0  0  0  0
 28 29  1  0  0  0  0
 28 33  1  0  0  0  0
 29 30  1  0  0  0  0
 29 32  1  0  0  0  0
 29 34  1  0  0  0  0
 30 31  2  0  0  0  0
 30 38  1  0  0  0  0
 32 35  1  0  0  0  0
 32 36  1  0  0  0  0
 32 37  1  0  0  0  0
 38 39  1  0  0  0  0
 38 40  1  0  0  0  0
 39 41  1  0  0  0  0
 39 42  1  0  0  0  0
 39 43  1  0  0  0  0
M  END
$$$$

  -OEChem-05262217303D

 43 42  0     1  0  0  0  0  0999 V2000
    4.0532   -2.0531    3.9218 C   0  0  0  0  0  0  0  0  0  0  0  0
    3.5023   -1.6132    4.9188 O   0  0  0  0  0  0  0  0  0  0  0  0
    5.0556   -3.1858    4.0407 C   0  0  0  0  0  0  0  0  0  0  0  0
    6.0159   -2.8815    3.6174 H   0  0  0  0  0  0  0  0  0  0  0  0
    5.2021   -3.4503    5.0917 H   0  0  0  0  0  0  0  0  0  0  0  0
    4.6903   -4.0646    3.5036 H   0  0  0  0  0  0  0  0  0  0  0  0
    3.7572   -1.5249    2.6833 N   0  0  0  0  0  0  0  0  0  0  0  0
    2.7094   -0.5269    2.4345 C   0  0  2  0  0  0  0  0  0  0  0  0
    2.1442   -0.6424    1.0028 C   0  0  0  0  0  0  0  0  0  0  0  0
    2.7598   -1.2744    0.1515 O   0  0  0  0  0  0  0  0  0  0  0  0
    3.3027    0.8673    2.6657 C   0  0  0  0  0  0  0  0  0  0  0  0
    4.1562   -1.9860    1.8659 H   0  0  0  0  0  0  0  0  0  0  0  0
    1.8786   -0.6883    3.1299 H   0  0  0  0  0  0  0  0  0  0  0  0
    4.1268    1.0517    1.9688 H   0  0  0  0  0  0  0  0  0  0  0  0
    2.5421    1.6400    2.5193 H   0  0  0  0  0  0  0  0  0  0  0  0
    3.6859    0.9529    3.6877 H   0  0  0  0  0  0  0  0  0  0  0  0
    0.9848    0.0276    0.6531 N   0  0  0  0  0  0  0  0  0  0  0  0
    0.2782   -0.1326   -0.6391 C   0  0  2  0  0  0  0  0  0  0  0  0
   -0.9826    0.7321   -0.7704 C   0  0  0  0  0  0  0  0  0  0  0  0
   -1.3482    1.1002   -1.8782 O   0  0  0  0  0  0  0  0  0  0  0  0
   -0.2072   -1.5903   -0.8070 C   0  0  0  0  0  0  0  0  0  0  0  0
   -1.2151   -1.9236    0.1661 O   0  0  0  0  0  0  0  0  0  0  0  0
    0.5304    0.5542    1.3916 H   0  0  0  0  0  0  0  0  0  0  0  0
    0.9580    0.1226   -1.4586 H   0  0  0  0  0  0  0  0  0  0  0  0
    0.6302   -2.2866   -0.7123 H   0  0  0  0  0  0  0  0  0  0  0  0
   -0.6212   -1.7261   -1.8120 H   0  0  0  0  0  0  0  0  0  0  0  0
   -2.1177   -1.6392   -0.1270 H   0  0  0  0  0  0  0  0  0  0  0  0
   -1.7185    1.0567    0.3606 N   0  0  0  0  0  0  0  0  0  0  0  0
   -3.1443    1.4238    0.2725 C   0  0  2  0  0  0  0  0  0  0  0  0
   -3.9630    0.3523   -0.4957 C   0  0  0  0  0  0  0  0  0  0  0  0
   -3.6858   -0.8341   -0.3314 O   0  0  0  0  0  0  0  0  0  0  0  0
   -3.3110    2.8497   -0.2802 C   0  0  0  0  0  0  0  0  0  0  0  0
   -1.4779    0.4624    1.1502 H   0  0  0  0  0  0  0  0  0  0  0  0
   -3.5450    1.4342    1.2905 H   0  0  0  0  0  0  0  0  0  0  0  0
   -3.0710    2.8955   -1.3468 H   0  0  0  0  0  0  0  0  0  0  0  0
   -4.3412    3.1926   -0.1423 H   0  0  0  0  0  0  0  0  0  0  0  0
   -2.6468    3.5387    0.2508 H   0  0  0  0  0  0  0  0  0  0  0  0
   -4.9916    0.6932   -1.3550 N   0  0  0  0  0  0  0  0  0  0  0  0
   -5.6656   -0.2818   -2.2046 C   0  0  0  0  0  0  0  0  0  0  0  0
   -5.0748    1.6772   -1.5935 H   0  0  0  0  0  0  0  0  0  0  0  0
   -6.4842    0.1961   -2.7513 H   0  0  0  0  0  0  0  0  0  0  0  0
   -4.9642   -0.7077   -2.9302 H   0  0  0  0  0  0  0  0  0  0  0  0
   -6.0853   -1.0942   -1.6021 H   0  0  0  0  0  0  0  0  0  0  0  0
  1  2  2  0  0  0  0
  1  3  1  0  0  0  0
  1  7  1  0  0  0  0
  3  4  1  0  0  0  0
  3  5  1  0  0  0  0
  3  6  1  0  0  0  0
  7  8  1  0  0  0  0
  7 12  1  0  0  0  0
  8  9  1  0  0  0  0
  8 11  1  0  0  0  0
  8 13  1  0  0  0  0
  9 10  2  0  0  0  0
  9 17  1  0  0  0  0
 11 14  1  0  0  0  0
 11 15  1  0  0  0  0
 11 16  1  0  0  0  0
 17 18  1  0  0  0  0
 17 23  1  0  0  0  0
 18 19  1  0  0  0  0
 18 21  1  0  0  0  0
 18 24  1  0  0  0  0
 19 20  2  0  0  0  0
 19 28  1  0  0  0  0
 21 22  1  0  0  0  0
 21 25  1  0  0  0  0
 21 26  1  0  0  0  0
 22 27  1  0  0  0  0
 28 29  1  0  0  0  0
 28 33  1  0  0  0  0
 29 30  1  0  0  0  0
 29 32  1  0  0  0  0
 29 34  1  0  0  0  0
 30 31  2  0  0  0  0
 30 38  1  0  0  0  0
 32 35  1  0  0  0  0
 32 36  1  0  0  0  0
 32 37  1  0  0  0  0
 38 39  1  0  0  0  0
 38 40  1  0  0  0  0
 39 41  1  0  0  0  0
 39 42  1  0  0  0  0
 39 43  1  0  0  0  0
M  END
$$$$

  -OEChem-05262217303D

 43 42  0     1  0  0  0  0  0999 V2000
    3.9759   -2.1974    3.8483 C   0  0  0  0  0  0  0  0  0  0  0  0
    3.3690   -1.8629    4.8537 O   0  0  0  0  0  0  0  0  0  0  0  0
    4.9893   -3.3251    3.9094 C   0  0  0  0  0  0  0  0  0  0  0  0
    5.9640   -2.9711    3.5649 H   0  0  0  0  0  0  0  0  0  0  0  0
    5.0885   -3.6865    4.9368 H   0  0  0  0  0  0  0  0  0  0  0  0
    4.6655   -4.1532    3.2744 H   0  0  0  0  0  0  0  0  0  0  0  0
    3.7377   -1.5498    2.6547 N   0  0  0  0  0  0  0  0  0  0  0  0
    2.6924   -0.5385    2.4526 C   0  0  2  0  0  0  0  0  0  0  0  0
    2.2299   -0.4867    0.9812 C   0  0  0  0  0  0  0  0  0  0  0  0
    2.8989   -1.0299    0.1083 O   0  0  0  0  0  0  0  0  0  0  0  0
    3.2402    0.8252    2.8870 C   0  0  0  0  0  0  0  0  0  0  0  0
    4.1858   -1.9218    1.8176 H   0  0  0  0  0  0  0  0  0  0  0  0
    1.8187   -0.7919    3.0630 H   0  0  0  0  0  0  0  0  0  0  0  0
    4.1081    1.0990    2.2784 H   0  0  0  0  0  0  0  0  0  0  0  0
    2.4770    1.6010    2.7760 H   0  0  0  0  0  0  0  0  0  0  0  0
    3.5471    0.7951    3.9372 H   0  0  0  0  0  0  0  0  0  0  0  0
    1.0862    0.2099    0.6283 N   0  0  0  0  0  0  0  0  0  0  0  0
    0.3613   -0.0651   -0.6354 C   0  0  2  0  0  0  0  0  0  0  0  0
   -0.8900    0.7876   -0.9047 C   0  0  0  0  0  0  0  0  0  0  0  0
   -1.3891    0.7649   -2.0220 O   0  0  0  0  0  0  0  0  0  0  0  0
   -0.1341   -1.5290   -0.5995 C   0  0  0  0  0  0  0  0  0  0  0  0
   -1.1206   -1.7105    0.4343 O   0  0  0  0  0  0  0  0  0  0  0  0
    0.5150    0.4553    1.4288 H   0  0  0  0  0  0  0  0  0  0  0  0
    1.0440    0.0710   -1.4807 H   0  0  0  0  0  0  0  0  0  0  0  0
    0.6985   -2.2177   -0.4317 H   0  0  0  0  0  0  0  0  0  0  0  0
   -0.5728   -1.7943   -1.5675 H   0  0  0  0  0  0  0  0  0  0  0  0
   -2.0023   -1.3292    0.1939 H   0  0  0  0  0  0  0  0  0  0  0  0
   -1.4954    1.5319    0.0984 N   0  0  0  0  0  0  0  0  0  0  0  0
   -2.9214    1.9071    0.0378 C   0  0  2  0  0  0  0  0  0  0  0  0
   -3.8341    0.6842   -0.2510 C   0  0  0  0  0  0  0  0  0  0  0  0
   -3.5327   -0.4102    0.2199 O   0  0  0  0  0  0  0  0  0  0  0  0
   -3.1293    3.0758   -0.9399 C   0  0  0  0  0  0  0  0  0  0  0  0
   -1.1176    1.3689    1.0238 H   0  0  0  0  0  0  0  0  0  0  0  0
   -3.2096    2.2687    1.0295 H   0  0  0  0  0  0  0  0  0  0  0  0
   -2.9881    2.7567   -1.9768 H   0  0  0  0  0  0  0  0  0  0  0  0
   -4.1397    3.4828   -0.8388 H   0  0  0  0  0  0  0  0  0  0  0  0
   -2.4150    3.8767   -0.7257 H   0  0  0  0  0  0  0  0  0  0  0  0
   -4.9852    0.7932   -1.0098 N   0  0  0  0  0  0  0  0  0  0  0  0
   -5.7795   -0.3634   -1.4056 C   0  0  0  0  0  0  0  0  0  0  0  0
   -5.1154    1.6636   -1.5166 H   0  0  0  0  0  0  0  0  0  0  0  0
   -6.6499   -0.0438   -1.9864 H   0  0  0  0  0  0  0  0  0  0  0  0
   -5.1827   -1.0447   -2.0213 H   0  0  0  0  0  0  0  0  0  0  0  0
   -6.1356   -0.9055   -0.5232 H   0  0  0  0  0  0  0  0  0  0  0  0
  1  2  2  0  0  0  0
  1  3  1  0  0  0  0
  1  7  1  0  0  0  0
  3  4  1  0  0  0  0
  3  5  1  0  0  0  0
  3  6  1  0  0  0  0
  7  8  1  0  0  0  0
  7 12  1  0  0  0  0
  8  9  1  0  0  0  0
  8 11  1  0  0  0  0
  8 13  1  0  0  0  0
  9 10  2  0  0  0  0
  9 17  1  0  0  0  0
 11 14  1  0  0  0  0
 11 15  1  0  0  0  0
 11 16  1  0  0  0  0
 17 18  1  0  0  0  0
 17 23  1  0  0  0  0
 18 19  1  0  0  0  0
 18 21  1  0  0  0  0
 18 24  1  0  0  0  0
 19 20  2  0  0  0  0
 19 28  1  0  0  0  0
 21 22  1  0  0  0  0
 21 25  1  0  0  0  0
 21 26  1  0  0  0  0
 22 27  1  0  0  0  0
 28 29  1  0  0  0  0
 28 33  1  0  0  0  0
 29 30  1  0  0  0  0
 29 32  1  0  0  0  0
 29 34  1  0  0  0  0
 30 31  2  0  0  0  0
 30 38  1  0  0  0  0
 32 35  1  0  0  0  0
 32 36  1  0  0  0  0
 32 37  1  0  0  0  0
 38 39  1  0  0  0  0
 38 40  1  0  0  0  0
 39 41  1  0  0  0  0
 39 42  1  0  0  0  0
 39 43  1  0  0  0  0
M  END
$$$$

  -OEChem-05262217303D

 43 42  0     1  0  0  0  0  0999 V2000
    3.8733   -2.1911    3.8696 C   0  0  0  0  0  0  0  0  0  0  0  0
    3.1887   -1.9199    4.8434 O   0  0  0  0  0  0  0  0  0  0  0  0
    4.9185   -3.2876    3.9527 C   0  0  0  0  0  0  0  0  0  0  0  0
    5.9064   -2.8796    3.7253 H   0  0  0  0  0  0  0  0  0  0  0  0
    4.9370   -3.7159    4.9587 H   0  0  0  0  0  0  0  0  0  0  0  0
    4.6853   -4.0800    3.2375 H   0  0  0  0  0  0  0  0  0  0  0  0
    3.6951   -1.5013    2.6894 N   0  0  0  0  0  0  0  0  0  0  0  0
    2.6218   -0.5283    2.4504 C   0  0  2  0  0  0  0  0  0  0  0  0
    2.2584   -0.4460    0.9527 C   0  0  0  0  0  0  0  0  0  0  0  0
    2.9926   -0.9553    0.1121 O   0  0  0  0  0  0  0  0  0  0  0  0
    3.0800    0.8391    2.9701 C   0  0  0  0  0  0  0  0  0  0  0  0
    4.2075   -1.8294    1.8710 H   0  0  0  0  0  0  0  0  0  0  0  0
    1.7201   -0.8395    2.9894 H   0  0  0  0  0  0  0  0  0  0  0  0
    3.9806    1.1664    2.4405 H   0  0  0  0  0  0  0  0  0  0  0  0
    2.2980    1.5903    2.8258 H   0  0  0  0  0  0  0  0  0  0  0  0
    3.3071    0.7824    4.0396 H   0  0  0  0  0  0  0  0  0  0  0  0
    1.1258    0.2338    0.5373 N   0  0  0  0  0  0  0  0  0  0  0  0
    0.4518   -0.1069   -0.7383 C   0  0  2  0  0  0  0  0  0  0  0  0
   -0.7910    0.7334   -1.0814 C   0  0  0  0  0  0  0  0  0  0  0  0
   -1.4331    0.4782   -2.0920 O   0  0  0  0  0  0  0  0  0  0  0  0
   -0.0227   -1.5758   -0.6382 C   0  0  0  0  0  0  0  0  0  0  0  0
   -1.0403   -1.7151    0.3718 O   0  0  0  0  0  0  0  0  0  0  0  0
    0.4948    0.4113    1.3135 H   0  0  0  0  0  0  0  0  0  0  0  0
    1.1610   -0.0044   -1.5664 H   0  0  0  0  0  0  0  0  0  0  0  0
    0.8122   -2.2440   -0.4096 H   0  0  0  0  0  0  0  0  0  0  0  0
   -0.4270   -1.8993   -1.6035 H   0  0  0  0  0  0  0  0  0  0  0  0
   -1.8694   -1.2248    0.1580 H   0  0  0  0  0  0  0  0  0  0  0  0
   -1.2333    1.7382   -0.2340 N   0  0  0  0  0  0  0  0  0  0  0  0
   -2.6391    2.1861   -0.2026 C   0  0  2  0  0  0  0  0  0  0  0  0
   -3.6370    1.0002   -0.0896 C   0  0  0  0  0  0  0  0  0  0  0  0
   -3.3031   -0.0139    0.5185 O   0  0  0  0  0  0  0  0  0  0  0  0
   -2.9229    3.1118   -1.3973 C   0  0  0  0  0  0  0  0  0  0  0  0
   -0.6872    1.8606    0.6109 H   0  0  0  0  0  0  0  0  0  0  0  0
   -2.7774    2.7828    0.7039 H   0  0  0  0  0  0  0  0  0  0  0  0
   -2.9411    2.5510   -2.3367 H   0  0  0  0  0  0  0  0  0  0  0  0
   -3.8882    3.6118   -1.2742 H   0  0  0  0  0  0  0  0  0  0  0  0
   -2.1471    3.8803   -1.4705 H   0  0  0  0  0  0  0  0  0  0  0  0
   -4.9109    1.0692   -0.6242 N   0  0  0  0  0  0  0  0  0  0  0  0
   -5.8330   -0.0605   -0.6200 C   0  0  0  0  0  0  0  0  0  0  0  0
   -5.1066    1.8511   -1.2418 H   0  0  0  0  0  0  0  0  0  0  0  0
   -6.7819    0.2243   -1.0844 H   0  0  0  0  0  0  0  0  0  0  0  0
   -5.4110   -0.9016   -1.1804 H   0  0  0  0  0  0  0  0  0  0  0  0
   -6.0365   -0.3864    0.4055 H   0  0  0  0  0  0  0  0  0  0  0  0
  1  2  2  0  0  0  0
  1  3  1  0  0  0  0
  1  7  1  0  0  0  0
  3  4  1  0  0  0  0
  3  5  1  0  0  0  0
  3  6  1  0  0  0  0
  7  8  1  0  0  0  0
  7 12  1  0  0  0  0
  8  9  1  0  0  0  0
  8 11  1  0  0  0  0
  8 13  1  0  0  0  0
  9 10  2  0  0  0  0
  9 17  1  0  0  0  0
 11 14  1  0  0  0  0
 11 15  1  0  0  0  0
 11 16  1  0  0  0  0
 17 18  1  0  0  0  0
 17 23  1  0  0  0  0
 18 19  1  0  0  0  0
 18 21  1  0  0  0  0
 18 24  1  0  0  0  0
 19 20  2  0  0  0  0
 19 28  1  0  0  0  0
 21 22  1  0  0  0  0
 21 25  1  0  0  0  0
 21 26  1  0  0  0  0
 22 27  1  0  0  0  0
 28 29  1  0  0  0  0
 28 33  1  0  0  0  0
 29 30  1  0  0  0  0
 29 32  1  0  0  0  0
 29 34  1  0  0  0  0
 30 31  2  0  0  0  0
 30 38  1  0  0  0  0
 32 35  1  0  0  0  0
 32 36  1  0  0  0  0
 32 37  1  0  0  0  0
 38 39  1  0  0  0  0
 38 40  1  0  0  0  0
 39 41  1  0  0  0  0
 39 42  1  0  0  0  0
 39 43  1  0  0  0  0
M  END
$$$$

  -OEChem-05262217303D

 43 42  0     1  0  0  0  0  0999 V2000
    3.7324   -2.1903    3.8058 C   0  0  0  0  0  0  0  0  0  0  0  0
    2.9719   -2.0207    4.7454 O   0  0  0  0  0  0  0  0  0  0  0  0
    4.8382   -3.2249    3.8990 C   0  0  0  0  0  0  0  0  0  0  0  0
    5.8093   -2.7497    3.7409 H   0  0  0  0  0  0  0  0  0  0  0  0
    4.8329   -3.6935    4.8873 H   0  0  0  0  0  0  0  0  0  0  0  0
    4.6908   -3.9988    3.1418 H   0  0  0  0  0  0  0  0  0  0  0  0
    3.5795   -1.4457    2.6552 N   0  0  0  0  0  0  0  0  0  0  0  0
    2.4505   -0.5408    2.4027 C   0  0  2  0  0  0  0  0  0  0  0  0
    2.1274   -0.4371    0.8972 C   0  0  0  0  0  0  0  0  0  0  0  0
    2.9062   -0.8851    0.0625 O   0  0  0  0  0  0  0  0  0  0  0  0
    2.7915    0.8377    2.9790 C   0  0  0  0  0  0  0  0  0  0  0  0
    4.1549   -1.6999    1.8529 H   0  0  0  0  0  0  0  0  0  0  0  0
    1.5541   -0.9284    2.8996 H   0  0  0  0  0  0  0  0  0  0  0  0
    3.6837    1.2452    2.4930 H   0  0  0  0  0  0  0  0  0  0  0  0
    1.9621    1.5352    2.8292 H   0  0  0  0  0  0  0  0  0  0  0  0
    2.9847    0.7618    4.0540 H   0  0  0  0  0  0  0  0  0  0  0  0
    0.9706    0.1904    0.4672 N   0  0  0  0  0  0  0  0  0  0  0  0
    0.3391   -0.1551   -0.8282 C   0  0  2  0  0  0  0  0  0  0  0  0
   -0.9334    0.6782   -1.0974 C   0  0  0  0  0  0  0  0  0  0  0  0
   -1.8015    0.2674   -1.8586 O   0  0  0  0  0  0  0  0  0  0  0  0
   -0.0244   -1.6565   -0.8532 C   0  0  0  0  0  0  0  0  0  0  0  0
   -1.0446   -1.9381    0.1146 O   0  0  0  0  0  0  0  0  0  0  0  0
    0.3173    0.3524    1.2307 H   0  0  0  0  0  0  0  0  0  0  0  0
    1.0464    0.0509   -1.6385 H   0  0  0  0  0  0  0  0  0  0  0  0
    0.8559   -2.2710   -0.6441 H   0  0  0  0  0  0  0  0  0  0  0  0
   -0.3772   -1.9393   -1.8507 H   0  0  0  0  0  0  0  0  0  0  0  0
   -1.9114   -1.6363   -0.2176 H   0  0  0  0  0  0  0  0  0  0  0  0
   -1.1752    1.8156   -0.3417 N   0  0  0  0  0  0  0  0  0  0  0  0
   -2.3825    2.6673   -0.3609 C   0  0  2  0  0  0  0  0  0  0  0  0
   -3.6487    1.9754    0.1938 C   0  0  0  0  0  0  0  0  0  0  0  0
   -4.1738    2.4091    1.2100 O   0  0  0  0  0  0  0  0  0  0  0  0
   -2.6335    3.2559   -1.7569 C   0  0  0  0  0  0  0  0  0  0  0  0
   -0.4007    2.1201    0.2415 H   0  0  0  0  0  0  0  0  0  0  0  0
   -2.1865    3.5138    0.3057 H   0  0  0  0  0  0  0  0  0  0  0  0
   -2.9375    2.4831   -2.4687 H   0  0  0  0  0  0  0  0  0  0  0  0
   -3.4308    4.0043   -1.7088 H   0  0  0  0  0  0  0  0  0  0  0  0
   -1.7273    3.7396   -2.1340 H   0  0  0  0  0  0  0  0  0  0  0  0
   -4.1676    0.8468   -0.4091 N   0  0  0  0  0  0  0  0  0  0  0  0
   -5.2957    0.0898    0.1161 C   0  0  0  0  0  0  0  0  0  0  0  0
   -3.6346    0.4751   -1.1991 H   0  0  0  0  0  0  0  0  0  0  0  0
   -5.5403   -0.7385   -0.5558 H   0  0  0  0  0  0  0  0  0  0  0  0
   -5.0546   -0.3217    1.1017 H   0  0  0  0  0  0  0  0  0  0  0  0
   -6.1782    0.7316    0.2075 H   0  0  0  0  0  0  0  0  0  0  0  0
  1  2  2  0  0  0  0
  1  3  1  0  0  0  0
  1  7  1  0  0  0  0
  3  4  1  0  0  0  0
  3  5  1  0  0  0  0
  3  6  1  0  0  0  0
  7  8  1  0  0  0  0
  7 12  1  0  0  0  0
  8  9  1  0  0  0  0
  8 11  1  0  0  0  0
  8 13  1  0  0  0  0
  9 10  2  0  0  0  0
  9 17  1  0  0  0  0
 11 14  1  0  0  0  0
 11 15  1  0  0  0  0
 11 16  1  0  0  0  0
 17 18  1  0  0  0  0
 17 23  1  0  0  0  0
 18 19  1  0  0  0  0
 18 21  1  0  0  0  0
 18 24  1  0  0  0  0
 19 20  2  0  0  0  0
 19 28  1  0  0  0  0
 21 22  1  0  0  0  0
 21 25  1  0  0  0  0
 21 26  1  0  0  0  0
 22 27  1  0  0  0  0
 28 29  1  0  0  0  0
 28 33  1  0  0  0  0
 29 30  1  0  0  0  0
 29 32  1  0  0  0  0
 29 34  1  0  0  0  0
 30 31  2  0  0  0  0
 30 38  1  0  0  0  0
 32 35  1  0  0  0  0
 32 36  1  0  0  0  0
 32 37  1  0  0  0  0
 38 39  1  0  0  0  0
 38 40  1  0  0  0  0
 39 41  1  0  0  0  0
 39 42  1  0  0  0  0
 39 43  1  0  0  0  0
M  END
$$$$

  -OEChem-05262217303D

 43 42  0     1  0  0  0  0  0999 V2000
    2.9736   -1.8662    4.0242 C   0  0  0  0  0  0  0  0  0  0  0  0
    2.0668   -1.6302    4.8065 O   0  0  0  0  0  0  0  0  0  0  0  0
    4.0765   -2.8338    4.4094 C   0  0  0  0  0  0  0  0  0  0  0  0
    5.0412   -2.3208    4.4017 H   0  0  0  0  0  0  0  0  0  0  0  0
    3.8966   -3.2315    5.4122 H   0  0  0  0  0  0  0  0  0  0  0  0
    4.1077   -3.6649    3.7008 H   0  0  0  0  0  0  0  0  0  0  0  0
    3.0031   -1.2564    2.7881 N   0  0  0  0  0  0  0  0  0  0  0  0
    1.9183   -0.4297    2.2431 C   0  0  2  0  0  0  0  0  0  0  0  0
    1.9014   -0.4748    0.6996 C   0  0  0  0  0  0  0  0  0  0  0  0
    2.7871   -1.0587    0.0815 O   0  0  0  0  0  0  0  0  0  0  0  0
    2.0956    1.0073    2.7460 C   0  0  0  0  0  0  0  0  0  0  0  0
    3.6992   -1.5887    2.1217 H   0  0  0  0  0  0  0  0  0  0  0  0
    0.9521   -0.8140    2.5893 H   0  0  0  0  0  0  0  0  0  0  0  0
    3.0405    1.4256    2.3852 H   0  0  0  0  0  0  0  0  0  0  0  0
    1.2740    1.6404    2.3979 H   0  0  0  0  0  0  0  0  0  0  0  0
    2.1002    1.0286    3.8403 H   0  0  0  0  0  0  0  0  0  0  0  0
    0.9193    0.1841   -0.0138 N   0  0  0  0  0  0  0  0  0  0  0  0
    0.5212   -0.2132   -1.3834 C   0  0  2  0  0  0  0  0  0  0  0  0
   -0.5942    0.7287   -1.8948 C   0  0  0  0  0  0  0  0  0  0  0  0
   -1.6192    0.2839   -2.4009 O   0  0  0  0  0  0  0  0  0  0  0  0
    0.0558   -1.6876   -1.4108 C   0  0  0  0  0  0  0  0  0  0  0  0
   -1.1493   -1.8521   -0.6539 O   0  0  0  0  0  0  0  0  0  0  0  0
    0.1531    0.5222    0.5807 H   0  0  0  0  0  0  0  0  0  0  0  0
    1.3810   -0.1107   -2.0526 H   0  0  0  0  0  0  0  0  0  0  0  0
    0.8318   -2.3470   -1.0113 H   0  0  0  0  0  0  0  0  0  0  0  0
   -0.1237   -1.9946   -2.4465 H   0  0  0  0  0  0  0  0  0  0  0  0
   -1.8593   -1.3335   -1.0850 H   0  0  0  0  0  0  0  0  0  0  0  0
   -0.5881    2.0302   -1.4146 N   0  0  0  0  0  0  0  0  0  0  0  0
   -1.7807    2.6455   -0.8056 C   0  0  2  0  0  0  0  0  0  0  0  0
   -2.2683    1.7781    0.3802 C   0  0  0  0  0  0  0  0  0  0  0  0
   -1.4375    1.4252    1.2137 O   0  0  0  0  0  0  0  0  0  0  0  0
   -2.8671    2.9841   -1.8411 C   0  0  0  0  0  0  0  0  0  0  0  0
    0.2836    2.2450   -0.9343 H   0  0  0  0  0  0  0  0  0  0  0  0
   -1.4682    3.6003   -0.3715 H   0  0  0  0  0  0  0  0  0  0  0  0
   -3.3430    2.0851   -2.2416 H   0  0  0  0  0  0  0  0  0  0  0  0
   -3.6425    3.6054   -1.3829 H   0  0  0  0  0  0  0  0  0  0  0  0
   -2.4285    3.5411   -2.6746 H   0  0  0  0  0  0  0  0  0  0  0  0
   -3.5611    1.2973    0.4653 N   0  0  0  0  0  0  0  0  0  0  0  0
   -3.9648    0.2889    1.4391 C   0  0  0  0  0  0  0  0  0  0  0  0
   -4.1606    1.4596   -0.3392 H   0  0  0  0  0  0  0  0  0  0  0  0
   -5.0298    0.0625    1.3294 H   0  0  0  0  0  0  0  0  0  0  0  0
   -3.3968   -0.6361    1.2918 H   0  0  0  0  0  0  0  0  0  0  0  0
   -3.7940    0.6480    2.4595 H   0  0  0  0  0  0  0  0  0  0  0  0
  1  2  2  0  0  0  0
  1  3  1  0  0  0  0
  1  7  1  0  0  0  0
  3  4  1  0  0  0  0
  3  5  1  0  0  0  0
  3  6  1  0  0  0  0
  7  8  1  0  0  0  0
  7 12  1  0  0  0  0
  8  9  1  0  0  0  0
  8 11  1  0  0  0  0
  8 13  1  0  0  0  0
  9 10  2  0  0  0  0
  9 17  1  0  0  0  0
 11 14  1  0  0  0  0
 11 15  1  0  0  0  0
 11 16  1  0  0  0  0
 17 18  1  0  0  0  0
 17 23  1  0  0  0  0
 18 19  1  0  0  0  0
 18 21  1  0  0  0  0
 18 24  1  0  0  0  0
 19 20  2  0  0  0  0
 19 28  1  0  0  0  0
 21 22  1  0  0  0  0
 21 25  1  0  0  0  0
 21 26  1  0  0  0  0
 22 27  1  0  0  0  0
 28 29  1  0  0  0  0
 28 33  1  0  0  0  0
 29 30  1  0  0  0  0
 29 32  1  0  0  0  0
 29 34  1  0  0  0  0
 30 31  2  0  0  0  0
 30 38  1  0  0  0  0
 32 35  1  0  0  0  0
 32 36  1  0  0  0  0
 32 37  1  0  0  0  0
 38 39  1  0  0  0  0
 38 40  1  0  0  0  0
 39 41  1  0  0  0  0
 39 42  1  0  0  0  0
 39 43  1  0  0  0  0
M  END
$$$$

  -OEChem-05262217303D

 43 42  0     1  0  0  0  0  0999 V2000
    3.0280   -1.7448    4.0745 C   0  0  0  0  0  0  0  0  0  0  0  0
    2.0871   -1.5481    4.8268 O   0  0  0  0  0  0  0  0  0  0  0  0
    4.1767   -2.6342    4.5117 C   0  0  0  0  0  0  0  0  0  0  0  0
    5.1057   -2.0594    4.5335 H   0  0  0  0  0  0  0  0  0  0  0  0
    3.9847   -3.0325    5.5120 H   0  0  0  0  0  0  0  0  0  0  0  0
    4.2888   -3.4689    3.8153 H   0  0  0  0  0  0  0  0  0  0  0  0
    3.0523   -1.1612    2.8259 N   0  0  0  0  0  0  0  0  0  0  0  0
    1.9293   -0.4202    2.2351 C   0  0  2  0  0  0  0  0  0  0  0  0
    1.9439   -0.5078    0.6937 C   0  0  0  0  0  0  0  0  0  0  0  0
    2.8866   -1.0295    0.1053 O   0  0  0  0  0  0  0  0  0  0  0  0
    2.0030    1.0392    2.6986 C   0  0  0  0  0  0  0  0  0  0  0  0
    3.7898   -1.4573    2.1875 H   0  0  0  0  0  0  0  0  0  0  0  0
    0.9824   -0.8562    2.5732 H   0  0  0  0  0  0  0  0  0  0  0  0
    2.9336    1.5035    2.3579 H   0  0  0  0  0  0  0  0  0  0  0  0
    1.1592    1.6118    2.3020 H   0  0  0  0  0  0  0  0  0  0  0  0
    1.9657    1.0930    3.7912 H   0  0  0  0  0  0  0  0  0  0  0  0
    0.9212    0.0486   -0.0482 N   0  0  0  0  0  0  0  0  0  0  0  0
    0.5972   -0.3512   -1.4339 C   0  0  2  0  0  0  0  0  0  0  0  0
   -0.5979    0.4926   -1.9285 C   0  0  0  0  0  0  0  0  0  0  0  0
   -1.6540   -0.0232   -2.2803 O   0  0  0  0  0  0  0  0  0  0  0  0
    0.3015   -1.8667   -1.5200 C   0  0  0  0  0  0  0  0  0  0  0  0
   -0.8902   -2.1990   -0.7989 O   0  0  0  0  0  0  0  0  0  0  0  0
    0.1331    0.3904    0.5144 H   0  0  0  0  0  0  0  0  0  0  0  0
    1.4524   -0.1351   -2.0811 H   0  0  0  0  0  0  0  0  0  0  0  0
    1.1403   -2.4503   -1.1299 H   0  0  0  0  0  0  0  0  0  0  0  0
    0.1736   -2.1495   -2.5698 H   0  0  0  0  0  0  0  0  0  0  0  0
   -1.6371   -1.6935   -1.1851 H   0  0  0  0  0  0  0  0  0  0  0  0
   -0.5528    1.8525   -1.6609 N   0  0  0  0  0  0  0  0  0  0  0  0
   -1.7183    2.5882   -1.1363 C   0  0  2  0  0  0  0  0  0  0  0  0
   -2.2095    1.9621    0.1945 C   0  0  0  0  0  0  0  0  0  0  0  0
   -1.3753    1.5353    0.9905 O   0  0  0  0  0  0  0  0  0  0  0  0
   -2.8230    2.7581   -2.1940 C   0  0  0  0  0  0  0  0  0  0  0  0
    0.3388    2.1278   -1.2543 H   0  0  0  0  0  0  0  0  0  0  0  0
   -1.3770    3.5973   -0.8857 H   0  0  0  0  0  0  0  0  0  0  0  0
   -3.3559    1.8200   -2.3738 H   0  0  0  0  0  0  0  0  0  0  0  0
   -3.5501    3.5063   -1.8644 H   0  0  0  0  0  0  0  0  0  0  0  0
   -2.3886    3.0956   -3.1401 H   0  0  0  0  0  0  0  0  0  0  0  0
   -3.5517    1.8709    0.5125 N   0  0  0  0  0  0  0  0  0  0  0  0
   -4.0404    1.1712    1.6953 C   0  0  0  0  0  0  0  0  0  0  0  0
   -4.2136    2.0987   -0.2238 H   0  0  0  0  0  0  0  0  0  0  0  0
   -5.1257    1.2846    1.7799 H   0  0  0  0  0  0  0  0  0  0  0  0
   -3.8060    0.1031    1.6326 H   0  0  0  0  0  0  0  0  0  0  0  0
   -3.5820    1.5801    2.6022 H   0  0  0  0  0  0  0  0  0  0  0  0
  1  2  2  0  0  0  0
  1  3  1  0  0  0  0
  1  7  1  0  0  0  0
  3  4  1  0  0  0  0
  3  5  1  0  0  0  0
  3  6  1  0  0  0  0
  7  8  1  0  0  0  0
  7 12  1  0  0  0  0
  8  9  1  0  0  0  0
  8 11  1  0  0  0  0
  8 13  1  0  0  0  0
  9 10  2  0  0  0  0
  9 17  1  0  0  0  0
 11 14  1  0  0  0  0
 11 15  1  0  0  0  0
 11 16  1  0  0  0  0
 17 18  1  0  0  0  0
 17 23  1  0  0  0  0
 18 19  1  0  0  0  0
 18 21  1  0  0  0  0
 18 24  1  0  0  0  0
 19 20  2  0  0  0  0
 19 28  1  0  0  0  0
 21 22  1  0  0  0  0
 21 25  1  0  0  0  0
 21 26  1  0  0  0  0
 22 27  1  0  0  0  0
 28 29  1  0  0  0  0
 28 33  1  0  0  0  0
 29 30  1  0  0  0  0
 29 32  1  0  0  0  0
 29 34  1  0  0  0  0
 30 31  2  0  0  0  0
 30 38  1  0  0  0  0
 32 35  1  0  0  0  0
 32 36  1  0  0  0  0
 32 37  1  0  0  0  0
 38 39  1  0  0  0  0
 38 40  1  0  0  0  0
 39 41  1  0  0  0  0
 39 42  1  0  0  0  0
 39 43  1  0  0  0  0
M  END
$$$$

  -OEChem-05262217303D

 43 42  0     1  0  0  0  0  0999 V2000
    3.0782   -1.6185    4.1045 C   0  0  0  0  0  0  0  0  0  0  0  0
    2.1536   -1.3783    4.8647 O   0  0  0  0  0  0  0  0  0  0  0  0
    4.2217   -2.5078    4.5558 C   0  0  0  0  0  0  0  0  0  0  0  0
    5.1567   -1.9422    4.5550 H   0  0  0  0  0  0  0  0  0  0  0  0
    4.0341   -2.8791    5.5673 H   0  0  0  0  0  0  0  0  0  0  0  0
    4.3195   -3.3615    3.8806 H   0  0  0  0  0  0  0  0  0  0  0  0
    3.0863   -1.0879    2.8323 N   0  0  0  0  0  0  0  0  0  0  0  0
    1.9590   -0.3649    2.2282 C   0  0  2  0  0  0  0  0  0  0  0  0
    1.9435   -0.5315    0.6936 C   0  0  0  0  0  0  0  0  0  0  0  0
    2.8993   -1.0381    0.1131 O   0  0  0  0  0  0  0  0  0  0  0  0
    2.0611    1.1151    2.6131 C   0  0  0  0  0  0  0  0  0  0  0  0
    3.8084   -1.4195    2.1934 H   0  0  0  0  0  0  0  0  0  0  0  0
    1.0147   -0.7706    2.6083 H   0  0  0  0  0  0  0  0  0  0  0  0
    2.9910    1.5474    2.2301 H   0  0  0  0  0  0  0  0  0  0  0  0
    1.2170    1.6781    2.2031 H   0  0  0  0  0  0  0  0  0  0  0  0
    2.0470    1.2252    3.7021 H   0  0  0  0  0  0  0  0  0  0  0  0
    0.8866   -0.0512   -0.0536 N   0  0  0  0  0  0  0  0  0  0  0  0
    0.5903   -0.4540   -1.4431 C   0  0  2  0  0  0  0  0  0  0  0  0
   -0.6632    0.3100   -1.9156 C   0  0  0  0  0  0  0  0  0  0  0  0
   -1.7490   -0.2419   -2.0656 O   0  0  0  0  0  0  0  0  0  0  0  0
    0.4084   -1.9861   -1.5601 C   0  0  0  0  0  0  0  0  0  0  0  0
   -0.7513   -2.4315   -0.8473 O   0  0  0  0  0  0  0  0  0  0  0  0
    0.1089    0.3432    0.4877 H   0  0  0  0  0  0  0  0  0  0  0  0
    1.4268   -0.1663   -2.0867 H   0  0  0  0  0  0  0  0  0  0  0  0
    1.2914   -2.5144   -1.1896 H   0  0  0  0  0  0  0  0  0  0  0  0
    0.2954   -2.2491   -2.6168 H   0  0  0  0  0  0  0  0  0  0  0  0
   -1.5276   -1.9187   -1.1638 H   0  0  0  0  0  0  0  0  0  0  0  0
   -0.5859    1.6938   -1.9169 N   0  0  0  0  0  0  0  0  0  0  0  0
   -1.7069    2.5313   -1.4498 C   0  0  2  0  0  0  0  0  0  0  0  0
   -2.1482    2.1386   -0.0140 C   0  0  0  0  0  0  0  0  0  0  0  0
   -1.3014    1.7477    0.7878 O   0  0  0  0  0  0  0  0  0  0  0  0
   -2.8601    2.5554   -2.4682 C   0  0  0  0  0  0  0  0  0  0  0  0
    0.3361    2.0279   -1.6465 H   0  0  0  0  0  0  0  0  0  0  0  0
   -1.3364    3.5585   -1.3791 H   0  0  0  0  0  0  0  0  0  0  0  0
   -3.4077    1.6085   -2.4767 H   0  0  0  0  0  0  0  0  0  0  0  0
   -3.5651    3.3561   -2.2249 H   0  0  0  0  0  0  0  0  0  0  0  0
   -2.4693    2.7375   -3.4741 H   0  0  0  0  0  0  0  0  0  0  0  0
   -3.4628    2.2510    0.3996 N   0  0  0  0  0  0  0  0  0  0  0  0
   -3.9243    1.8109    1.7109 C   0  0  0  0  0  0  0  0  0  0  0  0
   -4.1551    2.4544   -0.3156 H   0  0  0  0  0  0  0  0  0  0  0  0
   -4.9923    2.0199    1.8248 H   0  0  0  0  0  0  0  0  0  0  0  0
   -3.7667    0.7338    1.8314 H   0  0  0  0  0  0  0  0  0  0  0  0
   -3.3847    2.3375    2.5053 H   0  0  0  0  0  0  0  0  0  0  0  0
  1  2  2  0  0  0  0
  1  3  1  0  0  0  0
  1  7  1  0  0  0  0
  3  4  1  0  0  0  0
  3  5  1  0  0  0  0
  3  6  1  0  0  0  0
  7  8  1  0  0  0  0
  7 12  1  0  0  0  0
  8  9  1  0  0  0  0
  8 11  1  0  0  0  0
  8 13  1  0  0  0  0
  9 10  2  0  0  0  0
  9 17  1  0  0  0  0
 11 14  1  0  0  0  0
 11 15  1  0  0  0  0
 11 16  1  0  0  0  0
 17 18  1  0  0  0  0
 17 23  1  0  0  0  0
 18 19  1  0  0  0  0
 18 21  1  0  0  0  0
 18 24  1  0  0  0  0
 19 20  2  0  0  0  0
 19 28  1  0  0  0  0
 21 22  1  0  0  0  0
 21 25  1  0  0  0  0
 21 26  1  0  0  0  0
 22 27  1  0  0  0  0
 28 29  1  0  0  0  0
 28 33  1  0  0  0  0
 29 30  1  0  0  0  0
 29 32  1  0  0  0  0
 29 34  1  0  0  0  0
 30 31  2  0  0  0  0
 30 38  1  0  0  0  0
 32 35  1  0  0  0  0
 32 36  1  0  0  0  0
 32 37  1  0  0  0  0
 38 39  1  0  0  0  0
 38 40  1  0  0  0  0
 39 41  1  0  0  0  0
 39 42  1  0  0  0  0
 39 43  1  0  0  0  0
M  END
$$$$

  -OEChem-05262217303D

 43 42  0     1  0  0  0  0  0999 V2000
    3.1113   -1.5087    4.1184 C   0  0  0  0  0  0  0  0  0  0  0  0
    2.1808   -1.2713    4.8722 O   0  0  0  0  0  0  0  0  0  0  0  0
    4.2914   -2.3292    4.6039 C   0  0  0  0  0  0  0  0  0  0  0  0
    5.2053   -1.7324    4.5545 H   0  0  0  0  0  0  0  0  0  0  0  0
    4.1316   -2.6447    5.6387 H   0  0  0  0  0  0  0  0  0  0  0  0
    4.4098   -3.2178    3.9792 H   0  0  0  0  0  0  0  0  0  0  0  0
    3.0953   -1.0322    2.8249 N   0  0  0  0  0  0  0  0  0  0  0  0
    1.9437   -0.3669    2.2006 C   0  0  2  0  0  0  0  0  0  0  0  0
    1.9212   -0.5919    0.6733 C   0  0  0  0  0  0  0  0  0  0  0  0
    2.8913   -1.0817    0.1024 O   0  0  0  0  0  0  0  0  0  0  0  0
    2.0049    1.1296    2.5268 C   0  0  0  0  0  0  0  0  0  0  0  0
    3.8287   -1.3591    2.1968 H   0  0  0  0  0  0  0  0  0  0  0  0
    1.0145   -0.7847    2.6038 H   0  0  0  0  0  0  0  0  0  0  0  0
    2.9191    1.5725    2.1195 H   0  0  0  0  0  0  0  0  0  0  0  0
    1.1428    1.6525    2.1015 H   0  0  0  0  0  0  0  0  0  0  0  0
    1.9949    1.2830    3.6105 H   0  0  0  0  0  0  0  0  0  0  0  0
    0.8432   -0.1693   -0.0782 N   0  0  0  0  0  0  0  0  0  0  0  0
    0.5754   -0.5427   -1.4796 C   0  0  2  0  0  0  0  0  0  0  0  0
   -0.7253    0.1549   -1.9230 C   0  0  0  0  0  0  0  0  0  0  0  0
   -1.8184   -0.3988   -1.8507 O   0  0  0  0  0  0  0  0  0  0  0  0
    0.4916   -2.0778   -1.6573 C   0  0  0  0  0  0  0  0  0  0  0  0
   -0.6361   -2.6292   -0.9682 O   0  0  0  0  0  0  0  0  0  0  0  0
    0.0773    0.2715    0.4416 H   0  0  0  0  0  0  0  0  0  0  0  0
    1.3934   -0.1805   -2.1091 H   0  0  0  0  0  0  0  0  0  0  0  0
    1.4072   -2.5643   -1.3096 H   0  0  0  0  0  0  0  0  0  0  0  0
    0.3935   -2.3032   -2.7241 H   0  0  0  0  0  0  0  0  0  0  0  0
   -1.4325   -2.0960   -1.1907 H   0  0  0  0  0  0  0  0  0  0  0  0
   -0.6560    1.5142   -2.1835 N   0  0  0  0  0  0  0  0  0  0  0  0
   -1.7330    2.4302   -1.7609 C   0  0  2  0  0  0  0  0  0  0  0  0
   -2.0580    2.2834   -0.2483 C   0  0  0  0  0  0  0  0  0  0  0  0
   -1.1693    1.9509    0.5342 O   0  0  0  0  0  0  0  0  0  0  0  0
   -2.9665    2.3004   -2.6717 C   0  0  0  0  0  0  0  0  0  0  0  0
    0.2843    1.8853   -2.0744 H   0  0  0  0  0  0  0  0  0  0  0  0
   -1.3591    3.4504   -1.8887 H   0  0  0  0  0  0  0  0  0  0  0  0
   -3.5109    1.3714   -2.4779 H   0  0  0  0  0  0  0  0  0  0  0  0
   -3.6505    3.1387   -2.5084 H   0  0  0  0  0  0  0  0  0  0  0  0
   -2.6609    2.3092   -3.7226 H   0  0  0  0  0  0  0  0  0  0  0  0
   -3.3122    2.5760    0.2549 N   0  0  0  0  0  0  0  0  0  0  0  0
   -3.6697    2.3952    1.6570 C   0  0  0  0  0  0  0  0  0  0  0  0
   -4.0534    2.7443   -0.4188 H   0  0  0  0  0  0  0  0  0  0  0  0
   -4.7060    2.7030    1.8253 H   0  0  0  0  0  0  0  0  0  0  0  0
   -3.5691    1.3440    1.9468 H   0  0  0  0  0  0  0  0  0  0  0  0
   -3.0221    3.0013    2.2992 H   0  0  0  0  0  0  0  0  0  0  0  0
  1  2  2  0  0  0  0
  1  3  1  0  0  0  0
  1  7  1  0  0  0  0
  3  4  1  0  0  0  0
  3  5  1  0  0  0  0
  3  6  1  0  0  0  0
  7  8  1  0  0  0  0
  7 12  1  0  0  0  0
  8  9  1  0  0  0  0
  8 11  1  0  0  0  0
  8 13  1  0  0  0  0
  9 10  2  0  0  0  0
  9 17  1  0  0  0  0
 11 14  1  0  0  0  0
 11 15  1  0  0  0  0
 11 16  1  0  0  0  0
 17 18  1  0  0  0  0
 17 23  1  0  0  0  0
 18 19  1  0  0  0  0
 18 21  1  0  0  0  0
 18 24  1  0  0  0  0
 19 20  2  0  0  0  0
 19 28  1  0  0  0  0
 21 22  1  0  0  0  0
 21 25  1  0  0  0  0
 21 26  1  0  0  0  0
 22 27  1  0  0  0  0
 28 29  1  0  0  0  0
 28 33  1  0  0  0  0
 29 30  1  0  0  0  0
 29 32  1  0  0  0  0
 29 34  1  0  0  0  0
 30 31  2  0  0  0  0
 30 38  1  0  0  0  0
 32 35  1  0  0  0  0
 32 36  1  0  0  0  0
 32 37  1  0  0  0  0
 38 39  1  0  0  0  0
 38 40  1  0  0  0  0
 39 41  1  0  0  0  0
 39 42  1  0  0  0  0
 39 43  1  0  0  0  0
M  END
$$$$

  -OEChem-05262217303D

 43 42  0     1  0  0  0  0  0999 V2000
    3.5013   -1.7540    4.0330 C   0  0  0  0  0  0  0  0  0  0  0  0
    2.6398   -1.5635    4.8766 O   0  0  0  0  0  0  0  0  0  0  0  0
    4.6818   -2.6555    4.3411 C   0  0  0  0  0  0  0  0  0  0  0  0
    5.6088   -2.0778    4.3137 H   0  0  0  0  0  0  0  0  0  0  0  0
    4.5701   -3.0963    5.3356 H   0  0  0  0  0  0  0  0  0  0  0  0
    4.7393   -3.4604    3.6042 H   0  0  0  0  0  0  0  0  0  0  0  0
    3.4027   -1.1544    2.7955 N   0  0  0  0  0  0  0  0  0  0  0  0
    2.2301   -0.4015    2.3306 C   0  0  2  0  0  0  0  0  0  0  0  0
    2.0581   -0.5111    0.8006 C   0  0  0  0  0  0  0  0  0  0  0  0
    2.9603   -0.9707    0.1067 O   0  0  0  0  0  0  0  0  0  0  0  0
    2.3916    1.0613    2.7563 C   0  0  0  0  0  0  0  0  0  0  0  0
    4.0756   -1.4378    2.0841 H   0  0  0  0  0  0  0  0  0  0  0  0
    1.3238   -0.8125    2.7890 H   0  0  0  0  0  0  0  0  0  0  0  0
    3.2911    1.4936    2.3066 H   0  0  0  0  0  0  0  0  0  0  0  0
    1.5255    1.6524    2.4435 H   0  0  0  0  0  0  0  0  0  0  0  0
    2.4787    1.1306    3.8454 H   0  0  0  0  0  0  0  0  0  0  0  0
    0.9108   -0.0481    0.1837 N   0  0  0  0  0  0  0  0  0  0  0  0
    0.4836   -0.4665   -1.1645 C   0  0  2  0  0  0  0  0  0  0  0  0
   -0.8312    0.2377   -1.5564 C   0  0  0  0  0  0  0  0  0  0  0  0
   -1.9214   -0.2026   -1.2023 O   0  0  0  0  0  0  0  0  0  0  0  0
    0.3292   -2.0039   -1.2531 C   0  0  0  0  0  0  0  0  0  0  0  0
   -0.7383   -2.4731   -0.4211 O   0  0  0  0  0  0  0  0  0  0  0  0
    0.1719    0.2535    0.8174 H   0  0  0  0  0  0  0  0  0  0  0  0
    1.2531   -0.1707   -1.8840 H   0  0  0  0  0  0  0  0  0  0  0  0
    1.2581   -2.5118   -0.9780 H   0  0  0  0  0  0  0  0  0  0  0  0
    0.1100   -2.2752   -2.2910 H   0  0  0  0  0  0  0  0  0  0  0  0
   -1.5336   -1.9147   -0.5758 H   0  0  0  0  0  0  0  0  0  0  0  0
   -0.7621    1.4571   -2.2099 N   0  0  0  0  0  0  0  0  0  0  0  0
   -1.8732    2.4255   -2.2413 C   0  0  2  0  0  0  0  0  0  0  0  0
   -2.3350    2.8148   -0.8138 C   0  0  0  0  0  0  0  0  0  0  0  0
   -1.4927    3.1840   -0.0029 O   0  0  0  0  0  0  0  0  0  0  0  0
   -3.0081    1.9321   -3.1557 C   0  0  0  0  0  0  0  0  0  0  0  0
    0.1746    1.8490   -2.2668 H   0  0  0  0  0  0  0  0  0  0  0  0
   -1.4922    3.3484   -2.6896 H   0  0  0  0  0  0  0  0  0  0  0  0
   -3.5106    1.0561   -2.7359 H   0  0  0  0  0  0  0  0  0  0  0  0
   -3.7520    2.7225   -3.2950 H   0  0  0  0  0  0  0  0  0  0  0  0
   -2.6083    1.6614   -4.1377 H   0  0  0  0  0  0  0  0  0  0  0  0
   -3.6610    2.7444   -0.4256 N   0  0  0  0  0  0  0  0  0  0  0  0
   -4.0938    2.9669    0.9488 C   0  0  0  0  0  0  0  0  0  0  0  0
   -4.2884    2.2528   -1.0554 H   0  0  0  0  0  0  0  0  0  0  0  0
   -5.1828    2.8879    1.0204 H   0  0  0  0  0  0  0  0  0  0  0  0
   -3.6466    2.2219    1.6151 H   0  0  0  0  0  0  0  0  0  0  0  0
   -3.7990    3.9657    1.2878 H   0  0  0  0  0  0  0  0  0  0  0  0
  1  2  2  0  0  0  0
  1  3  1  0  0  0  0
  1  7  1  0  0  0  0
  3  4  1  0  0  0  0
  3  5  1  0  0  0  0
  3  6  1  0  0  0  0
  7  8  1  0  0  0  0
  7 12  1  0  0  0  0
  8  9  1  0  0  0  0
  8 11  1  0  0  0  0
  8 13  1  0  0  0  0
  9 10  2  0  0  0  0
  9 17  1  0  0  0  0
 11 14  1  0  0  0  0
 11 15  1  0  0  0  0
 11 16  1  0  0  0  0
 17 18  1  0  0  0  0
 17 23  1  0  0  0  0
 18 19  1  0  0  0  0
 18 21  1  0  0  0  0
 18 24  1  0  0  0  0
 19 20  2  0  0  0  0
 19 28  1  0  0  0  0
 21 22  1  0  0  0  0
 21 25  1  0  0  0  0
 21 26  1  0  0  0  0
 22 27  1  0  0  0  0
 28 29  1  0  0  0  0
 28 33  1  0  0  0  0
 29 30  1  0  0  0  0
 29 32  1  0  0  0  0
 29 34  1  0  0  0  0
 30 31  2  0  0  0  0
 30 38  1  0  0  0  0
 32 35  1  0  0  0  0
 32 36  1  0  0  0  0
 32 37  1  0  0  0  0
 38 39  1  0  0  0  0
 38 40  1  0  0  0  0
 39 41  1  0  0  0  0
 39 42  1  0  0  0  0
 39 43  1  0  0  0  0
M  END
$$$$

  -OEChem-05262217303D

 43 42  0     1  0  0  0  0  0999 V2000
    3.5043   -1.8315    4.0100 C   0  0  0  0  0  0  0  0  0  0  0  0
    2.6433   -1.6985    4.8650 O   0  0  0  0  0  0  0  0  0  0  0  0
    4.7213   -2.6950    4.2811 C   0  0  0  0  0  0  0  0  0  0  0  0
    5.6318   -2.1024    4.1658 H   0  0  0  0  0  0  0  0  0  0  0  0
    4.6840   -3.0888    5.3006 H   0  0  0  0  0  0  0  0  0  0  0  0
    4.7480   -3.5325    3.5800 H   0  0  0  0  0  0  0  0  0  0  0  0
    3.3699   -1.1990    2.7924 N   0  0  0  0  0  0  0  0  0  0  0  0
    2.1712   -0.4625    2.3719 C   0  0  2  0  0  0  0  0  0  0  0  0
    1.9879   -0.4993    0.8400 C   0  0  0  0  0  0  0  0  0  0  0  0
    2.8903   -0.9046    0.1141 O   0  0  0  0  0  0  0  0  0  0  0  0
    2.2902    0.9829    2.8687 C   0  0  0  0  0  0  0  0  0  0  0  0
    4.0472   -1.4300    2.0663 H   0  0  0  0  0  0  0  0  0  0  0  0
    1.2833   -0.9260    2.8162 H   0  0  0  0  0  0  0  0  0  0  0  0
    3.1670    1.4679    2.4279 H   0  0  0  0  0  0  0  0  0  0  0  0
    1.3999    1.5588    2.5994 H   0  0  0  0  0  0  0  0  0  0  0  0
    2.3930    1.0025    3.9584 H   0  0  0  0  0  0  0  0  0  0  0  0
    0.8308   -0.0147    0.2585 N   0  0  0  0  0  0  0  0  0  0  0  0
    0.4002   -0.3799   -1.1038 C   0  0  2  0  0  0  0  0  0  0  0  0
   -0.9213    0.3193   -1.4782 C   0  0  0  0  0  0  0  0  0  0  0  0
   -1.9690    0.0020   -0.9223 O   0  0  0  0  0  0  0  0  0  0  0  0
    0.2388   -1.9106   -1.2495 C   0  0  0  0  0  0  0  0  0  0  0  0
   -0.8309   -2.4030   -0.4326 O   0  0  0  0  0  0  0  0  0  0  0  0
    0.0843    0.1937    0.9188 H   0  0  0  0  0  0  0  0  0  0  0  0
    1.1715   -0.0576   -1.8103 H   0  0  0  0  0  0  0  0  0  0  0  0
    1.1652   -2.4326   -0.9934 H   0  0  0  0  0  0  0  0  0  0  0  0
    0.0183   -2.1438   -2.2966 H   0  0  0  0  0  0  0  0  0  0  0  0
   -1.6168   -1.8206   -0.5271 H   0  0  0  0  0  0  0  0  0  0  0  0
   -0.8988    1.3916   -2.3552 N   0  0  0  0  0  0  0  0  0  0  0  0
   -2.0332    2.2628   -2.7288 C   0  0  2  0  0  0  0  0  0  0  0  0
   -2.5688    3.1410   -1.5738 C   0  0  0  0  0  0  0  0  0  0  0  0
   -2.5374    4.3591   -1.6811 O   0  0  0  0  0  0  0  0  0  0  0  0
   -3.1655    1.4622   -3.3887 C   0  0  0  0  0  0  0  0  0  0  0  0
    0.0223    1.6775   -2.6782 H   0  0  0  0  0  0  0  0  0  0  0  0
   -1.6606    2.9587   -3.4881 H   0  0  0  0  0  0  0  0  0  0  0  0
   -3.6636    0.8050   -2.6702 H   0  0  0  0  0  0  0  0  0  0  0  0
   -3.9155    2.1454   -3.8003 H   0  0  0  0  0  0  0  0  0  0  0  0
   -2.7717    0.8501   -4.2057 H   0  0  0  0  0  0  0  0  0  0  0  0
   -3.0454    2.5767   -0.4070 N   0  0  0  0  0  0  0  0  0  0  0  0
   -3.5022    3.3434    0.7437 C   0  0  0  0  0  0  0  0  0  0  0  0
   -2.9837    1.5581   -0.3399 H   0  0  0  0  0  0  0  0  0  0  0  0
   -3.8498    2.6686    1.5318 H   0  0  0  0  0  0  0  0  0  0  0  0
   -2.6874    3.9548    1.1450 H   0  0  0  0  0  0  0  0  0  0  0  0
   -4.3315    4.0002    0.4614 H   0  0  0  0  0  0  0  0  0  0  0  0
  1  2  2  0  0  0  0
  1  3  1  0  0  0  0
  1  7  1  0  0  0  0
  3  4  1  0  0  0  0
  3  5  1  0  0  0  0
  3  6  1  0  0  0  0
  7  8  1  0  0  0  0
  7 12  1  0  0  0  0
  8  9  1  0  0  0  0
  8 11  1  0  0  0  0
  8 13  1  0  0  0  0
  9 10  2  0  0  0  0
  9 17  1  0  0  0  0
 11 14  1  0  0  0  0
 11 15  1  0  0  0  0
 11 16  1  0  0  0  0
 17 18  1  0  0  0  0
 17 23  1  0  0  0  0
 18 19  1  0  0  0  0
 18 21  1  0  0  0  0
 18 24  1  0  0  0  0
 19 20  2  0  0  0  0
 19 28  1  0  0  0  0
 21 22  1  0  0  0  0
 21 25  1  0  0  0  0
 21 26  1  0  0  0  0
 22 27  1  0  0  0  0
 28 29  1  0  0  0  0
 28 33  1  0  0  0  0
 29 30  1  0  0  0  0
 29 32  1  0  0  0  0
 29 34  1  0  0  0  0
 30 31  2  0  0  0  0
 30 38  1  0  0  0  0
 32 35  1  0  0  0  0
 32 36  1  0  0  0  0
 32 37  1  0  0  0  0
 38 39  1  0  0  0  0
 38 40  1  0  0  0  0
 39 41  1  0  0  0  0
 39 42  1  0  0  0  0
 39 43  1  0  0  0  0
M  END
$$$$

  -OEChem-05262217303D

 43 42  0     1  0  0  0  0  0999 V2000
    3.5534   -1.8219    4.0013 C   0  0  0  0  0  0  0  0  0  0  0  0
    2.6990   -1.6908    4.8632 O   0  0  0  0  0  0  0  0  0  0  0  0
    4.7843   -2.6663    4.2707 C   0  0  0  0  0  0  0  0  0  0  0  0
    5.6852   -2.0572    4.1639 H   0  0  0  0  0  0  0  0  0  0  0  0
    4.7497   -3.0689    5.2870 H   0  0  0  0  0  0  0  0  0  0  0  0
    4.8286   -3.4980    3.5636 H   0  0  0  0  0  0  0  0  0  0  0  0
    3.4007   -1.2000    2.7804 N   0  0  0  0  0  0  0  0  0  0  0  0
    2.1984   -0.4636    2.3709 C   0  0  2  0  0  0  0  0  0  0  0  0
    2.0031   -0.4957    0.8407 C   0  0  0  0  0  0  0  0  0  0  0  0
    2.8993   -0.8990    0.1057 O   0  0  0  0  0  0  0  0  0  0  0  0
    2.3214    0.9806    2.8686 C   0  0  0  0  0  0  0  0  0  0  0  0
    4.0774   -1.4212    2.0509 H   0  0  0  0  0  0  0  0  0  0  0  0
    1.3137   -0.9282    2.8205 H   0  0  0  0  0  0  0  0  0  0  0  0
    3.2014    1.4622    2.4304 H   0  0  0  0  0  0  0  0  0  0  0  0
    1.4344    1.5606    2.5970 H   0  0  0  0  0  0  0  0  0  0  0  0
    2.4213    0.9986    3.9586 H   0  0  0  0  0  0  0  0  0  0  0  0
    0.8349   -0.0223    0.2726 N   0  0  0  0  0  0  0  0  0  0  0  0
    0.3964   -0.3826   -1.0878 C   0  0  2  0  0  0  0  0  0  0  0  0
   -0.9360    0.2955   -1.4557 C   0  0  0  0  0  0  0  0  0  0  0  0
   -1.9211    0.1171   -0.7450 O   0  0  0  0  0  0  0  0  0  0  0  0
    0.2279   -1.9110   -1.2271 C   0  0  0  0  0  0  0  0  0  0  0  0
   -0.8417   -2.3907   -0.4008 O   0  0  0  0  0  0  0  0  0  0  0  0
    0.0914    0.1848    0.9371 H   0  0  0  0  0  0  0  0  0  0  0  0
    1.1617   -0.0551   -1.7979 H   0  0  0  0  0  0  0  0  0  0  0  0
    1.1532   -2.4367   -0.9732 H   0  0  0  0  0  0  0  0  0  0  0  0
    0.0002   -2.1470   -2.2716 H   0  0  0  0  0  0  0  0  0  0  0  0
   -1.6082   -1.7790   -0.4459 H   0  0  0  0  0  0  0  0  0  0  0  0
   -1.0035    1.1513   -2.5432 N   0  0  0  0  0  0  0  0  0  0  0  0
   -2.1773    1.9288   -2.9930 C   0  0  2  0  0  0  0  0  0  0  0  0
   -2.6267    3.0388   -2.0144 C   0  0  0  0  0  0  0  0  0  0  0  0
   -2.6289    4.2035   -2.3886 O   0  0  0  0  0  0  0  0  0  0  0  0
   -3.3497    1.0082   -3.3616 C   0  0  0  0  0  0  0  0  0  0  0  0
   -0.1272    1.3228   -3.0298 H   0  0  0  0  0  0  0  0  0  0  0  0
   -1.8818    2.4433   -3.9135 H   0  0  0  0  0  0  0  0  0  0  0  0
   -3.7722    0.5238   -2.4766 H   0  0  0  0  0  0  0  0  0  0  0  0
   -4.1435    1.5894   -3.8419 H   0  0  0  0  0  0  0  0  0  0  0  0
   -3.0195    0.2326   -4.0593 H   0  0  0  0  0  0  0  0  0  0  0  0
   -3.0033    2.7433   -0.7192 N   0  0  0  0  0  0  0  0  0  0  0  0
   -3.3857    3.7442    0.2675 C   0  0  0  0  0  0  0  0  0  0  0  0
   -2.9108    1.7656   -0.4341 H   0  0  0  0  0  0  0  0  0  0  0  0
   -3.6754    3.2583    1.2042 H   0  0  0  0  0  0  0  0  0  0  0  0
   -2.5492    4.4205    0.4710 H   0  0  0  0  0  0  0  0  0  0  0  0
   -4.2358    4.3330   -0.0926 H   0  0  0  0  0  0  0  0  0  0  0  0
  1  2  2  0  0  0  0
  1  3  1  0  0  0  0
  1  7  1  0  0  0  0
  3  4  1  0  0  0  0
  3  5  1  0  0  0  0
  3  6  1  0  0  0  0
  7  8  1  0  0  0  0
  7 12  1  0  0  0  0
  8  9  1  0  0  0  0
  8 11  1  0  0  0  0
  8 13  1  0  0  0  0
  9 10  2  0  0  0  0
  9 17  1  0  0  0  0
 11 14  1  0  0  0  0
 11 15  1  0  0  0  0
 11 16  1  0  0  0  0
 17 18  1  0  0  0  0
 17 23  1  0  0  0  0
 18 19  1  0  0  0  0
 18 21  1  0  0  0  0
 18 24  1  0  0  0  0
 19 20  2  0  0  0  0
 19 28  1  0  0  0  0
 21 22  1  0  0  0  0
 21 25  1  0  0  0  0
 21 26  1  0  0  0  0
 22 27  1  0  0  0  0
 28 29  1  0  0  0  0
 28 33  1  0  0  0  0
 29 30  1  0  0  0  0
 29 32  1  0  0  0  0
 29 34  1  0  0  0  0
 30 31  2  0  0  0  0
 30 38  1  0  0  0  0
 32 35  1  0  0  0  0
 32 36  1  0  0  0  0
 32 37  1  0  0  0  0
 38 39  1  0  0  0  0
 38 40  1  0  0  0  0
 39 41  1  0  0  0  0
 39 42  1  0  0  0  0
 39 43  1  0  0  0  0
M  END
$$$$

  -OEChem-05262217303D

 43 42  0     1  0  0  0  0  0999 V2000
    3.5865   -1.8061    3.9998 C   0  0  0  0  0  0  0  0  0  0  0  0
    2.7517   -1.6423    4.8754 O   0  0  0  0  0  0  0  0  0  0  0  0
    4.7998   -2.6798    4.2570 C   0  0  0  0  0  0  0  0  0  0  0  0
    5.7129   -2.0895    4.1480 H   0  0  0  0  0  0  0  0  0  0  0  0
    4.7628   -3.0881    5.2710 H   0  0  0  0  0  0  0  0  0  0  0  0
    4.8222   -3.5084    3.5448 H   0  0  0  0  0  0  0  0  0  0  0  0
    3.4290   -1.1953    2.7737 N   0  0  0  0  0  0  0  0  0  0  0  0
    2.2375   -0.4370    2.3720 C   0  0  2  0  0  0  0  0  0  0  0  0
    2.0151   -0.4924    0.8461 C   0  0  0  0  0  0  0  0  0  0  0  0
    2.8956   -0.9157    0.1035 O   0  0  0  0  0  0  0  0  0  0  0  0
    2.4032    1.0124    2.8409 C   0  0  0  0  0  0  0  0  0  0  0  0
    4.0852   -1.4468    2.0354 H   0  0  0  0  0  0  0  0  0  0  0  0
    1.3503   -0.8712    2.8458 H   0  0  0  0  0  0  0  0  0  0  0  0
    3.2793    1.4695    2.3697 H   0  0  0  0  0  0  0  0  0  0  0  0
    1.5195    1.6044    2.5848 H   0  0  0  0  0  0  0  0  0  0  0  0
    2.5349    1.0465    3.9270 H   0  0  0  0  0  0  0  0  0  0  0  0
    0.8400   -0.0242    0.2882 N   0  0  0  0  0  0  0  0  0  0  0  0
    0.3916   -0.3757   -1.0712 C   0  0  2  0  0  0  0  0  0  0  0  0
   -0.9466    0.2911   -1.4304 C   0  0  0  0  0  0  0  0  0  0  0  0
   -1.8652    0.2593   -0.6169 O   0  0  0  0  0  0  0  0  0  0  0  0
    0.2049   -1.9008   -1.2088 C   0  0  0  0  0  0  0  0  0  0  0  0
   -0.8681   -2.3644   -0.3760 O   0  0  0  0  0  0  0  0  0  0  0  0
    0.1035    0.2042    0.9540 H   0  0  0  0  0  0  0  0  0  0  0  0
    1.1517   -0.0463   -1.7862 H   0  0  0  0  0  0  0  0  0  0  0  0
    1.1248   -2.4379   -0.9589 H   0  0  0  0  0  0  0  0  0  0  0  0
   -0.0317   -2.1356   -2.2517 H   0  0  0  0  0  0  0  0  0  0  0  0
   -1.6141   -1.7282   -0.3819 H   0  0  0  0  0  0  0  0  0  0  0  0
   -1.1197    0.8959   -2.6648 N   0  0  0  0  0  0  0  0  0  0  0  0
   -2.3433    1.5550   -3.1679 C   0  0  2  0  0  0  0  0  0  0  0  0
   -2.7396    2.8414   -2.4071 C   0  0  0  0  0  0  0  0  0  0  0  0
   -2.7876    3.9043   -3.0105 O   0  0  0  0  0  0  0  0  0  0  0  0
   -3.5185    0.5692   -3.2376 C   0  0  0  0  0  0  0  0  0  0  0  0
   -0.2977    0.9346   -3.2625 H   0  0  0  0  0  0  0  0  0  0  0  0
   -2.1350    1.8674   -4.1967 H   0  0  0  0  0  0  0  0  0  0  0  0
   -3.8591    0.2797   -2.2393 H   0  0  0  0  0  0  0  0  0  0  0  0
   -4.3612    1.0303   -3.7626 H   0  0  0  0  0  0  0  0  0  0  0  0
   -3.2249   -0.3337   -3.7812 H   0  0  0  0  0  0  0  0  0  0  0  0
   -3.0170    2.8163   -1.0547 N   0  0  0  0  0  0  0  0  0  0  0  0
   -3.3285    3.9988   -0.2639 C   0  0  0  0  0  0  0  0  0  0  0  0
   -2.8687    1.9219   -0.5817 H   0  0  0  0  0  0  0  0  0  0  0  0
   -3.5811    3.7105    0.7612 H   0  0  0  0  0  0  0  0  0  0  0  0
   -2.4686    4.6757   -0.2340 H   0  0  0  0  0  0  0  0  0  0  0  0
   -4.1841    4.5324   -0.6910 H   0  0  0  0  0  0  0  0  0  0  0  0
  1  2  2  0  0  0  0
  1  3  1  0  0  0  0
  1  7  1  0  0  0  0
  3  4  1  0  0  0  0
  3  5  1  0  0  0  0
  3  6  1  0  0  0  0
  7  8  1  0  0  0  0
  7 12  1  0  0  0  0
  8  9  1  0  0  0  0
  8 11  1  0  0  0  0
  8 13  1  0  0  0  0
  9 10  2  0  0  0  0
  9 17  1  0  0  0  0
 11 14  1  0  0  0  0
 11 15  1  0  0  0  0
 11 16  1  0  0  0  0
 17 18  1  0  0  0  0
 17 23  1  0  0  0  0
 18 19  1  0  0  0  0
 18 21  1  0  0  0  0
 18 24  1  0  0  0  0
 19 20  2  0  0  0  0
 19 28  1  0  0  0  0
 21 22  1  0  0  0  0
 21 25  1  0  0  0  0
 21 26  1  0  0  0  0
 22 27  1  0  0  0  0
 28 29  1  0  0  0  0
 28 33  1  0  0  0  0
 29 30  1  0  0  0  0
 29 32  1  0  0  0  0
 29 34  1  0  0  0  0
 30 31  2  0  0  0  0
 30 38  1  0  0  0  0
 32 35  1  0  0  0  0
 32 36  1  0  0  0  0
 32 37  1  0  0  0  0
 38 39  1  0  0  0  0
 38 40  1  0  0  0  0
 39 41  1  0  0  0  0
 39 42  1  0  0  0  0
 39 43  1  0  0  0  0
M  END
$$$$

  -OEChem-05262217303D

 43 42  0     1  0  0  0  0  0999 V2000
    3.6069   -1.7828    3.9959 C   0  0  0  0  0  0  0  0  0  0  0  0
    2.7720   -1.6141    4.8704 O   0  0  0  0  0  0  0  0  0  0  0  0
    4.8222   -2.6503    4.2634 C   0  0  0  0  0  0  0  0  0  0  0  0
    5.7320   -2.0497    4.1926 H   0  0  0  0  0  0  0  0  0  0  0  0
    4.7621   -3.0815    5.2666 H   0  0  0  0  0  0  0  0  0  0  0  0
    4.8711   -3.4620    3.5336 H   0  0  0  0  0  0  0  0  0  0  0  0
    3.4455   -1.1822    2.7651 N   0  0  0  0  0  0  0  0  0  0  0  0
    2.2501   -0.4293    2.3630 C   0  0  2  0  0  0  0  0  0  0  0  0
    2.0177   -0.4950    0.8389 C   0  0  0  0  0  0  0  0  0  0  0  0
    2.8990   -0.9094    0.0922 O   0  0  0  0  0  0  0  0  0  0  0  0
    2.4139    1.0243    2.8199 C   0  0  0  0  0  0  0  0  0  0  0  0
    4.1004   -1.4369    2.0266 H   0  0  0  0  0  0  0  0  0  0  0  0
    1.3664   -0.8624    2.8444 H   0  0  0  0  0  0  0  0  0  0  0  0
    3.2862    1.4798    2.3406 H   0  0  0  0  0  0  0  0  0  0  0  0
    1.5273    1.6112    2.5621 H   0  0  0  0  0  0  0  0  0  0  0  0
    2.5503    1.0685    3.9053 H   0  0  0  0  0  0  0  0  0  0  0  0
    0.8307   -0.0482    0.2887 N   0  0  0  0  0  0  0  0  0  0  0  0
    0.3805   -0.3875   -1.0736 C   0  0  2  0  0  0  0  0  0  0  0  0
   -0.9739    0.2521   -1.4196 C   0  0  0  0  0  0  0  0  0  0  0  0
   -1.8121    0.3854   -0.5339 O   0  0  0  0  0  0  0  0  0  0  0  0
    0.2118   -1.9129   -1.2202 C   0  0  0  0  0  0  0  0  0  0  0  0
   -0.8527   -2.3954   -0.3853 O   0  0  0  0  0  0  0  0  0  0  0  0
    0.0948    0.1819    0.9554 H   0  0  0  0  0  0  0  0  0  0  0  0
    1.1303   -0.0362   -1.7891 H   0  0  0  0  0  0  0  0  0  0  0  0
    1.1390   -2.4385   -0.9743 H   0  0  0  0  0  0  0  0  0  0  0  0
   -0.0225   -2.1470   -2.2641 H   0  0  0  0  0  0  0  0  0  0  0  0
   -1.6163   -1.7843   -0.3895 H   0  0  0  0  0  0  0  0  0  0  0  0
   -1.2756    0.5914   -2.7287 N   0  0  0  0  0  0  0  0  0  0  0  0
   -2.5479    1.1493   -3.2350 C   0  0  2  0  0  0  0  0  0  0  0  0
   -2.8812    2.5705   -2.7246 C   0  0  0  0  0  0  0  0  0  0  0  0
   -3.0774    3.4666   -3.5337 O   0  0  0  0  0  0  0  0  0  0  0  0
   -3.7189    0.1882   -2.9844 C   0  0  0  0  0  0  0  0  0  0  0  0
   -0.5234    0.4795   -3.4040 H   0  0  0  0  0  0  0  0  0  0  0  0
   -2.4424    1.2399   -4.3214 H   0  0  0  0  0  0  0  0  0  0  0  0
   -3.9597    0.1203   -1.9197 H   0  0  0  0  0  0  0  0  0  0  0  0
   -4.6108    0.5416   -3.5118 H   0  0  0  0  0  0  0  0  0  0  0  0
   -3.4756   -0.8131   -3.3521 H   0  0  0  0  0  0  0  0  0  0  0  0
   -2.9519    2.8510   -1.3747 N   0  0  0  0  0  0  0  0  0  0  0  0
   -3.2333    4.1718   -0.8298 C   0  0  0  0  0  0  0  0  0  0  0  0
   -2.7381    2.0789   -0.7392 H   0  0  0  0  0  0  0  0  0  0  0  0
   -3.2655    4.1298    0.2631 H   0  0  0  0  0  0  0  0  0  0  0  0
   -2.4553    4.8826   -1.1270 H   0  0  0  0  0  0  0  0  0  0  0  0
   -4.2009    4.5360   -1.1904 H   0  0  0  0  0  0  0  0  0  0  0  0
  1  2  2  0  0  0  0
  1  3  1  0  0  0  0
  1  7  1  0  0  0  0
  3  4  1  0  0  0  0
  3  5  1  0  0  0  0
  3  6  1  0  0  0  0
  7  8  1  0  0  0  0
  7 12  1  0  0  0  0
  8  9  1  0  0  0  0
  8 11  1  0  0  0  0
  8 13  1  0  0  0  0
  9 10  2  0  0  0  0
  9 17  1  0  0  0  0
 11 14  1  0  0  0  0
 11 15  1  0  0  0  0
 11 16  1  0  0  0  0
 17 18  1  0  0  0  0
 17 23  1  0  0  0  0
 18 19  1  0  0  0  0
 18 21  1  0  0  0  0
 18 24  1  0  0  0  0
 19 20  2  0  0  0  0
 19 28  1  0  0  0  0
 21 22  1  0  0  0  0
 21 25  1  0  0  0  0
 21 26  1  0  0  0  0
 22 27  1  0  0  0  0
 28 29  1  0  0  0  0
 28 33  1  0  0  0  0
 29 30  1  0  0  0  0
 29 32  1  0  0  0  0
 29 34  1  0  0  0  0
 30 31  2  0  0  0  0
 30 38  1  0  0  0  0
 32 35  1  0  0  0  0
 32 36  1  0  0  0  0
 32 37  1  0  0  0  0
 38 39  1  0  0  0  0
 38 40  1  0  0  0  0
 39 41  1  0  0  0  0
 39 42  1  0  0  0  0
 39 43  1  0  0  0  0
M  END
$$$$

  -OEChem-05262217303D

 43 42  0     1  0  0  0  0  0999 V2000
    3.6014   -1.7671    3.9775 C   0  0  0  0  0  0  0  0  0  0  0  0
    2.7558   -1.6308    4.8475 O   0  0  0  0  0  0  0  0  0  0  0  0
    4.8138   -2.6445    4.2253 C   0  0  0  0  0  0  0  0  0  0  0  0
    5.7212   -2.0356    4.2230 H   0  0  0  0  0  0  0  0  0  0  0  0
    4.7256   -3.1432    5.1945 H   0  0  0  0  0  0  0  0  0  0  0  0
    4.8909   -3.4051    3.4445 H   0  0  0  0  0  0  0  0  0  0  0  0
    3.4546   -1.1260    2.7656 N   0  0  0  0  0  0  0  0  0  0  0  0
    2.2531   -0.3826    2.3644 C   0  0  2  0  0  0  0  0  0  0  0  0
    2.0225   -0.4529    0.8405 C   0  0  0  0  0  0  0  0  0  0  0  0
    2.9144   -0.8429    0.0932 O   0  0  0  0  0  0  0  0  0  0  0  0
    2.4060    1.0715    2.8213 C   0  0  0  0  0  0  0  0  0  0  0  0
    4.1170   -1.3616    2.0274 H   0  0  0  0  0  0  0  0  0  0  0  0
    1.3718   -0.8215    2.8453 H   0  0  0  0  0  0  0  0  0  0  0  0
    3.2781    1.5320    2.3463 H   0  0  0  0  0  0  0  0  0  0  0  0
    1.5172    1.6529    2.5587 H   0  0  0  0  0  0  0  0  0  0  0  0
    2.5364    1.1160    3.9074 H   0  0  0  0  0  0  0  0  0  0  0  0
    0.8174   -0.0540    0.2947 N   0  0  0  0  0  0  0  0  0  0  0  0
    0.3686   -0.3947   -1.0675 C   0  0  2  0  0  0  0  0  0  0  0  0
   -1.0148    0.1948   -1.3920 C   0  0  0  0  0  0  0  0  0  0  0  0
   -1.7490    0.5450   -0.4746 O   0  0  0  0  0  0  0  0  0  0  0  0
    0.2765   -1.9244   -1.2399 C   0  0  0  0  0  0  0  0  0  0  0  0
   -0.7495   -2.4842   -0.4050 O   0  0  0  0  0  0  0  0  0  0  0  0
    0.0829    0.1924    0.9574 H   0  0  0  0  0  0  0  0  0  0  0  0
    1.0919    0.0066   -1.7841 H   0  0  0  0  0  0  0  0  0  0  0  0
    1.2337   -2.4026   -1.0125 H   0  0  0  0  0  0  0  0  0  0  0  0
    0.0470   -2.1544   -2.2853 H   0  0  0  0  0  0  0  0  0  0  0  0
   -1.5856   -1.9867   -0.4670 H   0  0  0  0  0  0  0  0  0  0  0  0
   -1.4635    0.2505   -2.7024 N   0  0  0  0  0  0  0  0  0  0  0  0
   -2.7874    0.7130   -3.1720 C   0  0  2  0  0  0  0  0  0  0  0  0
   -3.0551    2.2213   -2.9612 C   0  0  0  0  0  0  0  0  0  0  0  0
   -3.3150    2.9241   -3.9281 O   0  0  0  0  0  0  0  0  0  0  0  0
   -3.9212   -0.1340   -2.5757 C   0  0  0  0  0  0  0  0  0  0  0  0
   -0.7942   -0.0266   -3.4164 H   0  0  0  0  0  0  0  0  0  0  0  0
   -2.8133    0.5519   -4.2551 H   0  0  0  0  0  0  0  0  0  0  0  0
   -4.0377    0.0512   -1.5040 H   0  0  0  0  0  0  0  0  0  0  0  0
   -4.8683    0.1129   -3.0661 H   0  0  0  0  0  0  0  0  0  0  0  0
   -3.7212   -1.1991   -2.7272 H   0  0  0  0  0  0  0  0  0  0  0  0
   -2.9889    2.7927   -1.7061 N   0  0  0  0  0  0  0  0  0  0  0  0
   -3.1680    4.2149   -1.4494 C   0  0  0  0  0  0  0  0  0  0  0  0
   -2.6962    2.1770   -0.9435 H   0  0  0  0  0  0  0  0  0  0  0  0
   -3.1391    4.4101   -0.3733 H   0  0  0  0  0  0  0  0  0  0  0  0
   -2.3720    4.7926   -1.9299 H   0  0  0  0  0  0  0  0  0  0  0  0
   -4.1343    4.5562   -1.8354 H   0  0  0  0  0  0  0  0  0  0  0  0
  1  2  2  0  0  0  0
  1  3  1  0  0  0  0
  1  7  1  0  0  0  0
  3  4  1  0  0  0  0
  3  5  1  0  0  0  0
  3  6  1  0  0  0  0
  7  8  1  0  0  0  0
  7 12  1  0  0  0  0
  8  9  1  0  0  0  0
  8 11  1  0  0  0  0
  8 13  1  0  0  0  0
  9 10  2  0  0  0  0
  9 17  1  0  0  0  0
 11 14  1  0  0  0  0
 11 15  1  0  0  0  0
 11 16  1  0  0  0  0
 17 18  1  0  0  0  0
 17 23  1  0  0  0  0
 18 19  1  0  0  0  0
 18 21  1  0  0  0  0
 18 24  1  0  0  0  0
 19 20  2  0  0  0  0
 19 28  1  0  0  0  0
 21 22  1  0  0  0  0
 21 25  1  0  0  0  0
 21 26  1  0  0  0  0
 22 27  1  0  0  0  0
 28 29  1  0  0  0  0
 28 33  1  0  0  0  0
 29 30  1  0  0  0  0
 29 32  1  0  0  0  0
 29 34  1  0  0  0  0
 30 31  2  0  0  0  0
 30 38  1  0  0  0  0
 32 35  1  0  0  0  0
 32 36  1  0  0  0  0
 32 37  1  0  0  0  0
 38 39  1  0  0  0  0
 38 40  1  0  0  0  0
 39 41  1  0  0  0  0
 39 42  1  0  0  0  0
 39 43  1  0  0  0  0
M  END
$$$$

  -OEChem-05262217303D

 43 42  0     1  0  0  0  0  0999 V2000
    3.6830   -1.5715    4.0438 C   0  0  0  0  0  0  0  0  0  0  0  0
    2.8893   -1.3318    4.9399 O   0  0  0  0  0  0  0  0  0  0  0  0
    4.9163   -2.4101    4.3217 C   0  0  0  0  0  0  0  0  0  0  0  0
    5.8176   -1.8329    4.1011 H   0  0  0  0  0  0  0  0  0  0  0  0
    4.9388   -2.7098    5.3732 H   0  0  0  0  0  0  0  0  0  0  0  0
    4.9052   -3.3082    3.6992 H   0  0  0  0  0  0  0  0  0  0  0  0
    3.4594   -1.0829    2.7743 N   0  0  0  0  0  0  0  0  0  0  0  0
    2.2406   -0.3757    2.3600 C   0  0  2  0  0  0  0  0  0  0  0  0
    1.9369   -0.5970    0.8634 C   0  0  0  0  0  0  0  0  0  0  0  0
    2.7772   -1.1028    0.1252 O   0  0  0  0  0  0  0  0  0  0  0  0
    2.4183    1.1168    2.6585 C   0  0  0  0  0  0  0  0  0  0  0  0
    4.0795   -1.4047    2.0320 H   0  0  0  0  0  0  0  0  0  0  0  0
    1.3834   -0.7581    2.9250 H   0  0  0  0  0  0  0  0  0  0  0  0
    3.2722    1.5193    2.1044 H   0  0  0  0  0  0  0  0  0  0  0  0
    1.5221    1.6759    2.3736 H   0  0  0  0  0  0  0  0  0  0  0  0
    2.5929    1.2715    3.7280 H   0  0  0  0  0  0  0  0  0  0  0  0
    0.7260   -0.2078    0.3244 N   0  0  0  0  0  0  0  0  0  0  0  0
    0.3033   -0.4816   -1.0599 C   0  0  2  0  0  0  0  0  0  0  0  0
   -0.9048    0.3705   -1.4926 C   0  0  0  0  0  0  0  0  0  0  0  0
   -1.4465    1.1142   -0.6826 O   0  0  0  0  0  0  0  0  0  0  0  0
   -0.0480   -1.9742   -1.2003 C   0  0  0  0  0  0  0  0  0  0  0  0
   -1.2014   -2.3199   -0.4182 O   0  0  0  0  0  0  0  0  0  0  0  0
    0.0310    0.1879    0.9560 H   0  0  0  0  0  0  0  0  0  0  0  0
    1.1312   -0.2452   -1.7362 H   0  0  0  0  0  0  0  0  0  0  0  0
    0.7997   -2.5901   -0.8829 H   0  0  0  0  0  0  0  0  0  0  0  0
   -0.2407   -2.2096   -2.2516 H   0  0  0  0  0  0  0  0  0  0  0  0
   -1.9755   -1.7742   -0.6437 H   0  0  0  0  0  0  0  0  0  0  0  0
   -1.4306    0.2392   -2.7692 N   0  0  0  0  0  0  0  0  0  0  0  0
   -2.6011    0.9461   -3.3315 C   0  0  2  0  0  0  0  0  0  0  0  0
   -2.4218    2.4742   -3.4870 C   0  0  0  0  0  0  0  0  0  0  0  0
   -2.5656    2.9844   -4.5895 O   0  0  0  0  0  0  0  0  0  0  0  0
   -3.8820    0.6189   -2.5510 C   0  0  0  0  0  0  0  0  0  0  0  0
   -0.9065   -0.3554   -3.4062 H   0  0  0  0  0  0  0  0  0  0  0  0
   -2.7456    0.5585   -4.3454 H   0  0  0  0  0  0  0  0  0  0  0  0
   -3.8661    1.0640   -1.5519 H   0  0  0  0  0  0  0  0  0  0  0  0
   -4.7535    1.0131   -3.0835 H   0  0  0  0  0  0  0  0  0  0  0  0
   -4.0009   -0.4640   -2.4506 H   0  0  0  0  0  0  0  0  0  0  0  0
   -2.0874    3.2717   -2.4110 N   0  0  0  0  0  0  0  0  0  0  0  0
   -1.8634    4.7078   -2.4986 C   0  0  0  0  0  0  0  0  0  0  0  0
   -1.9234    2.7904   -1.5232 H   0  0  0  0  0  0  0  0  0  0  0  0
   -1.6336    5.1137   -1.5087 H   0  0  0  0  0  0  0  0  0  0  0  0
   -1.0229    4.9240   -3.1663 H   0  0  0  0  0  0  0  0  0  0  0  0
   -2.7571    5.2125   -2.8805 H   0  0  0  0  0  0  0  0  0  0  0  0
  1  2  2  0  0  0  0
  1  3  1  0  0  0  0
  1  7  1  0  0  0  0
  3  4  1  0  0  0  0
  3  5  1  0  0  0  0
  3  6  1  0  0  0  0
  7  8  1  0  0  0  0
  7 12  1  0  0  0  0
  8  9  1  0  0  0  0
  8 11  1  0  0  0  0
  8 13  1  0  0  0  0
  9 10  2  0  0  0  0
  9 17  1  0  0  0  0
 11 14  1  0  0  0  0
 11 15  1  0  0  0  0
 11 16  1  0  0  0  0
 17 18  1  0  0  0  0
 17 23  1  0  0  0  0
 18 19  1  0  0  0  0
 18 21  1  0  0  0  0
 18 24  1  0  0  0  0
 19 20  2  0  0  0  0
 19 28  1  0  0  0  0
 21 22  1  0  0  0  0
 21 25  1  0  0  0  0
 21 26  1  0  0  0  0
 22 27  1  0  0  0  0
 28 29  1  0  0  0  0
 28 33  1  0  0  0  0
 29 30  1  0  0  0  0
 29 32  1  0  0  0  0
 29 34  1  0  0  0  0
 30 31  2  0  0  0  0
 30 38  1  0  0  0  0
 32 35  1  0  0  0  0
 32 36  1  0  0  0  0
 32 37  1  0  0  0  0
 38 39  1  0  0  0  0
 38 40  1  0  0  0  0
 39 41  1  0  0  0  0
 39 42  1  0  0  0  0
 39 43  1  0  0  0  0
M  END
$$$$

  -OEChem-05262217303D

 43 42  0     1  0  0  0  0  0999 V2000
    3.7247   -1.5264    4.0282 C   0  0  0  0  0  0  0  0  0  0  0  0
    2.9366   -1.2888    4.9298 O   0  0  0  0  0  0  0  0  0  0  0  0
    4.9729   -2.3437    4.3038 C   0  0  0  0  0  0  0  0  0  0  0  0
    5.8637   -1.7377    4.1207 H   0  0  0  0  0  0  0  0  0  0  0  0
    4.9816   -2.6787    5.3449 H   0  0  0  0  0  0  0  0  0  0  0  0
    4.9968   -3.2209    3.6527 H   0  0  0  0  0  0  0  0  0  0  0  0
    3.4777   -1.0579    2.7552 N   0  0  0  0  0  0  0  0  0  0  0  0
    2.2416   -0.3770    2.3474 C   0  0  2  0  0  0  0  0  0  0  0  0
    1.9212   -0.6199    0.8574 C   0  0  0  0  0  0  0  0  0  0  0  0
    2.7643   -1.1073    0.1103 O   0  0  0  0  0  0  0  0  0  0  0  0
    2.3989    1.1212    2.6275 C   0  0  0  0  0  0  0  0  0  0  0  0
    4.0969   -1.3739    2.0096 H   0  0  0  0  0  0  0  0  0  0  0  0
    1.3984   -0.7667    2.9284 H   0  0  0  0  0  0  0  0  0  0  0  0
    3.2386    1.5313    2.0575 H   0  0  0  0  0  0  0  0  0  0  0  0
    1.4901    1.6631    2.3491 H   0  0  0  0  0  0  0  0  0  0  0  0
    2.5859    1.2897    3.6928 H   0  0  0  0  0  0  0  0  0  0  0  0
    0.6926   -0.2657    0.3353 N   0  0  0  0  0  0  0  0  0  0  0  0
    0.2656   -0.5129   -1.0529 C   0  0  2  0  0  0  0  0  0  0  0  0
   -0.9817    0.3135   -1.4271 C   0  0  0  0  0  0  0  0  0  0  0  0
   -1.3586    1.2100   -0.6810 O   0  0  0  0  0  0  0  0  0  0  0  0
   -0.0127   -2.0169   -1.2469 C   0  0  0  0  0  0  0  0  0  0  0  0
   -1.1371   -2.4515   -0.4672 O   0  0  0  0  0  0  0  0  0  0  0  0
    0.0176    0.1689    0.9630 H   0  0  0  0  0  0  0  0  0  0  0  0
    1.0709   -0.2133   -1.7314 H   0  0  0  0  0  0  0  0  0  0  0  0
    0.8684   -2.5991   -0.9589 H   0  0  0  0  0  0  0  0  0  0  0  0
   -0.2009   -2.2273   -2.3045 H   0  0  0  0  0  0  0  0  0  0  0  0
   -1.9522   -1.9735   -0.6993 H   0  0  0  0  0  0  0  0  0  0  0  0
   -1.7220    0.0095   -2.5608 N   0  0  0  0  0  0  0  0  0  0  0  0
   -2.9436    0.6928   -3.0372 C   0  0  2  0  0  0  0  0  0  0  0  0
   -2.7224    2.1541   -3.4901 C   0  0  0  0  0  0  0  0  0  0  0  0
   -2.9796    2.4686   -4.6440 O   0  0  0  0  0  0  0  0  0  0  0  0
   -4.0817    0.5994   -2.0098 C   0  0  0  0  0  0  0  0  0  0  0  0
   -1.3158   -0.6856   -3.1822 H   0  0  0  0  0  0  0  0  0  0  0  0
   -3.2825    0.1521   -3.9272 H   0  0  0  0  0  0  0  0  0  0  0  0
   -3.8651    1.1914   -1.1158 H   0  0  0  0  0  0  0  0  0  0  0  0
   -5.0111    0.9774   -2.4475 H   0  0  0  0  0  0  0  0  0  0  0  0
   -4.2406   -0.4407   -1.7104 H   0  0  0  0  0  0  0  0  0  0  0  0
   -2.2132    3.1021   -2.6256 N   0  0  0  0  0  0  0  0  0  0  0  0
   -1.9112    4.4737   -3.0104 C   0  0  0  0  0  0  0  0  0  0  0  0
   -1.9364    2.7666   -1.6993 H   0  0  0  0  0  0  0  0  0  0  0  0
   -1.5702    5.0432   -2.1405 H   0  0  0  0  0  0  0  0  0  0  0  0
   -1.1229    4.4930   -3.7699 H   0  0  0  0  0  0  0  0  0  0  0  0
   -2.8031    4.9634   -3.4153 H   0  0  0  0  0  0  0  0  0  0  0  0
  1  2  2  0  0  0  0
  1  3  1  0  0  0  0
  1  7  1  0  0  0  0
  3  4  1  0  0  0  0
  3  5  1  0  0  0  0
  3  6  1  0  0  0  0
  7  8  1  0  0  0  0
  7 12  1  0  0  0  0
  8  9  1  0  0  0  0
  8 11  1  0  0  0  0
  8 13  1  0  0  0  0
  9 10  2  0  0  0  0
  9 17  1  0  0  0  0
 11 14  1  0  0  0  0
 11 15  1  0  0  0  0
 11 16  1  0  0  0  0
 17 18  1  0  0  0  0
 17 23  1  0  0  0  0
 18 19  1  0  0  0  0
 18 21  1  0  0  0  0
 18 24  1  0  0  0  0
 19 20  2  0  0  0  0
 19 28  1  0  0  0  0
 21 22  1  0  0  0  0
 21 25  1  0  0  0  0
 21 26  1  0  0  0  0
 22 27  1  0  0  0  0
 28 29  1  0  0  0  0
 28 33  1  0  0  0  0
 29 30  1  0  0  0  0
 29 32  1  0  0  0  0
 29 34  1  0  0  0  0
 30 31  2  0  0  0  0
 30 38  1  0  0  0  0
 32 35  1  0  0  0  0
 32 36  1  0  0  0  0
 32 37  1  0  0  0  0
 38 39  1  0  0  0  0
 38 40  1  0  0  0  0
 39 41  1  0  0  0  0
 39 42  1  0  0  0  0
 39 43  1  0  0  0  0
M  END
$$$$

  -OEChem-05262217303D

 43 42  0     1  0  0  0  0  0999 V2000
    3.7859   -1.5252    4.0199 C   0  0  0  0  0  0  0  0  0  0  0  0
    3.0111   -1.2963    4.9351 O   0  0  0  0  0  0  0  0  0  0  0  0
    5.0667   -2.2956    4.2819 C   0  0  0  0  0  0  0  0  0  0  0  0
    5.9317   -1.6713    4.0446 H   0  0  0  0  0  0  0  0  0  0  0  0
    5.1219   -2.5887    5.3343 H   0  0  0  0  0  0  0  0  0  0  0  0
    5.0951   -3.1964    3.6639 H   0  0  0  0  0  0  0  0  0  0  0  0
    3.4997   -1.0804    2.7465 N   0  0  0  0  0  0  0  0  0  0  0  0
    2.2443   -0.4232    2.3589 C   0  0  2  0  0  0  0  0  0  0  0  0
    1.9093   -0.6634    0.8715 C   0  0  0  0  0  0  0  0  0  0  0  0
    2.7399   -1.1651    0.1200 O   0  0  0  0  0  0  0  0  0  0  0  0
    2.3706    1.0767    2.6488 C   0  0  0  0  0  0  0  0  0  0  0  0
    4.1102   -1.3904    1.9912 H   0  0  0  0  0  0  0  0  0  0  0  0
    1.4180   -0.8368    2.9475 H   0  0  0  0  0  0  0  0  0  0  0  0
    3.1920    1.5104    2.0696 H   0  0  0  0  0  0  0  0  0  0  0  0
    1.4455    1.6000    2.3888 H   0  0  0  0  0  0  0  0  0  0  0  0
    2.5696    1.2420    3.7125 H   0  0  0  0  0  0  0  0  0  0  0  0
    0.6792   -0.2970    0.3597 N   0  0  0  0  0  0  0  0  0  0  0  0
    0.2425   -0.5309   -1.0286 C   0  0  2  0  0  0  0  0  0  0  0  0
   -1.0032    0.3085   -1.3870 C   0  0  0  0  0  0  0  0  0  0  0  0
   -1.2256    1.3405   -0.7652 O   0  0  0  0  0  0  0  0  0  0  0  0
   -0.0336   -2.0351   -1.2312 C   0  0  0  0  0  0  0  0  0  0  0  0
   -1.1513   -2.4801   -0.4462 O   0  0  0  0  0  0  0  0  0  0  0  0
    0.0336    0.1852    0.9826 H   0  0  0  0  0  0  0  0  0  0  0  0
    1.0440   -0.2291   -1.7106 H   0  0  0  0  0  0  0  0  0  0  0  0
    0.8507   -2.6183   -0.9555 H   0  0  0  0  0  0  0  0  0  0  0  0
   -0.2278   -2.2360   -2.2892 H   0  0  0  0  0  0  0  0  0  0  0  0
   -1.9628   -1.9792   -0.6405 H   0  0  0  0  0  0  0  0  0  0  0  0
   -1.9316   -0.1378   -2.3187 N   0  0  0  0  0  0  0  0  0  0  0  0
   -3.2027    0.5153   -2.6999 C   0  0  2  0  0  0  0  0  0  0  0  0
   -3.0453    1.8752   -3.4196 C   0  0  0  0  0  0  0  0  0  0  0  0
   -3.5502    2.0282   -4.5233 O   0  0  0  0  0  0  0  0  0  0  0  0
   -4.1541    0.6363   -1.5005 C   0  0  0  0  0  0  0  0  0  0  0  0
   -1.6556   -0.9525   -2.8620 H   0  0  0  0  0  0  0  0  0  0  0  0
   -3.6921   -0.1477   -3.4212 H   0  0  0  0  0  0  0  0  0  0  0  0
   -3.7860    1.3618   -0.7693 H   0  0  0  0  0  0  0  0  0  0  0  0
   -5.1405    0.9689   -1.8398 H   0  0  0  0  0  0  0  0  0  0  0  0
   -4.2692   -0.3319   -1.0043 H   0  0  0  0  0  0  0  0  0  0  0  0
   -2.3373    2.9144   -2.8498 N   0  0  0  0  0  0  0  0  0  0  0  0
   -2.1301    4.2066   -3.4884 C   0  0  0  0  0  0  0  0  0  0  0  0
   -1.8977    2.7232   -1.9458 H   0  0  0  0  0  0  0  0  0  0  0  0
   -1.5390    4.8585   -2.8379 H   0  0  0  0  0  0  0  0  0  0  0  0
   -1.5944    4.0839   -4.4354 H   0  0  0  0  0  0  0  0  0  0  0  0
   -3.0905    4.6942   -3.6856 H   0  0  0  0  0  0  0  0  0  0  0  0
  1  2  2  0  0  0  0
  1  3  1  0  0  0  0
  1  7  1  0  0  0  0
  3  4  1  0  0  0  0
  3  5  1  0  0  0  0
  3  6  1  0  0  0  0
  7  8  1  0  0  0  0
  7 12  1  0  0  0  0
  8  9  1  0  0  0  0
  8 11  1  0  0  0  0
  8 13  1  0  0  0  0
  9 10  2  0  0  0  0
  9 17  1  0  0  0  0
 11 14  1  0  0  0  0
 11 15  1  0  0  0  0
 11 16  1  0  0  0  0
 17 18  1  0  0  0  0
 17 23  1  0  0  0  0
 18 19  1  0  0  0  0
 18 21  1  0  0  0  0
 18 24  1  0  0  0  0
 19 20  2  0  0  0  0
 19 28  1  0  0  0  0
 21 22  1  0  0  0  0
 21 25  1  0  0  0  0
 21 26  1  0  0  0  0
 22 27  1  0  0  0  0
 28 29  1  0  0  0  0
 28 33  1  0  0  0  0
 29 30  1  0  0  0  0
 29 32  1  0  0  0  0
 29 34  1  0  0  0  0
 30 31  2  0  0  0  0
 30 38  1  0  0  0  0
 32 35  1  0  0  0  0
 32 36  1  0  0  0  0
 32 37  1  0  0  0  0
 38 39  1  0  0  0  0
 38 40  1  0  0  0  0
 39 41  1  0  0  0  0
 39 42  1  0  0  0  0
 39 43  1  0  0  0  0
M  END
$$$$

  -OEChem-05262217303D

 43 42  0     1  0  0  0  0  0999 V2000
    3.5618   -1.6363    4.0032 C   0  0  0  0  0  0  0  0  0  0  0  0
    2.6655   -1.5340    4.8253 O   0  0  0  0  0  0  0  0  0  0  0  0
    4.7697   -2.5047    4.3011 C   0  0  0  0  0  0  0  0  0  0  0  0
    5.6745   -1.8923    4.3163 H   0  0  0  0  0  0  0  0  0  0  0  0
    4.6553   -2.9875    5.2757 H   0  0  0  0  0  0  0  0  0  0  0  0
    4.8737   -3.2777    3.5358 H   0  0  0  0  0  0  0  0  0  0  0  0
    3.4777   -0.9674    2.8000 N   0  0  0  0  0  0  0  0  0  0  0  0
    2.2853   -0.2433    2.3363 C   0  0  2  0  0  0  0  0  0  0  0  0
    1.9049   -0.6283    0.8914 C   0  0  0  0  0  0  0  0  0  0  0  0
    2.7124   -1.2046    0.1718 O   0  0  0  0  0  0  0  0  0  0  0  0
    2.5779    1.2556    2.4370 C   0  0  0  0  0  0  0  0  0  0  0  0
    4.1655   -1.2166    2.0907 H   0  0  0  0  0  0  0  0  0  0  0  0
    1.4241   -0.4801    2.9704 H   0  0  0  0  0  0  0  0  0  0  0  0
    3.4274    1.5242    1.8009 H   0  0  0  0  0  0  0  0  0  0  0  0
    1.7082    1.8403    2.1221 H   0  0  0  0  0  0  0  0  0  0  0  0
    2.8181    1.5244    3.4708 H   0  0  0  0  0  0  0  0  0  0  0  0
    0.6602   -0.3020    0.3858 N   0  0  0  0  0  0  0  0  0  0  0  0
    0.2519   -0.4828   -1.0213 C   0  0  2  0  0  0  0  0  0  0  0  0
   -1.0364    0.3179   -1.3123 C   0  0  0  0  0  0  0  0  0  0  0  0
   -1.1101    1.4649   -0.8853 O   0  0  0  0  0  0  0  0  0  0  0  0
    0.0937   -1.9711   -1.3904 C   0  0  0  0  0  0  0  0  0  0  0  0
   -0.9917   -2.5673   -0.6721 O   0  0  0  0  0  0  0  0  0  0  0  0
    0.0948    0.3347    0.9466 H   0  0  0  0  0  0  0  0  0  0  0  0
    1.0304   -0.0637   -1.6671 H   0  0  0  0  0  0  0  0  0  0  0  0
    1.0164   -2.5206   -1.1820 H   0  0  0  0  0  0  0  0  0  0  0  0
   -0.0932   -2.0595   -2.4658 H   0  0  0  0  0  0  0  0  0  0  0  0
   -0.7570   -2.6597    0.2699 H   0  0  0  0  0  0  0  0  0  0  0  0
   -2.0956   -0.2284   -2.0200 N   0  0  0  0  0  0  0  0  0  0  0  0
   -3.4178    0.3821   -2.2723 C   0  0  2  0  0  0  0  0  0  0  0  0
   -3.4099    1.6133   -3.2087 C   0  0  0  0  0  0  0  0  0  0  0  0
   -4.1794    1.6475   -4.1598 O   0  0  0  0  0  0  0  0  0  0  0  0
   -4.1383    0.7005   -0.9549 C   0  0  0  0  0  0  0  0  0  0  0  0
   -2.0236   -1.2376   -2.1559 H   0  0  0  0  0  0  0  0  0  0  0  0
   -4.0179   -0.3754   -2.7874 H   0  0  0  0  0  0  0  0  0  0  0  0
   -3.6423    1.5133   -0.4167 H   0  0  0  0  0  0  0  0  0  0  0  0
   -5.1702    1.0056   -1.1563 H   0  0  0  0  0  0  0  0  0  0  0  0
   -4.1587   -0.1840   -0.3111 H   0  0  0  0  0  0  0  0  0  0  0  0
   -2.5681    2.6851   -2.9877 N   0  0  0  0  0  0  0  0  0  0  0  0
   -2.5228    3.8742   -3.8274 C   0  0  0  0  0  0  0  0  0  0  0  0
   -1.9431    2.6109   -2.1812 H   0  0  0  0  0  0  0  0  0  0  0  0
   -1.8060    4.5951   -3.4223 H   0  0  0  0  0  0  0  0  0  0  0  0
   -2.2144    3.6117   -4.8447 H   0  0  0  0  0  0  0  0  0  0  0  0
   -3.5076    4.3514   -3.8693 H   0  0  0  0  0  0  0  0  0  0  0  0
  1  2  2  0  0  0  0
  1  3  1  0  0  0  0
  1  7  1  0  0  0  0
  3  4  1  0  0  0  0
  3  5  1  0  0  0  0
  3  6  1  0  0  0  0
  7  8  1  0  0  0  0
  7 12  1  0  0  0  0
  8  9  1  0  0  0  0
  8 11  1  0  0  0  0
  8 13  1  0  0  0  0
  9 10  2  0  0  0  0
  9 17  1  0  0  0  0
 11 14  1  0  0  0  0
 11 15  1  0  0  0  0
 11 16  1  0  0  0  0
 17 18  1  0  0  0  0
 17 23  1  0  0  0  0
 18 19  1  0  0  0  0
 18 21  1  0  0  0  0
 18 24  1  0  0  0  0
 19 20  2  0  0  0  0
 19 28  1  0  0  0  0
 21 22  1  0  0  0  0
 21 25  1  0  0  0  0
 21 26  1  0  0  0  0
 22 27  1  0  0  0  0
 28 29  1  0  0  0  0
 28 33  1  0  0  0  0
 29 30  1  0  0  0  0
 29 32  1  0  0  0  0
 29 34  1  0  0  0  0
 30 31  2  0  0  0  0
 30 38  1  0  0  0  0
 32 35  1  0  0  0  0
 32 36  1  0  0  0  0
 32 37  1  0  0  0  0
 38 39  1  0  0  0  0
 38 40  1  0  0  0  0
 39 41  1  0  0  0  0
 39 42  1  0  0  0  0
 39 43  1  0  0  0  0
M  END
$$$$

  -OEChem-05262217303D

 43 42  0     1  0  0  0  0  0999 V2000
    3.6082   -1.7064    3.9409 C   0  0  0  0  0  0  0  0  0  0  0  0
    2.7149   -1.6220    4.7685 O   0  0  0  0  0  0  0  0  0  0  0  0
    4.7953   -2.6168    4.1936 C   0  0  0  0  0  0  0  0  0  0  0  0
    5.7267   -2.0564    4.0814 H   0  0  0  0  0  0  0  0  0  0  0  0
    4.7496   -3.0232    5.2079 H   0  0  0  0  0  0  0  0  0  0  0  0
    4.7882   -3.4450    3.4810 H   0  0  0  0  0  0  0  0  0  0  0  0
    3.5360   -0.9876    2.7656 N   0  0  0  0  0  0  0  0  0  0  0  0
    2.3535   -0.2300    2.3297 C   0  0  2  0  0  0  0  0  0  0  0  0
    1.9235   -0.6093    0.8972 C   0  0  0  0  0  0  0  0  0  0  0  0
    2.7023   -1.1921    0.1520 O   0  0  0  0  0  0  0  0  0  0  0  0
    2.6925    1.2600    2.4147 C   0  0  0  0  0  0  0  0  0  0  0  0
    4.2132   -1.2303    2.0441 H   0  0  0  0  0  0  0  0  0  0  0  0
    1.5026   -0.4375    2.9872 H   0  0  0  0  0  0  0  0  0  0  0  0
    3.5323    1.5010    1.7551 H   0  0  0  0  0  0  0  0  0  0  0  0
    1.8320    1.8678    2.1189 H   0  0  0  0  0  0  0  0  0  0  0  0
    2.9671    1.5265    3.4403 H   0  0  0  0  0  0  0  0  0  0  0  0
    0.6648   -0.2712    0.4353 N   0  0  0  0  0  0  0  0  0  0  0  0
    0.2066   -0.4387   -0.9583 C   0  0  2  0  0  0  0  0  0  0  0  0
   -1.0847    0.3688   -1.2089 C   0  0  0  0  0  0  0  0  0  0  0  0
   -1.0603    1.5742   -0.9926 O   0  0  0  0  0  0  0  0  0  0  0  0
    0.0488   -1.9240   -1.3438 C   0  0  0  0  0  0  0  0  0  0  0  0
   -1.0015   -2.5538   -0.5992 O   0  0  0  0  0  0  0  0  0  0  0  0
    0.1253    0.3622    1.0234 H   0  0  0  0  0  0  0  0  0  0  0  0
    0.9655   -0.0121   -1.6229 H   0  0  0  0  0  0  0  0  0  0  0  0
    0.9853   -2.4673   -1.1887 H   0  0  0  0  0  0  0  0  0  0  0  0
   -0.1839   -1.9891   -2.4120 H   0  0  0  0  0  0  0  0  0  0  0  0
   -0.7088   -2.7135    0.3177 H   0  0  0  0  0  0  0  0  0  0  0  0
   -2.2650   -0.2381   -1.6052 N   0  0  0  0  0  0  0  0  0  0  0  0
   -3.5987    0.3824   -1.7487 C   0  0  2  0  0  0  0  0  0  0  0  0
   -3.7285    1.4015   -2.9044 C   0  0  0  0  0  0  0  0  0  0  0  0
   -4.6967    1.3434   -3.6509 O   0  0  0  0  0  0  0  0  0  0  0  0
   -4.0686    0.9997   -0.4241 C   0  0  0  0  0  0  0  0  0  0  0  0
   -2.2240   -1.2601   -1.6030 H   0  0  0  0  0  0  0  0  0  0  0  0
   -4.2957   -0.4274   -1.9885 H   0  0  0  0  0  0  0  0  0  0  0  0
   -3.4828    1.8878   -0.1700 H   0  0  0  0  0  0  0  0  0  0  0  0
   -5.1191    1.2967   -0.5034 H   0  0  0  0  0  0  0  0  0  0  0  0
   -3.9749    0.2746    0.3896 H   0  0  0  0  0  0  0  0  0  0  0  0
   -2.7862    2.3913   -3.1004 N   0  0  0  0  0  0  0  0  0  0  0  0
   -2.8803    3.4141   -4.1325 C   0  0  0  0  0  0  0  0  0  0  0  0
   -2.0309    2.4371   -2.4122 H   0  0  0  0  0  0  0  0  0  0  0  0
   -3.7589    4.0455   -3.9654 H   0  0  0  0  0  0  0  0  0  0  0  0
   -1.9882    4.0474   -4.1172 H   0  0  0  0  0  0  0  0  0  0  0  0
   -2.9595    2.9534   -5.1228 H   0  0  0  0  0  0  0  0  0  0  0  0
  1  2  2  0  0  0  0
  1  3  1  0  0  0  0
  1  7  1  0  0  0  0
  3  4  1  0  0  0  0
  3  5  1  0  0  0  0
  3  6  1  0  0  0  0
  7  8  1  0  0  0  0
  7 12  1  0  0  0  0
  8  9  1  0  0  0  0
  8 11  1  0  0  0  0
  8 13  1  0  0  0  0
  9 10  2  0  0  0  0
  9 17  1  0  0  0  0
 11 14  1  0  0  0  0
 11 15  1  0  0  0  0
 11 16  1  0  0  0  0
 17 18  1  0  0  0  0
 17 23  1  0  0  0  0
 18 19  1  0  0  0  0
 18 21  1  0  0  0  0
 18 24  1  0  0  0  0
 19 20  2  0  0  0  0
 19 28  1  0  0  0  0
 21 22  1  0  0  0  0
 21 25  1  0  0  0  0
 21 26  1  0  0  0  0
 22 27  1  0  0  0  0
 28 29  1  0  0  0  0
 28 33  1  0  0  0  0
 29 30  1  0  0  0  0
 29 32  1  0  0  0  0
 29 34  1  0  0  0  0
 30 31  2  0  0  0  0
 30 38  1  0  0  0  0
 32 35  1  0  0  0  0
 32 36  1  0  0  0  0
 32 37  1  0  0  0  0
 38 39  1  0  0  0  0
 38 40  1  0  0  0  0
 39 41  1  0  0  0  0
 39 42  1  0  0  0  0
 39 43  1  0  0  0  0
M  END
$$$$

  -OEChem-05262217303D

 43 42  0     1  0  0  0  0  0999 V2000
    3.6577   -1.7619    3.9008 C   0  0  0  0  0  0  0  0  0  0  0  0
    2.7803   -1.6754    4.7449 O   0  0  0  0  0  0  0  0  0  0  0  0
    4.8359   -2.6915    4.1212 C   0  0  0  0  0  0  0  0  0  0  0  0
    5.7711   -2.1300    4.0564 H   0  0  0  0  0  0  0  0  0  0  0  0
    4.7713   -3.1540    5.1101 H   0  0  0  0  0  0  0  0  0  0  0  0
    4.8375   -3.4785    3.3631 H   0  0  0  0  0  0  0  0  0  0  0  0
    3.5765   -1.0247    2.7380 N   0  0  0  0  0  0  0  0  0  0  0  0
    2.4014   -0.2378    2.3373 C   0  0  2  0  0  0  0  0  0  0  0  0
    1.9398   -0.5844    0.9069 C   0  0  0  0  0  0  0  0  0  0  0  0
    2.7015   -1.1546    0.1349 O   0  0  0  0  0  0  0  0  0  0  0  0
    2.7725    1.2433    2.4417 C   0  0  0  0  0  0  0  0  0  0  0  0
    4.2371   -1.2653    2.0005 H   0  0  0  0  0  0  0  0  0  0  0  0
    1.5583   -0.4391    3.0066 H   0  0  0  0  0  0  0  0  0  0  0  0
    3.6078    1.4777    1.7739 H   0  0  0  0  0  0  0  0  0  0  0  0
    1.9211    1.8747    2.1693 H   0  0  0  0  0  0  0  0  0  0  0  0
    3.0674    1.4861    3.4676 H   0  0  0  0  0  0  0  0  0  0  0  0
    0.6729   -0.2327    0.4780 N   0  0  0  0  0  0  0  0  0  0  0  0
    0.1762   -0.3962   -0.9030 C   0  0  2  0  0  0  0  0  0  0  0  0
   -1.1123    0.4185   -1.1411 C   0  0  0  0  0  0  0  0  0  0  0  0
   -1.0268    1.6395   -1.1536 O   0  0  0  0  0  0  0  0  0  0  0  0
    0.0037   -1.8858   -1.2705 C   0  0  0  0  0  0  0  0  0  0  0  0
   -1.0258   -2.5155   -0.4944 O   0  0  0  0  0  0  0  0  0  0  0  0
    0.1356    0.3691    1.0990 H   0  0  0  0  0  0  0  0  0  0  0  0
    0.9250    0.0188   -1.5864 H   0  0  0  0  0  0  0  0  0  0  0  0
    0.9437   -2.4303   -1.1426 H   0  0  0  0  0  0  0  0  0  0  0  0
   -0.2631   -1.9546   -2.3305 H   0  0  0  0  0  0  0  0  0  0  0  0
   -0.6917   -2.7138    0.4006 H   0  0  0  0  0  0  0  0  0  0  0  0
   -2.3577   -0.1820   -1.2135 N   0  0  0  0  0  0  0  0  0  0  0  0
   -3.6818    0.4706   -1.2718 C   0  0  2  0  0  0  0  0  0  0  0  0
   -3.9687    1.2581   -2.5711 C   0  0  0  0  0  0  0  0  0  0  0  0
   -5.0350    1.0967   -3.1500 O   0  0  0  0  0  0  0  0  0  0  0  0
   -3.9150    1.3528   -0.0374 C   0  0  0  0  0  0  0  0  0  0  0  0
   -2.3362   -1.2009   -1.1218 H   0  0  0  0  0  0  0  0  0  0  0  0
   -4.4274   -0.3304   -1.2382 H   0  0  0  0  0  0  0  0  0  0  0  0
   -3.2821    2.2447   -0.0622 H   0  0  0  0  0  0  0  0  0  0  0  0
   -4.9594    1.6784   -0.0019 H   0  0  0  0  0  0  0  0  0  0  0  0
   -3.6960    0.7937    0.8770 H   0  0  0  0  0  0  0  0  0  0  0  0
   -3.0552    2.1582   -3.0823 N   0  0  0  0  0  0  0  0  0  0  0  0
   -3.2797    2.9598   -4.2770 C   0  0  0  0  0  0  0  0  0  0  0  0
   -2.2011    2.2945   -2.5360 H   0  0  0  0  0  0  0  0  0  0  0  0
   -4.1482    3.6129   -4.1429 H   0  0  0  0  0  0  0  0  0  0  0  0
   -2.4046    3.5840   -4.4818 H   0  0  0  0  0  0  0  0  0  0  0  0
   -3.4543    2.3134   -5.1433 H   0  0  0  0  0  0  0  0  0  0  0  0
  1  2  2  0  0  0  0
  1  3  1  0  0  0  0
  1  7  1  0  0  0  0
  3  4  1  0  0  0  0
  3  5  1  0  0  0  0
  3  6  1  0  0  0  0
  7  8  1  0  0  0  0
  7 12  1  0  0  0  0
  8  9  1  0  0  0  0
  8 11  1  0  0  0  0
  8 13  1  0  0  0  0
  9 10  2  0  0  0  0
  9 17  1  0  0  0  0
 11 14  1  0  0  0  0
 11 15  1  0  0  0  0
 11 16  1  0  0  0  0
 17 18  1  0  0  0  0
 17 23  1  0  0  0  0
 18 19  1  0  0  0  0
 18 21  1  0  0  0  0
 18 24  1  0  0  0  0
 19 20  2  0  0  0  0
 19 28  1  0  0  0  0
 21 22  1  0  0  0  0
 21 25  1  0  0  0  0
 21 26  1  0  0  0  0
 22 27  1  0  0  0  0
 28 29  1  0  0  0  0
 28 33  1  0  0  0  0
 29 30  1  0  0  0  0
 29 32  1  0  0  0  0
 29 34  1  0  0  0  0
 30 31  2  0  0  0  0
 30 38  1  0  0  0  0
 32 35  1  0  0  0  0
 32 36  1  0  0  0  0
 32 37  1  0  0  0  0
 38 39  1  0  0  0  0
 38 40  1  0  0  0  0
 39 41  1  0  0  0  0
 39 42  1  0  0  0  0
 39 43  1  0  0  0  0
M  END
$$$$

  -OEChem-05262217303D

 43 42  0     1  0  0  0  0  0999 V2000
    3.8434   -1.8492    3.8277 C   0  0  0  0  0  0  0  0  0  0  0  0
    3.0673   -1.7203    4.7612 O   0  0  0  0  0  0  0  0  0  0  0  0
    5.0203   -2.7994    3.9428 C   0  0  0  0  0  0  0  0  0  0  0  0
    5.9557   -2.2565    3.7866 H   0  0  0  0  0  0  0  0  0  0  0  0
    5.0402   -3.2569    4.9361 H   0  0  0  0  0  0  0  0  0  0  0  0
    4.9354   -3.5896    3.1930 H   0  0  0  0  0  0  0  0  0  0  0  0
    3.6414   -1.1449    2.6596 N   0  0  0  0  0  0  0  0  0  0  0  0
    2.4476   -0.3363    2.3780 C   0  0  2  0  0  0  0  0  0  0  0  0
    1.9918   -0.4778    0.9110 C   0  0  0  0  0  0  0  0  0  0  0  0
    2.7516   -0.9456    0.0692 O   0  0  0  0  0  0  0  0  0  0  0  0
    2.7722    1.1232    2.7068 C   0  0  0  0  0  0  0  0  0  0  0  0
    4.2329   -1.3832    1.8645 H   0  0  0  0  0  0  0  0  0  0  0  0
    1.6150   -0.6687    3.0073 H   0  0  0  0  0  0  0  0  0  0  0  0
    3.5936    1.4844    2.0794 H   0  0  0  0  0  0  0  0  0  0  0  0
    1.8984    1.7596    2.5378 H   0  0  0  0  0  0  0  0  0  0  0  0
    3.0684    1.2164    3.7566 H   0  0  0  0  0  0  0  0  0  0  0  0
    0.7200   -0.0877    0.5361 N   0  0  0  0  0  0  0  0  0  0  0  0
    0.1508   -0.2709   -0.8122 C   0  0  2  0  0  0  0  0  0  0  0  0
   -1.1153    0.5835   -1.0186 C   0  0  0  0  0  0  0  0  0  0  0  0
   -0.9950    1.7366   -1.4104 O   0  0  0  0  0  0  0  0  0  0  0  0
   -0.0896   -1.7664   -1.1106 C   0  0  0  0  0  0  0  0  0  0  0  0
   -1.1009   -2.3404   -0.2662 O   0  0  0  0  0  0  0  0  0  0  0  0
    0.1082    0.2573    1.2711 H   0  0  0  0  0  0  0  0  0  0  0  0
    0.8823    0.0924   -1.5424 H   0  0  0  0  0  0  0  0  0  0  0  0
    0.8436   -2.3243   -0.9868 H   0  0  0  0  0  0  0  0  0  0  0  0
   -0.3938   -1.8763   -2.1569 H   0  0  0  0  0  0  0  0  0  0  0  0
   -1.1204   -3.3100   -0.3760 H   0  0  0  0  0  0  0  0  0  0  0  0
   -2.3707    0.0893   -0.7111 N   0  0  0  0  0  0  0  0  0  0  0  0
   -3.6671    0.7971   -0.7513 C   0  0  2  0  0  0  0  0  0  0  0  0
   -4.1496    1.2045   -2.1627 C   0  0  0  0  0  0  0  0  0  0  0  0
   -5.3083    0.9814   -2.4881 O   0  0  0  0  0  0  0  0  0  0  0  0
   -3.6644    2.0095    0.1897 C   0  0  0  0  0  0  0  0  0  0  0  0
   -2.3669   -0.8841   -0.3969 H   0  0  0  0  0  0  0  0  0  0  0  0
   -4.4185    0.0986   -0.3687 H   0  0  0  0  0  0  0  0  0  0  0  0
   -3.0047    2.7991   -0.1819 H   0  0  0  0  0  0  0  0  0  0  0  0
   -4.6754    2.4216    0.2705 H   0  0  0  0  0  0  0  0  0  0  0  0
   -3.3302    1.7150    1.1888 H   0  0  0  0  0  0  0  0  0  0  0  0
   -3.3097    1.8415   -3.0542 N   0  0  0  0  0  0  0  0  0  0  0  0
   -3.7325    2.3451   -4.3533 C   0  0  0  0  0  0  0  0  0  0  0  0
   -2.3722    2.0635   -2.7086 H   0  0  0  0  0  0  0  0  0  0  0  0
   -4.4742    3.1409   -4.2306 H   0  0  0  0  0  0  0  0  0  0  0  0
   -2.8743    2.7497   -4.8982 H   0  0  0  0  0  0  0  0  0  0  0  0
   -4.1730    1.5411   -4.9519 H   0  0  0  0  0  0  0  0  0  0  0  0
  1  2  2  0  0  0  0
  1  3  1  0  0  0  0
  1  7  1  0  0  0  0
  3  4  1  0  0  0  0
  3  5  1  0  0  0  0
  3  6  1  0  0  0  0
  7  8  1  0  0  0  0
  7 12  1  0  0  0  0
  8  9  1  0  0  0  0
  8 11  1  0  0  0  0
  8 13  1  0  0  0  0
  9 10  2  0  0  0  0
  9 17  1  0  0  0  0
 11 14  1  0  0  0  0
 11 15  1  0  0  0  0
 11 16  1  0  0  0  0
 17 18  1  0  0  0  0
 17 23  1  0  0  0  0
 18 19  1  0  0  0  0
 18 21  1  0  0  0  0
 18 24  1  0  0  0  0
 19 20  2  0  0  0  0
 19 28  1  0  0  0  0
 21 22  1  0  0  0  0
 21 25  1  0  0  0  0
 21 26  1  0  0  0  0
 22 27  1  0  0  0  0
 28 29  1  0  0  0  0
 28 33  1  0  0  0  0
 29 30  1  0  0  0  0
 29 32  1  0  0  0  0
 29 34  1  0  0  0  0
 30 31  2  0  0  0  0
 30 38  1  0  0  0  0
 32 35  1  0  0  0  0
 32 36  1  0  0  0  0
 32 37  1  0  0  0  0
 38 39  1  0  0  0  0
 38 40  1  0  0  0  0
 39 41  1  0  0  0  0
 39 42  1  0  0  0  0
 39 43  1  0  0  0  0
M  END
$$$$

  -OEChem-05262217303D

 43 42  0     1  0  0  0  0  0999 V2000
    3.8979   -1.9673    3.7671 C   0  0  0  0  0  0  0  0  0  0  0  0
    3.1439   -1.8659    4.7219 O   0  0  0  0  0  0  0  0  0  0  0  0
    5.0689   -2.9300    3.8187 C   0  0  0  0  0  0  0  0  0  0  0  0
    6.0063   -2.3831    3.6929 H   0  0  0  0  0  0  0  0  0  0  0  0
    5.0892   -3.4477    4.7817 H   0  0  0  0  0  0  0  0  0  0  0  0
    4.9779   -3.6721    3.0219 H   0  0  0  0  0  0  0  0  0  0  0  0
    3.6810   -1.2138    2.6331 N   0  0  0  0  0  0  0  0  0  0  0  0
    2.4974   -0.3729    2.4120 C   0  0  2  0  0  0  0  0  0  0  0  0
    2.0157   -0.4402    0.9475 C   0  0  0  0  0  0  0  0  0  0  0  0
    2.7497   -0.8947    0.0761 O   0  0  0  0  0  0  0  0  0  0  0  0
    2.8571    1.0634    2.8009 C   0  0  0  0  0  0  0  0  0  0  0  0
    4.2500   -1.4289    1.8152 H   0  0  0  0  0  0  0  0  0  0  0  0
    1.6705   -0.7194    3.0412 H   0  0  0  0  0  0  0  0  0  0  0  0
    3.6754    1.4353    2.1761 H   0  0  0  0  0  0  0  0  0  0  0  0
    1.9944    1.7246    2.6759 H   0  0  0  0  0  0  0  0  0  0  0  0
    3.1730    1.1031    3.8485 H   0  0  0  0  0  0  0  0  0  0  0  0
    0.7483   -0.0053    0.6065 N   0  0  0  0  0  0  0  0  0  0  0  0
    0.1515   -0.1532   -0.7354 C   0  0  2  0  0  0  0  0  0  0  0  0
   -1.0928    0.7357   -0.9200 C   0  0  0  0  0  0  0  0  0  0  0  0
   -1.0026    1.7730   -1.5631 O   0  0  0  0  0  0  0  0  0  0  0  0
   -0.1591   -1.6340   -1.0310 C   0  0  0  0  0  0  0  0  0  0  0  0
   -1.1827   -2.1565   -0.1682 O   0  0  0  0  0  0  0  0  0  0  0  0
    0.1459    0.2959    1.3679 H   0  0  0  0  0  0  0  0  0  0  0  0
    0.8847    0.1846   -1.4766 H   0  0  0  0  0  0  0  0  0  0  0  0
    0.7493   -2.2341   -0.9202 H   0  0  0  0  0  0  0  0  0  0  0  0
   -0.4856   -1.7285   -2.0721 H   0  0  0  0  0  0  0  0  0  0  0  0
   -1.2896   -3.1152   -0.3159 H   0  0  0  0  0  0  0  0  0  0  0  0
   -2.2929    0.3908   -0.3229 N   0  0  0  0  0  0  0  0  0  0  0  0
   -3.5717    1.1294   -0.3560 C   0  0  2  0  0  0  0  0  0  0  0  0
   -4.2418    1.2059   -1.7466 C   0  0  0  0  0  0  0  0  0  0  0  0
   -5.4207    0.8986   -1.8639 O   0  0  0  0  0  0  0  0  0  0  0  0
   -3.4160    2.5311    0.2494 C   0  0  0  0  0  0  0  0  0  0  0  0
   -2.2987   -0.5541    0.0684 H   0  0  0  0  0  0  0  0  0  0  0  0
   -4.2689    0.5812    0.2861 H   0  0  0  0  0  0  0  0  0  0  0  0
   -2.8178    3.1785   -0.3986 H   0  0  0  0  0  0  0  0  0  0  0  0
   -4.3994    2.9945    0.3782 H   0  0  0  0  0  0  0  0  0  0  0  0
   -2.9307    2.4715    1.2282 H   0  0  0  0  0  0  0  0  0  0  0  0
   -3.5400    1.6248   -2.8591 N   0  0  0  0  0  0  0  0  0  0  0  0
   -4.1221    1.7628   -4.1866 C   0  0  0  0  0  0  0  0  0  0  0  0
   -2.5657    1.8970   -2.7038 H   0  0  0  0  0  0  0  0  0  0  0  0
   -4.9080    2.5251   -4.1827 H   0  0  0  0  0  0  0  0  0  0  0  0
   -3.3534    2.0606   -4.9061 H   0  0  0  0  0  0  0  0  0  0  0  0
   -4.5541    0.8122   -4.5163 H   0  0  0  0  0  0  0  0  0  0  0  0
  1  2  2  0  0  0  0
  1  3  1  0  0  0  0
  1  7  1  0  0  0  0
  3  4  1  0  0  0  0
  3  5  1  0  0  0  0
  3  6  1  0  0  0  0
  7  8  1  0  0  0  0
  7 12  1  0  0  0  0
  8  9  1  0  0  0  0
  8 11  1  0  0  0  0
  8 13  1  0  0  0  0
  9 10  2  0  0  0  0
  9 17  1  0  0  0  0
 11 14  1  0  0  0  0
 11 15  1  0  0  0  0
 11 16  1  0  0  0  0
 17 18  1  0  0  0  0
 17 23  1  0  0  0  0
 18 19  1  0  0  0  0
 18 21  1  0  0  0  0
 18 24  1  0  0  0  0
 19 20  2  0  0  0  0
 19 28  1  0  0  0  0
 21 22  1  0  0  0  0
 21 25  1  0  0  0  0
 21 26  1  0  0  0  0
 22 27  1  0  0  0  0
 28 29  1  0  0  0  0
 28 33  1  0  0  0  0
 29 30  1  0  0  0  0
 29 32  1  0  0  0  0
 29 34  1  0  0  0  0
 30 31  2  0  0  0  0
 30 38  1  0  0  0  0
 32 35  1  0  0  0  0
 32 36  1  0  0  0  0
 32 37  1  0  0  0  0
 38 39  1  0  0  0  0
 38 40  1  0  0  0  0
 39 41  1  0  0  0  0
 39 42  1  0  0  0  0
 39 43  1  0  0  0  0
M  END
$$$$

  -OEChem-05262217303D

 43 42  0     1  0  0  0  0  0999 V2000
    3.9339   -2.0238    3.7569 C   0  0  0  0  0  0  0  0  0  0  0  0
    3.1999   -1.9050    4.7251 O   0  0  0  0  0  0  0  0  0  0  0  0
    5.1045   -2.9876    3.8005 C   0  0  0  0  0  0  0  0  0  0  0  0
    6.0406   -2.4430    3.6546 H   0  0  0  0  0  0  0  0  0  0  0  0
    5.1392   -3.4950    4.7685 H   0  0  0  0  0  0  0  0  0  0  0  0
    5.0007   -3.7383    3.0132 H   0  0  0  0  0  0  0  0  0  0  0  0
    3.6957   -1.2867    2.6165 N   0  0  0  0  0  0  0  0  0  0  0  0
    2.5187   -0.4323    2.4139 C   0  0  2  0  0  0  0  0  0  0  0  0
    2.0327   -0.4658    0.9498 C   0  0  0  0  0  0  0  0  0  0  0  0
    2.7446   -0.9391    0.0705 O   0  0  0  0  0  0  0  0  0  0  0  0
    2.8863    0.9944    2.8323 C   0  0  0  0  0  0  0  0  0  0  0  0
    4.2484   -1.5123    1.7903 H   0  0  0  0  0  0  0  0  0  0  0  0
    1.6907   -0.7869    3.0372 H   0  0  0  0  0  0  0  0  0  0  0  0
    3.7044    1.3764    2.2131 H   0  0  0  0  0  0  0  0  0  0  0  0
    2.0260    1.6619    2.7243 H   0  0  0  0  0  0  0  0  0  0  0  0
    3.2052    1.0109    3.8797 H   0  0  0  0  0  0  0  0  0  0  0  0
    0.7822    0.0212    0.6189 N   0  0  0  0  0  0  0  0  0  0  0  0
    0.1727   -0.0951   -0.7201 C   0  0  2  0  0  0  0  0  0  0  0  0
   -1.0336    0.8421   -0.8915 C   0  0  0  0  0  0  0  0  0  0  0  0
   -1.0026    1.7234   -1.7400 O   0  0  0  0  0  0  0  0  0  0  0  0
   -0.2332   -1.5524   -1.0015 C   0  0  0  0  0  0  0  0  0  0  0  0
   -1.2852   -1.9869   -0.1241 O   0  0  0  0  0  0  0  0  0  0  0  0
    0.1952    0.3376    1.3860 H   0  0  0  0  0  0  0  0  0  0  0  0
    0.9151    0.2013   -1.4694 H   0  0  0  0  0  0  0  0  0  0  0  0
    0.6337   -2.2107   -0.8888 H   0  0  0  0  0  0  0  0  0  0  0  0
   -0.5734   -1.6347   -2.0395 H   0  0  0  0  0  0  0  0  0  0  0  0
   -1.5008   -2.9233   -0.2941 H   0  0  0  0  0  0  0  0  0  0  0  0
   -2.1266    0.7098   -0.0517 N   0  0  0  0  0  0  0  0  0  0  0  0
   -3.3638    1.5161   -0.0575 C   0  0  2  0  0  0  0  0  0  0  0  0
   -4.2435    1.3306   -1.3144 C   0  0  0  0  0  0  0  0  0  0  0  0
   -5.4253    1.0398   -1.1857 O   0  0  0  0  0  0  0  0  0  0  0  0
   -3.0607    3.0022    0.1824 C   0  0  0  0  0  0  0  0  0  0  0  0
   -2.1577   -0.1932    0.4259 H   0  0  0  0  0  0  0  0  0  0  0  0
   -3.9675    1.1755    0.7901 H   0  0  0  0  0  0  0  0  0  0  0  0
   -2.5614    3.4511   -0.6813 H   0  0  0  0  0  0  0  0  0  0  0  0
   -3.9920    3.5501    0.3582 H   0  0  0  0  0  0  0  0  0  0  0  0
   -2.4166    3.1223    1.0587 H   0  0  0  0  0  0  0  0  0  0  0  0
   -3.7187    1.4833   -2.5821 N   0  0  0  0  0  0  0  0  0  0  0  0
   -4.4910    1.3482   -3.8086 C   0  0  0  0  0  0  0  0  0  0  0  0
   -2.7276    1.7330   -2.6344 H   0  0  0  0  0  0  0  0  0  0  0  0
   -5.2772    2.1088   -3.8508 H   0  0  0  0  0  0  0  0  0  0  0  0
   -3.8405    1.4737   -4.6794 H   0  0  0  0  0  0  0  0  0  0  0  0
   -4.9540    0.3575   -3.8627 H   0  0  0  0  0  0  0  0  0  0  0  0
  1  2  2  0  0  0  0
  1  3  1  0  0  0  0
  1  7  1  0  0  0  0
  3  4  1  0  0  0  0
  3  5  1  0  0  0  0
  3  6  1  0  0  0  0
  7  8  1  0  0  0  0
  7 12  1  0  0  0  0
  8  9  1  0  0  0  0
  8 11  1  0  0  0  0
  8 13  1  0  0  0  0
  9 10  2  0  0  0  0
  9 17  1  0  0  0  0
 11 14  1  0  0  0  0
 11 15  1  0  0  0  0
 11 16  1  0  0  0  0
 17 18  1  0  0  0  0
 17 23  1  0  0  0  0
 18 19  1  0  0  0  0
 18 21  1  0  0  0  0
 18 24  1  0  0  0  0
 19 20  2  0  0  0  0
 19 28  1  0  0  0  0
 21 22  1  0  0  0  0
 21 25  1  0  0  0  0
 21 26  1  0  0  0  0
 22 27  1  0  0  0  0
 28 29  1  0  0  0  0
 28 33  1  0  0  0  0
 29 30  1  0  0  0  0
 29 32  1  0  0  0  0
 29 34  1  0  0  0  0
 30 31  2  0  0  0  0
 30 38  1  0  0  0  0
 32 35  1  0  0  0  0
 32 36  1  0  0  0  0
 32 37  1  0  0  0  0
 38 39  1  0  0  0  0
 38 40  1  0  0  0  0
 39 41  1  0  0  0  0
 39 42  1  0  0  0  0
 39 43  1  0  0  0  0
M  END
$$$$

  -OEChem-05262217303D

 43 42  0     1  0  0  0  0  0999 V2000
    3.9531   -2.0872    3.7294 C   0  0  0  0  0  0  0  0  0  0  0  0
    3.2368   -1.9526    4.7087 O   0  0  0  0  0  0  0  0  0  0  0  0
    5.0853   -3.0964    3.7454 C   0  0  0  0  0  0  0  0  0  0  0  0
    6.0410   -2.5861    3.6034 H   0  0  0  0  0  0  0  0  0  0  0  0
    5.1064   -3.6242    4.7029 H   0  0  0  0  0  0  0  0  0  0  0  0
    4.9467   -3.8259    2.9438 H   0  0  0  0  0  0  0  0  0  0  0  0
    3.7298   -1.3266    2.6015 N   0  0  0  0  0  0  0  0  0  0  0  0
    2.5735   -0.4400    2.4173 C   0  0  2  0  0  0  0  0  0  0  0  0
    2.0546   -0.4722    0.9649 C   0  0  0  0  0  0  0  0  0  0  0  0
    2.7386   -0.9644    0.0738 O   0  0  0  0  0  0  0  0  0  0  0  0
    2.9942    0.9791    2.8086 C   0  0  0  0  0  0  0  0  0  0  0  0
    4.2626   -1.5655    1.7660 H   0  0  0  0  0  0  0  0  0  0  0  0
    1.7494   -0.7623    3.0631 H   0  0  0  0  0  0  0  0  0  0  0  0
    3.8092    1.3271    2.1656 H   0  0  0  0  0  0  0  0  0  0  0  0
    2.1529    1.6717    2.7111 H   0  0  0  0  0  0  0  0  0  0  0  0
    3.3373    0.9987    3.8481 H   0  0  0  0  0  0  0  0  0  0  0  0
    0.8154    0.0552    0.6533 N   0  0  0  0  0  0  0  0  0  0  0  0
    0.2046   -0.0028   -0.6900 C   0  0  2  0  0  0  0  0  0  0  0  0
   -0.9823    0.9594   -0.8520 C   0  0  0  0  0  0  0  0  0  0  0  0
   -1.0474    1.6812   -1.8383 O   0  0  0  0  0  0  0  0  0  0  0  0
   -0.2720   -1.4342   -0.9809 C   0  0  0  0  0  0  0  0  0  0  0  0
   -1.3441   -1.8023   -0.0973 O   0  0  0  0  0  0  0  0  0  0  0  0
    0.2578    0.4127    1.4239 H   0  0  0  0  0  0  0  0  0  0  0  0
    0.9555    0.2775   -1.4369 H   0  0  0  0  0  0  0  0  0  0  0  0
    0.5580   -2.1390   -0.8694 H   0  0  0  0  0  0  0  0  0  0  0  0
   -0.6179   -1.4958   -2.0185 H   0  0  0  0  0  0  0  0  0  0  0  0
   -1.6388   -2.7135   -0.2824 H   0  0  0  0  0  0  0  0  0  0  0  0
   -1.9369    1.0355    0.1497 N   0  0  0  0  0  0  0  0  0  0  0  0
   -3.1561    1.8693    0.1456 C   0  0  2  0  0  0  0  0  0  0  0  0
   -4.1862    1.4807   -0.9393 C   0  0  0  0  0  0  0  0  0  0  0  0
   -5.3119    1.1366   -0.6044 O   0  0  0  0  0  0  0  0  0  0  0  0
   -2.8122    3.3641    0.0731 C   0  0  0  0  0  0  0  0  0  0  0  0
   -1.9595    0.1981    0.7322 H   0  0  0  0  0  0  0  0  0  0  0  0
   -3.6529    1.7074    1.1081 H   0  0  0  0  0  0  0  0  0  0  0  0
   -2.4042    3.6340   -0.9051 H   0  0  0  0  0  0  0  0  0  0  0  0
   -3.7122    3.9634    0.2417 H   0  0  0  0  0  0  0  0  0  0  0  0
   -2.0759    3.6216    0.8400 H   0  0  0  0  0  0  0  0  0  0  0  0
   -3.8515    1.4894   -2.2787 N   0  0  0  0  0  0  0  0  0  0  0  0
   -4.7434    1.0529   -3.3431 C   0  0  0  0  0  0  0  0  0  0  0  0
   -2.8750    1.7051   -2.4974 H   0  0  0  0  0  0  0  0  0  0  0  0
   -4.2608    1.1844   -4.3163 H   0  0  0  0  0  0  0  0  0  0  0  0
   -4.9957   -0.0053   -3.2197 H   0  0  0  0  0  0  0  0  0  0  0  0
   -5.6675    1.6403   -3.3341 H   0  0  0  0  0  0  0  0  0  0  0  0
  1  2  2  0  0  0  0
  1  3  1  0  0  0  0
  1  7  1  0  0  0  0
  3  4  1  0  0  0  0
  3  5  1  0  0  0  0
  3  6  1  0  0  0  0
  7  8  1  0  0  0  0
  7 12  1  0  0  0  0
  8  9  1  0  0  0  0
  8 11  1  0  0  0  0
  8 13  1  0  0  0  0
  9 10  2  0  0  0  0
  9 17  1  0  0  0  0
 11 14  1  0  0  0  0
 11 15  1  0  0  0  0
 11 16  1  0  0  0  0
 17 18  1  0  0  0  0
 17 23  1  0  0  0  0
 18 19  1  0  0  0  0
 18 21  1  0  0  0  0
 18 24  1  0  0  0  0
 19 20  2  0  0  0  0
 19 28  1  0  0  0  0
 21 22  1  0  0  0  0
 21 25  1  0  0  0  0
 21 26  1  0  0  0  0
 22 27  1  0  0  0  0
 28 29  1  0  0  0  0
 28 33  1  0  0  0  0
 29 30  1  0  0  0  0
 29 32  1  0  0  0  0
 29 34  1  0  0  0  0
 30 31  2  0  0  0  0
 30 38  1  0  0  0  0
 32 35  1  0  0  0  0
 32 36  1  0  0  0  0
 32 37  1  0  0  0  0
 38 39  1  0  0  0  0
 38 40  1  0  0  0  0
 39 41  1  0  0  0  0
 39 42  1  0  0  0  0
 39 43  1  0  0  0  0
M  END
$$$$

  -OEChem-05262217303D

 43 42  0     1  0  0  0  0  0999 V2000
    3.9178   -2.2952    3.8568 C   0  0  0  0  0  0  0  0  0  0  0  0
    3.2892   -2.0060    4.8627 O   0  0  0  0  0  0  0  0  0  0  0  0
    4.9359   -3.4194    3.8903 C   0  0  0  0  0  0  0  0  0  0  0  0
    5.9064   -3.0547    3.5449 H   0  0  0  0  0  0  0  0  0  0  0  0
    5.0455   -3.7985    4.9103 H   0  0  0  0  0  0  0  0  0  0  0  0
    4.6100   -4.2373    3.2430 H   0  0  0  0  0  0  0  0  0  0  0  0
    3.7018   -1.5991    2.6866 N   0  0  0  0  0  0  0  0  0  0  0  0
    2.6612   -0.5788    2.5083 C   0  0  2  0  0  0  0  0  0  0  0  0
    2.2052   -0.4799    1.0371 C   0  0  0  0  0  0  0  0  0  0  0  0
    2.8583   -1.0227    0.1521 O   0  0  0  0  0  0  0  0  0  0  0  0
    3.2122    0.7689    2.9866 C   0  0  0  0  0  0  0  0  0  0  0  0
    4.1651   -1.9370    1.8433 H   0  0  0  0  0  0  0  0  0  0  0  0
    1.7831   -0.8451    3.1069 H   0  0  0  0  0  0  0  0  0  0  0  0
    4.0885    1.0542    2.3957 H   0  0  0  0  0  0  0  0  0  0  0  0
    2.4546    1.5519    2.8874 H   0  0  0  0  0  0  0  0  0  0  0  0
    3.5072    0.7083    4.0390 H   0  0  0  0  0  0  0  0  0  0  0  0
    1.0636    0.2292    0.7066 N   0  0  0  0  0  0  0  0  0  0  0  0
    0.4095    0.0937   -0.6135 C   0  0  2  0  0  0  0  0  0  0  0  0
   -0.6104    1.1882   -0.9619 C   0  0  0  0  0  0  0  0  0  0  0  0
   -0.8622    1.4138   -2.1378 O   0  0  0  0  0  0  0  0  0  0  0  0
   -0.3339   -1.2528   -0.6411 C   0  0  0  0  0  0  0  0  0  0  0  0
   -1.4180   -1.2564    0.3055 O   0  0  0  0  0  0  0  0  0  0  0  0
    0.4675    0.4460    1.4982 H   0  0  0  0  0  0  0  0  0  0  0  0
    1.1705    0.1028   -1.4013 H   0  0  0  0  0  0  0  0  0  0  0  0
    0.3601   -2.0654   -0.4034 H   0  0  0  0  0  0  0  0  0  0  0  0
   -0.7258   -1.4416   -1.6466 H   0  0  0  0  0  0  0  0  0  0  0  0
   -2.2321   -0.8306   -0.0675 H   0  0  0  0  0  0  0  0  0  0  0  0
   -1.3362    1.8208    0.0377 N   0  0  0  0  0  0  0  0  0  0  0  0
   -2.6640    2.4118   -0.2138 C   0  0  2  0  0  0  0  0  0  0  0  0
   -3.6349    1.3799   -0.8463 C   0  0  0  0  0  0  0  0  0  0  0  0
   -3.5891    0.2121   -0.4643 O   0  0  0  0  0  0  0  0  0  0  0  0
   -2.5429    3.7235   -1.0088 C   0  0  0  0  0  0  0  0  0  0  0  0
   -1.2158    1.3900    0.9483 H   0  0  0  0  0  0  0  0  0  0  0  0
   -3.0959    2.6744    0.7567 H   0  0  0  0  0  0  0  0  0  0  0  0
   -2.2465    3.5368   -2.0451 H   0  0  0  0  0  0  0  0  0  0  0  0
   -3.4995    4.2545   -1.0144 H   0  0  0  0  0  0  0  0  0  0  0  0
   -1.7934    4.3746   -0.5482 H   0  0  0  0  0  0  0  0  0  0  0  0
   -4.5564    1.7369   -1.8135 N   0  0  0  0  0  0  0  0  0  0  0  0
   -5.3749    0.7585   -2.5202 C   0  0  0  0  0  0  0  0  0  0  0  0
   -4.4509    2.6615   -2.2209 H   0  0  0  0  0  0  0  0  0  0  0  0
   -6.0578    1.2641   -3.2099 H   0  0  0  0  0  0  0  0  0  0  0  0
   -4.7412    0.0755   -3.0960 H   0  0  0  0  0  0  0  0  0  0  0  0
   -5.9729    0.1726   -1.8139 H   0  0  0  0  0  0  0  0  0  0  0  0
  1  2  2  0  0  0  0
  1  3  1  0  0  0  0
  1  7  1  0  0  0  0
  3  4  1  0  0  0  0
  3  5  1  0  0  0  0
  3  6  1  0  0  0  0
  7  8  1  0  0  0  0
  7 12  1  0  0  0  0
  8  9  1  0  0  0  0
  8 11  1  0  0  0  0
  8 13  1  0  0  0  0
  9 10  2  0  0  0  0
  9 17  1  0  0  0  0
 11 14  1  0  0  0  0
 11 15  1  0  0  0  0
 11 16  1  0  0  0  0
 17 18  1  0  0  0  0
 17 23  1  0  0  0  0
 18 19  1  0  0  0  0
 18 21  1  0  0  0  0
 18 24  1  0  0  0  0
 19 20  2  0  0  0  0
 19 28  1  0  0  0  0
 21 22  1  0  0  0  0
 21 25  1  0  0  0  0
 21 26  1  0  0  0  0
 22 27  1  0  0  0  0
 28 29  1  0  0  0  0
 28 33  1  0  0  0  0
 29 30  1  0  0  0  0
 29 32  1  0  0  0  0
 29 34  1  0  0  0  0
 30 31  2  0  0  0  0
 30 38  1  0  0  0  0
 32 35  1  0  0  0  0
 32 36  1  0  0  0  0
 32 37  1  0  0  0  0
 38 39  1  0  0  0  0
 38 40  1  0  0  0  0
 39 41  1  0  0  0  0
 39 42  1  0  0  0  0
 39 43  1  0  0  0  0
M  END
$$$$

  -OEChem-05262217303D

 43 42  0     1  0  0  0  0  0999 V2000
    3.8763   -2.3081    3.8657 C   0  0  0  0  0  0  0  0  0  0  0  0
    3.2074   -2.0599    4.8564 O   0  0  0  0  0  0  0  0  0  0  0  0
    4.8955   -3.4314    3.8941 C   0  0  0  0  0  0  0  0  0  0  0  0
    5.8743   -3.0559    3.5860 H   0  0  0  0  0  0  0  0  0  0  0  0
    4.9774   -3.8408    4.9049 H   0  0  0  0  0  0  0  0  0  0  0  0
    4.5890   -4.2300    3.2141 H   0  0  0  0  0  0  0  0  0  0  0  0
    3.7000   -1.5721    2.7135 N   0  0  0  0  0  0  0  0  0  0  0  0
    2.6397   -0.5750    2.5203 C   0  0  2  0  0  0  0  0  0  0  0  0
    2.2485   -0.4477    1.0322 C   0  0  0  0  0  0  0  0  0  0  0  0
    2.9306   -0.9901    0.1690 O   0  0  0  0  0  0  0  0  0  0  0  0
    3.1291    0.7707    3.0670 C   0  0  0  0  0  0  0  0  0  0  0  0
    4.1903   -1.8867    1.8765 H   0  0  0  0  0  0  0  0  0  0  0  0
    1.7435   -0.8845    3.0696 H   0  0  0  0  0  0  0  0  0  0  0  0
    4.0170    1.1052    2.5208 H   0  0  0  0  0  0  0  0  0  0  0  0
    2.3507    1.5332    2.9690 H   0  0  0  0  0  0  0  0  0  0  0  0
    3.3871    0.6790    4.1270 H   0  0  0  0  0  0  0  0  0  0  0  0
    1.1238    0.2691    0.6609 N   0  0  0  0  0  0  0  0  0  0  0  0
    0.4716    0.0504   -0.6495 C   0  0  2  0  0  0  0  0  0  0  0  0
   -0.5252    1.1296   -1.0989 C   0  0  0  0  0  0  0  0  0  0  0  0
   -0.9654    1.0943   -2.2405 O   0  0  0  0  0  0  0  0  0  0  0  0
   -0.2908   -1.2830   -0.5490 C   0  0  0  0  0  0  0  0  0  0  0  0
   -1.3667   -1.1818    0.4027 O   0  0  0  0  0  0  0  0  0  0  0  0
    0.4911    0.4314    1.4391 H   0  0  0  0  0  0  0  0  0  0  0  0
    1.2313   -0.0224   -1.4352 H   0  0  0  0  0  0  0  0  0  0  0  0
    0.3913   -2.0842   -0.2467 H   0  0  0  0  0  0  0  0  0  0  0  0
   -0.6959   -1.5554   -1.5296 H   0  0  0  0  0  0  0  0  0  0  0  0
   -2.1275   -0.6441    0.0670 H   0  0  0  0  0  0  0  0  0  0  0  0
   -1.0210    2.0636   -0.2017 N   0  0  0  0  0  0  0  0  0  0  0  0
   -2.3361    2.7068   -0.3794 C   0  0  2  0  0  0  0  0  0  0  0  0
   -3.4624    1.6712   -0.6427 C   0  0  0  0  0  0  0  0  0  0  0  0
   -3.4228    0.5848   -0.0697 O   0  0  0  0  0  0  0  0  0  0  0  0
   -2.2507    3.8083   -1.4489 C   0  0  0  0  0  0  0  0  0  0  0  0
   -0.6963    1.9446    0.7508 H   0  0  0  0  0  0  0  0  0  0  0  0
   -2.5944    3.1981    0.5634 H   0  0  0  0  0  0  0  0  0  0  0  0
   -2.1093    3.3816   -2.4465 H   0  0  0  0  0  0  0  0  0  0  0  0
   -3.1666    4.4069   -1.4551 H   0  0  0  0  0  0  0  0  0  0  0  0
   -1.4089    4.4746   -1.2361 H   0  0  0  0  0  0  0  0  0  0  0  0
   -4.5205    1.9439   -1.4902 N   0  0  0  0  0  0  0  0  0  0  0  0
   -5.5208    0.9465   -1.8503 C   0  0  0  0  0  0  0  0  0  0  0  0
   -4.4375    2.7745   -2.0686 H   0  0  0  0  0  0  0  0  0  0  0  0
   -6.2487    1.3760   -2.5455 H   0  0  0  0  0  0  0  0  0  0  0  0
   -5.0470    0.0850   -2.3334 H   0  0  0  0  0  0  0  0  0  0  0  0
   -6.0567    0.6012   -0.9597 H   0  0  0  0  0  0  0  0  0  0  0  0
  1  2  2  0  0  0  0
  1  3  1  0  0  0  0
  1  7  1  0  0  0  0
  3  4  1  0  0  0  0
  3  5  1  0  0  0  0
  3  6  1  0  0  0  0
  7  8  1  0  0  0  0
  7 12  1  0  0  0  0
  8  9  1  0  0  0  0
  8 11  1  0  0  0  0
  8 13  1  0  0  0  0
  9 10  2  0  0  0  0
  9 17  1  0  0  0  0
 11 14  1  0  0  0  0
 11 15  1  0  0  0  0
 11 16  1  0  0  0  0
 17 18  1  0  0  0  0
 17 23  1  0  0  0  0
 18 19  1  0  0  0  0
 18 21  1  0  0  0  0
 18 24  1  0  0  0  0
 19 20  2  0  0  0  0
 19 28  1  0  0  0  0
 21 22  1  0  0  0  0
 21 25  1  0  0  0  0
 21 26  1  0  0  0  0
 22 27  1  0  0  0  0
 28 29  1  0  0  0  0
 28 33  1  0  0  0  0
 29 30  1  0  0  0  0
 29 32  1  0  0  0  0
 29 34  1  0  0  0  0
 30 31  2  0  0  0  0
 30 38  1  0  0  0  0
 32 35  1  0  0  0  0
 32 36  1  0  0  0  0
 32 37  1  0  0  0  0
 38 39  1  0  0  0  0
 38 40  1  0  0  0  0
 39 41  1  0  0  0  0
 39 42  1  0  0  0  0
 39 43  1  0  0  0  0
M  END
$$$$

  -OEChem-05262217303D

 43 42  0     1  0  0  0  0  0999 V2000
    3.8419   -2.2167    3.9549 C   0  0  0  0  0  0  0  0  0  0  0  0
    3.1473   -1.9419    4.9205 O   0  0  0  0  0  0  0  0  0  0  0  0
    4.8954   -3.3036    4.0568 C   0  0  0  0  0  0  0  0  0  0  0  0
    5.8804   -2.8914    3.8250 H   0  0  0  0  0  0  0  0  0  0  0  0
    4.9156   -3.7153    5.0697 H   0  0  0  0  0  0  0  0  0  0  0  0
    4.6702   -4.1093    3.3535 H   0  0  0  0  0  0  0  0  0  0  0  0
    3.6667   -1.5408    2.7662 N   0  0  0  0  0  0  0  0  0  0  0  0
    2.5818   -0.5850    2.5076 C   0  0  2  0  0  0  0  0  0  0  0  0
    2.2300   -0.5211    1.0055 C   0  0  0  0  0  0  0  0  0  0  0  0
    2.9336   -1.0990    0.1836 O   0  0  0  0  0  0  0  0  0  0  0  0
    3.0108    0.7943    3.0216 C   0  0  0  0  0  0  0  0  0  0  0  0
    4.1825   -1.8794    1.9541 H   0  0  0  0  0  0  0  0  0  0  0  0
    1.6796   -0.9055    3.0404 H   0  0  0  0  0  0  0  0  0  0  0  0
    3.9085    1.1360    2.4967 H   0  0  0  0  0  0  0  0  0  0  0  0
    2.2147    1.5284    2.8674 H   0  0  0  0  0  0  0  0  0  0  0  0
    3.2308    0.7486    4.0930 H   0  0  0  0  0  0  0  0  0  0  0  0
    1.1268    0.1938    0.5715 N   0  0  0  0  0  0  0  0  0  0  0  0
    0.5062   -0.0759   -0.7442 C   0  0  2  0  0  0  0  0  0  0  0  0
   -0.4584    1.0056   -1.2553 C   0  0  0  0  0  0  0  0  0  0  0  0
   -1.0802    0.8227   -2.2937 O   0  0  0  0  0  0  0  0  0  0  0  0
   -0.2769   -1.3934   -0.5948 C   0  0  0  0  0  0  0  0  0  0  0  0
   -1.3731   -1.2308    0.3252 O   0  0  0  0  0  0  0  0  0  0  0  0
    0.4668    0.3844    1.3224 H   0  0  0  0  0  0  0  0  0  0  0  0
    1.2816   -0.1960   -1.5080 H   0  0  0  0  0  0  0  0  0  0  0  0
    0.3844   -2.1907   -0.2410 H   0  0  0  0  0  0  0  0  0  0  0  0
   -0.6647   -1.7060   -1.5702 H   0  0  0  0  0  0  0  0  0  0  0  0
   -2.0484   -0.5830    0.0122 H   0  0  0  0  0  0  0  0  0  0  0  0
   -0.7051    2.1427   -0.5024 N   0  0  0  0  0  0  0  0  0  0  0  0
   -1.9692    2.8962   -0.6009 C   0  0  2  0  0  0  0  0  0  0  0  0
   -3.2168    1.9751   -0.5074 C   0  0  0  0  0  0  0  0  0  0  0  0
   -3.1703    0.9639    0.1892 O   0  0  0  0  0  0  0  0  0  0  0  0
   -1.9568    3.7797   -1.8591 C   0  0  0  0  0  0  0  0  0  0  0  0
   -0.2062    2.1818    0.3800 H   0  0  0  0  0  0  0  0  0  0  0  0
   -2.0244    3.5670    0.2615 H   0  0  0  0  0  0  0  0  0  0  0  0
   -2.0252    3.1739   -2.7678 H   0  0  0  0  0  0  0  0  0  0  0  0
   -2.7977    4.4793   -1.8450 H   0  0  0  0  0  0  0  0  0  0  0  0
   -1.0307    4.3609   -1.9020 H   0  0  0  0  0  0  0  0  0  0  0  0
   -4.3943    2.2808   -1.1655 N   0  0  0  0  0  0  0  0  0  0  0  0
   -5.5464    1.3874   -1.1839 C   0  0  0  0  0  0  0  0  0  0  0  0
   -4.3552    3.0333   -1.8462 H   0  0  0  0  0  0  0  0  0  0  0  0
   -6.3623    1.8345   -1.7602 H   0  0  0  0  0  0  0  0  0  0  0  0
   -5.2814    0.4294   -1.6440 H   0  0  0  0  0  0  0  0  0  0  0  0
   -5.9049    1.2031   -0.1656 H   0  0  0  0  0  0  0  0  0  0  0  0
  1  2  2  0  0  0  0
  1  3  1  0  0  0  0
  1  7  1  0  0  0  0
  3  4  1  0  0  0  0
  3  5  1  0  0  0  0
  3  6  1  0  0  0  0
  7  8  1  0  0  0  0
  7 12  1  0  0  0  0
  8  9  1  0  0  0  0
  8 11  1  0  0  0  0
  8 13  1  0  0  0  0
  9 10  2  0  0  0  0
  9 17  1  0  0  0  0
 11 14  1  0  0  0  0
 11 15  1  0  0  0  0
 11 16  1  0  0  0  0
 17 18  1  0  0  0  0
 17 23  1  0  0  0  0
 18 19  1  0  0  0  0
 18 21  1  0  0  0  0
 18 24  1  0  0  0  0
 19 20  2  0  0  0  0
 19 28  1  0  0  0  0
 21 22  1  0  0  0  0
 21 25  1  0  0  0  0
 21 26  1  0  0  0  0
 22 27  1  0  0  0  0
 28 29  1  0  0  0  0
 28 33  1  0  0  0  0
 29 30  1  0  0  0  0
 29 32  1  0  0  0  0
 29 34  1  0  0  0  0
 30 31  2  0  0  0  0
 30 38  1  0  0  0  0
 32 35  1  0  0  0  0
 32 36  1  0  0  0  0
 32 37  1  0  0  0  0
 38 39  1  0  0  0  0
 38 40  1  0  0  0  0
 39 41  1  0  0  0  0
 39 42  1  0  0  0  0
 39 43  1  0  0  0  0
M  END
$$$$

  -OEChem-05262217303D

 43 42  0     1  0  0  0  0  0999 V2000
    3.7572   -2.1194    3.9920 C   0  0  0  0  0  0  0  0  0  0  0  0
    3.0256   -1.8535    4.9322 O   0  0  0  0  0  0  0  0  0  0  0  0
    4.8436   -3.1673    4.1446 C   0  0  0  0  0  0  0  0  0  0  0  0
    5.8183   -2.7327    3.9093 H   0  0  0  0  0  0  0  0  0  0  0  0
    4.8643   -3.5418    5.1720 H   0  0  0  0  0  0  0  0  0  0  0  0
    4.6525   -4.0039    3.4680 H   0  0  0  0  0  0  0  0  0  0  0  0
    3.5937   -1.4715    2.7863 N   0  0  0  0  0  0  0  0  0  0  0  0
    2.4870   -0.5564    2.4783 C   0  0  2  0  0  0  0  0  0  0  0  0
    2.1905   -0.5223    0.9631 C   0  0  0  0  0  0  0  0  0  0  0  0
    2.9353   -1.0980    0.1762 O   0  0  0  0  0  0  0  0  0  0  0  0
    2.8485    0.8425    2.9907 C   0  0  0  0  0  0  0  0  0  0  0  0
    4.1404   -1.8108    1.9952 H   0  0  0  0  0  0  0  0  0  0  0  0
    1.5770   -0.9016    2.9819 H   0  0  0  0  0  0  0  0  0  0  0  0
    3.7499    1.2120    2.4916 H   0  0  0  0  0  0  0  0  0  0  0  0
    2.0313    1.5452    2.8033 H   0  0  0  0  0  0  0  0  0  0  0  0
    3.0346    0.8158    4.0690 H   0  0  0  0  0  0  0  0  0  0  0  0
    1.0916    0.1601    0.4701 N   0  0  0  0  0  0  0  0  0  0  0  0
    0.5155   -0.1680   -0.8524 C   0  0  2  0  0  0  0  0  0  0  0  0
   -0.4418    0.9116   -1.3894 C   0  0  0  0  0  0  0  0  0  0  0  0
   -1.2853    0.6328   -2.2323 O   0  0  0  0  0  0  0  0  0  0  0  0
   -0.2269   -1.5095   -0.7116 C   0  0  0  0  0  0  0  0  0  0  0  0
   -1.3537   -1.3615    0.1661 O   0  0  0  0  0  0  0  0  0  0  0  0
    0.4038    0.3824    1.1895 H   0  0  0  0  0  0  0  0  0  0  0  0
    1.3152   -0.2778   -1.5922 H   0  0  0  0  0  0  0  0  0  0  0  0
    0.4469   -2.2780   -0.3193 H   0  0  0  0  0  0  0  0  0  0  0  0
   -0.5698   -1.8509   -1.6939 H   0  0  0  0  0  0  0  0  0  0  0  0
   -2.0096   -0.7348   -0.2023 H   0  0  0  0  0  0  0  0  0  0  0  0
   -0.4466    2.1696   -0.8090 N   0  0  0  0  0  0  0  0  0  0  0  0
   -1.6156    3.0665   -0.8374 C   0  0  2  0  0  0  0  0  0  0  0  0
   -2.8995    2.3580   -0.3328 C   0  0  0  0  0  0  0  0  0  0  0  0
   -2.8247    1.6116    0.6382 O   0  0  0  0  0  0  0  0  0  0  0  0
   -1.7644    3.7052   -2.2287 C   0  0  0  0  0  0  0  0  0  0  0  0
    0.2077    2.2779   -0.0397 H   0  0  0  0  0  0  0  0  0  0  0  0
   -1.4280    3.8816   -0.1322 H   0  0  0  0  0  0  0  0  0  0  0  0
   -2.0548    2.9632   -2.9788 H   0  0  0  0  0  0  0  0  0  0  0  0
   -2.5244    4.4921   -2.2076 H   0  0  0  0  0  0  0  0  0  0  0  0
   -0.8159    4.1547   -2.5386 H   0  0  0  0  0  0  0  0  0  0  0  0
   -4.1261    2.5457   -0.9438 N   0  0  0  0  0  0  0  0  0  0  0  0
   -5.3177    1.7935   -0.5705 C   0  0  0  0  0  0  0  0  0  0  0  0
   -4.1195    3.0289   -1.8371 H   0  0  0  0  0  0  0  0  0  0  0  0
   -6.1624    2.0867   -1.2014 H   0  0  0  0  0  0  0  0  0  0  0  0
   -5.1485    0.7188   -0.6959 H   0  0  0  0  0  0  0  0  0  0  0  0
   -5.5831    1.9891    0.4738 H   0  0  0  0  0  0  0  0  0  0  0  0
  1  2  2  0  0  0  0
  1  3  1  0  0  0  0
  1  7  1  0  0  0  0
  3  4  1  0  0  0  0
  3  5  1  0  0  0  0
  3  6  1  0  0  0  0
  7  8  1  0  0  0  0
  7 12  1  0  0  0  0
  8  9  1  0  0  0  0
  8 11  1  0  0  0  0
  8 13  1  0  0  0  0
  9 10  2  0  0  0  0
  9 17  1  0  0  0  0
 11 14  1  0  0  0  0
 11 15  1  0  0  0  0
 11 16  1  0  0  0  0
 17 18  1  0  0  0  0
 17 23  1  0  0  0  0
 18 19  1  0  0  0  0
 18 21  1  0  0  0  0
 18 24  1  0  0  0  0
 19 20  2  0  0  0  0
 19 28  1  0  0  0  0
 21 22  1  0  0  0  0
 21 25  1  0  0  0  0
 21 26  1  0  0  0  0
 22 27  1  0  0  0  0
 28 29  1  0  0  0  0
 28 33  1  0  0  0  0
 29 30  1  0  0  0  0
 29 32  1  0  0  0  0
 29 34  1  0  0  0  0
 30 31  2  0  0  0  0
 30 38  1  0  0  0  0
 32 35  1  0  0  0  0
 32 36  1  0  0  0  0
 32 37  1  0  0  0  0
 38 39  1  0  0  0  0
 38 40  1  0  0  0  0
 39 41  1  0  0  0  0
 39 42  1  0  0  0  0
 39 43  1  0  0  0  0
M  END
$$$$

  -OEChem-05262217303D

 43 42  0     1  0  0  0  0  0999 V2000
    3.0210   -1.7033    4.1166 C   0  0  0  0  0  0  0  0  0  0  0  0
    2.1764   -1.3058    4.9030 O   0  0  0  0  0  0  0  0  0  0  0  0
    4.0222   -2.7585    4.5485 C   0  0  0  0  0  0  0  0  0  0  0  0
    5.0407   -2.3843    4.4185 H   0  0  0  0  0  0  0  0  0  0  0  0
    3.8720   -3.0116    5.6019 H   0  0  0  0  0  0  0  0  0  0  0  0
    3.8935   -3.6619    3.9473 H   0  0  0  0  0  0  0  0  0  0  0  0
    3.0600   -1.2066    2.8308 N   0  0  0  0  0  0  0  0  0  0  0  0
    2.0356   -0.3279    2.2487 C   0  0  2  0  0  0  0  0  0  0  0  0
    1.9576   -0.4939    0.7154 C   0  0  0  0  0  0  0  0  0  0  0  0
    2.7756   -1.1900    0.1212 O   0  0  0  0  0  0  0  0  0  0  0  0
    2.3578    1.1238    2.6204 C   0  0  0  0  0  0  0  0  0  0  0  0
    3.6961   -1.6601    2.1757 H   0  0  0  0  0  0  0  0  0  0  0  0
    1.0524   -0.5919    2.6544 H   0  0  0  0  0  0  0  0  0  0  0  0
    3.3241    1.4211    2.2013 H   0  0  0  0  0  0  0  0  0  0  0  0
    1.5859    1.7983    2.2373 H   0  0  0  0  0  0  0  0  0  0  0  0
    2.3996    1.2374    3.7083 H   0  0  0  0  0  0  0  0  0  0  0  0
    0.9806    0.1527   -0.0156 N   0  0  0  0  0  0  0  0  0  0  0  0
    0.6134   -0.2346   -1.3939 C   0  0  2  0  0  0  0  0  0  0  0  0
   -0.2152    0.8859   -2.0593 C   0  0  0  0  0  0  0  0  0  0  0  0
   -1.2666    0.6299   -2.6360 O   0  0  0  0  0  0  0  0  0  0  0  0
   -0.1405   -1.5787   -1.3735 C   0  0  0  0  0  0  0  0  0  0  0  0
   -1.4020   -1.4422   -0.7089 O   0  0  0  0  0  0  0  0  0  0  0  0
    0.2399    0.5925    0.5437 H   0  0  0  0  0  0  0  0  0  0  0  0
    1.5214   -0.3612   -1.9916 H   0  0  0  0  0  0  0  0  0  0  0  0
    0.4608   -2.3396   -0.8660 H   0  0  0  0  0  0  0  0  0  0  0  0
   -0.3059   -1.9231   -2.3997 H   0  0  0  0  0  0  0  0  0  0  0  0
   -1.9607   -0.8243   -1.2230 H   0  0  0  0  0  0  0  0  0  0  0  0
    0.0378    2.1877   -1.6530 N   0  0  0  0  0  0  0  0  0  0  0  0
   -1.0373    3.0957   -1.2153 C   0  0  2  0  0  0  0  0  0  0  0  0
   -1.8050    2.4677   -0.0262 C   0  0  0  0  0  0  0  0  0  0  0  0
   -1.1521    1.9703    0.8885 O   0  0  0  0  0  0  0  0  0  0  0  0
   -1.9319    3.5609   -2.3785 C   0  0  0  0  0  0  0  0  0  0  0  0
    0.8816    2.2398   -1.0860 H   0  0  0  0  0  0  0  0  0  0  0  0
   -0.5588    3.9977   -0.8216 H   0  0  0  0  0  0  0  0  0  0  0  0
   -2.5709    2.7542   -2.7478 H   0  0  0  0  0  0  0  0  0  0  0  0
   -2.5752    4.3840   -2.0528 H   0  0  0  0  0  0  0  0  0  0  0  0
   -1.3134    3.9168   -3.2083 H   0  0  0  0  0  0  0  0  0  0  0  0
   -3.1840    2.3769   -0.0012 N   0  0  0  0  0  0  0  0  0  0  0  0
   -3.9062    1.6062    1.0045 C   0  0  0  0  0  0  0  0  0  0  0  0
   -3.6753    2.6487   -0.8483 H   0  0  0  0  0  0  0  0  0  0  0  0
   -4.9855    1.6980    0.8486 H   0  0  0  0  0  0  0  0  0  0  0  0
   -3.6353    0.5465    0.9428 H   0  0  0  0  0  0  0  0  0  0  0  0
   -3.6728    1.9712    2.0103 H   0  0  0  0  0  0  0  0  0  0  0  0
  1  2  2  0  0  0  0
  1  3  1  0  0  0  0
  1  7  1  0  0  0  0
  3  4  1  0  0  0  0
  3  5  1  0  0  0  0
  3  6  1  0  0  0  0
  7  8  1  0  0  0  0
  7 12  1  0  0  0  0
  8  9  1  0  0  0  0
  8 11  1  0  0  0  0
  8 13  1  0  0  0  0
  9 10  2  0  0  0  0
  9 17  1  0  0  0  0
 11 14  1  0  0  0  0
 11 15  1  0  0  0  0
 11 16  1  0  0  0  0
 17 18  1  0  0  0  0
 17 23  1  0  0  0  0
 18 19  1  0  0  0  0
 18 21  1  0  0  0  0
 18 24  1  0  0  0  0
 19 20  2  0  0  0  0
 19 28  1  0  0  0  0
 21 22  1  0  0  0  0
 21 25  1  0  0  0  0
 21 26  1  0  0  0  0
 22 27  1  0  0  0  0
 28 29  1  0  0  0  0
 28 33  1  0  0  0  0
 29 30  1  0  0  0  0
 29 32  1  0  0  0  0
 29 34  1  0  0  0  0
 30 31  2  0  0  0  0
 30 38  1  0  0  0  0
 32 35  1  0  0  0  0
 32 36  1  0  0  0  0
 32 37  1  0  0  0  0
 38 39  1  0  0  0  0
 38 40  1  0  0  0  0
 39 41  1  0  0  0  0
 39 42  1  0  0  0  0
 39 43  1  0  0  0  0
M  END
$$$$

  -OEChem-05262217303D

 43 42  0     1  0  0  0  0  0999 V2000
    3.1170   -1.5600    4.1386 C   0  0  0  0  0  0  0  0  0  0  0  0
    2.2482   -1.1995    4.9165 O   0  0  0  0  0  0  0  0  0  0  0  0
    4.1968   -2.5229    4.5957 C   0  0  0  0  0  0  0  0  0  0  0  0
    5.1769   -2.0454    4.5227 H   0  0  0  0  0  0  0  0  0  0  0  0
    4.0240   -2.8171    5.6347 H   0  0  0  0  0  0  0  0  0  0  0  0
    4.1878   -3.4187    3.9699 H   0  0  0  0  0  0  0  0  0  0  0  0
    3.1201   -1.0987    2.8396 N   0  0  0  0  0  0  0  0  0  0  0  0
    2.0342   -0.3148    2.2357 C   0  0  2  0  0  0  0  0  0  0  0  0
    1.9490   -0.5580    0.7138 C   0  0  0  0  0  0  0  0  0  0  0  0
    2.8005   -1.2306    0.1397 O   0  0  0  0  0  0  0  0  0  0  0  0
    2.2688    1.1697    2.5375 C   0  0  0  0  0  0  0  0  0  0  0  0
    3.7805   -1.5316    2.1947 H   0  0  0  0  0  0  0  0  0  0  0  0
    1.0745   -0.6210    2.6671 H   0  0  0  0  0  0  0  0  0  0  0  0
    3.2120    1.5071    2.0968 H   0  0  0  0  0  0  0  0  0  0  0  0
    1.4547    1.7780    2.1316 H   0  0  0  0  0  0  0  0  0  0  0  0
    2.3105    1.3344    3.6188 H   0  0  0  0  0  0  0  0  0  0  0  0
    0.9318    0.0003   -0.0331 N   0  0  0  0  0  0  0  0  0  0  0  0
    0.5971   -0.4186   -1.4078 C   0  0  2  0  0  0  0  0  0  0  0  0
   -0.3097    0.6463   -2.0561 C   0  0  0  0  0  0  0  0  0  0  0  0
   -1.4386    0.3739   -2.4514 O   0  0  0  0  0  0  0  0  0  0  0  0
   -0.0510   -1.8172   -1.3859 C   0  0  0  0  0  0  0  0  0  0  0  0
   -1.3200   -1.7808   -0.7230 O   0  0  0  0  0  0  0  0  0  0  0  0
    0.1973    0.4827    0.4973 H   0  0  0  0  0  0  0  0  0  0  0  0
    1.5114   -0.4775   -2.0064 H   0  0  0  0  0  0  0  0  0  0  0  0
    0.6067   -2.5311   -0.8798 H   0  0  0  0  0  0  0  0  0  0  0  0
   -0.1895   -2.1698   -2.4133 H   0  0  0  0  0  0  0  0  0  0  0  0
   -1.9003   -1.1473   -1.1960 H   0  0  0  0  0  0  0  0  0  0  0  0
    0.0612    1.9709   -1.8837 N   0  0  0  0  0  0  0  0  0  0  0  0
   -0.9159    3.0097   -1.5094 C   0  0  2  0  0  0  0  0  0  0  0  0
   -1.6608    2.6231   -0.2049 C   0  0  0  0  0  0  0  0  0  0  0  0
   -1.0264    2.0878    0.7021 O   0  0  0  0  0  0  0  0  0  0  0  0
   -1.8466    3.3727   -2.6796 C   0  0  0  0  0  0  0  0  0  0  0  0
    0.9635    2.0519   -1.4198 H   0  0  0  0  0  0  0  0  0  0  0  0
   -0.3505    3.9166   -1.2744 H   0  0  0  0  0  0  0  0  0  0  0  0
   -2.5665    2.5752   -2.8843 H   0  0  0  0  0  0  0  0  0  0  0  0
   -2.4036    4.2861   -2.4499 H   0  0  0  0  0  0  0  0  0  0  0  0
   -1.2592    3.5484   -3.5860 H   0  0  0  0  0  0  0  0  0  0  0  0
   -3.0131    2.8557   -0.0355 N   0  0  0  0  0  0  0  0  0  0  0  0
   -3.7602    2.3827    1.1241 C   0  0  0  0  0  0  0  0  0  0  0  0
   -3.5310    3.1633   -0.8537 H   0  0  0  0  0  0  0  0  0  0  0  0
   -4.8058    2.6982    1.0546 H   0  0  0  0  0  0  0  0  0  0  0  0
   -3.7306    1.2894    1.1792 H   0  0  0  0  0  0  0  0  0  0  0  0
   -3.3382    2.7937    2.0473 H   0  0  0  0  0  0  0  0  0  0  0  0
  1  2  2  0  0  0  0
  1  3  1  0  0  0  0
  1  7  1  0  0  0  0
  3  4  1  0  0  0  0
  3  5  1  0  0  0  0
  3  6  1  0  0  0  0
  7  8  1  0  0  0  0
  7 12  1  0  0  0  0
  8  9  1  0  0  0  0
  8 11  1  0  0  0  0
  8 13  1  0  0  0  0
  9 10  2  0  0  0  0
  9 17  1  0  0  0  0
 11 14  1  0  0  0  0
 11 15  1  0  0  0  0
 11 16  1  0  0  0  0
 17 18  1  0  0  0  0
 17 23  1  0  0  0  0
 18 19  1  0  0  0  0
 18 21  1  0  0  0  0
 18 24  1  0  0  0  0
 19 20  2  0  0  0  0
 19 28  1  0  0  0  0
 21 22  1  0  0  0  0
 21 25  1  0  0  0  0
 21 26  1  0  0  0  0
 22 27  1  0  0  0  0
 28 29  1  0  0  0  0
 28 33  1  0  0  0  0
 29 30  1  0  0  0  0
 29 32  1  0  0  0  0
 29 34  1  0  0  0  0
 30 31  2  0  0  0  0
 30 38  1  0  0  0  0
 32 35  1  0  0  0  0
 32 36  1  0  0  0  0
 32 37  1  0  0  0  0
 38 39  1  0  0  0  0
 38 40  1  0  0  0  0
 39 41  1  0  0  0  0
 39 42  1  0  0  0  0
 39 43  1  0  0  0  0
M  END
$$$$

  -OEChem-05262217303D

 43 42  0     1  0  0  0  0  0999 V2000
    3.1726   -1.4300    4.1500 C   0  0  0  0  0  0  0  0  0  0  0  0
    2.3140   -1.0377    4.9240 O   0  0  0  0  0  0  0  0  0  0  0  0
    4.2754   -2.3493    4.6411 C   0  0  0  0  0  0  0  0  0  0  0  0
    5.2455   -1.8580    4.5348 H   0  0  0  0  0  0  0  0  0  0  0  0
    4.1188   -2.5959    5.6949 H   0  0  0  0  0  0  0  0  0  0  0  0
    4.2771   -3.2746    4.0598 H   0  0  0  0  0  0  0  0  0  0  0  0
    3.1420   -1.0445    2.8266 N   0  0  0  0  0  0  0  0  0  0  0  0
    2.0418   -0.2949    2.2049 C   0  0  2  0  0  0  0  0  0  0  0  0
    1.9342   -0.6012    0.6957 C   0  0  0  0  0  0  0  0  0  0  0  0
    2.8001   -1.2622    0.1293 O   0  0  0  0  0  0  0  0  0  0  0  0
    2.2722    1.2022    2.4397 C   0  0  0  0  0  0  0  0  0  0  0  0
    3.7992   -1.4980    2.1930 H   0  0  0  0  0  0  0  0  0  0  0  0
    1.0912   -0.5889    2.6637 H   0  0  0  0  0  0  0  0  0  0  0  0
    3.2131    1.5219    1.9813 H   0  0  0  0  0  0  0  0  0  0  0  0
    1.4561    1.7904    2.0095 H   0  0  0  0  0  0  0  0  0  0  0  0
    2.3164    1.4154    3.5124 H   0  0  0  0  0  0  0  0  0  0  0  0
    0.8806   -0.1121   -0.0496 N   0  0  0  0  0  0  0  0  0  0  0  0
    0.5695   -0.5296   -1.4293 C   0  0  2  0  0  0  0  0  0  0  0  0
   -0.4120    0.4830   -2.0485 C   0  0  0  0  0  0  0  0  0  0  0  0
   -1.5912    0.2055   -2.2454 O   0  0  0  0  0  0  0  0  0  0  0  0
    0.0247   -1.9726   -1.4372 C   0  0  0  0  0  0  0  0  0  0  0  0
   -1.2405   -2.0519   -0.7713 O   0  0  0  0  0  0  0  0  0  0  0  0
    0.1699    0.4280    0.4550 H   0  0  0  0  0  0  0  0  0  0  0  0
    1.4828   -0.5137   -2.0318 H   0  0  0  0  0  0  0  0  0  0  0  0
    0.7364   -2.6502   -0.9552 H   0  0  0  0  0  0  0  0  0  0  0  0
   -0.0956   -2.3060   -2.4730 H   0  0  0  0  0  0  0  0  0  0  0  0
   -1.8511   -1.4022   -1.1836 H   0  0  0  0  0  0  0  0  0  0  0  0
    0.0145    1.7986   -2.1343 N   0  0  0  0  0  0  0  0  0  0  0  0
   -0.8856    2.9238   -1.8196 C   0  0  2  0  0  0  0  0  0  0  0  0
   -1.5136    2.7686   -0.4080 C   0  0  0  0  0  0  0  0  0  0  0  0
   -0.8446    2.2670    0.4937 O   0  0  0  0  0  0  0  0  0  0  0  0
   -1.9168    3.1512   -2.9386 C   0  0  0  0  0  0  0  0  0  0  0  0
    0.9711    1.9147   -1.8081 H   0  0  0  0  0  0  0  0  0  0  0  0
   -0.2711    3.8283   -1.7762 H   0  0  0  0  0  0  0  0  0  0  0  0
   -2.6822    2.3698   -2.9437 H   0  0  0  0  0  0  0  0  0  0  0  0
   -2.4131    4.1171   -2.8060 H   0  0  0  0  0  0  0  0  0  0  0  0
   -1.4192    3.1530   -3.9132 H   0  0  0  0  0  0  0  0  0  0  0  0
   -2.7961    3.2031   -0.1277 N   0  0  0  0  0  0  0  0  0  0  0  0
   -3.4465    2.9792    1.1584 C   0  0  0  0  0  0  0  0  0  0  0  0
   -3.3680    3.4874   -0.9176 H   0  0  0  0  0  0  0  0  0  0  0  0
   -4.4400    3.4377    1.1651 H   0  0  0  0  0  0  0  0  0  0  0  0
   -3.5575    1.9066    1.3499 H   0  0  0  0  0  0  0  0  0  0  0  0
   -2.8588    3.4229    1.9689 H   0  0  0  0  0  0  0  0  0  0  0  0
  1  2  2  0  0  0  0
  1  3  1  0  0  0  0
  1  7  1  0  0  0  0
  3  4  1  0  0  0  0
  3  5  1  0  0  0  0
  3  6  1  0  0  0  0
  7  8  1  0  0  0  0
  7 12  1  0  0  0  0
  8  9  1  0  0  0  0
  8 11  1  0  0  0  0
  8 13  1  0  0  0  0
  9 10  2  0  0  0  0
  9 17  1  0  0  0  0
 11 14  1  0  0  0  0
 11 15  1  0  0  0  0
 11 16  1  0  0  0  0
 17 18  1  0  0  0  0
 17 23  1  0  0  0  0
 18 19  1  0  0  0  0
 18 21  1  0  0  0  0
 18 24  1  0  0  0  0
 19 20  2  0  0  0  0
 19 28  1  0  0  0  0
 21 22  1  0  0  0  0
 21 25  1  0  0  0  0
 21 26  1  0  0  0  0
 22 27  1  0  0  0  0
 28 29  1  0  0  0  0
 28 33  1  0  0  0  0
 29 30  1  0  0  0  0
 29 32  1  0  0  0  0
 29 34  1  0  0  0  0
 30 31  2  0  0  0  0
 30 38  1  0  0  0  0
 32 35  1  0  0  0  0
 32 36  1  0  0  0  0
 32 37  1  0  0  0  0
 38 39  1  0  0  0  0
 38 40  1  0  0  0  0
 39 41  1  0  0  0  0
 39 42  1  0  0  0  0
 39 43  1  0  0  0  0
M  END
$$$$

  -OEChem-05262217303D

 43 42  0     1  0  0  0  0  0999 V2000
    3.2112   -1.3236    4.1478 C   0  0  0  0  0  0  0  0  0  0  0  0
    2.3642   -0.9041    4.9204 O   0  0  0  0  0  0  0  0  0  0  0  0
    4.3285   -2.2154    4.6553 C   0  0  0  0  0  0  0  0  0  0  0  0
    5.2966   -1.7506    4.4544 H   0  0  0  0  0  0  0  0  0  0  0  0
    4.2286   -2.3685    5.7335 H   0  0  0  0  0  0  0  0  0  0  0  0
    4.2873   -3.1865    4.1559 H   0  0  0  0  0  0  0  0  0  0  0  0
    3.1565   -0.9918    2.8110 N   0  0  0  0  0  0  0  0  0  0  0  0
    2.0450   -0.2687    2.1786 C   0  0  2  0  0  0  0  0  0  0  0  0
    1.9008   -0.6513    0.6898 C   0  0  0  0  0  0  0  0  0  0  0  0
    2.7707   -1.3133    0.1303 O   0  0  0  0  0  0  0  0  0  0  0  0
    2.2905    1.2365    2.3318 C   0  0  0  0  0  0  0  0  0  0  0  0
    3.8080   -1.4641    2.1852 H   0  0  0  0  0  0  0  0  0  0  0  0
    1.1045   -0.5324    2.6748 H   0  0  0  0  0  0  0  0  0  0  0  0
    3.2146    1.5277    1.8229 H   0  0  0  0  0  0  0  0  0  0  0  0
    1.4610    1.8076    1.9046 H   0  0  0  0  0  0  0  0  0  0  0  0
    2.3765    1.5018    3.3902 H   0  0  0  0  0  0  0  0  0  0  0  0
    0.8203   -0.2151   -0.0498 N   0  0  0  0  0  0  0  0  0  0  0  0
    0.5318   -0.6205   -1.4367 C   0  0  2  0  0  0  0  0  0  0  0  0
   -0.5098    0.3446   -2.0306 C   0  0  0  0  0  0  0  0  0  0  0  0
   -1.7109    0.0918   -2.0104 O   0  0  0  0  0  0  0  0  0  0  0  0
    0.0676   -2.0918   -1.4840 C   0  0  0  0  0  0  0  0  0  0  0  0
   -1.1917   -2.2678   -0.8246 O   0  0  0  0  0  0  0  0  0  0  0  0
    0.1425    0.3882    0.4249 H   0  0  0  0  0  0  0  0  0  0  0  0
    1.4435   -0.5400   -2.0364 H   0  0  0  0  0  0  0  0  0  0  0  0
    0.8166   -2.7426   -1.0219 H   0  0  0  0  0  0  0  0  0  0  0  0
   -0.0344   -2.3993   -2.5298 H   0  0  0  0  0  0  0  0  0  0  0  0
   -1.8184   -1.5860   -1.1559 H   0  0  0  0  0  0  0  0  0  0  0  0
   -0.0735    1.6107   -2.3859 N   0  0  0  0  0  0  0  0  0  0  0  0
   -0.9036    2.8036   -2.1308 C   0  0  2  0  0  0  0  0  0  0  0  0
   -1.3719    2.8771   -0.6506 C   0  0  0  0  0  0  0  0  0  0  0  0
   -0.6434    2.4359    0.2363 O   0  0  0  0  0  0  0  0  0  0  0  0
   -2.0528    2.9077   -3.1482 C   0  0  0  0  0  0  0  0  0  0  0  0
    0.9223    1.7407   -2.2257 H   0  0  0  0  0  0  0  0  0  0  0  0
   -0.2682    3.6806   -2.2874 H   0  0  0  0  0  0  0  0  0  0  0  0
   -2.8270    2.1591   -2.9557 H   0  0  0  0  0  0  0  0  0  0  0  0
   -2.5132    3.8988   -3.1007 H   0  0  0  0  0  0  0  0  0  0  0  0
   -1.6720    2.7564   -4.1629 H   0  0  0  0  0  0  0  0  0  0  0  0
   -2.5728    3.4641   -0.2955 N   0  0  0  0  0  0  0  0  0  0  0  0
   -3.0829    3.4665    1.0709 C   0  0  0  0  0  0  0  0  0  0  0  0
   -3.2079    3.7057   -1.0504 H   0  0  0  0  0  0  0  0  0  0  0  0
   -4.0225    4.0250    1.1228 H   0  0  0  0  0  0  0  0  0  0  0  0
   -3.2679    2.4425    1.4123 H   0  0  0  0  0  0  0  0  0  0  0  0
   -2.3651    3.9397    1.7492 H   0  0  0  0  0  0  0  0  0  0  0  0
  1  2  2  0  0  0  0
  1  3  1  0  0  0  0
  1  7  1  0  0  0  0
  3  4  1  0  0  0  0
  3  5  1  0  0  0  0
  3  6  1  0  0  0  0
  7  8  1  0  0  0  0
  7 12  1  0  0  0  0
  8  9  1  0  0  0  0
  8 11  1  0  0  0  0
  8 13  1  0  0  0  0
  9 10  2  0  0  0  0
  9 17  1  0  0  0  0
 11 14  1  0  0  0  0
 11 15  1  0  0  0  0
 11 16  1  0  0  0  0
 17 18  1  0  0  0  0
 17 23  1  0  0  0  0
 18 19  1  0  0  0  0
 18 21  1  0  0  0  0
 18 24  1  0  0  0  0
 19 20  2  0  0  0  0
 19 28  1  0  0  0  0
 21 22  1  0  0  0  0
 21 25  1  0  0  0  0
 21 26  1  0  0  0  0
 22 27  1  0  0  0  0
 28 29  1  0  0  0  0
 28 33  1  0  0  0  0
 29 30  1  0  0  0  0
 29 32  1  0  0  0  0
 29 34  1  0  0  0  0
 30 31  2  0  0  0  0
 30 38  1  0  0  0  0
 32 35  1  0  0  0  0
 32 36  1  0  0  0  0
 32 37  1  0  0  0  0
 38 39  1  0  0  0  0
 38 40  1  0  0  0  0
 39 41  1  0  0  0  0
 39 42  1  0  0  0  0
 39 43  1  0  0  0  0
M  END
$$$$

  -OEChem-05262217303D

 43 42  0     1  0  0  0  0  0999 V2000
    3.4702   -1.7635    4.0728 C   0  0  0  0  0  0  0  0  0  0  0  0
    2.6492   -1.4895    4.9336 O   0  0  0  0  0  0  0  0  0  0  0  0
    4.6317   -2.6850    4.3944 C   0  0  0  0  0  0  0  0  0  0  0  0
    5.5766   -2.1970    4.1432 H   0  0  0  0  0  0  0  0  0  0  0  0
    4.6348   -2.9289    5.4605 H   0  0  0  0  0  0  0  0  0  0  0  0
    4.5438   -3.6110    3.8209 H   0  0  0  0  0  0  0  0  0  0  0  0
    3.3411   -1.2354    2.8055 N   0  0  0  0  0  0  0  0  0  0  0  0
    2.2013   -0.4250    2.3575 C   0  0  2  0  0  0  0  0  0  0  0  0
    1.9875   -0.5303    0.8329 C   0  0  0  0  0  0  0  0  0  0  0  0
    2.8380   -1.0497    0.1173 O   0  0  0  0  0  0  0  0  0  0  0  0
    2.4494    1.0324    2.7635 C   0  0  0  0  0  0  0  0  0  0  0  0
    3.9819   -1.5707    2.0870 H   0  0  0  0  0  0  0  0  0  0  0  0
    1.2864   -0.7846    2.8412 H   0  0  0  0  0  0  0  0  0  0  0  0
    3.3618    1.4106    2.2915 H   0  0  0  0  0  0  0  0  0  0  0  0
    1.6106    1.6663    2.4603 H   0  0  0  0  0  0  0  0  0  0  0  0
    2.5616    1.1111    3.8496 H   0  0  0  0  0  0  0  0  0  0  0  0
    0.8487   -0.0109    0.2458 N   0  0  0  0  0  0  0  0  0  0  0  0
    0.4257   -0.3577   -1.1220 C   0  0  2  0  0  0  0  0  0  0  0  0
   -0.6372    0.6283   -1.6465 C   0  0  0  0  0  0  0  0  0  0  0  0
   -1.8254    0.4767   -1.3767 O   0  0  0  0  0  0  0  0  0  0  0  0
   -0.0732   -1.8163   -1.1556 C   0  0  0  0  0  0  0  0  0  0  0  0
   -1.2668   -1.9718   -0.3790 O   0  0  0  0  0  0  0  0  0  0  0  0
    0.1095    0.2490    0.8959 H   0  0  0  0  0  0  0  0  0  0  0  0
    1.2883   -0.2909   -1.7926 H   0  0  0  0  0  0  0  0  0  0  0  0
    0.7004   -2.4935   -0.7794 H   0  0  0  0  0  0  0  0  0  0  0  0
   -0.2812   -2.1009   -2.1923 H   0  0  0  0  0  0  0  0  0  0  0  0
   -1.9237   -1.2959   -0.6569 H   0  0  0  0  0  0  0  0  0  0  0  0
   -0.2203    1.7626   -2.3245 N   0  0  0  0  0  0  0  0  0  0  0  0
   -1.0596    2.8954   -2.7691 C   0  0  2  0  0  0  0  0  0  0  0  0
   -1.6543    3.7332   -1.6137 C   0  0  0  0  0  0  0  0  0  0  0  0
   -1.3831    4.9230   -1.5322 O   0  0  0  0  0  0  0  0  0  0  0  0
   -2.1554    2.4412   -3.7441 C   0  0  0  0  0  0  0  0  0  0  0  0
    0.7874    1.8833   -2.3974 H   0  0  0  0  0  0  0  0  0  0  0  0
   -0.4057    3.5727   -3.3288 H   0  0  0  0  0  0  0  0  0  0  0  0
   -2.9210    1.8461   -3.2383 H   0  0  0  0  0  0  0  0  0  0  0  0
   -2.6442    3.3142   -4.1877 H   0  0  0  0  0  0  0  0  0  0  0  0
   -1.7227    1.8410   -4.5501 H   0  0  0  0  0  0  0  0  0  0  0  0
   -2.4557    3.1547   -0.6497 N   0  0  0  0  0  0  0  0  0  0  0  0
   -3.0085    3.8718    0.4911 C   0  0  0  0  0  0  0  0  0  0  0  0
   -2.6040    2.1463   -0.7318 H   0  0  0  0  0  0  0  0  0  0  0  0
   -3.6256    3.1998    1.0952 H   0  0  0  0  0  0  0  0  0  0  0  0
   -2.2050    4.2666    1.1215 H   0  0  0  0  0  0  0  0  0  0  0  0
   -3.6341    4.7050    0.1540 H   0  0  0  0  0  0  0  0  0  0  0  0
  1  2  2  0  0  0  0
  1  3  1  0  0  0  0
  1  7  1  0  0  0  0
  3  4  1  0  0  0  0
  3  5  1  0  0  0  0
  3  6  1  0  0  0  0
  7  8  1  0  0  0  0
  7 12  1  0  0  0  0
  8  9  1  0  0  0  0
  8 11  1  0  0  0  0
  8 13  1  0  0  0  0
  9 10  2  0  0  0  0
  9 17  1  0  0  0  0
 11 14  1  0  0  0  0
 11 15  1  0  0  0  0
 11 16  1  0  0  0  0
 17 18  1  0  0  0  0
 17 23  1  0  0  0  0
 18 19  1  0  0  0  0
 18 21  1  0  0  0  0
 18 24  1  0  0  0  0
 19 20  2  0  0  0  0
 19 28  1  0  0  0  0
 21 22  1  0  0  0  0
 21 25  1  0  0  0  0
 21 26  1  0  0  0  0
 22 27  1  0  0  0  0
 28 29  1  0  0  0  0
 28 33  1  0  0  0  0
 29 30  1  0  0  0  0
 29 32  1  0  0  0  0
 29 34  1  0  0  0  0
 30 31  2  0  0  0  0
 30 38  1  0  0  0  0
 32 35  1  0  0  0  0
 32 36  1  0  0  0  0
 32 37  1  0  0  0  0
 38 39  1  0  0  0  0
 38 40  1  0  0  0  0
 39 41  1  0  0  0  0
 39 42  1  0  0  0  0
 39 43  1  0  0  0  0
M  END
$$$$

  -OEChem-05262217303D

 43 42  0     1  0  0  0  0  0999 V2000
    3.5225   -1.7541    4.0618 C   0  0  0  0  0  0  0  0  0  0  0  0
    2.6998   -1.5203    4.9327 O   0  0  0  0  0  0  0  0  0  0  0  0
    4.7103   -2.6506    4.3558 C   0  0  0  0  0  0  0  0  0  0  0  0
    5.6407   -2.1211    4.1361 H   0  0  0  0  0  0  0  0  0  0  0  0
    4.7108   -2.9415    5.4099 H   0  0  0  0  0  0  0  0  0  0  0  0
    4.6585   -3.5531    3.7419 H   0  0  0  0  0  0  0  0  0  0  0  0
    3.3724   -1.2044    2.8064 N   0  0  0  0  0  0  0  0  0  0  0  0
    2.2042   -0.4254    2.3756 C   0  0  2  0  0  0  0  0  0  0  0  0
    1.9801   -0.5324    0.8523 C   0  0  0  0  0  0  0  0  0  0  0  0
    2.8293   -1.0482    0.1322 O   0  0  0  0  0  0  0  0  0  0  0  0
    2.4141    1.0361    2.7897 C   0  0  0  0  0  0  0  0  0  0  0  0
    4.0130   -1.5169    2.0774 H   0  0  0  0  0  0  0  0  0  0  0  0
    1.3042   -0.8148    2.8644 H   0  0  0  0  0  0  0  0  0  0  0  0
    3.3086    1.4459    2.3096 H   0  0  0  0  0  0  0  0  0  0  0  0
    1.5529    1.6470    2.5028 H   0  0  0  0  0  0  0  0  0  0  0  0
    2.5381    1.1094    3.8751 H   0  0  0  0  0  0  0  0  0  0  0  0
    0.8316   -0.0283    0.2709 N   0  0  0  0  0  0  0  0  0  0  0  0
    0.4105   -0.3736   -1.0976 C   0  0  2  0  0  0  0  0  0  0  0  0
   -0.6695    0.5890   -1.6270 C   0  0  0  0  0  0  0  0  0  0  0  0
   -1.8069    0.5514   -1.1660 O   0  0  0  0  0  0  0  0  0  0  0  0
   -0.0839   -1.8326   -1.1368 C   0  0  0  0  0  0  0  0  0  0  0  0
   -1.2783   -1.9933   -0.3615 O   0  0  0  0  0  0  0  0  0  0  0  0
    0.0922    0.2315    0.9207 H   0  0  0  0  0  0  0  0  0  0  0  0
    1.2749   -0.2975   -1.7648 H   0  0  0  0  0  0  0  0  0  0  0  0
    0.6909   -2.5104   -0.7642 H   0  0  0  0  0  0  0  0  0  0  0  0
   -0.2924   -2.1121   -2.1747 H   0  0  0  0  0  0  0  0  0  0  0  0
   -1.9135   -1.2765   -0.5806 H   0  0  0  0  0  0  0  0  0  0  0  0
   -0.3282    1.5534   -2.5619 N   0  0  0  0  0  0  0  0  0  0  0  0
   -1.1993    2.6171   -3.1051 C   0  0  2  0  0  0  0  0  0  0  0  0
   -1.6228    3.6868   -2.0720 C   0  0  0  0  0  0  0  0  0  0  0  0
   -1.3399    4.8601   -2.2716 O   0  0  0  0  0  0  0  0  0  0  0  0
   -2.4215    2.0288   -3.8245 C   0  0  0  0  0  0  0  0  0  0  0  0
    0.6562    1.5946   -2.8147 H   0  0  0  0  0  0  0  0  0  0  0  0
   -0.6149    3.1478   -3.8642 H   0  0  0  0  0  0  0  0  0  0  0  0
   -3.1162    1.5640   -3.1191 H   0  0  0  0  0  0  0  0  0  0  0  0
   -2.9586    2.8205   -4.3567 H   0  0  0  0  0  0  0  0  0  0  0  0
   -2.1072    1.2749   -4.5525 H   0  0  0  0  0  0  0  0  0  0  0  0
   -2.2877    3.3396   -0.9128 N   0  0  0  0  0  0  0  0  0  0  0  0
   -2.6696    4.2880    0.1243 C   0  0  0  0  0  0  0  0  0  0  0  0
   -2.4546    2.3410   -0.7690 H   0  0  0  0  0  0  0  0  0  0  0  0
   -3.1877    3.7707    0.9375 H   0  0  0  0  0  0  0  0  0  0  0  0
   -1.7833    4.7811    0.5368 H   0  0  0  0  0  0  0  0  0  0  0  0
   -3.3411    5.0505   -0.2839 H   0  0  0  0  0  0  0  0  0  0  0  0
  1  2  2  0  0  0  0
  1  3  1  0  0  0  0
  1  7  1  0  0  0  0
  3  4  1  0  0  0  0
  3  5  1  0  0  0  0
  3  6  1  0  0  0  0
  7  8  1  0  0  0  0
  7 12  1  0  0  0  0
  8  9  1  0  0  0  0
  8 11  1  0  0  0  0
  8 13  1  0  0  0  0
  9 10  2  0  0  0  0
  9 17  1  0  0  0  0
 11 14  1  0  0  0  0
 11 15  1  0  0  0  0
 11 16  1  0  0  0  0
 17 18  1  0  0  0  0
 17 23  1  0  0  0  0
 18 19  1  0  0  0  0
 18 21  1  0  0  0  0
 18 24  1  0  0  0  0
 19 20  2  0  0  0  0
 19 28  1  0  0  0  0
 21 22  1  0  0  0  0
 21 25  1  0  0  0  0
 21 26  1  0  0  0  0
 22 27  1  0  0  0  0
 28 29  1  0  0  0  0
 28 33  1  0  0  0  0
 29 30  1  0  0  0  0
 29 32  1  0  0  0  0
 29 34  1  0  0  0  0
 30 31  2  0  0  0  0
 30 38  1  0  0  0  0
 32 35  1  0  0  0  0
 32 36  1  0  0  0  0
 32 37  1  0  0  0  0
 38 39  1  0  0  0  0
 38 40  1  0  0  0  0
 39 41  1  0  0  0  0
 39 42  1  0  0  0  0
 39 43  1  0  0  0  0
M  END
$$$$

  -OEChem-05262217303D

 43 42  0     1  0  0  0  0  0999 V2000
    3.5650   -1.7382    4.0563 C   0  0  0  0  0  0  0  0  0  0  0  0
    2.7488   -1.5022    4.9328 O   0  0  0  0  0  0  0  0  0  0  0  0
    4.7574   -2.6307    4.3445 C   0  0  0  0  0  0  0  0  0  0  0  0
    5.6851   -2.0824    4.1638 H   0  0  0  0  0  0  0  0  0  0  0  0
    4.7395   -2.9585    5.3876 H   0  0  0  0  0  0  0  0  0  0  0  0
    4.7301   -3.5111    3.6979 H   0  0  0  0  0  0  0  0  0  0  0  0
    3.4050   -1.1922    2.8005 N   0  0  0  0  0  0  0  0  0  0  0  0
    2.2321   -0.4172    2.3758 C   0  0  2  0  0  0  0  0  0  0  0  0
    1.9853   -0.5450    0.8577 C   0  0  0  0  0  0  0  0  0  0  0  0
    2.8241   -1.0702    0.1320 O   0  0  0  0  0  0  0  0  0  0  0  0
    2.4520    1.0491    2.7651 C   0  0  0  0  0  0  0  0  0  0  0  0
    4.0409   -1.5051    2.0677 H   0  0  0  0  0  0  0  0  0  0  0  0
    1.3385   -0.7960    2.8840 H   0  0  0  0  0  0  0  0  0  0  0  0
    3.3387    1.4496    2.2631 H   0  0  0  0  0  0  0  0  0  0  0  0
    1.5866    1.6572    2.4847 H   0  0  0  0  0  0  0  0  0  0  0  0
    2.5954    1.1372    3.8469 H   0  0  0  0  0  0  0  0  0  0  0  0
    0.8286   -0.0494    0.2859 N   0  0  0  0  0  0  0  0  0  0  0  0
    0.4014   -0.3864   -1.0823 C   0  0  2  0  0  0  0  0  0  0  0  0
   -0.6909    0.5641   -1.6017 C   0  0  0  0  0  0  0  0  0  0  0  0
   -1.7504    0.6584   -0.9886 O   0  0  0  0  0  0  0  0  0  0  0  0
   -0.1040   -1.8397   -1.1258 C   0  0  0  0  0  0  0  0  0  0  0  0
   -1.2984   -1.9906   -0.3465 O   0  0  0  0  0  0  0  0  0  0  0  0
    0.0965    0.2311    0.9359 H   0  0  0  0  0  0  0  0  0  0  0  0
    1.2624   -0.3052   -1.7532 H   0  0  0  0  0  0  0  0  0  0  0  0
    0.6659   -2.5256   -0.7580 H   0  0  0  0  0  0  0  0  0  0  0  0
   -0.3178   -2.1131   -2.1645 H   0  0  0  0  0  0  0  0  0  0  0  0
   -1.9085   -1.2396   -0.5118 H   0  0  0  0  0  0  0  0  0  0  0  0
   -0.4683    1.3242   -2.7386 N   0  0  0  0  0  0  0  0  0  0  0  0
   -1.3931    2.3015   -3.3507 C   0  0  2  0  0  0  0  0  0  0  0  0
   -1.6664    3.5560   -2.4886 C   0  0  0  0  0  0  0  0  0  0  0  0
   -1.3864    4.6615   -2.9312 O   0  0  0  0  0  0  0  0  0  0  0  0
   -2.7056    1.6323   -3.7832 C   0  0  0  0  0  0  0  0  0  0  0  0
    0.4628    1.2573   -3.1426 H   0  0  0  0  0  0  0  0  0  0  0  0
   -0.9105    2.6653   -4.2640 H   0  0  0  0  0  0  0  0  0  0  0  0
   -3.2976    1.3166   -2.9196 H   0  0  0  0  0  0  0  0  0  0  0  0
   -3.3073    2.3350   -4.3679 H   0  0  0  0  0  0  0  0  0  0  0  0
   -2.4988    0.7556   -4.4041 H   0  0  0  0  0  0  0  0  0  0  0  0
   -2.2046    3.4509   -1.2216 N   0  0  0  0  0  0  0  0  0  0  0  0
   -2.4391    4.5842   -0.3376 C   0  0  0  0  0  0  0  0  0  0  0  0
   -2.3524    2.5012   -0.8722 H   0  0  0  0  0  0  0  0  0  0  0  0
   -2.9225    4.2483    0.5849 H   0  0  0  0  0  0  0  0  0  0  0  0
   -1.4929    5.0696   -0.0774 H   0  0  0  0  0  0  0  0  0  0  0  0
   -3.0919    5.3185   -0.8211 H   0  0  0  0  0  0  0  0  0  0  0  0
  1  2  2  0  0  0  0
  1  3  1  0  0  0  0
  1  7  1  0  0  0  0
  3  4  1  0  0  0  0
  3  5  1  0  0  0  0
  3  6  1  0  0  0  0
  7  8  1  0  0  0  0
  7 12  1  0  0  0  0
  8  9  1  0  0  0  0
  8 11  1  0  0  0  0
  8 13  1  0  0  0  0
  9 10  2  0  0  0  0
  9 17  1  0  0  0  0
 11 14  1  0  0  0  0
 11 15  1  0  0  0  0
 11 16  1  0  0  0  0
 17 18  1  0  0  0  0
 17 23  1  0  0  0  0
 18 19  1  0  0  0  0
 18 21  1  0  0  0  0
 18 24  1  0  0  0  0
 19 20  2  0  0  0  0
 19 28  1  0  0  0  0
 21 22  1  0  0  0  0
 21 25  1  0  0  0  0
 21 26  1  0  0  0  0
 22 27  1  0  0  0  0
 28 29  1  0  0  0  0
 28 33  1  0  0  0  0
 29 30  1  0  0  0  0
 29 32  1  0  0  0  0
 29 34  1  0  0  0  0
 30 31  2  0  0  0  0
 30 38  1  0  0  0  0
 32 35  1  0  0  0  0
 32 36  1  0  0  0  0
 32 37  1  0  0  0  0
 38 39  1  0  0  0  0
 38 40  1  0  0  0  0
 39 41  1  0  0  0  0
 39 42  1  0  0  0  0
 39 43  1  0  0  0  0
M  END
$$$$

  -OEChem-05262217303D

 43 42  0     1  0  0  0  0  0999 V2000
    3.5997   -1.7208    4.0472 C   0  0  0  0  0  0  0  0  0  0  0  0
    2.7965   -1.4636    4.9296 O   0  0  0  0  0  0  0  0  0  0  0  0
    4.7724   -2.6409    4.3295 C   0  0  0  0  0  0  0  0  0  0  0  0
    5.7109   -2.0939    4.2116 H   0  0  0  0  0  0  0  0  0  0  0  0
    4.7129   -3.0239    5.3523 H   0  0  0  0  0  0  0  0  0  0  0  0
    4.7609   -3.4859    3.6367 H   0  0  0  0  0  0  0  0  0  0  0  0
    3.4402   -1.1777    2.7900 N   0  0  0  0  0  0  0  0  0  0  0  0
    2.2700   -0.3964    2.3686 C   0  0  2  0  0  0  0  0  0  0  0  0
    2.0110   -0.5291    0.8530 C   0  0  0  0  0  0  0  0  0  0  0  0
    2.8401   -1.0637    0.1229 O   0  0  0  0  0  0  0  0  0  0  0  0
    2.4972    1.0706    2.7503 C   0  0  0  0  0  0  0  0  0  0  0  0
    4.0606   -1.5113    2.0531 H   0  0  0  0  0  0  0  0  0  0  0  0
    1.3776   -0.7687    2.8837 H   0  0  0  0  0  0  0  0  0  0  0  0
    3.3836    1.4655    2.2433 H   0  0  0  0  0  0  0  0  0  0  0  0
    1.6331    1.6805    2.4695 H   0  0  0  0  0  0  0  0  0  0  0  0
    2.6443    1.1636    3.8313 H   0  0  0  0  0  0  0  0  0  0  0  0
    0.8436   -0.0463    0.2925 N   0  0  0  0  0  0  0  0  0  0  0  0
    0.4001   -0.3842   -1.0705 C   0  0  2  0  0  0  0  0  0  0  0  0
   -0.7079    0.5508   -1.5816 C   0  0  0  0  0  0  0  0  0  0  0  0
   -1.6691    0.7878   -0.8559 O   0  0  0  0  0  0  0  0  0  0  0  0
   -0.1150   -1.8328   -1.0969 C   0  0  0  0  0  0  0  0  0  0  0  0
   -1.3016   -1.9660   -0.3014 O   0  0  0  0  0  0  0  0  0  0  0  0
    0.1241    0.2613    0.9446 H   0  0  0  0  0  0  0  0  0  0  0  0
    1.2521   -0.3021   -1.7528 H   0  0  0  0  0  0  0  0  0  0  0  0
    0.6541   -2.5214   -0.7323 H   0  0  0  0  0  0  0  0  0  0  0  0
   -0.3439   -2.1138   -2.1301 H   0  0  0  0  0  0  0  0  0  0  0  0
   -1.8964   -1.1981   -0.4337 H   0  0  0  0  0  0  0  0  0  0  0  0
   -0.6492    1.0719   -2.8640 N   0  0  0  0  0  0  0  0  0  0  0  0
   -1.6471    1.9463   -3.5154 C   0  0  2  0  0  0  0  0  0  0  0  0
   -1.7930    3.3465   -2.8751 C   0  0  0  0  0  0  0  0  0  0  0  0
   -1.5423    4.3403   -3.5431 O   0  0  0  0  0  0  0  0  0  0  0  0
   -3.0084    1.2451   -3.6300 C   0  0  0  0  0  0  0  0  0  0  0  0
    0.1996    0.8739   -3.3880 H   0  0  0  0  0  0  0  0  0  0  0  0
   -1.2964    2.1203   -4.5382 H   0  0  0  0  0  0  0  0  0  0  0  0
   -3.4764    1.1159   -2.6500 H   0  0  0  0  0  0  0  0  0  0  0  0
   -3.6838    1.8408   -4.2521 H   0  0  0  0  0  0  0  0  0  0  0  0
   -2.8911    0.2606   -4.0926 H   0  0  0  0  0  0  0  0  0  0  0  0
   -2.1830    3.4943   -1.5587 N   0  0  0  0  0  0  0  0  0  0  0  0
   -2.2615    4.7768   -0.8724 C   0  0  0  0  0  0  0  0  0  0  0  0
   -2.2719    2.6308   -1.0177 H   0  0  0  0  0  0  0  0  0  0  0  0
   -2.7265    4.6498    0.1099 H   0  0  0  0  0  0  0  0  0  0  0  0
   -1.2604    5.1975   -0.7334 H   0  0  0  0  0  0  0  0  0  0  0  0
   -2.8659    5.4857   -1.4484 H   0  0  0  0  0  0  0  0  0  0  0  0
  1  2  2  0  0  0  0
  1  3  1  0  0  0  0
  1  7  1  0  0  0  0
  3  4  1  0  0  0  0
  3  5  1  0  0  0  0
  3  6  1  0  0  0  0
  7  8  1  0  0  0  0
  7 12  1  0  0  0  0
  8  9  1  0  0  0  0
  8 11  1  0  0  0  0
  8 13  1  0  0  0  0
  9 10  2  0  0  0  0
  9 17  1  0  0  0  0
 11 14  1  0  0  0  0
 11 15  1  0  0  0  0
 11 16  1  0  0  0  0
 17 18  1  0  0  0  0
 17 23  1  0  0  0  0
 18 19  1  0  0  0  0
 18 21  1  0  0  0  0
 18 24  1  0  0  0  0
 19 20  2  0  0  0  0
 19 28  1  0  0  0  0
 21 22  1  0  0  0  0
 21 25  1  0  0  0  0
 21 26  1  0  0  0  0
 22 27  1  0  0  0  0
 28 29  1  0  0  0  0
 28 33  1  0  0  0  0
 29 30  1  0  0  0  0
 29 32  1  0  0  0  0
 29 34  1  0  0  0  0
 30 31  2  0  0  0  0
 30 38  1  0  0  0  0
 32 35  1  0  0  0  0
 32 36  1  0  0  0  0
 32 37  1  0  0  0  0
 38 39  1  0  0  0  0
 38 40  1  0  0  0  0
 39 41  1  0  0  0  0
 39 42  1  0  0  0  0
 39 43  1  0  0  0  0
M  END
$$$$

  -OEChem-05262217303D

 43 42  0     1  0  0  0  0  0999 V2000
    3.6059   -1.6927    4.0533 C   0  0  0  0  0  0  0  0  0  0  0  0
    2.8061   -1.4209    4.9346 O   0  0  0  0  0  0  0  0  0  0  0  0
    4.7863   -2.5991    4.3474 C   0  0  0  0  0  0  0  0  0  0  0  0
    5.7212   -2.0694    4.1487 H   0  0  0  0  0  0  0  0  0  0  0  0
    4.7726   -2.9081    5.3966 H   0  0  0  0  0  0  0  0  0  0  0  0
    4.7383   -3.4902    3.7167 H   0  0  0  0  0  0  0  0  0  0  0  0
    3.4376   -1.1760    2.7863 N   0  0  0  0  0  0  0  0  0  0  0  0
    2.2741   -0.3879    2.3593 C   0  0  2  0  0  0  0  0  0  0  0  0
    2.0021   -0.5468    0.8491 C   0  0  0  0  0  0  0  0  0  0  0  0
    2.8320   -1.0784    0.1175 O   0  0  0  0  0  0  0  0  0  0  0  0
    2.5287    1.0829    2.7056 C   0  0  0  0  0  0  0  0  0  0  0  0
    4.0594   -1.5158    2.0534 H   0  0  0  0  0  0  0  0  0  0  0  0
    1.3807   -0.7359    2.8898 H   0  0  0  0  0  0  0  0  0  0  0  0
    3.4155    1.4511    2.1802 H   0  0  0  0  0  0  0  0  0  0  0  0
    1.6718    1.7000    2.4198 H   0  0  0  0  0  0  0  0  0  0  0  0
    2.6892    1.1972    3.7823 H   0  0  0  0  0  0  0  0  0  0  0  0
    0.8264   -0.0809    0.2930 N   0  0  0  0  0  0  0  0  0  0  0  0
    0.3905   -0.3981   -1.0768 C   0  0  2  0  0  0  0  0  0  0  0  0
   -0.7374    0.5191   -1.5742 C   0  0  0  0  0  0  0  0  0  0  0  0
   -1.5930    0.8938   -0.7789 O   0  0  0  0  0  0  0  0  0  0  0  0
   -0.1084   -1.8512   -1.1227 C   0  0  0  0  0  0  0  0  0  0  0  0
   -1.2954   -2.0084   -0.3306 O   0  0  0  0  0  0  0  0  0  0  0  0
    0.1106    0.2459    0.9402 H   0  0  0  0  0  0  0  0  0  0  0  0
    1.2414   -0.2881   -1.7564 H   0  0  0  0  0  0  0  0  0  0  0  0
    0.6680   -2.5357   -0.7657 H   0  0  0  0  0  0  0  0  0  0  0  0
   -0.3323   -2.1234   -2.1591 H   0  0  0  0  0  0  0  0  0  0  0  0
   -1.9063   -1.2544   -0.4529 H   0  0  0  0  0  0  0  0  0  0  0  0
   -0.8549    0.8148   -2.9227 N   0  0  0  0  0  0  0  0  0  0  0  0
   -1.9262    1.5991   -3.5722 C   0  0  2  0  0  0  0  0  0  0  0  0
   -1.9706    3.0910   -3.1674 C   0  0  0  0  0  0  0  0  0  0  0  0
   -1.8482    3.9502   -4.0295 O   0  0  0  0  0  0  0  0  0  0  0  0
   -3.2965    0.9346   -3.3785 C   0  0  0  0  0  0  0  0  0  0  0  0
   -0.0955    0.4943   -3.5184 H   0  0  0  0  0  0  0  0  0  0  0  0
   -1.7204    1.5862   -4.6478 H   0  0  0  0  0  0  0  0  0  0  0  0
   -3.6300    1.0013   -2.3391 H   0  0  0  0  0  0  0  0  0  0  0  0
   -4.0434    1.4306   -4.0064 H   0  0  0  0  0  0  0  0  0  0  0  0
   -3.2519   -0.1207   -3.6637 H   0  0  0  0  0  0  0  0  0  0  0  0
   -2.1297    3.4717   -1.8498 N   0  0  0  0  0  0  0  0  0  0  0  0
   -2.1210    4.8550   -1.3946 C   0  0  0  0  0  0  0  0  0  0  0  0
   -2.1434    2.7163   -1.1604 H   0  0  0  0  0  0  0  0  0  0  0  0
   -2.3151    4.8990   -0.3185 H   0  0  0  0  0  0  0  0  0  0  0  0
   -1.1479    5.3163   -1.5917 H   0  0  0  0  0  0  0  0  0  0  0  0
   -2.8967    5.4325   -1.9084 H   0  0  0  0  0  0  0  0  0  0  0  0
  1  2  2  0  0  0  0
  1  3  1  0  0  0  0
  1  7  1  0  0  0  0
  3  4  1  0  0  0  0
  3  5  1  0  0  0  0
  3  6  1  0  0  0  0
  7  8  1  0  0  0  0
  7 12  1  0  0  0  0
  8  9  1  0  0  0  0
  8 11  1  0  0  0  0
  8 13  1  0  0  0  0
  9 10  2  0  0  0  0
  9 17  1  0  0  0  0
 11 14  1  0  0  0  0
 11 15  1  0  0  0  0
 11 16  1  0  0  0  0
 17 18  1  0  0  0  0
 17 23  1  0  0  0  0
 18 19  1  0  0  0  0
 18 21  1  0  0  0  0
 18 24  1  0  0  0  0
 19 20  2  0  0  0  0
 19 28  1  0  0  0  0
 21 22  1  0  0  0  0
 21 25  1  0  0  0  0
 21 26  1  0  0  0  0
 22 27  1  0  0  0  0
 28 29  1  0  0  0  0
 28 33  1  0  0  0  0
 29 30  1  0  0  0  0
 29 32  1  0  0  0  0
 29 34  1  0  0  0  0
 30 31  2  0  0  0  0
 30 38  1  0  0  0  0
 32 35  1  0  0  0  0
 32 36  1  0  0  0  0
 32 37  1  0  0  0  0
 38 39  1  0  0  0  0
 38 40  1  0  0  0  0
 39 41  1  0  0  0  0
 39 42  1  0  0  0  0
 39 43  1  0  0  0  0
M  END
$$$$

  -OEChem-05262217303D

 43 42  0     1  0  0  0  0  0999 V2000
    3.6231   -1.6467    4.0511 C   0  0  0  0  0  0  0  0  0  0  0  0
    2.8181   -1.3856    4.9309 O   0  0  0  0  0  0  0  0  0  0  0  0
    4.8066   -2.5492    4.3460 C   0  0  0  0  0  0  0  0  0  0  0  0
    5.7390   -1.9920    4.2265 H   0  0  0  0  0  0  0  0  0  0  0  0
    4.7486   -2.9242    5.3719 H   0  0  0  0  0  0  0  0  0  0  0  0
    4.8077   -3.4001    3.6605 H   0  0  0  0  0  0  0  0  0  0  0  0
    3.4547   -1.1259    2.7854 N   0  0  0  0  0  0  0  0  0  0  0  0
    2.2747   -0.3646    2.3544 C   0  0  2  0  0  0  0  0  0  0  0  0
    1.9930   -0.5524    0.8488 C   0  0  0  0  0  0  0  0  0  0  0  0
    2.8259   -1.0817    0.1191 O   0  0  0  0  0  0  0  0  0  0  0  0
    2.5049    1.1150    2.6790 C   0  0  0  0  0  0  0  0  0  0  0  0
    4.0784   -1.4623    2.0525 H   0  0  0  0  0  0  0  0  0  0  0  0
    1.3908   -0.7193    2.8959 H   0  0  0  0  0  0  0  0  0  0  0  0
    3.3795    1.4934    2.1402 H   0  0  0  0  0  0  0  0  0  0  0  0
    1.6332    1.7118    2.3938 H   0  0  0  0  0  0  0  0  0  0  0  0
    2.6732    1.2463    3.7528 H   0  0  0  0  0  0  0  0  0  0  0  0
    0.8022   -0.1220    0.2963 N   0  0  0  0  0  0  0  0  0  0  0  0
    0.3699   -0.4257   -1.0786 C   0  0  2  0  0  0  0  0  0  0  0  0
   -0.7928    0.4632   -1.5513 C   0  0  0  0  0  0  0  0  0  0  0  0
   -1.4935    1.0279   -0.7188 O   0  0  0  0  0  0  0  0  0  0  0  0
   -0.0676   -1.8974   -1.1622 C   0  0  0  0  0  0  0  0  0  0  0  0
   -1.2423   -2.1359   -0.3715 O   0  0  0  0  0  0  0  0  0  0  0  0
    0.0958    0.2434    0.9335 H   0  0  0  0  0  0  0  0  0  0  0  0
    1.2121   -0.2621   -1.7587 H   0  0  0  0  0  0  0  0  0  0  0  0
    0.7409   -2.5532   -0.8228 H   0  0  0  0  0  0  0  0  0  0  0  0
   -0.2787   -2.1551   -2.2050 H   0  0  0  0  0  0  0  0  0  0  0  0
   -1.9367   -1.4724   -0.5402 H   0  0  0  0  0  0  0  0  0  0  0  0
   -1.1171    0.5342   -2.8973 N   0  0  0  0  0  0  0  0  0  0  0  0
   -2.2639    1.2460   -3.5017 C   0  0  2  0  0  0  0  0  0  0  0  0
   -2.2067    2.7866   -3.3802 C   0  0  0  0  0  0  0  0  0  0  0  0
   -2.2518    3.4694   -4.3943 O   0  0  0  0  0  0  0  0  0  0  0  0
   -3.5985    0.7016   -2.9722 C   0  0  0  0  0  0  0  0  0  0  0  0
   -0.4836    0.0589   -3.5354 H   0  0  0  0  0  0  0  0  0  0  0  0
   -2.2405    1.0298   -4.5751 H   0  0  0  0  0  0  0  0  0  0  0  0
   -3.7521    0.9713   -1.9235 H   0  0  0  0  0  0  0  0  0  0  0  0
   -4.4277    1.1173   -3.5534 H   0  0  0  0  0  0  0  0  0  0  0  0
   -3.6278   -0.3885   -3.0600 H   0  0  0  0  0  0  0  0  0  0  0  0
   -2.0930    3.4054   -2.1512 N   0  0  0  0  0  0  0  0  0  0  0  0
   -1.9822    4.8461   -1.9710 C   0  0  0  0  0  0  0  0  0  0  0  0
   -1.9970    2.7885   -1.3408 H   0  0  0  0  0  0  0  0  0  0  0  0
   -1.9604    5.0919   -0.9049 H   0  0  0  0  0  0  0  0  0  0  0  0
   -1.0625    5.2194   -2.4330 H   0  0  0  0  0  0  0  0  0  0  0  0
   -2.8379    5.3564   -2.4253 H   0  0  0  0  0  0  0  0  0  0  0  0
  1  2  2  0  0  0  0
  1  3  1  0  0  0  0
  1  7  1  0  0  0  0
  3  4  1  0  0  0  0
  3  5  1  0  0  0  0
  3  6  1  0  0  0  0
  7  8  1  0  0  0  0
  7 12  1  0  0  0  0
  8  9  1  0  0  0  0
  8 11  1  0  0  0  0
  8 13  1  0  0  0  0
  9 10  2  0  0  0  0
  9 17  1  0  0  0  0
 11 14  1  0  0  0  0
 11 15  1  0  0  0  0
 11 16  1  0  0  0  0
 17 18  1  0  0  0  0
 17 23  1  0  0  0  0
 18 19  1  0  0  0  0
 18 21  1  0  0  0  0
 18 24  1  0  0  0  0
 19 20  2  0  0  0  0
 19 28  1  0  0  0  0
 21 22  1  0  0  0  0
 21 25  1  0  0  0  0
 21 26  1  0  0  0  0
 22 27  1  0  0  0  0
 28 29  1  0  0  0  0
 28 33  1  0  0  0  0
 29 30  1  0  0  0  0
 29 32  1  0  0  0  0
 29 34  1  0  0  0  0
 30 31  2  0  0  0  0
 30 38  1  0  0  0  0
 32 35  1  0  0  0  0
 32 36  1  0  0  0  0
 32 37  1  0  0  0  0
 38 39  1  0  0  0  0
 38 40  1  0  0  0  0
 39 41  1  0  0  0  0
 39 42  1  0  0  0  0
 39 43  1  0  0  0  0
M  END
$$$$

  -OEChem-05262217303D

 43 42  0     1  0  0  0  0  0999 V2000
    3.6849   -1.3754    4.0669 C   0  0  0  0  0  0  0  0  0  0  0  0
    2.9230   -0.9986    4.9431 O   0  0  0  0  0  0  0  0  0  0  0  0
    4.8835   -2.2359    4.4186 C   0  0  0  0  0  0  0  0  0  0  0  0
    5.8071   -1.6984    4.1908 H   0  0  0  0  0  0  0  0  0  0  0  0
    4.8718   -2.4818    5.4842 H   0  0  0  0  0  0  0  0  0  0  0  0
    4.8581   -3.1645    3.8433 H   0  0  0  0  0  0  0  0  0  0  0  0
    3.4535   -1.0247    2.7537 N   0  0  0  0  0  0  0  0  0  0  0  0
    2.2505   -0.3243    2.2854 C   0  0  2  0  0  0  0  0  0  0  0  0
    1.9023   -0.6956    0.8288 C   0  0  0  0  0  0  0  0  0  0  0  0
    2.6976   -1.3219    0.1350 O   0  0  0  0  0  0  0  0  0  0  0  0
    2.4836    1.1853    2.4121 C   0  0  0  0  0  0  0  0  0  0  0  0
    4.0414   -1.4566    2.0417 H   0  0  0  0  0  0  0  0  0  0  0  0
    1.3945   -0.6105    2.9065 H   0  0  0  0  0  0  0  0  0  0  0  0
    3.3290    1.4955    1.7897 H   0  0  0  0  0  0  0  0  0  0  0  0
    1.5952    1.7406    2.0962 H   0  0  0  0  0  0  0  0  0  0  0  0
    2.7005    1.4497    3.4520 H   0  0  0  0  0  0  0  0  0  0  0  0
    0.6954   -0.3120    0.2796 N   0  0  0  0  0  0  0  0  0  0  0  0
    0.2887   -0.5614   -1.1130 C   0  0  2  0  0  0  0  0  0  0  0  0
   -0.6631    0.5238   -1.6493 C   0  0  0  0  0  0  0  0  0  0  0  0
   -1.0317    1.4279   -0.9078 O   0  0  0  0  0  0  0  0  0  0  0  0
   -0.3685   -1.9475   -1.2005 C   0  0  0  0  0  0  0  0  0  0  0  0
   -1.6028   -1.9964   -0.4694 O   0  0  0  0  0  0  0  0  0  0  0  0
    0.0668    0.2436    0.8579 H   0  0  0  0  0  0  0  0  0  0  0  0
    1.1760   -0.5531   -1.7544 H   0  0  0  0  0  0  0  0  0  0  0  0
    0.3175   -2.7021   -0.8013 H   0  0  0  0  0  0  0  0  0  0  0  0
   -0.5576   -2.2023   -2.2480 H   0  0  0  0  0  0  0  0  0  0  0  0
   -2.2422   -1.3336   -0.7840 H   0  0  0  0  0  0  0  0  0  0  0  0
   -1.1491    0.4535   -2.9462 N   0  0  0  0  0  0  0  0  0  0  0  0
   -2.0762    1.4012   -3.6015 C   0  0  2  0  0  0  0  0  0  0  0  0
   -1.4950    2.8167   -3.8231 C   0  0  0  0  0  0  0  0  0  0  0  0
   -1.4144    3.2588   -4.9608 O   0  0  0  0  0  0  0  0  0  0  0  0
   -3.4246    1.4679   -2.8695 C   0  0  0  0  0  0  0  0  0  0  0  0
   -0.7587   -0.2826   -3.5294 H   0  0  0  0  0  0  0  0  0  0  0  0
   -2.2829    1.0021   -4.6002 H   0  0  0  0  0  0  0  0  0  0  0  0
   -3.3276    1.9555   -1.8953 H   0  0  0  0  0  0  0  0  0  0  0  0
   -4.1444    2.0407   -3.4633 H   0  0  0  0  0  0  0  0  0  0  0  0
   -3.8255    0.4614   -2.7181 H   0  0  0  0  0  0  0  0  0  0  0  0
   -1.0382    3.5784   -2.7661 N   0  0  0  0  0  0  0  0  0  0  0  0
   -0.3955    4.8760   -2.9186 C   0  0  0  0  0  0  0  0  0  0  0  0
   -1.0432    3.1256   -1.8486 H   0  0  0  0  0  0  0  0  0  0  0  0
   -0.2066    5.3207   -1.9368 H   0  0  0  0  0  0  0  0  0  0  0  0
    0.5595    4.7699   -3.4433 H   0  0  0  0  0  0  0  0  0  0  0  0
   -1.0369    5.5573   -3.4873 H   0  0  0  0  0  0  0  0  0  0  0  0
  1  2  2  0  0  0  0
  1  3  1  0  0  0  0
  1  7  1  0  0  0  0
  3  4  1  0  0  0  0
  3  5  1  0  0  0  0
  3  6  1  0  0  0  0
  7  8  1  0  0  0  0
  7 12  1  0  0  0  0
  8  9  1  0  0  0  0
  8 11  1  0  0  0  0
  8 13  1  0  0  0  0
  9 10  2  0  0  0  0
  9 17  1  0  0  0  0
 11 14  1  0  0  0  0
 11 15  1  0  0  0  0
 11 16  1  0  0  0  0
 17 18  1  0  0  0  0
 17 23  1  0  0  0  0
 18 19  1  0  0  0  0
 18 21  1  0  0  0  0
 18 24  1  0  0  0  0
 19 20  2  0  0  0  0
 19 28  1  0  0  0  0
 21 22  1  0  0  0  0
 21 25  1  0  0  0  0
 21 26  1  0  0  0  0
 22 27  1  0  0  0  0
 28 29  1  0  0  0  0
 28 33  1  0  0  0  0
 29 30  1  0  0  0  0
 29 32  1  0  0  0  0
 29 34  1  0  0  0  0
 30 31  2  0  0  0  0
 30 38  1  0  0  0  0
 32 35  1  0  0  0  0
 32 36  1  0  0  0  0
 32 37  1  0  0  0  0
 38 39  1  0  0  0  0
 38 40  1  0  0  0  0
 39 41  1  0  0  0  0
 39 42  1  0  0  0  0
 39 43  1  0  0  0  0
M  END
$$$$

  -OEChem-05262217303D

 43 42  0     1  0  0  0  0  0999 V2000
    3.7568   -1.3724    4.0474 C   0  0  0  0  0  0  0  0  0  0  0  0
    3.0151   -1.0163    4.9493 O   0  0  0  0  0  0  0  0  0  0  0  0
    5.0085   -2.1705    4.3599 C   0  0  0  0  0  0  0  0  0  0  0  0
    5.8929   -1.6171    4.0348 H   0  0  0  0  0  0  0  0  0  0  0  0
    5.0815   -2.3511    5.4360 H   0  0  0  0  0  0  0  0  0  0  0  0
    4.9787   -3.1324    3.8424 H   0  0  0  0  0  0  0  0  0  0  0  0
    3.4622   -1.0448    2.7413 N   0  0  0  0  0  0  0  0  0  0  0  0
    2.2323   -0.3673    2.3115 C   0  0  2  0  0  0  0  0  0  0  0  0
    1.8578   -0.7333    0.8599 C   0  0  0  0  0  0  0  0  0  0  0  0
    2.6425   -1.3581    0.1523 O   0  0  0  0  0  0  0  0  0  0  0  0
    2.4376    1.1457    2.4489 C   0  0  0  0  0  0  0  0  0  0  0  0
    4.0388   -1.4605    2.0106 H   0  0  0  0  0  0  0  0  0  0  0  0
    1.3994   -0.6794    2.9511 H   0  0  0  0  0  0  0  0  0  0  0  0
    3.2652    1.4791    1.8146 H   0  0  0  0  0  0  0  0  0  0  0  0
    1.5333    1.6870    2.1551 H   0  0  0  0  0  0  0  0  0  0  0  0
    2.6692    1.4045    3.4870 H   0  0  0  0  0  0  0  0  0  0  0  0
    0.6424   -0.3490    0.3286 N   0  0  0  0  0  0  0  0  0  0  0  0
    0.2398   -0.5720   -1.0709 C   0  0  2  0  0  0  0  0  0  0  0  0
   -0.7276    0.5147   -1.5823 C   0  0  0  0  0  0  0  0  0  0  0  0
   -0.9008    1.5300   -0.9181 O   0  0  0  0  0  0  0  0  0  0  0  0
   -0.3886   -1.9713   -1.1885 C   0  0  0  0  0  0  0  0  0  0  0  0
   -1.6212   -2.0632   -0.4578 O   0  0  0  0  0  0  0  0  0  0  0  0
    0.0404    0.2381    0.9033 H   0  0  0  0  0  0  0  0  0  0  0  0
    1.1252   -0.5320   -1.7136 H   0  0  0  0  0  0  0  0  0  0  0  0
    0.3134   -2.7175   -0.8008 H   0  0  0  0  0  0  0  0  0  0  0  0
   -0.5677   -2.2138   -2.2408 H   0  0  0  0  0  0  0  0  0  0  0  0
   -2.2887   -1.4332   -0.7814 H   0  0  0  0  0  0  0  0  0  0  0  0
   -1.4556    0.3264   -2.7489 N   0  0  0  0  0  0  0  0  0  0  0  0
   -2.4410    1.2540   -3.3462 C   0  0  2  0  0  0  0  0  0  0  0  0
   -1.8466    2.5872   -3.8573 C   0  0  0  0  0  0  0  0  0  0  0  0
   -1.9964    2.8975   -5.0311 O   0  0  0  0  0  0  0  0  0  0  0  0
   -3.6230    1.5056   -2.3984 C   0  0  0  0  0  0  0  0  0  0  0  0
   -1.2134   -0.4968   -3.2948 H   0  0  0  0  0  0  0  0  0  0  0  0
   -2.8506    0.7528   -4.2295 H   0  0  0  0  0  0  0  0  0  0  0  0
   -3.3184    2.0892   -1.5248 H   0  0  0  0  0  0  0  0  0  0  0  0
   -4.4075    2.0629   -2.9205 H   0  0  0  0  0  0  0  0  0  0  0  0
   -4.0454    0.5566   -2.0550 H   0  0  0  0  0  0  0  0  0  0  0  0
   -1.1335    3.4232   -3.0217 N   0  0  0  0  0  0  0  0  0  0  0  0
   -0.5021    4.6629   -3.4525 C   0  0  0  0  0  0  0  0  0  0  0  0
   -0.9848    3.0886   -2.0662 H   0  0  0  0  0  0  0  0  0  0  0  0
   -0.0056    5.1459   -2.6052 H   0  0  0  0  0  0  0  0  0  0  0  0
    0.2468    4.4626   -4.2259 H   0  0  0  0  0  0  0  0  0  0  0  0
   -1.2495    5.3546   -3.8553 H   0  0  0  0  0  0  0  0  0  0  0  0
  1  2  2  0  0  0  0
  1  3  1  0  0  0  0
  1  7  1  0  0  0  0
  3  4  1  0  0  0  0
  3  5  1  0  0  0  0
  3  6  1  0  0  0  0
  7  8  1  0  0  0  0
  7 12  1  0  0  0  0
  8  9  1  0  0  0  0
  8 11  1  0  0  0  0
  8 13  1  0  0  0  0
  9 10  2  0  0  0  0
  9 17  1  0  0  0  0
 11 14  1  0  0  0  0
 11 15  1  0  0  0  0
 11 16  1  0  0  0  0
 17 18  1  0  0  0  0
 17 23  1  0  0  0  0
 18 19  1  0  0  0  0
 18 21  1  0  0  0  0
 18 24  1  0  0  0  0
 19 20  2  0  0  0  0
 19 28  1  0  0  0  0
 21 22  1  0  0  0  0
 21 25  1  0  0  0  0
 21 26  1  0  0  0  0
 22 27  1  0  0  0  0
 28 29  1  0  0  0  0
 28 33  1  0  0  0  0
 29 30  1  0  0  0  0
 29 32  1  0  0  0  0
 29 34  1  0  0  0  0
 30 31  2  0  0  0  0
 30 38  1  0  0  0  0
 32 35  1  0  0  0  0
 32 36  1  0  0  0  0
 32 37  1  0  0  0  0
 38 39  1  0  0  0  0
 38 40  1  0  0  0  0
 39 41  1  0  0  0  0
 39 42  1  0  0  0  0
 39 43  1  0  0  0  0
M  END
$$$$

  -OEChem-05262217303D

 43 42  0     1  0  0  0  0  0999 V2000
    3.8064   -1.3578    4.0252 C   0  0  0  0  0  0  0  0  0  0  0  0
    3.0813   -0.9956    4.9380 O   0  0  0  0  0  0  0  0  0  0  0  0
    5.0628   -2.1555    4.3205 C   0  0  0  0  0  0  0  0  0  0  0  0
    5.9408   -1.6161    3.9569 H   0  0  0  0  0  0  0  0  0  0  0  0
    5.1669   -2.3114    5.3979 H   0  0  0  0  0  0  0  0  0  0  0  0
    5.0118   -3.1294    3.8277 H   0  0  0  0  0  0  0  0  0  0  0  0
    3.4856   -1.0413    2.7223 N   0  0  0  0  0  0  0  0  0  0  0  0
    2.2421   -0.3769    2.3099 C   0  0  2  0  0  0  0  0  0  0  0  0
    1.8356   -0.7691    0.8734 C   0  0  0  0  0  0  0  0  0  0  0  0
    2.6073   -1.4022    0.1591 O   0  0  0  0  0  0  0  0  0  0  0  0
    2.4419    1.1392    2.4158 C   0  0  0  0  0  0  0  0  0  0  0  0
    4.0488   -1.4622    1.9842 H   0  0  0  0  0  0  0  0  0  0  0  0
    1.4254   -0.6808    2.9737 H   0  0  0  0  0  0  0  0  0  0  0  0
    3.2412    1.4675    1.7439 H   0  0  0  0  0  0  0  0  0  0  0  0
    1.5227    1.6697    2.1495 H   0  0  0  0  0  0  0  0  0  0  0  0
    2.7124    1.4161    3.4397 H   0  0  0  0  0  0  0  0  0  0  0  0
    0.6104   -0.3879    0.3617 N   0  0  0  0  0  0  0  0  0  0  0  0
    0.2065   -0.5821   -1.0420 C   0  0  2  0  0  0  0  0  0  0  0  0
   -0.7790    0.5054   -1.5167 C   0  0  0  0  0  0  0  0  0  0  0  0
   -0.7803    1.5938   -0.9544 O   0  0  0  0  0  0  0  0  0  0  0  0
   -0.3849   -1.9945   -1.1967 C   0  0  0  0  0  0  0  0  0  0  0  0
   -1.6112   -2.1425   -0.4633 O   0  0  0  0  0  0  0  0  0  0  0  0
    0.0415    0.2340    0.9331 H   0  0  0  0  0  0  0  0  0  0  0  0
    1.0880   -0.5053   -1.6869 H   0  0  0  0  0  0  0  0  0  0  0  0
    0.3391   -2.7338   -0.8381 H   0  0  0  0  0  0  0  0  0  0  0  0
   -0.5642   -2.2085   -2.2550 H   0  0  0  0  0  0  0  0  0  0  0  0
   -2.2837   -1.4929   -0.7323 H   0  0  0  0  0  0  0  0  0  0  0  0
   -1.7316    0.2392   -2.4913 N   0  0  0  0  0  0  0  0  0  0  0  0
   -2.7658    1.1645   -3.0021 C   0  0  2  0  0  0  0  0  0  0  0  0
   -2.2146    2.3935   -3.7631 C   0  0  0  0  0  0  0  0  0  0  0  0
   -2.5425    2.5692   -4.9284 O   0  0  0  0  0  0  0  0  0  0  0  0
   -3.7342    1.5904   -1.8891 C   0  0  0  0  0  0  0  0  0  0  0  0
   -1.6273   -0.6453   -2.9830 H   0  0  0  0  0  0  0  0  0  0  0  0
   -3.3587    0.6034   -3.7325 H   0  0  0  0  0  0  0  0  0  0  0  0
   -3.2443    2.2381   -1.1566 H   0  0  0  0  0  0  0  0  0  0  0  0
   -4.5764    2.1417   -2.3193 H   0  0  0  0  0  0  0  0  0  0  0  0
   -4.1264    0.7115   -1.3693 H   0  0  0  0  0  0  0  0  0  0  0  0
   -1.3413    3.2801   -3.1649 N   0  0  0  0  0  0  0  0  0  0  0  0
   -0.7330    4.4121   -3.8504 C   0  0  0  0  0  0  0  0  0  0  0  0
   -1.0338    3.0427   -2.2182 H   0  0  0  0  0  0  0  0  0  0  0  0
   -0.1276    4.9955   -3.1499 H   0  0  0  0  0  0  0  0  0  0  0  0
   -0.0872    4.0653   -4.6636 H   0  0  0  0  0  0  0  0  0  0  0  0
   -1.5042    5.0679   -4.2678 H   0  0  0  0  0  0  0  0  0  0  0  0
  1  2  2  0  0  0  0
  1  3  1  0  0  0  0
  1  7  1  0  0  0  0
  3  4  1  0  0  0  0
  3  5  1  0  0  0  0
  3  6  1  0  0  0  0
  7  8  1  0  0  0  0
  7 12  1  0  0  0  0
  8  9  1  0  0  0  0
  8 11  1  0  0  0  0
  8 13  1  0  0  0  0
  9 10  2  0  0  0  0
  9 17  1  0  0  0  0
 11 14  1  0  0  0  0
 11 15  1  0  0  0  0
 11 16  1  0  0  0  0
 17 18  1  0  0  0  0
 17 23  1  0  0  0  0
 18 19  1  0  0  0  0
 18 21  1  0  0  0  0
 18 24  1  0  0  0  0
 19 20  2  0  0  0  0
 19 28  1  0  0  0  0
 21 22  1  0  0  0  0
 21 25  1  0  0  0  0
 21 26  1  0  0  0  0
 22 27  1  0  0  0  0
 28 29  1  0  0  0  0
 28 33  1  0  0  0  0
 29 30  1  0  0  0  0
 29 32  1  0  0  0  0
 29 34  1  0  0  0  0
 30 31  2  0  0  0  0
 30 38  1  0  0  0  0
 32 35  1  0  0  0  0
 32 36  1  0  0  0  0
 32 37  1  0  0  0  0
 38 39  1  0  0  0  0
 38 40  1  0  0  0  0
 39 41  1  0  0  0  0
 39 42  1  0  0  0  0
 39 43  1  0  0  0  0
M  END
$$$$

  -OEChem-05262217303D

 43 42  0     1  0  0  0  0  0999 V2000
    3.5959   -1.4732    4.0240 C   0  0  0  0  0  0  0  0  0  0  0  0
    2.7664   -1.2040    4.8780 O   0  0  0  0  0  0  0  0  0  0  0  0
    4.7535   -2.3981    4.3506 C   0  0  0  0  0  0  0  0  0  0  0  0
    5.7003   -1.8646    4.2360 H   0  0  0  0  0  0  0  0  0  0  0  0
    4.6728   -2.7546    5.3814 H   0  0  0  0  0  0  0  0  0  0  0  0
    4.7453   -3.2599    3.6786 H   0  0  0  0  0  0  0  0  0  0  0  0
    3.4809   -0.9440    2.7559 N   0  0  0  0  0  0  0  0  0  0  0  0
    2.3119   -0.1952    2.2737 C   0  0  2  0  0  0  0  0  0  0  0  0
    1.8641   -0.6757    0.8776 C   0  0  0  0  0  0  0  0  0  0  0  0
    2.6141   -1.3556    0.1856 O   0  0  0  0  0  0  0  0  0  0  0  0
    2.6817    1.2902    2.2405 C   0  0  0  0  0  0  0  0  0  0  0  0
    4.1054   -1.3219    2.0448 H   0  0  0  0  0  0  0  0  0  0  0  0
    1.4636   -0.3365    2.9520 H   0  0  0  0  0  0  0  0  0  0  0  0
    3.5198    1.4624    1.5573 H   0  0  0  0  0  0  0  0  0  0  0  0
    1.8308    1.8921    1.9066 H   0  0  0  0  0  0  0  0  0  0  0  0
    2.9723    1.6289    3.2403 H   0  0  0  0  0  0  0  0  0  0  0  0
    0.6168   -0.3399    0.3853 N   0  0  0  0  0  0  0  0  0  0  0  0
    0.2474   -0.5001   -1.0343 C   0  0  2  0  0  0  0  0  0  0  0  0
   -0.7959    0.5575   -1.4500 C   0  0  0  0  0  0  0  0  0  0  0  0
   -0.6283    1.7127   -1.0760 O   0  0  0  0  0  0  0  0  0  0  0  0
   -0.2162   -1.9357   -1.3266 C   0  0  0  0  0  0  0  0  0  0  0  0
   -1.4372   -2.2321   -0.6412 O   0  0  0  0  0  0  0  0  0  0  0  0
    0.1217    0.3874    0.9000 H   0  0  0  0  0  0  0  0  0  0  0  0
    1.1288   -0.3092   -1.6562 H   0  0  0  0  0  0  0  0  0  0  0  0
    0.5580   -2.6482   -1.0235 H   0  0  0  0  0  0  0  0  0  0  0  0
   -0.3657   -2.0582   -2.4044 H   0  0  0  0  0  0  0  0  0  0  0  0
   -1.2721   -2.3088    0.3167 H   0  0  0  0  0  0  0  0  0  0  0  0
   -1.9120    0.2242   -2.2003 N   0  0  0  0  0  0  0  0  0  0  0  0
   -3.0346    1.1067   -2.5811 C   0  0  2  0  0  0  0  0  0  0  0  0
   -2.6738    2.2338   -3.5769 C   0  0  0  0  0  0  0  0  0  0  0  0
   -3.3337    2.3670   -4.5991 O   0  0  0  0  0  0  0  0  0  0  0  0
   -3.7360    1.6766   -1.3406 C   0  0  0  0  0  0  0  0  0  0  0  0
   -2.0655   -0.7803   -2.2925 H   0  0  0  0  0  0  0  0  0  0  0  0
   -3.7660    0.4767   -3.0980 H   0  0  0  0  0  0  0  0  0  0  0  0
   -3.1037    2.4055   -0.8255 H   0  0  0  0  0  0  0  0  0  0  0  0
   -4.6639    2.1776   -1.6341 H   0  0  0  0  0  0  0  0  0  0  0  0
   -3.9835    0.8730   -0.6407 H   0  0  0  0  0  0  0  0  0  0  0  0
   -1.6279    3.1016   -3.3333 N   0  0  0  0  0  0  0  0  0  0  0  0
   -1.2176    4.1639   -4.2408 C   0  0  0  0  0  0  0  0  0  0  0  0
   -1.0931    2.9351   -2.4772 H   0  0  0  0  0  0  0  0  0  0  0  0
   -0.4128    4.7536   -3.7912 H   0  0  0  0  0  0  0  0  0  0  0  0
   -0.8542    3.7418   -5.1834 H   0  0  0  0  0  0  0  0  0  0  0  0
   -2.0581    4.8329   -4.4536 H   0  0  0  0  0  0  0  0  0  0  0  0
  1  2  2  0  0  0  0
  1  3  1  0  0  0  0
  1  7  1  0  0  0  0
  3  4  1  0  0  0  0
  3  5  1  0  0  0  0
  3  6  1  0  0  0  0
  7  8  1  0  0  0  0
  7 12  1  0  0  0  0
  8  9  1  0  0  0  0
  8 11  1  0  0  0  0
  8 13  1  0  0  0  0
  9 10  2  0  0  0  0
  9 17  1  0  0  0  0
 11 14  1  0  0  0  0
 11 15  1  0  0  0  0
 11 16  1  0  0  0  0
 17 18  1  0  0  0  0
 17 23  1  0  0  0  0
 18 19  1  0  0  0  0
 18 21  1  0  0  0  0
 18 24  1  0  0  0  0
 19 20  2  0  0  0  0
 19 28  1  0  0  0  0
 21 22  1  0  0  0  0
 21 25  1  0  0  0  0
 21 26  1  0  0  0  0
 22 27  1  0  0  0  0
 28 29  1  0  0  0  0
 28 33  1  0  0  0  0
 29 30  1  0  0  0  0
 29 32  1  0  0  0  0
 29 34  1  0  0  0  0
 30 31  2  0  0  0  0
 30 38  1  0  0  0  0
 32 35  1  0  0  0  0
 32 36  1  0  0  0  0
 32 37  1  0  0  0  0
 38 39  1  0  0  0  0
 38 40  1  0  0  0  0
 39 41  1  0  0  0  0
 39 42  1  0  0  0  0
 39 43  1  0  0  0  0
M  END
$$$$

  -OEChem-05262217303D

 43 42  0     1  0  0  0  0  0999 V2000
    3.6450   -1.5800    3.9752 C   0  0  0  0  0  0  0  0  0  0  0  0
    2.8204   -1.3369    4.8420 O   0  0  0  0  0  0  0  0  0  0  0  0
    4.7928   -2.5302    4.2605 C   0  0  0  0  0  0  0  0  0  0  0  0
    5.7465   -2.0296    4.0766 H   0  0  0  0  0  0  0  0  0  0  0  0
    4.7626   -2.8570    5.3037 H   0  0  0  0  0  0  0  0  0  0  0  0
    4.7198   -3.4082    3.6141 H   0  0  0  0  0  0  0  0  0  0  0  0
    3.5287   -1.0029    2.7280 N   0  0  0  0  0  0  0  0  0  0  0  0
    2.3640   -0.2261    2.2809 C   0  0  2  0  0  0  0  0  0  0  0  0
    1.8919   -0.6588    0.8771 C   0  0  0  0  0  0  0  0  0  0  0  0
    2.6220   -1.3284    0.1546 O   0  0  0  0  0  0  0  0  0  0  0  0
    2.7520    1.2546    2.2876 C   0  0  0  0  0  0  0  0  0  0  0  0
    4.1467   -1.3587    2.0001 H   0  0  0  0  0  0  0  0  0  0  0  0
    1.5219   -0.3764    2.9652 H   0  0  0  0  0  0  0  0  0  0  0  0
    3.5917    1.4342    1.6085 H   0  0  0  0  0  0  0  0  0  0  0  0
    1.9088    1.8761    1.9710 H   0  0  0  0  0  0  0  0  0  0  0  0
    3.0474    1.5624    3.2957 H   0  0  0  0  0  0  0  0  0  0  0  0
    0.6369   -0.3009    0.4205 N   0  0  0  0  0  0  0  0  0  0  0  0
    0.2228   -0.4385   -0.9891 C   0  0  2  0  0  0  0  0  0  0  0  0
   -0.8171    0.6334   -1.3737 C   0  0  0  0  0  0  0  0  0  0  0  0
   -0.5202    1.8111   -1.2165 O   0  0  0  0  0  0  0  0  0  0  0  0
   -0.2529   -1.8716   -1.2826 C   0  0  0  0  0  0  0  0  0  0  0  0
   -1.4523   -2.1816   -0.5622 O   0  0  0  0  0  0  0  0  0  0  0  0
    0.1478    0.3987    0.9759 H   0  0  0  0  0  0  0  0  0  0  0  0
    1.0893   -0.2486   -1.6320 H   0  0  0  0  0  0  0  0  0  0  0  0
    0.5306   -2.5896   -1.0185 H   0  0  0  0  0  0  0  0  0  0  0  0
   -0.4404   -1.9754   -2.3567 H   0  0  0  0  0  0  0  0  0  0  0  0
   -1.2484   -2.3076    0.3833 H   0  0  0  0  0  0  0  0  0  0  0  0
   -2.0828    0.2912   -1.8198 N   0  0  0  0  0  0  0  0  0  0  0  0
   -3.2227    1.1937   -2.0846 C   0  0  2  0  0  0  0  0  0  0  0  0
   -3.0460    2.1417   -3.2935 C   0  0  0  0  0  0  0  0  0  0  0  0
   -3.9538    2.2515   -4.1071 O   0  0  0  0  0  0  0  0  0  0  0  0
   -3.6068    1.9837   -0.8254 C   0  0  0  0  0  0  0  0  0  0  0  0
   -2.2844   -0.7096   -1.7639 H   0  0  0  0  0  0  0  0  0  0  0  0
   -4.0761    0.5537   -2.3321 H   0  0  0  0  0  0  0  0  0  0  0  0
   -2.8434    2.7259   -0.5737 H   0  0  0  0  0  0  0  0  0  0  0  0
   -4.5522    2.5110   -0.9893 H   0  0  0  0  0  0  0  0  0  0  0  0
   -3.7313    1.3076    0.0259 H   0  0  0  0  0  0  0  0  0  0  0  0
   -1.8928    2.8809   -3.4681 N   0  0  0  0  0  0  0  0  0  0  0  0
   -1.6801    3.8146   -4.5655 C   0  0  0  0  0  0  0  0  0  0  0  0
   -1.1854    2.7953   -2.7342 H   0  0  0  0  0  0  0  0  0  0  0  0
   -2.4106    4.6291   -4.5214 H   0  0  0  0  0  0  0  0  0  0  0  0
   -0.6760    4.2459   -4.5053 H   0  0  0  0  0  0  0  0  0  0  0  0
   -1.7795    3.3021   -5.5284 H   0  0  0  0  0  0  0  0  0  0  0  0
  1  2  2  0  0  0  0
  1  3  1  0  0  0  0
  1  7  1  0  0  0  0
  3  4  1  0  0  0  0
  3  5  1  0  0  0  0
  3  6  1  0  0  0  0
  7  8  1  0  0  0  0
  7 12  1  0  0  0  0
  8  9  1  0  0  0  0
  8 11  1  0  0  0  0
  8 13  1  0  0  0  0
  9 10  2  0  0  0  0
  9 17  1  0  0  0  0
 11 14  1  0  0  0  0
 11 15  1  0  0  0  0
 11 16  1  0  0  0  0
 17 18  1  0  0  0  0
 17 23  1  0  0  0  0
 18 19  1  0  0  0  0
 18 21  1  0  0  0  0
 18 24  1  0  0  0  0
 19 20  2  0  0  0  0
 19 28  1  0  0  0  0
 21 22  1  0  0  0  0
 21 25  1  0  0  0  0
 21 26  1  0  0  0  0
 22 27  1  0  0  0  0
 28 29  1  0  0  0  0
 28 33  1  0  0  0  0
 29 30  1  0  0  0  0
 29 32  1  0  0  0  0
 29 34  1  0  0  0  0
 30 31  2  0  0  0  0
 30 38  1  0  0  0  0
 32 35  1  0  0  0  0
 32 36  1  0  0  0  0
 32 37  1  0  0  0  0
 38 39  1  0  0  0  0
 38 40  1  0  0  0  0
 39 41  1  0  0  0  0
 39 42  1  0  0  0  0
 39 43  1  0  0  0  0
M  END
$$$$

  -OEChem-05262217303D

 43 42  0     1  0  0  0  0  0999 V2000
    3.6782   -1.6678    3.9367 C   0  0  0  0  0  0  0  0  0  0  0  0
    2.8544   -1.4602    4.8133 O   0  0  0  0  0  0  0  0  0  0  0  0
    4.8178   -2.6400    4.1766 C   0  0  0  0  0  0  0  0  0  0  0  0
    5.7752   -2.1444    3.9979 H   0  0  0  0  0  0  0  0  0  0  0  0
    4.7956   -3.0002    5.2090 H   0  0  0  0  0  0  0  0  0  0  0  0
    4.7262   -3.4950    3.5023 H   0  0  0  0  0  0  0  0  0  0  0  0
    3.5692   -1.0309    2.7184 N   0  0  0  0  0  0  0  0  0  0  0  0
    2.4112   -0.2249    2.3065 C   0  0  2  0  0  0  0  0  0  0  0  0
    1.9141   -0.6188    0.8998 C   0  0  0  0  0  0  0  0  0  0  0  0
    2.6289   -1.2762    0.1514 O   0  0  0  0  0  0  0  0  0  0  0  0
    2.8260    1.2481    2.3416 C   0  0  0  0  0  0  0  0  0  0  0  0
    4.1785   -1.3666    1.9736 H   0  0  0  0  0  0  0  0  0  0  0  0
    1.5761   -0.3759    2.9990 H   0  0  0  0  0  0  0  0  0  0  0  0
    3.6550    1.4298    1.6500 H   0  0  0  0  0  0  0  0  0  0  0  0
    1.9882    1.8921    2.0575 H   0  0  0  0  0  0  0  0  0  0  0  0
    3.1472    1.5250    3.3509 H   0  0  0  0  0  0  0  0  0  0  0  0
    0.6521   -0.2485    0.4722 N   0  0  0  0  0  0  0  0  0  0  0  0
    0.2073   -0.3688   -0.9302 C   0  0  2  0  0  0  0  0  0  0  0  0
   -0.8340    0.7060   -1.2990 C   0  0  0  0  0  0  0  0  0  0  0  0
   -0.4679    1.8719   -1.3641 O   0  0  0  0  0  0  0  0  0  0  0  0
   -0.2708   -1.8024   -1.2237 C   0  0  0  0  0  0  0  0  0  0  0  0
   -1.4520   -2.1330   -0.4800 O   0  0  0  0  0  0  0  0  0  0  0  0
    0.1672    0.4300    1.0561 H   0  0  0  0  0  0  0  0  0  0  0  0
    1.0642   -0.1778   -1.5861 H   0  0  0  0  0  0  0  0  0  0  0  0
    0.5228   -2.5205   -0.9922 H   0  0  0  0  0  0  0  0  0  0  0  0
   -0.4881   -1.8908   -2.2936 H   0  0  0  0  0  0  0  0  0  0  0  0
   -1.2163   -2.3273    0.4466 H   0  0  0  0  0  0  0  0  0  0  0  0
   -2.1767    0.3960   -1.4306 N   0  0  0  0  0  0  0  0  0  0  0  0
   -3.3115    1.3224   -1.6222 C   0  0  2  0  0  0  0  0  0  0  0  0
   -3.3292    2.0700   -2.9759 C   0  0  0  0  0  0  0  0  0  0  0  0
   -4.3686    2.1209   -3.6204 O   0  0  0  0  0  0  0  0  0  0  0  0
   -3.4181    2.3104   -0.4527 C   0  0  0  0  0  0  0  0  0  0  0  0
   -2.3939   -0.5930   -1.2832 H   0  0  0  0  0  0  0  0  0  0  0  0
   -4.2202    0.7118   -1.6072 H   0  0  0  0  0  0  0  0  0  0  0  0
   -2.5924    3.0278   -0.4622 H   0  0  0  0  0  0  0  0  0  0  0  0
   -4.3559    2.8709   -0.5211 H   0  0  0  0  0  0  0  0  0  0  0  0
   -3.4047    1.7741    0.5008 H   0  0  0  0  0  0  0  0  0  0  0  0
   -2.2018    2.6992   -3.4654 N   0  0  0  0  0  0  0  0  0  0  0  0
   -2.1645    3.4561   -4.7089 C   0  0  0  0  0  0  0  0  0  0  0  0
   -1.3735    2.6740   -2.8657 H   0  0  0  0  0  0  0  0  0  0  0  0
   -2.8321    4.3220   -4.6499 H   0  0  0  0  0  0  0  0  0  0  0  0
   -1.1484    3.8131   -4.9025 H   0  0  0  0  0  0  0  0  0  0  0  0
   -2.4747    2.8271   -5.5498 H   0  0  0  0  0  0  0  0  0  0  0  0
  1  2  2  0  0  0  0
  1  3  1  0  0  0  0
  1  7  1  0  0  0  0
  3  4  1  0  0  0  0
  3  5  1  0  0  0  0
  3  6  1  0  0  0  0
  7  8  1  0  0  0  0
  7 12  1  0  0  0  0
  8  9  1  0  0  0  0
  8 11  1  0  0  0  0
  8 13  1  0  0  0  0
  9 10  2  0  0  0  0
  9 17  1  0  0  0  0
 11 14  1  0  0  0  0
 11 15  1  0  0  0  0
 11 16  1  0  0  0  0
 17 18  1  0  0  0  0
 17 23  1  0  0  0  0
 18 19  1  0  0  0  0
 18 21  1  0  0  0  0
 18 24  1  0  0  0  0
 19 20  2  0  0  0  0
 19 28  1  0  0  0  0
 21 22  1  0  0  0  0
 21 25  1  0  0  0  0
 21 26  1  0  0  0  0
 22 27  1  0  0  0  0
 28 29  1  0  0  0  0
 28 33  1  0  0  0  0
 29 30  1  0  0  0  0
 29 32  1  0  0  0  0
 29 34  1  0  0  0  0
 30 31  2  0  0  0  0
 30 38  1  0  0  0  0
 32 35  1  0  0  0  0
 32 36  1  0  0  0  0
 32 37  1  0  0  0  0
 38 39  1  0  0  0  0
 38 40  1  0  0  0  0
 39 41  1  0  0  0  0
 39 42  1  0  0  0  0
 39 43  1  0  0  0  0
M  END
$$$$

  -OEChem-05262217303D

 43 42  0     1  0  0  0  0  0999 V2000
    3.8128   -1.8216    3.8692 C   0  0  0  0  0  0  0  0  0  0  0  0
    3.0355   -1.6524    4.7953 O   0  0  0  0  0  0  0  0  0  0  0  0
    4.9852   -2.7720    4.0246 C   0  0  0  0  0  0  0  0  0  0  0  0
    5.9245   -2.2321    3.8819 H   0  0  0  0  0  0  0  0  0  0  0  0
    4.9821   -3.2141    5.0251 H   0  0  0  0  0  0  0  0  0  0  0  0
    4.9172   -3.5735    3.2849 H   0  0  0  0  0  0  0  0  0  0  0  0
    3.6209   -1.1563    2.6768 N   0  0  0  0  0  0  0  0  0  0  0  0
    2.4413   -0.3370    2.3679 C   0  0  2  0  0  0  0  0  0  0  0  0
    1.9900   -0.5103    0.9031 C   0  0  0  0  0  0  0  0  0  0  0  0
    2.7358   -1.0332    0.0815 O   0  0  0  0  0  0  0  0  0  0  0  0
    2.7875    1.1261    2.6568 C   0  0  0  0  0  0  0  0  0  0  0  0
    4.2086   -1.4305    1.8904 H   0  0  0  0  0  0  0  0  0  0  0  0
    1.6008   -0.6387    3.0021 H   0  0  0  0  0  0  0  0  0  0  0  0
    3.6227    1.4530    2.0289 H   0  0  0  0  0  0  0  0  0  0  0  0
    1.9278    1.7729    2.4572 H   0  0  0  0  0  0  0  0  0  0  0  0
    3.0724    1.2461    3.7069 H   0  0  0  0  0  0  0  0  0  0  0  0
    0.7292   -0.1048    0.5088 N   0  0  0  0  0  0  0  0  0  0  0  0
    0.2101   -0.2271   -0.8656 C   0  0  2  0  0  0  0  0  0  0  0  0
   -0.8054    0.8818   -1.2008 C   0  0  0  0  0  0  0  0  0  0  0  0
   -0.4005    1.9511   -1.6372 O   0  0  0  0  0  0  0  0  0  0  0  0
   -0.3404   -1.6472   -1.0918 C   0  0  0  0  0  0  0  0  0  0  0  0
   -1.4962   -1.9220   -0.2828 O   0  0  0  0  0  0  0  0  0  0  0  0
    0.1159    0.2755    1.2249 H   0  0  0  0  0  0  0  0  0  0  0  0
    1.0394   -0.0858   -1.5681 H   0  0  0  0  0  0  0  0  0  0  0  0
    0.4431   -2.3772   -0.8626 H   0  0  0  0  0  0  0  0  0  0  0  0
   -0.6032   -1.7677   -2.1483 H   0  0  0  0  0  0  0  0  0  0  0  0
   -1.7379   -2.8653   -0.3487 H   0  0  0  0  0  0  0  0  0  0  0  0
   -2.1559    0.7023   -0.9594 N   0  0  0  0  0  0  0  0  0  0  0  0
   -3.2499    1.6814   -1.1210 C   0  0  2  0  0  0  0  0  0  0  0  0
   -3.5428    2.1003   -2.5800 C   0  0  0  0  0  0  0  0  0  0  0  0
   -4.6963    2.0825   -2.9893 O   0  0  0  0  0  0  0  0  0  0  0  0
   -3.0197    2.9144   -0.2373 C   0  0  0  0  0  0  0  0  0  0  0  0
   -2.3931   -0.2248   -0.5993 H   0  0  0  0  0  0  0  0  0  0  0  0
   -4.1622    1.1960   -0.7591 H   0  0  0  0  0  0  0  0  0  0  0  0
   -2.1762    3.5099   -0.5986 H   0  0  0  0  0  0  0  0  0  0  0  0
   -3.9114    3.5494   -0.2423 H   0  0  0  0  0  0  0  0  0  0  0  0
   -2.8170    2.6104    0.7937 H   0  0  0  0  0  0  0  0  0  0  0  0
   -2.5332    2.5081   -3.4288 N   0  0  0  0  0  0  0  0  0  0  0  0
   -2.7480    2.9545   -4.7982 C   0  0  0  0  0  0  0  0  0  0  0  0
   -1.5918    2.5411   -3.0283 H   0  0  0  0  0  0  0  0  0  0  0  0
   -3.3411    3.8746   -4.8104 H   0  0  0  0  0  0  0  0  0  0  0  0
   -1.7885    3.1521   -5.2857 H   0  0  0  0  0  0  0  0  0  0  0  0
   -3.2749    2.1869   -5.3747 H   0  0  0  0  0  0  0  0  0  0  0  0
  1  2  2  0  0  0  0
  1  3  1  0  0  0  0
  1  7  1  0  0  0  0
  3  4  1  0  0  0  0
  3  5  1  0  0  0  0
  3  6  1  0  0  0  0
  7  8  1  0  0  0  0
  7 12  1  0  0  0  0
  8  9  1  0  0  0  0
  8 11  1  0  0  0  0
  8 13  1  0  0  0  0
  9 10  2  0  0  0  0
  9 17  1  0  0  0  0
 11 14  1  0  0  0  0
 11 15  1  0  0  0  0
 11 16  1  0  0  0  0
 17 18  1  0  0  0  0
 17 23  1  0  0  0  0
 18 19  1  0  0  0  0
 18 21  1  0  0  0  0
 18 24  1  0  0  0  0
 19 20  2  0  0  0  0
 19 28  1  0  0  0  0
 21 22  1  0  0  0  0
 21 25  1  0  0  0  0
 21 26  1  0  0  0  0
 22 27  1  0  0  0  0
 28 29  1  0  0  0  0
 28 33  1  0  0  0  0
 29 30  1  0  0  0  0
 29 32  1  0  0  0  0
 29 34  1  0  0  0  0
 30 31  2  0  0  0  0
 30 38  1  0  0  0  0
 32 35  1  0  0  0  0
 32 36  1  0  0  0  0
 32 37  1  0  0  0  0
 38 39  1  0  0  0  0
 38 40  1  0  0  0  0
 39 41  1  0  0  0  0
 39 42  1  0  0  0  0
 39 43  1  0  0  0  0
M  END
$$$$

  -OEChem-05262217303D

 43 42  0     1  0  0  0  0  0999 V2000
    3.8621   -1.9474    3.8346 C   0  0  0  0  0  0  0  0  0  0  0  0
    3.1138   -1.7844    4.7854 O   0  0  0  0  0  0  0  0  0  0  0  0
    5.0103   -2.9346    3.9295 C   0  0  0  0  0  0  0  0  0  0  0  0
    5.9579   -2.4268    3.7341 H   0  0  0  0  0  0  0  0  0  0  0  0
    5.0472   -3.3746    4.9302 H   0  0  0  0  0  0  0  0  0  0  0  0
    4.8759   -3.7344    3.1971 H   0  0  0  0  0  0  0  0  0  0  0  0
    3.6522   -1.2476    2.6652 N   0  0  0  0  0  0  0  0  0  0  0  0
    2.4860   -0.3913    2.4114 C   0  0  2  0  0  0  0  0  0  0  0  0
    2.0339   -0.4605    0.9381 C   0  0  0  0  0  0  0  0  0  0  0  0
    2.7687   -0.9492    0.0865 O   0  0  0  0  0  0  0  0  0  0  0  0
    2.8511    1.0452    2.7968 C   0  0  0  0  0  0  0  0  0  0  0  0
    4.2166   -1.5073    1.8570 H   0  0  0  0  0  0  0  0  0  0  0  0
    1.6416   -0.7244    3.0244 H   0  0  0  0  0  0  0  0  0  0  0  0
    3.6875    1.4042    2.1884 H   0  0  0  0  0  0  0  0  0  0  0  0
    1.9982    1.7138    2.6458 H   0  0  0  0  0  0  0  0  0  0  0  0
    3.1418    1.0913    3.8513 H   0  0  0  0  0  0  0  0  0  0  0  0
    0.7787   -0.0132    0.5719 N   0  0  0  0  0  0  0  0  0  0  0  0
    0.2452   -0.0710   -0.8014 C   0  0  2  0  0  0  0  0  0  0  0  0
   -0.7501    1.0660   -1.0944 C   0  0  0  0  0  0  0  0  0  0  0  0
   -0.3959    2.0234   -1.7694 O   0  0  0  0  0  0  0  0  0  0  0  0
   -0.3562   -1.4619   -1.0625 C   0  0  0  0  0  0  0  0  0  0  0  0
   -1.5125   -1.7108   -0.2458 O   0  0  0  0  0  0  0  0  0  0  0  0
    0.1661    0.3135    1.3145 H   0  0  0  0  0  0  0  0  0  0  0  0
    1.0720    0.0680   -1.5074 H   0  0  0  0  0  0  0  0  0  0  0  0
    0.4021   -2.2271   -0.8660 H   0  0  0  0  0  0  0  0  0  0  0  0
   -0.6369   -1.5405   -2.1182 H   0  0  0  0  0  0  0  0  0  0  0  0
   -1.8236   -2.6272   -0.3717 H   0  0  0  0  0  0  0  0  0  0  0  0
   -2.0307    1.0184   -0.5714 N   0  0  0  0  0  0  0  0  0  0  0  0
   -3.1174    2.0038   -0.7417 C   0  0  2  0  0  0  0  0  0  0  0  0
   -3.6616    2.1210   -2.1834 C   0  0  0  0  0  0  0  0  0  0  0  0
   -4.8663    2.0343   -2.3816 O   0  0  0  0  0  0  0  0  0  0  0  0
   -2.7087    3.3803   -0.1998 C   0  0  0  0  0  0  0  0  0  0  0  0
   -2.2686    0.1167   -0.1520 H   0  0  0  0  0  0  0  0  0  0  0  0
   -3.9557    1.6580   -0.1283 H   0  0  0  0  0  0  0  0  0  0  0  0
   -1.9471    3.8463   -0.8317 H   0  0  0  0  0  0  0  0  0  0  0  0
   -3.5788    4.0439   -0.1707 H   0  0  0  0  0  0  0  0  0  0  0  0
   -2.3102    3.2866    0.8145 H   0  0  0  0  0  0  0  0  0  0  0  0
   -2.8130    2.3248   -3.2530 N   0  0  0  0  0  0  0  0  0  0  0  0
   -3.2567    2.4788   -4.6310 C   0  0  0  0  0  0  0  0  0  0  0  0
   -1.8174    2.4075   -3.0307 H   0  0  0  0  0  0  0  0  0  0  0  0
   -3.8688    3.3803   -4.7373 H   0  0  0  0  0  0  0  0  0  0  0  0
   -2.3928    2.5650   -5.2969 H   0  0  0  0  0  0  0  0  0  0  0  0
   -3.8484    1.6117   -4.9424 H   0  0  0  0  0  0  0  0  0  0  0  0
  1  2  2  0  0  0  0
  1  3  1  0  0  0  0
  1  7  1  0  0  0  0
  3  4  1  0  0  0  0
  3  5  1  0  0  0  0
  3  6  1  0  0  0  0
  7  8  1  0  0  0  0
  7 12  1  0  0  0  0
  8  9  1  0  0  0  0
  8 11  1  0  0  0  0
  8 13  1  0  0  0  0
  9 10  2  0  0  0  0
  9 17  1  0  0  0  0
 11 14  1  0  0  0  0
 11 15  1  0  0  0  0
 11 16  1  0  0  0  0
 17 18  1  0  0  0  0
 17 23  1  0  0  0  0
 18 19  1  0  0  0  0
 18 21  1  0  0  0  0
 18 24  1  0  0  0  0
 19 20  2  0  0  0  0
 19 28  1  0  0  0  0
 21 22  1  0  0  0  0
 21 25  1  0  0  0  0
 21 26  1  0  0  0  0
 22 27  1  0  0  0  0
 28 29  1  0  0  0  0
 28 33  1  0  0  0  0
 29 30  1  0  0  0  0
 29 32  1  0  0  0  0
 29 34  1  0  0  0  0
 30 31  2  0  0  0  0
 30 38  1  0  0  0  0
 32 35  1  0  0  0  0
 32 36  1  0  0  0  0
 32 37  1  0  0  0  0
 38 39  1  0  0  0  0
 38 40  1  0  0  0  0
 39 41  1  0  0  0  0
 39 42  1  0  0  0  0
 39 43  1  0  0  0  0
M  END
$$$$

  -OEChem-05262217303D

 43 42  0     1  0  0  0  0  0999 V2000
    3.8950   -2.0408    3.7854 C   0  0  0  0  0  0  0  0  0  0  0  0
    3.1369   -1.9360    4.7365 O   0  0  0  0  0  0  0  0  0  0  0  0
    5.0571   -3.0140    3.8410 C   0  0  0  0  0  0  0  0  0  0  0  0
    6.0006   -2.4751    3.7254 H   0  0  0  0  0  0  0  0  0  0  0  0
    5.0655   -3.5371    4.8014 H   0  0  0  0  0  0  0  0  0  0  0  0
    4.9657   -3.7509    3.0393 H   0  0  0  0  0  0  0  0  0  0  0  0
    3.6896   -1.2821    2.6528 N   0  0  0  0  0  0  0  0  0  0  0  0
    2.5157   -0.4273    2.4320 C   0  0  2  0  0  0  0  0  0  0  0  0
    2.0607   -0.4479    0.9579 C   0  0  0  0  0  0  0  0  0  0  0  0
    2.7903   -0.9179    0.0915 O   0  0  0  0  0  0  0  0  0  0  0  0
    2.8727    0.9973    2.8659 C   0  0  0  0  0  0  0  0  0  0  0  0
    4.2582   -1.5016    1.8357 H   0  0  0  0  0  0  0  0  0  0  0  0
    1.6752   -0.7870    3.0352 H   0  0  0  0  0  0  0  0  0  0  0  0
    3.7074    1.3814    2.2704 H   0  0  0  0  0  0  0  0  0  0  0  0
    2.0159    1.6655    2.7367 H   0  0  0  0  0  0  0  0  0  0  0  0
    3.1631    1.0096    3.9216 H   0  0  0  0  0  0  0  0  0  0  0  0
    0.8146    0.0331    0.6026 N   0  0  0  0  0  0  0  0  0  0  0  0
    0.2877    0.0264   -0.7753 C   0  0  2  0  0  0  0  0  0  0  0  0
   -0.6864    1.1839   -1.0499 C   0  0  0  0  0  0  0  0  0  0  0  0
   -0.4150    2.0184   -1.9031 O   0  0  0  0  0  0  0  0  0  0  0  0
   -0.3733   -1.3313   -1.0522 C   0  0  0  0  0  0  0  0  0  0  0  0
   -1.5400   -1.5209   -0.2336 O   0  0  0  0  0  0  0  0  0  0  0  0
    0.2026    0.3408    1.3535 H   0  0  0  0  0  0  0  0  0  0  0  0
    1.1183    0.1500   -1.4795 H   0  0  0  0  0  0  0  0  0  0  0  0
    0.3457   -2.1353   -0.8621 H   0  0  0  0  0  0  0  0  0  0  0  0
   -0.6584   -1.3850   -2.1085 H   0  0  0  0  0  0  0  0  0  0  0  0
   -1.9256   -2.4031   -0.3926 H   0  0  0  0  0  0  0  0  0  0  0  0
   -1.8447    1.2943   -0.2991 N   0  0  0  0  0  0  0  0  0  0  0  0
   -2.9109    2.3054   -0.4456 C   0  0  2  0  0  0  0  0  0  0  0  0
   -3.6780    2.2320   -1.7856 C   0  0  0  0  0  0  0  0  0  0  0  0
   -4.8883    2.0504   -1.7770 O   0  0  0  0  0  0  0  0  0  0  0  0
   -2.3742    3.7208   -0.1899 C   0  0  0  0  0  0  0  0  0  0  0  0
   -2.0873    0.4290    0.1870 H   0  0  0  0  0  0  0  0  0  0  0  0
   -3.6487    2.1019    0.3375 H   0  0  0  0  0  0  0  0  0  0  0  0
   -1.7024    4.0442   -0.9900 H   0  0  0  0  0  0  0  0  0  0  0  0
   -3.2046    4.4316   -0.1356 H   0  0  0  0  0  0  0  0  0  0  0  0
   -1.8279    3.7536    0.7572 H   0  0  0  0  0  0  0  0  0  0  0  0
   -3.0184    2.3369   -2.9938 N   0  0  0  0  0  0  0  0  0  0  0  0
   -3.6634    2.1812   -4.2896 C   0  0  0  0  0  0  0  0  0  0  0  0
   -1.9985    2.4105   -2.9443 H   0  0  0  0  0  0  0  0  0  0  0  0
   -2.9406    2.3505   -5.0933 H   0  0  0  0  0  0  0  0  0  0  0  0
   -4.0699    1.1700   -4.3946 H   0  0  0  0  0  0  0  0  0  0  0  0
   -4.4786    2.9037   -4.4006 H   0  0  0  0  0  0  0  0  0  0  0  0
  1  2  2  0  0  0  0
  1  3  1  0  0  0  0
  1  7  1  0  0  0  0
  3  4  1  0  0  0  0
  3  5  1  0  0  0  0
  3  6  1  0  0  0  0
  7  8  1  0  0  0  0
  7 12  1  0  0  0  0
  8  9  1  0  0  0  0
  8 11  1  0  0  0  0
  8 13  1  0  0  0  0
  9 10  2  0  0  0  0
  9 17  1  0  0  0  0
 11 14  1  0  0  0  0
 11 15  1  0  0  0  0
 11 16  1  0  0  0  0
 17 18  1  0  0  0  0
 17 23  1  0  0  0  0
 18 19  1  0  0  0  0
 18 21  1  0  0  0  0
 18 24  1  0  0  0  0
 19 20  2  0  0  0  0
 19 28  1  0  0  0  0
 21 22  1  0  0  0  0
 21 25  1  0  0  0  0
 21 26  1  0  0  0  0
 22 27  1  0  0  0  0
 28 29  1  0  0  0  0
 28 33  1  0  0  0  0
 29 30  1  0  0  0  0
 29 32  1  0  0  0  0
 29 34  1  0  0  0  0
 30 31  2  0  0  0  0
 30 38  1  0  0  0  0
 32 35  1  0  0  0  0
 32 36  1  0  0  0  0
 32 37  1  0  0  0  0
 38 39  1  0  0  0  0
 38 40  1  0  0  0  0
 39 41  1  0  0  0  0
 39 42  1  0  0  0  0
 39 43  1  0  0  0  0
M  END
$$$$

  -OEChem-05262217303D

 43 42  0     1  0  0  0  0  0999 V2000
    3.9232   -2.0760    3.8038 C   0  0  0  0  0  0  0  0  0  0  0  0
    3.1983   -1.9195    4.7736 O   0  0  0  0  0  0  0  0  0  0  0  0
    5.0559   -3.0840    3.8530 C   0  0  0  0  0  0  0  0  0  0  0  0
    6.0048   -2.5921    3.6260 H   0  0  0  0  0  0  0  0  0  0  0  0
    5.1203   -3.5299    4.8495 H   0  0  0  0  0  0  0  0  0  0  0  0
    4.8808   -3.8774    3.1223 H   0  0  0  0  0  0  0  0  0  0  0  0
    3.7001   -1.3497    2.6531 N   0  0  0  0  0  0  0  0  0  0  0  0
    2.5346   -0.4824    2.4362 C   0  0  2  0  0  0  0  0  0  0  0  0
    2.0828   -0.4903    0.9613 C   0  0  0  0  0  0  0  0  0  0  0  0
    2.7951   -0.9895    0.0970 O   0  0  0  0  0  0  0  0  0  0  0  0
    2.8963    0.9379    2.8814 C   0  0  0  0  0  0  0  0  0  0  0  0
    4.2428   -1.6039    1.8281 H   0  0  0  0  0  0  0  0  0  0  0  0
    1.6908   -0.8427    3.0344 H   0  0  0  0  0  0  0  0  0  0  0  0
    3.7330    1.3244    2.2904 H   0  0  0  0  0  0  0  0  0  0  0  0
    2.0419    1.6098    2.7566 H   0  0  0  0  0  0  0  0  0  0  0  0
    3.1848    0.9411    3.9375 H   0  0  0  0  0  0  0  0  0  0  0  0
    0.8564    0.0369    0.6045 N   0  0  0  0  0  0  0  0  0  0  0  0
    0.3349    0.0583   -0.7766 C   0  0  2  0  0  0  0  0  0  0  0  0
   -0.5976    1.2469   -1.0591 C   0  0  0  0  0  0  0  0  0  0  0  0
   -0.4416    1.9116   -2.0749 O   0  0  0  0  0  0  0  0  0  0  0  0
   -0.4086   -1.2554   -1.0446 C   0  0  0  0  0  0  0  0  0  0  0  0
   -1.5827   -1.3489   -0.2210 O   0  0  0  0  0  0  0  0  0  0  0  0
    0.2656    0.3856    1.3536 H   0  0  0  0  0  0  0  0  0  0  0  0
    1.1696    0.1383   -1.4823 H   0  0  0  0  0  0  0  0  0  0  0  0
    0.2546   -2.1043   -0.8468 H   0  0  0  0  0  0  0  0  0  0  0  0
   -0.6985   -1.2994   -2.1000 H   0  0  0  0  0  0  0  0  0  0  0  0
   -2.0572   -2.1827   -0.3982 H   0  0  0  0  0  0  0  0  0  0  0  0
   -1.5787    1.5781   -0.1379 N   0  0  0  0  0  0  0  0  0  0  0  0
   -2.5800    2.6572   -0.2627 C   0  0  2  0  0  0  0  0  0  0  0  0
   -3.5952    2.4553   -1.4114 C   0  0  0  0  0  0  0  0  0  0  0  0
   -4.7898    2.3899   -1.1539 O   0  0  0  0  0  0  0  0  0  0  0  0
   -1.9087    4.0355   -0.3528 C   0  0  0  0  0  0  0  0  0  0  0  0
   -1.8188    0.8017    0.4781 H   0  0  0  0  0  0  0  0  0  0  0  0
   -3.1652    2.6535    0.6627 H   0  0  0  0  0  0  0  0  0  0  0  0
   -1.3717    4.1584   -1.2978 H   0  0  0  0  0  0  0  0  0  0  0  0
   -2.6645    4.8244   -0.2874 H   0  0  0  0  0  0  0  0  0  0  0  0
   -1.1996    4.1672    0.4699 H   0  0  0  0  0  0  0  0  0  0  0  0
   -3.1763    2.3187   -2.7198 N   0  0  0  0  0  0  0  0  0  0  0  0
   -4.0662    2.0386   -3.8375 C   0  0  0  0  0  0  0  0  0  0  0  0
   -2.1635    2.2998   -2.8669 H   0  0  0  0  0  0  0  0  0  0  0  0
   -3.5017    2.0341   -4.7749 H   0  0  0  0  0  0  0  0  0  0  0  0
   -4.5413    1.0601   -3.7132 H   0  0  0  0  0  0  0  0  0  0  0  0
   -4.8465    2.8035   -3.9081 H   0  0  0  0  0  0  0  0  0  0  0  0
  1  2  2  0  0  0  0
  1  3  1  0  0  0  0
  1  7  1  0  0  0  0
  3  4  1  0  0  0  0
  3  5  1  0  0  0  0
  3  6  1  0  0  0  0
  7  8  1  0  0  0  0
  7 12  1  0  0  0  0
  8  9  1  0  0  0  0
  8 11  1  0  0  0  0
  8 13  1  0  0  0  0
  9 10  2  0  0  0  0
  9 17  1  0  0  0  0
 11 14  1  0  0  0  0
 11 15  1  0  0  0  0
 11 16  1  0  0  0  0
 17 18  1  0  0  0  0
 17 23  1  0  0  0  0
 18 19  1  0  0  0  0
 18 21  1  0  0  0  0
 18 24  1  0  0  0  0
 19 20  2  0  0  0  0
 19 28  1  0  0  0  0
 21 22  1  0  0  0  0
 21 25  1  0  0  0  0
 21 26  1  0  0  0  0
 22 27  1  0  0  0  0
 28 29  1  0  0  0  0
 28 33  1  0  0  0  0
 29 30  1  0  0  0  0
 29 32  1  0  0  0  0
 29 34  1  0  0  0  0
 30 31  2  0  0  0  0
 30 38  1  0  0  0  0
 32 35  1  0  0  0  0
 32 36  1  0  0  0  0
 32 37  1  0  0  0  0
 38 39  1  0  0  0  0
 38 40  1  0  0  0  0
 39 41  1  0  0  0  0
 39 42  1  0  0  0  0
 39 43  1  0  0  0  0
M  END
$$$$

  -OEChem-05262217303D

 43 42  0     1  0  0  0  0  0999 V2000
    3.8157   -2.3782    3.9019 C   0  0  0  0  0  0  0  0  0  0  0  0
    3.0983   -2.1877    4.8712 O   0  0  0  0  0  0  0  0  0  0  0  0
    4.8650   -3.4734    3.9323 C   0  0  0  0  0  0  0  0  0  0  0  0
    5.8375   -3.0689    3.6410 H   0  0  0  0  0  0  0  0  0  0  0  0
    4.9452   -3.8901    4.9402 H   0  0  0  0  0  0  0  0  0  0  0  0
    4.5884   -4.2725    3.2402 H   0  0  0  0  0  0  0  0  0  0  0  0
    3.6624   -1.6062    2.7701 N   0  0  0  0  0  0  0  0  0  0  0  0
    2.5849   -0.6286    2.5719 C   0  0  2  0  0  0  0  0  0  0  0  0
    2.2442   -0.4557    1.0761 C   0  0  0  0  0  0  0  0  0  0  0  0
    2.9627   -0.9623    0.2213 O   0  0  0  0  0  0  0  0  0  0  0  0
    3.0215    0.7077    3.1824 C   0  0  0  0  0  0  0  0  0  0  0  0
    4.1974   -1.8727    1.9438 H   0  0  0  0  0  0  0  0  0  0  0  0
    1.6774   -0.9780    3.0766 H   0  0  0  0  0  0  0  0  0  0  0  0
    3.9203    1.0810    2.6808 H   0  0  0  0  0  0  0  0  0  0  0  0
    2.2292    1.4552    3.0817 H   0  0  0  0  0  0  0  0  0  0  0  0
    3.2429    0.5849    4.2475 H   0  0  0  0  0  0  0  0  0  0  0  0
    1.1204    0.2560    0.6945 N   0  0  0  0  0  0  0  0  0  0  0  0
    0.5552    0.1693   -0.6690 C   0  0  2  0  0  0  0  0  0  0  0  0
   -0.1562    1.4344   -1.1712 C   0  0  0  0  0  0  0  0  0  0  0  0
   -0.2980    1.5958   -2.3759 O   0  0  0  0  0  0  0  0  0  0  0  0
   -0.4493   -0.9914   -0.6625 C   0  0  0  0  0  0  0  0  0  0  0  0
   -1.5653   -0.6896    0.1936 O   0  0  0  0  0  0  0  0  0  0  0  0
    0.4503    0.3968    1.4454 H   0  0  0  0  0  0  0  0  0  0  0  0
    1.3462   -0.0478   -1.3954 H   0  0  0  0  0  0  0  0  0  0  0  0
    0.0466   -1.9026   -0.3120 H   0  0  0  0  0  0  0  0  0  0  0  0
   -0.8090   -1.1822   -1.6795 H   0  0  0  0  0  0  0  0  0  0  0  0
   -2.2379   -0.1218   -0.2649 H   0  0  0  0  0  0  0  0  0  0  0  0
   -0.7887    2.2875   -0.2787 N   0  0  0  0  0  0  0  0  0  0  0  0
   -1.9522    3.1084   -0.6615 C   0  0  2  0  0  0  0  0  0  0  0  0
   -3.0794    2.2463   -1.2891 C   0  0  0  0  0  0  0  0  0  0  0  0
   -3.3061    1.1320   -0.8218 O   0  0  0  0  0  0  0  0  0  0  0  0
   -1.5189    4.2963   -1.5376 C   0  0  0  0  0  0  0  0  0  0  0  0
   -0.7725    1.9537    0.6792 H   0  0  0  0  0  0  0  0  0  0  0  0
   -2.3731    3.5316    0.2554 H   0  0  0  0  0  0  0  0  0  0  0  0
   -1.2068    3.9655   -2.5326 H   0  0  0  0  0  0  0  0  0  0  0  0
   -2.3443    5.0048   -1.6532 H   0  0  0  0  0  0  0  0  0  0  0  0
   -0.6803    4.8217   -1.0706 H   0  0  0  0  0  0  0  0  0  0  0  0
   -3.8438    2.7010   -2.3479 N   0  0  0  0  0  0  0  0  0  0  0  0
   -4.8087    1.8590   -3.0449 C   0  0  0  0  0  0  0  0  0  0  0  0
   -3.5193    3.5455   -2.8098 H   0  0  0  0  0  0  0  0  0  0  0  0
   -5.3214    2.4353   -3.8211 H   0  0  0  0  0  0  0  0  0  0  0  0
   -4.3037    1.0108   -3.5187 H   0  0  0  0  0  0  0  0  0  0  0  0
   -5.5614    1.4764   -2.3474 H   0  0  0  0  0  0  0  0  0  0  0  0
  1  2  2  0  0  0  0
  1  3  1  0  0  0  0
  1  7  1  0  0  0  0
  3  4  1  0  0  0  0
  3  5  1  0  0  0  0
  3  6  1  0  0  0  0
  7  8  1  0  0  0  0
  7 12  1  0  0  0  0
  8  9  1  0  0  0  0
  8 11  1  0  0  0  0
  8 13  1  0  0  0  0
  9 10  2  0  0  0  0
  9 17  1  0  0  0  0
 11 14  1  0  0  0  0
 11 15  1  0  0  0  0
 11 16  1  0  0  0  0
 17 18  1  0  0  0  0
 17 23  1  0  0  0  0
 18 19  1  0  0  0  0
 18 21  1  0  0  0  0
 18 24  1  0  0  0  0
 19 20  2  0  0  0  0
 19 28  1  0  0  0  0
 21 22  1  0  0  0  0
 21 25  1  0  0  0  0
 21 26  1  0  0  0  0
 22 27  1  0  0  0  0
 28 29  1  0  0  0  0
 28 33  1  0  0  0  0
 29 30  1  0  0  0  0
 29 32  1  0  0  0  0
 29 34  1  0  0  0  0
 30 31  2  0  0  0  0
 30 38  1  0  0  0  0
 32 35  1  0  0  0  0
 32 36  1  0  0  0  0
 32 37  1  0  0  0  0
 38 39  1  0  0  0  0
 38 40  1  0  0  0  0
 39 41  1  0  0  0  0
 39 42  1  0  0  0  0
 39 43  1  0  0  0  0
M  END
$$$$

  -OEChem-05262217303D

 43 42  0     1  0  0  0  0  0999 V2000
    3.8070   -2.3263    3.9769 C   0  0  0  0  0  0  0  0  0  0  0  0
    3.0742   -2.1222    4.9318 O   0  0  0  0  0  0  0  0  0  0  0  0
    4.8733   -3.4031    4.0473 C   0  0  0  0  0  0  0  0  0  0  0  0
    5.8557   -2.9711    3.8410 H   0  0  0  0  0  0  0  0  0  0  0  0
    4.8892   -3.8547    5.0431 H   0  0  0  0  0  0  0  0  0  0  0  0
    4.6635   -4.1819    3.3102 H   0  0  0  0  0  0  0  0  0  0  0  0
    3.6593   -1.5849    2.8242 N   0  0  0  0  0  0  0  0  0  0  0  0
    2.5629   -0.6388    2.5798 C   0  0  2  0  0  0  0  0  0  0  0  0
    2.2490   -0.5158    1.0729 C   0  0  0  0  0  0  0  0  0  0  0  0
    2.9762   -1.0602    0.2492 O   0  0  0  0  0  0  0  0  0  0  0  0
    2.9551    0.7242    3.1617 C   0  0  0  0  0  0  0  0  0  0  0  0
    4.2038   -1.8727    2.0112 H   0  0  0  0  0  0  0  0  0  0  0  0
    1.6532   -0.9965    3.0751 H   0  0  0  0  0  0  0  0  0  0  0  0
    3.8503    1.1092    2.6630 H   0  0  0  0  0  0  0  0  0  0  0  0
    2.1445    1.4471    3.0314 H   0  0  0  0  0  0  0  0  0  0  0  0
    3.1647    0.6351    4.2324 H   0  0  0  0  0  0  0  0  0  0  0  0
    1.1469    0.2031    0.6435 N   0  0  0  0  0  0  0  0  0  0  0  0
    0.5851    0.0416   -0.7148 C   0  0  2  0  0  0  0  0  0  0  0  0
   -0.0888    1.2858   -1.3110 C   0  0  0  0  0  0  0  0  0  0  0  0
   -0.4384    1.2715   -2.4838 O   0  0  0  0  0  0  0  0  0  0  0  0
   -0.4545   -1.0835   -0.6103 C   0  0  0  0  0  0  0  0  0  0  0  0
   -1.5543   -0.6778    0.2250 O   0  0  0  0  0  0  0  0  0  0  0  0
    0.4598    0.3631    1.3771 H   0  0  0  0  0  0  0  0  0  0  0  0
    1.3667   -0.2541   -1.4228 H   0  0  0  0  0  0  0  0  0  0  0  0
    0.0129   -1.9816   -0.1931 H   0  0  0  0  0  0  0  0  0  0  0  0
   -0.8277   -1.3415   -1.6073 H   0  0  0  0  0  0  0  0  0  0  0  0
   -2.1376   -0.0060   -0.2111 H   0  0  0  0  0  0  0  0  0  0  0  0
   -0.4276    2.3603   -0.5032 N   0  0  0  0  0  0  0  0  0  0  0  0
   -1.5389    3.2747   -0.8251 C   0  0  2  0  0  0  0  0  0  0  0  0
   -2.8578    2.5143   -1.1314 C   0  0  0  0  0  0  0  0  0  0  0  0
   -3.0980    1.4624   -0.5426 O   0  0  0  0  0  0  0  0  0  0  0  0
   -1.1191    4.2464   -1.9409 C   0  0  0  0  0  0  0  0  0  0  0  0
   -0.2093    2.2276    0.4783 H   0  0  0  0  0  0  0  0  0  0  0  0
   -1.7398    3.8791    0.0645 H   0  0  0  0  0  0  0  0  0  0  0  0
   -1.0271    3.7297   -2.9010 H   0  0  0  0  0  0  0  0  0  0  0  0
   -1.8557    5.0482   -2.0487 H   0  0  0  0  0  0  0  0  0  0  0  0
   -0.1530    4.7010   -1.7003 H   0  0  0  0  0  0  0  0  0  0  0  0
   -3.7912    3.0129   -2.0218 N   0  0  0  0  0  0  0  0  0  0  0  0
   -4.9849    2.2738   -2.4146 C   0  0  0  0  0  0  0  0  0  0  0  0
   -3.4974    3.7962   -2.5974 H   0  0  0  0  0  0  0  0  0  0  0  0
   -5.6014    2.8817   -3.0834 H   0  0  0  0  0  0  0  0  0  0  0  0
   -4.7101    1.3519   -2.9380 H   0  0  0  0  0  0  0  0  0  0  0  0
   -5.5850    2.0151   -1.5358 H   0  0  0  0  0  0  0  0  0  0  0  0
  1  2  2  0  0  0  0
  1  3  1  0  0  0  0
  1  7  1  0  0  0  0
  3  4  1  0  0  0  0
  3  5  1  0  0  0  0
  3  6  1  0  0  0  0
  7  8  1  0  0  0  0
  7 12  1  0  0  0  0
  8  9  1  0  0  0  0
  8 11  1  0  0  0  0
  8 13  1  0  0  0  0
  9 10  2  0  0  0  0
  9 17  1  0  0  0  0
 11 14  1  0  0  0  0
 11 15  1  0  0  0  0
 11 16  1  0  0  0  0
 17 18  1  0  0  0  0
 17 23  1  0  0  0  0
 18 19  1  0  0  0  0
 18 21  1  0  0  0  0
 18 24  1  0  0  0  0
 19 20  2  0  0  0  0
 19 28  1  0  0  0  0
 21 22  1  0  0  0  0
 21 25  1  0  0  0  0
 21 26  1  0  0  0  0
 22 27  1  0  0  0  0
 28 29  1  0  0  0  0
 28 33  1  0  0  0  0
 29 30  1  0  0  0  0
 29 32  1  0  0  0  0
 29 34  1  0  0  0  0
 30 31  2  0  0  0  0
 30 38  1  0  0  0  0
 32 35  1  0  0  0  0
 32 36  1  0  0  0  0
 32 37  1  0  0  0  0
 38 39  1  0  0  0  0
 38 40  1  0  0  0  0
 39 41  1  0  0  0  0
 39 42  1  0  0  0  0
 39 43  1  0  0  0  0
M  END
$$$$

  -OEChem-05262217303D

 43 42  0     1  0  0  0  0  0999 V2000
    3.7803   -2.2361    4.0325 C   0  0  0  0  0  0  0  0  0  0  0  0
    3.0416   -1.9954    4.9740 O   0  0  0  0  0  0  0  0  0  0  0  0
    4.8573   -3.2973    4.1583 C   0  0  0  0  0  0  0  0  0  0  0  0
    5.8309   -2.8735    3.9007 H   0  0  0  0  0  0  0  0  0  0  0  0
    4.8977   -3.6739    5.1842 H   0  0  0  0  0  0  0  0  0  0  0  0
    4.6404   -4.1301    3.4848 H   0  0  0  0  0  0  0  0  0  0  0  0
    3.6313   -1.5482    2.8471 N   0  0  0  0  0  0  0  0  0  0  0  0
    2.5279   -0.6227    2.5573 C   0  0  2  0  0  0  0  0  0  0  0  0
    2.2333   -0.5566    1.0428 C   0  0  0  0  0  0  0  0  0  0  0  0
    2.9632   -1.1419    0.2501 O   0  0  0  0  0  0  0  0  0  0  0  0
    2.8955    0.7634    3.1001 C   0  0  0  0  0  0  0  0  0  0  0  0
    4.1801   -1.8685    2.0492 H   0  0  0  0  0  0  0  0  0  0  0  0
    1.6161   -0.9748    3.0527 H   0  0  0  0  0  0  0  0  0  0  0  0
    3.7996    1.1383    2.6100 H   0  0  0  0  0  0  0  0  0  0  0  0
    2.0827    1.4746    2.9269 H   0  0  0  0  0  0  0  0  0  0  0  0
    3.0797    0.7125    4.1780 H   0  0  0  0  0  0  0  0  0  0  0  0
    1.1483    0.1592    0.5675 N   0  0  0  0  0  0  0  0  0  0  0  0
    0.5900   -0.0671   -0.7829 C   0  0  2  0  0  0  0  0  0  0  0  0
   -0.0541    1.1590   -1.4461 C   0  0  0  0  0  0  0  0  0  0  0  0
   -0.6214    1.0391   -2.5242 O   0  0  0  0  0  0  0  0  0  0  0  0
   -0.4705   -1.1642   -0.6081 C   0  0  0  0  0  0  0  0  0  0  0  0
   -1.5619   -0.6884    0.2012 O   0  0  0  0  0  0  0  0  0  0  0  0
    0.4557    0.3715    1.2843 H   0  0  0  0  0  0  0  0  0  0  0  0
    1.3654   -0.4200   -1.4708 H   0  0  0  0  0  0  0  0  0  0  0  0
   -0.0217   -2.0462   -0.1392 H   0  0  0  0  0  0  0  0  0  0  0  0
   -0.8504   -1.4729   -1.5878 H   0  0  0  0  0  0  0  0  0  0  0  0
   -2.0471    0.0668   -0.2100 H   0  0  0  0  0  0  0  0  0  0  0  0
   -0.0871    2.3740   -0.7818 N   0  0  0  0  0  0  0  0  0  0  0  0
   -1.1367    3.3797   -1.0285 C   0  0  2  0  0  0  0  0  0  0  0  0
   -2.5651    2.7696   -0.9848 C   0  0  0  0  0  0  0  0  0  0  0  0
   -2.7947    1.8175   -0.2424 O   0  0  0  0  0  0  0  0  0  0  0  0
   -0.8396    4.1412   -2.3310 C   0  0  0  0  0  0  0  0  0  0  0  0
    0.3273    2.3509    0.1443 H   0  0  0  0  0  0  0  0  0  0  0  0
   -1.0949    4.1087   -0.2139 H   0  0  0  0  0  0  0  0  0  0  0  0
   -0.9837    3.4990   -3.2053 H   0  0  0  0  0  0  0  0  0  0  0  0
   -1.4985    5.0095   -2.4269 H   0  0  0  0  0  0  0  0  0  0  0  0
    0.1954    4.4969   -2.3316 H   0  0  0  0  0  0  0  0  0  0  0  0
   -3.6005    3.2932   -1.7382 N   0  0  0  0  0  0  0  0  0  0  0  0
   -4.9219    2.6795   -1.8017 C   0  0  0  0  0  0  0  0  0  0  0  0
   -3.3506    3.9779   -2.4453 H   0  0  0  0  0  0  0  0  0  0  0  0
   -5.5766    3.2581   -2.4603 H   0  0  0  0  0  0  0  0  0  0  0  0
   -4.8521    1.6588   -2.1925 H   0  0  0  0  0  0  0  0  0  0  0  0
   -5.3777    2.6462   -0.8065 H   0  0  0  0  0  0  0  0  0  0  0  0
  1  2  2  0  0  0  0
  1  3  1  0  0  0  0
  1  7  1  0  0  0  0
  3  4  1  0  0  0  0
  3  5  1  0  0  0  0
  3  6  1  0  0  0  0
  7  8  1  0  0  0  0
  7 12  1  0  0  0  0
  8  9  1  0  0  0  0
  8 11  1  0  0  0  0
  8 13  1  0  0  0  0
  9 10  2  0  0  0  0
  9 17  1  0  0  0  0
 11 14  1  0  0  0  0
 11 15  1  0  0  0  0
 11 16  1  0  0  0  0
 17 18  1  0  0  0  0
 17 23  1  0  0  0  0
 18 19  1  0  0  0  0
 18 21  1  0  0  0  0
 18 24  1  0  0  0  0
 19 20  2  0  0  0  0
 19 28  1  0  0  0  0
 21 22  1  0  0  0  0
 21 25  1  0  0  0  0
 21 26  1  0  0  0  0
 22 27  1  0  0  0  0
 28 29  1  0  0  0  0
 28 33  1  0  0  0  0
 29 30  1  0  0  0  0
 29 32  1  0  0  0  0
 29 34  1  0  0  0  0
 30 31  2  0  0  0  0
 30 38  1  0  0  0  0
 32 35  1  0  0  0  0
 32 36  1  0  0  0  0
 32 37  1  0  0  0  0
 38 39  1  0  0  0  0
 38 40  1  0  0  0  0
 39 41  1  0  0  0  0
 39 42  1  0  0  0  0
 39 43  1  0  0  0  0
M  END
$$$$

  -OEChem-05262217303D

 43 42  0     1  0  0  0  0  0999 V2000
    3.6498   -2.0950    4.0915 C   0  0  0  0  0  0  0  0  0  0  0  0
    2.8846   -1.7933    4.9934 O   0  0  0  0  0  0  0  0  0  0  0  0
    4.7100   -3.1572    4.3131 C   0  0  0  0  0  0  0  0  0  0  0  0
    5.7039   -2.7065    4.2581 H   0  0  0  0  0  0  0  0  0  0  0  0
    4.5844   -3.6162    5.2978 H   0  0  0  0  0  0  0  0  0  0  0  0
    4.6269   -3.9346    3.5493 H   0  0  0  0  0  0  0  0  0  0  0  0
    3.5537   -1.4689    2.8671 N   0  0  0  0  0  0  0  0  0  0  0  0
    2.4801   -0.5387    2.4940 C   0  0  2  0  0  0  0  0  0  0  0  0
    2.2189   -0.5572    0.9721 C   0  0  0  0  0  0  0  0  0  0  0  0
    2.9740   -1.1696    0.2248 O   0  0  0  0  0  0  0  0  0  0  0  0
    2.8723    0.8684    2.9585 C   0  0  0  0  0  0  0  0  0  0  0  0
    4.1268   -1.8359    2.1077 H   0  0  0  0  0  0  0  0  0  0  0  0
    1.5491   -0.8363    2.9895 H   0  0  0  0  0  0  0  0  0  0  0  0
    3.7950    1.1909    2.4655 H   0  0  0  0  0  0  0  0  0  0  0  0
    2.0806    1.5865    2.7253 H   0  0  0  0  0  0  0  0  0  0  0  0
    3.0346    0.8788    4.0411 H   0  0  0  0  0  0  0  0  0  0  0  0
    1.1375    0.1182    0.4352 N   0  0  0  0  0  0  0  0  0  0  0  0
    0.6123   -0.1730   -0.9157 C   0  0  2  0  0  0  0  0  0  0  0  0
   -0.0237    1.0437   -1.6093 C   0  0  0  0  0  0  0  0  0  0  0  0
   -0.8310    0.8899   -2.5173 O   0  0  0  0  0  0  0  0  0  0  0  0
   -0.4200   -1.2971   -0.7401 C   0  0  0  0  0  0  0  0  0  0  0  0
   -1.5409   -0.8248    0.0246 O   0  0  0  0  0  0  0  0  0  0  0  0
    0.4317    0.3888    1.1207 H   0  0  0  0  0  0  0  0  0  0  0  0
    1.4130   -0.5228   -1.5755 H   0  0  0  0  0  0  0  0  0  0  0  0
    0.0388   -2.1531   -0.2341 H   0  0  0  0  0  0  0  0  0  0  0  0
   -0.7652   -1.6430   -1.7202 H   0  0  0  0  0  0  0  0  0  0  0  0
   -1.9810   -0.0642   -0.4106 H   0  0  0  0  0  0  0  0  0  0  0  0
    0.2120    2.3126   -1.1059 N   0  0  0  0  0  0  0  0  0  0  0  0
   -0.7496    3.4195   -1.2584 C   0  0  2  0  0  0  0  0  0  0  0  0
   -2.1827    3.0127   -0.8211 C   0  0  0  0  0  0  0  0  0  0  0  0
   -2.3257    2.2303    0.1142 O   0  0  0  0  0  0  0  0  0  0  0  0
   -0.6797    3.9891   -2.6850 C   0  0  0  0  0  0  0  0  0  0  0  0
    0.7966    2.3186   -0.2751 H   0  0  0  0  0  0  0  0  0  0  0  0
   -0.4439    4.2207   -0.5791 H   0  0  0  0  0  0  0  0  0  0  0  0
   -1.0865    3.2820   -3.4142 H   0  0  0  0  0  0  0  0  0  0  0  0
   -1.2475    4.9217   -2.7533 H   0  0  0  0  0  0  0  0  0  0  0  0
    0.3596    4.2015   -2.9540 H   0  0  0  0  0  0  0  0  0  0  0  0
   -3.3075    3.5221   -1.4446 N   0  0  0  0  0  0  0  0  0  0  0  0
   -4.6565    3.0573   -1.1429 C   0  0  0  0  0  0  0  0  0  0  0  0
   -3.1562    4.0447   -2.3022 H   0  0  0  0  0  0  0  0  0  0  0  0
   -5.3898    3.6203   -1.7280 H   0  0  0  0  0  0  0  0  0  0  0  0
   -4.7587    1.9945   -1.3871 H   0  0  0  0  0  0  0  0  0  0  0  0
   -4.8839    3.1976   -0.0809 H   0  0  0  0  0  0  0  0  0  0  0  0
  1  2  2  0  0  0  0
  1  3  1  0  0  0  0
  1  7  1  0  0  0  0
  3  4  1  0  0  0  0
  3  5  1  0  0  0  0
  3  6  1  0  0  0  0
  7  8  1  0  0  0  0
  7 12  1  0  0  0  0
  8  9  1  0  0  0  0
  8 11  1  0  0  0  0
  8 13  1  0  0  0  0
  9 10  2  0  0  0  0
  9 17  1  0  0  0  0
 11 14  1  0  0  0  0
 11 15  1  0  0  0  0
 11 16  1  0  0  0  0
 17 18  1  0  0  0  0
 17 23  1  0  0  0  0
 18 19  1  0  0  0  0
 18 21  1  0  0  0  0
 18 24  1  0  0  0  0
 19 20  2  0  0  0  0
 19 28  1  0  0  0  0
 21 22  1  0  0  0  0
 21 25  1  0  0  0  0
 21 26  1  0  0  0  0
 22 27  1  0  0  0  0
 28 29  1  0  0  0  0
 28 33  1  0  0  0  0
 29 30  1  0  0  0  0
 29 32  1  0  0  0  0
 29 34  1  0  0  0  0
 30 31  2  0  0  0  0
 30 38  1  0  0  0  0
 32 35  1  0  0  0  0
 32 36  1  0  0  0  0
 32 37  1  0  0  0  0
 38 39  1  0  0  0  0
 38 40  1  0  0  0  0
 39 41  1  0  0  0  0
 39 42  1  0  0  0  0
 39 43  1  0  0  0  0
M  END
$$$$

  -OEChem-05262217303D

 43 42  0     1  0  0  0  0  0999 V2000
    3.5607   -2.1313    3.9873 C   0  0  0  0  0  0  0  0  0  0  0  0
    2.7812   -1.8671    4.8886 O   0  0  0  0  0  0  0  0  0  0  0  0
    4.5755   -3.2461    4.1585 C   0  0  0  0  0  0  0  0  0  0  0  0
    5.5848   -2.8603    3.9957 H   0  0  0  0  0  0  0  0  0  0  0  0
    4.5153   -3.6595    5.1693 H   0  0  0  0  0  0  0  0  0  0  0  0
    4.3774   -4.0446    3.4392 H   0  0  0  0  0  0  0  0  0  0  0  0
    3.5105   -1.4246    2.8044 N   0  0  0  0  0  0  0  0  0  0  0  0
    2.4680   -0.4457    2.4697 C   0  0  2  0  0  0  0  0  0  0  0  0
    2.1765   -0.4244    0.9541 C   0  0  0  0  0  0  0  0  0  0  0  0
    2.9464   -0.9670    0.1693 O   0  0  0  0  0  0  0  0  0  0  0  0
    2.9248    0.9332    2.9562 C   0  0  0  0  0  0  0  0  0  0  0  0
    4.0938   -1.7567    2.0369 H   0  0  0  0  0  0  0  0  0  0  0  0
    1.5347   -0.7146    2.9768 H   0  0  0  0  0  0  0  0  0  0  0  0
    3.8555    1.2261    2.4596 H   0  0  0  0  0  0  0  0  0  0  0  0
    2.1622    1.6892    2.7456 H   0  0  0  0  0  0  0  0  0  0  0  0
    3.0986    0.9136    4.0371 H   0  0  0  0  0  0  0  0  0  0  0  0
    1.0349    0.1850    0.4639 N   0  0  0  0  0  0  0  0  0  0  0  0
    0.4971   -0.1102   -0.8812 C   0  0  2  0  0  0  0  0  0  0  0  0
   -0.2376    1.0980   -1.4951 C   0  0  0  0  0  0  0  0  0  0  0  0
   -1.2413    0.9429   -2.1823 O   0  0  0  0  0  0  0  0  0  0  0  0
   -0.4147   -1.3412   -0.7668 C   0  0  0  0  0  0  0  0  0  0  0  0
   -1.5638   -1.0299    0.0307 O   0  0  0  0  0  0  0  0  0  0  0  0
    0.3410    0.4137    1.1746 H   0  0  0  0  0  0  0  0  0  0  0  0
    1.3128   -0.3501   -1.5708 H   0  0  0  0  0  0  0  0  0  0  0  0
    0.1381   -2.1681   -0.3086 H   0  0  0  0  0  0  0  0  0  0  0  0
   -0.7329   -1.6706   -1.7618 H   0  0  0  0  0  0  0  0  0  0  0  0
   -2.1704   -0.4606   -0.4822 H   0  0  0  0  0  0  0  0  0  0  0  0
    0.1729    2.3751   -1.1495 N   0  0  0  0  0  0  0  0  0  0  0  0
   -0.4339    3.6579   -1.5591 C   0  0  2  0  0  0  0  0  0  0  0  0
   -1.8440    3.9040   -0.9760 C   0  0  0  0  0  0  0  0  0  0  0  0
   -2.0225    4.8356   -0.2032 O   0  0  0  0  0  0  0  0  0  0  0  0
   -0.4286    3.8151   -3.0870 C   0  0  0  0  0  0  0  0  0  0  0  0
    0.9784    2.4136   -0.5294 H   0  0  0  0  0  0  0  0  0  0  0  0
    0.2023    4.4543   -1.1587 H   0  0  0  0  0  0  0  0  0  0  0  0
   -1.1135    3.1088   -3.5646 H   0  0  0  0  0  0  0  0  0  0  0  0
   -0.7416    4.8280   -3.3589 H   0  0  0  0  0  0  0  0  0  0  0  0
    0.5769    3.6461   -3.4839 H   0  0  0  0  0  0  0  0  0  0  0  0
   -2.8978    3.0664   -1.2830 N   0  0  0  0  0  0  0  0  0  0  0  0
   -4.2262    3.1819   -0.6972 C   0  0  0  0  0  0  0  0  0  0  0  0
   -2.6650    2.2424   -1.8423 H   0  0  0  0  0  0  0  0  0  0  0  0
   -4.8976    2.4365   -1.1346 H   0  0  0  0  0  0  0  0  0  0  0  0
   -4.1831    3.0194    0.3848 H   0  0  0  0  0  0  0  0  0  0  0  0
   -4.6437    4.1760   -0.8883 H   0  0  0  0  0  0  0  0  0  0  0  0
  1  2  2  0  0  0  0
  1  3  1  0  0  0  0
  1  7  1  0  0  0  0
  3  4  1  0  0  0  0
  3  5  1  0  0  0  0
  3  6  1  0  0  0  0
  7  8  1  0  0  0  0
  7 12  1  0  0  0  0
  8  9  1  0  0  0  0
  8 11  1  0  0  0  0
  8 13  1  0  0  0  0
  9 10  2  0  0  0  0
  9 17  1  0  0  0  0
 11 14  1  0  0  0  0
 11 15  1  0  0  0  0
 11 16  1  0  0  0  0
 17 18  1  0  0  0  0
 17 23  1  0  0  0  0
 18 19  1  0  0  0  0
 18 21  1  0  0  0  0
 18 24  1  0  0  0  0
 19 20  2  0  0  0  0
 19 28  1  0  0  0  0
 21 22  1  0  0  0  0
 21 25  1  0  0  0  0
 21 26  1  0  0  0  0
 22 27  1  0  0  0  0
 28 29  1  0  0  0  0
 28 33  1  0  0  0  0
 29 30  1  0  0  0  0
 29 32  1  0  0  0  0
 29 34  1  0  0  0  0
 30 31  2  0  0  0  0
 30 38  1  0  0  0  0
 32 35  1  0  0  0  0
 32 36  1  0  0  0  0
 32 37  1  0  0  0  0
 38 39  1  0  0  0  0
 38 40  1  0  0  0  0
 39 41  1  0  0  0  0
 39 42  1  0  0  0  0
 39 43  1  0  0  0  0
M  END
$$$$

  -OEChem-05262217303D

 43 42  0     1  0  0  0  0  0999 V2000
    3.1457   -1.3756    4.1811 C   0  0  0  0  0  0  0  0  0  0  0  0
    2.3744   -0.8055    4.9358 O   0  0  0  0  0  0  0  0  0  0  0  0
    4.0972   -2.4273    4.7193 C   0  0  0  0  0  0  0  0  0  0  0  0
    5.1293   -2.1419    4.5028 H   0  0  0  0  0  0  0  0  0  0  0  0
    3.9785   -2.5255    5.8021 H   0  0  0  0  0  0  0  0  0  0  0  0
    3.8871   -3.3929    4.2528 H   0  0  0  0  0  0  0  0  0  0  0  0
    3.1512   -1.0725    2.8362 N   0  0  0  0  0  0  0  0  0  0  0  0
    2.1685   -0.2014    2.1773 C   0  0  2  0  0  0  0  0  0  0  0  0
    1.9762   -0.5912    0.6961 C   0  0  0  0  0  0  0  0  0  0  0  0
    2.7389   -1.3872    0.1566 O   0  0  0  0  0  0  0  0  0  0  0  0
    2.6406    1.2514    2.2972 C   0  0  0  0  0  0  0  0  0  0  0  0
    3.7248   -1.6558    2.2280 H   0  0  0  0  0  0  0  0  0  0  0  0
    1.1953   -0.3047    2.6704 H   0  0  0  0  0  0  0  0  0  0  0  0
    3.6050    1.3832    1.7971 H   0  0  0  0  0  0  0  0  0  0  0  0
    1.9133    1.9310    1.8427 H   0  0  0  0  0  0  0  0  0  0  0  0
    2.7532    1.5277    3.3504 H   0  0  0  0  0  0  0  0  0  0  0  0
    0.9556   -0.0407   -0.0517 N   0  0  0  0  0  0  0  0  0  0  0  0
    0.5891   -0.4706   -1.4150 C   0  0  2  0  0  0  0  0  0  0  0  0
    0.0114    0.7270   -2.1934 C   0  0  0  0  0  0  0  0  0  0  0  0
   -1.1324    0.7063   -2.6370 O   0  0  0  0  0  0  0  0  0  0  0  0
   -0.3805   -1.6620   -1.3284 C   0  0  0  0  0  0  0  0  0  0  0  0
   -1.6260   -1.2648   -0.7442 O   0  0  0  0  0  0  0  0  0  0  0  0
    0.3127    0.5940    0.4345 H   0  0  0  0  0  0  0  0  0  0  0  0
    1.4807   -0.8009   -1.9574 H   0  0  0  0  0  0  0  0  0  0  0  0
    0.0676   -2.4620   -0.7302 H   0  0  0  0  0  0  0  0  0  0  0  0
   -0.5617   -2.0602   -2.3322 H   0  0  0  0  0  0  0  0  0  0  0  0
   -2.0180   -0.5567   -1.2977 H   0  0  0  0  0  0  0  0  0  0  0  0
    0.6917    1.9304   -2.0915 N   0  0  0  0  0  0  0  0  0  0  0  0
   -0.0174    3.2002   -1.8517 C   0  0  2  0  0  0  0  0  0  0  0  0
   -0.9127    3.0985   -0.5890 C   0  0  0  0  0  0  0  0  0  0  0  0
   -0.4656    2.5339    0.4073 O   0  0  0  0  0  0  0  0  0  0  0  0
   -0.7539    3.6903   -3.1107 C   0  0  0  0  0  0  0  0  0  0  0  0
    1.5634    1.8283   -1.5765 H   0  0  0  0  0  0  0  0  0  0  0  0
    0.7387    3.9576   -1.6236 H   0  0  0  0  0  0  0  0  0  0  0  0
   -1.6256    3.0695   -3.3354 H   0  0  0  0  0  0  0  0  0  0  0  0
   -1.0934    4.7213   -2.9735 H   0  0  0  0  0  0  0  0  0  0  0  0
   -0.0805    3.6628   -3.9728 H   0  0  0  0  0  0  0  0  0  0  0  0
   -2.2047    3.5902   -0.5627 N   0  0  0  0  0  0  0  0  0  0  0  0
   -3.1179    3.3537    0.5495 C   0  0  0  0  0  0  0  0  0  0  0  0
   -2.5934    3.8960   -1.4501 H   0  0  0  0  0  0  0  0  0  0  0  0
   -4.0738    3.8539    0.3671 H   0  0  0  0  0  0  0  0  0  0  0  0
   -3.3058    2.2814    0.6697 H   0  0  0  0  0  0  0  0  0  0  0  0
   -2.6979    3.7454    1.4819 H   0  0  0  0  0  0  0  0  0  0  0  0
  1  2  2  0  0  0  0
  1  3  1  0  0  0  0
  1  7  1  0  0  0  0
  3  4  1  0  0  0  0
  3  5  1  0  0  0  0
  3  6  1  0  0  0  0
  7  8  1  0  0  0  0
  7 12  1  0  0  0  0
  8  9  1  0  0  0  0
  8 11  1  0  0  0  0
  8 13  1  0  0  0  0
  9 10  2  0  0  0  0
  9 17  1  0  0  0  0
 11 14  1  0  0  0  0
 11 15  1  0  0  0  0
 11 16  1  0  0  0  0
 17 18  1  0  0  0  0
 17 23  1  0  0  0  0
 18 19  1  0  0  0  0
 18 21  1  0  0  0  0
 18 24  1  0  0  0  0
 19 20  2  0  0  0  0
 19 28  1  0  0  0  0
 21 22  1  0  0  0  0
 21 25  1  0  0  0  0
 21 26  1  0  0  0  0
 22 27  1  0  0  0  0
 28 29  1  0  0  0  0
 28 33  1  0  0  0  0
 29 30  1  0  0  0  0
 29 32  1  0  0  0  0
 29 34  1  0  0  0  0
 30 31  2  0  0  0  0
 30 38  1  0  0  0  0
 32 35  1  0  0  0  0
 32 36  1  0  0  0  0
 32 37  1  0  0  0  0
 38 39  1  0  0  0  0
 38 40  1  0  0  0  0
 39 41  1  0  0  0  0
 39 42  1  0  0  0  0
 39 43  1  0  0  0  0
M  END
$$$$

  -OEChem-05262217303D

 43 42  0     1  0  0  0  0  0999 V2000
    3.2239   -1.2411    4.1745 C   0  0  0  0  0  0  0  0  0  0  0  0
    2.4579   -0.6564    4.9237 O   0  0  0  0  0  0  0  0  0  0  0  0
    4.2219   -2.2376    4.7339 C   0  0  0  0  0  0  0  0  0  0  0  0
    5.2373   -1.9452    4.4553 H   0  0  0  0  0  0  0  0  0  0  0  0
    4.1512   -2.2696    5.8248 H   0  0  0  0  0  0  0  0  0  0  0  0
    4.0147   -3.2348    4.3377 H   0  0  0  0  0  0  0  0  0  0  0  0
    3.1810   -1.0064    2.8167 N   0  0  0  0  0  0  0  0  0  0  0  0
    2.1619   -0.1888    2.1447 C   0  0  2  0  0  0  0  0  0  0  0  0
    1.9447   -0.6484    0.6869 C   0  0  0  0  0  0  0  0  0  0  0  0
    2.7286   -1.4311    0.1578 O   0  0  0  0  0  0  0  0  0  0  0  0
    2.6057    1.2771    2.1914 C   0  0  0  0  0  0  0  0  0  0  0  0
    3.7601   -1.5969    2.2208 H   0  0  0  0  0  0  0  0  0  0  0  0
    1.2036   -0.2921    2.6660 H   0  0  0  0  0  0  0  0  0  0  0  0
    3.5534    1.4081    1.6601 H   0  0  0  0  0  0  0  0  0  0  0  0
    1.8531    1.9220    1.7293 H   0  0  0  0  0  0  0  0  0  0  0  0
    2.7396    1.6000    3.2286 H   0  0  0  0  0  0  0  0  0  0  0  0
    0.8849   -0.1697   -0.0559 N   0  0  0  0  0  0  0  0  0  0  0  0
    0.5525   -0.6059   -1.4246 C   0  0  2  0  0  0  0  0  0  0  0  0
   -0.1154    0.5586   -2.1778 C   0  0  0  0  0  0  0  0  0  0  0  0
   -1.3137    0.5529   -2.4430 O   0  0  0  0  0  0  0  0  0  0  0  0
   -0.3210   -1.8716   -1.3623 C   0  0  0  0  0  0  0  0  0  0  0  0
   -1.5967   -1.5923   -0.7746 O   0  0  0  0  0  0  0  0  0  0  0  0
    0.2643    0.5089    0.3958 H   0  0  0  0  0  0  0  0  0  0  0  0
    1.4669   -0.8583   -1.9705 H   0  0  0  0  0  0  0  0  0  0  0  0
    0.1887   -2.6473   -0.7815 H   0  0  0  0  0  0  0  0  0  0  0  0
   -0.4690   -2.2590   -2.3755 H   0  0  0  0  0  0  0  0  0  0  0  0
   -2.0166   -0.8580   -1.2734 H   0  0  0  0  0  0  0  0  0  0  0  0
    0.6238    1.7217   -2.3205 N   0  0  0  0  0  0  0  0  0  0  0  0
    0.0068    3.0504   -2.1521 C   0  0  2  0  0  0  0  0  0  0  0  0
   -0.7355    3.1646   -0.7933 C   0  0  0  0  0  0  0  0  0  0  0  0
   -0.2710    2.5973    0.1935 O   0  0  0  0  0  0  0  0  0  0  0  0
   -0.8599    3.4248   -3.3666 C   0  0  0  0  0  0  0  0  0  0  0  0
    1.5598    1.6326   -1.9321 H   0  0  0  0  0  0  0  0  0  0  0  0
    0.8184    3.7831   -2.1127 H   0  0  0  0  0  0  0  0  0  0  0  0
   -1.7876    2.8456   -3.3907 H   0  0  0  0  0  0  0  0  0  0  0  0
   -1.1194    4.4873   -3.3350 H   0  0  0  0  0  0  0  0  0  0  0  0
   -0.3099    3.2345   -4.2934 H   0  0  0  0  0  0  0  0  0  0  0  0
   -1.8919    3.9099   -0.6544 N   0  0  0  0  0  0  0  0  0  0  0  0
   -2.6669    3.9496    0.5805 C   0  0  0  0  0  0  0  0  0  0  0  0
   -2.3224    4.2528   -1.5082 H   0  0  0  0  0  0  0  0  0  0  0  0
   -3.5120    4.6368    0.4746 H   0  0  0  0  0  0  0  0  0  0  0  0
   -3.0563    2.9544    0.8204 H   0  0  0  0  0  0  0  0  0  0  0  0
   -2.0458    4.2955    1.4138 H   0  0  0  0  0  0  0  0  0  0  0  0
  1  2  2  0  0  0  0
  1  3  1  0  0  0  0
  1  7  1  0  0  0  0
  3  4  1  0  0  0  0
  3  5  1  0  0  0  0
  3  6  1  0  0  0  0
  7  8  1  0  0  0  0
  7 12  1  0  0  0  0
  8  9  1  0  0  0  0
  8 11  1  0  0  0  0
  8 13  1  0  0  0  0
  9 10  2  0  0  0  0
  9 17  1  0  0  0  0
 11 14  1  0  0  0  0
 11 15  1  0  0  0  0
 11 16  1  0  0  0  0
 17 18  1  0  0  0  0
 17 23  1  0  0  0  0
 18 19  1  0  0  0  0
 18 21  1  0  0  0  0
 18 24  1  0  0  0  0
 19 20  2  0  0  0  0
 19 28  1  0  0  0  0
 21 22  1  0  0  0  0
 21 25  1  0  0  0  0
 21 26  1  0  0  0  0
 22 27  1  0  0  0  0
 28 29  1  0  0  0  0
 28 33  1  0  0  0  0
 29 30  1  0  0  0  0
 29 32  1  0  0  0  0
 29 34  1  0  0  0  0
 30 31  2  0  0  0  0
 30 38  1  0  0  0  0
 32 35  1  0  0  0  0
 32 36  1  0  0  0  0
 32 37  1  0  0  0  0
 38 39  1  0  0  0  0
 38 40  1  0  0  0  0
 39 41  1  0  0  0  0
 39 42  1  0  0  0  0
 39 43  1  0  0  0  0
M  END
$$$$

  -OEChem-05262217303D

 43 42  0     1  0  0  0  0  0999 V2000
    3.3359   -1.2237    4.1480 C   0  0  0  0  0  0  0  0  0  0  0  0
    2.5588   -0.6881    4.9220 O   0  0  0  0  0  0  0  0  0  0  0  0
    4.4143   -2.1519    4.6739 C   0  0  0  0  0  0  0  0  0  0  0  0
    5.3997   -1.7835    4.3787 H   0  0  0  0  0  0  0  0  0  0  0  0
    4.3693   -2.2018    5.7654 H   0  0  0  0  0  0  0  0  0  0  0  0
    4.2716   -3.1567    4.2688 H   0  0  0  0  0  0  0  0  0  0  0  0
    3.2371   -0.9901    2.7931 N   0  0  0  0  0  0  0  0  0  0  0  0
    2.1586   -0.2217    2.1573 C   0  0  2  0  0  0  0  0  0  0  0  0
    1.9176   -0.6846    0.7044 C   0  0  0  0  0  0  0  0  0  0  0  0
    2.7056   -1.4503    0.1562 O   0  0  0  0  0  0  0  0  0  0  0  0
    2.5288    1.2648    2.1975 C   0  0  0  0  0  0  0  0  0  0  0  0
    3.8262   -1.5487    2.1767 H   0  0  0  0  0  0  0  0  0  0  0  0
    1.2236   -0.3754    2.7075 H   0  0  0  0  0  0  0  0  0  0  0  0
    3.4475    1.4467    1.6315 H   0  0  0  0  0  0  0  0  0  0  0  0
    1.7276    1.8731    1.7680 H   0  0  0  0  0  0  0  0  0  0  0  0
    2.6853    1.5898    3.2308 H   0  0  0  0  0  0  0  0  0  0  0  0
    0.8253   -0.2349   -0.0095 N   0  0  0  0  0  0  0  0  0  0  0  0
    0.4854   -0.6639   -1.3773 C   0  0  2  0  0  0  0  0  0  0  0  0
   -0.2416    0.4773   -2.1101 C   0  0  0  0  0  0  0  0  0  0  0  0
   -1.4672    0.5321   -2.1545 O   0  0  0  0  0  0  0  0  0  0  0  0
   -0.3349   -1.9651   -1.3197 C   0  0  0  0  0  0  0  0  0  0  0  0
   -1.6102   -1.7496   -0.7049 O   0  0  0  0  0  0  0  0  0  0  0  0
    0.2130    0.4423    0.4492 H   0  0  0  0  0  0  0  0  0  0  0  0
    1.4005   -0.8753   -1.9387 H   0  0  0  0  0  0  0  0  0  0  0  0
    0.2166   -2.7304   -0.7637 H   0  0  0  0  0  0  0  0  0  0  0  0
   -0.4865   -2.3392   -2.3372 H   0  0  0  0  0  0  0  0  0  0  0  0
   -2.0418   -0.9792   -1.1370 H   0  0  0  0  0  0  0  0  0  0  0  0
    0.5193    1.5509   -2.5429 N   0  0  0  0  0  0  0  0  0  0  0  0
   -0.0014    2.9301   -2.5004 C   0  0  2  0  0  0  0  0  0  0  0  0
   -0.5408    3.2933   -1.0905 C   0  0  0  0  0  0  0  0  0  0  0  0
    0.0385    2.8604   -0.0973 O   0  0  0  0  0  0  0  0  0  0  0  0
   -1.0099    3.1782   -3.6353 C   0  0  0  0  0  0  0  0  0  0  0  0
    1.5043    1.4543   -2.3084 H   0  0  0  0  0  0  0  0  0  0  0  0
    0.8424    3.6030   -2.6809 H   0  0  0  0  0  0  0  0  0  0  0  0
   -1.9527    2.6536   -3.4553 H   0  0  0  0  0  0  0  0  0  0  0  0
   -1.2231    4.2474   -3.7264 H   0  0  0  0  0  0  0  0  0  0  0  0
   -0.5975    2.8292   -4.5870 H   0  0  0  0  0  0  0  0  0  0  0  0
   -1.6467    4.1056   -0.9179 N   0  0  0  0  0  0  0  0  0  0  0  0
   -2.2421    4.3642    0.3881 C   0  0  0  0  0  0  0  0  0  0  0  0
   -2.1905    4.3197   -1.7487 H   0  0  0  0  0  0  0  0  0  0  0  0
   -3.0636    5.0811    0.2947 H   0  0  0  0  0  0  0  0  0  0  0  0
   -2.6364    3.4379    0.8193 H   0  0  0  0  0  0  0  0  0  0  0  0
   -1.4983    4.7832    1.0743 H   0  0  0  0  0  0  0  0  0  0  0  0
  1  2  2  0  0  0  0
  1  3  1  0  0  0  0
  1  7  1  0  0  0  0
  3  4  1  0  0  0  0
  3  5  1  0  0  0  0
  3  6  1  0  0  0  0
  7  8  1  0  0  0  0
  7 12  1  0  0  0  0
  8  9  1  0  0  0  0
  8 11  1  0  0  0  0
  8 13  1  0  0  0  0
  9 10  2  0  0  0  0
  9 17  1  0  0  0  0
 11 14  1  0  0  0  0
 11 15  1  0  0  0  0
 11 16  1  0  0  0  0
 17 18  1  0  0  0  0
 17 23  1  0  0  0  0
 18 19  1  0  0  0  0
 18 21  1  0  0  0  0
 18 24  1  0  0  0  0
 19 20  2  0  0  0  0
 19 28  1  0  0  0  0
 21 22  1  0  0  0  0
 21 25  1  0  0  0  0
 21 26  1  0  0  0  0
 22 27  1  0  0  0  0
 28 29  1  0  0  0  0
 28 33  1  0  0  0  0
 29 30  1  0  0  0  0
 29 32  1  0  0  0  0
 29 34  1  0  0  0  0
 30 31  2  0  0  0  0
 30 38  1  0  0  0  0
 32 35  1  0  0  0  0
 32 36  1  0  0  0  0
 32 37  1  0  0  0  0
 38 39  1  0  0  0  0
 38 40  1  0  0  0  0
 39 41  1  0  0  0  0
 39 42  1  0  0  0  0
 39 43  1  0  0  0  0
M  END
$$$$

  -OEChem-05262217303D

 43 42  0     1  0  0  0  0  0999 V2000
    3.4877   -1.7601    4.0845 C   0  0  0  0  0  0  0  0  0  0  0  0
    2.6565   -1.4967    4.9387 O   0  0  0  0  0  0  0  0  0  0  0  0
    4.6159   -2.7269    4.3919 C   0  0  0  0  0  0  0  0  0  0  0  0
    5.5802   -2.2348    4.2428 H   0  0  0  0  0  0  0  0  0  0  0  0
    4.5500   -3.0662    5.4297 H   0  0  0  0  0  0  0  0  0  0  0  0
    4.5518   -3.5963    3.7329 H   0  0  0  0  0  0  0  0  0  0  0  0
    3.3945   -1.1892    2.8327 N   0  0  0  0  0  0  0  0  0  0  0  0
    2.2609   -0.3727    2.3791 C   0  0  2  0  0  0  0  0  0  0  0  0
    2.0332   -0.5079    0.8586 C   0  0  0  0  0  0  0  0  0  0  0  0
    2.8601   -1.0750    0.1517 O   0  0  0  0  0  0  0  0  0  0  0  0
    2.5287    1.0883    2.7562 C   0  0  0  0  0  0  0  0  0  0  0  0
    4.0331   -1.5301    2.1149 H   0  0  0  0  0  0  0  0  0  0  0  0
    1.3446   -0.7105    2.8761 H   0  0  0  0  0  0  0  0  0  0  0  0
    3.4297    1.4543    2.2538 H   0  0  0  0  0  0  0  0  0  0  0  0
    1.6854    1.7227    2.4668 H   0  0  0  0  0  0  0  0  0  0  0  0
    2.6708    1.1812    3.8377 H   0  0  0  0  0  0  0  0  0  0  0  0
    0.8957    0.0112    0.2700 N   0  0  0  0  0  0  0  0  0  0  0  0
    0.4584   -0.3433   -1.0907 C   0  0  2  0  0  0  0  0  0  0  0  0
   -0.3032    0.8142   -1.7654 C   0  0  0  0  0  0  0  0  0  0  0  0
   -1.5109    0.9559   -1.5951 O   0  0  0  0  0  0  0  0  0  0  0  0
   -0.3721   -1.6361   -1.0109 C   0  0  0  0  0  0  0  0  0  0  0  0
   -1.5894   -1.4180   -0.2880 O   0  0  0  0  0  0  0  0  0  0  0  0
    0.1676    0.3121    0.9154 H   0  0  0  0  0  0  0  0  0  0  0  0
    1.3290   -0.5537   -1.7204 H   0  0  0  0  0  0  0  0  0  0  0  0
    0.2090   -2.4278   -0.5262 H   0  0  0  0  0  0  0  0  0  0  0  0
   -0.6124   -1.9752   -2.0237 H   0  0  0  0  0  0  0  0  0  0  0  0
   -2.0653   -0.6529   -0.6802 H   0  0  0  0  0  0  0  0  0  0  0  0
    0.4081    1.7451   -2.5054 N   0  0  0  0  0  0  0  0  0  0  0  0
   -0.1205    2.9632   -3.1555 C   0  0  2  0  0  0  0  0  0  0  0  0
   -0.6098    4.0509   -2.1712 C   0  0  0  0  0  0  0  0  0  0  0  0
   -0.1220    5.1716   -2.2222 O   0  0  0  0  0  0  0  0  0  0  0  0
   -1.2057    2.6219   -4.1868 C   0  0  0  0  0  0  0  0  0  0  0  0
    1.4191    1.6288   -2.5007 H   0  0  0  0  0  0  0  0  0  0  0  0
    0.7098    3.4110   -3.7120 H   0  0  0  0  0  0  0  0  0  0  0  0
   -2.1196    2.2666   -3.7025 H   0  0  0  0  0  0  0  0  0  0  0  0
   -1.4572    3.5111   -4.7735 H   0  0  0  0  0  0  0  0  0  0  0  0
   -0.8495    1.8460   -4.8710 H   0  0  0  0  0  0  0  0  0  0  0  0
   -1.5673    3.7737   -1.2159 N   0  0  0  0  0  0  0  0  0  0  0  0
   -2.0426    4.7362   -0.2319 C   0  0  0  0  0  0  0  0  0  0  0  0
   -1.9144    2.8121   -1.1896 H   0  0  0  0  0  0  0  0  0  0  0  0
   -2.8076    4.2793    0.4034 H   0  0  0  0  0  0  0  0  0  0  0  0
   -1.2175    5.0717    0.4050 H   0  0  0  0  0  0  0  0  0  0  0  0
   -2.4815    5.6073   -0.7296 H   0  0  0  0  0  0  0  0  0  0  0  0
  1  2  2  0  0  0  0
  1  3  1  0  0  0  0
  1  7  1  0  0  0  0
  3  4  1  0  0  0  0
  3  5  1  0  0  0  0
  3  6  1  0  0  0  0
  7  8  1  0  0  0  0
  7 12  1  0  0  0  0
  8  9  1  0  0  0  0
  8 11  1  0  0  0  0
  8 13  1  0  0  0  0
  9 10  2  0  0  0  0
  9 17  1  0  0  0  0
 11 14  1  0  0  0  0
 11 15  1  0  0  0  0
 11 16  1  0  0  0  0
 17 18  1  0  0  0  0
 17 23  1  0  0  0  0
 18 19  1  0  0  0  0
 18 21  1  0  0  0  0
 18 24  1  0  0  0  0
 19 20  2  0  0  0  0
 19 28  1  0  0  0  0
 21 22  1  0  0  0  0
 21 25  1  0  0  0  0
 21 26  1  0  0  0  0
 22 27  1  0  0  0  0
 28 29  1  0  0  0  0
 28 33  1  0  0  0  0
 29 30  1  0  0  0  0
 29 32  1  0  0  0  0
 29 34  1  0  0  0  0
 30 31  2  0  0  0  0
 30 38  1  0  0  0  0
 32 35  1  0  0  0  0
 32 36  1  0  0  0  0
 32 37  1  0  0  0  0
 38 39  1  0  0  0  0
 38 40  1  0  0  0  0
 39 41  1  0  0  0  0
 39 42  1  0  0  0  0
 39 43  1  0  0  0  0
M  END
$$$$

  -OEChem-05262217303D

 43 42  0     1  0  0  0  0  0999 V2000
    3.5120   -1.6361    4.1006 C   0  0  0  0  0  0  0  0  0  0  0  0
    2.6962   -1.3330    4.9565 O   0  0  0  0  0  0  0  0  0  0  0  0
    4.6797   -2.5406    4.4468 C   0  0  0  0  0  0  0  0  0  0  0  0
    5.6220   -2.0436    4.2037 H   0  0  0  0  0  0  0  0  0  0  0  0
    4.6708   -2.7751    5.5151 H   0  0  0  0  0  0  0  0  0  0  0  0
    4.6105   -3.4727    3.8807 H   0  0  0  0  0  0  0  0  0  0  0  0
    3.3700   -1.1599    2.8146 N   0  0  0  0  0  0  0  0  0  0  0  0
    2.2211   -0.3765    2.3423 C   0  0  2  0  0  0  0  0  0  0  0  0
    1.9778   -0.5732    0.8308 C   0  0  0  0  0  0  0  0  0  0  0  0
    2.8023   -1.1605    0.1374 O   0  0  0  0  0  0  0  0  0  0  0  0
    2.4780    1.1019    2.6558 C   0  0  0  0  0  0  0  0  0  0  0  0
    4.0039   -1.5256    2.1049 H   0  0  0  0  0  0  0  0  0  0  0  0
    1.3151   -0.7044    2.8641 H   0  0  0  0  0  0  0  0  0  0  0  0
    3.3740    1.4533    2.1341 H   0  0  0  0  0  0  0  0  0  0  0  0
    1.6285    1.7168    2.3435 H   0  0  0  0  0  0  0  0  0  0  0  0
    2.6243    1.2423    3.7315 H   0  0  0  0  0  0  0  0  0  0  0  0
    0.8372   -0.0723    0.2322 N   0  0  0  0  0  0  0  0  0  0  0  0
    0.4179   -0.4163   -1.1363 C   0  0  2  0  0  0  0  0  0  0  0  0
   -0.3603    0.7323   -1.8049 C   0  0  0  0  0  0  0  0  0  0  0  0
   -1.5022    0.9971   -1.4396 O   0  0  0  0  0  0  0  0  0  0  0  0
   -0.4071   -1.7127   -1.0866 C   0  0  0  0  0  0  0  0  0  0  0  0
   -1.6365   -1.5108   -0.3788 O   0  0  0  0  0  0  0  0  0  0  0  0
    0.1099    0.2569    0.8644 H   0  0  0  0  0  0  0  0  0  0  0  0
    1.2993   -0.6094   -1.7556 H   0  0  0  0  0  0  0  0  0  0  0  0
    0.1704   -2.5085   -0.6038 H   0  0  0  0  0  0  0  0  0  0  0  0
   -0.6300   -2.0385   -2.1077 H   0  0  0  0  0  0  0  0  0  0  0  0
   -2.0778   -0.6971   -0.7086 H   0  0  0  0  0  0  0  0  0  0  0  0
    0.2601    1.5041   -2.7742 N   0  0  0  0  0  0  0  0  0  0  0  0
   -0.2894    2.6992   -3.4485 C   0  0  2  0  0  0  0  0  0  0  0  0
   -0.4996    3.9174   -2.5191 C   0  0  0  0  0  0  0  0  0  0  0  0
    0.0641    4.9726   -2.7745 O   0  0  0  0  0  0  0  0  0  0  0  0
   -1.5732    2.3681   -4.2227 C   0  0  0  0  0  0  0  0  0  0  0  0
    1.2428    1.2978   -2.9376 H   0  0  0  0  0  0  0  0  0  0  0  0
    0.4522    3.0117   -4.1913 H   0  0  0  0  0  0  0  0  0  0  0  0
   -2.4015    2.1414   -3.5457 H   0  0  0  0  0  0  0  0  0  0  0  0
   -1.8657    3.2218   -4.8425 H   0  0  0  0  0  0  0  0  0  0  0  0
   -1.4113    1.5060   -4.8765 H   0  0  0  0  0  0  0  0  0  0  0  0
   -1.2922    3.8308   -1.3918 N   0  0  0  0  0  0  0  0  0  0  0  0
   -1.4973    4.9246   -0.4526 C   0  0  0  0  0  0  0  0  0  0  0  0
   -1.7006    2.9140   -1.1953 H   0  0  0  0  0  0  0  0  0  0  0  0
   -2.1732    4.6118    0.3491 H   0  0  0  0  0  0  0  0  0  0  0  0
   -0.5452    5.2286   -0.0055 H   0  0  0  0  0  0  0  0  0  0  0  0
   -1.9400    5.7876   -0.9608 H   0  0  0  0  0  0  0  0  0  0  0  0
  1  2  2  0  0  0  0
  1  3  1  0  0  0  0
  1  7  1  0  0  0  0
  3  4  1  0  0  0  0
  3  5  1  0  0  0  0
  3  6  1  0  0  0  0
  7  8  1  0  0  0  0
  7 12  1  0  0  0  0
  8  9  1  0  0  0  0
  8 11  1  0  0  0  0
  8 13  1  0  0  0  0
  9 10  2  0  0  0  0
  9 17  1  0  0  0  0
 11 14  1  0  0  0  0
 11 15  1  0  0  0  0
 11 16  1  0  0  0  0
 17 18  1  0  0  0  0
 17 23  1  0  0  0  0
 18 19  1  0  0  0  0
 18 21  1  0  0  0  0
 18 24  1  0  0  0  0
 19 20  2  0  0  0  0
 19 28  1  0  0  0  0
 21 22  1  0  0  0  0
 21 25  1  0  0  0  0
 21 26  1  0  0  0  0
 22 27  1  0  0  0  0
 28 29  1  0  0  0  0
 28 33  1  0  0  0  0
 29 30  1  0  0  0  0
 29 32  1  0  0  0  0
 29 34  1  0  0  0  0
 30 31  2  0  0  0  0
 30 38  1  0  0  0  0
 32 35  1  0  0  0  0
 32 36  1  0  0  0  0
 32 37  1  0  0  0  0
 38 39  1  0  0  0  0
 38 40  1  0  0  0  0
 39 41  1  0  0  0  0
 39 42  1  0  0  0  0
 39 43  1  0  0  0  0
M  END
$$$$

  -OEChem-05262217303D

 43 42  0     1  0  0  0  0  0999 V2000
    3.5549   -1.6496    4.0964 C   0  0  0  0  0  0  0  0  0  0  0  0
    2.7501   -1.3410    4.9607 O   0  0  0  0  0  0  0  0  0  0  0  0
    4.7075   -2.5798    4.4256 C   0  0  0  0  0  0  0  0  0  0  0  0
    5.6579   -2.0968    4.1855 H   0  0  0  0  0  0  0  0  0  0  0  0
    4.6981   -2.8282    5.4907 H   0  0  0  0  0  0  0  0  0  0  0  0
    4.6188   -3.5027    3.8473 H   0  0  0  0  0  0  0  0  0  0  0  0
    3.4129   -1.1580    2.8160 N   0  0  0  0  0  0  0  0  0  0  0  0
    2.2674   -0.3618    2.3557 C   0  0  2  0  0  0  0  0  0  0  0  0
    2.0015   -0.5640    0.8486 C   0  0  0  0  0  0  0  0  0  0  0  0
    2.8140   -1.1596    0.1478 O   0  0  0  0  0  0  0  0  0  0  0  0
    2.5481    1.1137    2.6621 C   0  0  0  0  0  0  0  0  0  0  0  0
    4.0333   -1.5314    2.0984 H   0  0  0  0  0  0  0  0  0  0  0  0
    1.3642   -0.6760    2.8905 H   0  0  0  0  0  0  0  0  0  0  0  0
    3.4467    1.4499    2.1350 H   0  0  0  0  0  0  0  0  0  0  0  0
    1.7063    1.7402    2.3523 H   0  0  0  0  0  0  0  0  0  0  0  0
    2.7020    1.2548    3.7367 H   0  0  0  0  0  0  0  0  0  0  0  0
    0.8487   -0.0743    0.2640 N   0  0  0  0  0  0  0  0  0  0  0  0
    0.4219   -0.4067   -1.1057 C   0  0  2  0  0  0  0  0  0  0  0  0
   -0.3812    0.7276   -1.7663 C   0  0  0  0  0  0  0  0  0  0  0  0
   -1.4305    1.1041   -1.2522 O   0  0  0  0  0  0  0  0  0  0  0  0
   -0.4019   -1.7026   -1.0675 C   0  0  0  0  0  0  0  0  0  0  0  0
   -1.6285   -1.5054   -0.3518 O   0  0  0  0  0  0  0  0  0  0  0  0
    0.1326    0.2759    0.8981 H   0  0  0  0  0  0  0  0  0  0  0  0
    1.3025   -0.5856   -1.7304 H   0  0  0  0  0  0  0  0  0  0  0  0
    0.1770   -2.5048   -0.5977 H   0  0  0  0  0  0  0  0  0  0  0  0
   -0.6299   -2.0158   -2.0918 H   0  0  0  0  0  0  0  0  0  0  0  0
   -2.0491   -0.6621   -0.6273 H   0  0  0  0  0  0  0  0  0  0  0  0
    0.0782    1.3154   -2.9340 N   0  0  0  0  0  0  0  0  0  0  0  0
   -0.5598    2.4134   -3.6911 C   0  0  2  0  0  0  0  0  0  0  0  0
   -0.5938    3.7709   -2.9505 C   0  0  0  0  0  0  0  0  0  0  0  0
   -0.0593    4.7459   -3.4607 O   0  0  0  0  0  0  0  0  0  0  0  0
   -1.9599    2.0158   -4.1807 C   0  0  0  0  0  0  0  0  0  0  0  0
    0.9939    1.0092   -3.2543 H   0  0  0  0  0  0  0  0  0  0  0  0
    0.0502    2.5755   -4.5863 H   0  0  0  0  0  0  0  0  0  0  0  0
   -2.6632    1.9232   -3.3484 H   0  0  0  0  0  0  0  0  0  0  0  0
   -2.3458    2.7761   -4.8671 H   0  0  0  0  0  0  0  0  0  0  0  0
   -1.9200    1.0604   -4.7123 H   0  0  0  0  0  0  0  0  0  0  0  0
   -1.1981    3.9008   -1.7158 N   0  0  0  0  0  0  0  0  0  0  0  0
   -1.2134    5.1342   -0.9413 C   0  0  0  0  0  0  0  0  0  0  0  0
   -1.5713    3.0428   -1.3031 H   0  0  0  0  0  0  0  0  0  0  0  0
   -1.7747    4.9894   -0.0135 H   0  0  0  0  0  0  0  0  0  0  0  0
   -0.1934    5.4389   -0.6859 H   0  0  0  0  0  0  0  0  0  0  0  0
   -1.6902    5.9389   -1.5105 H   0  0  0  0  0  0  0  0  0  0  0  0
  1  2  2  0  0  0  0
  1  3  1  0  0  0  0
  1  7  1  0  0  0  0
  3  4  1  0  0  0  0
  3  5  1  0  0  0  0
  3  6  1  0  0  0  0
  7  8  1  0  0  0  0
  7 12  1  0  0  0  0
  8  9  1  0  0  0  0
  8 11  1  0  0  0  0
  8 13  1  0  0  0  0
  9 10  2  0  0  0  0
  9 17  1  0  0  0  0
 11 14  1  0  0  0  0
 11 15  1  0  0  0  0
 11 16  1  0  0  0  0
 17 18  1  0  0  0  0
 17 23  1  0  0  0  0
 18 19  1  0  0  0  0
 18 21  1  0  0  0  0
 18 24  1  0  0  0  0
 19 20  2  0  0  0  0
 19 28  1  0  0  0  0
 21 22  1  0  0  0  0
 21 25  1  0  0  0  0
 21 26  1  0  0  0  0
 22 27  1  0  0  0  0
 28 29  1  0  0  0  0
 28 33  1  0  0  0  0
 29 30  1  0  0  0  0
 29 32  1  0  0  0  0
 29 34  1  0  0  0  0
 30 31  2  0  0  0  0
 30 38  1  0  0  0  0
 32 35  1  0  0  0  0
 32 36  1  0  0  0  0
 32 37  1  0  0  0  0
 38 39  1  0  0  0  0
 38 40  1  0  0  0  0
 39 41  1  0  0  0  0
 39 42  1  0  0  0  0
 39 43  1  0  0  0  0
M  END
$$$$

  -OEChem-05262217303D

 43 42  0     1  0  0  0  0  0999 V2000
    3.5846   -1.6060    4.1020 C   0  0  0  0  0  0  0  0  0  0  0  0
    2.7898   -1.2709    4.9657 O   0  0  0  0  0  0  0  0  0  0  0  0
    4.7461   -2.5186    4.4476 C   0  0  0  0  0  0  0  0  0  0  0  0
    5.6913   -2.0279    4.2026 H   0  0  0  0  0  0  0  0  0  0  0  0
    4.7371   -2.7519    5.5161 H   0  0  0  0  0  0  0  0  0  0  0  0
    4.6689   -3.4506    3.8824 H   0  0  0  0  0  0  0  0  0  0  0  0
    3.4246   -1.1585    2.8077 N   0  0  0  0  0  0  0  0  0  0  0  0
    2.2747   -0.3743    2.3385 C   0  0  2  0  0  0  0  0  0  0  0  0
    1.9942   -0.6074    0.8390 C   0  0  0  0  0  0  0  0  0  0  0  0
    2.7968   -1.2199    0.1417 O   0  0  0  0  0  0  0  0  0  0  0  0
    2.5562    1.1079    2.6073 C   0  0  0  0  0  0  0  0  0  0  0  0
    4.0396   -1.5498    2.0951 H   0  0  0  0  0  0  0  0  0  0  0  0
    1.3765   -0.6775    2.8879 H   0  0  0  0  0  0  0  0  0  0  0  0
    3.4463    1.4330    2.0593 H   0  0  0  0  0  0  0  0  0  0  0  0
    1.7083    1.7244    2.2942 H   0  0  0  0  0  0  0  0  0  0  0  0
    2.7250    1.2746    3.6760 H   0  0  0  0  0  0  0  0  0  0  0  0
    0.8377   -0.1235    0.2579 N   0  0  0  0  0  0  0  0  0  0  0  0
    0.4099   -0.4383   -1.1150 C   0  0  2  0  0  0  0  0  0  0  0  0
   -0.4051    0.6958   -1.7584 C   0  0  0  0  0  0  0  0  0  0  0  0
   -1.3329    1.1945   -1.1281 O   0  0  0  0  0  0  0  0  0  0  0  0
   -0.4280   -1.7236   -1.0869 C   0  0  0  0  0  0  0  0  0  0  0  0
   -1.6535   -1.5165   -0.3702 O   0  0  0  0  0  0  0  0  0  0  0  0
    0.1366    0.2680    0.8843 H   0  0  0  0  0  0  0  0  0  0  0  0
    1.2896   -0.6105   -1.7427 H   0  0  0  0  0  0  0  0  0  0  0  0
    0.1404   -2.5347   -0.6192 H   0  0  0  0  0  0  0  0  0  0  0  0
   -0.6572   -2.0282   -2.1135 H   0  0  0  0  0  0  0  0  0  0  0  0
   -2.0520   -0.6524   -0.6067 H   0  0  0  0  0  0  0  0  0  0  0  0
   -0.1434    1.0982   -3.0583 N   0  0  0  0  0  0  0  0  0  0  0  0
   -0.8656    2.1285   -3.8350 C   0  0  2  0  0  0  0  0  0  0  0  0
   -0.7148    3.5697   -3.2947 C   0  0  0  0  0  0  0  0  0  0  0  0
   -0.2722    4.4426   -4.0286 O   0  0  0  0  0  0  0  0  0  0  0  0
   -2.3460    1.7603   -4.0101 C   0  0  0  0  0  0  0  0  0  0  0  0
    0.6700    0.6766   -3.5001 H   0  0  0  0  0  0  0  0  0  0  0  0
   -0.4234    2.1365   -4.8369 H   0  0  0  0  0  0  0  0  0  0  0  0
   -2.8909    1.8348   -3.0646 H   0  0  0  0  0  0  0  0  0  0  0  0
   -2.8173    2.4402   -4.7271 H   0  0  0  0  0  0  0  0  0  0  0  0
   -2.4415    0.7383   -4.3888 H   0  0  0  0  0  0  0  0  0  0  0  0
   -1.0642    3.8884   -1.9977 N   0  0  0  0  0  0  0  0  0  0  0  0
   -0.9338    5.2189   -1.4204 C   0  0  0  0  0  0  0  0  0  0  0  0
   -1.3818    3.1132   -1.4111 H   0  0  0  0  0  0  0  0  0  0  0  0
   -1.3094    5.2217   -0.3926 H   0  0  0  0  0  0  0  0  0  0  0  0
    0.1158    5.5300   -1.4075 H   0  0  0  0  0  0  0  0  0  0  0  0
   -1.5110    5.9461   -2.0011 H   0  0  0  0  0  0  0  0  0  0  0  0
  1  2  2  0  0  0  0
  1  3  1  0  0  0  0
  1  7  1  0  0  0  0
  3  4  1  0  0  0  0
  3  5  1  0  0  0  0
  3  6  1  0  0  0  0
  7  8  1  0  0  0  0
  7 12  1  0  0  0  0
  8  9  1  0  0  0  0
  8 11  1  0  0  0  0
  8 13  1  0  0  0  0
  9 10  2  0  0  0  0
  9 17  1  0  0  0  0
 11 14  1  0  0  0  0
 11 15  1  0  0  0  0
 11 16  1  0  0  0  0
 17 18  1  0  0  0  0
 17 23  1  0  0  0  0
 18 19  1  0  0  0  0
 18 21  1  0  0  0  0
 18 24  1  0  0  0  0
 19 20  2  0  0  0  0
 19 28  1  0  0  0  0
 21 22  1  0  0  0  0
 21 25  1  0  0  0  0
 21 26  1  0  0  0  0
 22 27  1  0  0  0  0
 28 29  1  0  0  0  0
 28 33  1  0  0  0  0
 29 30  1  0  0  0  0
 29 32  1  0  0  0  0
 29 34  1  0  0  0  0
 30 31  2  0  0  0  0
 30 38  1  0  0  0  0
 32 35  1  0  0  0  0
 32 36  1  0  0  0  0
 32 37  1  0  0  0  0
 38 39  1  0  0  0  0
 38 40  1  0  0  0  0
 39 41  1  0  0  0  0
 39 42  1  0  0  0  0
 39 43  1  0  0  0  0
M  END
$$$$

  -OEChem-05262217303D

 43 42  0     1  0  0  0  0  0999 V2000
    3.6101   -1.5692    4.0980 C   0  0  0  0  0  0  0  0  0  0  0  0
    2.8300   -1.2064    4.9640 O   0  0  0  0  0  0  0  0  0  0  0  0
    4.7601   -2.4943    4.4479 C   0  0  0  0  0  0  0  0  0  0  0  0
    5.7115   -2.0162    4.2028 H   0  0  0  0  0  0  0  0  0  0  0  0
    4.7464   -2.7248    5.5168 H   0  0  0  0  0  0  0  0  0  0  0  0
    4.6728   -3.4269    3.8856 H   0  0  0  0  0  0  0  0  0  0  0  0
    3.4429   -1.1429    2.7975 N   0  0  0  0  0  0  0  0  0  0  0  0
    2.2951   -0.3575    2.3257 C   0  0  2  0  0  0  0  0  0  0  0  0
    1.9980   -0.6171    0.8337 C   0  0  0  0  0  0  0  0  0  0  0  0
    2.7913   -1.2430    0.1375 O   0  0  0  0  0  0  0  0  0  0  0  0
    2.5885    1.1277    2.5656 C   0  0  0  0  0  0  0  0  0  0  0  0
    4.0426   -1.5579    2.0852 H   0  0  0  0  0  0  0  0  0  0  0  0
    1.3998   -0.6440    2.8885 H   0  0  0  0  0  0  0  0  0  0  0  0
    3.4810    1.4359    2.0119 H   0  0  0  0  0  0  0  0  0  0  0  0
    1.7451    1.7446    2.2412 H   0  0  0  0  0  0  0  0  0  0  0  0
    2.7581    1.3142    3.6309 H   0  0  0  0  0  0  0  0  0  0  0  0
    0.8319   -0.1490    0.2602 N   0  0  0  0  0  0  0  0  0  0  0  0
    0.3998   -0.4532   -1.1138 C   0  0  2  0  0  0  0  0  0  0  0  0
   -0.4388    0.6695   -1.7442 C   0  0  0  0  0  0  0  0  0  0  0  0
   -1.2235    1.2937   -1.0377 O   0  0  0  0  0  0  0  0  0  0  0  0
   -0.4275   -1.7450   -1.0875 C   0  0  0  0  0  0  0  0  0  0  0  0
   -1.6494   -1.5502   -0.3596 O   0  0  0  0  0  0  0  0  0  0  0  0
    0.1482    0.2842    0.8788 H   0  0  0  0  0  0  0  0  0  0  0  0
    1.2783   -0.6061   -1.7487 H   0  0  0  0  0  0  0  0  0  0  0  0
    0.1514   -2.5552   -0.6313 H   0  0  0  0  0  0  0  0  0  0  0  0
   -0.6652   -2.0454   -2.1137 H   0  0  0  0  0  0  0  0  0  0  0  0
   -2.0597   -0.6901   -0.5804 H   0  0  0  0  0  0  0  0  0  0  0  0
   -0.4102    0.8786   -3.1135 N   0  0  0  0  0  0  0  0  0  0  0  0
   -1.2261    1.8400   -3.8852 C   0  0  2  0  0  0  0  0  0  0  0  0
   -0.9346    3.3279   -3.5810 C   0  0  0  0  0  0  0  0  0  0  0  0
   -0.5920    4.0693   -4.4918 O   0  0  0  0  0  0  0  0  0  0  0  0
   -2.7250    1.5355   -3.7480 C   0  0  0  0  0  0  0  0  0  0  0  0
    0.2822    0.3439   -3.6321 H   0  0  0  0  0  0  0  0  0  0  0  0
   -0.9710    1.6947   -4.9403 H   0  0  0  0  0  0  0  0  0  0  0  0
   -3.0870    1.7539   -2.7394 H   0  0  0  0  0  0  0  0  0  0  0  0
   -3.2962    2.1489   -4.4520 H   0  0  0  0  0  0  0  0  0  0  0  0
   -2.9217    0.4823   -3.9694 H   0  0  0  0  0  0  0  0  0  0  0  0
   -1.0482    3.8350   -2.3017 N   0  0  0  0  0  0  0  0  0  0  0  0
   -0.7562    5.2157   -1.9427 C   0  0  0  0  0  0  0  0  0  0  0  0
   -1.2764    3.1617   -1.5664 H   0  0  0  0  0  0  0  0  0  0  0  0
   -0.9813    5.3860   -0.8854 H   0  0  0  0  0  0  0  0  0  0  0  0
    0.3018    5.4398   -2.1135 H   0  0  0  0  0  0  0  0  0  0  0  0
   -1.3644    5.9039   -2.5392 H   0  0  0  0  0  0  0  0  0  0  0  0
  1  2  2  0  0  0  0
  1  3  1  0  0  0  0
  1  7  1  0  0  0  0
  3  4  1  0  0  0  0
  3  5  1  0  0  0  0
  3  6  1  0  0  0  0
  7  8  1  0  0  0  0
  7 12  1  0  0  0  0
  8  9  1  0  0  0  0
  8 11  1  0  0  0  0
  8 13  1  0  0  0  0
  9 10  2  0  0  0  0
  9 17  1  0  0  0  0
 11 14  1  0  0  0  0
 11 15  1  0  0  0  0
 11 16  1  0  0  0  0
 17 18  1  0  0  0  0
 17 23  1  0  0  0  0
 18 19  1  0  0  0  0
 18 21  1  0  0  0  0
 18 24  1  0  0  0  0
 19 20  2  0  0  0  0
 19 28  1  0  0  0  0
 21 22  1  0  0  0  0
 21 25  1  0  0  0  0
 21 26  1  0  0  0  0
 22 27  1  0  0  0  0
 28 29  1  0  0  0  0
 28 33  1  0  0  0  0
 29 30  1  0  0  0  0
 29 32  1  0  0  0  0
 29 34  1  0  0  0  0
 30 31  2  0  0  0  0
 30 38  1  0  0  0  0
 32 35  1  0  0  0  0
 32 36  1  0  0  0  0
 32 37  1  0  0  0  0
 38 39  1  0  0  0  0
 38 40  1  0  0  0  0
 39 41  1  0  0  0  0
 39 42  1  0  0  0  0
 39 43  1  0  0  0  0
M  END
$$$$

  -OEChem-05262217303D

 43 42  0     1  0  0  0  0  0999 V2000
    3.6518   -1.4488    4.0913 C   0  0  0  0  0  0  0  0  0  0  0  0
    2.8843   -1.0698    4.9615 O   0  0  0  0  0  0  0  0  0  0  0  0
    4.8431   -2.3158    4.4529 C   0  0  0  0  0  0  0  0  0  0  0  0
    5.7715   -1.8016    4.1927 H   0  0  0  0  0  0  0  0  0  0  0  0
    4.8450   -2.5246    5.5266 H   0  0  0  0  0  0  0  0  0  0  0  0
    4.7943   -3.2631    3.9104 H   0  0  0  0  0  0  0  0  0  0  0  0
    3.4345   -1.0918    2.7772 N   0  0  0  0  0  0  0  0  0  0  0  0
    2.2528   -0.3597    2.3023 C   0  0  2  0  0  0  0  0  0  0  0  0
    1.9291   -0.6844    0.8288 C   0  0  0  0  0  0  0  0  0  0  0  0
    2.7207   -1.3194    0.1388 O   0  0  0  0  0  0  0  0  0  0  0  0
    2.5079    1.1417    2.4760 C   0  0  0  0  0  0  0  0  0  0  0  0
    4.0322   -1.5156    2.0685 H   0  0  0  0  0  0  0  0  0  0  0  0
    1.3798   -0.6491    2.8975 H   0  0  0  0  0  0  0  0  0  0  0  0
    3.3769    1.4524    1.8876 H   0  0  0  0  0  0  0  0  0  0  0  0
    1.6395    1.7216    2.1492 H   0  0  0  0  0  0  0  0  0  0  0  0
    2.6982    1.3754    3.5284 H   0  0  0  0  0  0  0  0  0  0  0  0
    0.7477   -0.2514    0.2601 N   0  0  0  0  0  0  0  0  0  0  0  0
    0.3316   -0.5275   -1.1245 C   0  0  2  0  0  0  0  0  0  0  0  0
   -0.5534    0.5816   -1.7169 C   0  0  0  0  0  0  0  0  0  0  0  0
   -1.1404    1.3501   -0.9636 O   0  0  0  0  0  0  0  0  0  0  0  0
   -0.4275   -1.8614   -1.1515 C   0  0  0  0  0  0  0  0  0  0  0  0
   -1.6621   -1.7726   -0.4236 O   0  0  0  0  0  0  0  0  0  0  0  0
    0.0908    0.2507    0.8555 H   0  0  0  0  0  0  0  0  0  0  0  0
    1.2191   -0.6097   -1.7604 H   0  0  0  0  0  0  0  0  0  0  0  0
    0.1953   -2.6536   -0.7217 H   0  0  0  0  0  0  0  0  0  0  0  0
   -0.6414   -2.1387   -2.1888 H   0  0  0  0  0  0  0  0  0  0  0  0
   -2.1771   -0.9835   -0.6743 H   0  0  0  0  0  0  0  0  0  0  0  0
   -0.7748    0.6438   -3.0837 N   0  0  0  0  0  0  0  0  0  0  0  0
   -1.6390    1.6035   -3.8046 C   0  0  2  0  0  0  0  0  0  0  0  0
   -1.1671    3.0754   -3.7438 C   0  0  0  0  0  0  0  0  0  0  0  0
   -0.9934    3.6916   -4.7862 O   0  0  0  0  0  0  0  0  0  0  0  0
   -3.1044    1.4797   -3.3624 C   0  0  0  0  0  0  0  0  0  0  0  0
   -0.2338   -0.0027   -3.6526 H   0  0  0  0  0  0  0  0  0  0  0  0
   -1.6068    1.3227   -4.8627 H   0  0  0  0  0  0  0  0  0  0  0  0
   -3.2467    1.8475   -2.3420 H   0  0  0  0  0  0  0  0  0  0  0  0
   -3.7457    2.0684   -4.0266 H   0  0  0  0  0  0  0  0  0  0  0  0
   -3.4291    0.4356   -3.4064 H   0  0  0  0  0  0  0  0  0  0  0  0
   -0.9312    3.7062   -2.5384 N   0  0  0  0  0  0  0  0  0  0  0  0
   -0.4733    5.0830   -2.4121 C   0  0  0  0  0  0  0  0  0  0  0  0
   -1.0648    3.1411   -1.6964 H   0  0  0  0  0  0  0  0  0  0  0  0
   -0.3938    5.3586   -1.3561 H   0  0  0  0  0  0  0  0  0  0  0  0
    0.5106    5.2035   -2.8768 H   0  0  0  0  0  0  0  0  0  0  0  0
   -1.1785    5.7675   -2.8950 H   0  0  0  0  0  0  0  0  0  0  0  0
  1  2  2  0  0  0  0
  1  3  1  0  0  0  0
  1  7  1  0  0  0  0
  3  4  1  0  0  0  0
  3  5  1  0  0  0  0
  3  6  1  0  0  0  0
  7  8  1  0  0  0  0
  7 12  1  0  0  0  0
  8  9  1  0  0  0  0
  8 11  1  0  0  0  0
  8 13  1  0  0  0  0
  9 10  2  0  0  0  0
  9 17  1  0  0  0  0
 11 14  1  0  0  0  0
 11 15  1  0  0  0  0
 11 16  1  0  0  0  0
 17 18  1  0  0  0  0
 17 23  1  0  0  0  0
 18 19  1  0  0  0  0
 18 21  1  0  0  0  0
 18 24  1  0  0  0  0
 19 20  2  0  0  0  0
 19 28  1  0  0  0  0
 21 22  1  0  0  0  0
 21 25  1  0  0  0  0
 21 26  1  0  0  0  0
 22 27  1  0  0  0  0
 28 29  1  0  0  0  0
 28 33  1  0  0  0  0
 29 30  1  0  0  0  0
 29 32  1  0  0  0  0
 29 34  1  0  0  0  0
 30 31  2  0  0  0  0
 30 38  1  0  0  0  0
 32 35  1  0  0  0  0
 32 36  1  0  0  0  0
 32 37  1  0  0  0  0
 38 39  1  0  0  0  0
 38 40  1  0  0  0  0
 39 41  1  0  0  0  0
 39 42  1  0  0  0  0
 39 43  1  0  0  0  0
M  END
$$$$

  -OEChem-05262217303D

 43 42  0     1  0  0  0  0  0999 V2000
    3.7181   -1.3220    4.0549 C   0  0  0  0  0  0  0  0  0  0  0  0
    2.9804   -0.8849    4.9236 O   0  0  0  0  0  0  0  0  0  0  0  0
    4.8999   -2.1968    4.4290 C   0  0  0  0  0  0  0  0  0  0  0  0
    5.8325   -1.7069    4.1386 H   0  0  0  0  0  0  0  0  0  0  0  0
    4.9135   -2.3694    5.5090 H   0  0  0  0  0  0  0  0  0  0  0  0
    4.8281   -3.1608    3.9195 H   0  0  0  0  0  0  0  0  0  0  0  0
    3.4769   -1.0224    2.7309 N   0  0  0  0  0  0  0  0  0  0  0  0
    2.2974   -0.2929    2.2470 C   0  0  2  0  0  0  0  0  0  0  0  0
    1.9124   -0.7171    0.8140 C   0  0  0  0  0  0  0  0  0  0  0  0
    2.6730   -1.4101    0.1452 O   0  0  0  0  0  0  0  0  0  0  0  0
    2.6005    1.2083    2.2999 C   0  0  0  0  0  0  0  0  0  0  0  0
    4.0428   -1.4998    2.0301 H   0  0  0  0  0  0  0  0  0  0  0  0
    1.4393   -0.5111    2.8921 H   0  0  0  0  0  0  0  0  0  0  0  0
    3.4564    1.4486    1.6613 H   0  0  0  0  0  0  0  0  0  0  0  0
    1.7373    1.7887    1.9602 H   0  0  0  0  0  0  0  0  0  0  0  0
    2.8351    1.5113    3.3252 H   0  0  0  0  0  0  0  0  0  0  0  0
    0.7102   -0.3189    0.2632 N   0  0  0  0  0  0  0  0  0  0  0  0
    0.2965   -0.5775   -1.1273 C   0  0  2  0  0  0  0  0  0  0  0  0
   -0.3217    0.6572   -1.8093 C   0  0  0  0  0  0  0  0  0  0  0  0
   -0.5034    1.6830   -1.1636 O   0  0  0  0  0  0  0  0  0  0  0  0
   -0.7052   -1.7409   -1.1176 C   0  0  0  0  0  0  0  0  0  0  0  0
   -1.9226   -1.3827   -0.4464 O   0  0  0  0  0  0  0  0  0  0  0  0
    0.1245    0.3046    0.8160 H   0  0  0  0  0  0  0  0  0  0  0  0
    1.1651   -0.8672   -1.7274 H   0  0  0  0  0  0  0  0  0  0  0  0
   -0.2552   -2.6040   -0.6151 H   0  0  0  0  0  0  0  0  0  0  0  0
   -0.9332   -2.0440   -2.1442 H   0  0  0  0  0  0  0  0  0  0  0  0
   -2.3486   -0.6054   -0.8493 H   0  0  0  0  0  0  0  0  0  0  0  0
   -0.7618    0.5826   -3.1224 N   0  0  0  0  0  0  0  0  0  0  0  0
   -1.4260    1.6489   -3.9031 C   0  0  2  0  0  0  0  0  0  0  0  0
   -0.5405    2.8816   -4.2013 C   0  0  0  0  0  0  0  0  0  0  0  0
   -0.3714    3.2285   -5.3621 O   0  0  0  0  0  0  0  0  0  0  0  0
   -2.7562    2.0681   -3.2606 C   0  0  0  0  0  0  0  0  0  0  0  0
   -0.5296   -0.2726   -3.6216 H   0  0  0  0  0  0  0  0  0  0  0  0
   -1.6727    1.2172   -4.8790 H   0  0  0  0  0  0  0  0  0  0  0  0
   -2.5954    2.6029   -2.3201 H   0  0  0  0  0  0  0  0  0  0  0  0
   -3.3045    2.7310   -3.9376 H   0  0  0  0  0  0  0  0  0  0  0  0
   -3.3767    1.1893   -3.0624 H   0  0  0  0  0  0  0  0  0  0  0  0
    0.0768    3.5875   -3.1882 N   0  0  0  0  0  0  0  0  0  0  0  0
    0.9685    4.7174   -3.4086 C   0  0  0  0  0  0  0  0  0  0  0  0
   -0.0557    3.2283   -2.2394 H   0  0  0  0  0  0  0  0  0  0  0  0
    1.3012    5.1272   -2.4502 H   0  0  0  0  0  0  0  0  0  0  0  0
    1.8494    4.4036   -3.9782 H   0  0  0  0  0  0  0  0  0  0  0  0
    0.4536    5.5092   -3.9623 H   0  0  0  0  0  0  0  0  0  0  0  0
  1  2  2  0  0  0  0
  1  3  1  0  0  0  0
  1  7  1  0  0  0  0
  3  4  1  0  0  0  0
  3  5  1  0  0  0  0
  3  6  1  0  0  0  0
  7  8  1  0  0  0  0
  7 12  1  0  0  0  0
  8  9  1  0  0  0  0
  8 11  1  0  0  0  0
  8 13  1  0  0  0  0
  9 10  2  0  0  0  0
  9 17  1  0  0  0  0
 11 14  1  0  0  0  0
 11 15  1  0  0  0  0
 11 16  1  0  0  0  0
 17 18  1  0  0  0  0
 17 23  1  0  0  0  0
 18 19  1  0  0  0  0
 18 21  1  0  0  0  0
 18 24  1  0  0  0  0
 19 20  2  0  0  0  0
 19 28  1  0  0  0  0
 21 22  1  0  0  0  0
 21 25  1  0  0  0  0
 21 26  1  0  0  0  0
 22 27  1  0  0  0  0
 28 29  1  0  0  0  0
 28 33  1  0  0  0  0
 29 30  1  0  0  0  0
 29 32  1  0  0  0  0
 29 34  1  0  0  0  0
 30 31  2  0  0  0  0
 30 38  1  0  0  0  0
 32 35  1  0  0  0  0
 32 36  1  0  0  0  0
 32 37  1  0  0  0  0
 38 39  1  0  0  0  0
 38 40  1  0  0  0  0
 39 41  1  0  0  0  0
 39 42  1  0  0  0  0
 39 43  1  0  0  0  0
M  END
$$$$

  -OEChem-05262217303D

 43 42  0     1  0  0  0  0  0999 V2000
    3.7755   -1.2485    4.0162 C   0  0  0  0  0  0  0  0  0  0  0  0
    3.0591   -0.7902    4.8918 O   0  0  0  0  0  0  0  0  0  0  0  0
    4.9828   -2.0908    4.3834 C   0  0  0  0  0  0  0  0  0  0  0  0
    5.8959   -1.6073    4.0276 H   0  0  0  0  0  0  0  0  0  0  0  0
    5.0455   -2.2066    5.4692 H   0  0  0  0  0  0  0  0  0  0  0  0
    4.9004   -3.0807    3.9279 H   0  0  0  0  0  0  0  0  0  0  0  0
    3.4874   -1.0019    2.6906 N   0  0  0  0  0  0  0  0  0  0  0  0
    2.2843   -0.3039    2.2184 C   0  0  2  0  0  0  0  0  0  0  0  0
    1.8594   -0.7799    0.8134 C   0  0  0  0  0  0  0  0  0  0  0  0
    2.6039   -1.4895    0.1437 O   0  0  0  0  0  0  0  0  0  0  0  0
    2.5672    1.2026    2.2100 C   0  0  0  0  0  0  0  0  0  0  0  0
    4.0378   -1.4969    1.9900 H   0  0  0  0  0  0  0  0  0  0  0  0
    1.4494   -0.5110    2.8966 H   0  0  0  0  0  0  0  0  0  0  0  0
    3.3968    1.4323    1.5339 H   0  0  0  0  0  0  0  0  0  0  0  0
    1.6849    1.7598    1.8806 H   0  0  0  0  0  0  0  0  0  0  0  0
    2.8321    1.5443    3.2156 H   0  0  0  0  0  0  0  0  0  0  0  0
    0.6423   -0.3954    0.2863 N   0  0  0  0  0  0  0  0  0  0  0  0
    0.2346   -0.6186   -1.1120 C   0  0  2  0  0  0  0  0  0  0  0  0
   -0.4198    0.6305   -1.7358 C   0  0  0  0  0  0  0  0  0  0  0  0
   -0.3729    1.7000   -1.1392 O   0  0  0  0  0  0  0  0  0  0  0  0
   -0.7182   -1.8233   -1.1488 C   0  0  0  0  0  0  0  0  0  0  0  0
   -1.9498   -1.5467   -0.4647 O   0  0  0  0  0  0  0  0  0  0  0  0
    0.0998    0.2772    0.8248 H   0  0  0  0  0  0  0  0  0  0  0  0
    1.1110   -0.8510   -1.7254 H   0  0  0  0  0  0  0  0  0  0  0  0
   -0.2298   -2.6832   -0.6776 H   0  0  0  0  0  0  0  0  0  0  0  0
   -0.9315   -2.1000   -2.1860 H   0  0  0  0  0  0  0  0  0  0  0  0
   -2.4351   -0.8047   -0.8660 H   0  0  0  0  0  0  0  0  0  0  0  0
   -1.1399    0.5378   -2.9184 N   0  0  0  0  0  0  0  0  0  0  0  0
   -1.8386    1.6335   -3.6245 C   0  0  2  0  0  0  0  0  0  0  0  0
   -0.9105    2.7422   -4.1740 C   0  0  0  0  0  0  0  0  0  0  0  0
   -0.8958    2.9676   -5.3763 O   0  0  0  0  0  0  0  0  0  0  0  0
   -2.9612    2.2307   -2.7637 C   0  0  0  0  0  0  0  0  0  0  0  0
   -1.0800   -0.3533   -3.4048 H   0  0  0  0  0  0  0  0  0  0  0  0
   -2.3206    1.1869   -4.5007 H   0  0  0  0  0  0  0  0  0  0  0  0
   -2.5610    2.7798   -1.9065 H   0  0  0  0  0  0  0  0  0  0  0  0
   -3.5590    2.9259   -3.3618 H   0  0  0  0  0  0  0  0  0  0  0  0
   -3.6196    1.4390   -2.3945 H   0  0  0  0  0  0  0  0  0  0  0  0
   -0.0807    3.4635   -3.3389 N   0  0  0  0  0  0  0  0  0  0  0  0
    0.8837    4.4501   -3.8047 C   0  0  0  0  0  0  0  0  0  0  0  0
   -0.0626    3.1696   -2.3589 H   0  0  0  0  0  0  0  0  0  0  0  0
    1.3595    4.9428   -2.9512 H   0  0  0  0  0  0  0  0  0  0  0  0
    1.6607    3.9692   -4.4078 H   0  0  0  0  0  0  0  0  0  0  0  0
    0.3887    5.2155   -4.4115 H   0  0  0  0  0  0  0  0  0  0  0  0
  1  2  2  0  0  0  0
  1  3  1  0  0  0  0
  1  7  1  0  0  0  0
  3  4  1  0  0  0  0
  3  5  1  0  0  0  0
  3  6  1  0  0  0  0
  7  8  1  0  0  0  0
  7 12  1  0  0  0  0
  8  9  1  0  0  0  0
  8 11  1  0  0  0  0
  8 13  1  0  0  0  0
  9 10  2  0  0  0  0
  9 17  1  0  0  0  0
 11 14  1  0  0  0  0
 11 15  1  0  0  0  0
 11 16  1  0  0  0  0
 17 18  1  0  0  0  0
 17 23  1  0  0  0  0
 18 19  1  0  0  0  0
 18 21  1  0  0  0  0
 18 24  1  0  0  0  0
 19 20  2  0  0  0  0
 19 28  1  0  0  0  0
 21 22  1  0  0  0  0
 21 25  1  0  0  0  0
 21 26  1  0  0  0  0
 22 27  1  0  0  0  0
 28 29  1  0  0  0  0
 28 33  1  0  0  0  0
 29 30  1  0  0  0  0
 29 32  1  0  0  0  0
 29 34  1  0  0  0  0
 30 31  2  0  0  0  0
 30 38  1  0  0  0  0
 32 35  1  0  0  0  0
 32 36  1  0  0  0  0
 32 37  1  0  0  0  0
 38 39  1  0  0  0  0
 38 40  1  0  0  0  0
 39 41  1  0  0  0  0
 39 42  1  0  0  0  0
 39 43  1  0  0  0  0
M  END
$$$$

  -OEChem-05262217303D

 43 42  0     1  0  0  0  0  0999 V2000
    3.8167   -1.2732    3.9921 C   0  0  0  0  0  0  0  0  0  0  0  0
    3.1084   -0.8444    4.8891 O   0  0  0  0  0  0  0  0  0  0  0  0
    5.0377   -2.1116    4.3198 C   0  0  0  0  0  0  0  0  0  0  0  0
    5.9437   -1.5881    4.0050 H   0  0  0  0  0  0  0  0  0  0  0  0
    5.0915   -2.2943    5.3968 H   0  0  0  0  0  0  0  0  0  0  0  0
    4.9818   -3.0726    3.8025 H   0  0  0  0  0  0  0  0  0  0  0  0
    3.5070   -0.9994    2.6772 N   0  0  0  0  0  0  0  0  0  0  0  0
    2.2827   -0.3170    2.2388 C   0  0  2  0  0  0  0  0  0  0  0  0
    1.8480   -0.7759    0.8316 C   0  0  0  0  0  0  0  0  0  0  0  0
    2.5946   -1.4657    0.1438 O   0  0  0  0  0  0  0  0  0  0  0  0
    2.5357    1.1946    2.2555 C   0  0  0  0  0  0  0  0  0  0  0  0
    4.0509   -1.4753    1.9581 H   0  0  0  0  0  0  0  0  0  0  0  0
    1.4627   -0.5537    2.9256 H   0  0  0  0  0  0  0  0  0  0  0  0
    3.3486    1.4544    1.5699 H   0  0  0  0  0  0  0  0  0  0  0  0
    1.6371    1.7408    1.9525 H   0  0  0  0  0  0  0  0  0  0  0  0
    2.8117    1.5217    3.2630 H   0  0  0  0  0  0  0  0  0  0  0  0
    0.6188   -0.4013    0.3258 N   0  0  0  0  0  0  0  0  0  0  0  0
    0.2127   -0.5946   -1.0778 C   0  0  2  0  0  0  0  0  0  0  0  0
   -0.4713    0.6590   -1.6621 C   0  0  0  0  0  0  0  0  0  0  0  0
   -0.2290    1.7554   -1.1724 O   0  0  0  0  0  0  0  0  0  0  0  0
   -0.6963   -1.8321   -1.1477 C   0  0  0  0  0  0  0  0  0  0  0  0
   -1.9338   -1.6213   -0.4497 O   0  0  0  0  0  0  0  0  0  0  0  0
    0.0819    0.2625    0.8797 H   0  0  0  0  0  0  0  0  0  0  0  0
    1.0940   -0.7807   -1.7006 H   0  0  0  0  0  0  0  0  0  0  0  0
   -0.1751   -2.6879   -0.7047 H   0  0  0  0  0  0  0  0  0  0  0  0
   -0.9028   -2.0856   -2.1921 H   0  0  0  0  0  0  0  0  0  0  0  0
   -2.4394   -0.8729   -0.8121 H   0  0  0  0  0  0  0  0  0  0  0  0
   -1.4365    0.5537   -2.6551 N   0  0  0  0  0  0  0  0  0  0  0  0
   -2.1982    1.6582   -3.2780 C   0  0  2  0  0  0  0  0  0  0  0  0
   -1.3418    2.6468   -4.1041 C   0  0  0  0  0  0  0  0  0  0  0  0
   -1.6035    2.8203   -5.2864 O   0  0  0  0  0  0  0  0  0  0  0  0
   -3.0560    2.4011   -2.2436 C   0  0  0  0  0  0  0  0  0  0  0  0
   -1.5282   -0.3632   -3.0858 H   0  0  0  0  0  0  0  0  0  0  0  0
   -2.8942    1.2002   -3.9889 H   0  0  0  0  0  0  0  0  0  0  0  0
   -2.4376    2.9825   -1.5539 H   0  0  0  0  0  0  0  0  0  0  0  0
   -3.7371    3.0914   -2.7512 H   0  0  0  0  0  0  0  0  0  0  0  0
   -3.6532    1.6917   -1.6633 H   0  0  0  0  0  0  0  0  0  0  0  0
   -0.2702    3.3119   -3.5427 N   0  0  0  0  0  0  0  0  0  0  0  0
    0.6209    4.1952   -4.2821 C   0  0  0  0  0  0  0  0  0  0  0  0
   -0.0535    3.0804   -2.5697 H   0  0  0  0  0  0  0  0  0  0  0  0
    1.3787    4.6111   -3.6111 H   0  0  0  0  0  0  0  0  0  0  0  0
    1.1289    3.6453   -5.0812 H   0  0  0  0  0  0  0  0  0  0  0  0
    0.0596    5.0244   -4.7255 H   0  0  0  0  0  0  0  0  0  0  0  0
  1  2  2  0  0  0  0
  1  3  1  0  0  0  0
  1  7  1  0  0  0  0
  3  4  1  0  0  0  0
  3  5  1  0  0  0  0
  3  6  1  0  0  0  0
  7  8  1  0  0  0  0
  7 12  1  0  0  0  0
  8  9  1  0  0  0  0
  8 11  1  0  0  0  0
  8 13  1  0  0  0  0
  9 10  2  0  0  0  0
  9 17  1  0  0  0  0
 11 14  1  0  0  0  0
 11 15  1  0  0  0  0
 11 16  1  0  0  0  0
 17 18  1  0  0  0  0
 17 23  1  0  0  0  0
 18 19  1  0  0  0  0
 18 21  1  0  0  0  0
 18 24  1  0  0  0  0
 19 20  2  0  0  0  0
 19 28  1  0  0  0  0
 21 22  1  0  0  0  0
 21 25  1  0  0  0  0
 21 26  1  0  0  0  0
 22 27  1  0  0  0  0
 28 29  1  0  0  0  0
 28 33  1  0  0  0  0
 29 30  1  0  0  0  0
 29 32  1  0  0  0  0
 29 34  1  0  0  0  0
 30 31  2  0  0  0  0
 30 38  1  0  0  0  0
 32 35  1  0  0  0  0
 32 36  1  0  0  0  0
 32 37  1  0  0  0  0
 38 39  1  0  0  0  0
 38 40  1  0  0  0  0
 39 41  1  0  0  0  0
 39 42  1  0  0  0  0
 39 43  1  0  0  0  0
M  END
$$$$

  -OEChem-05262217303D

 43 42  0     1  0  0  0  0  0999 V2000
    3.8478   -1.3358    3.9769 C   0  0  0  0  0  0  0  0  0  0  0  0
    3.1308   -0.9570    4.8894 O   0  0  0  0  0  0  0  0  0  0  0  0
    5.0897   -2.1547    4.2742 C   0  0  0  0  0  0  0  0  0  0  0  0
    5.9820   -1.5949    3.9836 H   0  0  0  0  0  0  0  0  0  0  0  0
    5.1464   -2.3795    5.3430 H   0  0  0  0  0  0  0  0  0  0  0  0
    5.0598   -3.0949    3.7183 H   0  0  0  0  0  0  0  0  0  0  0  0
    3.5293   -1.0203    2.6731 N   0  0  0  0  0  0  0  0  0  0  0  0
    2.2914   -0.3450    2.2624 C   0  0  2  0  0  0  0  0  0  0  0  0
    1.8565   -0.7624    0.8420 C   0  0  0  0  0  0  0  0  0  0  0  0
    2.6056   -1.4253    0.1312 O   0  0  0  0  0  0  0  0  0  0  0  0
    2.5186    1.1693    2.3292 C   0  0  0  0  0  0  0  0  0  0  0  0
    4.0813   -1.4574    1.9358 H   0  0  0  0  0  0  0  0  0  0  0  0
    1.4791   -0.6191    2.9445 H   0  0  0  0  0  0  0  0  0  0  0  0
    3.3235    1.4653    1.6488 H   0  0  0  0  0  0  0  0  0  0  0  0
    1.6095    1.7098    2.0490 H   0  0  0  0  0  0  0  0  0  0  0  0
    2.7942    1.4672    3.3459 H   0  0  0  0  0  0  0  0  0  0  0  0
    0.6193   -0.3879    0.3551 N   0  0  0  0  0  0  0  0  0  0  0  0
    0.2020   -0.5546   -1.0488 C   0  0  2  0  0  0  0  0  0  0  0  0
   -0.4992    0.7011   -1.6065 C   0  0  0  0  0  0  0  0  0  0  0  0
   -0.0897    1.8036   -1.2675 O   0  0  0  0  0  0  0  0  0  0  0  0
   -0.6762   -1.8130   -1.1336 C   0  0  0  0  0  0  0  0  0  0  0  0
   -1.9102   -1.6531   -0.4133 O   0  0  0  0  0  0  0  0  0  0  0  0
    0.0742    0.2425    0.9379 H   0  0  0  0  0  0  0  0  0  0  0  0
    1.0799   -0.7125   -1.6841 H   0  0  0  0  0  0  0  0  0  0  0  0
   -0.1264   -2.6676   -0.7240 H   0  0  0  0  0  0  0  0  0  0  0  0
   -0.8923   -2.0398   -2.1827 H   0  0  0  0  0  0  0  0  0  0  0  0
   -2.3917   -0.8481   -0.6728 H   0  0  0  0  0  0  0  0  0  0  0  0
   -1.6661    0.6104   -2.3549 N   0  0  0  0  0  0  0  0  0  0  0  0
   -2.4711    1.7328   -2.8836 C   0  0  2  0  0  0  0  0  0  0  0  0
   -1.7539    2.5872   -3.9547 C   0  0  0  0  0  0  0  0  0  0  0  0
   -2.2447    2.6784   -5.0715 O   0  0  0  0  0  0  0  0  0  0  0  0
   -3.0248    2.6123   -1.7527 C   0  0  0  0  0  0  0  0  0  0  0  0
   -1.8855   -0.3158   -2.7151 H   0  0  0  0  0  0  0  0  0  0  0  0
   -3.3377    1.2899   -3.3857 H   0  0  0  0  0  0  0  0  0  0  0  0
   -2.2305    3.1832   -1.2631 H   0  0  0  0  0  0  0  0  0  0  0  0
   -3.7524    3.3237   -2.1559 H   0  0  0  0  0  0  0  0  0  0  0  0
   -3.5260    1.9957   -1.0008 H   0  0  0  0  0  0  0  0  0  0  0  0
   -0.5534    3.2151   -3.6886 N   0  0  0  0  0  0  0  0  0  0  0  0
    0.2127    3.9570   -4.6801 C   0  0  0  0  0  0  0  0  0  0  0  0
   -0.1458    3.0409   -2.7661 H   0  0  0  0  0  0  0  0  0  0  0  0
    1.1123    4.3795   -4.2225 H   0  0  0  0  0  0  0  0  0  0  0  0
    0.5168    3.2982   -5.5000 H   0  0  0  0  0  0  0  0  0  0  0  0
   -0.3850    4.7780   -5.0894 H   0  0  0  0  0  0  0  0  0  0  0  0
  1  2  2  0  0  0  0
  1  3  1  0  0  0  0
  1  7  1  0  0  0  0
  3  4  1  0  0  0  0
  3  5  1  0  0  0  0
  3  6  1  0  0  0  0
  7  8  1  0  0  0  0
  7 12  1  0  0  0  0
  8  9  1  0  0  0  0
  8 11  1  0  0  0  0
  8 13  1  0  0  0  0
  9 10  2  0  0  0  0
  9 17  1  0  0  0  0
 11 14  1  0  0  0  0
 11 15  1  0  0  0  0
 11 16  1  0  0  0  0
 17 18  1  0  0  0  0
 17 23  1  0  0  0  0
 18 19  1  0  0  0  0
 18 21  1  0  0  0  0
 18 24  1  0  0  0  0
 19 20  2  0  0  0  0
 19 28  1  0  0  0  0
 21 22  1  0  0  0  0
 21 25  1  0  0  0  0
 21 26  1  0  0  0  0
 22 27  1  0  0  0  0
 28 29  1  0  0  0  0
 28 33  1  0  0  0  0
 29 30  1  0  0  0  0
 29 32  1  0  0  0  0
 29 34  1  0  0  0  0
 30 31  2  0  0  0  0
 30 38  1  0  0  0  0
 32 35  1  0  0  0  0
 32 36  1  0  0  0  0
 32 37  1  0  0  0  0
 38 39  1  0  0  0  0
 38 40  1  0  0  0  0
 39 41  1  0  0  0  0
 39 42  1  0  0  0  0
 39 43  1  0  0  0  0
M  END
$$$$

  -OEChem-05262217303D

 43 42  0     1  0  0  0  0  0999 V2000
    3.6557   -1.4851    3.9761 C   0  0  0  0  0  0  0  0  0  0  0  0
    2.8574   -1.1544    4.8385 O   0  0  0  0  0  0  0  0  0  0  0  0
    4.7791   -2.4492    4.3081 C   0  0  0  0  0  0  0  0  0  0  0  0
    5.7439   -1.9941    4.0715 H   0  0  0  0  0  0  0  0  0  0  0  0
    4.7599   -2.6990    5.3729 H   0  0  0  0  0  0  0  0  0  0  0  0
    4.6660   -3.3683    3.7281 H   0  0  0  0  0  0  0  0  0  0  0  0
    3.5325   -0.9927    2.6940 N   0  0  0  0  0  0  0  0  0  0  0  0
    2.3877   -0.2044    2.2175 C   0  0  2  0  0  0  0  0  0  0  0  0
    1.8953   -0.6891    0.8383 C   0  0  0  0  0  0  0  0  0  0  0  0
    2.5997   -1.4187    0.1489 O   0  0  0  0  0  0  0  0  0  0  0  0
    2.8157    1.2639    2.1517 C   0  0  0  0  0  0  0  0  0  0  0  0
    4.1211   -1.4198    1.9799 H   0  0  0  0  0  0  0  0  0  0  0  0
    1.5465   -0.2987    2.9125 H   0  0  0  0  0  0  0  0  0  0  0  0
    3.6541    1.3889    1.4588 H   0  0  0  0  0  0  0  0  0  0  0  0
    1.9871    1.8929    1.8117 H   0  0  0  0  0  0  0  0  0  0  0  0
    3.1272    1.6097    3.1426 H   0  0  0  0  0  0  0  0  0  0  0  0
    0.6431   -0.3270    0.3769 N   0  0  0  0  0  0  0  0  0  0  0  0
    0.2487   -0.4577   -1.0397 C   0  0  2  0  0  0  0  0  0  0  0  0
   -0.4831    0.8031   -1.5417 C   0  0  0  0  0  0  0  0  0  0  0  0
    0.0849    1.8836   -1.4476 O   0  0  0  0  0  0  0  0  0  0  0  0
   -0.5464   -1.7537   -1.2525 C   0  0  0  0  0  0  0  0  0  0  0  0
   -1.8018   -1.7155   -0.5627 O   0  0  0  0  0  0  0  0  0  0  0  0
    0.1824    0.4067    0.9113 H   0  0  0  0  0  0  0  0  0  0  0  0
    1.1467   -0.5294   -1.6633 H   0  0  0  0  0  0  0  0  0  0  0  0
    0.0412   -2.6105   -0.9051 H   0  0  0  0  0  0  0  0  0  0  0  0
   -0.7274   -1.8932   -2.3236 H   0  0  0  0  0  0  0  0  0  0  0  0
   -1.6607   -1.8443    0.3937 H   0  0  0  0  0  0  0  0  0  0  0  0
   -1.7798    0.7412   -2.0242 N   0  0  0  0  0  0  0  0  0  0  0  0
   -2.6522    1.8662   -2.4210 C   0  0  2  0  0  0  0  0  0  0  0  0
   -2.1999    2.6370   -3.6836 C   0  0  0  0  0  0  0  0  0  0  0  0
   -3.0160    2.8824   -4.5622 O   0  0  0  0  0  0  0  0  0  0  0  0
   -2.8779    2.8297   -1.2476 C   0  0  0  0  0  0  0  0  0  0  0  0
   -2.2206   -0.1744   -1.9129 H   0  0  0  0  0  0  0  0  0  0  0  0
   -3.6268    1.4337   -2.6706 H   0  0  0  0  0  0  0  0  0  0  0  0
   -1.9651    3.3827   -1.0073 H   0  0  0  0  0  0  0  0  0  0  0  0
   -3.6567    3.5550   -1.5042 H   0  0  0  0  0  0  0  0  0  0  0  0
   -3.1981    2.2788   -0.3582 H   0  0  0  0  0  0  0  0  0  0  0  0
   -0.8989    3.0745   -3.8329 N   0  0  0  0  0  0  0  0  0  0  0  0
   -0.4184    3.8372   -4.9764 C   0  0  0  0  0  0  0  0  0  0  0  0
   -0.2652    2.8813   -3.0535 H   0  0  0  0  0  0  0  0  0  0  0  0
   -0.9351    4.8004   -5.0385 H   0  0  0  0  0  0  0  0  0  0  0  0
    0.6554    4.0243   -4.8798 H   0  0  0  0  0  0  0  0  0  0  0  0
   -0.5899    3.2833   -5.9051 H   0  0  0  0  0  0  0  0  0  0  0  0
  1  2  2  0  0  0  0
  1  3  1  0  0  0  0
  1  7  1  0  0  0  0
  3  4  1  0  0  0  0
  3  5  1  0  0  0  0
  3  6  1  0  0  0  0
  7  8  1  0  0  0  0
  7 12  1  0  0  0  0
  8  9  1  0  0  0  0
  8 11  1  0  0  0  0
  8 13  1  0  0  0  0
  9 10  2  0  0  0  0
  9 17  1  0  0  0  0
 11 14  1  0  0  0  0
 11 15  1  0  0  0  0
 11 16  1  0  0  0  0
 17 18  1  0  0  0  0
 17 23  1  0  0  0  0
 18 19  1  0  0  0  0
 18 21  1  0  0  0  0
 18 24  1  0  0  0  0
 19 20  2  0  0  0  0
 19 28  1  0  0  0  0
 21 22  1  0  0  0  0
 21 25  1  0  0  0  0
 21 26  1  0  0  0  0
 22 27  1  0  0  0  0
 28 29  1  0  0  0  0
 28 33  1  0  0  0  0
 29 30  1  0  0  0  0
 29 32  1  0  0  0  0
 29 34  1  0  0  0  0
 30 31  2  0  0  0  0
 30 38  1  0  0  0  0
 32 35  1  0  0  0  0
 32 36  1  0  0  0  0
 32 37  1  0  0  0  0
 38 39  1  0  0  0  0
 38 40  1  0  0  0  0
 39 41  1  0  0  0  0
 39 42  1  0  0  0  0
 39 43  1  0  0  0  0
M  END
$$$$

  -OEChem-05262217303D

 43 42  0     1  0  0  0  0  0999 V2000
    3.6611   -1.5805    3.9457 C   0  0  0  0  0  0  0  0  0  0  0  0
    2.8362   -1.3248    4.8086 O   0  0  0  0  0  0  0  0  0  0  0  0
    4.7798   -2.5647    4.2300 C   0  0  0  0  0  0  0  0  0  0  0  0
    5.7483   -2.0922    4.0486 H   0  0  0  0  0  0  0  0  0  0  0  0
    4.7385   -2.8926    5.2726 H   0  0  0  0  0  0  0  0  0  0  0  0
    4.6810   -3.4384    3.5811 H   0  0  0  0  0  0  0  0  0  0  0  0
    3.5701   -0.9910    2.7024 N   0  0  0  0  0  0  0  0  0  0  0  0
    2.4181   -0.2001    2.2474 C   0  0  2  0  0  0  0  0  0  0  0  0
    1.9182   -0.6616    0.8630 C   0  0  0  0  0  0  0  0  0  0  0  0
    2.6172   -1.3806    0.1577 O   0  0  0  0  0  0  0  0  0  0  0  0
    2.8396    1.2704    2.2048 C   0  0  0  0  0  0  0  0  0  0  0  0
    4.1771   -1.3686    1.9760 H   0  0  0  0  0  0  0  0  0  0  0  0
    1.5810   -0.3092    2.9452 H   0  0  0  0  0  0  0  0  0  0  0  0
    3.6707    1.4110    1.5062 H   0  0  0  0  0  0  0  0  0  0  0  0
    2.0053    1.9019    1.8844 H   0  0  0  0  0  0  0  0  0  0  0  0
    3.1592    1.5993    3.1986 H   0  0  0  0  0  0  0  0  0  0  0  0
    0.6658   -0.2857    0.4138 N   0  0  0  0  0  0  0  0  0  0  0  0
    0.2525   -0.4036   -0.9982 C   0  0  2  0  0  0  0  0  0  0  0  0
   -0.4733    0.8623   -1.4939 C   0  0  0  0  0  0  0  0  0  0  0  0
    0.1727    1.8943   -1.6193 O   0  0  0  0  0  0  0  0  0  0  0  0
   -0.5508   -1.6976   -1.1981 C   0  0  0  0  0  0  0  0  0  0  0  0
   -1.7968   -1.6656   -0.4882 O   0  0  0  0  0  0  0  0  0  0  0  0
    0.1960    0.4215    0.9744 H   0  0  0  0  0  0  0  0  0  0  0  0
    1.1428   -0.4821   -1.6321 H   0  0  0  0  0  0  0  0  0  0  0  0
    0.0420   -2.5571   -0.8672 H   0  0  0  0  0  0  0  0  0  0  0  0
   -0.7525   -1.8294   -2.2664 H   0  0  0  0  0  0  0  0  0  0  0  0
   -1.6438   -1.8403    0.4593 H   0  0  0  0  0  0  0  0  0  0  0  0
   -1.8460    0.8825   -1.6731 N   0  0  0  0  0  0  0  0  0  0  0  0
   -2.7057    2.0465   -1.9729 C   0  0  2  0  0  0  0  0  0  0  0  0
   -2.4937    2.6802   -3.3677 C   0  0  0  0  0  0  0  0  0  0  0  0
   -3.4668    2.9414   -4.0624 O   0  0  0  0  0  0  0  0  0  0  0  0
   -2.5968    3.1090   -0.8704 C   0  0  0  0  0  0  0  0  0  0  0  0
   -2.3084   -0.0075   -1.4705 H   0  0  0  0  0  0  0  0  0  0  0  0
   -3.7385    1.6830   -1.9655 H   0  0  0  0  0  0  0  0  0  0  0  0
   -1.6151    3.5912   -0.8807 H   0  0  0  0  0  0  0  0  0  0  0  0
   -3.3569    3.8822   -1.0194 H   0  0  0  0  0  0  0  0  0  0  0  0
   -2.7542    2.6556    0.1127 H   0  0  0  0  0  0  0  0  0  0  0  0
   -1.2309    2.9800   -3.8384 N   0  0  0  0  0  0  0  0  0  0  0  0
   -0.9673    3.6192   -5.1199 C   0  0  0  0  0  0  0  0  0  0  0  0
   -0.4539    2.7881   -3.2012 H   0  0  0  0  0  0  0  0  0  0  0  0
   -1.4368    4.6077   -5.1580 H   0  0  0  0  0  0  0  0  0  0  0  0
    0.1105    3.7412   -5.2654 H   0  0  0  0  0  0  0  0  0  0  0  0
   -1.3601    3.0088   -5.9398 H   0  0  0  0  0  0  0  0  0  0  0  0
  1  2  2  0  0  0  0
  1  3  1  0  0  0  0
  1  7  1  0  0  0  0
  3  4  1  0  0  0  0
  3  5  1  0  0  0  0
  3  6  1  0  0  0  0
  7  8  1  0  0  0  0
  7 12  1  0  0  0  0
  8  9  1  0  0  0  0
  8 11  1  0  0  0  0
  8 13  1  0  0  0  0
  9 10  2  0  0  0  0
  9 17  1  0  0  0  0
 11 14  1  0  0  0  0
 11 15  1  0  0  0  0
 11 16  1  0  0  0  0
 17 18  1  0  0  0  0
 17 23  1  0  0  0  0
 18 19  1  0  0  0  0
 18 21  1  0  0  0  0
 18 24  1  0  0  0  0
 19 20  2  0  0  0  0
 19 28  1  0  0  0  0
 21 22  1  0  0  0  0
 21 25  1  0  0  0  0
 21 26  1  0  0  0  0
 22 27  1  0  0  0  0
 28 29  1  0  0  0  0
 28 33  1  0  0  0  0
 29 30  1  0  0  0  0
 29 32  1  0  0  0  0
 29 34  1  0  0  0  0
 30 31  2  0  0  0  0
 30 38  1  0  0  0  0
 32 35  1  0  0  0  0
 32 36  1  0  0  0  0
 32 37  1  0  0  0  0
 38 39  1  0  0  0  0
 38 40  1  0  0  0  0
 39 41  1  0  0  0  0
 39 42  1  0  0  0  0
 39 43  1  0  0  0  0
M  END
$$$$

  -OEChem-05262217303D

 43 42  0     1  0  0  0  0  0999 V2000
    3.7723   -1.8047    3.9145 C   0  0  0  0  0  0  0  0  0  0  0  0
    2.9716   -1.6323    4.8200 O   0  0  0  0  0  0  0  0  0  0  0  0
    4.9342   -2.7628    4.0974 C   0  0  0  0  0  0  0  0  0  0  0  0
    5.8795   -2.2384    3.9380 H   0  0  0  0  0  0  0  0  0  0  0  0
    4.9270   -3.1753    5.1102 H   0  0  0  0  0  0  0  0  0  0  0  0
    4.8557   -3.5842    3.3813 H   0  0  0  0  0  0  0  0  0  0  0  0
    3.6126   -1.1425    2.7156 N   0  0  0  0  0  0  0  0  0  0  0  0
    2.4348   -0.3371    2.3663 C   0  0  2  0  0  0  0  0  0  0  0  0
    2.0325   -0.5198    0.8876 C   0  0  0  0  0  0  0  0  0  0  0  0
    2.7989   -1.0628    0.0991 O   0  0  0  0  0  0  0  0  0  0  0  0
    2.7532    1.1314    2.6611 C   0  0  0  0  0  0  0  0  0  0  0  0
    4.2208   -1.4215    1.9466 H   0  0  0  0  0  0  0  0  0  0  0  0
    1.5783   -0.6472    2.9745 H   0  0  0  0  0  0  0  0  0  0  0  0
    3.5991    1.4694    2.0538 H   0  0  0  0  0  0  0  0  0  0  0  0
    1.8895    1.7650    2.4385 H   0  0  0  0  0  0  0  0  0  0  0  0
    3.0100    1.2579    3.7178 H   0  0  0  0  0  0  0  0  0  0  0  0
    0.7846   -0.1155    0.4525 N   0  0  0  0  0  0  0  0  0  0  0  0
    0.3166   -0.1880   -0.9436 C   0  0  2  0  0  0  0  0  0  0  0  0
   -0.3965    1.1047   -1.3861 C   0  0  0  0  0  0  0  0  0  0  0  0
    0.2566    2.0152   -1.8782 O   0  0  0  0  0  0  0  0  0  0  0  0
   -0.5324   -1.4563   -1.1264 C   0  0  0  0  0  0  0  0  0  0  0  0
   -1.7520   -1.4094   -0.3672 O   0  0  0  0  0  0  0  0  0  0  0  0
    0.1552    0.2753    1.1483 H   0  0  0  0  0  0  0  0  0  0  0  0
    1.1807   -0.2819   -1.6107 H   0  0  0  0  0  0  0  0  0  0  0  0
    0.0562   -2.3268   -0.8161 H   0  0  0  0  0  0  0  0  0  0  0  0
   -0.7717   -1.5806   -2.1879 H   0  0  0  0  0  0  0  0  0  0  0  0
   -2.2088   -2.2711   -0.4079 H   0  0  0  0  0  0  0  0  0  0  0  0
   -1.7621    1.2507   -1.2160 N   0  0  0  0  0  0  0  0  0  0  0  0
   -2.5970    2.4329   -1.5109 C   0  0  2  0  0  0  0  0  0  0  0  0
   -2.7441    2.7619   -3.0141 C   0  0  0  0  0  0  0  0  0  0  0  0
   -3.8596    2.9468   -3.4829 O   0  0  0  0  0  0  0  0  0  0  0  0
   -2.1151    3.6627   -0.7281 C   0  0  0  0  0  0  0  0  0  0  0  0
   -2.2221    0.4273   -0.8218 H   0  0  0  0  0  0  0  0  0  0  0  0
   -3.6058    2.2041   -1.1521 H   0  0  0  0  0  0  0  0  0  0  0  0
   -1.1578    4.0272   -1.1120 H   0  0  0  0  0  0  0  0  0  0  0  0
   -2.8468    4.4721   -0.8166 H   0  0  0  0  0  0  0  0  0  0  0  0
   -1.9960    3.4187    0.3318 H   0  0  0  0  0  0  0  0  0  0  0  0
   -1.6410    2.8546   -3.8391 N   0  0  0  0  0  0  0  0  0  0  0  0
   -1.7053    3.1854   -5.2557 C   0  0  0  0  0  0  0  0  0  0  0  0
   -0.7302    2.7149   -3.3937 H   0  0  0  0  0  0  0  0  0  0  0  0
   -2.1338    4.1829   -5.3979 H   0  0  0  0  0  0  0  0  0  0  0  0
   -0.7011    3.1746   -5.6898 H   0  0  0  0  0  0  0  0  0  0  0  0
   -2.3218    2.4562   -5.7915 H   0  0  0  0  0  0  0  0  0  0  0  0
  1  2  2  0  0  0  0
  1  3  1  0  0  0  0
  1  7  1  0  0  0  0
  3  4  1  0  0  0  0
  3  5  1  0  0  0  0
  3  6  1  0  0  0  0
  7  8  1  0  0  0  0
  7 12  1  0  0  0  0
  8  9  1  0  0  0  0
  8 11  1  0  0  0  0
  8 13  1  0  0  0  0
  9 10  2  0  0  0  0
  9 17  1  0  0  0  0
 11 14  1  0  0  0  0
 11 15  1  0  0  0  0
 11 16  1  0  0  0  0
 17 18  1  0  0  0  0
 17 23  1  0  0  0  0
 18 19  1  0  0  0  0
 18 21  1  0  0  0  0
 18 24  1  0  0  0  0
 19 20  2  0  0  0  0
 19 28  1  0  0  0  0
 21 22  1  0  0  0  0
 21 25  1  0  0  0  0
 21 26  1  0  0  0  0
 22 27  1  0  0  0  0
 28 29  1  0  0  0  0
 28 33  1  0  0  0  0
 29 30  1  0  0  0  0
 29 32  1  0  0  0  0
 29 34  1  0  0  0  0
 30 31  2  0  0  0  0
 30 38  1  0  0  0  0
 32 35  1  0  0  0  0
 32 36  1  0  0  0  0
 32 37  1  0  0  0  0
 38 39  1  0  0  0  0
 38 40  1  0  0  0  0
 39 41  1  0  0  0  0
 39 42  1  0  0  0  0
 39 43  1  0  0  0  0
M  END
$$$$

  -OEChem-05262217303D

 43 42  0     1  0  0  0  0  0999 V2000
    3.8273   -1.9109    3.8828 C   0  0  0  0  0  0  0  0  0  0  0  0
    3.0262   -1.7856    4.7956 O   0  0  0  0  0  0  0  0  0  0  0  0
    5.0227   -2.8316    4.0399 C   0  0  0  0  0  0  0  0  0  0  0  0
    5.9488   -2.2558    3.9702 H   0  0  0  0  0  0  0  0  0  0  0  0
    4.9899   -3.3288    5.0134 H   0  0  0  0  0  0  0  0  0  0  0  0
    5.0146   -3.5923    3.2555 H   0  0  0  0  0  0  0  0  0  0  0  0
    3.6413   -1.2196    2.7045 N   0  0  0  0  0  0  0  0  0  0  0  0
    2.4567   -0.4068    2.3994 C   0  0  2  0  0  0  0  0  0  0  0  0
    2.0744   -0.4846    0.9070 C   0  0  0  0  0  0  0  0  0  0  0  0
    2.8575   -0.9594    0.0917 O   0  0  0  0  0  0  0  0  0  0  0  0
    2.7526    1.0405    2.8032 C   0  0  0  0  0  0  0  0  0  0  0  0
    4.2568   -1.4476    1.9244 H   0  0  0  0  0  0  0  0  0  0  0  0
    1.5979   -0.7724    2.9727 H   0  0  0  0  0  0  0  0  0  0  0  0
    3.6056    1.4291    2.2373 H   0  0  0  0  0  0  0  0  0  0  0  0
    1.8861    1.6803    2.6099 H   0  0  0  0  0  0  0  0  0  0  0  0
    2.9892    1.0944    3.8707 H   0  0  0  0  0  0  0  0  0  0  0  0
    0.8287   -0.0582    0.4860 N   0  0  0  0  0  0  0  0  0  0  0  0
    0.3678   -0.0690   -0.9148 C   0  0  2  0  0  0  0  0  0  0  0  0
   -0.3414    1.2371   -1.3171 C   0  0  0  0  0  0  0  0  0  0  0  0
    0.2494    2.0584   -2.0056 O   0  0  0  0  0  0  0  0  0  0  0  0
   -0.5052   -1.3129   -1.1386 C   0  0  0  0  0  0  0  0  0  0  0  0
   -1.7229   -1.2569   -0.3761 O   0  0  0  0  0  0  0  0  0  0  0  0
    0.1792    0.2562    1.2020 H   0  0  0  0  0  0  0  0  0  0  0  0
    1.2324   -0.1515   -1.5831 H   0  0  0  0  0  0  0  0  0  0  0  0
    0.0620   -2.2073   -0.8593 H   0  0  0  0  0  0  0  0  0  0  0  0
   -0.7485   -1.3957   -2.2033 H   0  0  0  0  0  0  0  0  0  0  0  0
   -2.2226   -2.0896   -0.4742 H   0  0  0  0  0  0  0  0  0  0  0  0
   -1.6284    1.4948   -0.8777 N   0  0  0  0  0  0  0  0  0  0  0  0
   -2.4628    2.6789   -1.1641 C   0  0  2  0  0  0  0  0  0  0  0  0
   -2.8690    2.8372   -2.6474 C   0  0  0  0  0  0  0  0  0  0  0  0
   -4.0535    2.9358   -2.9398 O   0  0  0  0  0  0  0  0  0  0  0  0
   -1.8050    3.9614   -0.6359 C   0  0  0  0  0  0  0  0  0  0  0  0
   -2.0796    0.6912   -0.4359 H   0  0  0  0  0  0  0  0  0  0  0  0
   -3.3966    2.5500   -0.6072 H   0  0  0  0  0  0  0  0  0  0  0  0
   -0.9114    4.2167   -1.2128 H   0  0  0  0  0  0  0  0  0  0  0  0
   -2.5066    4.7986   -0.7081 H   0  0  0  0  0  0  0  0  0  0  0  0
   -1.5198    3.8385    0.4132 H   0  0  0  0  0  0  0  0  0  0  0  0
   -1.9217    2.8613   -3.6514 N   0  0  0  0  0  0  0  0  0  0  0  0
   -2.2351    2.9807   -5.0683 C   0  0  0  0  0  0  0  0  0  0  0  0
   -0.9486    2.7409   -3.3572 H   0  0  0  0  0  0  0  0  0  0  0  0
   -1.3141    2.9870   -5.6591 H   0  0  0  0  0  0  0  0  0  0  0  0
   -2.8514    2.1372   -5.3957 H   0  0  0  0  0  0  0  0  0  0  0  0
   -2.7773    3.9116   -5.2631 H   0  0  0  0  0  0  0  0  0  0  0  0
  1  2  2  0  0  0  0
  1  3  1  0  0  0  0
  1  7  1  0  0  0  0
  3  4  1  0  0  0  0
  3  5  1  0  0  0  0
  3  6  1  0  0  0  0
  7  8  1  0  0  0  0
  7 12  1  0  0  0  0
  8  9  1  0  0  0  0
  8 11  1  0  0  0  0
  8 13  1  0  0  0  0
  9 10  2  0  0  0  0
  9 17  1  0  0  0  0
 11 14  1  0  0  0  0
 11 15  1  0  0  0  0
 11 16  1  0  0  0  0
 17 18  1  0  0  0  0
 17 23  1  0  0  0  0
 18 19  1  0  0  0  0
 18 21  1  0  0  0  0
 18 24  1  0  0  0  0
 19 20  2  0  0  0  0
 19 28  1  0  0  0  0
 21 22  1  0  0  0  0
 21 25  1  0  0  0  0
 21 26  1  0  0  0  0
 22 27  1  0  0  0  0
 28 29  1  0  0  0  0
 28 33  1  0  0  0  0
 29 30  1  0  0  0  0
 29 32  1  0  0  0  0
 29 34  1  0  0  0  0
 30 31  2  0  0  0  0
 30 38  1  0  0  0  0
 32 35  1  0  0  0  0
 32 36  1  0  0  0  0
 32 37  1  0  0  0  0
 38 39  1  0  0  0  0
 38 40  1  0  0  0  0
 39 41  1  0  0  0  0
 39 42  1  0  0  0  0
 39 43  1  0  0  0  0
M  END
$$$$

  -OEChem-05262217303D

 43 42  0     1  0  0  0  0  0999 V2000
    3.8434   -2.0053    3.8731 C   0  0  0  0  0  0  0  0  0  0  0  0
    3.0591   -1.8833    4.8008 O   0  0  0  0  0  0  0  0  0  0  0  0
    5.0143   -2.9634    3.9852 C   0  0  0  0  0  0  0  0  0  0  0  0
    5.9552   -2.4098    3.9385 H   0  0  0  0  0  0  0  0  0  0  0  0
    4.9697   -3.5037    4.9350 H   0  0  0  0  0  0  0  0  0  0  0  0
    4.9844   -3.6876    3.1675 H   0  0  0  0  0  0  0  0  0  0  0  0
    3.6570   -1.2822    2.7143 N   0  0  0  0  0  0  0  0  0  0  0  0
    2.4700   -0.4636    2.4337 C   0  0  2  0  0  0  0  0  0  0  0  0
    2.0866   -0.5080    0.9397 C   0  0  0  0  0  0  0  0  0  0  0  0
    2.8487   -1.0111    0.1218 O   0  0  0  0  0  0  0  0  0  0  0  0
    2.7604    0.9741    2.8748 C   0  0  0  0  0  0  0  0  0  0  0  0
    4.2489   -1.5183    1.9183 H   0  0  0  0  0  0  0  0  0  0  0  0
    1.6135   -0.8476    2.9984 H   0  0  0  0  0  0  0  0  0  0  0  0
    3.6078    1.3825    2.3149 H   0  0  0  0  0  0  0  0  0  0  0  0
    1.8895    1.6139    2.7039 H   0  0  0  0  0  0  0  0  0  0  0  0
    3.0025    1.0004    3.9421 H   0  0  0  0  0  0  0  0  0  0  0  0
    0.8641   -0.0189    0.5192 N   0  0  0  0  0  0  0  0  0  0  0  0
    0.3927   -0.0290   -0.8789 C   0  0  2  0  0  0  0  0  0  0  0  0
   -0.2440    1.3037   -1.3074 C   0  0  0  0  0  0  0  0  0  0  0  0
    0.2509    1.9482   -2.2225 O   0  0  0  0  0  0  0  0  0  0  0  0
   -0.5852   -1.1976   -1.0513 C   0  0  0  0  0  0  0  0  0  0  0  0
   -1.7799   -0.9997   -0.2763 O   0  0  0  0  0  0  0  0  0  0  0  0
    0.2268    0.3142    1.2376 H   0  0  0  0  0  0  0  0  0  0  0  0
    1.2381   -0.1944   -1.5561 H   0  0  0  0  0  0  0  0  0  0  0  0
   -0.0966   -2.1294   -0.7467 H   0  0  0  0  0  0  0  0  0  0  0  0
   -0.8513   -1.2918   -2.1096 H   0  0  0  0  0  0  0  0  0  0  0  0
   -2.3835   -1.7590   -0.3852 H   0  0  0  0  0  0  0  0  0  0  0  0
   -1.3565    1.7798   -0.6343 N   0  0  0  0  0  0  0  0  0  0  0  0
   -2.1045    3.0235   -0.9068 C   0  0  2  0  0  0  0  0  0  0  0  0
   -2.8323    3.0510   -2.2703 C   0  0  0  0  0  0  0  0  0  0  0  0
   -4.0388    3.2544   -2.3037 O   0  0  0  0  0  0  0  0  0  0  0  0
   -1.2082    4.2577   -0.7371 C   0  0  0  0  0  0  0  0  0  0  0  0
   -1.8265    1.0638   -0.0782 H   0  0  0  0  0  0  0  0  0  0  0  0
   -2.8870    3.0950   -0.1442 H   0  0  0  0  0  0  0  0  0  0  0  0
   -0.4478    4.3101   -1.5216 H   0  0  0  0  0  0  0  0  0  0  0  0
   -1.8132    5.1680   -0.7892 H   0  0  0  0  0  0  0  0  0  0  0  0
   -0.7055    4.2305    0.2341 H   0  0  0  0  0  0  0  0  0  0  0  0
   -2.1501    2.8404   -3.4517 N   0  0  0  0  0  0  0  0  0  0  0  0
   -2.7774    2.8268   -4.7656 C   0  0  0  0  0  0  0  0  0  0  0  0
   -1.1513    2.6321   -3.3661 H   0  0  0  0  0  0  0  0  0  0  0  0
   -3.2630    3.7872   -4.9681 H   0  0  0  0  0  0  0  0  0  0  0  0
   -2.0250    2.6499   -5.5400 H   0  0  0  0  0  0  0  0  0  0  0  0
   -3.5284    2.0321   -4.8228 H   0  0  0  0  0  0  0  0  0  0  0  0
  1  2  2  0  0  0  0
  1  3  1  0  0  0  0
  1  7  1  0  0  0  0
  3  4  1  0  0  0  0
  3  5  1  0  0  0  0
  3  6  1  0  0  0  0
  7  8  1  0  0  0  0
  7 12  1  0  0  0  0
  8  9  1  0  0  0  0
  8 11  1  0  0  0  0
  8 13  1  0  0  0  0
  9 10  2  0  0  0  0
  9 17  1  0  0  0  0
 11 14  1  0  0  0  0
 11 15  1  0  0  0  0
 11 16  1  0  0  0  0
 17 18  1  0  0  0  0
 17 23  1  0  0  0  0
 18 19  1  0  0  0  0
 18 21  1  0  0  0  0
 18 24  1  0  0  0  0
 19 20  2  0  0  0  0
 19 28  1  0  0  0  0
 21 22  1  0  0  0  0
 21 25  1  0  0  0  0
 21 26  1  0  0  0  0
 22 27  1  0  0  0  0
 28 29  1  0  0  0  0
 28 33  1  0  0  0  0
 29 30  1  0  0  0  0
 29 32  1  0  0  0  0
 29 34  1  0  0  0  0
 30 31  2  0  0  0  0
 30 38  1  0  0  0  0
 32 35  1  0  0  0  0
 32 36  1  0  0  0  0
 32 37  1  0  0  0  0
 38 39  1  0  0  0  0
 38 40  1  0  0  0  0
 39 41  1  0  0  0  0
 39 42  1  0  0  0  0
 39 43  1  0  0  0  0
M  END
$$$$

  -OEChem-05262217303D

 43 42  0     1  0  0  0  0  0999 V2000
    3.8100   -2.1651    3.8387 C   0  0  0  0  0  0  0  0  0  0  0  0
    2.9940   -2.1022    4.7446 O   0  0  0  0  0  0  0  0  0  0  0  0
    4.9697   -3.1396    3.9217 C   0  0  0  0  0  0  0  0  0  0  0  0
    5.9168   -2.5999    3.8445 H   0  0  0  0  0  0  0  0  0  0  0  0
    4.9459   -3.6748    4.8752 H   0  0  0  0  0  0  0  0  0  0  0  0
    4.9055   -3.8665    3.1082 H   0  0  0  0  0  0  0  0  0  0  0  0
    3.6697   -1.3603    2.7284 N   0  0  0  0  0  0  0  0  0  0  0  0
    2.5056   -0.5033    2.4693 C   0  0  2  0  0  0  0  0  0  0  0  0
    2.1830   -0.4205    0.9625 C   0  0  0  0  0  0  0  0  0  0  0  0
    2.9884   -0.8362    0.1372 O   0  0  0  0  0  0  0  0  0  0  0  0
    2.7971    0.8889    3.0370 C   0  0  0  0  0  0  0  0  0  0  0  0
    4.2932   -1.5379    1.9414 H   0  0  0  0  0  0  0  0  0  0  0  0
    1.6228   -0.9177    2.9680 H   0  0  0  0  0  0  0  0  0  0  0  0
    3.6696    1.3288    2.5431 H   0  0  0  0  0  0  0  0  0  0  0  0
    1.9407    1.5538    2.8892 H   0  0  0  0  0  0  0  0  0  0  0  0
    3.0003    0.8234    4.1107 H   0  0  0  0  0  0  0  0  0  0  0  0
    0.9675    0.0818    0.5358 N   0  0  0  0  0  0  0  0  0  0  0  0
    0.5253    0.1170   -0.8731 C   0  0  2  0  0  0  0  0  0  0  0  0
   -0.1084    1.4529   -1.2969 C   0  0  0  0  0  0  0  0  0  0  0  0
    0.2109    1.9614   -2.3636 O   0  0  0  0  0  0  0  0  0  0  0  0
   -0.4749   -1.0249   -1.0740 C   0  0  0  0  0  0  0  0  0  0  0  0
   -1.6644   -0.7888   -0.3028 O   0  0  0  0  0  0  0  0  0  0  0  0
    0.2816    0.2902    1.2556 H   0  0  0  0  0  0  0  0  0  0  0  0
    1.3778   -0.0473   -1.5415 H   0  0  0  0  0  0  0  0  0  0  0  0
   -0.0176   -1.9748   -0.7764 H   0  0  0  0  0  0  0  0  0  0  0  0
   -0.7357   -1.0986   -2.1352 H   0  0  0  0  0  0  0  0  0  0  0  0
   -2.3173   -1.4972   -0.4576 H   0  0  0  0  0  0  0  0  0  0  0  0
   -1.0360    2.0688   -0.4716 N   0  0  0  0  0  0  0  0  0  0  0  0
   -1.7800    3.3151   -0.7475 C   0  0  2  0  0  0  0  0  0  0  0  0
   -2.7777    3.2186   -1.9246 C   0  0  0  0  0  0  0  0  0  0  0  0
   -3.9593    3.4742   -1.7338 O   0  0  0  0  0  0  0  0  0  0  0  0
   -0.8300    4.5076   -0.9277 C   0  0  0  0  0  0  0  0  0  0  0  0
   -1.4441    1.4345    0.2129 H   0  0  0  0  0  0  0  0  0  0  0  0
   -2.3813    3.5266    0.1427 H   0  0  0  0  0  0  0  0  0  0  0  0
   -0.2603    4.4275   -1.8579 H   0  0  0  0  0  0  0  0  0  0  0  0
   -1.4028    5.4399   -0.9601 H   0  0  0  0  0  0  0  0  0  0  0  0
   -0.1265    4.5626   -0.0914 H   0  0  0  0  0  0  0  0  0  0  0  0
   -2.3654    2.8309   -3.1838 N   0  0  0  0  0  0  0  0  0  0  0  0
   -3.2557    2.6855   -4.3264 C   0  0  0  0  0  0  0  0  0  0  0  0
   -1.3756    2.5877   -3.2801 H   0  0  0  0  0  0  0  0  0  0  0  0
   -2.6967    2.3281   -5.1965 H   0  0  0  0  0  0  0  0  0  0  0  0
   -4.0492    1.9643   -4.1045 H   0  0  0  0  0  0  0  0  0  0  0  0
   -3.7128    3.6476   -4.5797 H   0  0  0  0  0  0  0  0  0  0  0  0
  1  2  2  0  0  0  0
  1  3  1  0  0  0  0
  1  7  1  0  0  0  0
  3  4  1  0  0  0  0
  3  5  1  0  0  0  0
  3  6  1  0  0  0  0
  7  8  1  0  0  0  0
  7 12  1  0  0  0  0
  8  9  1  0  0  0  0
  8 11  1  0  0  0  0
  8 13  1  0  0  0  0
  9 10  2  0  0  0  0
  9 17  1  0  0  0  0
 11 14  1  0  0  0  0
 11 15  1  0  0  0  0
 11 16  1  0  0  0  0
 17 18  1  0  0  0  0
 17 23  1  0  0  0  0
 18 19  1  0  0  0  0
 18 21  1  0  0  0  0
 18 24  1  0  0  0  0
 19 20  2  0  0  0  0
 19 28  1  0  0  0  0
 21 22  1  0  0  0  0
 21 25  1  0  0  0  0
 21 26  1  0  0  0  0
 22 27  1  0  0  0  0
 28 29  1  0  0  0  0
 28 33  1  0  0  0  0
 29 30  1  0  0  0  0
 29 32  1  0  0  0  0
 29 34  1  0  0  0  0
 30 31  2  0  0  0  0
 30 38  1  0  0  0  0
 32 35  1  0  0  0  0
 32 36  1  0  0  0  0
 32 37  1  0  0  0  0
 38 39  1  0  0  0  0
 38 40  1  0  0  0  0
 39 41  1  0  0  0  0
 39 42  1  0  0  0  0
 39 43  1  0  0  0  0
M  END
$$$$

  -OEChem-05262217303D

 43 42  0     1  0  0  0  0  0999 V2000
    3.7011   -2.3661    4.0319 C   0  0  0  0  0  0  0  0  0  0  0  0
    2.9115   -2.1910    4.9464 O   0  0  0  0  0  0  0  0  0  0  0  0
    4.8003   -3.4034    4.1600 C   0  0  0  0  0  0  0  0  0  0  0  0
    5.7770   -2.9263    4.0475 H   0  0  0  0  0  0  0  0  0  0  0  0
    4.7532   -3.8832    5.1417 H   0  0  0  0  0  0  0  0  0  0  0  0
    4.6845   -4.1680    3.3879 H   0  0  0  0  0  0  0  0  0  0  0  0
    3.5932   -1.6209    2.8772 N   0  0  0  0  0  0  0  0  0  0  0  0
    2.5002   -0.6821    2.5936 C   0  0  2  0  0  0  0  0  0  0  0  0
    2.2715   -0.5161    1.0758 C   0  0  0  0  0  0  0  0  0  0  0  0
    3.0645   -1.0050    0.2791 O   0  0  0  0  0  0  0  0  0  0  0  0
    2.8349    0.6689    3.2360 C   0  0  0  0  0  0  0  0  0  0  0  0
    4.1942   -1.8763    2.0938 H   0  0  0  0  0  0  0  0  0  0  0  0
    1.5692   -1.0666    3.0246 H   0  0  0  0  0  0  0  0  0  0  0  0
    3.7573    1.0765    2.8101 H   0  0  0  0  0  0  0  0  0  0  0  0
    2.0263    1.3867    3.0693 H   0  0  0  0  0  0  0  0  0  0  0  0
    2.9715    0.5532    4.3159 H   0  0  0  0  0  0  0  0  0  0  0  0
    1.1701    0.1803    0.6110 N   0  0  0  0  0  0  0  0  0  0  0  0
    0.7044    0.1201   -0.7899 C   0  0  2  0  0  0  0  0  0  0  0  0
    0.3468    1.4762   -1.4151 C   0  0  0  0  0  0  0  0  0  0  0  0
    0.3055    1.5772   -2.6338 O   0  0  0  0  0  0  0  0  0  0  0  0
   -0.5313   -0.7877   -0.7996 C   0  0  0  0  0  0  0  0  0  0  0  0
   -1.6087   -0.1862   -0.0616 O   0  0  0  0  0  0  0  0  0  0  0  0
    0.4440    0.3319    1.3080 H   0  0  0  0  0  0  0  0  0  0  0  0
    1.4700   -0.3249   -1.4343 H   0  0  0  0  0  0  0  0  0  0  0  0
   -0.2774   -1.7559   -0.3552 H   0  0  0  0  0  0  0  0  0  0  0  0
   -0.8519   -0.9715   -1.8305 H   0  0  0  0  0  0  0  0  0  0  0  0
   -2.0900    0.4954   -0.5997 H   0  0  0  0  0  0  0  0  0  0  0  0
   -0.1318    2.5041   -0.6168 N   0  0  0  0  0  0  0  0  0  0  0  0
   -1.0482    3.5438   -1.1179 C   0  0  2  0  0  0  0  0  0  0  0  0
   -2.3132    2.9293   -1.7720 C   0  0  0  0  0  0  0  0  0  0  0  0
   -2.8054    1.9147   -1.2826 O   0  0  0  0  0  0  0  0  0  0  0  0
   -0.3012    4.5358   -2.0257 C   0  0  0  0  0  0  0  0  0  0  0  0
   -0.2323    2.2443    0.3591 H   0  0  0  0  0  0  0  0  0  0  0  0
   -1.4040    4.1137   -0.2545 H   0  0  0  0  0  0  0  0  0  0  0  0
   -0.0186    4.0726   -2.9759 H   0  0  0  0  0  0  0  0  0  0  0  0
   -0.9305    5.4050   -2.2394 H   0  0  0  0  0  0  0  0  0  0  0  0
    0.6095    4.8861   -1.5298 H   0  0  0  0  0  0  0  0  0  0  0  0
   -2.9232    3.5094   -2.8690 N   0  0  0  0  0  0  0  0  0  0  0  0
   -4.0397    2.8886   -3.5716 C   0  0  0  0  0  0  0  0  0  0  0  0
   -2.4092    4.2499   -3.3373 H   0  0  0  0  0  0  0  0  0  0  0  0
   -4.3668    3.5258   -4.3990 H   0  0  0  0  0  0  0  0  0  0  0  0
   -3.7425    1.9161   -3.9784 H   0  0  0  0  0  0  0  0  0  0  0  0
   -4.8877    2.7432   -2.8938 H   0  0  0  0  0  0  0  0  0  0  0  0
  1  2  2  0  0  0  0
  1  3  1  0  0  0  0
  1  7  1  0  0  0  0
  3  4  1  0  0  0  0
  3  5  1  0  0  0  0
  3  6  1  0  0  0  0
  7  8  1  0  0  0  0
  7 12  1  0  0  0  0
  8  9  1  0  0  0  0
  8 11  1  0  0  0  0
  8 13  1  0  0  0  0
  9 10  2  0  0  0  0
  9 17  1  0  0  0  0
 11 14  1  0  0  0  0
 11 15  1  0  0  0  0
 11 16  1  0  0  0  0
 17 18  1  0  0  0  0
 17 23  1  0  0  0  0
 18 19  1  0  0  0  0
 18 21  1  0  0  0  0
 18 24  1  0  0  0  0
 19 20  2  0  0  0  0
 19 28  1  0  0  0  0
 21 22  1  0  0  0  0
 21 25  1  0  0  0  0
 21 26  1  0  0  0  0
 22 27  1  0  0  0  0
 28 29  1  0  0  0  0
 28 33  1  0  0  0  0
 29 30  1  0  0  0  0
 29 32  1  0  0  0  0
 29 34  1  0  0  0  0
 30 31  2  0  0  0  0
 30 38  1  0  0  0  0
 32 35  1  0  0  0  0
 32 36  1  0  0  0  0
 32 37  1  0  0  0  0
 38 39  1  0  0  0  0
 38 40  1  0  0  0  0
 39 41  1  0  0  0  0
 39 42  1  0  0  0  0
 39 43  1  0  0  0  0
M  END
$$$$

  -OEChem-05262217303D

 43 42  0     1  0  0  0  0  0999 V2000
    3.7065   -2.3221    4.0844 C   0  0  0  0  0  0  0  0  0  0  0  0
    2.9109   -2.1325    4.9908 O   0  0  0  0  0  0  0  0  0  0  0  0
    4.8152   -3.3456    4.2454 C   0  0  0  0  0  0  0  0  0  0  0  0
    5.7884   -2.8609    4.1377 H   0  0  0  0  0  0  0  0  0  0  0  0
    4.7602   -3.8085    5.2346 H   0  0  0  0  0  0  0  0  0  0  0  0
    4.7172   -4.1250    3.4860 H   0  0  0  0  0  0  0  0  0  0  0  0
    3.5978   -1.6040    2.9122 N   0  0  0  0  0  0  0  0  0  0  0  0
    2.4976   -0.6814    2.6008 C   0  0  2  0  0  0  0  0  0  0  0  0
    2.2648   -0.5628    1.0785 C   0  0  0  0  0  0  0  0  0  0  0  0
    3.0468   -1.0906    0.2960 O   0  0  0  0  0  0  0  0  0  0  0  0
    2.8268    0.6888    3.2043 C   0  0  0  0  0  0  0  0  0  0  0  0
    4.2061   -1.8724    2.1389 H   0  0  0  0  0  0  0  0  0  0  0  0
    1.5697   -1.0584    3.0450 H   0  0  0  0  0  0  0  0  0  0  0  0
    3.7445    1.0903    2.7626 H   0  0  0  0  0  0  0  0  0  0  0  0
    2.0123    1.3964    3.0236 H   0  0  0  0  0  0  0  0  0  0  0  0
    2.9709    0.6029    4.2861 H   0  0  0  0  0  0  0  0  0  0  0  0
    1.1782    0.1411    0.5892 N   0  0  0  0  0  0  0  0  0  0  0  0
    0.6883    0.0075   -0.7992 C   0  0  2  0  0  0  0  0  0  0  0  0
    0.3600    1.3224   -1.5205 C   0  0  0  0  0  0  0  0  0  0  0  0
    0.0888    1.2994   -2.7138 O   0  0  0  0  0  0  0  0  0  0  0  0
   -0.5880   -0.8379   -0.6974 C   0  0  0  0  0  0  0  0  0  0  0  0
   -1.6104   -0.1251    0.0220 O   0  0  0  0  0  0  0  0  0  0  0  0
    0.4571    0.3358    1.2822 H   0  0  0  0  0  0  0  0  0  0  0  0
    1.4158   -0.5197   -1.4254 H   0  0  0  0  0  0  0  0  0  0  0  0
   -0.3667   -1.7801   -0.1851 H   0  0  0  0  0  0  0  0  0  0  0  0
   -0.9530   -1.0862   -1.6999 H   0  0  0  0  0  0  0  0  0  0  0  0
   -1.9934    0.6249   -0.5010 H   0  0  0  0  0  0  0  0  0  0  0  0
    0.2238    2.4996   -0.8021 N   0  0  0  0  0  0  0  0  0  0  0  0
   -0.6246    3.6160   -1.2588 C   0  0  2  0  0  0  0  0  0  0  0  0
   -2.0620    3.1547   -1.6240 C   0  0  0  0  0  0  0  0  0  0  0  0
   -2.5745    2.2263   -1.0026 O   0  0  0  0  0  0  0  0  0  0  0  0
    0.0772    4.3846   -2.3910 C   0  0  0  0  0  0  0  0  0  0  0  0
    0.3397    2.3858    0.1996 H   0  0  0  0  0  0  0  0  0  0  0  0
   -0.7360    4.3118   -0.4218 H   0  0  0  0  0  0  0  0  0  0  0  0
    0.1071    3.7941   -3.3117 H   0  0  0  0  0  0  0  0  0  0  0  0
   -0.4455    5.3231   -2.5982 H   0  0  0  0  0  0  0  0  0  0  0  0
    1.1055    4.6227   -2.1024 H   0  0  0  0  0  0  0  0  0  0  0  0
   -2.8016    3.7928   -2.6034 N   0  0  0  0  0  0  0  0  0  0  0  0
   -4.1057    3.3153   -3.0478 C   0  0  0  0  0  0  0  0  0  0  0  0
   -2.3032    4.4531   -3.1922 H   0  0  0  0  0  0  0  0  0  0  0  0
   -4.5136    3.9861   -3.8101 H   0  0  0  0  0  0  0  0  0  0  0  0
   -4.0187    2.3118   -3.4778 H   0  0  0  0  0  0  0  0  0  0  0  0
   -4.8100    3.2797   -2.2100 H   0  0  0  0  0  0  0  0  0  0  0  0
  1  2  2  0  0  0  0
  1  3  1  0  0  0  0
  1  7  1  0  0  0  0
  3  4  1  0  0  0  0
  3  5  1  0  0  0  0
  3  6  1  0  0  0  0
  7  8  1  0  0  0  0
  7 12  1  0  0  0  0
  8  9  1  0  0  0  0
  8 11  1  0  0  0  0
  8 13  1  0  0  0  0
  9 10  2  0  0  0  0
  9 17  1  0  0  0  0
 11 14  1  0  0  0  0
 11 15  1  0  0  0  0
 11 16  1  0  0  0  0
 17 18  1  0  0  0  0
 17 23  1  0  0  0  0
 18 19  1  0  0  0  0
 18 21  1  0  0  0  0
 18 24  1  0  0  0  0
 19 20  2  0  0  0  0
 19 28  1  0  0  0  0
 21 22  1  0  0  0  0
 21 25  1  0  0  0  0
 21 26  1  0  0  0  0
 22 27  1  0  0  0  0
 28 29  1  0  0  0  0
 28 33  1  0  0  0  0
 29 30  1  0  0  0  0
 29 32  1  0  0  0  0
 29 34  1  0  0  0  0
 30 31  2  0  0  0  0
 30 38  1  0  0  0  0
 32 35  1  0  0  0  0
 32 36  1  0  0  0  0
 32 37  1  0  0  0  0
 38 39  1  0  0  0  0
 38 40  1  0  0  0  0
 39 41  1  0  0  0  0
 39 42  1  0  0  0  0
 39 43  1  0  0  0  0
M  END
$$$$

  -OEChem-05262217303D

 43 42  0     1  0  0  0  0  0999 V2000
    3.6982   -2.2039    4.1382 C   0  0  0  0  0  0  0  0  0  0  0  0
    2.9099   -1.9734    5.0412 O   0  0  0  0  0  0  0  0  0  0  0  0
    4.8027   -3.2260    4.3296 C   0  0  0  0  0  0  0  0  0  0  0  0
    5.7740   -2.7682    4.1276 H   0  0  0  0  0  0  0  0  0  0  0  0
    4.7968   -3.6001    5.3571 H   0  0  0  0  0  0  0  0  0  0  0  0
    4.6553   -4.0665    3.6473 H   0  0  0  0  0  0  0  0  0  0  0  0
    3.5825   -1.5387    2.9365 N   0  0  0  0  0  0  0  0  0  0  0  0
    2.4716   -0.6448    2.5847 C   0  0  2  0  0  0  0  0  0  0  0  0
    2.2389   -0.6111    1.0582 C   0  0  0  0  0  0  0  0  0  0  0  0
    3.0159   -1.1893    0.3067 O   0  0  0  0  0  0  0  0  0  0  0  0
    2.7858    0.7582    3.1175 C   0  0  0  0  0  0  0  0  0  0  0  0
    4.1747   -1.8552    2.1690 H   0  0  0  0  0  0  0  0  0  0  0  0
    1.5479   -1.0082    3.0488 H   0  0  0  0  0  0  0  0  0  0  0  0
    3.6982    1.1481    2.6550 H   0  0  0  0  0  0  0  0  0  0  0  0
    1.9627    1.4461    2.9033 H   0  0  0  0  0  0  0  0  0  0  0  0
    2.9315    0.7291    4.2022 H   0  0  0  0  0  0  0  0  0  0  0  0
    1.1667    0.0812    0.5247 N   0  0  0  0  0  0  0  0  0  0  0  0
    0.6789   -0.1241   -0.8554 C   0  0  2  0  0  0  0  0  0  0  0  0
    0.3790    1.1591   -1.6428 C   0  0  0  0  0  0  0  0  0  0  0  0
   -0.1216    1.0873   -2.7576 O   0  0  0  0  0  0  0  0  0  0  0  0
   -0.6120   -0.9409   -0.7029 C   0  0  0  0  0  0  0  0  0  0  0  0
   -1.6229   -0.1702   -0.0273 O   0  0  0  0  0  0  0  0  0  0  0  0
    0.4470    0.3373    1.2002 H   0  0  0  0  0  0  0  0  0  0  0  0
    1.3973   -0.6970   -1.4504 H   0  0  0  0  0  0  0  0  0  0  0  0
   -0.4090   -1.8564   -0.1370 H   0  0  0  0  0  0  0  0  0  0  0  0
   -0.9806   -1.2408   -1.6899 H   0  0  0  0  0  0  0  0  0  0  0  0
   -1.8917    0.6378   -0.5281 H   0  0  0  0  0  0  0  0  0  0  0  0
    0.5694    2.3946   -1.0474 N   0  0  0  0  0  0  0  0  0  0  0  0
   -0.1983    3.5901   -1.4421 C   0  0  2  0  0  0  0  0  0  0  0  0
   -1.7291    3.3290   -1.4892 C   0  0  0  0  0  0  0  0  0  0  0  0
   -2.2269    2.4909   -0.7405 O   0  0  0  0  0  0  0  0  0  0  0  0
    0.3591    4.1625   -2.7555 C   0  0  0  0  0  0  0  0  0  0  0  0
    0.8818    2.3387   -0.0830 H   0  0  0  0  0  0  0  0  0  0  0  0
   -0.0465    4.3513   -0.6712 H   0  0  0  0  0  0  0  0  0  0  0  0
    0.1269    3.5088   -3.6017 H   0  0  0  0  0  0  0  0  0  0  0  0
   -0.0668    5.1501   -2.9548 H   0  0  0  0  0  0  0  0  0  0  0  0
    1.4463    4.2670   -2.6891 H   0  0  0  0  0  0  0  0  0  0  0  0
   -2.5613    4.0600   -2.3180 N   0  0  0  0  0  0  0  0  0  0  0  0
   -3.9889    3.7927   -2.4459 C   0  0  0  0  0  0  0  0  0  0  0  0
   -2.1148    4.6512   -3.0125 H   0  0  0  0  0  0  0  0  0  0  0  0
   -4.4447    4.5040   -3.1412 H   0  0  0  0  0  0  0  0  0  0  0  0
   -4.1568    2.7794   -2.8258 H   0  0  0  0  0  0  0  0  0  0  0  0
   -4.4871    3.8929   -1.4759 H   0  0  0  0  0  0  0  0  0  0  0  0
  1  2  2  0  0  0  0
  1  3  1  0  0  0  0
  1  7  1  0  0  0  0
  3  4  1  0  0  0  0
  3  5  1  0  0  0  0
  3  6  1  0  0  0  0
  7  8  1  0  0  0  0
  7 12  1  0  0  0  0
  8  9  1  0  0  0  0
  8 11  1  0  0  0  0
  8 13  1  0  0  0  0
  9 10  2  0  0  0  0
  9 17  1  0  0  0  0
 11 14  1  0  0  0  0
 11 15  1  0  0  0  0
 11 16  1  0  0  0  0
 17 18  1  0  0  0  0
 17 23  1  0  0  0  0
 18 19  1  0  0  0  0
 18 21  1  0  0  0  0
 18 24  1  0  0  0  0
 19 20  2  0  0  0  0
 19 28  1  0  0  0  0
 21 22  1  0  0  0  0
 21 25  1  0  0  0  0
 21 26  1  0  0  0  0
 22 27  1  0  0  0  0
 28 29  1  0  0  0  0
 28 33  1  0  0  0  0
 29 30  1  0  0  0  0
 29 32  1  0  0  0  0
 29 34  1  0  0  0  0
 30 31  2  0  0  0  0
 30 38  1  0  0  0  0
 32 35  1  0  0  0  0
 32 36  1  0  0  0  0
 32 37  1  0  0  0  0
 38 39  1  0  0  0  0
 38 40  1  0  0  0  0
 39 41  1  0  0  0  0
 39 42  1  0  0  0  0
 39 43  1  0  0  0  0
M  END
$$$$

  -OEChem-05262217303D

 43 42  0     1  0  0  0  0  0999 V2000
    3.6224   -2.0730    4.1682 C   0  0  0  0  0  0  0  0  0  0  0  0
    2.8292   -1.7832    5.0494 O   0  0  0  0  0  0  0  0  0  0  0  0
    4.6998   -3.1105    4.4205 C   0  0  0  0  0  0  0  0  0  0  0  0
    5.6873   -2.6521    4.3280 H   0  0  0  0  0  0  0  0  0  0  0  0
    4.5961   -3.5249    5.4271 H   0  0  0  0  0  0  0  0  0  0  0  0
    4.6132   -3.9229    3.6949 H   0  0  0  0  0  0  0  0  0  0  0  0
    3.5386   -1.4606    2.9360 N   0  0  0  0  0  0  0  0  0  0  0  0
    2.4532   -0.5584    2.5291 C   0  0  2  0  0  0  0  0  0  0  0  0
    2.2247   -0.6040    1.0026 C   0  0  0  0  0  0  0  0  0  0  0  0
    3.0014   -1.2214    0.2825 O   0  0  0  0  0  0  0  0  0  0  0  0
    2.8058    0.8625    2.9828 C   0  0  0  0  0  0  0  0  0  0  0  0
    4.1350   -1.8238    2.1928 H   0  0  0  0  0  0  0  0  0  0  0  0
    1.5183   -0.8690    3.0089 H   0  0  0  0  0  0  0  0  0  0  0  0
    3.7345    1.1961    2.5092 H   0  0  0  0  0  0  0  0  0  0  0  0
    2.0070    1.5619    2.7190 H   0  0  0  0  0  0  0  0  0  0  0  0
    2.9397    0.8914    4.0690 H   0  0  0  0  0  0  0  0  0  0  0  0
    1.1541    0.0582    0.4300 N   0  0  0  0  0  0  0  0  0  0  0  0
    0.6640   -0.2174   -0.9367 C   0  0  2  0  0  0  0  0  0  0  0  0
    0.3734    1.0448   -1.7648 C   0  0  0  0  0  0  0  0  0  0  0  0
   -0.3808    0.9941   -2.7286 O   0  0  0  0  0  0  0  0  0  0  0  0
   -0.6136   -1.0482   -0.7539 C   0  0  0  0  0  0  0  0  0  0  0  0
   -1.6320   -0.2609   -0.1144 O   0  0  0  0  0  0  0  0  0  0  0  0
    0.4432    0.3833    1.0864 H   0  0  0  0  0  0  0  0  0  0  0  0
    1.3901   -0.8053   -1.5068 H   0  0  0  0  0  0  0  0  0  0  0  0
   -0.3990   -1.9365   -0.1505 H   0  0  0  0  0  0  0  0  0  0  0  0
   -0.9749   -1.3933   -1.7286 H   0  0  0  0  0  0  0  0  0  0  0  0
   -1.8495    0.5444   -0.6315 H   0  0  0  0  0  0  0  0  0  0  0  0
    0.8627    2.2670   -1.3353 N   0  0  0  0  0  0  0  0  0  0  0  0
    0.1989    3.5433   -1.6568 C   0  0  2  0  0  0  0  0  0  0  0  0
   -1.3189    3.5155   -1.3291 C   0  0  0  0  0  0  0  0  0  0  0  0
   -1.7174    2.8611   -0.3694 O   0  0  0  0  0  0  0  0  0  0  0  0
    0.5058    3.9476   -3.1086 C   0  0  0  0  0  0  0  0  0  0  0  0
    1.3620    2.2142   -0.4518 H   0  0  0  0  0  0  0  0  0  0  0  0
    0.6324    4.3136   -1.0123 H   0  0  0  0  0  0  0  0  0  0  0  0
   -0.0068    3.2921   -3.8190 H   0  0  0  0  0  0  0  0  0  0  0  0
    0.1864    4.9772   -3.2949 H   0  0  0  0  0  0  0  0  0  0  0  0
    1.5819    3.8844   -3.2973 H   0  0  0  0  0  0  0  0  0  0  0  0
   -2.2369    4.2294   -2.0784 N   0  0  0  0  0  0  0  0  0  0  0  0
   -3.6768    4.1160   -1.8786 C   0  0  0  0  0  0  0  0  0  0  0  0
   -1.8996    4.6352   -2.9461 H   0  0  0  0  0  0  0  0  0  0  0  0
   -4.2065    4.8041   -2.5444 H   0  0  0  0  0  0  0  0  0  0  0  0
   -4.0125    3.0959   -2.0937 H   0  0  0  0  0  0  0  0  0  0  0  0
   -3.9429    4.3649   -0.8456 H   0  0  0  0  0  0  0  0  0  0  0  0
  1  2  2  0  0  0  0
  1  3  1  0  0  0  0
  1  7  1  0  0  0  0
  3  4  1  0  0  0  0
  3  5  1  0  0  0  0
  3  6  1  0  0  0  0
  7  8  1  0  0  0  0
  7 12  1  0  0  0  0
  8  9  1  0  0  0  0
  8 11  1  0  0  0  0
  8 13  1  0  0  0  0
  9 10  2  0  0  0  0
  9 17  1  0  0  0  0
 11 14  1  0  0  0  0
 11 15  1  0  0  0  0
 11 16  1  0  0  0  0
 17 18  1  0  0  0  0
 17 23  1  0  0  0  0
 18 19  1  0  0  0  0
 18 21  1  0  0  0  0
 18 24  1  0  0  0  0
 19 20  2  0  0  0  0
 19 28  1  0  0  0  0
 21 22  1  0  0  0  0
 21 25  1  0  0  0  0
 21 26  1  0  0  0  0
 22 27  1  0  0  0  0
 28 29  1  0  0  0  0
 28 33  1  0  0  0  0
 29 30  1  0  0  0  0
 29 32  1  0  0  0  0
 29 34  1  0  0  0  0
 30 31  2  0  0  0  0
 30 38  1  0  0  0  0
 32 35  1  0  0  0  0
 32 36  1  0  0  0  0
 32 37  1  0  0  0  0
 38 39  1  0  0  0  0
 38 40  1  0  0  0  0
 39 41  1  0  0  0  0
 39 42  1  0  0  0  0
 39 43  1  0  0  0  0
M  END
$$$$

  -OEChem-05262217303D

 43 42  0     1  0  0  0  0  0999 V2000
    3.5328   -2.1164    4.0515 C   0  0  0  0  0  0  0  0  0  0  0  0
    2.7066   -1.8821    4.9187 O   0  0  0  0  0  0  0  0  0  0  0  0
    4.5872   -3.1852    4.2706 C   0  0  0  0  0  0  0  0  0  0  0  0
    5.5840   -2.7391    4.2322 H   0  0  0  0  0  0  0  0  0  0  0  0
    4.4490   -3.6559    5.2483 H   0  0  0  0  0  0  0  0  0  0  0  0
    4.5085   -3.9524    3.4964 H   0  0  0  0  0  0  0  0  0  0  0  0
    3.5035   -1.4129    2.8659 N   0  0  0  0  0  0  0  0  0  0  0  0
    2.4442   -0.4665    2.4915 C   0  0  2  0  0  0  0  0  0  0  0  0
    2.1841   -0.4758    0.9705 C   0  0  0  0  0  0  0  0  0  0  0  0
    2.9863   -1.0029    0.2084 O   0  0  0  0  0  0  0  0  0  0  0  0
    2.8588    0.9313    2.9613 C   0  0  0  0  0  0  0  0  0  0  0  0
    4.1305   -1.7220    2.1239 H   0  0  0  0  0  0  0  0  0  0  0  0
    1.5063   -0.7482    2.9830 H   0  0  0  0  0  0  0  0  0  0  0  0
    3.7920    1.2374    2.4778 H   0  0  0  0  0  0  0  0  0  0  0  0
    2.0833    1.6648    2.7214 H   0  0  0  0  0  0  0  0  0  0  0  0
    3.0110    0.9356    4.0455 H   0  0  0  0  0  0  0  0  0  0  0  0
    1.0510    0.1204    0.4477 N   0  0  0  0  0  0  0  0  0  0  0  0
    0.5476   -0.1461   -0.9157 C   0  0  2  0  0  0  0  0  0  0  0  0
    0.1505    1.1473   -1.6542 C   0  0  0  0  0  0  0  0  0  0  0  0
   -0.8081    1.1672   -2.4183 O   0  0  0  0  0  0  0  0  0  0  0  0
   -0.6280   -1.1242   -0.7853 C   0  0  0  0  0  0  0  0  0  0  0  0
   -1.7171   -0.4969   -0.0975 O   0  0  0  0  0  0  0  0  0  0  0  0
    0.3435    0.3820    1.1340 H   0  0  0  0  0  0  0  0  0  0  0  0
    1.3182   -0.6239   -1.5291 H   0  0  0  0  0  0  0  0  0  0  0  0
   -0.3063   -2.0129   -0.2320 H   0  0  0  0  0  0  0  0  0  0  0  0
   -0.9569   -1.4548   -1.7763 H   0  0  0  0  0  0  0  0  0  0  0  0
   -2.1456    0.1525   -0.6890 H   0  0  0  0  0  0  0  0  0  0  0  0
    0.8199    2.3213   -1.3508 N   0  0  0  0  0  0  0  0  0  0  0  0
    0.5903    3.6664   -1.9172 C   0  0  2  0  0  0  0  0  0  0  0  0
   -0.7592    4.3108   -1.5253 C   0  0  0  0  0  0  0  0  0  0  0  0
   -0.7664    5.3989   -0.9659 O   0  0  0  0  0  0  0  0  0  0  0  0
    0.7761    3.6651   -3.4412 C   0  0  0  0  0  0  0  0  0  0  0  0
    1.5713    2.2201   -0.6724 H   0  0  0  0  0  0  0  0  0  0  0  0
    1.3662    4.3204   -1.5052 H   0  0  0  0  0  0  0  0  0  0  0  0
   -0.0175    3.1006   -3.9392 H   0  0  0  0  0  0  0  0  0  0  0  0
    0.7534    4.6914   -3.8215 H   0  0  0  0  0  0  0  0  0  0  0  0
    1.7396    3.2196   -3.7064 H   0  0  0  0  0  0  0  0  0  0  0  0
   -1.9580    3.6805   -1.7929 N   0  0  0  0  0  0  0  0  0  0  0  0
   -3.2642    4.2372   -1.4697 C   0  0  0  0  0  0  0  0  0  0  0  0
   -1.8951    2.7650   -2.2445 H   0  0  0  0  0  0  0  0  0  0  0  0
   -4.0519    3.5195   -1.7179 H   0  0  0  0  0  0  0  0  0  0  0  0
   -3.3301    4.4665   -0.4009 H   0  0  0  0  0  0  0  0  0  0  0  0
   -3.4390    5.1556   -2.0398 H   0  0  0  0  0  0  0  0  0  0  0  0
  1  2  2  0  0  0  0
  1  3  1  0  0  0  0
  1  7  1  0  0  0  0
  3  4  1  0  0  0  0
  3  5  1  0  0  0  0
  3  6  1  0  0  0  0
  7  8  1  0  0  0  0
  7 12  1  0  0  0  0
  8  9  1  0  0  0  0
  8 11  1  0  0  0  0
  8 13  1  0  0  0  0
  9 10  2  0  0  0  0
  9 17  1  0  0  0  0
 11 14  1  0  0  0  0
 11 15  1  0  0  0  0
 11 16  1  0  0  0  0
 17 18  1  0  0  0  0
 17 23  1  0  0  0  0
 18 19  1  0  0  0  0
 18 21  1  0  0  0  0
 18 24  1  0  0  0  0
 19 20  2  0  0  0  0
 19 28  1  0  0  0  0
 21 22  1  0  0  0  0
 21 25  1  0  0  0  0
 21 26  1  0  0  0  0
 22 27  1  0  0  0  0
 28 29  1  0  0  0  0
 28 33  1  0  0  0  0
 29 30  1  0  0  0  0
 29 32  1  0  0  0  0
 29 34  1  0  0  0  0
 30 31  2  0  0  0  0
 30 38  1  0  0  0  0
 32 35  1  0  0  0  0
 32 36  1  0  0  0  0
 32 37  1  0  0  0  0
 38 39  1  0  0  0  0
 38 40  1  0  0  0  0
 39 41  1  0  0  0  0
 39 42  1  0  0  0  0
 39 43  1  0  0  0  0
M  END
$$$$

  -OEChem-05262217303D

 43 42  0     1  0  0  0  0  0999 V2000
    3.5326   -2.0662    4.0588 C   0  0  0  0  0  0  0  0  0  0  0  0
    2.6944   -1.8568    4.9207 O   0  0  0  0  0  0  0  0  0  0  0  0
    4.6266   -3.0912    4.2917 C   0  0  0  0  0  0  0  0  0  0  0  0
    5.6064   -2.6106    4.2358 H   0  0  0  0  0  0  0  0  0  0  0  0
    4.5129   -3.5448    5.2805 H   0  0  0  0  0  0  0  0  0  0  0  0
    4.5704   -3.8777    3.5351 H   0  0  0  0  0  0  0  0  0  0  0  0
    3.4817   -1.3734    2.8677 N   0  0  0  0  0  0  0  0  0  0  0  0
    2.3919   -0.4669    2.4833 C   0  0  2  0  0  0  0  0  0  0  0  0
    2.1472   -0.4866    0.9595 C   0  0  0  0  0  0  0  0  0  0  0  0
    2.9585   -1.0158    0.2081 O   0  0  0  0  0  0  0  0  0  0  0  0
    2.7483    0.9451    2.9591 C   0  0  0  0  0  0  0  0  0  0  0  0
    4.1210   -1.6654    2.1295 H   0  0  0  0  0  0  0  0  0  0  0  0
    1.4605   -0.7840    2.9655 H   0  0  0  0  0  0  0  0  0  0  0  0
    3.6762    1.2856    2.4885 H   0  0  0  0  0  0  0  0  0  0  0  0
    1.9495    1.6501    2.7094 H   0  0  0  0  0  0  0  0  0  0  0  0
    2.8856    0.9542    4.0454 H   0  0  0  0  0  0  0  0  0  0  0  0
    1.0188    0.1011    0.4179 N   0  0  0  0  0  0  0  0  0  0  0  0
    0.5249   -0.1915   -0.9423 C   0  0  2  0  0  0  0  0  0  0  0  0
    0.1383    1.0937   -1.7007 C   0  0  0  0  0  0  0  0  0  0  0  0
   -0.9389    1.1916   -2.2801 O   0  0  0  0  0  0  0  0  0  0  0  0
   -0.6495   -1.1714   -0.8034 C   0  0  0  0  0  0  0  0  0  0  0  0
   -1.7460   -0.5371   -0.1344 O   0  0  0  0  0  0  0  0  0  0  0  0
    0.3100    0.3849    1.0934 H   0  0  0  0  0  0  0  0  0  0  0  0
    1.2995   -0.6801   -1.5419 H   0  0  0  0  0  0  0  0  0  0  0  0
   -0.3306   -2.0522   -0.2359 H   0  0  0  0  0  0  0  0  0  0  0  0
   -0.9703   -1.5137   -1.7932 H   0  0  0  0  0  0  0  0  0  0  0  0
   -2.1285    0.1441   -0.7243 H   0  0  0  0  0  0  0  0  0  0  0  0
    0.9996    2.1770   -1.6462 N   0  0  0  0  0  0  0  0  0  0  0  0
    0.8365    3.4951   -2.2948 C   0  0  2  0  0  0  0  0  0  0  0  0
   -0.3196    4.3573   -1.7364 C   0  0  0  0  0  0  0  0  0  0  0  0
   -0.0875    5.4910   -1.3393 O   0  0  0  0  0  0  0  0  0  0  0  0
    0.7218    3.3505   -3.8189 C   0  0  0  0  0  0  0  0  0  0  0  0
    1.8440    2.0264   -1.0983 H   0  0  0  0  0  0  0  0  0  0  0  0
    1.7541    4.0604   -2.0994 H   0  0  0  0  0  0  0  0  0  0  0  0
   -0.2164    2.8656   -4.1042 H   0  0  0  0  0  0  0  0  0  0  0  0
    0.7511    4.3379   -4.2910 H   0  0  0  0  0  0  0  0  0  0  0  0
    1.5537    2.7562   -4.2086 H   0  0  0  0  0  0  0  0  0  0  0  0
   -1.6122    3.8756   -1.6836 N   0  0  0  0  0  0  0  0  0  0  0  0
   -2.7535    4.6430   -1.2048 C   0  0  0  0  0  0  0  0  0  0  0  0
   -1.7524    2.9222   -2.0254 H   0  0  0  0  0  0  0  0  0  0  0  0
   -3.6535    4.0205   -1.2067 H   0  0  0  0  0  0  0  0  0  0  0  0
   -2.5788    4.9943   -0.1825 H   0  0  0  0  0  0  0  0  0  0  0  0
   -2.9296    5.5094   -1.8508 H   0  0  0  0  0  0  0  0  0  0  0  0
  1  2  2  0  0  0  0
  1  3  1  0  0  0  0
  1  7  1  0  0  0  0
  3  4  1  0  0  0  0
  3  5  1  0  0  0  0
  3  6  1  0  0  0  0
  7  8  1  0  0  0  0
  7 12  1  0  0  0  0
  8  9  1  0  0  0  0
  8 11  1  0  0  0  0
  8 13  1  0  0  0  0
  9 10  2  0  0  0  0
  9 17  1  0  0  0  0
 11 14  1  0  0  0  0
 11 15  1  0  0  0  0
 11 16  1  0  0  0  0
 17 18  1  0  0  0  0
 17 23  1  0  0  0  0
 18 19  1  0  0  0  0
 18 21  1  0  0  0  0
 18 24  1  0  0  0  0
 19 20  2  0  0  0  0
 19 28  1  0  0  0  0
 21 22  1  0  0  0  0
 21 25  1  0  0  0  0
 21 26  1  0  0  0  0
 22 27  1  0  0  0  0
 28 29  1  0  0  0  0
 28 33  1  0  0  0  0
 29 30  1  0  0  0  0
 29 32  1  0  0  0  0
 29 34  1  0  0  0  0
 30 31  2  0  0  0  0
 30 38  1  0  0  0  0
 32 35  1  0  0  0  0
 32 36  1  0  0  0  0
 32 37  1  0  0  0  0
 38 39  1  0  0  0  0
 38 40  1  0  0  0  0
 39 41  1  0  0  0  0
 39 42  1  0  0  0  0
 39 43  1  0  0  0  0
M  END
$$$$

  -OEChem-05262217303D

 43 42  0     1  0  0  0  0  0999 V2000
    3.4122   -1.2981    4.1551 C   0  0  0  0  0  0  0  0  0  0  0  0
    2.6501   -0.7606    4.9424 O   0  0  0  0  0  0  0  0  0  0  0  0
    4.4622   -2.2724    4.6549 C   0  0  0  0  0  0  0  0  0  0  0  0
    5.4604   -1.9016    4.4100 H   0  0  0  0  0  0  0  0  0  0  0  0
    4.3853   -2.3877    5.7397 H   0  0  0  0  0  0  0  0  0  0  0  0
    4.3183   -3.2489    4.1859 H   0  0  0  0  0  0  0  0  0  0  0  0
    3.3201   -1.0281    2.8065 N   0  0  0  0  0  0  0  0  0  0  0  0
    2.2604   -0.2190    2.1899 C   0  0  2  0  0  0  0  0  0  0  0  0
    1.9827   -0.6689    0.7391 C   0  0  0  0  0  0  0  0  0  0  0  0
    2.7360   -1.4591    0.1783 O   0  0  0  0  0  0  0  0  0  0  0  0
    2.6860    1.2526    2.2325 C   0  0  0  0  0  0  0  0  0  0  0  0
    3.8901   -1.5919    2.1773 H   0  0  0  0  0  0  0  0  0  0  0  0
    1.3282   -0.3397    2.7528 H   0  0  0  0  0  0  0  0  0  0  0  0
    3.6031    1.4047    1.6548 H   0  0  0  0  0  0  0  0  0  0  0  0
    1.9016    1.8927    1.8180 H   0  0  0  0  0  0  0  0  0  0  0  0
    2.8690    1.5650    3.2655 H   0  0  0  0  0  0  0  0  0  0  0  0
    0.9035   -0.1712    0.0371 N   0  0  0  0  0  0  0  0  0  0  0  0
    0.4844   -0.6231   -1.3024 C   0  0  2  0  0  0  0  0  0  0  0  0
    0.1709    0.6001   -2.1819 C   0  0  0  0  0  0  0  0  0  0  0  0
   -0.9765    0.8752   -2.5213 O   0  0  0  0  0  0  0  0  0  0  0  0
   -0.7072   -1.5823   -1.1476 C   0  0  0  0  0  0  0  0  0  0  0  0
   -1.8524   -0.8945   -0.6320 O   0  0  0  0  0  0  0  0  0  0  0  0
    0.2940    0.4856    0.5264 H   0  0  0  0  0  0  0  0  0  0  0  0
    1.2911   -1.1725   -1.7973 H   0  0  0  0  0  0  0  0  0  0  0  0
   -0.4376   -2.4050   -0.4771 H   0  0  0  0  0  0  0  0  0  0  0  0
   -0.9555   -2.0146   -2.1225 H   0  0  0  0  0  0  0  0  0  0  0  0
   -2.0623   -0.1458   -1.2324 H   0  0  0  0  0  0  0  0  0  0  0  0
    1.1993    1.5021   -2.3986 N   0  0  0  0  0  0  0  0  0  0  0  0
    0.9597    2.9514   -2.5133 C   0  0  2  0  0  0  0  0  0  0  0  0
    0.1727    3.4901   -1.2902 C   0  0  0  0  0  0  0  0  0  0  0  0
    0.4901    3.1105   -0.1665 O   0  0  0  0  0  0  0  0  0  0  0  0
    0.3312    3.3057   -3.8717 C   0  0  0  0  0  0  0  0  0  0  0  0
    2.0575    1.2385   -1.9190 H   0  0  0  0  0  0  0  0  0  0  0  0
    1.9342    3.4480   -2.4826 H   0  0  0  0  0  0  0  0  0  0  0  0
   -0.7014    2.9519   -3.9413 H   0  0  0  0  0  0  0  0  0  0  0  0
    0.3349    4.3899   -4.0187 H   0  0  0  0  0  0  0  0  0  0  0  0
    0.9071    2.8481   -4.6818 H   0  0  0  0  0  0  0  0  0  0  0  0
   -0.8802    4.3762   -1.4277 N   0  0  0  0  0  0  0  0  0  0  0  0
   -1.7253    4.7776   -0.3091 C   0  0  0  0  0  0  0  0  0  0  0  0
   -1.2166    4.5394   -2.3723 H   0  0  0  0  0  0  0  0  0  0  0  0
   -2.5055    5.4645   -0.6510 H   0  0  0  0  0  0  0  0  0  0  0  0
   -2.2068    3.9024    0.1403 H   0  0  0  0  0  0  0  0  0  0  0  0
   -1.1315    5.2856    0.4582 H   0  0  0  0  0  0  0  0  0  0  0  0
  1  2  2  0  0  0  0
  1  3  1  0  0  0  0
  1  7  1  0  0  0  0
  3  4  1  0  0  0  0
  3  5  1  0  0  0  0
  3  6  1  0  0  0  0
  7  8  1  0  0  0  0
  7 12  1  0  0  0  0
  8  9  1  0  0  0  0
  8 11  1  0  0  0  0
  8 13  1  0  0  0  0
  9 10  2  0  0  0  0
  9 17  1  0  0  0  0
 11 14  1  0  0  0  0
 11 15  1  0  0  0  0
 11 16  1  0  0  0  0
 17 18  1  0  0  0  0
 17 23  1  0  0  0  0
 18 19  1  0  0  0  0
 18 21  1  0  0  0  0
 18 24  1  0  0  0  0
 19 20  2  0  0  0  0
 19 28  1  0  0  0  0
 21 22  1  0  0  0  0
 21 25  1  0  0  0  0
 21 26  1  0  0  0  0
 22 27  1  0  0  0  0
 28 29  1  0  0  0  0
 28 33  1  0  0  0  0
 29 30  1  0  0  0  0
 29 32  1  0  0  0  0
 29 34  1  0  0  0  0
 30 31  2  0  0  0  0
 30 38  1  0  0  0  0
 32 35  1  0  0  0  0
 32 36  1  0  0  0  0
 32 37  1  0  0  0  0
 38 39  1  0  0  0  0
 38 40  1  0  0  0  0
 39 41  1  0  0  0  0
 39 42  1  0  0  0  0
 39 43  1  0  0  0  0
M  END
$$$$

  -OEChem-05262217303D

 43 42  0     1  0  0  0  0  0999 V2000
    3.4520   -1.7110    4.1114 C   0  0  0  0  0  0  0  0  0  0  0  0
    2.6069   -1.4320    4.9466 O   0  0  0  0  0  0  0  0  0  0  0  0
    4.5722   -2.6757    4.4517 C   0  0  0  0  0  0  0  0  0  0  0  0
    5.5389   -2.1765    4.3501 H   0  0  0  0  0  0  0  0  0  0  0  0
    4.4644   -3.0294    5.4808 H   0  0  0  0  0  0  0  0  0  0  0  0
    4.5416   -3.5360    3.7788 H   0  0  0  0  0  0  0  0  0  0  0  0
    3.3809   -1.1594    2.8498 N   0  0  0  0  0  0  0  0  0  0  0  0
    2.2579   -0.3460    2.3656 C   0  0  2  0  0  0  0  0  0  0  0  0
    2.0389   -0.5234    0.8484 C   0  0  0  0  0  0  0  0  0  0  0  0
    2.8667   -1.1150    0.1634 O   0  0  0  0  0  0  0  0  0  0  0  0
    2.5397    1.1217    2.7051 C   0  0  0  0  0  0  0  0  0  0  0  0
    4.0305   -1.5127    2.1482 H   0  0  0  0  0  0  0  0  0  0  0  0
    1.3343   -0.6592    2.8650 H   0  0  0  0  0  0  0  0  0  0  0  0
    3.4600    1.4583    2.2171 H   0  0  0  0  0  0  0  0  0  0  0  0
    1.7153    1.7607    2.3741 H   0  0  0  0  0  0  0  0  0  0  0  0
    2.6544    1.2447    3.7870 H   0  0  0  0  0  0  0  0  0  0  0  0
    0.9184    0.0027    0.2346 N   0  0  0  0  0  0  0  0  0  0  0  0
    0.4753   -0.3677   -1.1205 C   0  0  2  0  0  0  0  0  0  0  0  0
    0.0894    0.8799   -1.9384 C   0  0  0  0  0  0  0  0  0  0  0  0
   -1.0828    1.2160   -2.0835 O   0  0  0  0  0  0  0  0  0  0  0  0
   -0.6713   -1.3811   -0.9770 C   0  0  0  0  0  0  0  0  0  0  0  0
   -1.8151   -0.7689   -0.3707 O   0  0  0  0  0  0  0  0  0  0  0  0
    0.1964    0.3538    0.8622 H   0  0  0  0  0  0  0  0  0  0  0  0
    1.2805   -0.8648   -1.6710 H   0  0  0  0  0  0  0  0  0  0  0  0
   -0.3427   -2.2321   -0.3711 H   0  0  0  0  0  0  0  0  0  0  0  0
   -0.9469   -1.7635   -1.9655 H   0  0  0  0  0  0  0  0  0  0  0  0
   -2.0955   -0.0057   -0.9220 H   0  0  0  0  0  0  0  0  0  0  0  0
    1.1099    1.6804   -2.4243 N   0  0  0  0  0  0  0  0  0  0  0  0
    0.9788    2.9771   -3.1206 C   0  0  2  0  0  0  0  0  0  0  0  0
    0.4542    4.1237   -2.2273 C   0  0  0  0  0  0  0  0  0  0  0  0
    1.1124    5.1484   -2.1130 O   0  0  0  0  0  0  0  0  0  0  0  0
    0.1423    2.8504   -4.4017 C   0  0  0  0  0  0  0  0  0  0  0  0
    2.0487    1.3964   -2.1504 H   0  0  0  0  0  0  0  0  0  0  0  0
    1.9863    3.2720   -3.4329 H   0  0  0  0  0  0  0  0  0  0  0  0
   -0.9133    2.6748   -4.1751 H   0  0  0  0  0  0  0  0  0  0  0  0
    0.2137    3.7733   -4.9858 H   0  0  0  0  0  0  0  0  0  0  0  0
    0.5101    2.0228   -5.0156 H   0  0  0  0  0  0  0  0  0  0  0  0
   -0.7312    4.0006   -1.5306 N   0  0  0  0  0  0  0  0  0  0  0  0
   -1.2735    5.0315   -0.6562 C   0  0  0  0  0  0  0  0  0  0  0  0
   -1.2326    3.1166   -1.6430 H   0  0  0  0  0  0  0  0  0  0  0  0
   -2.2348    4.7098   -0.2442 H   0  0  0  0  0  0  0  0  0  0  0  0
   -0.5879    5.2287    0.1745 H   0  0  0  0  0  0  0  0  0  0  0  0
   -1.4298    5.9618   -1.2122 H   0  0  0  0  0  0  0  0  0  0  0  0
  1  2  2  0  0  0  0
  1  3  1  0  0  0  0
  1  7  1  0  0  0  0
  3  4  1  0  0  0  0
  3  5  1  0  0  0  0
  3  6  1  0  0  0  0
  7  8  1  0  0  0  0
  7 12  1  0  0  0  0
  8  9  1  0  0  0  0
  8 11  1  0  0  0  0
  8 13  1  0  0  0  0
  9 10  2  0  0  0  0
  9 17  1  0  0  0  0
 11 14  1  0  0  0  0
 11 15  1  0  0  0  0
 11 16  1  0  0  0  0
 17 18  1  0  0  0  0
 17 23  1  0  0  0  0
 18 19  1  0  0  0  0
 18 21  1  0  0  0  0
 18 24  1  0  0  0  0
 19 20  2  0  0  0  0
 19 28  1  0  0  0  0
 21 22  1  0  0  0  0
 21 25  1  0  0  0  0
 21 26  1  0  0  0  0
 22 27  1  0  0  0  0
 28 29  1  0  0  0  0
 28 33  1  0  0  0  0
 29 30  1  0  0  0  0
 29 32  1  0  0  0  0
 29 34  1  0  0  0  0
 30 31  2  0  0  0  0
 30 38  1  0  0  0  0
 32 35  1  0  0  0  0
 32 36  1  0  0  0  0
 32 37  1  0  0  0  0
 38 39  1  0  0  0  0
 38 40  1  0  0  0  0
 39 41  1  0  0  0  0
 39 42  1  0  0  0  0
 39 43  1  0  0  0  0
M  END
$$$$

  -OEChem-05262217303D

 43 42  0     1  0  0  0  0  0999 V2000
    3.4971   -1.6594    4.1153 C   0  0  0  0  0  0  0  0  0  0  0  0
    2.6644   -1.3624    4.9569 O   0  0  0  0  0  0  0  0  0  0  0  0
    4.6207   -2.6188    4.4600 C   0  0  0  0  0  0  0  0  0  0  0  0
    5.5869   -2.1268    4.3248 H   0  0  0  0  0  0  0  0  0  0  0  0
    4.5327   -2.9432    5.5008 H   0  0  0  0  0  0  0  0  0  0  0  0
    4.5730   -3.4979    3.8126 H   0  0  0  0  0  0  0  0  0  0  0  0
    3.4072   -1.1362    2.8427 N   0  0  0  0  0  0  0  0  0  0  0  0
    2.2761   -0.3342    2.3572 C   0  0  2  0  0  0  0  0  0  0  0  0
    2.0324   -0.5428    0.8474 C   0  0  0  0  0  0  0  0  0  0  0  0
    2.8518   -1.1457    0.1620 O   0  0  0  0  0  0  0  0  0  0  0  0
    2.5625    1.1404    2.6600 C   0  0  0  0  0  0  0  0  0  0  0  0
    4.0479   -1.5039    2.1403 H   0  0  0  0  0  0  0  0  0  0  0  0
    1.3608   -0.6369    2.8775 H   0  0  0  0  0  0  0  0  0  0  0  0
    3.4687    1.4695    2.1414 H   0  0  0  0  0  0  0  0  0  0  0  0
    1.7276    1.7701    2.3378 H   0  0  0  0  0  0  0  0  0  0  0  0
    2.7051    1.2849    3.7358 H   0  0  0  0  0  0  0  0  0  0  0  0
    0.9002   -0.0323    0.2405 N   0  0  0  0  0  0  0  0  0  0  0  0
    0.4630   -0.3898   -1.1198 C   0  0  2  0  0  0  0  0  0  0  0  0
    0.0453    0.8528   -1.9303 C   0  0  0  0  0  0  0  0  0  0  0  0
   -1.1024    1.2870   -1.8800 O   0  0  0  0  0  0  0  0  0  0  0  0
   -0.6650   -1.4259   -0.9936 C   0  0  0  0  0  0  0  0  0  0  0  0
   -1.8218   -0.8482   -0.3777 O   0  0  0  0  0  0  0  0  0  0  0  0
    0.1827    0.3293    0.8672 H   0  0  0  0  0  0  0  0  0  0  0  0
    1.2774   -0.8674   -1.6737 H   0  0  0  0  0  0  0  0  0  0  0  0
   -0.3215   -2.2835   -0.4057 H   0  0  0  0  0  0  0  0  0  0  0  0
   -0.9333   -1.7929   -1.9897 H   0  0  0  0  0  0  0  0  0  0  0  0
   -2.0765   -0.0364   -0.8702 H   0  0  0  0  0  0  0  0  0  0  0  0
    1.0077    1.5115   -2.6779 N   0  0  0  0  0  0  0  0  0  0  0  0
    0.8394    2.7538   -3.4610 C   0  0  2  0  0  0  0  0  0  0  0  0
    0.5680    4.0163   -2.6103 C   0  0  0  0  0  0  0  0  0  0  0  0
    1.2961    4.9919   -2.7321 O   0  0  0  0  0  0  0  0  0  0  0  0
   -0.2247    2.5880   -4.5549 C   0  0  0  0  0  0  0  0  0  0  0  0
    1.9565    1.1569   -2.5758 H   0  0  0  0  0  0  0  0  0  0  0  0
    1.7897    2.9343   -3.9744 H   0  0  0  0  0  0  0  0  0  0  0  0
   -1.2294    2.5193   -4.1279 H   0  0  0  0  0  0  0  0  0  0  0  0
   -0.2017    3.4487   -5.2311 H   0  0  0  0  0  0  0  0  0  0  0  0
   -0.0312    1.6838   -5.1399 H   0  0  0  0  0  0  0  0  0  0  0  0
   -0.4691    4.0572   -1.6995 N   0  0  0  0  0  0  0  0  0  0  0  0
   -0.7645    5.2005   -0.8469 C   0  0  0  0  0  0  0  0  0  0  0  0
   -1.0372    3.2105   -1.6224 H   0  0  0  0  0  0  0  0  0  0  0  0
   -1.6403    4.9909   -0.2251 H   0  0  0  0  0  0  0  0  0  0  0  0
    0.0837    5.4167   -0.1890 H   0  0  0  0  0  0  0  0  0  0  0  0
   -0.9760    6.0868   -1.4541 H   0  0  0  0  0  0  0  0  0  0  0  0
  1  2  2  0  0  0  0
  1  3  1  0  0  0  0
  1  7  1  0  0  0  0
  3  4  1  0  0  0  0
  3  5  1  0  0  0  0
  3  6  1  0  0  0  0
  7  8  1  0  0  0  0
  7 12  1  0  0  0  0
  8  9  1  0  0  0  0
  8 11  1  0  0  0  0
  8 13  1  0  0  0  0
  9 10  2  0  0  0  0
  9 17  1  0  0  0  0
 11 14  1  0  0  0  0
 11 15  1  0  0  0  0
 11 16  1  0  0  0  0
 17 18  1  0  0  0  0
 17 23  1  0  0  0  0
 18 19  1  0  0  0  0
 18 21  1  0  0  0  0
 18 24  1  0  0  0  0
 19 20  2  0  0  0  0
 19 28  1  0  0  0  0
 21 22  1  0  0  0  0
 21 25  1  0  0  0  0
 21 26  1  0  0  0  0
 22 27  1  0  0  0  0
 28 29  1  0  0  0  0
 28 33  1  0  0  0  0
 29 30  1  0  0  0  0
 29 32  1  0  0  0  0
 29 34  1  0  0  0  0
 30 31  2  0  0  0  0
 30 38  1  0  0  0  0
 32 35  1  0  0  0  0
 32 36  1  0  0  0  0
 32 37  1  0  0  0  0
 38 39  1  0  0  0  0
 38 40  1  0  0  0  0
 39 41  1  0  0  0  0
 39 42  1  0  0  0  0
 39 43  1  0  0  0  0
M  END
$$$$

  -OEChem-05262217303D

 43 42  0     1  0  0  0  0  0999 V2000
    3.5184   -1.5508    4.1223 C   0  0  0  0  0  0  0  0  0  0  0  0
    2.7114   -1.1865    4.9626 O   0  0  0  0  0  0  0  0  0  0  0  0
    4.6654   -2.4631    4.5127 C   0  0  0  0  0  0  0  0  0  0  0  0
    5.6184   -1.9953    4.2543 H   0  0  0  0  0  0  0  0  0  0  0  0
    4.6464   -2.6510    5.5899 H   0  0  0  0  0  0  0  0  0  0  0  0
    4.5801   -3.4168    3.9862 H   0  0  0  0  0  0  0  0  0  0  0  0
    3.3866   -1.1327    2.8150 N   0  0  0  0  0  0  0  0  0  0  0  0
    2.2595   -0.3386    2.3091 C   0  0  2  0  0  0  0  0  0  0  0  0
    1.9970   -0.6031    0.8118 C   0  0  0  0  0  0  0  0  0  0  0  0
    2.8075   -1.2302    0.1374 O   0  0  0  0  0  0  0  0  0  0  0  0
    2.5650    1.1450    2.5439 C   0  0  0  0  0  0  0  0  0  0  0  0
    4.0118   -1.5443    2.1230 H   0  0  0  0  0  0  0  0  0  0  0  0
    1.3482   -0.6097    2.8532 H   0  0  0  0  0  0  0  0  0  0  0  0
    3.4665    1.4417    1.9983 H   0  0  0  0  0  0  0  0  0  0  0  0
    1.7316    1.7685    2.2062 H   0  0  0  0  0  0  0  0  0  0  0  0
    2.7248    1.3359    3.6100 H   0  0  0  0  0  0  0  0  0  0  0  0
    0.8583   -0.1097    0.2042 N   0  0  0  0  0  0  0  0  0  0  0  0
    0.4295   -0.4544   -1.1609 C   0  0  2  0  0  0  0  0  0  0  0  0
   -0.0119    0.7882   -1.9571 C   0  0  0  0  0  0  0  0  0  0  0  0
   -1.0775    1.3422   -1.7010 O   0  0  0  0  0  0  0  0  0  0  0  0
   -0.6918   -1.4988   -1.0561 C   0  0  0  0  0  0  0  0  0  0  0  0
   -1.8566   -0.9368   -0.4396 O   0  0  0  0  0  0  0  0  0  0  0  0
    0.1499    0.2833    0.8219 H   0  0  0  0  0  0  0  0  0  0  0  0
    1.2525   -0.9155   -1.7150 H   0  0  0  0  0  0  0  0  0  0  0  0
   -0.3472   -2.3630   -0.4786 H   0  0  0  0  0  0  0  0  0  0  0  0
   -0.9514   -1.8524   -2.0594 H   0  0  0  0  0  0  0  0  0  0  0  0
   -2.0707   -0.0765   -0.8644 H   0  0  0  0  0  0  0  0  0  0  0  0
    0.8240    1.3017   -2.9355 N   0  0  0  0  0  0  0  0  0  0  0  0
    0.6064    2.5170   -3.7489 C   0  0  2  0  0  0  0  0  0  0  0  0
    0.6436    3.8407   -2.9498 C   0  0  0  0  0  0  0  0  0  0  0  0
    1.3951    4.7374   -3.3069 O   0  0  0  0  0  0  0  0  0  0  0  0
   -0.6804    2.4150   -4.5808 C   0  0  0  0  0  0  0  0  0  0  0  0
    1.7370    0.8583   -3.0092 H   0  0  0  0  0  0  0  0  0  0  0  0
    1.4365    2.5717   -4.4613 H   0  0  0  0  0  0  0  0  0  0  0  0
   -1.5704    2.4781   -3.9482 H   0  0  0  0  0  0  0  0  0  0  0  0
   -0.7218    3.2340   -5.3058 H   0  0  0  0  0  0  0  0  0  0  0  0
   -0.7073    1.4683   -5.1285 H   0  0  0  0  0  0  0  0  0  0  0  0
   -0.1501    4.0289   -1.8357 N   0  0  0  0  0  0  0  0  0  0  0  0
   -0.1832    5.2570   -1.0534 C   0  0  0  0  0  0  0  0  0  0  0  0
   -0.7661    3.2529   -1.5826 H   0  0  0  0  0  0  0  0  0  0  0  0
   -0.8870    5.1560   -0.2216 H   0  0  0  0  0  0  0  0  0  0  0  0
    0.8078    5.4776   -0.6432 H   0  0  0  0  0  0  0  0  0  0  0  0
   -0.5028    6.0984   -1.6767 H   0  0  0  0  0  0  0  0  0  0  0  0
  1  2  2  0  0  0  0
  1  3  1  0  0  0  0
  1  7  1  0  0  0  0
  3  4  1  0  0  0  0
  3  5  1  0  0  0  0
  3  6  1  0  0  0  0
  7  8  1  0  0  0  0
  7 12  1  0  0  0  0
  8  9  1  0  0  0  0
  8 11  1  0  0  0  0
  8 13  1  0  0  0  0
  9 10  2  0  0  0  0
  9 17  1  0  0  0  0
 11 14  1  0  0  0  0
 11 15  1  0  0  0  0
 11 16  1  0  0  0  0
 17 18  1  0  0  0  0
 17 23  1  0  0  0  0
 18 19  1  0  0  0  0
 18 21  1  0  0  0  0
 18 24  1  0  0  0  0
 19 20  2  0  0  0  0
 19 28  1  0  0  0  0
 21 22  1  0  0  0  0
 21 25  1  0  0  0  0
 21 26  1  0  0  0  0
 22 27  1  0  0  0  0
 28 29  1  0  0  0  0
 28 33  1  0  0  0  0
 29 30  1  0  0  0  0
 29 32  1  0  0  0  0
 29 34  1  0  0  0  0
 30 31  2  0  0  0  0
 30 38  1  0  0  0  0
 32 35  1  0  0  0  0
 32 36  1  0  0  0  0
 32 37  1  0  0  0  0
 38 39  1  0  0  0  0
 38 40  1  0  0  0  0
 39 41  1  0  0  0  0
 39 42  1  0  0  0  0
 39 43  1  0  0  0  0
M  END
$$$$

  -OEChem-05262217303D

 43 42  0     1  0  0  0  0  0999 V2000
    3.5480   -1.5588    4.1241 C   0  0  0  0  0  0  0  0  0  0  0  0
    2.7437   -1.1984    4.9686 O   0  0  0  0  0  0  0  0  0  0  0  0
    4.6951   -2.4755    4.5053 C   0  0  0  0  0  0  0  0  0  0  0  0
    5.6481   -2.0091    4.2442 H   0  0  0  0  0  0  0  0  0  0  0  0
    4.6812   -2.6685    5.5817 H   0  0  0  0  0  0  0  0  0  0  0  0
    4.6052   -3.4267    3.9751 H   0  0  0  0  0  0  0  0  0  0  0  0
    3.4140   -1.1327    2.8197 N   0  0  0  0  0  0  0  0  0  0  0  0
    2.2878   -0.3338    2.3187 C   0  0  2  0  0  0  0  0  0  0  0  0
    2.0122   -0.6042    0.8245 C   0  0  0  0  0  0  0  0  0  0  0  0
    2.8159   -1.2379    0.1480 O   0  0  0  0  0  0  0  0  0  0  0  0
    2.6069    1.1480    2.5453 C   0  0  0  0  0  0  0  0  0  0  0  0
    4.0375   -1.5410    2.1245 H   0  0  0  0  0  0  0  0  0  0  0  0
    1.3781   -0.5957    2.8702 H   0  0  0  0  0  0  0  0  0  0  0  0
    3.5106    1.4334    1.9973 H   0  0  0  0  0  0  0  0  0  0  0  0
    1.7790    1.7772    2.2051 H   0  0  0  0  0  0  0  0  0  0  0  0
    2.7697    1.3424    3.6102 H   0  0  0  0  0  0  0  0  0  0  0  0
    0.8636   -0.1227    0.2256 N   0  0  0  0  0  0  0  0  0  0  0  0
    0.4327   -0.4563   -1.1421 C   0  0  2  0  0  0  0  0  0  0  0  0
   -0.0358    0.7790   -1.9327 C   0  0  0  0  0  0  0  0  0  0  0  0
   -0.9942    1.4310   -1.5278 O   0  0  0  0  0  0  0  0  0  0  0  0
   -0.6889   -1.5002   -1.0463 C   0  0  0  0  0  0  0  0  0  0  0  0
   -1.8531   -0.9410   -0.4241 O   0  0  0  0  0  0  0  0  0  0  0  0
    0.1652    0.2907    0.8410 H   0  0  0  0  0  0  0  0  0  0  0  0
    1.2597   -0.9055   -1.7004 H   0  0  0  0  0  0  0  0  0  0  0  0
   -0.3462   -2.3698   -0.4753 H   0  0  0  0  0  0  0  0  0  0  0  0
   -0.9492   -1.8447   -2.0527 H   0  0  0  0  0  0  0  0  0  0  0  0
   -2.0416   -0.0526   -0.7988 H   0  0  0  0  0  0  0  0  0  0  0  0
    0.6085    1.1378   -3.1059 N   0  0  0  0  0  0  0  0  0  0  0  0
    0.2888    2.2814   -3.9874 C   0  0  2  0  0  0  0  0  0  0  0  0
    0.5440    3.6732   -3.3632 C   0  0  0  0  0  0  0  0  0  0  0  0
    1.2431    4.4795   -3.9612 O   0  0  0  0  0  0  0  0  0  0  0  0
   -1.1415    2.1834   -4.5371 C   0  0  0  0  0  0  0  0  0  0  0  0
    1.4455    0.6053   -3.3311 H   0  0  0  0  0  0  0  0  0  0  0  0
    0.9611    2.2122   -4.8492 H   0  0  0  0  0  0  0  0  0  0  0  0
   -1.8841    2.3563   -3.7530 H   0  0  0  0  0  0  0  0  0  0  0  0
   -1.2929    2.9350   -5.3184 H   0  0  0  0  0  0  0  0  0  0  0  0
   -1.3162    1.1947   -4.9714 H   0  0  0  0  0  0  0  0  0  0  0  0
   -0.0006    4.0240   -2.1439 N   0  0  0  0  0  0  0  0  0  0  0  0
    0.1884    5.3195   -1.5061 C   0  0  0  0  0  0  0  0  0  0  0  0
   -0.5756    3.3144   -1.6838 H   0  0  0  0  0  0  0  0  0  0  0  0
   -0.3499    5.3528   -0.5540 H   0  0  0  0  0  0  0  0  0  0  0  0
    1.2506    5.4983   -1.3097 H   0  0  0  0  0  0  0  0  0  0  0  0
   -0.1928    6.1211   -2.1473 H   0  0  0  0  0  0  0  0  0  0  0  0
  1  2  2  0  0  0  0
  1  3  1  0  0  0  0
  1  7  1  0  0  0  0
  3  4  1  0  0  0  0
  3  5  1  0  0  0  0
  3  6  1  0  0  0  0
  7  8  1  0  0  0  0
  7 12  1  0  0  0  0
  8  9  1  0  0  0  0
  8 11  1  0  0  0  0
  8 13  1  0  0  0  0
  9 10  2  0  0  0  0
  9 17  1  0  0  0  0
 11 14  1  0  0  0  0
 11 15  1  0  0  0  0
 11 16  1  0  0  0  0
 17 18  1  0  0  0  0
 17 23  1  0  0  0  0
 18 19  1  0  0  0  0
 18 21  1  0  0  0  0
 18 24  1  0  0  0  0
 19 20  2  0  0  0  0
 19 28  1  0  0  0  0
 21 22  1  0  0  0  0
 21 25  1  0  0  0  0
 21 26  1  0  0  0  0
 22 27  1  0  0  0  0
 28 29  1  0  0  0  0
 28 33  1  0  0  0  0
 29 30  1  0  0  0  0
 29 32  1  0  0  0  0
 29 34  1  0  0  0  0
 30 31  2  0  0  0  0
 30 38  1  0  0  0  0
 32 35  1  0  0  0  0
 32 36  1  0  0  0  0
 32 37  1  0  0  0  0
 38 39  1  0  0  0  0
 38 40  1  0  0  0  0
 39 41  1  0  0  0  0
 39 42  1  0  0  0  0
 39 43  1  0  0  0  0
M  END
$$$$

  -OEChem-05262217303D

 43 42  0     1  0  0  0  0  0999 V2000
    3.6006   -1.4990    4.1249 C   0  0  0  0  0  0  0  0  0  0  0  0
    2.8285   -1.0866    4.9757 O   0  0  0  0  0  0  0  0  0  0  0  0
    4.7471   -2.4129    4.5149 C   0  0  0  0  0  0  0  0  0  0  0  0
    5.7004   -1.9486    4.2512 H   0  0  0  0  0  0  0  0  0  0  0  0
    4.7317   -2.5969    5.5929 H   0  0  0  0  0  0  0  0  0  0  0  0
    4.6583   -3.3688    3.9927 H   0  0  0  0  0  0  0  0  0  0  0  0
    3.4299   -1.1367    2.8056 N   0  0  0  0  0  0  0  0  0  0  0  0
    2.2980   -0.3484    2.3011 C   0  0  2  0  0  0  0  0  0  0  0  0
    1.9925   -0.6625    0.8214 C   0  0  0  0  0  0  0  0  0  0  0  0
    2.7720   -1.3324    0.1516 O   0  0  0  0  0  0  0  0  0  0  0  0
    2.6242    1.1392    2.4742 C   0  0  0  0  0  0  0  0  0  0  0  0
    4.0258   -1.5877    2.1124 H   0  0  0  0  0  0  0  0  0  0  0  0
    1.3984   -0.5897    2.8779 H   0  0  0  0  0  0  0  0  0  0  0  0
    3.5169    1.4046    1.8987 H   0  0  0  0  0  0  0  0  0  0  0  0
    1.7905    1.7593    2.1310 H   0  0  0  0  0  0  0  0  0  0  0  0
    2.8091    1.3677    3.5287 H   0  0  0  0  0  0  0  0  0  0  0  0
    0.8428   -0.1782    0.2279 N   0  0  0  0  0  0  0  0  0  0  0  0
    0.4081   -0.4880   -1.1440 C   0  0  2  0  0  0  0  0  0  0  0  0
   -0.0678    0.7548   -1.9147 C   0  0  0  0  0  0  0  0  0  0  0  0
   -0.8804    1.5102   -1.3895 O   0  0  0  0  0  0  0  0  0  0  0  0
   -0.7271   -1.5162   -1.0638 C   0  0  0  0  0  0  0  0  0  0  0  0
   -1.8840   -0.9466   -0.4346 O   0  0  0  0  0  0  0  0  0  0  0  0
    0.1732    0.2960    0.8315 H   0  0  0  0  0  0  0  0  0  0  0  0
    1.2335   -0.9305   -1.7102 H   0  0  0  0  0  0  0  0  0  0  0  0
   -0.3979   -2.4002   -0.5075 H   0  0  0  0  0  0  0  0  0  0  0  0
   -0.9914   -1.8406   -2.0756 H   0  0  0  0  0  0  0  0  0  0  0  0
   -2.0377   -0.0324   -0.7554 H   0  0  0  0  0  0  0  0  0  0  0  0
    0.3446    0.9668   -3.2203 N   0  0  0  0  0  0  0  0  0  0  0  0
   -0.0755    2.0603   -4.1217 C   0  0  2  0  0  0  0  0  0  0  0  0
    0.3864    3.4711   -3.6885 C   0  0  0  0  0  0  0  0  0  0  0  0
    1.0419    4.1520   -4.4651 O   0  0  0  0  0  0  0  0  0  0  0  0
   -1.5912    2.0285   -4.3662 C   0  0  0  0  0  0  0  0  0  0  0  0
    1.0627    0.3360   -3.5680 H   0  0  0  0  0  0  0  0  0  0  0  0
    0.4025    1.8727   -5.0890 H   0  0  0  0  0  0  0  0  0  0  0  0
   -2.1475    2.3131   -3.4685 H   0  0  0  0  0  0  0  0  0  0  0  0
   -1.8550    2.7295   -5.1645 H   0  0  0  0  0  0  0  0  0  0  0  0
   -1.9073    1.0256   -4.6689 H   0  0  0  0  0  0  0  0  0  0  0  0
    0.0795    3.9766   -2.4408 N   0  0  0  0  0  0  0  0  0  0  0  0
    0.5038    5.2863   -1.9649 C   0  0  0  0  0  0  0  0  0  0  0  0
   -0.4344    3.3540   -1.8130 H   0  0  0  0  0  0  0  0  0  0  0  0
    0.0872    5.4803   -0.9717 H   0  0  0  0  0  0  0  0  0  0  0  0
    1.5957    5.3342   -1.8992 H   0  0  0  0  0  0  0  0  0  0  0  0
    0.1566    6.0723   -2.6438 H   0  0  0  0  0  0  0  0  0  0  0  0
  1  2  2  0  0  0  0
  1  3  1  0  0  0  0
  1  7  1  0  0  0  0
  3  4  1  0  0  0  0
  3  5  1  0  0  0  0
  3  6  1  0  0  0  0
  7  8  1  0  0  0  0
  7 12  1  0  0  0  0
  8  9  1  0  0  0  0
  8 11  1  0  0  0  0
  8 13  1  0  0  0  0
  9 10  2  0  0  0  0
  9 17  1  0  0  0  0
 11 14  1  0  0  0  0
 11 15  1  0  0  0  0
 11 16  1  0  0  0  0
 17 18  1  0  0  0  0
 17 23  1  0  0  0  0
 18 19  1  0  0  0  0
 18 21  1  0  0  0  0
 18 24  1  0  0  0  0
 19 20  2  0  0  0  0
 19 28  1  0  0  0  0
 21 22  1  0  0  0  0
 21 25  1  0  0  0  0
 21 26  1  0  0  0  0
 22 27  1  0  0  0  0
 28 29  1  0  0  0  0
 28 33  1  0  0  0  0
 29 30  1  0  0  0  0
 29 32  1  0  0  0  0
 29 34  1  0  0  0  0
 30 31  2  0  0  0  0
 30 38  1  0  0  0  0
 32 35  1  0  0  0  0
 32 36  1  0  0  0  0
 32 37  1  0  0  0  0
 38 39  1  0  0  0  0
 38 40  1  0  0  0  0
 39 41  1  0  0  0  0
 39 42  1  0  0  0  0
 39 43  1  0  0  0  0
M  END
$$$$

  -OEChem-05262217303D

 43 42  0     1  0  0  0  0  0999 V2000
    3.6255   -1.4574    4.1157 C   0  0  0  0  0  0  0  0  0  0  0  0
    2.8587   -1.0364    4.9672 O   0  0  0  0  0  0  0  0  0  0  0  0
    4.7821   -2.3569    4.5099 C   0  0  0  0  0  0  0  0  0  0  0  0
    5.7298   -1.8858    4.2377 H   0  0  0  0  0  0  0  0  0  0  0  0
    4.7726   -2.5306    5.5897 H   0  0  0  0  0  0  0  0  0  0  0  0
    4.7002   -3.3187    3.9977 H   0  0  0  0  0  0  0  0  0  0  0  0
    3.4419   -1.1139    2.7929 N   0  0  0  0  0  0  0  0  0  0  0  0
    2.3011   -0.3388    2.2871 C   0  0  2  0  0  0  0  0  0  0  0  0
    1.9757   -0.6859    0.8190 C   0  0  0  0  0  0  0  0  0  0  0  0
    2.7456   -1.3722    0.1545 O   0  0  0  0  0  0  0  0  0  0  0  0
    2.6264    1.1526    2.4243 C   0  0  0  0  0  0  0  0  0  0  0  0
    4.0316   -1.5744    2.1007 H   0  0  0  0  0  0  0  0  0  0  0  0
    1.4095   -0.5696    2.8804 H   0  0  0  0  0  0  0  0  0  0  0  0
    3.5135    1.4073    1.8357 H   0  0  0  0  0  0  0  0  0  0  0  0
    1.7887    1.7636    2.0749 H   0  0  0  0  0  0  0  0  0  0  0  0
    2.8199    1.4041    3.4719 H   0  0  0  0  0  0  0  0  0  0  0  0
    0.8162   -0.2183    0.2315 N   0  0  0  0  0  0  0  0  0  0  0  0
    0.3850   -0.5171   -1.1446 C   0  0  2  0  0  0  0  0  0  0  0  0
   -0.1192    0.7216   -1.9026 C   0  0  0  0  0  0  0  0  0  0  0  0
   -0.7604    1.5718   -1.2939 O   0  0  0  0  0  0  0  0  0  0  0  0
   -0.7420   -1.5542   -1.0753 C   0  0  0  0  0  0  0  0  0  0  0  0
   -1.9056   -1.0016   -0.4415 O   0  0  0  0  0  0  0  0  0  0  0  0
    0.1728    0.3096    0.8187 H   0  0  0  0  0  0  0  0  0  0  0  0
    1.2171   -0.9387   -1.7161 H   0  0  0  0  0  0  0  0  0  0  0  0
   -0.4058   -2.4393   -0.5247 H   0  0  0  0  0  0  0  0  0  0  0  0
   -1.0031   -1.8747   -2.0893 H   0  0  0  0  0  0  0  0  0  0  0  0
   -2.0834   -0.0920   -0.7559 H   0  0  0  0  0  0  0  0  0  0  0  0
    0.0229    0.8062   -3.2785 N   0  0  0  0  0  0  0  0  0  0  0  0
   -0.4975    1.8682   -4.1666 C   0  0  2  0  0  0  0  0  0  0  0  0
    0.1382    3.2626   -3.9583 C   0  0  0  0  0  0  0  0  0  0  0  0
    0.5954    3.8621   -4.9216 O   0  0  0  0  0  0  0  0  0  0  0  0
   -2.0288    1.9515   -4.0998 C   0  0  0  0  0  0  0  0  0  0  0  0
    0.5924    0.0839   -3.7123 H   0  0  0  0  0  0  0  0  0  0  0  0
   -0.2434    1.5741   -5.1904 H   0  0  0  0  0  0  0  0  0  0  0  0
   -2.3654    2.3504   -3.1386 H   0  0  0  0  0  0  0  0  0  0  0  0
   -2.4005    2.6123   -4.8894 H   0  0  0  0  0  0  0  0  0  0  0  0
   -2.4709    0.9608   -4.2419 H   0  0  0  0  0  0  0  0  0  0  0  0
    0.1976    3.8462   -2.7086 N   0  0  0  0  0  0  0  0  0  0  0  0
    0.7593    5.1643   -2.4486 C   0  0  0  0  0  0  0  0  0  0  0  0
   -0.2088    3.3104   -1.9381 H   0  0  0  0  0  0  0  0  0  0  0  0
    0.7162    5.3876   -1.3783 H   0  0  0  0  0  0  0  0  0  0  0  0
    1.8057    5.2054   -2.7683 H   0  0  0  0  0  0  0  0  0  0  0  0
    0.1951    5.9330   -2.9863 H   0  0  0  0  0  0  0  0  0  0  0  0
  1  2  2  0  0  0  0
  1  3  1  0  0  0  0
  1  7  1  0  0  0  0
  3  4  1  0  0  0  0
  3  5  1  0  0  0  0
  3  6  1  0  0  0  0
  7  8  1  0  0  0  0
  7 12  1  0  0  0  0
  8  9  1  0  0  0  0
  8 11  1  0  0  0  0
  8 13  1  0  0  0  0
  9 10  2  0  0  0  0
  9 17  1  0  0  0  0
 11 14  1  0  0  0  0
 11 15  1  0  0  0  0
 11 16  1  0  0  0  0
 17 18  1  0  0  0  0
 17 23  1  0  0  0  0
 18 19  1  0  0  0  0
 18 21  1  0  0  0  0
 18 24  1  0  0  0  0
 19 20  2  0  0  0  0
 19 28  1  0  0  0  0
 21 22  1  0  0  0  0
 21 25  1  0  0  0  0
 21 26  1  0  0  0  0
 22 27  1  0  0  0  0
 28 29  1  0  0  0  0
 28 33  1  0  0  0  0
 29 30  1  0  0  0  0
 29 32  1  0  0  0  0
 29 34  1  0  0  0  0
 30 31  2  0  0  0  0
 30 38  1  0  0  0  0
 32 35  1  0  0  0  0
 32 36  1  0  0  0  0
 32 37  1  0  0  0  0
 38 39  1  0  0  0  0
 38 40  1  0  0  0  0
 39 41  1  0  0  0  0
 39 42  1  0  0  0  0
 39 43  1  0  0  0  0
M  END
$$$$

  -OEChem-05262217303D

 43 42  0     1  0  0  0  0  0999 V2000
    3.6729   -1.4060    4.0959 C   0  0  0  0  0  0  0  0  0  0  0  0
    2.9313   -0.9551    4.9542 O   0  0  0  0  0  0  0  0  0  0  0  0
    4.8118   -2.3307    4.4830 C   0  0  0  0  0  0  0  0  0  0  0  0
    5.7687   -1.8740    4.2193 H   0  0  0  0  0  0  0  0  0  0  0  0
    4.7957   -2.5177    5.5604 H   0  0  0  0  0  0  0  0  0  0  0  0
    4.7140   -3.2845    3.9591 H   0  0  0  0  0  0  0  0  0  0  0  0
    3.4721   -1.0800    2.7712 N   0  0  0  0  0  0  0  0  0  0  0  0
    2.3248   -0.3104    2.2713 C   0  0  2  0  0  0  0  0  0  0  0  0
    1.9652   -0.6969    0.8209 C   0  0  0  0  0  0  0  0  0  0  0  0
    2.7186   -1.4056    0.1609 O   0  0  0  0  0  0  0  0  0  0  0  0
    2.6635    1.1816    2.3615 C   0  0  0  0  0  0  0  0  0  0  0  0
    4.0357   -1.5691    2.0768 H   0  0  0  0  0  0  0  0  0  0  0  0
    1.4455   -0.5184    2.8909 H   0  0  0  0  0  0  0  0  0  0  0  0
    3.5366    1.4139    1.7433 H   0  0  0  0  0  0  0  0  0  0  0  0
    1.8212    1.7906    2.0191 H   0  0  0  0  0  0  0  0  0  0  0  0
    2.8866    1.4575    3.3973 H   0  0  0  0  0  0  0  0  0  0  0  0
    0.7908   -0.2511    0.2466 N   0  0  0  0  0  0  0  0  0  0  0  0
    0.3607   -0.5384   -1.1327 C   0  0  2  0  0  0  0  0  0  0  0  0
   -0.1823    0.6962   -1.8722 C   0  0  0  0  0  0  0  0  0  0  0  0
   -0.6132    1.6449   -1.2263 O   0  0  0  0  0  0  0  0  0  0  0  0
   -0.7291   -1.6157   -1.0726 C   0  0  0  0  0  0  0  0  0  0  0  0
   -1.9090   -1.1211   -0.4207 O   0  0  0  0  0  0  0  0  0  0  0  0
    0.1834    0.3386    0.8129 H   0  0  0  0  0  0  0  0  0  0  0  0
    1.2045   -0.9201   -1.7162 H   0  0  0  0  0  0  0  0  0  0  0  0
   -0.3539   -2.4946   -0.5374 H   0  0  0  0  0  0  0  0  0  0  0  0
   -0.9857   -1.9339   -2.0882 H   0  0  0  0  0  0  0  0  0  0  0  0
   -2.1785   -0.2507   -0.7697 H   0  0  0  0  0  0  0  0  0  0  0  0
   -0.3318    0.6714   -3.2502 N   0  0  0  0  0  0  0  0  0  0  0  0
   -0.9460    1.7134   -4.1008 C   0  0  2  0  0  0  0  0  0  0  0  0
   -0.1802    3.0562   -4.1388 C   0  0  0  0  0  0  0  0  0  0  0  0
    0.2059    3.4940   -5.2138 O   0  0  0  0  0  0  0  0  0  0  0  0
   -2.4215    1.9340   -3.7373 C   0  0  0  0  0  0  0  0  0  0  0  0
    0.0716   -0.1307   -3.7280 H   0  0  0  0  0  0  0  0  0  0  0  0
   -0.9292    1.3316   -5.1272 H   0  0  0  0  0  0  0  0  0  0  0  0
   -2.5256    2.4075   -2.7570 H   0  0  0  0  0  0  0  0  0  0  0  0
   -2.8948    2.5850   -4.4793 H   0  0  0  0  0  0  0  0  0  0  0  0
   -2.9570    0.9802   -3.7236 H   0  0  0  0  0  0  0  0  0  0  0  0
    0.0814    3.7671   -2.9848 N   0  0  0  0  0  0  0  0  0  0  0  0
    0.8399    5.0095   -2.9491 C   0  0  0  0  0  0  0  0  0  0  0  0
   -0.1973    3.3225   -2.1067 H   0  0  0  0  0  0  0  0  0  0  0  0
    0.8293    5.4280   -1.9384 H   0  0  0  0  0  0  0  0  0  0  0  0
    1.8794    4.8304   -3.2417 H   0  0  0  0  0  0  0  0  0  0  0  0
    0.4028    5.7472   -3.6303 H   0  0  0  0  0  0  0  0  0  0  0  0
  1  2  2  0  0  0  0
  1  3  1  0  0  0  0
  1  7  1  0  0  0  0
  3  4  1  0  0  0  0
  3  5  1  0  0  0  0
  3  6  1  0  0  0  0
  7  8  1  0  0  0  0
  7 12  1  0  0  0  0
  8  9  1  0  0  0  0
  8 11  1  0  0  0  0
  8 13  1  0  0  0  0
  9 10  2  0  0  0  0
  9 17  1  0  0  0  0
 11 14  1  0  0  0  0
 11 15  1  0  0  0  0
 11 16  1  0  0  0  0
 17 18  1  0  0  0  0
 17 23  1  0  0  0  0
 18 19  1  0  0  0  0
 18 21  1  0  0  0  0
 18 24  1  0  0  0  0
 19 20  2  0  0  0  0
 19 28  1  0  0  0  0
 21 22  1  0  0  0  0
 21 25  1  0  0  0  0
 21 26  1  0  0  0  0
 22 27  1  0  0  0  0
 28 29  1  0  0  0  0
 28 33  1  0  0  0  0
 29 30  1  0  0  0  0
 29 32  1  0  0  0  0
 29 34  1  0  0  0  0
 30 31  2  0  0  0  0
 30 38  1  0  0  0  0
 32 35  1  0  0  0  0
 32 36  1  0  0  0  0
 32 37  1  0  0  0  0
 38 39  1  0  0  0  0
 38 40  1  0  0  0  0
 39 41  1  0  0  0  0
 39 42  1  0  0  0  0
 39 43  1  0  0  0  0
M  END
$$$$

  -OEChem-05262217303D

 43 42  0     1  0  0  0  0  0999 V2000
    3.7540   -1.2587    4.0253 C   0  0  0  0  0  0  0  0  0  0  0  0
    3.0276   -0.7804    4.8819 O   0  0  0  0  0  0  0  0  0  0  0  0
    4.9156   -2.1499    4.4227 C   0  0  0  0  0  0  0  0  0  0  0  0
    5.8605   -1.6727    4.1520 H   0  0  0  0  0  0  0  0  0  0  0  0
    4.9042   -2.3239    5.5023 H   0  0  0  0  0  0  0  0  0  0  0  0
    4.8417   -3.1125    3.9110 H   0  0  0  0  0  0  0  0  0  0  0  0
    3.5175   -0.9927    2.6932 N   0  0  0  0  0  0  0  0  0  0  0  0
    2.3494   -0.2577    2.1896 C   0  0  2  0  0  0  0  0  0  0  0  0
    1.9305   -0.7413    0.7857 C   0  0  0  0  0  0  0  0  0  0  0  0
    2.6691   -1.4738    0.1349 O   0  0  0  0  0  0  0  0  0  0  0  0
    2.6911    1.2360    2.1612 C   0  0  0  0  0  0  0  0  0  0  0  0
    4.0682   -1.5074    2.0070 H   0  0  0  0  0  0  0  0  0  0  0  0
    1.4957   -0.4203    2.8567 H   0  0  0  0  0  0  0  0  0  0  0  0
    3.5362    1.4223    1.4906 H   0  0  0  0  0  0  0  0  0  0  0  0
    1.8346    1.8219    1.8134 H   0  0  0  0  0  0  0  0  0  0  0  0
    2.9592    1.5825    3.1644 H   0  0  0  0  0  0  0  0  0  0  0  0
    0.7235   -0.3452    0.2439 N   0  0  0  0  0  0  0  0  0  0  0  0
    0.2937   -0.6118   -1.1403 C   0  0  2  0  0  0  0  0  0  0  0  0
    0.0164    0.6726   -1.9447 C   0  0  0  0  0  0  0  0  0  0  0  0
    0.0743    1.7656   -1.3932 O   0  0  0  0  0  0  0  0  0  0  0  0
   -0.9698   -1.4804   -1.0758 C   0  0  0  0  0  0  0  0  0  0  0  0
   -2.0678   -0.7662   -0.4882 O   0  0  0  0  0  0  0  0  0  0  0  0
    0.1724    0.3219    0.7803 H   0  0  0  0  0  0  0  0  0  0  0  0
    1.0679   -1.1664   -1.6795 H   0  0  0  0  0  0  0  0  0  0  0  0
   -0.7638   -2.3792   -0.4847 H   0  0  0  0  0  0  0  0  0  0  0  0
   -1.2476   -1.8082   -2.0826 H   0  0  0  0  0  0  0  0  0  0  0  0
   -2.2897    0.0397   -0.9880 H   0  0  0  0  0  0  0  0  0  0  0  0
   -0.3954    0.5909   -3.2668 N   0  0  0  0  0  0  0  0  0  0  0  0
   -0.7474    1.7133   -4.1635 C   0  0  2  0  0  0  0  0  0  0  0  0
    0.4285    2.6528   -4.5191 C   0  0  0  0  0  0  0  0  0  0  0  0
    0.6864    2.8691   -5.6952 O   0  0  0  0  0  0  0  0  0  0  0  0
   -1.9405    2.5126   -3.6203 C   0  0  0  0  0  0  0  0  0  0  0  0
   -0.3697   -0.3363   -3.6838 H   0  0  0  0  0  0  0  0  0  0  0  0
   -1.0722    1.2702   -5.1110 H   0  0  0  0  0  0  0  0  0  0  0  0
   -1.6695    3.0755   -2.7225 H   0  0  0  0  0  0  0  0  0  0  0  0
   -2.2848    3.2263   -4.3754 H   0  0  0  0  0  0  0  0  0  0  0  0
   -2.7694    1.8419   -3.3759 H   0  0  0  0  0  0  0  0  0  0  0  0
    1.1935    3.2500   -3.5374 N   0  0  0  0  0  0  0  0  0  0  0  0
    2.3142    4.1407   -3.8036 C   0  0  0  0  0  0  0  0  0  0  0  0
    0.9497    3.0216   -2.5704 H   0  0  0  0  0  0  0  0  0  0  0  0
    2.7658    4.4696   -2.8626 H   0  0  0  0  0  0  0  0  0  0  0  0
    3.0801    3.6273   -4.3942 H   0  0  0  0  0  0  0  0  0  0  0  0
    1.9766    5.0247   -4.3546 H   0  0  0  0  0  0  0  0  0  0  0  0
  1  2  2  0  0  0  0
  1  3  1  0  0  0  0
  1  7  1  0  0  0  0
  3  4  1  0  0  0  0
  3  5  1  0  0  0  0
  3  6  1  0  0  0  0
  7  8  1  0  0  0  0
  7 12  1  0  0  0  0
  8  9  1  0  0  0  0
  8 11  1  0  0  0  0
  8 13  1  0  0  0  0
  9 10  2  0  0  0  0
  9 17  1  0  0  0  0
 11 14  1  0  0  0  0
 11 15  1  0  0  0  0
 11 16  1  0  0  0  0
 17 18  1  0  0  0  0
 17 23  1  0  0  0  0
 18 19  1  0  0  0  0
 18 21  1  0  0  0  0
 18 24  1  0  0  0  0
 19 20  2  0  0  0  0
 19 28  1  0  0  0  0
 21 22  1  0  0  0  0
 21 25  1  0  0  0  0
 21 26  1  0  0  0  0
 22 27  1  0  0  0  0
 28 29  1  0  0  0  0
 28 33  1  0  0  0  0
 29 30  1  0  0  0  0
 29 32  1  0  0  0  0
 29 34  1  0  0  0  0
 30 31  2  0  0  0  0
 30 38  1  0  0  0  0
 32 35  1  0  0  0  0
 32 36  1  0  0  0  0
 32 37  1  0  0  0  0
 38 39  1  0  0  0  0
 38 40  1  0  0  0  0
 39 41  1  0  0  0  0
 39 42  1  0  0  0  0
 39 43  1  0  0  0  0
M  END
$$$$

  -OEChem-05262217303D

 43 42  0     1  0  0  0  0  0999 V2000
    3.8054   -1.3191    3.9810 C   0  0  0  0  0  0  0  0  0  0  0  0
    3.0899   -0.8686    4.8614 O   0  0  0  0  0  0  0  0  0  0  0  0
    4.9783   -2.2134    4.3350 C   0  0  0  0  0  0  0  0  0  0  0  0
    5.9101   -1.7587    3.9901 H   0  0  0  0  0  0  0  0  0  0  0  0
    5.0333   -2.3522    5.4184 H   0  0  0  0  0  0  0  0  0  0  0  0
    4.8591   -3.1905    3.8604 H   0  0  0  0  0  0  0  0  0  0  0  0
    3.5437   -1.0257    2.6598 N   0  0  0  0  0  0  0  0  0  0  0  0
    2.3588   -0.2954    2.1911 C   0  0  2  0  0  0  0  0  0  0  0  0
    1.9267   -0.7559    0.7832 C   0  0  0  0  0  0  0  0  0  0  0  0
    2.6625   -1.4737    0.1128 O   0  0  0  0  0  0  0  0  0  0  0  0
    2.6820    1.2023    2.1899 C   0  0  0  0  0  0  0  0  0  0  0  0
    4.0864   -1.5216    1.9536 H   0  0  0  0  0  0  0  0  0  0  0  0
    1.5179   -0.4832    2.8678 H   0  0  0  0  0  0  0  0  0  0  0  0
    3.5178    1.4120    1.5149 H   0  0  0  0  0  0  0  0  0  0  0  0
    1.8150    1.7838    1.8617 H   0  0  0  0  0  0  0  0  0  0  0  0
    2.9560    1.5325    3.1971 H   0  0  0  0  0  0  0  0  0  0  0  0
    0.7088   -0.3631    0.2634 N   0  0  0  0  0  0  0  0  0  0  0  0
    0.2767   -0.5980   -1.1263 C   0  0  2  0  0  0  0  0  0  0  0  0
   -0.0249    0.7098   -1.8871 C   0  0  0  0  0  0  0  0  0  0  0  0
    0.2782    1.7901   -1.3948 O   0  0  0  0  0  0  0  0  0  0  0  0
   -0.9637   -1.5022   -1.0773 C   0  0  0  0  0  0  0  0  0  0  0  0
   -2.0755   -0.8354   -0.4608 O   0  0  0  0  0  0  0  0  0  0  0  0
    0.1642    0.2957    0.8154 H   0  0  0  0  0  0  0  0  0  0  0  0
    1.0589   -1.1177   -1.6887 H   0  0  0  0  0  0  0  0  0  0  0  0
   -0.7271   -2.4072   -0.5074 H   0  0  0  0  0  0  0  0  0  0  0  0
   -1.2399   -1.8182   -2.0882 H   0  0  0  0  0  0  0  0  0  0  0  0
   -2.3586   -0.0527   -0.9659 H   0  0  0  0  0  0  0  0  0  0  0  0
   -0.7280    0.6793   -3.0833 N   0  0  0  0  0  0  0  0  0  0  0  0
   -1.1759    1.8364   -3.8880 C   0  0  2  0  0  0  0  0  0  0  0  0
   -0.0382    2.6628   -4.5318 C   0  0  0  0  0  0  0  0  0  0  0  0
   -0.0658    2.8785   -5.7357 O   0  0  0  0  0  0  0  0  0  0  0  0
   -2.1247    2.7410   -3.0883 C   0  0  0  0  0  0  0  0  0  0  0  0
   -0.8852   -0.2429   -3.4819 H   0  0  0  0  0  0  0  0  0  0  0  0
   -1.7582    1.4312   -4.7224 H   0  0  0  0  0  0  0  0  0  0  0  0
   -1.5932    3.2779   -2.2972 H   0  0  0  0  0  0  0  0  0  0  0  0
   -2.5805    3.4824   -3.7521 H   0  0  0  0  0  0  0  0  0  0  0  0
   -2.9233    2.1483   -2.6330 H   0  0  0  0  0  0  0  0  0  0  0  0
    1.0085    3.1562   -3.7793 N   0  0  0  0  0  0  0  0  0  0  0  0
    2.1012    3.9513   -4.3225 C   0  0  0  0  0  0  0  0  0  0  0  0
    0.9887    2.9437   -2.7785 H   0  0  0  0  0  0  0  0  0  0  0  0
    1.7232    4.8999   -4.7177 H   0  0  0  0  0  0  0  0  0  0  0  0
    2.8345    4.1689   -3.5399 H   0  0  0  0  0  0  0  0  0  0  0  0
    2.6068    3.4095   -5.1287 H   0  0  0  0  0  0  0  0  0  0  0  0
  1  2  2  0  0  0  0
  1  3  1  0  0  0  0
  1  7  1  0  0  0  0
  3  4  1  0  0  0  0
  3  5  1  0  0  0  0
  3  6  1  0  0  0  0
  7  8  1  0  0  0  0
  7 12  1  0  0  0  0
  8  9  1  0  0  0  0
  8 11  1  0  0  0  0
  8 13  1  0  0  0  0
  9 10  2  0  0  0  0
  9 17  1  0  0  0  0
 11 14  1  0  0  0  0
 11 15  1  0  0  0  0
 11 16  1  0  0  0  0
 17 18  1  0  0  0  0
 17 23  1  0  0  0  0
 18 19  1  0  0  0  0
 18 21  1  0  0  0  0
 18 24  1  0  0  0  0
 19 20  2  0  0  0  0
 19 28  1  0  0  0  0
 21 22  1  0  0  0  0
 21 25  1  0  0  0  0
 21 26  1  0  0  0  0
 22 27  1  0  0  0  0
 28 29  1  0  0  0  0
 28 33  1  0  0  0  0
 29 30  1  0  0  0  0
 29 32  1  0  0  0  0
 29 34  1  0  0  0  0
 30 31  2  0  0  0  0
 30 38  1  0  0  0  0
 32 35  1  0  0  0  0
 32 36  1  0  0  0  0
 32 37  1  0  0  0  0
 38 39  1  0  0  0  0
 38 40  1  0  0  0  0
 39 41  1  0  0  0  0
 39 42  1  0  0  0  0
 39 43  1  0  0  0  0
M  END
$$$$

  -OEChem-05262217303D

 43 42  0     1  0  0  0  0  0999 V2000
    3.8298   -1.3006    3.9608 C   0  0  0  0  0  0  0  0  0  0  0  0
    3.1018   -0.8960    4.8534 O   0  0  0  0  0  0  0  0  0  0  0  0
    5.0272   -2.1723    4.2904 C   0  0  0  0  0  0  0  0  0  0  0  0
    5.9501   -1.6595    4.0088 H   0  0  0  0  0  0  0  0  0  0  0  0
    5.0549   -2.3852    5.3628 H   0  0  0  0  0  0  0  0  0  0  0  0
    4.9627   -3.1176    3.7461 H   0  0  0  0  0  0  0  0  0  0  0  0
    3.5602   -0.9735    2.6489 N   0  0  0  0  0  0  0  0  0  0  0  0
    2.3490   -0.2728    2.2017 C   0  0  2  0  0  0  0  0  0  0  0  0
    1.9161   -0.7287    0.7924 C   0  0  0  0  0  0  0  0  0  0  0  0
    2.6656   -1.4176    0.1071 O   0  0  0  0  0  0  0  0  0  0  0  0
    2.6258    1.2343    2.2170 C   0  0  0  0  0  0  0  0  0  0  0  0
    4.1152   -1.4340    1.9283 H   0  0  0  0  0  0  0  0  0  0  0  0
    1.5209   -0.4943    2.8836 H   0  0  0  0  0  0  0  0  0  0  0  0
    3.4459    1.4797    1.5347 H   0  0  0  0  0  0  0  0  0  0  0  0
    1.7375    1.7935    1.9077 H   0  0  0  0  0  0  0  0  0  0  0  0
    2.9019    1.5585    3.2254 H   0  0  0  0  0  0  0  0  0  0  0  0
    0.6810   -0.3663    0.2905 N   0  0  0  0  0  0  0  0  0  0  0  0
    0.2515   -0.5808   -1.1038 C   0  0  2  0  0  0  0  0  0  0  0  0
   -0.1005    0.7384   -1.8248 C   0  0  0  0  0  0  0  0  0  0  0  0
    0.3949    1.7898   -1.4388 O   0  0  0  0  0  0  0  0  0  0  0  0
   -0.9405   -1.5487   -1.0712 C   0  0  0  0  0  0  0  0  0  0  0  0
   -2.0799   -0.9577   -0.4265 O   0  0  0  0  0  0  0  0  0  0  0  0
    0.1177    0.2556    0.8651 H   0  0  0  0  0  0  0  0  0  0  0  0
    1.0526   -1.0485   -1.6854 H   0  0  0  0  0  0  0  0  0  0  0  0
   -0.6522   -2.4569   -0.5309 H   0  0  0  0  0  0  0  0  0  0  0  0
   -1.2076   -1.8491   -2.0892 H   0  0  0  0  0  0  0  0  0  0  0  0
   -2.3963   -0.1643   -0.8937 H   0  0  0  0  0  0  0  0  0  0  0  0
   -1.0537    0.7682   -2.8345 N   0  0  0  0  0  0  0  0  0  0  0  0
   -1.5196    1.9547   -3.5846 C   0  0  2  0  0  0  0  0  0  0  0  0
   -0.4403    2.6201   -4.4702 C   0  0  0  0  0  0  0  0  0  0  0  0
   -0.6257    2.7017   -5.6766 O   0  0  0  0  0  0  0  0  0  0  0  0
   -2.1831    2.9829   -2.6563 C   0  0  0  0  0  0  0  0  0  0  0  0
   -1.3534   -0.1383   -3.1847 H   0  0  0  0  0  0  0  0  0  0  0  0
   -2.2982    1.6076   -4.2721 H   0  0  0  0  0  0  0  0  0  0  0  0
   -1.4512    3.4585   -1.9972 H   0  0  0  0  0  0  0  0  0  0  0  0
   -2.6627    3.7675   -3.2505 H   0  0  0  0  0  0  0  0  0  0  0  0
   -2.9478    2.5020   -2.0392 H   0  0  0  0  0  0  0  0  0  0  0  0
    0.7375    3.0972   -3.9308 N   0  0  0  0  0  0  0  0  0  0  0  0
    1.8238    3.6630   -4.7183 C   0  0  0  0  0  0  0  0  0  0  0  0
    0.8788    2.9258   -2.9316 H   0  0  0  0  0  0  0  0  0  0  0  0
    2.6317    3.9967   -4.0601 H   0  0  0  0  0  0  0  0  0  0  0  0
    2.2254    2.9154   -5.4101 H   0  0  0  0  0  0  0  0  0  0  0  0
    1.4706    4.5243   -5.2948 H   0  0  0  0  0  0  0  0  0  0  0  0
  1  2  2  0  0  0  0
  1  3  1  0  0  0  0
  1  7  1  0  0  0  0
  3  4  1  0  0  0  0
  3  5  1  0  0  0  0
  3  6  1  0  0  0  0
  7  8  1  0  0  0  0
  7 12  1  0  0  0  0
  8  9  1  0  0  0  0
  8 11  1  0  0  0  0
  8 13  1  0  0  0  0
  9 10  2  0  0  0  0
  9 17  1  0  0  0  0
 11 14  1  0  0  0  0
 11 15  1  0  0  0  0
 11 16  1  0  0  0  0
 17 18  1  0  0  0  0
 17 23  1  0  0  0  0
 18 19  1  0  0  0  0
 18 21  1  0  0  0  0
 18 24  1  0  0  0  0
 19 20  2  0  0  0  0
 19 28  1  0  0  0  0
 21 22  1  0  0  0  0
 21 25  1  0  0  0  0
 21 26  1  0  0  0  0
 22 27  1  0  0  0  0
 28 29  1  0  0  0  0
 28 33  1  0  0  0  0
 29 30  1  0  0  0  0
 29 32  1  0  0  0  0
 29 34  1  0  0  0  0
 30 31  2  0  0  0  0
 30 38  1  0  0  0  0
 32 35  1  0  0  0  0
 32 36  1  0  0  0  0
 32 37  1  0  0  0  0
 38 39  1  0  0  0  0
 38 40  1  0  0  0  0
 39 41  1  0  0  0  0
 39 42  1  0  0  0  0
 39 43  1  0  0  0  0
M  END
$$$$

  -OEChem-05262217303D

 43 42  0     1  0  0  0  0  0999 V2000
    3.8369   -1.3862    3.9602 C   0  0  0  0  0  0  0  0  0  0  0  0
    3.0830   -1.0587    4.8629 O   0  0  0  0  0  0  0  0  0  0  0  0
    5.0644   -2.2255    4.2602 C   0  0  0  0  0  0  0  0  0  0  0  0
    5.9691   -1.6425    4.0714 H   0  0  0  0  0  0  0  0  0  0  0  0
    5.0586   -2.5395    5.3078 H   0  0  0  0  0  0  0  0  0  0  0  0
    5.0739   -3.1157    3.6267 H   0  0  0  0  0  0  0  0  0  0  0  0
    3.5720   -0.9968    2.6645 N   0  0  0  0  0  0  0  0  0  0  0  0
    2.3480   -0.3049    2.2399 C   0  0  2  0  0  0  0  0  0  0  0  0
    1.9389   -0.6956    0.8040 C   0  0  0  0  0  0  0  0  0  0  0  0
    2.7085   -1.3338    0.0926 O   0  0  0  0  0  0  0  0  0  0  0  0
    2.5895    1.2047    2.3377 C   0  0  0  0  0  0  0  0  0  0  0  0
    4.1533   -1.3943    1.9275 H   0  0  0  0  0  0  0  0  0  0  0  0
    1.5187   -0.5807    2.9005 H   0  0  0  0  0  0  0  0  0  0  0  0
    3.4061    1.5057    1.6736 H   0  0  0  0  0  0  0  0  0  0  0  0
    1.6893    1.7588    2.0551 H   0  0  0  0  0  0  0  0  0  0  0  0
    2.8548    1.4795    3.3635 H   0  0  0  0  0  0  0  0  0  0  0  0
    0.6975   -0.3381    0.3132 N   0  0  0  0  0  0  0  0  0  0  0  0
    0.2643   -0.5266   -1.0838 C   0  0  2  0  0  0  0  0  0  0  0  0
   -0.1092    0.7992   -1.7819 C   0  0  0  0  0  0  0  0  0  0  0  0
    0.5545    1.8014   -1.5534 O   0  0  0  0  0  0  0  0  0  0  0  0
   -0.9012   -1.5270   -1.0577 C   0  0  0  0  0  0  0  0  0  0  0  0
   -2.0489   -0.9818   -0.3845 O   0  0  0  0  0  0  0  0  0  0  0  0
    0.0994    0.2070    0.9285 H   0  0  0  0  0  0  0  0  0  0  0  0
    1.0710   -0.9662   -1.6793 H   0  0  0  0  0  0  0  0  0  0  0  0
   -0.5831   -2.4418   -0.5459 H   0  0  0  0  0  0  0  0  0  0  0  0
   -1.1729   -1.8062   -2.0811 H   0  0  0  0  0  0  0  0  0  0  0  0
   -2.3423   -0.1383   -0.7726 H   0  0  0  0  0  0  0  0  0  0  0  0
   -1.2576    0.9119   -2.5570 N   0  0  0  0  0  0  0  0  0  0  0  0
   -1.7735    2.1346   -3.2113 C   0  0  2  0  0  0  0  0  0  0  0  0
   -0.8789    2.6883   -4.3452 C   0  0  0  0  0  0  0  0  0  0  0  0
   -1.3558    2.8399   -5.4614 O   0  0  0  0  0  0  0  0  0  0  0  0
   -2.0988    3.2286   -2.1835 C   0  0  0  0  0  0  0  0  0  0  0  0
   -1.6886    0.0325   -2.8333 H   0  0  0  0  0  0  0  0  0  0  0  0
   -2.7222    1.8613   -3.6859 H   0  0  0  0  0  0  0  0  0  0  0  0
   -1.1896    3.6454   -1.7411 H   0  0  0  0  0  0  0  0  0  0  0  0
   -2.6431    4.0450   -2.6685 H   0  0  0  0  0  0  0  0  0  0  0  0
   -2.7239    2.8256   -1.3814 H   0  0  0  0  0  0  0  0  0  0  0  0
    0.4505    2.9914   -4.1304 N   0  0  0  0  0  0  0  0  0  0  0  0
    1.3538    3.4794   -5.1634 C   0  0  0  0  0  0  0  0  0  0  0  0
    0.8110    2.8124   -3.1893 H   0  0  0  0  0  0  0  0  0  0  0  0
    2.3541    3.6318   -4.7472 H   0  0  0  0  0  0  0  0  0  0  0  0
    1.4260    2.7569   -5.9830 H   0  0  0  0  0  0  0  0  0  0  0  0
    0.9967    4.4334   -5.5648 H   0  0  0  0  0  0  0  0  0  0  0  0
  1  2  2  0  0  0  0
  1  3  1  0  0  0  0
  1  7  1  0  0  0  0
  3  4  1  0  0  0  0
  3  5  1  0  0  0  0
  3  6  1  0  0  0  0
  7  8  1  0  0  0  0
  7 12  1  0  0  0  0
  8  9  1  0  0  0  0
  8 11  1  0  0  0  0
  8 13  1  0  0  0  0
  9 10  2  0  0  0  0
  9 17  1  0  0  0  0
 11 14  1  0  0  0  0
 11 15  1  0  0  0  0
 11 16  1  0  0  0  0
 17 18  1  0  0  0  0
 17 23  1  0  0  0  0
 18 19  1  0  0  0  0
 18 21  1  0  0  0  0
 18 24  1  0  0  0  0
 19 20  2  0  0  0  0
 19 28  1  0  0  0  0
 21 22  1  0  0  0  0
 21 25  1  0  0  0  0
 21 26  1  0  0  0  0
 22 27  1  0  0  0  0
 28 29  1  0  0  0  0
 28 33  1  0  0  0  0
 29 30  1  0  0  0  0
 29 32  1  0  0  0  0
 29 34  1  0  0  0  0
 30 31  2  0  0  0  0
 30 38  1  0  0  0  0
 32 35  1  0  0  0  0
 32 36  1  0  0  0  0
 32 37  1  0  0  0  0
 38 39  1  0  0  0  0
 38 40  1  0  0  0  0
 39 41  1  0  0  0  0
 39 42  1  0  0  0  0
 39 43  1  0  0  0  0
M  END
$$$$

  -OEChem-05262217303D

 43 42  0     1  0  0  0  0  0999 V2000
    3.8442   -1.4986    3.9456 C   0  0  0  0  0  0  0  0  0  0  0  0
    3.0656   -1.2540    4.8537 O   0  0  0  0  0  0  0  0  0  0  0  0
    5.0810   -2.3374    4.2073 C   0  0  0  0  0  0  0  0  0  0  0  0
    5.9793   -1.7342    4.0539 H   0  0  0  0  0  0  0  0  0  0  0  0
    5.0753   -2.7070    5.2366 H   0  0  0  0  0  0  0  0  0  0  0  0
    5.1038   -3.1923    3.5272 H   0  0  0  0  0  0  0  0  0  0  0  0
    3.5986   -1.0165    2.6776 N   0  0  0  0  0  0  0  0  0  0  0  0
    2.3698   -0.3171    2.2799 C   0  0  2  0  0  0  0  0  0  0  0  0
    1.9816   -0.6267    0.8188 C   0  0  0  0  0  0  0  0  0  0  0  0
    2.7713   -1.2044    0.0791 O   0  0  0  0  0  0  0  0  0  0  0  0
    2.5905    1.1867    2.4692 C   0  0  0  0  0  0  0  0  0  0  0  0
    4.2001   -1.3507    1.9254 H   0  0  0  0  0  0  0  0  0  0  0  0
    1.5373   -0.6431    2.9130 H   0  0  0  0  0  0  0  0  0  0  0  0
    3.4128    1.5351    1.8360 H   0  0  0  0  0  0  0  0  0  0  0  0
    1.6879    1.7459    2.2057 H   0  0  0  0  0  0  0  0  0  0  0  0
    2.8376    1.4045    3.5131 H   0  0  0  0  0  0  0  0  0  0  0  0
    0.7313   -0.2784    0.3421 N   0  0  0  0  0  0  0  0  0  0  0  0
    0.2896   -0.4476   -1.0553 C   0  0  2  0  0  0  0  0  0  0  0  0
   -0.1131    0.8746   -1.7448 C   0  0  0  0  0  0  0  0  0  0  0  0
    0.6620    1.8194   -1.7038 O   0  0  0  0  0  0  0  0  0  0  0  0
   -0.8471   -1.4814   -1.0280 C   0  0  0  0  0  0  0  0  0  0  0  0
   -2.0016   -0.9853   -0.3262 O   0  0  0  0  0  0  0  0  0  0  0  0
    0.0987    0.1747    0.9960 H   0  0  0  0  0  0  0  0  0  0  0  0
    1.1008   -0.8631   -1.6626 H   0  0  0  0  0  0  0  0  0  0  0  0
   -0.4976   -2.4019   -0.5478 H   0  0  0  0  0  0  0  0  0  0  0  0
   -1.1283   -1.7373   -2.0551 H   0  0  0  0  0  0  0  0  0  0  0  0
   -2.2307   -0.0732   -0.5787 H   0  0  0  0  0  0  0  0  0  0  0  0
   -1.3928    1.0740   -2.2506 N   0  0  0  0  0  0  0  0  0  0  0  0
   -1.9329    2.3236   -2.8299 C   0  0  2  0  0  0  0  0  0  0  0  0
   -1.2588    2.7676   -4.1490 C   0  0  0  0  0  0  0  0  0  0  0  0
   -1.9409    2.8801   -5.1583 O   0  0  0  0  0  0  0  0  0  0  0  0
   -1.9396    3.4647   -1.8018 C   0  0  0  0  0  0  0  0  0  0  0  0
   -1.9181    0.2235   -2.4442 H   0  0  0  0  0  0  0  0  0  0  0  0
   -2.9805    2.1269   -3.0814 H   0  0  0  0  0  0  0  0  0  0  0  0
   -0.9255    3.8049   -1.5731 H   0  0  0  0  0  0  0  0  0  0  0  0
   -2.5011    4.3178   -2.1958 H   0  0  0  0  0  0  0  0  0  0  0  0
   -2.4160    3.1380   -0.8728 H   0  0  0  0  0  0  0  0  0  0  0  0
    0.0991    3.0054   -4.2193 N   0  0  0  0  0  0  0  0  0  0  0  0
    0.8009    3.3589   -5.4455 C   0  0  0  0  0  0  0  0  0  0  0  0
    0.6360    2.8255   -3.3664 H   0  0  0  0  0  0  0  0  0  0  0  0
    1.8687    3.4893   -5.2447 H   0  0  0  0  0  0  0  0  0  0  0  0
    0.6824    2.5700   -6.1955 H   0  0  0  0  0  0  0  0  0  0  0  0
    0.4091    4.2962   -5.8544 H   0  0  0  0  0  0  0  0  0  0  0  0
  1  2  2  0  0  0  0
  1  3  1  0  0  0  0
  1  7  1  0  0  0  0
  3  4  1  0  0  0  0
  3  5  1  0  0  0  0
  3  6  1  0  0  0  0
  7  8  1  0  0  0  0
  7 12  1  0  0  0  0
  8  9  1  0  0  0  0
  8 11  1  0  0  0  0
  8 13  1  0  0  0  0
  9 10  2  0  0  0  0
  9 17  1  0  0  0  0
 11 14  1  0  0  0  0
 11 15  1  0  0  0  0
 11 16  1  0  0  0  0
 17 18  1  0  0  0  0
 17 23  1  0  0  0  0
 18 19  1  0  0  0  0
 18 21  1  0  0  0  0
 18 24  1  0  0  0  0
 19 20  2  0  0  0  0
 19 28  1  0  0  0  0
 21 22  1  0  0  0  0
 21 25  1  0  0  0  0
 21 26  1  0  0  0  0
 22 27  1  0  0  0  0
 28 29  1  0  0  0  0
 28 33  1  0  0  0  0
 29 30  1  0  0  0  0
 29 32  1  0  0  0  0
 29 34  1  0  0  0  0
 30 31  2  0  0  0  0
 30 38  1  0  0  0  0
 32 35  1  0  0  0  0
 32 36  1  0  0  0  0
 32 37  1  0  0  0  0
 38 39  1  0  0  0  0
 38 40  1  0  0  0  0
 39 41  1  0  0  0  0
 39 42  1  0  0  0  0
 39 43  1  0  0  0  0
M  END
$$$$

  -OEChem-05262217303D

 43 42  0     1  0  0  0  0  0999 V2000
    3.6041   -1.5528    3.9442 C   0  0  0  0  0  0  0  0  0  0  0  0
    2.6978   -1.3789    4.7436 O   0  0  0  0  0  0  0  0  0  0  0  0
    4.7448   -2.4945    4.2811 C   0  0  0  0  0  0  0  0  0  0  0  0
    5.6915   -1.9489    4.2768 H   0  0  0  0  0  0  0  0  0  0  0  0
    4.5946   -2.9305    5.2728 H   0  0  0  0  0  0  0  0  0  0  0  0
    4.7936   -3.3010    3.5455 H   0  0  0  0  0  0  0  0  0  0  0  0
    3.5964   -0.8978    2.7303 N   0  0  0  0  0  0  0  0  0  0  0  0
    2.4571   -0.1232    2.2175 C   0  0  2  0  0  0  0  0  0  0  0  0
    1.9838   -0.6352    0.8412 C   0  0  0  0  0  0  0  0  0  0  0  0
    2.7163   -1.3447    0.1610 O   0  0  0  0  0  0  0  0  0  0  0  0
    2.8930    1.3409    2.1251 C   0  0  0  0  0  0  0  0  0  0  0  0
    4.2711   -1.2230    2.0397 H   0  0  0  0  0  0  0  0  0  0  0  0
    1.6048   -0.1951    2.9011 H   0  0  0  0  0  0  0  0  0  0  0  0
    3.7378    1.4478    1.4368 H   0  0  0  0  0  0  0  0  0  0  0  0
    2.0706    1.9666    1.7651 H   0  0  0  0  0  0  0  0  0  0  0  0
    3.1980    1.7049    3.1114 H   0  0  0  0  0  0  0  0  0  0  0  0
    0.7276   -0.2974    0.3695 N   0  0  0  0  0  0  0  0  0  0  0  0
    0.3452   -0.4121   -1.0524 C   0  0  2  0  0  0  0  0  0  0  0  0
   -0.0737    0.9451   -1.6520 C   0  0  0  0  0  0  0  0  0  0  0  0
    0.7844    1.8014   -1.8194 O   0  0  0  0  0  0  0  0  0  0  0  0
   -0.7158   -1.5111   -1.2132 C   0  0  0  0  0  0  0  0  0  0  0  0
   -1.9478   -1.1662   -0.5638 O   0  0  0  0  0  0  0  0  0  0  0  0
    0.2284    0.3918    0.9257 H   0  0  0  0  0  0  0  0  0  0  0  0
    1.2108   -0.7249   -1.6465 H   0  0  0  0  0  0  0  0  0  0  0  0
   -0.3354   -2.4554   -0.8093 H   0  0  0  0  0  0  0  0  0  0  0  0
   -0.9085   -1.6639   -2.2806 H   0  0  0  0  0  0  0  0  0  0  0  0
   -1.8891   -1.3625    0.3898 H   0  0  0  0  0  0  0  0  0  0  0  0
   -1.4029    1.2467   -1.8966 N   0  0  0  0  0  0  0  0  0  0  0  0
   -1.9744    2.5297   -2.3570 C   0  0  2  0  0  0  0  0  0  0  0  0
   -1.5709    2.9528   -3.7891 C   0  0  0  0  0  0  0  0  0  0  0  0
   -2.4370    3.3142   -4.5747 O   0  0  0  0  0  0  0  0  0  0  0  0
   -1.6787    3.6556   -1.3568 C   0  0  0  0  0  0  0  0  0  0  0  0
   -2.0551    0.4934   -1.6640 H   0  0  0  0  0  0  0  0  0  0  0  0
   -3.0614    2.3988   -2.3792 H   0  0  0  0  0  0  0  0  0  0  0  0
   -0.6168    3.9189   -1.3581 H   0  0  0  0  0  0  0  0  0  0  0  0
   -2.2512    4.5501   -1.6220 H   0  0  0  0  0  0  0  0  0  0  0  0
   -1.9625    3.3512   -0.3453 H   0  0  0  0  0  0  0  0  0  0  0  0
   -0.2509    2.9542   -4.1940 N   0  0  0  0  0  0  0  0  0  0  0  0
    0.2014    3.3728   -5.5132 C   0  0  0  0  0  0  0  0  0  0  0  0
    0.4379    2.6771   -3.4899 H   0  0  0  0  0  0  0  0  0  0  0  0
    1.2872    3.2612   -5.5919 H   0  0  0  0  0  0  0  0  0  0  0  0
   -0.2658    2.7597   -6.2907 H   0  0  0  0  0  0  0  0  0  0  0  0
   -0.0535    4.4229   -5.6899 H   0  0  0  0  0  0  0  0  0  0  0  0
  1  2  2  0  0  0  0
  1  3  1  0  0  0  0
  1  7  1  0  0  0  0
  3  4  1  0  0  0  0
  3  5  1  0  0  0  0
  3  6  1  0  0  0  0
  7  8  1  0  0  0  0
  7 12  1  0  0  0  0
  8  9  1  0  0  0  0
  8 11  1  0  0  0  0
  8 13  1  0  0  0  0
  9 10  2  0  0  0  0
  9 17  1  0  0  0  0
 11 14  1  0  0  0  0
 11 15  1  0  0  0  0
 11 16  1  0  0  0  0
 17 18  1  0  0  0  0
 17 23  1  0  0  0  0
 18 19  1  0  0  0  0
 18 21  1  0  0  0  0
 18 24  1  0  0  0  0
 19 20  2  0  0  0  0
 19 28  1  0  0  0  0
 21 22  1  0  0  0  0
 21 25  1  0  0  0  0
 21 26  1  0  0  0  0
 22 27  1  0  0  0  0
 28 29  1  0  0  0  0
 28 33  1  0  0  0  0
 29 30  1  0  0  0  0
 29 32  1  0  0  0  0
 29 34  1  0  0  0  0
 30 31  2  0  0  0  0
 30 38  1  0  0  0  0
 32 35  1  0  0  0  0
 32 36  1  0  0  0  0
 32 37  1  0  0  0  0
 38 39  1  0  0  0  0
 38 40  1  0  0  0  0
 39 41  1  0  0  0  0
 39 42  1  0  0  0  0
 39 43  1  0  0  0  0
M  END
$$$$

  -OEChem-05262217303D

 43 42  0     1  0  0  0  0  0999 V2000
    3.7360   -1.7689    3.9426 C   0  0  0  0  0  0  0  0  0  0  0  0
    2.9034   -1.5942    4.8183 O   0  0  0  0  0  0  0  0  0  0  0  0
    4.8992   -2.7142    4.1770 C   0  0  0  0  0  0  0  0  0  0  0  0
    5.8447   -2.1909    4.0141 H   0  0  0  0  0  0  0  0  0  0  0  0
    4.8781   -3.0907    5.2038 H   0  0  0  0  0  0  0  0  0  0  0  0
    4.8360   -3.5614    3.4896 H   0  0  0  0  0  0  0  0  0  0  0  0
    3.6125   -1.1191    2.7329 N   0  0  0  0  0  0  0  0  0  0  0  0
    2.4438   -0.3221    2.3378 C   0  0  2  0  0  0  0  0  0  0  0  0
    2.0847   -0.5317    0.8521 C   0  0  0  0  0  0  0  0  0  0  0  0
    2.8842   -1.0680    0.0929 O   0  0  0  0  0  0  0  0  0  0  0  0
    2.7539    1.1517    2.6140 C   0  0  0  0  0  0  0  0  0  0  0  0
    4.2470   -1.4013    1.9866 H   0  0  0  0  0  0  0  0  0  0  0  0
    1.5704   -0.6217    2.9271 H   0  0  0  0  0  0  0  0  0  0  0  0
    3.6188    1.4774    2.0270 H   0  0  0  0  0  0  0  0  0  0  0  0
    1.8986    1.7819    2.3522 H   0  0  0  0  0  0  0  0  0  0  0  0
    2.9777    1.2983    3.6755 H   0  0  0  0  0  0  0  0  0  0  0  0
    0.8431   -0.1495    0.3799 N   0  0  0  0  0  0  0  0  0  0  0  0
    0.4202   -0.2056   -1.0312 C   0  0  2  0  0  0  0  0  0  0  0  0
    0.0327    1.1820   -1.5794 C   0  0  0  0  0  0  0  0  0  0  0  0
    0.8893    1.8854   -2.0978 O   0  0  0  0  0  0  0  0  0  0  0  0
   -0.6906   -1.2582   -1.1722 C   0  0  0  0  0  0  0  0  0  0  0  0
   -1.8889   -0.8828   -0.4730 O   0  0  0  0  0  0  0  0  0  0  0  0
    0.1959    0.2531    1.0527 H   0  0  0  0  0  0  0  0  0  0  0  0
    1.2557   -0.5419   -1.6552 H   0  0  0  0  0  0  0  0  0  0  0  0
   -0.3267   -2.2163   -0.7856 H   0  0  0  0  0  0  0  0  0  0  0  0
   -0.9223   -1.3965   -2.2337 H   0  0  0  0  0  0  0  0  0  0  0  0
   -2.5394   -1.6103   -0.5012 H   0  0  0  0  0  0  0  0  0  0  0  0
   -1.2696    1.6413   -1.4859 N   0  0  0  0  0  0  0  0  0  0  0  0
   -1.8105    2.9432   -1.9253 C   0  0  2  0  0  0  0  0  0  0  0  0
   -1.8193    3.1522   -3.4569 C   0  0  0  0  0  0  0  0  0  0  0  0
   -2.8707    3.4429   -4.0119 O   0  0  0  0  0  0  0  0  0  0  0  0
   -1.1019    4.1050   -1.2155 C   0  0  0  0  0  0  0  0  0  0  0  0
   -1.9172    0.9731   -1.0636 H   0  0  0  0  0  0  0  0  0  0  0  0
   -2.8588    2.9716   -1.6104 H   0  0  0  0  0  0  0  0  0  0  0  0
   -0.0676    4.2082   -1.5560 H   0  0  0  0  0  0  0  0  0  0  0  0
   -1.6238    5.0440   -1.4241 H   0  0  0  0  0  0  0  0  0  0  0  0
   -1.0985    3.9436   -0.1336 H   0  0  0  0  0  0  0  0  0  0  0  0
   -0.6615    3.0105   -4.1982 N   0  0  0  0  0  0  0  0  0  0  0  0
   -0.5561    3.1596   -5.6455 C   0  0  0  0  0  0  0  0  0  0  0  0
    0.1711    2.7386   -3.6679 H   0  0  0  0  0  0  0  0  0  0  0  0
    0.1736    3.9379   -5.8885 H   0  0  0  0  0  0  0  0  0  0  0  0
   -0.2294    2.2169   -6.0947 H   0  0  0  0  0  0  0  0  0  0  0  0
   -1.5126    3.4391   -6.0990 H   0  0  0  0  0  0  0  0  0  0  0  0
  1  2  2  0  0  0  0
  1  3  1  0  0  0  0
  1  7  1  0  0  0  0
  3  4  1  0  0  0  0
  3  5  1  0  0  0  0
  3  6  1  0  0  0  0
  7  8  1  0  0  0  0
  7 12  1  0  0  0  0
  8  9  1  0  0  0  0
  8 11  1  0  0  0  0
  8 13  1  0  0  0  0
  9 10  2  0  0  0  0
  9 17  1  0  0  0  0
 11 14  1  0  0  0  0
 11 15  1  0  0  0  0
 11 16  1  0  0  0  0
 17 18  1  0  0  0  0
 17 23  1  0  0  0  0
 18 19  1  0  0  0  0
 18 21  1  0  0  0  0
 18 24  1  0  0  0  0
 19 20  2  0  0  0  0
 19 28  1  0  0  0  0
 21 22  1  0  0  0  0
 21 25  1  0  0  0  0
 21 26  1  0  0  0  0
 22 27  1  0  0  0  0
 28 29  1  0  0  0  0
 28 33  1  0  0  0  0
 29 30  1  0  0  0  0
 29 32  1  0  0  0  0
 29 34  1  0  0  0  0
 30 31  2  0  0  0  0
 30 38  1  0  0  0  0
 32 35  1  0  0  0  0
 32 36  1  0  0  0  0
 32 37  1  0  0  0  0
 38 39  1  0  0  0  0
 38 40  1  0  0  0  0
 39 41  1  0  0  0  0
 39 42  1  0  0  0  0
 39 43  1  0  0  0  0
M  END
$$$$

  -OEChem-05262217303D

 43 42  0     1  0  0  0  0  0999 V2000
    3.7385   -1.8842    3.9569 C   0  0  0  0  0  0  0  0  0  0  0  0
    2.9096   -1.7161    4.8375 O   0  0  0  0  0  0  0  0  0  0  0  0
    4.9041   -2.8298    4.1789 C   0  0  0  0  0  0  0  0  0  0  0  0
    5.8480   -2.3095    3.9982 H   0  0  0  0  0  0  0  0  0  0  0  0
    4.8978   -3.1993    5.2084 H   0  0  0  0  0  0  0  0  0  0  0  0
    4.8287   -3.6811    3.4978 H   0  0  0  0  0  0  0  0  0  0  0  0
    3.6083   -1.2241    2.7533 N   0  0  0  0  0  0  0  0  0  0  0  0
    2.4472   -0.4063    2.3788 C   0  0  2  0  0  0  0  0  0  0  0  0
    2.1181   -0.5316    0.8768 C   0  0  0  0  0  0  0  0  0  0  0  0
    2.9251   -1.0431    0.1091 O   0  0  0  0  0  0  0  0  0  0  0  0
    2.7487    1.0498    2.7445 C   0  0  0  0  0  0  0  0  0  0  0  0
    4.2440   -1.4905    2.0019 H   0  0  0  0  0  0  0  0  0  0  0  0
    1.5632   -0.7409    2.9325 H   0  0  0  0  0  0  0  0  0  0  0  0
    3.6251    1.4087    2.1950 H   0  0  0  0  0  0  0  0  0  0  0  0
    1.8975    1.6929    2.5017 H   0  0  0  0  0  0  0  0  0  0  0  0
    2.9503    1.1355    3.8171 H   0  0  0  0  0  0  0  0  0  0  0  0
    0.8931   -0.1043    0.3994 N   0  0  0  0  0  0  0  0  0  0  0  0
    0.4779   -0.1292   -1.0152 C   0  0  2  0  0  0  0  0  0  0  0  0
    0.1368    1.2723   -1.5565 C   0  0  0  0  0  0  0  0  0  0  0  0
    0.9202    1.8416   -2.3047 O   0  0  0  0  0  0  0  0  0  0  0  0
   -0.6825   -1.1233   -1.1626 C   0  0  0  0  0  0  0  0  0  0  0  0
   -1.8584   -0.6829   -0.4626 O   0  0  0  0  0  0  0  0  0  0  0  0
    0.2325    0.2593    1.0812 H   0  0  0  0  0  0  0  0  0  0  0  0
    1.3004   -0.4978   -1.6380 H   0  0  0  0  0  0  0  0  0  0  0  0
   -0.3713   -2.1005   -0.7774 H   0  0  0  0  0  0  0  0  0  0  0  0
   -0.9176   -1.2453   -2.2254 H   0  0  0  0  0  0  0  0  0  0  0  0
   -2.5642   -1.3537   -0.5316 H   0  0  0  0  0  0  0  0  0  0  0  0
   -1.0506    1.8884   -1.1994 N   0  0  0  0  0  0  0  0  0  0  0  0
   -1.5365    3.2253   -1.5978 C   0  0  2  0  0  0  0  0  0  0  0  0
   -1.8813    3.3701   -3.0977 C   0  0  0  0  0  0  0  0  0  0  0  0
   -2.9601    3.8489   -3.4223 O   0  0  0  0  0  0  0  0  0  0  0  0
   -0.5604    4.3233   -1.1538 C   0  0  0  0  0  0  0  0  0  0  0  0
   -1.6965    1.2781   -0.6948 H   0  0  0  0  0  0  0  0  0  0  0  0
   -2.4724    3.3952   -1.0556 H   0  0  0  0  0  0  0  0  0  0  0  0
    0.3689    4.2861   -1.7295 H   0  0  0  0  0  0  0  0  0  0  0  0
   -1.0136    5.3081   -1.3035 H   0  0  0  0  0  0  0  0  0  0  0  0
   -0.3182    4.2114   -0.0928 H   0  0  0  0  0  0  0  0  0  0  0  0
   -0.9954    2.9742   -4.0796 N   0  0  0  0  0  0  0  0  0  0  0  0
   -1.2345    3.1340   -5.5070 C   0  0  0  0  0  0  0  0  0  0  0  0
   -0.0923    2.6173   -3.7554 H   0  0  0  0  0  0  0  0  0  0  0  0
   -1.2993    4.1956   -5.7670 H   0  0  0  0  0  0  0  0  0  0  0  0
   -0.4164    2.6855   -6.0783 H   0  0  0  0  0  0  0  0  0  0  0  0
   -2.1685    2.6419   -5.7978 H   0  0  0  0  0  0  0  0  0  0  0  0
  1  2  2  0  0  0  0
  1  3  1  0  0  0  0
  1  7  1  0  0  0  0
  3  4  1  0  0  0  0
  3  5  1  0  0  0  0
  3  6  1  0  0  0  0
  7  8  1  0  0  0  0
  7 12  1  0  0  0  0
  8  9  1  0  0  0  0
  8 11  1  0  0  0  0
  8 13  1  0  0  0  0
  9 10  2  0  0  0  0
  9 17  1  0  0  0  0
 11 14  1  0  0  0  0
 11 15  1  0  0  0  0
 11 16  1  0  0  0  0
 17 18  1  0  0  0  0
 17 23  1  0  0  0  0
 18 19  1  0  0  0  0
 18 21  1  0  0  0  0
 18 24  1  0  0  0  0
 19 20  2  0  0  0  0
 19 28  1  0  0  0  0
 21 22  1  0  0  0  0
 21 25  1  0  0  0  0
 21 26  1  0  0  0  0
 22 27  1  0  0  0  0
 28 29  1  0  0  0  0
 28 33  1  0  0  0  0
 29 30  1  0  0  0  0
 29 32  1  0  0  0  0
 29 34  1  0  0  0  0
 30 31  2  0  0  0  0
 30 38  1  0  0  0  0
 32 35  1  0  0  0  0
 32 36  1  0  0  0  0
 32 37  1  0  0  0  0
 38 39  1  0  0  0  0
 38 40  1  0  0  0  0
 39 41  1  0  0  0  0
 39 42  1  0  0  0  0
 39 43  1  0  0  0  0
M  END
$$$$

  -OEChem-05262217303D

 43 42  0     1  0  0  0  0  0999 V2000
    3.7772   -1.9973    3.9353 C   0  0  0  0  0  0  0  0  0  0  0  0
    2.9380   -1.9038    4.8172 O   0  0  0  0  0  0  0  0  0  0  0  0
    4.9735   -2.9126    4.1137 C   0  0  0  0  0  0  0  0  0  0  0  0
    5.8877   -2.3190    4.1910 H   0  0  0  0  0  0  0  0  0  0  0  0
    4.8607   -3.5082    5.0238 H   0  0  0  0  0  0  0  0  0  0  0  0
    5.0575   -3.5886    3.2593 H   0  0  0  0  0  0  0  0  0  0  0  0
    3.6348   -1.2760    2.7692 N   0  0  0  0  0  0  0  0  0  0  0  0
    2.4487   -0.4807    2.4256 C   0  0  2  0  0  0  0  0  0  0  0  0
    2.1475   -0.5276    0.9124 C   0  0  0  0  0  0  0  0  0  0  0  0
    2.9738   -0.9940    0.1366 O   0  0  0  0  0  0  0  0  0  0  0  0
    2.6912    0.9607    2.8826 C   0  0  0  0  0  0  0  0  0  0  0  0
    4.2828   -1.4845    2.0099 H   0  0  0  0  0  0  0  0  0  0  0  0
    1.5709   -0.8805    2.9445 H   0  0  0  0  0  0  0  0  0  0  0  0
    3.5559    1.3863    2.3630 H   0  0  0  0  0  0  0  0  0  0  0  0
    1.8171    1.5846    2.6736 H   0  0  0  0  0  0  0  0  0  0  0  0
    2.8838    0.9878    3.9600 H   0  0  0  0  0  0  0  0  0  0  0  0
    0.9370   -0.0675    0.4262 N   0  0  0  0  0  0  0  0  0  0  0  0
    0.5535   -0.0411   -0.9988 C   0  0  2  0  0  0  0  0  0  0  0  0
    0.2399    1.3734   -1.5177 C   0  0  0  0  0  0  0  0  0  0  0  0
    0.9010    1.8426   -2.4343 O   0  0  0  0  0  0  0  0  0  0  0  0
   -0.6428   -0.9823   -1.1865 C   0  0  0  0  0  0  0  0  0  0  0  0
   -1.8043   -0.4957   -0.4928 O   0  0  0  0  0  0  0  0  0  0  0  0
    0.2526    0.2464    1.1090 H   0  0  0  0  0  0  0  0  0  0  0  0
    1.3743   -0.4202   -1.6174 H   0  0  0  0  0  0  0  0  0  0  0  0
   -0.3836   -1.9814   -0.8195 H   0  0  0  0  0  0  0  0  0  0  0  0
   -0.8693   -1.0691   -2.2545 H   0  0  0  0  0  0  0  0  0  0  0  0
   -2.5577   -1.1022   -0.6253 H   0  0  0  0  0  0  0  0  0  0  0  0
   -0.7813    2.1111   -0.9420 N   0  0  0  0  0  0  0  0  0  0  0  0
   -1.2452    3.4568   -1.3359 C   0  0  2  0  0  0  0  0  0  0  0  0
   -1.8757    3.5327   -2.7459 C   0  0  0  0  0  0  0  0  0  0  0  0
   -3.0207    3.9467   -2.8714 O   0  0  0  0  0  0  0  0  0  0  0  0
   -0.1280    4.4974   -1.1739 C   0  0  0  0  0  0  0  0  0  0  0  0
   -1.4124    1.5480   -0.3708 H   0  0  0  0  0  0  0  0  0  0  0  0
   -2.0383    3.7359   -0.6345 H   0  0  0  0  0  0  0  0  0  0  0  0
    0.6715    4.3428   -1.9042 H   0  0  0  0  0  0  0  0  0  0  0  0
   -0.5308    5.5046   -1.3197 H   0  0  0  0  0  0  0  0  0  0  0  0
    0.3023    4.4387   -0.1697 H   0  0  0  0  0  0  0  0  0  0  0  0
   -1.1785    3.1268   -3.8663 N   0  0  0  0  0  0  0  0  0  0  0  0
   -1.7262    3.1242   -5.2154 C   0  0  0  0  0  0  0  0  0  0  0  0
   -0.2502    2.7289   -3.6984 H   0  0  0  0  0  0  0  0  0  0  0  0
   -0.9645    2.7970   -5.9295 H   0  0  0  0  0  0  0  0  0  0  0  0
   -2.5798    2.4420   -5.2808 H   0  0  0  0  0  0  0  0  0  0  0  0
   -2.0552    4.1296   -5.4979 H   0  0  0  0  0  0  0  0  0  0  0  0
  1  2  2  0  0  0  0
  1  3  1  0  0  0  0
  1  7  1  0  0  0  0
  3  4  1  0  0  0  0
  3  5  1  0  0  0  0
  3  6  1  0  0  0  0
  7  8  1  0  0  0  0
  7 12  1  0  0  0  0
  8  9  1  0  0  0  0
  8 11  1  0  0  0  0
  8 13  1  0  0  0  0
  9 10  2  0  0  0  0
  9 17  1  0  0  0  0
 11 14  1  0  0  0  0
 11 15  1  0  0  0  0
 11 16  1  0  0  0  0
 17 18  1  0  0  0  0
 17 23  1  0  0  0  0
 18 19  1  0  0  0  0
 18 21  1  0  0  0  0
 18 24  1  0  0  0  0
 19 20  2  0  0  0  0
 19 28  1  0  0  0  0
 21 22  1  0  0  0  0
 21 25  1  0  0  0  0
 21 26  1  0  0  0  0
 22 27  1  0  0  0  0
 28 29  1  0  0  0  0
 28 33  1  0  0  0  0
 29 30  1  0  0  0  0
 29 32  1  0  0  0  0
 29 34  1  0  0  0  0
 30 31  2  0  0  0  0
 30 38  1  0  0  0  0
 32 35  1  0  0  0  0
 32 36  1  0  0  0  0
 32 37  1  0  0  0  0
 38 39  1  0  0  0  0
 38 40  1  0  0  0  0
 39 41  1  0  0  0  0
 39 42  1  0  0  0  0
 39 43  1  0  0  0  0
M  END
$$$$

  -OEChem-05262217303D

 43 42  0     1  0  0  0  0  0999 V2000
    3.7166   -2.1257    3.9547 C   0  0  0  0  0  0  0  0  0  0  0  0
    2.8610   -2.0390    4.8214 O   0  0  0  0  0  0  0  0  0  0  0  0
    4.8838   -3.0794    4.1280 C   0  0  0  0  0  0  0  0  0  0  0  0
    5.8244   -2.5230    4.1204 H   0  0  0  0  0  0  0  0  0  0  0  0
    4.7968   -3.6123    5.0793 H   0  0  0  0  0  0  0  0  0  0  0  0
    4.8942   -3.8100    3.3154 H   0  0  0  0  0  0  0  0  0  0  0  0
    3.6144   -1.3639    2.8103 N   0  0  0  0  0  0  0  0  0  0  0  0
    2.4531   -0.5309    2.4726 C   0  0  2  0  0  0  0  0  0  0  0  0
    2.2012   -0.4915    0.9505 C   0  0  0  0  0  0  0  0  0  0  0  0
    3.0453   -0.9270    0.1762 O   0  0  0  0  0  0  0  0  0  0  0  0
    2.6995    0.8795    3.0170 C   0  0  0  0  0  0  0  0  0  0  0  0
    4.2736   -1.5595    2.0574 H   0  0  0  0  0  0  0  0  0  0  0  0
    1.5526   -0.9455    2.9388 H   0  0  0  0  0  0  0  0  0  0  0  0
    3.5915    1.3170    2.5571 H   0  0  0  0  0  0  0  0  0  0  0  0
    1.8449    1.5295    2.8071 H   0  0  0  0  0  0  0  0  0  0  0  0
    2.8478    0.8455    4.1011 H   0  0  0  0  0  0  0  0  0  0  0  0
    1.0124    0.0121    0.4548 N   0  0  0  0  0  0  0  0  0  0  0  0
    0.6254    0.0141   -0.9701 C   0  0  2  0  0  0  0  0  0  0  0  0
    0.3750    1.4170   -1.5494 C   0  0  0  0  0  0  0  0  0  0  0  0
    0.8163    1.7002   -2.6556 O   0  0  0  0  0  0  0  0  0  0  0  0
   -0.6337   -0.8463   -1.1027 C   0  0  0  0  0  0  0  0  0  0  0  0
   -1.7351   -0.2334   -0.4124 O   0  0  0  0  0  0  0  0  0  0  0  0
    0.2960    0.2483    1.1363 H   0  0  0  0  0  0  0  0  0  0  0  0
    1.4132   -0.4409   -1.5803 H   0  0  0  0  0  0  0  0  0  0  0  0
   -0.4453   -1.8458   -0.6959 H   0  0  0  0  0  0  0  0  0  0  0  0
   -0.8853   -0.9593   -2.1629 H   0  0  0  0  0  0  0  0  0  0  0  0
   -2.5523   -0.7491   -0.5488 H   0  0  0  0  0  0  0  0  0  0  0  0
   -0.3735    2.3392   -0.8354 N   0  0  0  0  0  0  0  0  0  0  0  0
   -0.7333    3.7110   -1.2479 C   0  0  2  0  0  0  0  0  0  0  0  0
   -1.7042    3.7899   -2.4481 C   0  0  0  0  0  0  0  0  0  0  0  0
   -2.7275    4.4545   -2.3508 O   0  0  0  0  0  0  0  0  0  0  0  0
    0.5192    4.5622   -1.4995 C   0  0  0  0  0  0  0  0  0  0  0  0
   -0.9165    1.9255   -0.0806 H   0  0  0  0  0  0  0  0  0  0  0  0
   -1.2594    4.1672   -0.4029 H   0  0  0  0  0  0  0  0  0  0  0  0
    1.0479    4.2373   -2.4002 H   0  0  0  0  0  0  0  0  0  0  0  0
    0.2377    5.6114   -1.6321 H   0  0  0  0  0  0  0  0  0  0  0  0
    1.2035    4.4917   -0.6487 H   0  0  0  0  0  0  0  0  0  0  0  0
   -1.4392    3.1267   -3.6293 N   0  0  0  0  0  0  0  0  0  0  0  0
   -2.2799    3.2025   -4.8153 C   0  0  0  0  0  0  0  0  0  0  0  0
   -0.5624    2.5993   -3.6637 H   0  0  0  0  0  0  0  0  0  0  0  0
   -2.2810    4.2209   -5.2170 H   0  0  0  0  0  0  0  0  0  0  0  0
   -1.9038    2.5246   -5.5873 H   0  0  0  0  0  0  0  0  0  0  0  0
   -3.3090    2.9156   -4.5751 H   0  0  0  0  0  0  0  0  0  0  0  0
  1  2  2  0  0  0  0
  1  3  1  0  0  0  0
  1  7  1  0  0  0  0
  3  4  1  0  0  0  0
  3  5  1  0  0  0  0
  3  6  1  0  0  0  0
  7  8  1  0  0  0  0
  7 12  1  0  0  0  0
  8  9  1  0  0  0  0
  8 11  1  0  0  0  0
  8 13  1  0  0  0  0
  9 10  2  0  0  0  0
  9 17  1  0  0  0  0
 11 14  1  0  0  0  0
 11 15  1  0  0  0  0
 11 16  1  0  0  0  0
 17 18  1  0  0  0  0
 17 23  1  0  0  0  0
 18 19  1  0  0  0  0
 18 21  1  0  0  0  0
 18 24  1  0  0  0  0
 19 20  2  0  0  0  0
 19 28  1  0  0  0  0
 21 22  1  0  0  0  0
 21 25  1  0  0  0  0
 21 26  1  0  0  0  0
 22 27  1  0  0  0  0
 28 29  1  0  0  0  0
 28 33  1  0  0  0  0
 29 30  1  0  0  0  0
 29 32  1  0  0  0  0
 29 34  1  0  0  0  0
 30 31  2  0  0  0  0
 30 38  1  0  0  0  0
 32 35  1  0  0  0  0
 32 36  1  0  0  0  0
 32 37  1  0  0  0  0
 38 39  1  0  0  0  0
 38 40  1  0  0  0  0
 39 41  1  0  0  0  0
 39 42  1  0  0  0  0
 39 43  1  0  0  0  0
M  END
$$$$

  -OEChem-05262217303D

 43 42  0     1  0  0  0  0  0999 V2000
    3.5971   -2.3385    4.1444 C   0  0  0  0  0  0  0  0  0  0  0  0
    2.7337   -2.2121    4.9981 O   0  0  0  0  0  0  0  0  0  0  0  0
    4.7267   -3.3321    4.3416 C   0  0  0  0  0  0  0  0  0  0  0  0
    5.6890   -2.8156    4.3051 H   0  0  0  0  0  0  0  0  0  0  0  0
    4.6290   -3.8261    5.3124 H   0  0  0  0  0  0  0  0  0  0  0  0
    4.6981   -4.0903    3.5553 H   0  0  0  0  0  0  0  0  0  0  0  0
    3.5432   -1.5808    2.9939 N   0  0  0  0  0  0  0  0  0  0  0  0
    2.4281   -0.6951    2.6339 C   0  0  2  0  0  0  0  0  0  0  0  0
    2.2834   -0.5582    1.1020 C   0  0  0  0  0  0  0  0  0  0  0  0
    3.1294   -1.0439    0.3600 O   0  0  0  0  0  0  0  0  0  0  0  0
    2.6659    0.6738    3.2816 C   0  0  0  0  0  0  0  0  0  0  0  0
    4.2072   -1.8057    2.2534 H   0  0  0  0  0  0  0  0  0  0  0  0
    1.4904   -1.1155    3.0139 H   0  0  0  0  0  0  0  0  0  0  0  0
    3.5954    1.1166    2.9097 H   0  0  0  0  0  0  0  0  0  0  0  0
    1.8399    1.3556    3.0589 H   0  0  0  0  0  0  0  0  0  0  0  0
    2.7402    0.5708    4.3691 H   0  0  0  0  0  0  0  0  0  0  0  0
    1.2028    0.1119    0.5571 N   0  0  0  0  0  0  0  0  0  0  0  0
    0.8240    0.0389   -0.8686 C   0  0  2  0  0  0  0  0  0  0  0  0
    0.8311    1.3802   -1.6158 C   0  0  0  0  0  0  0  0  0  0  0  0
    0.8797    1.3817   -2.8386 O   0  0  0  0  0  0  0  0  0  0  0  0
   -0.5879   -0.5584   -0.9048 C   0  0  0  0  0  0  0  0  0  0  0  0
   -1.5357    0.3353   -0.2971 O   0  0  0  0  0  0  0  0  0  0  0  0
    0.4436    0.3160    1.2047 H   0  0  0  0  0  0  0  0  0  0  0  0
    1.4952   -0.6316   -1.4157 H   0  0  0  0  0  0  0  0  0  0  0  0
   -0.5936   -1.5158   -0.3735 H   0  0  0  0  0  0  0  0  0  0  0  0
   -0.8834   -0.7536   -1.9414 H   0  0  0  0  0  0  0  0  0  0  0  0
   -1.8064    1.0629   -0.9163 H   0  0  0  0  0  0  0  0  0  0  0  0
    0.5561    2.5536   -0.9310 N   0  0  0  0  0  0  0  0  0  0  0  0
   -0.0614    3.7296   -1.5713 C   0  0  2  0  0  0  0  0  0  0  0  0
   -1.3975    3.3709   -2.2738 C   0  0  0  0  0  0  0  0  0  0  0  0
   -2.1378    2.5359   -1.7584 O   0  0  0  0  0  0  0  0  0  0  0  0
    0.9472    4.4412   -2.4900 C   0  0  0  0  0  0  0  0  0  0  0  0
    0.3468    2.4055    0.0517 H   0  0  0  0  0  0  0  0  0  0  0  0
   -0.3195    4.4376   -0.7780 H   0  0  0  0  0  0  0  0  0  0  0  0
    1.1442    3.8566   -3.3935 H   0  0  0  0  0  0  0  0  0  0  0  0
    0.5642    5.4212   -2.7896 H   0  0  0  0  0  0  0  0  0  0  0  0
    1.8950    4.5912   -1.9641 H   0  0  0  0  0  0  0  0  0  0  0  0
   -1.7988    3.9942   -3.4415 N   0  0  0  0  0  0  0  0  0  0  0  0
   -2.9922    3.5989   -4.1803 C   0  0  0  0  0  0  0  0  0  0  0  0
   -1.1024    4.5599   -3.9174 H   0  0  0  0  0  0  0  0  0  0  0  0
   -3.1393    4.2578   -5.0416 H   0  0  0  0  0  0  0  0  0  0  0  0
   -2.8941    2.5701   -4.5426 H   0  0  0  0  0  0  0  0  0  0  0  0
   -3.8803    3.6657   -3.5429 H   0  0  0  0  0  0  0  0  0  0  0  0
  1  2  2  0  0  0  0
  1  3  1  0  0  0  0
  1  7  1  0  0  0  0
  3  4  1  0  0  0  0
  3  5  1  0  0  0  0
  3  6  1  0  0  0  0
  7  8  1  0  0  0  0
  7 12  1  0  0  0  0
  8  9  1  0  0  0  0
  8 11  1  0  0  0  0
  8 13  1  0  0  0  0
  9 10  2  0  0  0  0
  9 17  1  0  0  0  0
 11 14  1  0  0  0  0
 11 15  1  0  0  0  0
 11 16  1  0  0  0  0
 17 18  1  0  0  0  0
 17 23  1  0  0  0  0
 18 19  1  0  0  0  0
 18 21  1  0  0  0  0
 18 24  1  0  0  0  0
 19 20  2  0  0  0  0
 19 28  1  0  0  0  0
 21 22  1  0  0  0  0
 21 25  1  0  0  0  0
 21 26  1  0  0  0  0
 22 27  1  0  0  0  0
 28 29  1  0  0  0  0
 28 33  1  0  0  0  0
 29 30  1  0  0  0  0
 29 32  1  0  0  0  0
 29 34  1  0  0  0  0
 30 31  2  0  0  0  0
 30 38  1  0  0  0  0
 32 35  1  0  0  0  0
 32 36  1  0  0  0  0
 32 37  1  0  0  0  0
 38 39  1  0  0  0  0
 38 40  1  0  0  0  0
 39 41  1  0  0  0  0
 39 42  1  0  0  0  0
 39 43  1  0  0  0  0
M  END
$$$$

  -OEChem-05262217303D

 43 42  0     1  0  0  0  0  0999 V2000
    3.6039   -2.2654    4.1980 C   0  0  0  0  0  0  0  0  0  0  0  0
    2.7637   -2.0713    5.0622 O   0  0  0  0  0  0  0  0  0  0  0  0
    4.7218   -3.2642    4.4320 C   0  0  0  0  0  0  0  0  0  0  0  0
    5.6894   -2.7588    4.3841 H   0  0  0  0  0  0  0  0  0  0  0  0
    4.6147   -3.7271    5.4170 H   0  0  0  0  0  0  0  0  0  0  0  0
    4.6894   -4.0467    3.6702 H   0  0  0  0  0  0  0  0  0  0  0  0
    3.5374   -1.5758    3.0058 N   0  0  0  0  0  0  0  0  0  0  0  0
    2.4361   -0.6817    2.6238 C   0  0  2  0  0  0  0  0  0  0  0  0
    2.2687   -0.6072    1.0905 C   0  0  0  0  0  0  0  0  0  0  0  0
    3.0897   -1.1444    0.3560 O   0  0  0  0  0  0  0  0  0  0  0  0
    2.7133    0.7092    3.2062 C   0  0  0  0  0  0  0  0  0  0  0  0
    4.1790   -1.8572    2.2645 H   0  0  0  0  0  0  0  0  0  0  0  0
    1.4958   -1.0650    3.0351 H   0  0  0  0  0  0  0  0  0  0  0  0
    3.6425    1.1170    2.7957 H   0  0  0  0  0  0  0  0  0  0  0  0
    1.8954    1.3968    2.9719 H   0  0  0  0  0  0  0  0  0  0  0  0
    2.8094    0.6521    4.2952 H   0  0  0  0  0  0  0  0  0  0  0  0
    1.1985    0.0694    0.5338 N   0  0  0  0  0  0  0  0  0  0  0  0
    0.7859   -0.0692   -0.8776 C   0  0  2  0  0  0  0  0  0  0  0  0
    0.8161    1.2203   -1.7084 C   0  0  0  0  0  0  0  0  0  0  0  0
    0.6152    1.1615   -2.9144 O   0  0  0  0  0  0  0  0  0  0  0  0
   -0.6499   -0.6068   -0.8295 C   0  0  0  0  0  0  0  0  0  0  0  0
   -1.5381    0.3638   -0.2477 O   0  0  0  0  0  0  0  0  0  0  0  0
    0.4567    0.3296    1.1828 H   0  0  0  0  0  0  0  0  0  0  0  0
    1.4153   -0.7971   -1.4003 H   0  0  0  0  0  0  0  0  0  0  0  0
   -0.6790   -1.5308   -0.2424 H   0  0  0  0  0  0  0  0  0  0  0  0
   -0.9896   -0.8492   -1.8421 H   0  0  0  0  0  0  0  0  0  0  0  0
   -1.6952    1.1428   -0.8400 H   0  0  0  0  0  0  0  0  0  0  0  0
    0.9043    2.4502   -1.0771 N   0  0  0  0  0  0  0  0  0  0  0  0
    0.3678    3.6895   -1.6688 C   0  0  2  0  0  0  0  0  0  0  0  0
   -1.1144    3.5405   -2.1078 C   0  0  0  0  0  0  0  0  0  0  0  0
   -1.8613    2.7996   -1.4722 O   0  0  0  0  0  0  0  0  0  0  0  0
    1.2925    4.1802   -2.7955 C   0  0  0  0  0  0  0  0  0  0  0  0
    0.9212    2.3884   -0.0638 H   0  0  0  0  0  0  0  0  0  0  0  0
    0.3765    4.4584   -0.8905 H   0  0  0  0  0  0  0  0  0  0  0  0
    1.2170    3.5368   -3.6775 H   0  0  0  0  0  0  0  0  0  0  0  0
    1.0313    5.2015   -3.0884 H   0  0  0  0  0  0  0  0  0  0  0  0
    2.3330    4.1778   -2.4561 H   0  0  0  0  0  0  0  0  0  0  0  0
   -1.6310    4.2583   -3.1715 N   0  0  0  0  0  0  0  0  0  0  0  0
   -2.9868    4.0668   -3.6737 C   0  0  0  0  0  0  0  0  0  0  0  0
   -0.9621    4.7448   -3.7605 H   0  0  0  0  0  0  0  0  0  0  0  0
   -3.1959    4.7791   -4.4777 H   0  0  0  0  0  0  0  0  0  0  0  0
   -3.1094    3.0523   -4.0677 H   0  0  0  0  0  0  0  0  0  0  0  0
   -3.7203    4.2265   -2.8760 H   0  0  0  0  0  0  0  0  0  0  0  0
  1  2  2  0  0  0  0
  1  3  1  0  0  0  0
  1  7  1  0  0  0  0
  3  4  1  0  0  0  0
  3  5  1  0  0  0  0
  3  6  1  0  0  0  0
  7  8  1  0  0  0  0
  7 12  1  0  0  0  0
  8  9  1  0  0  0  0
  8 11  1  0  0  0  0
  8 13  1  0  0  0  0
  9 10  2  0  0  0  0
  9 17  1  0  0  0  0
 11 14  1  0  0  0  0
 11 15  1  0  0  0  0
 11 16  1  0  0  0  0
 17 18  1  0  0  0  0
 17 23  1  0  0  0  0
 18 19  1  0  0  0  0
 18 21  1  0  0  0  0
 18 24  1  0  0  0  0
 19 20  2  0  0  0  0
 19 28  1  0  0  0  0
 21 22  1  0  0  0  0
 21 25  1  0  0  0  0
 21 26  1  0  0  0  0
 22 27  1  0  0  0  0
 28 29  1  0  0  0  0
 28 33  1  0  0  0  0
 29 30  1  0  0  0  0
 29 32  1  0  0  0  0
 29 34  1  0  0  0  0
 30 31  2  0  0  0  0
 30 38  1  0  0  0  0
 32 35  1  0  0  0  0
 32 36  1  0  0  0  0
 32 37  1  0  0  0  0
 38 39  1  0  0  0  0
 38 40  1  0  0  0  0
 39 41  1  0  0  0  0
 39 42  1  0  0  0  0
 39 43  1  0  0  0  0
M  END
$$$$

  -OEChem-05262217303D

 43 42  0     1  0  0  0  0  0999 V2000
    3.6347   -2.1362    4.2384 C   0  0  0  0  0  0  0  0  0  0  0  0
    2.8230   -1.8865    5.1152 O   0  0  0  0  0  0  0  0  0  0  0  0
    4.7582   -3.1225    4.4958 C   0  0  0  0  0  0  0  0  0  0  0  0
    5.7238   -2.6445    4.3130 H   0  0  0  0  0  0  0  0  0  0  0  0
    4.7262   -3.4672    5.5333 H   0  0  0  0  0  0  0  0  0  0  0  0
    4.6558   -3.9861    3.8342 H   0  0  0  0  0  0  0  0  0  0  0  0
    3.5295   -1.5225    3.0086 N   0  0  0  0  0  0  0  0  0  0  0  0
    2.4124   -0.6594    2.6028 C   0  0  2  0  0  0  0  0  0  0  0  0
    2.2171   -0.6752    1.0709 C   0  0  0  0  0  0  0  0  0  0  0  0
    3.0169   -1.2669    0.3548 O   0  0  0  0  0  0  0  0  0  0  0  0
    2.6892    0.7643    3.1009 C   0  0  0  0  0  0  0  0  0  0  0  0
    4.1461   -1.8531    2.2664 H   0  0  0  0  0  0  0  0  0  0  0  0
    1.4840   -1.0261    3.0550 H   0  0  0  0  0  0  0  0  0  0  0  0
    3.6057    1.1565    2.6488 H   0  0  0  0  0  0  0  0  0  0  0  0
    1.8596    1.4308    2.8472 H   0  0  0  0  0  0  0  0  0  0  0  0
    2.8091    0.7694    4.1891 H   0  0  0  0  0  0  0  0  0  0  0  0
    1.1598   -0.0014    0.4878 N   0  0  0  0  0  0  0  0  0  0  0  0
    0.7302   -0.2020   -0.9111 C   0  0  2  0  0  0  0  0  0  0  0  0
    0.7884    1.0461   -1.8024 C   0  0  0  0  0  0  0  0  0  0  0  0
    0.3619    0.9950   -2.9489 O   0  0  0  0  0  0  0  0  0  0  0  0
   -0.7216   -0.6888   -0.8117 C   0  0  0  0  0  0  0  0  0  0  0  0
   -1.5678    0.3431   -0.2722 O   0  0  0  0  0  0  0  0  0  0  0  0
    0.4342    0.3251    1.1262 H   0  0  0  0  0  0  0  0  0  0  0  0
    1.3295   -0.9750   -1.4025 H   0  0  0  0  0  0  0  0  0  0  0  0
   -0.7733   -1.5785   -0.1754 H   0  0  0  0  0  0  0  0  0  0  0  0
   -1.0851   -0.9746   -1.8046 H   0  0  0  0  0  0  0  0  0  0  0  0
   -1.6043    1.1496   -0.8420 H   0  0  0  0  0  0  0  0  0  0  0  0
    1.2201    2.2512   -1.2748 N   0  0  0  0  0  0  0  0  0  0  0  0
    0.7842    3.5527   -1.8133 C   0  0  2  0  0  0  0  0  0  0  0  0
   -0.7587    3.6500   -1.9710 C   0  0  0  0  0  0  0  0  0  0  0  0
   -1.4919    3.0036   -1.2253 O   0  0  0  0  0  0  0  0  0  0  0  0
    1.5456    3.8636   -3.1123 C   0  0  0  0  0  0  0  0  0  0  0  0
    1.4374    2.2050   -0.2838 H   0  0  0  0  0  0  0  0  0  0  0  0
    1.0625    4.3210   -1.0861 H   0  0  0  0  0  0  0  0  0  0  0  0
    1.2050    3.2229   -3.9314 H   0  0  0  0  0  0  0  0  0  0  0  0
    1.3964    4.9071   -3.4041 H   0  0  0  0  0  0  0  0  0  0  0  0
    2.6180    3.6993   -2.9694 H   0  0  0  0  0  0  0  0  0  0  0  0
   -1.3338    4.4964   -2.9020 N   0  0  0  0  0  0  0  0  0  0  0  0
   -2.7708    4.5549   -3.1428 C   0  0  0  0  0  0  0  0  0  0  0  0
   -0.7111    4.9171   -3.5850 H   0  0  0  0  0  0  0  0  0  0  0  0
   -2.9956    5.3081   -3.9044 H   0  0  0  0  0  0  0  0  0  0  0  0
   -3.1395    3.5853   -3.4941 H   0  0  0  0  0  0  0  0  0  0  0  0
   -3.3046    4.8246   -2.2252 H   0  0  0  0  0  0  0  0  0  0  0  0
  1  2  2  0  0  0  0
  1  3  1  0  0  0  0
  1  7  1  0  0  0  0
  3  4  1  0  0  0  0
  3  5  1  0  0  0  0
  3  6  1  0  0  0  0
  7  8  1  0  0  0  0
  7 12  1  0  0  0  0
  8  9  1  0  0  0  0
  8 11  1  0  0  0  0
  8 13  1  0  0  0  0
  9 10  2  0  0  0  0
  9 17  1  0  0  0  0
 11 14  1  0  0  0  0
 11 15  1  0  0  0  0
 11 16  1  0  0  0  0
 17 18  1  0  0  0  0
 17 23  1  0  0  0  0
 18 19  1  0  0  0  0
 18 21  1  0  0  0  0
 18 24  1  0  0  0  0
 19 20  2  0  0  0  0
 19 28  1  0  0  0  0
 21 22  1  0  0  0  0
 21 25  1  0  0  0  0
 21 26  1  0  0  0  0
 22 27  1  0  0  0  0
 28 29  1  0  0  0  0
 28 33  1  0  0  0  0
 29 30  1  0  0  0  0
 29 32  1  0  0  0  0
 29 34  1  0  0  0  0
 30 31  2  0  0  0  0
 30 38  1  0  0  0  0
 32 35  1  0  0  0  0
 32 36  1  0  0  0  0
 32 37  1  0  0  0  0
 38 39  1  0  0  0  0
 38 40  1  0  0  0  0
 39 41  1  0  0  0  0
 39 42  1  0  0  0  0
 39 43  1  0  0  0  0
M  END
$$$$

  -OEChem-05262217303D

 43 42  0     1  0  0  0  0  0999 V2000
    3.5448   -2.0495    4.2500 C   0  0  0  0  0  0  0  0  0  0  0  0
    2.7314   -1.7232    5.0996 O   0  0  0  0  0  0  0  0  0  0  0  0
    4.5816   -3.1145    4.5553 C   0  0  0  0  0  0  0  0  0  0  0  0
    5.5867   -2.7061    4.4249 H   0  0  0  0  0  0  0  0  0  0  0  0
    4.4738   -3.4611    5.5870 H   0  0  0  0  0  0  0  0  0  0  0  0
    4.4509   -3.9655    3.8824 H   0  0  0  0  0  0  0  0  0  0  0  0
    3.5172   -1.4555    3.0058 N   0  0  0  0  0  0  0  0  0  0  0  0
    2.4688   -0.5318    2.5509 C   0  0  2  0  0  0  0  0  0  0  0  0
    2.2559   -0.6232    1.0246 C   0  0  0  0  0  0  0  0  0  0  0  0
    3.0488   -1.2451    0.3269 O   0  0  0  0  0  0  0  0  0  0  0  0
    2.8639    0.8922    2.9569 C   0  0  0  0  0  0  0  0  0  0  0  0
    4.1296   -1.8442    2.2891 H   0  0  0  0  0  0  0  0  0  0  0  0
    1.5175   -0.7919    3.0285 H   0  0  0  0  0  0  0  0  0  0  0  0
    3.8049    1.1801    2.4774 H   0  0  0  0  0  0  0  0  0  0  0  0
    2.0882    1.6061    2.6639 H   0  0  0  0  0  0  0  0  0  0  0  0
    2.9931    0.9547    4.0421 H   0  0  0  0  0  0  0  0  0  0  0  0
    1.1856    0.0112    0.4225 N   0  0  0  0  0  0  0  0  0  0  0  0
    0.7286   -0.2665   -0.9540 C   0  0  2  0  0  0  0  0  0  0  0  0
    0.7714    0.9470   -1.8964 C   0  0  0  0  0  0  0  0  0  0  0  0
    0.1029    0.9576   -2.9229 O   0  0  0  0  0  0  0  0  0  0  0  0
   -0.7144   -0.7661   -0.7946 C   0  0  0  0  0  0  0  0  0  0  0  0
   -1.5551    0.2859   -0.2900 O   0  0  0  0  0  0  0  0  0  0  0  0
    0.4806    0.4007    1.0494 H   0  0  0  0  0  0  0  0  0  0  0  0
    1.3263   -1.0564   -1.4195 H   0  0  0  0  0  0  0  0  0  0  0  0
   -0.7412   -1.6212   -0.1108 H   0  0  0  0  0  0  0  0  0  0  0  0
   -1.0981   -1.1087   -1.7615 H   0  0  0  0  0  0  0  0  0  0  0  0
   -1.5439    1.0779   -0.8711 H   0  0  0  0  0  0  0  0  0  0  0  0
    1.4904    2.0717   -1.5287 N   0  0  0  0  0  0  0  0  0  0  0  0
    1.1389    3.4221   -2.0052 C   0  0  2  0  0  0  0  0  0  0  0  0
   -0.3733    3.7378   -1.8359 C   0  0  0  0  0  0  0  0  0  0  0  0
   -0.9937    3.2527   -0.8931 O   0  0  0  0  0  0  0  0  0  0  0  0
    1.6458    3.6178   -3.4437 C   0  0  0  0  0  0  0  0  0  0  0  0
    1.9053    1.9998   -0.6039 H   0  0  0  0  0  0  0  0  0  0  0  0
    1.6692    4.1442   -1.3772 H   0  0  0  0  0  0  0  0  0  0  0  0
    1.0743    3.0081   -4.1502 H   0  0  0  0  0  0  0  0  0  0  0  0
    1.5591    4.6671   -3.7412 H   0  0  0  0  0  0  0  0  0  0  0  0
    2.6991    3.3289   -3.5136 H   0  0  0  0  0  0  0  0  0  0  0  0
   -1.0388    4.5803   -2.7086 N   0  0  0  0  0  0  0  0  0  0  0  0
   -2.4791    4.8002   -2.6515 C   0  0  0  0  0  0  0  0  0  0  0  0
   -0.5414    4.8501   -3.5519 H   0  0  0  0  0  0  0  0  0  0  0  0
   -2.7881    5.4910   -3.4420 H   0  0  0  0  0  0  0  0  0  0  0  0
   -3.0161    3.8554   -2.7880 H   0  0  0  0  0  0  0  0  0  0  0  0
   -2.7640    5.2318   -1.6861 H   0  0  0  0  0  0  0  0  0  0  0  0
  1  2  2  0  0  0  0
  1  3  1  0  0  0  0
  1  7  1  0  0  0  0
  3  4  1  0  0  0  0
  3  5  1  0  0  0  0
  3  6  1  0  0  0  0
  7  8  1  0  0  0  0
  7 12  1  0  0  0  0
  8  9  1  0  0  0  0
  8 11  1  0  0  0  0
  8 13  1  0  0  0  0
  9 10  2  0  0  0  0
  9 17  1  0  0  0  0
 11 14  1  0  0  0  0
 11 15  1  0  0  0  0
 11 16  1  0  0  0  0
 17 18  1  0  0  0  0
 17 23  1  0  0  0  0
 18 19  1  0  0  0  0
 18 21  1  0  0  0  0
 18 24  1  0  0  0  0
 19 20  2  0  0  0  0
 19 28  1  0  0  0  0
 21 22  1  0  0  0  0
 21 25  1  0  0  0  0
 21 26  1  0  0  0  0
 22 27  1  0  0  0  0
 28 29  1  0  0  0  0
 28 33  1  0  0  0  0
 29 30  1  0  0  0  0
 29 32  1  0  0  0  0
 29 34  1  0  0  0  0
 30 31  2  0  0  0  0
 30 38  1  0  0  0  0
 32 35  1  0  0  0  0
 32 36  1  0  0  0  0
 32 37  1  0  0  0  0
 38 39  1  0  0  0  0
 38 40  1  0  0  0  0
 39 41  1  0  0  0  0
 39 42  1  0  0  0  0
 39 43  1  0  0  0  0
M  END
$$$$

  -OEChem-05262217303D

 43 42  0     1  0  0  0  0  0999 V2000
    3.4693   -2.0096    4.1325 C   0  0  0  0  0  0  0  0  0  0  0  0
    2.6093   -1.7733    4.9658 O   0  0  0  0  0  0  0  0  0  0  0  0
    4.5389   -3.0481    4.4141 C   0  0  0  0  0  0  0  0  0  0  0  0
    5.5304   -2.6169    4.2557 H   0  0  0  0  0  0  0  0  0  0  0  0
    4.4667   -3.3918    5.4498 H   0  0  0  0  0  0  0  0  0  0  0  0
    4.4108   -3.9051    3.7482 H   0  0  0  0  0  0  0  0  0  0  0  0
    3.4572   -1.3455    2.9240 N   0  0  0  0  0  0  0  0  0  0  0  0
    2.3806   -0.4475    2.4851 C   0  0  2  0  0  0  0  0  0  0  0  0
    2.1799   -0.5062    0.9560 C   0  0  0  0  0  0  0  0  0  0  0  0
    3.0177   -1.0404    0.2387 O   0  0  0  0  0  0  0  0  0  0  0  0
    2.7243    0.9762    2.9356 C   0  0  0  0  0  0  0  0  0  0  0  0
    4.1162   -1.6594    2.2123 H   0  0  0  0  0  0  0  0  0  0  0  0
    1.4351   -0.7516    2.9480 H   0  0  0  0  0  0  0  0  0  0  0  0
    3.6621    1.3081    2.4787 H   0  0  0  0  0  0  0  0  0  0  0  0
    1.9301    1.6735    2.6520 H   0  0  0  0  0  0  0  0  0  0  0  0
    2.8368    1.0110    4.0241 H   0  0  0  0  0  0  0  0  0  0  0  0
    1.0739    0.0749    0.3649 N   0  0  0  0  0  0  0  0  0  0  0  0
    0.6325   -0.2037   -1.0168 C   0  0  2  0  0  0  0  0  0  0  0  0
    0.6229    1.0641   -1.8937 C   0  0  0  0  0  0  0  0  0  0  0  0
   -0.2526    1.2411   -2.7341 O   0  0  0  0  0  0  0  0  0  0  0  0
   -0.7543   -0.8539   -0.9230 C   0  0  0  0  0  0  0  0  0  0  0  0
   -1.7054    0.0823   -0.4024 O   0  0  0  0  0  0  0  0  0  0  0  0
    0.3507    0.4076    1.0026 H   0  0  0  0  0  0  0  0  0  0  0  0
    1.3039   -0.9174   -1.5046 H   0  0  0  0  0  0  0  0  0  0  0  0
   -0.7053   -1.7308   -0.2687 H   0  0  0  0  0  0  0  0  0  0  0  0
   -1.0772   -1.1978   -1.9114 H   0  0  0  0  0  0  0  0  0  0  0  0
   -1.9013    0.7585   -1.0808 H   0  0  0  0  0  0  0  0  0  0  0  0
    1.5321    2.0713   -1.6171 N   0  0  0  0  0  0  0  0  0  0  0  0
    1.6388    3.3966   -2.2602 C   0  0  2  0  0  0  0  0  0  0  0  0
    0.4460    4.3372   -1.9758 C   0  0  0  0  0  0  0  0  0  0  0  0
    0.6377    5.3941   -1.3901 O   0  0  0  0  0  0  0  0  0  0  0  0
    1.8953    3.2656   -3.7680 C   0  0  0  0  0  0  0  0  0  0  0  0
    2.1898    1.8565   -0.8709 H   0  0  0  0  0  0  0  0  0  0  0  0
    2.5195    3.8875   -1.8330 H   0  0  0  0  0  0  0  0  0  0  0  0
    1.0220    2.8625   -4.2889 H   0  0  0  0  0  0  0  0  0  0  0  0
    2.1227    4.2478   -4.1946 H   0  0  0  0  0  0  0  0  0  0  0  0
    2.7465    2.6031   -3.9519 H   0  0  0  0  0  0  0  0  0  0  0  0
   -0.8393    3.9871   -2.3379 N   0  0  0  0  0  0  0  0  0  0  0  0
   -2.0206    4.7733   -2.0110 C   0  0  0  0  0  0  0  0  0  0  0  0
   -0.9506    3.0556   -2.7453 H   0  0  0  0  0  0  0  0  0  0  0  0
   -2.9174    4.2886   -2.4086 H   0  0  0  0  0  0  0  0  0  0  0  0
   -2.1286    4.8679   -0.9255 H   0  0  0  0  0  0  0  0  0  0  0  0
   -1.9475    5.7751   -2.4468 H   0  0  0  0  0  0  0  0  0  0  0  0
  1  2  2  0  0  0  0
  1  3  1  0  0  0  0
  1  7  1  0  0  0  0
  3  4  1  0  0  0  0
  3  5  1  0  0  0  0
  3  6  1  0  0  0  0
  7  8  1  0  0  0  0
  7 12  1  0  0  0  0
  8  9  1  0  0  0  0
  8 11  1  0  0  0  0
  8 13  1  0  0  0  0
  9 10  2  0  0  0  0
  9 17  1  0  0  0  0
 11 14  1  0  0  0  0
 11 15  1  0  0  0  0
 11 16  1  0  0  0  0
 17 18  1  0  0  0  0
 17 23  1  0  0  0  0
 18 19  1  0  0  0  0
 18 21  1  0  0  0  0
 18 24  1  0  0  0  0
 19 20  2  0  0  0  0
 19 28  1  0  0  0  0
 21 22  1  0  0  0  0
 21 25  1  0  0  0  0
 21 26  1  0  0  0  0
 22 27  1  0  0  0  0
 28 29  1  0  0  0  0
 28 33  1  0  0  0  0
 29 30  1  0  0  0  0
 29 32  1  0  0  0  0
 29 34  1  0  0  0  0
 30 31  2  0  0  0  0
 30 38  1  0  0  0  0
 32 35  1  0  0  0  0
 32 36  1  0  0  0  0
 32 37  1  0  0  0  0
 38 39  1  0  0  0  0
 38 40  1  0  0  0  0
 39 41  1  0  0  0  0
 39 42  1  0  0  0  0
 39 43  1  0  0  0  0
M  END
$$$$

  -OEChem-05262217303D

 43 42  0     1  0  0  0  0  0999 V2000
    3.4522   -1.8768    4.1433 C   0  0  0  0  0  0  0  0  0  0  0  0
    2.5939   -1.6099    4.9688 O   0  0  0  0  0  0  0  0  0  0  0  0
    4.5375   -2.8846    4.4708 C   0  0  0  0  0  0  0  0  0  0  0  0
    5.5226   -2.4291    4.3435 H   0  0  0  0  0  0  0  0  0  0  0  0
    4.4375   -3.2226    5.5062 H   0  0  0  0  0  0  0  0  0  0  0  0
    4.4547   -3.7493    3.8082 H   0  0  0  0  0  0  0  0  0  0  0  0
    3.4243   -1.2742    2.9033 N   0  0  0  0  0  0  0  0  0  0  0  0
    2.3428   -0.3987    2.4329 C   0  0  2  0  0  0  0  0  0  0  0  0
    2.1392   -0.5133    0.9075 C   0  0  0  0  0  0  0  0  0  0  0  0
    2.9799   -1.0617    0.2039 O   0  0  0  0  0  0  0  0  0  0  0  0
    2.6829    1.0421    2.8275 C   0  0  0  0  0  0  0  0  0  0  0  0
    4.0887   -1.6062    2.2053 H   0  0  0  0  0  0  0  0  0  0  0  0
    1.3995   -0.6891    2.9090 H   0  0  0  0  0  0  0  0  0  0  0  0
    3.6226    1.3557    2.3617 H   0  0  0  0  0  0  0  0  0  0  0  0
    1.8907    1.7274    2.5113 H   0  0  0  0  0  0  0  0  0  0  0  0
    2.7897    1.1208    3.9143 H   0  0  0  0  0  0  0  0  0  0  0  0
    1.0319    0.0436    0.2979 N   0  0  0  0  0  0  0  0  0  0  0  0
    0.5864   -0.2880   -1.0691 C   0  0  2  0  0  0  0  0  0  0  0  0
    0.5818    0.9579   -1.9766 C   0  0  0  0  0  0  0  0  0  0  0  0
   -0.4092    1.2696   -2.6308 O   0  0  0  0  0  0  0  0  0  0  0  0
   -0.7964   -0.9444   -0.9510 C   0  0  0  0  0  0  0  0  0  0  0  0
   -1.7534    0.0019   -0.4625 O   0  0  0  0  0  0  0  0  0  0  0  0
    0.3142    0.4092    0.9234 H   0  0  0  0  0  0  0  0  0  0  0  0
    1.2590   -1.0150   -1.5355 H   0  0  0  0  0  0  0  0  0  0  0  0
   -0.7426   -1.7999   -0.2693 H   0  0  0  0  0  0  0  0  0  0  0  0
   -1.1171   -1.3194   -1.9286 H   0  0  0  0  0  0  0  0  0  0  0  0
   -1.8959    0.6892   -1.1457 H   0  0  0  0  0  0  0  0  0  0  0  0
    1.6782    1.8023   -1.9268 N   0  0  0  0  0  0  0  0  0  0  0  0
    1.8547    3.0960   -2.6166 C   0  0  2  0  0  0  0  0  0  0  0  0
    0.9252    4.2180   -2.1021 C   0  0  0  0  0  0  0  0  0  0  0  0
    1.4122    5.2394   -1.6367 O   0  0  0  0  0  0  0  0  0  0  0  0
    1.7402    2.9383   -4.1397 C   0  0  0  0  0  0  0  0  0  0  0  0
    2.4250    1.4962   -1.3055 H   0  0  0  0  0  0  0  0  0  0  0  0
    2.8773    3.4296   -2.4102 H   0  0  0  0  0  0  0  0  0  0  0  0
    0.7154    2.7043   -4.4420 H   0  0  0  0  0  0  0  0  0  0  0  0
    2.0356    3.8691   -4.6343 H   0  0  0  0  0  0  0  0  0  0  0  0
    2.3974    2.1364   -4.4891 H   0  0  0  0  0  0  0  0  0  0  0  0
   -0.4478    4.0766   -2.1355 N   0  0  0  0  0  0  0  0  0  0  0  0
   -1.3824    5.0678   -1.6205 C   0  0  0  0  0  0  0  0  0  0  0  0
   -0.7995    3.1792   -2.4769 H   0  0  0  0  0  0  0  0  0  0  0  0
   -2.4125    4.7356   -1.7821 H   0  0  0  0  0  0  0  0  0  0  0  0
   -1.2295    5.2160   -0.5465 H   0  0  0  0  0  0  0  0  0  0  0  0
   -1.2446    6.0261   -2.1321 H   0  0  0  0  0  0  0  0  0  0  0  0
  1  2  2  0  0  0  0
  1  3  1  0  0  0  0
  1  7  1  0  0  0  0
  3  4  1  0  0  0  0
  3  5  1  0  0  0  0
  3  6  1  0  0  0  0
  7  8  1  0  0  0  0
  7 12  1  0  0  0  0
  8  9  1  0  0  0  0
  8 11  1  0  0  0  0
  8 13  1  0  0  0  0
  9 10  2  0  0  0  0
  9 17  1  0  0  0  0
 11 14  1  0  0  0  0
 11 15  1  0  0  0  0
 11 16  1  0  0  0  0
 17 18  1  0  0  0  0
 17 23  1  0  0  0  0
 18 19  1  0  0  0  0
 18 21  1  0  0  0  0
 18 24  1  0  0  0  0
 19 20  2  0  0  0  0
 19 28  1  0  0  0  0
 21 22  1  0  0  0  0
 21 25  1  0  0  0  0
 21 26  1  0  0  0  0
 22 27  1  0  0  0  0
 28 29  1  0  0  0  0
 28 33  1  0  0  0  0
 29 30  1  0  0  0  0
 29 32  1  0  0  0  0
 29 34  1  0  0  0  0
 30 31  2  0  0  0  0
 30 38  1  0  0  0  0
 32 35  1  0  0  0  0
 32 36  1  0  0  0  0
 32 37  1  0  0  0  0
 38 39  1  0  0  0  0
 38 40  1  0  0  0  0
 39 41  1  0  0  0  0
 39 42  1  0  0  0  0
 39 43  1  0  0  0  0
M  END
$$$$

  -OEChem-05262217303D

 43 42  0     1  0  0  0  0  0999 V2000
    3.4776   -1.8491    4.1146 C   0  0  0  0  0  0  0  0  0  0  0  0
    2.6052   -1.6342    4.9407 O   0  0  0  0  0  0  0  0  0  0  0  0
    4.6099   -2.8073    4.4319 C   0  0  0  0  0  0  0  0  0  0  0  0
    5.5669   -2.2819    4.3850 H   0  0  0  0  0  0  0  0  0  0  0  0
    4.4835   -3.2202    5.4366 H   0  0  0  0  0  0  0  0  0  0  0  0
    4.6171   -3.6293    3.7120 H   0  0  0  0  0  0  0  0  0  0  0  0
    3.4301   -1.2260    2.8853 N   0  0  0  0  0  0  0  0  0  0  0  0
    2.3155   -0.3864    2.4265 C   0  0  2  0  0  0  0  0  0  0  0  0
    2.1068   -0.4984    0.9015 C   0  0  0  0  0  0  0  0  0  0  0  0
    2.9510   -1.0343    0.1913 O   0  0  0  0  0  0  0  0  0  0  0  0
    2.6057    1.0623    2.8321 C   0  0  0  0  0  0  0  0  0  0  0  0
    4.1067   -1.5237    2.1833 H   0  0  0  0  0  0  0  0  0  0  0  0
    1.3856   -0.7137    2.9052 H   0  0  0  0  0  0  0  0  0  0  0  0
    3.5290    1.4145    2.3613 H   0  0  0  0  0  0  0  0  0  0  0  0
    1.7855    1.7200    2.5292 H   0  0  0  0  0  0  0  0  0  0  0  0
    2.7197    1.1357    3.9186 H   0  0  0  0  0  0  0  0  0  0  0  0
    0.9886    0.0425    0.2977 N   0  0  0  0  0  0  0  0  0  0  0  0
    0.5369   -0.3120   -1.0596 C   0  0  2  0  0  0  0  0  0  0  0  0
    0.5156    0.9230   -1.9801 C   0  0  0  0  0  0  0  0  0  0  0  0
   -0.5286    1.3528   -2.4629 O   0  0  0  0  0  0  0  0  0  0  0  0
   -0.8361   -0.9846   -0.9183 C   0  0  0  0  0  0  0  0  0  0  0  0
   -1.8022   -0.0466   -0.4321 O   0  0  0  0  0  0  0  0  0  0  0  0
    0.2706    0.4015    0.9265 H   0  0  0  0  0  0  0  0  0  0  0  0
    1.2096   -1.0414   -1.5220 H   0  0  0  0  0  0  0  0  0  0  0  0
   -0.7653   -1.8337   -0.2304 H   0  0  0  0  0  0  0  0  0  0  0  0
   -1.1600   -1.3701   -1.8909 H   0  0  0  0  0  0  0  0  0  0  0  0
   -1.9073    0.6682   -1.0958 H   0  0  0  0  0  0  0  0  0  0  0  0
    1.7107    1.5917   -2.1834 N   0  0  0  0  0  0  0  0  0  0  0  0
    1.9365    2.8168   -2.9773 C   0  0  2  0  0  0  0  0  0  0  0  0
    1.2864    4.0916   -2.3926 C   0  0  0  0  0  0  0  0  0  0  0  0
    1.9795    5.0771   -2.1790 O   0  0  0  0  0  0  0  0  0  0  0  0
    1.5266    2.6143   -4.4426 C   0  0  0  0  0  0  0  0  0  0  0  0
    2.5090    1.2055   -1.6810 H   0  0  0  0  0  0  0  0  0  0  0  0
    3.0161    3.0006   -2.9747 H   0  0  0  0  0  0  0  0  0  0  0  0
    0.4419    2.5164   -4.5434 H   0  0  0  0  0  0  0  0  0  0  0  0
    1.8473    3.4722   -5.0420 H   0  0  0  0  0  0  0  0  0  0  0  0
    1.9976    1.7139   -4.8482 H   0  0  0  0  0  0  0  0  0  0  0  0
   -0.0619    4.1382   -2.0989 N   0  0  0  0  0  0  0  0  0  0  0  0
   -0.7375    5.3051   -1.5484 C   0  0  0  0  0  0  0  0  0  0  0  0
   -0.5942    3.2844   -2.2812 H   0  0  0  0  0  0  0  0  0  0  0  0
   -1.7982    5.0883   -1.3901 H   0  0  0  0  0  0  0  0  0  0  0  0
   -0.2947    5.5866   -0.5873 H   0  0  0  0  0  0  0  0  0  0  0  0
   -0.6565    6.1533   -2.2362 H   0  0  0  0  0  0  0  0  0  0  0  0
  1  2  2  0  0  0  0
  1  3  1  0  0  0  0
  1  7  1  0  0  0  0
  3  4  1  0  0  0  0
  3  5  1  0  0  0  0
  3  6  1  0  0  0  0
  7  8  1  0  0  0  0
  7 12  1  0  0  0  0
  8  9  1  0  0  0  0
  8 11  1  0  0  0  0
  8 13  1  0  0  0  0
  9 10  2  0  0  0  0
  9 17  1  0  0  0  0
 11 14  1  0  0  0  0
 11 15  1  0  0  0  0
 11 16  1  0  0  0  0
 17 18  1  0  0  0  0
 17 23  1  0  0  0  0
 18 19  1  0  0  0  0
 18 21  1  0  0  0  0
 18 24  1  0  0  0  0
 19 20  2  0  0  0  0
 19 28  1  0  0  0  0
 21 22  1  0  0  0  0
 21 25  1  0  0  0  0
 21 26  1  0  0  0  0
 22 27  1  0  0  0  0
 28 29  1  0  0  0  0
 28 33  1  0  0  0  0
 29 30  1  0  0  0  0
 29 32  1  0  0  0  0
 29 34  1  0  0  0  0
 30 31  2  0  0  0  0
 30 38  1  0  0  0  0
 32 35  1  0  0  0  0
 32 36  1  0  0  0  0
 32 37  1  0  0  0  0
 38 39  1  0  0  0  0
 38 40  1  0  0  0  0
 39 41  1  0  0  0  0
 39 42  1  0  0  0  0
 39 43  1  0  0  0  0
M  END
$$$$

  -OEChem-05262217303D

 43 42  0     1  0  0  0  0  0999 V2000
    3.4850   -1.6854    4.1271 C   0  0  0  0  0  0  0  0  0  0  0  0
    2.6349   -1.4087    4.9579 O   0  0  0  0  0  0  0  0  0  0  0  0
    4.6282   -2.6161    4.4855 C   0  0  0  0  0  0  0  0  0  0  0  0
    5.5808   -2.0897    4.3892 H   0  0  0  0  0  0  0  0  0  0  0  0
    4.5212   -2.9660    5.5161 H   0  0  0  0  0  0  0  0  0  0  0  0
    4.6291   -3.4813    3.8183 H   0  0  0  0  0  0  0  0  0  0  0  0
    3.4037   -1.1563    2.8563 N   0  0  0  0  0  0  0  0  0  0  0  0
    2.2811   -0.3458    2.3653 C   0  0  2  0  0  0  0  0  0  0  0  0
    2.0471   -0.5484    0.8533 C   0  0  0  0  0  0  0  0  0  0  0  0
    2.8752   -1.1356    0.1643 O   0  0  0  0  0  0  0  0  0  0  0  0
    2.5778    1.1257    2.6742 C   0  0  0  0  0  0  0  0  0  0  0  0
    4.0638   -1.5034    2.1616 H   0  0  0  0  0  0  0  0  0  0  0  0
    1.3597   -0.6429    2.8784 H   0  0  0  0  0  0  0  0  0  0  0  0
    3.4916    1.4478    2.1649 H   0  0  0  0  0  0  0  0  0  0  0  0
    1.7522    1.7638    2.3453 H   0  0  0  0  0  0  0  0  0  0  0  0
    2.7116    1.2670    3.7516 H   0  0  0  0  0  0  0  0  0  0  0  0
    0.9281   -0.0238    0.2359 N   0  0  0  0  0  0  0  0  0  0  0  0
    0.4876   -0.3864   -1.1216 C   0  0  2  0  0  0  0  0  0  0  0  0
    0.4596    0.8456   -2.0457 C   0  0  0  0  0  0  0  0  0  0  0  0
   -0.5896    1.4189   -2.3269 O   0  0  0  0  0  0  0  0  0  0  0  0
   -0.8781   -1.0782   -0.9894 C   0  0  0  0  0  0  0  0  0  0  0  0
   -1.8658   -0.1592   -0.5097 O   0  0  0  0  0  0  0  0  0  0  0  0
    0.2182    0.3743    0.8498 H   0  0  0  0  0  0  0  0  0  0  0  0
    1.1702   -1.1104   -1.5773 H   0  0  0  0  0  0  0  0  0  0  0  0
   -0.8012   -1.9297   -0.3050 H   0  0  0  0  0  0  0  0  0  0  0  0
   -1.1879   -1.4644   -1.9663 H   0  0  0  0  0  0  0  0  0  0  0  0
   -1.9235    0.5969   -1.1346 H   0  0  0  0  0  0  0  0  0  0  0  0
    1.6711    1.3373   -2.5017 N   0  0  0  0  0  0  0  0  0  0  0  0
    1.8992    2.5304   -3.3432 C   0  0  2  0  0  0  0  0  0  0  0  0
    1.5841    3.8754   -2.6496 C   0  0  0  0  0  0  0  0  0  0  0  0
    2.4205    4.7683   -2.6585 O   0  0  0  0  0  0  0  0  0  0  0  0
    1.1603    2.4198   -4.6846 C   0  0  0  0  0  0  0  0  0  0  0  0
    2.4948    0.8682   -2.1275 H   0  0  0  0  0  0  0  0  0  0  0  0
    2.9694    2.5538   -3.5743 H   0  0  0  0  0  0  0  0  0  0  0  0
    0.0776    2.5011   -4.5517 H   0  0  0  0  0  0  0  0  0  0  0  0
    1.4807    3.2237   -5.3549 H   0  0  0  0  0  0  0  0  0  0  0  0
    1.3826    1.4618   -5.1641 H   0  0  0  0  0  0  0  0  0  0  0  0
    0.3769    4.0881   -2.0143 N   0  0  0  0  0  0  0  0  0  0  0  0
    0.0029    5.3407   -1.3725 C   0  0  0  0  0  0  0  0  0  0  0  0
   -0.2998    3.3232   -2.0624 H   0  0  0  0  0  0  0  0  0  0  0  0
   -0.9909    5.2525   -0.9231 H   0  0  0  0  0  0  0  0  0  0  0  0
    0.7180    5.5961   -0.5836 H   0  0  0  0  0  0  0  0  0  0  0  0
   -0.0184    6.1536   -2.1056 H   0  0  0  0  0  0  0  0  0  0  0  0
  1  2  2  0  0  0  0
  1  3  1  0  0  0  0
  1  7  1  0  0  0  0
  3  4  1  0  0  0  0
  3  5  1  0  0  0  0
  3  6  1  0  0  0  0
  7  8  1  0  0  0  0
  7 12  1  0  0  0  0
  8  9  1  0  0  0  0
  8 11  1  0  0  0  0
  8 13  1  0  0  0  0
  9 10  2  0  0  0  0
  9 17  1  0  0  0  0
 11 14  1  0  0  0  0
 11 15  1  0  0  0  0
 11 16  1  0  0  0  0
 17 18  1  0  0  0  0
 17 23  1  0  0  0  0
 18 19  1  0  0  0  0
 18 21  1  0  0  0  0
 18 24  1  0  0  0  0
 19 20  2  0  0  0  0
 19 28  1  0  0  0  0
 21 22  1  0  0  0  0
 21 25  1  0  0  0  0
 21 26  1  0  0  0  0
 22 27  1  0  0  0  0
 28 29  1  0  0  0  0
 28 33  1  0  0  0  0
 29 30  1  0  0  0  0
 29 32  1  0  0  0  0
 29 34  1  0  0  0  0
 30 31  2  0  0  0  0
 30 38  1  0  0  0  0
 32 35  1  0  0  0  0
 32 36  1  0  0  0  0
 32 37  1  0  0  0  0
 38 39  1  0  0  0  0
 38 40  1  0  0  0  0
 39 41  1  0  0  0  0
 39 42  1  0  0  0  0
 39 43  1  0  0  0  0
M  END
$$$$

  -OEChem-05262217303D

 43 42  0     1  0  0  0  0  0999 V2000
    3.5181   -1.5466    4.1320 C   0  0  0  0  0  0  0  0  0  0  0  0
    2.7107   -1.1614    4.9623 O   0  0  0  0  0  0  0  0  0  0  0  0
    4.6318   -2.4947    4.5337 C   0  0  0  0  0  0  0  0  0  0  0  0
    5.6001   -2.0734    4.2534 H   0  0  0  0  0  0  0  0  0  0  0  0
    4.6182   -2.6552    5.6153 H   0  0  0  0  0  0  0  0  0  0  0  0
    4.5014   -3.4568    4.0328 H   0  0  0  0  0  0  0  0  0  0  0  0
    3.4133   -1.1255    2.8232 N   0  0  0  0  0  0  0  0  0  0  0  0
    2.3174   -0.2973    2.3033 C   0  0  2  0  0  0  0  0  0  0  0  0
    2.0384   -0.5825    0.8128 C   0  0  0  0  0  0  0  0  0  0  0  0
    2.8386   -1.2226    0.1381 O   0  0  0  0  0  0  0  0  0  0  0  0
    2.6868    1.1761    2.5063 C   0  0  0  0  0  0  0  0  0  0  0  0
    4.0414   -1.5476    2.1406 H   0  0  0  0  0  0  0  0  0  0  0  0
    1.3969   -0.5176    2.8551 H   0  0  0  0  0  0  0  0  0  0  0  0
    3.6048    1.4194    1.9617 H   0  0  0  0  0  0  0  0  0  0  0  0
    1.8852    1.8290    2.1475 H   0  0  0  0  0  0  0  0  0  0  0  0
    2.8472    1.3839    3.5692 H   0  0  0  0  0  0  0  0  0  0  0  0
    0.9064   -0.0793    0.2010 N   0  0  0  0  0  0  0  0  0  0  0  0
    0.4601   -0.4462   -1.1525 C   0  0  2  0  0  0  0  0  0  0  0  0
    0.3992    0.7826   -2.0807 C   0  0  0  0  0  0  0  0  0  0  0  0
   -0.6118    1.4763   -2.1556 O   0  0  0  0  0  0  0  0  0  0  0  0
   -0.8943   -1.1581   -1.0099 C   0  0  0  0  0  0  0  0  0  0  0  0
   -1.8934   -0.2567   -0.5200 O   0  0  0  0  0  0  0  0  0  0  0  0
    0.2146    0.3591    0.8076 H   0  0  0  0  0  0  0  0  0  0  0  0
    1.1489   -1.1625   -1.6110 H   0  0  0  0  0  0  0  0  0  0  0  0
   -0.7997   -2.0113   -0.3300 H   0  0  0  0  0  0  0  0  0  0  0  0
   -1.2059   -1.5443   -1.9862 H   0  0  0  0  0  0  0  0  0  0  0  0
   -1.9116    0.5426   -1.0925 H   0  0  0  0  0  0  0  0  0  0  0  0
    1.5314    1.1162   -2.8057 N   0  0  0  0  0  0  0  0  0  0  0  0
    1.7197    2.2952   -3.6766 C   0  0  2  0  0  0  0  0  0  0  0  0
    1.7102    3.6484   -2.9286 C   0  0  0  0  0  0  0  0  0  0  0  0
    2.6960    4.3712   -2.9787 O   0  0  0  0  0  0  0  0  0  0  0  0
    0.7176    2.3005   -4.8399 C   0  0  0  0  0  0  0  0  0  0  0  0
    2.3615    0.5673   -2.5881 H   0  0  0  0  0  0  0  0  0  0  0  0
    2.7160    2.2040   -4.1218 H   0  0  0  0  0  0  0  0  0  0  0  0
   -0.3025    2.4817   -4.4897 H   0  0  0  0  0  0  0  0  0  0  0  0
    0.9768    3.0907   -5.5515 H   0  0  0  0  0  0  0  0  0  0  0  0
    0.7399    1.3412   -5.3652 H   0  0  0  0  0  0  0  0  0  0  0  0
    0.6164    4.0470   -2.1861 N   0  0  0  0  0  0  0  0  0  0  0  0
    0.5651    5.2757   -1.4059 C   0  0  0  0  0  0  0  0  0  0  0  0
   -0.1458    3.3696   -2.1082 H   0  0  0  0  0  0  0  0  0  0  0  0
   -0.4308    5.4046   -0.9710 H   0  0  0  0  0  0  0  0  0  0  0  0
    1.2987    5.2427   -0.5940 H   0  0  0  0  0  0  0  0  0  0  0  0
    0.7786    6.1427   -2.0401 H   0  0  0  0  0  0  0  0  0  0  0  0
  1  2  2  0  0  0  0
  1  3  1  0  0  0  0
  1  7  1  0  0  0  0
  3  4  1  0  0  0  0
  3  5  1  0  0  0  0
  3  6  1  0  0  0  0
  7  8  1  0  0  0  0
  7 12  1  0  0  0  0
  8  9  1  0  0  0  0
  8 11  1  0  0  0  0
  8 13  1  0  0  0  0
  9 10  2  0  0  0  0
  9 17  1  0  0  0  0
 11 14  1  0  0  0  0
 11 15  1  0  0  0  0
 11 16  1  0  0  0  0
 17 18  1  0  0  0  0
 17 23  1  0  0  0  0
 18 19  1  0  0  0  0
 18 21  1  0  0  0  0
 18 24  1  0  0  0  0
 19 20  2  0  0  0  0
 19 28  1  0  0  0  0
 21 22  1  0  0  0  0
 21 25  1  0  0  0  0
 21 26  1  0  0  0  0
 22 27  1  0  0  0  0
 28 29  1  0  0  0  0
 28 33  1  0  0  0  0
 29 30  1  0  0  0  0
 29 32  1  0  0  0  0
 29 34  1  0  0  0  0
 30 31  2  0  0  0  0
 30 38  1  0  0  0  0
 32 35  1  0  0  0  0
 32 36  1  0  0  0  0
 32 37  1  0  0  0  0
 38 39  1  0  0  0  0
 38 40  1  0  0  0  0
 39 41  1  0  0  0  0
 39 42  1  0  0  0  0
 39 43  1  0  0  0  0
M  END
$$$$

  -OEChem-05262217303D

 43 42  0     1  0  0  0  0  0999 V2000
    3.5521   -1.4925    4.1218 C   0  0  0  0  0  0  0  0  0  0  0  0
    2.7576   -1.1000    4.9613 O   0  0  0  0  0  0  0  0  0  0  0  0
    4.6854   -2.4194    4.5193 C   0  0  0  0  0  0  0  0  0  0  0  0
    5.6452   -1.9753    4.2442 H   0  0  0  0  0  0  0  0  0  0  0  0
    4.6727   -2.5880    5.5998 H   0  0  0  0  0  0  0  0  0  0  0  0
    4.5770   -3.3806    4.0113 H   0  0  0  0  0  0  0  0  0  0  0  0
    3.4161   -1.0967    2.8080 N   0  0  0  0  0  0  0  0  0  0  0  0
    2.3009   -0.2906    2.2939 C   0  0  2  0  0  0  0  0  0  0  0  0
    2.0095   -0.5986    0.8099 C   0  0  0  0  0  0  0  0  0  0  0  0
    2.8020   -1.2551    0.1416 O   0  0  0  0  0  0  0  0  0  0  0  0
    2.6494    1.1906    2.4772 C   0  0  0  0  0  0  0  0  0  0  0  0
    4.0320   -1.5283    2.1200 H   0  0  0  0  0  0  0  0  0  0  0  0
    1.3908   -0.5184    2.8597 H   0  0  0  0  0  0  0  0  0  0  0  0
    3.5529    1.4445    1.9135 H   0  0  0  0  0  0  0  0  0  0  0  0
    1.8300    1.8262    2.1282 H   0  0  0  0  0  0  0  0  0  0  0  0
    2.8259    1.4104    3.5351 H   0  0  0  0  0  0  0  0  0  0  0  0
    0.8697   -0.1106    0.2002 N   0  0  0  0  0  0  0  0  0  0  0  0
    0.4309   -0.4722   -1.1571 C   0  0  2  0  0  0  0  0  0  0  0  0
    0.3441    0.7549   -2.0844 C   0  0  0  0  0  0  0  0  0  0  0  0
   -0.5774    1.5591   -1.9714 O   0  0  0  0  0  0  0  0  0  0  0  0
   -0.9177   -1.1963   -1.0299 C   0  0  0  0  0  0  0  0  0  0  0  0
   -1.9287   -0.3077   -0.5391 O   0  0  0  0  0  0  0  0  0  0  0  0
    0.1849    0.3477    0.7997 H   0  0  0  0  0  0  0  0  0  0  0  0
    1.1303   -1.1780   -1.6153 H   0  0  0  0  0  0  0  0  0  0  0  0
   -0.8206   -2.0555   -0.3575 H   0  0  0  0  0  0  0  0  0  0  0  0
   -1.2189   -1.5759   -2.0120 H   0  0  0  0  0  0  0  0  0  0  0  0
   -1.9101    0.5285   -1.0568 H   0  0  0  0  0  0  0  0  0  0  0  0
    1.3267    0.9469   -3.0418 N   0  0  0  0  0  0  0  0  0  0  0  0
    1.4435    2.0770   -3.9873 C   0  0  2  0  0  0  0  0  0  0  0  0
    1.7428    3.4412   -3.3234 C   0  0  0  0  0  0  0  0  0  0  0  0
    2.7253    4.0788   -3.6771 O   0  0  0  0  0  0  0  0  0  0  0  0
    0.2169    2.1688   -4.9063 C   0  0  0  0  0  0  0  0  0  0  0  0
    2.1217    0.3134   -2.9835 H   0  0  0  0  0  0  0  0  0  0  0  0
    2.3025    1.8620   -4.6317 H   0  0  0  0  0  0  0  0  0  0  0  0
   -0.6733    2.4829   -4.3541 H   0  0  0  0  0  0  0  0  0  0  0  0
    0.3991    2.9007   -5.6995 H   0  0  0  0  0  0  0  0  0  0  0  0
    0.0159    1.1988   -5.3708 H   0  0  0  0  0  0  0  0  0  0  0  0
    0.9342    3.9470   -2.3250 N   0  0  0  0  0  0  0  0  0  0  0  0
    1.1859    5.2016   -1.6295 C   0  0  0  0  0  0  0  0  0  0  0  0
    0.1470    3.3599   -2.0391 H   0  0  0  0  0  0  0  0  0  0  0  0
    0.3884    5.3990   -0.9068 H   0  0  0  0  0  0  0  0  0  0  0  0
    2.1386    5.1560   -1.0918 H   0  0  0  0  0  0  0  0  0  0  0  0
    1.2213    6.0338   -2.3403 H   0  0  0  0  0  0  0  0  0  0  0  0
  1  2  2  0  0  0  0
  1  3  1  0  0  0  0
  1  7  1  0  0  0  0
  3  4  1  0  0  0  0
  3  5  1  0  0  0  0
  3  6  1  0  0  0  0
  7  8  1  0  0  0  0
  7 12  1  0  0  0  0
  8  9  1  0  0  0  0
  8 11  1  0  0  0  0
  8 13  1  0  0  0  0
  9 10  2  0  0  0  0
  9 17  1  0  0  0  0
 11 14  1  0  0  0  0
 11 15  1  0  0  0  0
 11 16  1  0  0  0  0
 17 18  1  0  0  0  0
 17 23  1  0  0  0  0
 18 19  1  0  0  0  0
 18 21  1  0  0  0  0
 18 24  1  0  0  0  0
 19 20  2  0  0  0  0
 19 28  1  0  0  0  0
 21 22  1  0  0  0  0
 21 25  1  0  0  0  0
 21 26  1  0  0  0  0
 22 27  1  0  0  0  0
 28 29  1  0  0  0  0
 28 33  1  0  0  0  0
 29 30  1  0  0  0  0
 29 32  1  0  0  0  0
 29 34  1  0  0  0  0
 30 31  2  0  0  0  0
 30 38  1  0  0  0  0
 32 35  1  0  0  0  0
 32 36  1  0  0  0  0
 32 37  1  0  0  0  0
 38 39  1  0  0  0  0
 38 40  1  0  0  0  0
 39 41  1  0  0  0  0
 39 42  1  0  0  0  0
 39 43  1  0  0  0  0
M  END
$$$$

  -OEChem-05262217303D

 43 42  0     1  0  0  0  0  0999 V2000
    3.5919   -1.4683    4.1254 C   0  0  0  0  0  0  0  0  0  0  0  0
    2.8104   -1.0460    4.9626 O   0  0  0  0  0  0  0  0  0  0  0  0
    4.7279   -2.3845    4.5392 C   0  0  0  0  0  0  0  0  0  0  0  0
    5.6857   -1.9428    4.2543 H   0  0  0  0  0  0  0  0  0  0  0  0
    4.7166   -2.5310    5.6230 H   0  0  0  0  0  0  0  0  0  0  0  0
    4.6223   -3.3565    4.0512 H   0  0  0  0  0  0  0  0  0  0  0  0
    3.4396   -1.1129    2.8015 N   0  0  0  0  0  0  0  0  0  0  0  0
    2.3207   -0.3153    2.2820 C   0  0  2  0  0  0  0  0  0  0  0  0
    2.0088   -0.6482    0.8079 C   0  0  0  0  0  0  0  0  0  0  0  0
    2.7816   -1.3332    0.1456 O   0  0  0  0  0  0  0  0  0  0  0  0
    2.6717    1.1691    2.4317 C   0  0  0  0  0  0  0  0  0  0  0  0
    4.0436   -1.5672    2.1175 H   0  0  0  0  0  0  0  0  0  0  0  0
    1.4174   -0.5325    2.8625 H   0  0  0  0  0  0  0  0  0  0  0  0
    3.5682    1.4109    1.8518 H   0  0  0  0  0  0  0  0  0  0  0  0
    1.8481    1.7976    2.0796 H   0  0  0  0  0  0  0  0  0  0  0  0
    2.8613    1.4100    3.4827 H   0  0  0  0  0  0  0  0  0  0  0  0
    0.8646   -0.1594    0.2072 N   0  0  0  0  0  0  0  0  0  0  0  0
    0.4192   -0.4954   -1.1544 C   0  0  2  0  0  0  0  0  0  0  0  0
    0.3143    0.7406   -2.0672 C   0  0  0  0  0  0  0  0  0  0  0  0
   -0.4762    1.6388   -1.7906 O   0  0  0  0  0  0  0  0  0  0  0  0
   -0.9369   -1.2046   -1.0353 C   0  0  0  0  0  0  0  0  0  0  0  0
   -1.9356   -0.3097   -0.5288 O   0  0  0  0  0  0  0  0  0  0  0  0
    0.2056    0.3428    0.7999 H   0  0  0  0  0  0  0  0  0  0  0  0
    1.1160   -1.1966   -1.6236 H   0  0  0  0  0  0  0  0  0  0  0  0
   -0.8509   -2.0754   -0.3767 H   0  0  0  0  0  0  0  0  0  0  0  0
   -1.2444   -1.5638   -2.0231 H   0  0  0  0  0  0  0  0  0  0  0  0
   -1.8750    0.5559   -0.9906 H   0  0  0  0  0  0  0  0  0  0  0  0
    1.0780    0.8133   -3.2208 N   0  0  0  0  0  0  0  0  0  0  0  0
    1.0881    1.9050   -4.2178 C   0  0  2  0  0  0  0  0  0  0  0  0
    1.6424    3.2524   -3.6992 C   0  0  0  0  0  0  0  0  0  0  0  0
    2.5595    3.7948   -4.3003 O   0  0  0  0  0  0  0  0  0  0  0  0
   -0.2954    2.0925   -4.8565 C   0  0  0  0  0  0  0  0  0  0  0  0
    1.7812    0.0859   -3.3300 H   0  0  0  0  0  0  0  0  0  0  0  0
    1.7645    1.5913   -5.0199 H   0  0  0  0  0  0  0  0  0  0  0  0
   -1.0115    2.5101   -4.1431 H   0  0  0  0  0  0  0  0  0  0  0  0
   -0.2233    2.7795   -5.7056 H   0  0  0  0  0  0  0  0  0  0  0  0
   -0.6812    1.1348   -5.2185 H   0  0  0  0  0  0  0  0  0  0  0  0
    1.1253    3.8545   -2.5693 N   0  0  0  0  0  0  0  0  0  0  0  0
    1.6087    5.1133   -2.0191 C   0  0  0  0  0  0  0  0  0  0  0  0
    0.3770    3.3491   -2.0893 H   0  0  0  0  0  0  0  0  0  0  0  0
    1.0066    5.4017   -1.1522 H   0  0  0  0  0  0  0  0  0  0  0  0
    2.6518    5.0167   -1.7008 H   0  0  0  0  0  0  0  0  0  0  0  0
    1.5402    5.9103   -2.7668 H   0  0  0  0  0  0  0  0  0  0  0  0
  1  2  2  0  0  0  0
  1  3  1  0  0  0  0
  1  7  1  0  0  0  0
  3  4  1  0  0  0  0
  3  5  1  0  0  0  0
  3  6  1  0  0  0  0
  7  8  1  0  0  0  0
  7 12  1  0  0  0  0
  8  9  1  0  0  0  0
  8 11  1  0  0  0  0
  8 13  1  0  0  0  0
  9 10  2  0  0  0  0
  9 17  1  0  0  0  0
 11 14  1  0  0  0  0
 11 15  1  0  0  0  0
 11 16  1  0  0  0  0
 17 18  1  0  0  0  0
 17 23  1  0  0  0  0
 18 19  1  0  0  0  0
 18 21  1  0  0  0  0
 18 24  1  0  0  0  0
 19 20  2  0  0  0  0
 19 28  1  0  0  0  0
 21 22  1  0  0  0  0
 21 25  1  0  0  0  0
 21 26  1  0  0  0  0
 22 27  1  0  0  0  0
 28 29  1  0  0  0  0
 28 33  1  0  0  0  0
 29 30  1  0  0  0  0
 29 32  1  0  0  0  0
 29 34  1  0  0  0  0
 30 31  2  0  0  0  0
 30 38  1  0  0  0  0
 32 35  1  0  0  0  0
 32 36  1  0  0  0  0
 32 37  1  0  0  0  0
 38 39  1  0  0  0  0
 38 40  1  0  0  0  0
 39 41  1  0  0  0  0
 39 42  1  0  0  0  0
 39 43  1  0  0  0  0
M  END
$$$$

  -OEChem-05262217303D

 43 42  0     1  0  0  0  0  0999 V2000
    3.6326   -1.4347    4.1208 C   0  0  0  0  0  0  0  0  0  0  0  0
    2.8724   -0.9870    4.9643 O   0  0  0  0  0  0  0  0  0  0  0  0
    4.7633   -2.3601    4.5297 C   0  0  0  0  0  0  0  0  0  0  0  0
    5.7240   -1.9246    4.2443 H   0  0  0  0  0  0  0  0  0  0  0  0
    4.7532   -2.5115    5.6129 H   0  0  0  0  0  0  0  0  0  0  0  0
    4.6493   -3.3291    4.0381 H   0  0  0  0  0  0  0  0  0  0  0  0
    3.4598   -1.1034    2.7933 N   0  0  0  0  0  0  0  0  0  0  0  0
    2.3343   -0.3136    2.2756 C   0  0  2  0  0  0  0  0  0  0  0  0
    1.9998   -0.6763    0.8132 C   0  0  0  0  0  0  0  0  0  0  0  0
    2.7586   -1.3825    0.1569 O   0  0  0  0  0  0  0  0  0  0  0  0
    2.6899    1.1729    2.3913 C   0  0  0  0  0  0  0  0  0  0  0  0
    4.0448   -1.5812    2.1088 H   0  0  0  0  0  0  0  0  0  0  0  0
    1.4388   -0.5176    2.8731 H   0  0  0  0  0  0  0  0  0  0  0  0
    3.5788    1.4020    1.7950 H   0  0  0  0  0  0  0  0  0  0  0  0
    1.8626    1.7959    2.0383 H   0  0  0  0  0  0  0  0  0  0  0  0
    2.8938    1.4342    3.4345 H   0  0  0  0  0  0  0  0  0  0  0  0
    0.8494   -0.1952    0.2180 N   0  0  0  0  0  0  0  0  0  0  0  0
    0.4046   -0.5180   -1.1480 C   0  0  2  0  0  0  0  0  0  0  0  0
    0.2793    0.7215   -2.0512 C   0  0  0  0  0  0  0  0  0  0  0  0
   -0.3539    1.6945   -1.6521 O   0  0  0  0  0  0  0  0  0  0  0  0
   -0.9561   -1.2181   -1.0415 C   0  0  0  0  0  0  0  0  0  0  0  0
   -1.9505   -0.3184   -0.5317 O   0  0  0  0  0  0  0  0  0  0  0  0
    0.2144    0.3495    0.7990 H   0  0  0  0  0  0  0  0  0  0  0  0
    1.1048   -1.2105   -1.6240 H   0  0  0  0  0  0  0  0  0  0  0  0
   -0.8801   -2.0951   -0.3902 H   0  0  0  0  0  0  0  0  0  0  0  0
   -1.2618   -1.5672   -2.0334 H   0  0  0  0  0  0  0  0  0  0  0  0
   -1.8645    0.5641   -0.9530 H   0  0  0  0  0  0  0  0  0  0  0  0
    0.7814    0.6962   -3.3425 N   0  0  0  0  0  0  0  0  0  0  0  0
    0.6752    1.7612   -4.3629 C   0  0  2  0  0  0  0  0  0  0  0  0
    1.4427    3.0619   -4.0294 C   0  0  0  0  0  0  0  0  0  0  0  0
    2.2385    3.5133   -4.8417 O   0  0  0  0  0  0  0  0  0  0  0  0
   -0.7909    2.0646   -4.7038 C   0  0  0  0  0  0  0  0  0  0  0  0
    1.3507   -0.1125   -3.5807 H   0  0  0  0  0  0  0  0  0  0  0  0
    1.1354    1.3687   -5.2759 H   0  0  0  0  0  0  0  0  0  0  0  0
   -1.2993    2.5642   -3.8744 H   0  0  0  0  0  0  0  0  0  0  0  0
   -0.8417    2.7228   -5.5770 H   0  0  0  0  0  0  0  0  0  0  0  0
   -1.3273    1.1401   -4.9364 H   0  0  0  0  0  0  0  0  0  0  0  0
    1.2474    3.7259   -2.8347 N   0  0  0  0  0  0  0  0  0  0  0  0
    1.9353    4.9539   -2.4620 C   0  0  0  0  0  0  0  0  0  0  0  0
    0.5808    3.3033   -2.1841 H   0  0  0  0  0  0  0  0  0  0  0  0
    1.6086    5.2832   -1.4712 H   0  0  0  0  0  0  0  0  0  0  0  0
    3.0180    4.7933   -2.4349 H   0  0  0  0  0  0  0  0  0  0  0  0
    1.7142    5.7492   -3.1812 H   0  0  0  0  0  0  0  0  0  0  0  0
  1  2  2  0  0  0  0
  1  3  1  0  0  0  0
  1  7  1  0  0  0  0
  3  4  1  0  0  0  0
  3  5  1  0  0  0  0
  3  6  1  0  0  0  0
  7  8  1  0  0  0  0
  7 12  1  0  0  0  0
  8  9  1  0  0  0  0
  8 11  1  0  0  0  0
  8 13  1  0  0  0  0
  9 10  2  0  0  0  0
  9 17  1  0  0  0  0
 11 14  1  0  0  0  0
 11 15  1  0  0  0  0
 11 16  1  0  0  0  0
 17 18  1  0  0  0  0
 17 23  1  0  0  0  0
 18 19  1  0  0  0  0
 18 21  1  0  0  0  0
 18 24  1  0  0  0  0
 19 20  2  0  0  0  0
 19 28  1  0  0  0  0
 21 22  1  0  0  0  0
 21 25  1  0  0  0  0
 21 26  1  0  0  0  0
 22 27  1  0  0  0  0
 28 29  1  0  0  0  0
 28 33  1  0  0  0  0
 29 30  1  0  0  0  0
 29 32  1  0  0  0  0
 29 34  1  0  0  0  0
 30 31  2  0  0  0  0
 30 38  1  0  0  0  0
 32 35  1  0  0  0  0
 32 36  1  0  0  0  0
 32 37  1  0  0  0  0
 38 39  1  0  0  0  0
 38 40  1  0  0  0  0
 39 41  1  0  0  0  0
 39 42  1  0  0  0  0
 39 43  1  0  0  0  0
M  END
$$$$

  -OEChem-05262217303D

 43 42  0     1  0  0  0  0  0999 V2000
    3.6616   -1.4258    4.1060 C   0  0  0  0  0  0  0  0  0  0  0  0
    2.9113   -0.9691    4.9535 O   0  0  0  0  0  0  0  0  0  0  0  0
    4.7807   -2.3679    4.5073 C   0  0  0  0  0  0  0  0  0  0  0  0
    5.7466   -1.9389    4.2297 H   0  0  0  0  0  0  0  0  0  0  0  0
    4.7657   -2.5322    5.5884 H   0  0  0  0  0  0  0  0  0  0  0  0
    4.6580   -3.3296    4.0036 H   0  0  0  0  0  0  0  0  0  0  0  0
    3.4876   -1.0912    2.7798 N   0  0  0  0  0  0  0  0  0  0  0  0
    2.3630   -0.2979    2.2661 C   0  0  2  0  0  0  0  0  0  0  0  0
    2.0063   -0.6836    0.8149 C   0  0  0  0  0  0  0  0  0  0  0  0
    2.7515   -1.4078    0.1624 O   0  0  0  0  0  0  0  0  0  0  0  0
    2.7370    1.1858    2.3518 C   0  0  0  0  0  0  0  0  0  0  0  0
    4.0582   -1.5824    2.0925 H   0  0  0  0  0  0  0  0  0  0  0  0
    1.4735   -0.4820    2.8789 H   0  0  0  0  0  0  0  0  0  0  0  0
    3.6204    1.3934    1.7395 H   0  0  0  0  0  0  0  0  0  0  0  0
    1.9128    1.8132    1.9993 H   0  0  0  0  0  0  0  0  0  0  0  0
    2.9585    1.4617    3.3877 H   0  0  0  0  0  0  0  0  0  0  0  0
    0.8466   -0.2133    0.2299 N   0  0  0  0  0  0  0  0  0  0  0  0
    0.3997   -0.5281   -1.1374 C   0  0  2  0  0  0  0  0  0  0  0  0
    0.2487    0.7119   -2.0347 C   0  0  0  0  0  0  0  0  0  0  0  0
   -0.2112    1.7441   -1.5571 O   0  0  0  0  0  0  0  0  0  0  0  0
   -0.9589   -1.2285   -1.0213 C   0  0  0  0  0  0  0  0  0  0  0  0
   -1.9490   -0.3287   -0.5007 O   0  0  0  0  0  0  0  0  0  0  0  0
    0.2369    0.3727    0.7976 H   0  0  0  0  0  0  0  0  0  0  0  0
    1.1030   -1.2113   -1.6228 H   0  0  0  0  0  0  0  0  0  0  0  0
   -0.8767   -2.1064   -0.3715 H   0  0  0  0  0  0  0  0  0  0  0  0
   -1.2738   -1.5767   -2.0105 H   0  0  0  0  0  0  0  0  0  0  0  0
   -1.8736    0.5554   -0.9157 H   0  0  0  0  0  0  0  0  0  0  0  0
    0.4541    0.6094   -3.4012 N   0  0  0  0  0  0  0  0  0  0  0  0
    0.2262    1.6569   -4.4196 C   0  0  2  0  0  0  0  0  0  0  0  0
    1.1489    2.8924   -4.2997 C   0  0  0  0  0  0  0  0  0  0  0  0
    1.8408    3.2177   -5.2548 O   0  0  0  0  0  0  0  0  0  0  0  0
   -1.2501    2.0763   -4.4667 C   0  0  0  0  0  0  0  0  0  0  0  0
    0.8685   -0.2615   -3.7242 H   0  0  0  0  0  0  0  0  0  0  0  0
    0.4550    1.2069   -5.3916 H   0  0  0  0  0  0  0  0  0  0  0  0
   -1.5372    2.6304   -3.5685 H   0  0  0  0  0  0  0  0  0  0  0  0
   -1.4268    2.7211   -5.3334 H   0  0  0  0  0  0  0  0  0  0  0  0
   -1.8937    1.1959   -4.5550 H   0  0  0  0  0  0  0  0  0  0  0  0
    1.2119    3.6317   -3.1354 N   0  0  0  0  0  0  0  0  0  0  0  0
    2.0961    4.7725   -2.9409 C   0  0  0  0  0  0  0  0  0  0  0  0
    0.6651    3.2786   -2.3463 H   0  0  0  0  0  0  0  0  0  0  0  0
    1.9117    5.2291   -1.9639 H   0  0  0  0  0  0  0  0  0  0  0  0
    3.1434    4.4566   -2.9857 H   0  0  0  0  0  0  0  0  0  0  0  0
    1.9224    5.5294   -3.7130 H   0  0  0  0  0  0  0  0  0  0  0  0
  1  2  2  0  0  0  0
  1  3  1  0  0  0  0
  1  7  1  0  0  0  0
  3  4  1  0  0  0  0
  3  5  1  0  0  0  0
  3  6  1  0  0  0  0
  7  8  1  0  0  0  0
  7 12  1  0  0  0  0
  8  9  1  0  0  0  0
  8 11  1  0  0  0  0
  8 13  1  0  0  0  0
  9 10  2  0  0  0  0
  9 17  1  0  0  0  0
 11 14  1  0  0  0  0
 11 15  1  0  0  0  0
 11 16  1  0  0  0  0
 17 18  1  0  0  0  0
 17 23  1  0  0  0  0
 18 19  1  0  0  0  0
 18 21  1  0  0  0  0
 18 24  1  0  0  0  0
 19 20  2  0  0  0  0
 19 28  1  0  0  0  0
 21 22  1  0  0  0  0
 21 25  1  0  0  0  0
 21 26  1  0  0  0  0
 22 27  1  0  0  0  0
 28 29  1  0  0  0  0
 28 33  1  0  0  0  0
 29 30  1  0  0  0  0
 29 32  1  0  0  0  0
 29 34  1  0  0  0  0
 30 31  2  0  0  0  0
 30 38  1  0  0  0  0
 32 35  1  0  0  0  0
 32 36  1  0  0  0  0
 32 37  1  0  0  0  0
 38 39  1  0  0  0  0
 38 40  1  0  0  0  0
 39 41  1  0  0  0  0
 39 42  1  0  0  0  0
 39 43  1  0  0  0  0
M  END
$$$$

  -OEChem-05262217303D

 43 42  0     1  0  0  0  0  0999 V2000
    3.6946   -1.3269    4.0877 C   0  0  0  0  0  0  0  0  0  0  0  0
    2.9591   -0.8349    4.9285 O   0  0  0  0  0  0  0  0  0  0  0  0
    4.8224   -2.2493    4.5111 C   0  0  0  0  0  0  0  0  0  0  0  0
    5.7852   -1.8128    4.2345 H   0  0  0  0  0  0  0  0  0  0  0  0
    4.8009   -2.3975    5.5946 H   0  0  0  0  0  0  0  0  0  0  0  0
    4.7152   -3.2202    4.0214 H   0  0  0  0  0  0  0  0  0  0  0  0
    3.4953   -1.0500    2.7514 N   0  0  0  0  0  0  0  0  0  0  0  0
    2.3579   -0.2822    2.2261 C   0  0  2  0  0  0  0  0  0  0  0  0
    1.9694   -0.7302    0.8012 C   0  0  0  0  0  0  0  0  0  0  0  0
    2.7032   -1.4772    0.1619 O   0  0  0  0  0  0  0  0  0  0  0  0
    2.7289    1.2046    2.2377 C   0  0  0  0  0  0  0  0  0  0  0  0
    4.0531   -1.5700    2.0751 H   0  0  0  0  0  0  0  0  0  0  0  0
    1.4823   -0.4398    2.8656 H   0  0  0  0  0  0  0  0  0  0  0  0
    3.5997    1.3871    1.6000 H   0  0  0  0  0  0  0  0  0  0  0  0
    1.8957    1.8127    1.8727 H   0  0  0  0  0  0  0  0  0  0  0  0
    2.9687    1.5281    3.2557 H   0  0  0  0  0  0  0  0  0  0  0  0
    0.7931   -0.2889    0.2273 N   0  0  0  0  0  0  0  0  0  0  0  0
    0.3578   -0.5810   -1.1494 C   0  0  2  0  0  0  0  0  0  0  0  0
    0.1591    0.6791   -2.0098 C   0  0  0  0  0  0  0  0  0  0  0  0
   -0.0549    1.7557   -1.4644 O   0  0  0  0  0  0  0  0  0  0  0  0
   -0.9675   -1.3468   -1.0615 C   0  0  0  0  0  0  0  0  0  0  0  0
   -2.0062   -0.5192   -0.5155 O   0  0  0  0  0  0  0  0  0  0  0  0
    0.2266    0.3645    0.7651 H   0  0  0  0  0  0  0  0  0  0  0  0
    1.0942   -1.2127   -1.6555 H   0  0  0  0  0  0  0  0  0  0  0  0
   -0.8406   -2.2377   -0.4372 H   0  0  0  0  0  0  0  0  0  0  0  0
   -1.2630   -1.6840   -2.0605 H   0  0  0  0  0  0  0  0  0  0  0  0
   -2.0486    0.3495   -0.9585 H   0  0  0  0  0  0  0  0  0  0  0  0
    0.0593    0.5718   -3.3884 N   0  0  0  0  0  0  0  0  0  0  0  0
   -0.2658    1.6497   -4.3477 C   0  0  2  0  0  0  0  0  0  0  0  0
    0.7996    2.7648   -4.4620 C   0  0  0  0  0  0  0  0  0  0  0  0
    1.2420    3.0585   -5.5640 O   0  0  0  0  0  0  0  0  0  0  0  0
   -1.6531    2.2463   -4.0693 C   0  0  0  0  0  0  0  0  0  0  0  0
    0.2751   -0.3413   -3.7807 H   0  0  0  0  0  0  0  0  0  0  0  0
   -0.3172    1.1836   -5.3373 H   0  0  0  0  0  0  0  0  0  0  0  0
   -1.6571    2.8345   -3.1471 H   0  0  0  0  0  0  0  0  0  0  0  0
   -1.9469    2.9057   -4.8921 H   0  0  0  0  0  0  0  0  0  0  0  0
   -2.3998    1.4515   -3.9807 H   0  0  0  0  0  0  0  0  0  0  0  0
    1.2632    3.4338   -3.3471 N   0  0  0  0  0  0  0  0  0  0  0  0
    2.2790    4.4765   -3.3856 C   0  0  0  0  0  0  0  0  0  0  0  0
    0.8748    3.1408   -2.4473 H   0  0  0  0  0  0  0  0  0  0  0  0
    2.4654    4.8583   -2.3772 H   0  0  0  0  0  0  0  0  0  0  0  0
    3.2183    4.0808   -3.7858 H   0  0  0  0  0  0  0  0  0  0  0  0
    1.9499    5.3096   -4.0155 H   0  0  0  0  0  0  0  0  0  0  0  0
  1  2  2  0  0  0  0
  1  3  1  0  0  0  0
  1  7  1  0  0  0  0
  3  4  1  0  0  0  0
  3  5  1  0  0  0  0
  3  6  1  0  0  0  0
  7  8  1  0  0  0  0
  7 12  1  0  0  0  0
  8  9  1  0  0  0  0
  8 11  1  0  0  0  0
  8 13  1  0  0  0  0
  9 10  2  0  0  0  0
  9 17  1  0  0  0  0
 11 14  1  0  0  0  0
 11 15  1  0  0  0  0
 11 16  1  0  0  0  0
 17 18  1  0  0  0  0
 17 23  1  0  0  0  0
 18 19  1  0  0  0  0
 18 21  1  0  0  0  0
 18 24  1  0  0  0  0
 19 20  2  0  0  0  0
 19 28  1  0  0  0  0
 21 22  1  0  0  0  0
 21 25  1  0  0  0  0
 21 26  1  0  0  0  0
 22 27  1  0  0  0  0
 28 29  1  0  0  0  0
 28 33  1  0  0  0  0
 29 30  1  0  0  0  0
 29 32  1  0  0  0  0
 29 34  1  0  0  0  0
 30 31  2  0  0  0  0
 30 38  1  0  0  0  0
 32 35  1  0  0  0  0
 32 36  1  0  0  0  0
 32 37  1  0  0  0  0
 38 39  1  0  0  0  0
 38 40  1  0  0  0  0
 39 41  1  0  0  0  0
 39 42  1  0  0  0  0
 39 43  1  0  0  0  0
M  END
$$$$

  -OEChem-05262217303D

 43 42  0     1  0  0  0  0  0999 V2000
    3.7605   -1.3037    3.9973 C   0  0  0  0  0  0  0  0  0  0  0  0
    3.0178   -0.8459    4.8511 O   0  0  0  0  0  0  0  0  0  0  0  0
    4.8640   -2.2699    4.3857 C   0  0  0  0  0  0  0  0  0  0  0  0
    5.8391   -1.8360    4.1518 H   0  0  0  0  0  0  0  0  0  0  0  0
    4.8202   -2.4814    5.4576 H   0  0  0  0  0  0  0  0  0  0  0  0
    4.7491   -3.2082    3.8378 H   0  0  0  0  0  0  0  0  0  0  0  0
    3.5905   -0.9563    2.6740 N   0  0  0  0  0  0  0  0  0  0  0  0
    2.4485   -0.1881    2.1607 C   0  0  2  0  0  0  0  0  0  0  0  0
    1.9922   -0.7055    0.7809 C   0  0  0  0  0  0  0  0  0  0  0  0
    2.7093   -1.4626    0.1338 O   0  0  0  0  0  0  0  0  0  0  0  0
    2.8594    1.2851    2.0742 C   0  0  0  0  0  0  0  0  0  0  0  0
    4.1406   -1.4691    1.9861 H   0  0  0  0  0  0  0  0  0  0  0  0
    1.5954   -0.2857    2.8411 H   0  0  0  0  0  0  0  0  0  0  0  0
    3.7106    1.4061    1.3966 H   0  0  0  0  0  0  0  0  0  0  0  0
    2.0306    1.8962    1.7034 H   0  0  0  0  0  0  0  0  0  0  0  0
    3.1459    1.6564    3.0633 H   0  0  0  0  0  0  0  0  0  0  0  0
    0.7778   -0.3127    0.2531 N   0  0  0  0  0  0  0  0  0  0  0  0
    0.3322   -0.6106   -1.1192 C   0  0  2  0  0  0  0  0  0  0  0  0
    0.3991    0.6047   -2.0644 C   0  0  0  0  0  0  0  0  0  0  0  0
    0.6682    1.7143   -1.6198 O   0  0  0  0  0  0  0  0  0  0  0  0
   -1.1126   -1.1173   -1.0193 C   0  0  0  0  0  0  0  0  0  0  0  0
   -1.9945   -0.0825   -0.5577 O   0  0  0  0  0  0  0  0  0  0  0  0
    0.2495    0.3852    0.7730 H   0  0  0  0  0  0  0  0  0  0  0  0
    0.9466   -1.4036   -1.5572 H   0  0  0  0  0  0  0  0  0  0  0  0
   -1.1556   -1.9667   -0.3292 H   0  0  0  0  0  0  0  0  0  0  0  0
   -1.4511   -1.4732   -1.9977 H   0  0  0  0  0  0  0  0  0  0  0  0
   -1.9803    0.6971   -1.1423 H   0  0  0  0  0  0  0  0  0  0  0  0
    0.0128    0.4737   -3.3902 N   0  0  0  0  0  0  0  0  0  0  0  0
   -0.0681    1.5443   -4.4076 C   0  0  2  0  0  0  0  0  0  0  0  0
    1.2872    2.1839   -4.7909 C   0  0  0  0  0  0  0  0  0  0  0  0
    1.6244    2.2090   -5.9668 O   0  0  0  0  0  0  0  0  0  0  0  0
   -1.0874    2.6209   -4.0083 C   0  0  0  0  0  0  0  0  0  0  0  0
   -0.1386   -0.4777   -3.7155 H   0  0  0  0  0  0  0  0  0  0  0  0
   -0.4468    1.0790   -5.3237 H   0  0  0  0  0  0  0  0  0  0  0  0
   -0.7418    3.1992   -3.1467 H   0  0  0  0  0  0  0  0  0  0  0  0
   -1.2413    3.3152   -4.8405 H   0  0  0  0  0  0  0  0  0  0  0  0
   -2.0486    2.1616   -3.7594 H   0  0  0  0  0  0  0  0  0  0  0  0
    2.1242    2.7238   -3.8351 N   0  0  0  0  0  0  0  0  0  0  0  0
    3.4231    3.3142   -4.1258 C   0  0  0  0  0  0  0  0  0  0  0  0
    1.8168    2.6388   -2.8628 H   0  0  0  0  0  0  0  0  0  0  0  0
    3.8713    3.7064   -3.2078 H   0  0  0  0  0  0  0  0  0  0  0  0
    4.0988    2.5642   -4.5500 H   0  0  0  0  0  0  0  0  0  0  0  0
    3.3183    4.1393   -4.8381 H   0  0  0  0  0  0  0  0  0  0  0  0
  1  2  2  0  0  0  0
  1  3  1  0  0  0  0
  1  7  1  0  0  0  0
  3  4  1  0  0  0  0
  3  5  1  0  0  0  0
  3  6  1  0  0  0  0
  7  8  1  0  0  0  0
  7 12  1  0  0  0  0
  8  9  1  0  0  0  0
  8 11  1  0  0  0  0
  8 13  1  0  0  0  0
  9 10  2  0  0  0  0
  9 17  1  0  0  0  0
 11 14  1  0  0  0  0
 11 15  1  0  0  0  0
 11 16  1  0  0  0  0
 17 18  1  0  0  0  0
 17 23  1  0  0  0  0
 18 19  1  0  0  0  0
 18 21  1  0  0  0  0
 18 24  1  0  0  0  0
 19 20  2  0  0  0  0
 19 28  1  0  0  0  0
 21 22  1  0  0  0  0
 21 25  1  0  0  0  0
 21 26  1  0  0  0  0
 22 27  1  0  0  0  0
 28 29  1  0  0  0  0
 28 33  1  0  0  0  0
 29 30  1  0  0  0  0
 29 32  1  0  0  0  0
 29 34  1  0  0  0  0
 30 31  2  0  0  0  0
 30 38  1  0  0  0  0
 32 35  1  0  0  0  0
 32 36  1  0  0  0  0
 32 37  1  0  0  0  0
 38 39  1  0  0  0  0
 38 40  1  0  0  0  0
 39 41  1  0  0  0  0
 39 42  1  0  0  0  0
 39 43  1  0  0  0  0
M  END
$$$$

  -OEChem-05262217303D

 43 42  0     1  0  0  0  0  0999 V2000
    3.8193   -1.2860    3.9501 C   0  0  0  0  0  0  0  0  0  0  0  0
    3.0838   -0.8466    4.8197 O   0  0  0  0  0  0  0  0  0  0  0  0
    4.9685   -2.2049    4.3198 C   0  0  0  0  0  0  0  0  0  0  0  0
    5.9211   -1.7188    4.0964 H   0  0  0  0  0  0  0  0  0  0  0  0
    4.9344   -2.4396    5.3873 H   0  0  0  0  0  0  0  0  0  0  0  0
    4.9003   -3.1365    3.7529 H   0  0  0  0  0  0  0  0  0  0  0  0
    3.5996   -0.9579    2.6292 N   0  0  0  0  0  0  0  0  0  0  0  0
    2.4254   -0.2199    2.1446 C   0  0  2  0  0  0  0  0  0  0  0  0
    1.9638   -0.7256    0.7625 C   0  0  0  0  0  0  0  0  0  0  0  0
    2.6897   -1.4579    0.0969 O   0  0  0  0  0  0  0  0  0  0  0  0
    2.7847    1.2675    2.0792 C   0  0  0  0  0  0  0  0  0  0  0  0
    4.1523   -1.4500    1.9282 H   0  0  0  0  0  0  0  0  0  0  0  0
    1.5871   -0.3578    2.8359 H   0  0  0  0  0  0  0  0  0  0  0  0
    3.6137    1.4306    1.3831 H   0  0  0  0  0  0  0  0  0  0  0  0
    1.9270    1.8577    1.7418 H   0  0  0  0  0  0  0  0  0  0  0  0
    3.0832    1.6283    3.0687 H   0  0  0  0  0  0  0  0  0  0  0  0
    0.7319   -0.3543    0.2592 N   0  0  0  0  0  0  0  0  0  0  0  0
    0.2918   -0.6116   -1.1236 C   0  0  2  0  0  0  0  0  0  0  0  0
    0.3137    0.6512   -2.0109 C   0  0  0  0  0  0  0  0  0  0  0  0
    0.8344    1.6815   -1.6008 O   0  0  0  0  0  0  0  0  0  0  0  0
   -1.1250   -1.1975   -1.0403 C   0  0  0  0  0  0  0  0  0  0  0  0
   -2.0584   -0.2343   -0.5280 O   0  0  0  0  0  0  0  0  0  0  0  0
    0.1952    0.3177    0.8030 H   0  0  0  0  0  0  0  0  0  0  0  0
    0.9392   -1.3538   -1.6012 H   0  0  0  0  0  0  0  0  0  0  0  0
   -1.1153   -2.0744   -0.3839 H   0  0  0  0  0  0  0  0  0  0  0  0
   -1.4519   -1.5356   -2.0288 H   0  0  0  0  0  0  0  0  0  0  0  0
   -2.1490    0.5365   -1.1166 H   0  0  0  0  0  0  0  0  0  0  0  0
   -0.3489    0.6643   -3.2307 N   0  0  0  0  0  0  0  0  0  0  0  0
   -0.4669    1.8006   -4.1706 C   0  0  2  0  0  0  0  0  0  0  0  0
    0.8657    2.2623   -4.8072 C   0  0  0  0  0  0  0  0  0  0  0  0
    0.9560    2.3185   -6.0260 O   0  0  0  0  0  0  0  0  0  0  0  0
   -1.2075    2.9831   -3.5299 C   0  0  0  0  0  0  0  0  0  0  0  0
   -0.6904   -0.2357   -3.5582 H   0  0  0  0  0  0  0  0  0  0  0  0
   -1.0901    1.4559   -5.0026 H   0  0  0  0  0  0  0  0  0  0  0  0
   -0.6048    3.4565   -2.7495 H   0  0  0  0  0  0  0  0  0  0  0  0
   -1.4308    3.7386   -4.2899 H   0  0  0  0  0  0  0  0  0  0  0  0
   -2.1510    2.6488   -3.0886 H   0  0  0  0  0  0  0  0  0  0  0  0
    1.9566    2.6016   -4.0320 N   0  0  0  0  0  0  0  0  0  0  0  0
    3.2490    3.0042   -4.5693 C   0  0  0  0  0  0  0  0  0  0  0  0
    1.8422    2.5022   -3.0199 H   0  0  0  0  0  0  0  0  0  0  0  0
    3.9506    3.2025   -3.7530 H   0  0  0  0  0  0  0  0  0  0  0  0
    3.6662    2.2115   -5.1990 H   0  0  0  0  0  0  0  0  0  0  0  0
    3.1482    3.9155   -5.1681 H   0  0  0  0  0  0  0  0  0  0  0  0
  1  2  2  0  0  0  0
  1  3  1  0  0  0  0
  1  7  1  0  0  0  0
  3  4  1  0  0  0  0
  3  5  1  0  0  0  0
  3  6  1  0  0  0  0
  7  8  1  0  0  0  0
  7 12  1  0  0  0  0
  8  9  1  0  0  0  0
  8 11  1  0  0  0  0
  8 13  1  0  0  0  0
  9 10  2  0  0  0  0
  9 17  1  0  0  0  0
 11 14  1  0  0  0  0
 11 15  1  0  0  0  0
 11 16  1  0  0  0  0
 17 18  1  0  0  0  0
 17 23  1  0  0  0  0
 18 19  1  0  0  0  0
 18 21  1  0  0  0  0
 18 24  1  0  0  0  0
 19 20  2  0  0  0  0
 19 28  1  0  0  0  0
 21 22  1  0  0  0  0
 21 25  1  0  0  0  0
 21 26  1  0  0  0  0
 22 27  1  0  0  0  0
 28 29  1  0  0  0  0
 28 33  1  0  0  0  0
 29 30  1  0  0  0  0
 29 32  1  0  0  0  0
 29 34  1  0  0  0  0
 30 31  2  0  0  0  0
 30 38  1  0  0  0  0
 32 35  1  0  0  0  0
 32 36  1  0  0  0  0
 32 37  1  0  0  0  0
 38 39  1  0  0  0  0
 38 40  1  0  0  0  0
 39 41  1  0  0  0  0
 39 42  1  0  0  0  0
 39 43  1  0  0  0  0
M  END
$$$$

  -OEChem-05262217303D

 43 42  0     1  0  0  0  0  0999 V2000
    3.8466   -1.3152    3.9347 C   0  0  0  0  0  0  0  0  0  0  0  0
    3.1193   -0.8950    4.8206 O   0  0  0  0  0  0  0  0  0  0  0  0
    5.0227   -2.2109    4.2755 C   0  0  0  0  0  0  0  0  0  0  0  0
    5.9594   -1.7052    4.0291 H   0  0  0  0  0  0  0  0  0  0  0  0
    5.0191   -2.4475    5.3431 H   0  0  0  0  0  0  0  0  0  0  0  0
    4.9595   -3.1430    3.7088 H   0  0  0  0  0  0  0  0  0  0  0  0
    3.5959   -0.9837    2.6203 N   0  0  0  0  0  0  0  0  0  0  0  0
    2.4082   -0.2519    2.1605 C   0  0  2  0  0  0  0  0  0  0  0  0
    1.9591   -0.7189    0.7604 C   0  0  0  0  0  0  0  0  0  0  0  0
    2.7011   -1.4134    0.0726 O   0  0  0  0  0  0  0  0  0  0  0  0
    2.7379    1.2440    2.1455 C   0  0  0  0  0  0  0  0  0  0  0  0
    4.1501   -1.4534    1.9052 H   0  0  0  0  0  0  0  0  0  0  0  0
    1.5735   -0.4309    2.8471 H   0  0  0  0  0  0  0  0  0  0  0  0
    3.5620    1.4474    1.4541 H   0  0  0  0  0  0  0  0  0  0  0  0
    1.8681    1.8280    1.8297 H   0  0  0  0  0  0  0  0  0  0  0  0
    3.0315    1.5771    3.1460 H   0  0  0  0  0  0  0  0  0  0  0  0
    0.7176   -0.3609    0.2704 N   0  0  0  0  0  0  0  0  0  0  0  0
    0.2816   -0.5846   -1.1198 C   0  0  2  0  0  0  0  0  0  0  0  0
    0.2736    0.7101   -1.9631 C   0  0  0  0  0  0  0  0  0  0  0  0
    0.9942    1.6481   -1.6464 O   0  0  0  0  0  0  0  0  0  0  0  0
   -1.1127   -1.2252   -1.0509 C   0  0  0  0  0  0  0  0  0  0  0  0
   -2.0775   -0.3142   -0.5005 O   0  0  0  0  0  0  0  0  0  0  0  0
    0.1556    0.2605    0.8468 H   0  0  0  0  0  0  0  0  0  0  0  0
    0.9503   -1.2890   -1.6247 H   0  0  0  0  0  0  0  0  0  0  0  0
   -1.0675   -2.1237   -0.4260 H   0  0  0  0  0  0  0  0  0  0  0  0
   -1.4310   -1.5418   -2.0493 H   0  0  0  0  0  0  0  0  0  0  0  0
   -2.1897    0.4800   -1.0533 H   0  0  0  0  0  0  0  0  0  0  0  0
   -0.6224    0.8720   -3.0123 N   0  0  0  0  0  0  0  0  0  0  0  0
   -0.7790    2.0632   -3.8750 C   0  0  2  0  0  0  0  0  0  0  0  0
    0.4433    2.3777   -4.7693 C   0  0  0  0  0  0  0  0  0  0  0  0
    0.2995    2.4139   -5.9836 O   0  0  0  0  0  0  0  0  0  0  0  0
   -1.2006    3.2963   -3.0622 C   0  0  0  0  0  0  0  0  0  0  0  0
   -1.1166    0.0322   -3.3027 H   0  0  0  0  0  0  0  0  0  0  0  0
   -1.6040    1.8472   -4.5620 H   0  0  0  0  0  0  0  0  0  0  0  0
   -0.3890    3.6495   -2.4193 H   0  0  0  0  0  0  0  0  0  0  0  0
   -1.4752    4.1121   -3.7387 H   0  0  0  0  0  0  0  0  0  0  0  0
   -2.0660    3.0628   -2.4350 H   0  0  0  0  0  0  0  0  0  0  0  0
    1.6954    2.5910   -4.2283 N   0  0  0  0  0  0  0  0  0  0  0  0
    2.8979    2.8123   -5.0196 C   0  0  0  0  0  0  0  0  0  0  0  0
    1.7773    2.4673   -3.2155 H   0  0  0  0  0  0  0  0  0  0  0  0
    3.7528    2.9953   -4.3615 H   0  0  0  0  0  0  0  0  0  0  0  0
    3.1161    1.9351   -5.6376 H   0  0  0  0  0  0  0  0  0  0  0  0
    2.7731    3.6826   -5.6726 H   0  0  0  0  0  0  0  0  0  0  0  0
  1  2  2  0  0  0  0
  1  3  1  0  0  0  0
  1  7  1  0  0  0  0
  3  4  1  0  0  0  0
  3  5  1  0  0  0  0
  3  6  1  0  0  0  0
  7  8  1  0  0  0  0
  7 12  1  0  0  0  0
  8  9  1  0  0  0  0
  8 11  1  0  0  0  0
  8 13  1  0  0  0  0
  9 10  2  0  0  0  0
  9 17  1  0  0  0  0
 11 14  1  0  0  0  0
 11 15  1  0  0  0  0
 11 16  1  0  0  0  0
 17 18  1  0  0  0  0
 17 23  1  0  0  0  0
 18 19  1  0  0  0  0
 18 21  1  0  0  0  0
 18 24  1  0  0  0  0
 19 20  2  0  0  0  0
 19 28  1  0  0  0  0
 21 22  1  0  0  0  0
 21 25  1  0  0  0  0
 21 26  1  0  0  0  0
 22 27  1  0  0  0  0
 28 29  1  0  0  0  0
 28 33  1  0  0  0  0
 29 30  1  0  0  0  0
 29 32  1  0  0  0  0
 29 34  1  0  0  0  0
 30 31  2  0  0  0  0
 30 38  1  0  0  0  0
 32 35  1  0  0  0  0
 32 36  1  0  0  0  0
 32 37  1  0  0  0  0
 38 39  1  0  0  0  0
 38 40  1  0  0  0  0
 39 41  1  0  0  0  0
 39 42  1  0  0  0  0
 39 43  1  0  0  0  0
M  END
$$$$

  -OEChem-05262217303D

 43 42  0     1  0  0  0  0  0999 V2000
    3.8591   -1.3783    3.9337 C   0  0  0  0  0  0  0  0  0  0  0  0
    3.1149   -1.0215    4.8335 O   0  0  0  0  0  0  0  0  0  0  0  0
    5.0654   -2.2453    4.2412 C   0  0  0  0  0  0  0  0  0  0  0  0
    5.9832   -1.6775    4.0701 H   0  0  0  0  0  0  0  0  0  0  0  0
    5.0399   -2.5707    5.2850 H   0  0  0  0  0  0  0  0  0  0  0  0
    5.0660   -3.1287    3.5978 H   0  0  0  0  0  0  0  0  0  0  0  0
    3.6026   -0.9969    2.6341 N   0  0  0  0  0  0  0  0  0  0  0  0
    2.3917   -0.2865    2.2022 C   0  0  2  0  0  0  0  0  0  0  0  0
    1.9645   -0.7002    0.7781 C   0  0  0  0  0  0  0  0  0  0  0  0
    2.7184   -1.3667    0.0759 O   0  0  0  0  0  0  0  0  0  0  0  0
    2.6685    1.2189    2.2638 C   0  0  0  0  0  0  0  0  0  0  0  0
    4.1739   -1.4166    1.9013 H   0  0  0  0  0  0  0  0  0  0  0  0
    1.5611   -0.5292    2.8740 H   0  0  0  0  0  0  0  0  0  0  0  0
    3.4855    1.4853    1.5855 H   0  0  0  0  0  0  0  0  0  0  0  0
    1.7787    1.7866    1.9761 H   0  0  0  0  0  0  0  0  0  0  0  0
    2.9495    1.5115    3.2805 H   0  0  0  0  0  0  0  0  0  0  0  0
    0.7226   -0.3398    0.2894 N   0  0  0  0  0  0  0  0  0  0  0  0
    0.2895   -0.5398   -1.1052 C   0  0  2  0  0  0  0  0  0  0  0  0
    0.2743    0.7661   -1.9315 C   0  0  0  0  0  0  0  0  0  0  0  0
    1.1562    1.5964   -1.7596 O   0  0  0  0  0  0  0  0  0  0  0  0
   -1.0918   -1.2077   -1.0370 C   0  0  0  0  0  0  0  0  0  0  0  0
   -2.0707   -0.3269   -0.4596 O   0  0  0  0  0  0  0  0  0  0  0  0
    0.1292    0.2193    0.8971 H   0  0  0  0  0  0  0  0  0  0  0  0
    0.9661   -1.2277   -1.6224 H   0  0  0  0  0  0  0  0  0  0  0  0
   -1.0262   -2.1203   -0.4341 H   0  0  0  0  0  0  0  0  0  0  0  0
   -1.4103   -1.5053   -2.0412 H   0  0  0  0  0  0  0  0  0  0  0  0
   -2.1435    0.5155   -0.9435 H   0  0  0  0  0  0  0  0  0  0  0  0
   -0.7933    1.0808   -2.7644 N   0  0  0  0  0  0  0  0  0  0  0  0
   -0.9819    2.3271   -3.5390 C   0  0  2  0  0  0  0  0  0  0  0  0
    0.0490    2.5512   -4.6702 C   0  0  0  0  0  0  0  0  0  0  0  0
   -0.3504    2.7224   -5.8138 O   0  0  0  0  0  0  0  0  0  0  0  0
   -1.0639    3.5543   -2.6197 C   0  0  0  0  0  0  0  0  0  0  0  0
   -1.4160    0.3085   -2.9890 H   0  0  0  0  0  0  0  0  0  0  0  0
   -1.9550    2.2443   -4.0345 H   0  0  0  0  0  0  0  0  0  0  0  0
   -0.0932    3.7823   -2.1697 H   0  0  0  0  0  0  0  0  0  0  0  0
   -1.3843    4.4297   -3.1938 H   0  0  0  0  0  0  0  0  0  0  0  0
   -1.7887    3.3830   -1.8186 H   0  0  0  0  0  0  0  0  0  0  0  0
    1.4068    2.5395   -4.4213 N   0  0  0  0  0  0  0  0  0  0  0  0
    2.4266    2.7074   -5.4470 C   0  0  0  0  0  0  0  0  0  0  0  0
    1.6901    2.3535   -3.4552 H   0  0  0  0  0  0  0  0  0  0  0  0
    3.4237    2.6474   -5.0003 H   0  0  0  0  0  0  0  0  0  0  0  0
    2.3395    1.9228   -6.2055 H   0  0  0  0  0  0  0  0  0  0  0  0
    2.3229    3.6828   -5.9337 H   0  0  0  0  0  0  0  0  0  0  0  0
  1  2  2  0  0  0  0
  1  3  1  0  0  0  0
  1  7  1  0  0  0  0
  3  4  1  0  0  0  0
  3  5  1  0  0  0  0
  3  6  1  0  0  0  0
  7  8  1  0  0  0  0
  7 12  1  0  0  0  0
  8  9  1  0  0  0  0
  8 11  1  0  0  0  0
  8 13  1  0  0  0  0
  9 10  2  0  0  0  0
  9 17  1  0  0  0  0
 11 14  1  0  0  0  0
 11 15  1  0  0  0  0
 11 16  1  0  0  0  0
 17 18  1  0  0  0  0
 17 23  1  0  0  0  0
 18 19  1  0  0  0  0
 18 21  1  0  0  0  0
 18 24  1  0  0  0  0
 19 20  2  0  0  0  0
 19 28  1  0  0  0  0
 21 22  1  0  0  0  0
 21 25  1  0  0  0  0
 21 26  1  0  0  0  0
 22 27  1  0  0  0  0
 28 29  1  0  0  0  0
 28 33  1  0  0  0  0
 29 30  1  0  0  0  0
 29 32  1  0  0  0  0
 29 34  1  0  0  0  0
 30 31  2  0  0  0  0
 30 38  1  0  0  0  0
 32 35  1  0  0  0  0
 32 36  1  0  0  0  0
 32 37  1  0  0  0  0
 38 39  1  0  0  0  0
 38 40  1  0  0  0  0
 39 41  1  0  0  0  0
 39 42  1  0  0  0  0
 39 43  1  0  0  0  0
M  END
$$$$

  -OEChem-05262217303D

 43 42  0     1  0  0  0  0  0999 V2000
    3.8349   -1.5124    3.9237 C   0  0  0  0  0  0  0  0  0  0  0  0
    3.0340   -1.2946    4.8191 O   0  0  0  0  0  0  0  0  0  0  0  0
    5.0597   -2.3674    4.1897 C   0  0  0  0  0  0  0  0  0  0  0  0
    5.9645   -1.7635    4.0868 H   0  0  0  0  0  0  0  0  0  0  0  0
    5.0216   -2.7758    5.2036 H   0  0  0  0  0  0  0  0  0  0  0  0
    5.0998   -3.1959    3.4782 H   0  0  0  0  0  0  0  0  0  0  0  0
    3.6272   -0.9855    2.6668 N   0  0  0  0  0  0  0  0  0  0  0  0
    2.4048   -0.2833    2.2533 C   0  0  2  0  0  0  0  0  0  0  0  0
    2.0069   -0.6338    0.8037 C   0  0  0  0  0  0  0  0  0  0  0  0
    2.7886   -1.2412    0.0795 O   0  0  0  0  0  0  0  0  0  0  0  0
    2.6493    1.2217    2.3950 C   0  0  0  0  0  0  0  0  0  0  0  0
    4.2411   -1.3102    1.9205 H   0  0  0  0  0  0  0  0  0  0  0  0
    1.5690   -0.5750    2.8985 H   0  0  0  0  0  0  0  0  0  0  0  0
    3.4690    1.5385    1.7421 H   0  0  0  0  0  0  0  0  0  0  0  0
    1.7517    1.7861    2.1253 H   0  0  0  0  0  0  0  0  0  0  0  0
    2.9121    1.4664    3.4291 H   0  0  0  0  0  0  0  0  0  0  0  0
    0.7592   -0.2859    0.3191 N   0  0  0  0  0  0  0  0  0  0  0  0
    0.3253   -0.4726   -1.0775 C   0  0  2  0  0  0  0  0  0  0  0  0
    0.2823    0.8344   -1.9019 C   0  0  0  0  0  0  0  0  0  0  0  0
    1.2648    1.5621   -1.9097 O   0  0  0  0  0  0  0  0  0  0  0  0
   -1.0360   -1.1801   -1.0017 C   0  0  0  0  0  0  0  0  0  0  0  0
   -2.0350   -0.3388   -0.3972 O   0  0  0  0  0  0  0  0  0  0  0  0
    0.1267    0.1863    0.9599 H   0  0  0  0  0  0  0  0  0  0  0  0
    1.0137   -1.1419   -1.6036 H   0  0  0  0  0  0  0  0  0  0  0  0
   -0.9410   -2.1062   -0.4242 H   0  0  0  0  0  0  0  0  0  0  0  0
   -1.3570   -1.4581   -2.0111 H   0  0  0  0  0  0  0  0  0  0  0  0
   -2.0277    0.5676   -0.7543 H   0  0  0  0  0  0  0  0  0  0  0  0
   -0.8951    1.2903   -2.4851 N   0  0  0  0  0  0  0  0  0  0  0  0
   -1.0972    2.5750   -3.1902 C   0  0  2  0  0  0  0  0  0  0  0  0
   -0.3009    2.7249   -4.5078 C   0  0  0  0  0  0  0  0  0  0  0  0
   -0.9069    2.9367   -5.5492 O   0  0  0  0  0  0  0  0  0  0  0  0
   -0.8524    3.7720   -2.2594 C   0  0  0  0  0  0  0  0  0  0  0  0
   -1.6091    0.5795   -2.6307 H   0  0  0  0  0  0  0  0  0  0  0  0
   -2.1542    2.6144   -3.4741 H   0  0  0  0  0  0  0  0  0  0  0  0
    0.2086    3.8807   -2.0166 H   0  0  0  0  0  0  0  0  0  0  0  0
   -1.1843    4.6957   -2.7442 H   0  0  0  0  0  0  0  0  0  0  0  0
   -1.4122    3.6512   -1.3274 H   0  0  0  0  0  0  0  0  0  0  0  0
    1.0742    2.6069   -4.5366 N   0  0  0  0  0  0  0  0  0  0  0  0
    1.8776    2.7139   -5.7468 C   0  0  0  0  0  0  0  0  0  0  0  0
    1.5288    2.3718   -3.6498 H   0  0  0  0  0  0  0  0  0  0  0  0
    2.9403    2.6162   -5.5042 H   0  0  0  0  0  0  0  0  0  0  0  0
    1.6093    1.9245   -6.4565 H   0  0  0  0  0  0  0  0  0  0  0  0
    1.7205    3.6864   -6.2249 H   0  0  0  0  0  0  0  0  0  0  0  0
  1  2  2  0  0  0  0
  1  3  1  0  0  0  0
  1  7  1  0  0  0  0
  3  4  1  0  0  0  0
  3  5  1  0  0  0  0
  3  6  1  0  0  0  0
  7  8  1  0  0  0  0
  7 12  1  0  0  0  0
  8  9  1  0  0  0  0
  8 11  1  0  0  0  0
  8 13  1  0  0  0  0
  9 10  2  0  0  0  0
  9 17  1  0  0  0  0
 11 14  1  0  0  0  0
 11 15  1  0  0  0  0
 11 16  1  0  0  0  0
 17 18  1  0  0  0  0
 17 23  1  0  0  0  0
 18 19  1  0  0  0  0
 18 21  1  0  0  0  0
 18 24  1  0  0  0  0
 19 20  2  0  0  0  0
 19 28  1  0  0  0  0
 21 22  1  0  0  0  0
 21 25  1  0  0  0  0
 21 26  1  0  0  0  0
 22 27  1  0  0  0  0
 28 29  1  0  0  0  0
 28 33  1  0  0  0  0
 29 30  1  0  0  0  0
 29 32  1  0  0  0  0
 29 34  1  0  0  0  0
 30 31  2  0  0  0  0
 30 38  1  0  0  0  0
 32 35  1  0  0  0  0
 32 36  1  0  0  0  0
 32 37  1  0  0  0  0
 38 39  1  0  0  0  0
 38 40  1  0  0  0  0
 39 41  1  0  0  0  0
 39 42  1  0  0  0  0
 39 43  1  0  0  0  0
M  END
$$$$

  -OEChem-05262217303D

 43 42  0     1  0  0  0  0  0999 V2000
    3.6723   -1.4643    3.9639 C   0  0  0  0  0  0  0  0  0  0  0  0
    2.8347   -1.1526    4.7959 O   0  0  0  0  0  0  0  0  0  0  0  0
    4.7818   -2.4328    4.3281 C   0  0  0  0  0  0  0  0  0  0  0  0
    5.7534   -1.9441    4.2213 H   0  0  0  0  0  0  0  0  0  0  0  0
    4.6669   -2.7662    5.3634 H   0  0  0  0  0  0  0  0  0  0  0  0
    4.7465   -3.3057    3.6719 H   0  0  0  0  0  0  0  0  0  0  0  0
    3.6080   -0.9455    2.6878 N   0  0  0  0  0  0  0  0  0  0  0  0
    2.4756   -0.1650    2.1696 C   0  0  2  0  0  0  0  0  0  0  0  0
    2.0063   -0.6816    0.7938 C   0  0  0  0  0  0  0  0  0  0  0  0
    2.7285   -1.4227    0.1370 O   0  0  0  0  0  0  0  0  0  0  0  0
    2.9159    1.2977    2.0723 C   0  0  0  0  0  0  0  0  0  0  0  0
    4.2251   -1.3649    1.9933 H   0  0  0  0  0  0  0  0  0  0  0  0
    1.6210   -0.2358    2.8508 H   0  0  0  0  0  0  0  0  0  0  0  0
    3.7552    1.3997    1.3764 H   0  0  0  0  0  0  0  0  0  0  0  0
    2.0932    1.9263    1.7181 H   0  0  0  0  0  0  0  0  0  0  0  0
    3.2309    1.6627    3.0552 H   0  0  0  0  0  0  0  0  0  0  0  0
    0.7563   -0.3345    0.3110 N   0  0  0  0  0  0  0  0  0  0  0  0
    0.3861   -0.4527   -1.1140 C   0  0  2  0  0  0  0  0  0  0  0  0
    0.3434    0.9176   -1.8215 C   0  0  0  0  0  0  0  0  0  0  0  0
    1.3932    1.5111   -2.0287 O   0  0  0  0  0  0  0  0  0  0  0  0
   -0.9188   -1.2532   -1.2408 C   0  0  0  0  0  0  0  0  0  0  0  0
   -2.0361   -0.5615   -0.6642 O   0  0  0  0  0  0  0  0  0  0  0  0
    0.2701    0.3738    0.8536 H   0  0  0  0  0  0  0  0  0  0  0  0
    1.1481   -1.0271   -1.6517 H   0  0  0  0  0  0  0  0  0  0  0  0
   -0.8021   -2.2318   -0.7632 H   0  0  0  0  0  0  0  0  0  0  0  0
   -1.1214   -1.4294   -2.3026 H   0  0  0  0  0  0  0  0  0  0  0  0
   -2.1014   -0.7597    0.2884 H   0  0  0  0  0  0  0  0  0  0  0  0
   -0.8614    1.5241   -2.1347 N   0  0  0  0  0  0  0  0  0  0  0  0
   -1.0799    2.8643   -2.7161 C   0  0  2  0  0  0  0  0  0  0  0  0
   -0.5698    3.0370   -4.1655 C   0  0  0  0  0  0  0  0  0  0  0  0
   -1.3250    3.4855   -5.0180 O   0  0  0  0  0  0  0  0  0  0  0  0
   -0.5155    3.9619   -1.8037 C   0  0  0  0  0  0  0  0  0  0  0  0
   -1.6873    0.9789   -1.8757 H   0  0  0  0  0  0  0  0  0  0  0  0
   -2.1634    3.0147   -2.7605 H   0  0  0  0  0  0  0  0  0  0  0  0
    0.5778    3.9367   -1.7798 H   0  0  0  0  0  0  0  0  0  0  0  0
   -0.8247    4.9464   -2.1689 H   0  0  0  0  0  0  0  0  0  0  0  0
   -0.8903    3.8382   -0.7834 H   0  0  0  0  0  0  0  0  0  0  0  0
    0.7237    2.7066   -4.5175 N   0  0  0  0  0  0  0  0  0  0  0  0
    1.2630    2.8396   -5.8637 C   0  0  0  0  0  0  0  0  0  0  0  0
    1.3139    2.3289   -3.7714 H   0  0  0  0  0  0  0  0  0  0  0  0
    2.3208    2.5595   -5.8755 H   0  0  0  0  0  0  0  0  0  0  0  0
    0.7230    2.1874   -6.5578 H   0  0  0  0  0  0  0  0  0  0  0  0
    1.1759    3.8744   -6.2112 H   0  0  0  0  0  0  0  0  0  0  0  0
  1  2  2  0  0  0  0
  1  3  1  0  0  0  0
  1  7  1  0  0  0  0
  3  4  1  0  0  0  0
  3  5  1  0  0  0  0
  3  6  1  0  0  0  0
  7  8  1  0  0  0  0
  7 12  1  0  0  0  0
  8  9  1  0  0  0  0
  8 11  1  0  0  0  0
  8 13  1  0  0  0  0
  9 10  2  0  0  0  0
  9 17  1  0  0  0  0
 11 14  1  0  0  0  0
 11 15  1  0  0  0  0
 11 16  1  0  0  0  0
 17 18  1  0  0  0  0
 17 23  1  0  0  0  0
 18 19  1  0  0  0  0
 18 21  1  0  0  0  0
 18 24  1  0  0  0  0
 19 20  2  0  0  0  0
 19 28  1  0  0  0  0
 21 22  1  0  0  0  0
 21 25  1  0  0  0  0
 21 26  1  0  0  0  0
 22 27  1  0  0  0  0
 28 29  1  0  0  0  0
 28 33  1  0  0  0  0
 29 30  1  0  0  0  0
 29 32  1  0  0  0  0
 29 34  1  0  0  0  0
 30 31  2  0  0  0  0
 30 38  1  0  0  0  0
 32 35  1  0  0  0  0
 32 36  1  0  0  0  0
 32 37  1  0  0  0  0
 38 39  1  0  0  0  0
 38 40  1  0  0  0  0
 39 41  1  0  0  0  0
 39 42  1  0  0  0  0
 39 43  1  0  0  0  0
M  END
$$$$

  -OEChem-05262217303D

 43 42  0     1  0  0  0  0  0999 V2000
    3.7382   -1.6899    3.9912 C   0  0  0  0  0  0  0  0  0  0  0  0
    2.9071   -1.4650    4.8569 O   0  0  0  0  0  0  0  0  0  0  0  0
    4.9055   -2.6160    4.2767 C   0  0  0  0  0  0  0  0  0  0  0  0
    5.8471   -2.0719    4.1708 H   0  0  0  0  0  0  0  0  0  0  0  0
    4.8370   -3.0066    5.2959 H   0  0  0  0  0  0  0  0  0  0  0  0
    4.8970   -3.4550    3.5768 H   0  0  0  0  0  0  0  0  0  0  0  0
    3.6117   -1.1109    2.7464 N   0  0  0  0  0  0  0  0  0  0  0  0
    2.4483   -0.3280    2.3094 C   0  0  2  0  0  0  0  0  0  0  0  0
    2.1109   -0.5868    0.8257 C   0  0  0  0  0  0  0  0  0  0  0  0
    2.9231   -1.1511    0.1018 O   0  0  0  0  0  0  0  0  0  0  0  0
    2.7572    1.1536    2.5417 C   0  0  0  0  0  0  0  0  0  0  0  0
    4.2476   -1.4309    2.0166 H   0  0  0  0  0  0  0  0  0  0  0  0
    1.5678   -0.6093    2.8969 H   0  0  0  0  0  0  0  0  0  0  0  0
    3.6297    1.4587    1.9549 H   0  0  0  0  0  0  0  0  0  0  0  0
    1.9062    1.7761    2.2501 H   0  0  0  0  0  0  0  0  0  0  0  0
    2.9690    1.3336    3.6006 H   0  0  0  0  0  0  0  0  0  0  0  0
    0.8778   -0.2217    0.3163 N   0  0  0  0  0  0  0  0  0  0  0  0
    0.5030   -0.2900   -1.1080 C   0  0  2  0  0  0  0  0  0  0  0  0
    0.4717    1.0973   -1.7821 C   0  0  0  0  0  0  0  0  0  0  0  0
    1.4872    1.5366   -2.3044 O   0  0  0  0  0  0  0  0  0  0  0  0
   -0.8215   -1.0606   -1.2223 C   0  0  0  0  0  0  0  0  0  0  0  0
   -1.9147   -0.3560   -0.6103 O   0  0  0  0  0  0  0  0  0  0  0  0
    0.2274    0.2299    0.9542 H   0  0  0  0  0  0  0  0  0  0  0  0
    1.2503   -0.8700   -1.6604 H   0  0  0  0  0  0  0  0  0  0  0  0
   -0.7075   -2.0409   -0.7476 H   0  0  0  0  0  0  0  0  0  0  0  0
   -1.0490   -1.2301   -2.2803 H   0  0  0  0  0  0  0  0  0  0  0  0
   -2.7209   -0.9069   -0.6197 H   0  0  0  0  0  0  0  0  0  0  0  0
   -0.6880    1.8537   -1.7961 N   0  0  0  0  0  0  0  0  0  0  0  0
   -0.8855    3.2100   -2.3474 C   0  0  2  0  0  0  0  0  0  0  0  0
   -0.7664    3.3126   -3.8854 C   0  0  0  0  0  0  0  0  0  0  0  0
   -1.6658    3.8436   -4.5241 O   0  0  0  0  0  0  0  0  0  0  0  0
    0.0395    4.2242   -1.6608 C   0  0  0  0  0  0  0  0  0  0  0  0
   -1.4882    1.3973   -1.3541 H   0  0  0  0  0  0  0  0  0  0  0  0
   -1.9128    3.5014   -2.1060 H   0  0  0  0  0  0  0  0  0  0  0  0
    1.0858    4.0548   -1.9316 H   0  0  0  0  0  0  0  0  0  0  0  0
   -0.2294    5.2407   -1.9648 H   0  0  0  0  0  0  0  0  0  0  0  0
   -0.0558    4.1507   -0.5733 H   0  0  0  0  0  0  0  0  0  0  0  0
    0.3370    2.8223   -4.5541 N   0  0  0  0  0  0  0  0  0  0  0  0
    0.5148    2.8866   -5.9975 C   0  0  0  0  0  0  0  0  0  0  0  0
    1.0566    2.3797   -3.9756 H   0  0  0  0  0  0  0  0  0  0  0  0
    1.4760    2.4452   -6.2777 H   0  0  0  0  0  0  0  0  0  0  0  0
   -0.2820    2.3345   -6.5062 H   0  0  0  0  0  0  0  0  0  0  0  0
    0.4984    3.9265   -6.3400 H   0  0  0  0  0  0  0  0  0  0  0  0
  1  2  2  0  0  0  0
  1  3  1  0  0  0  0
  1  7  1  0  0  0  0
  3  4  1  0  0  0  0
  3  5  1  0  0  0  0
  3  6  1  0  0  0  0
  7  8  1  0  0  0  0
  7 12  1  0  0  0  0
  8  9  1  0  0  0  0
  8 11  1  0  0  0  0
  8 13  1  0  0  0  0
  9 10  2  0  0  0  0
  9 17  1  0  0  0  0
 11 14  1  0  0  0  0
 11 15  1  0  0  0  0
 11 16  1  0  0  0  0
 17 18  1  0  0  0  0
 17 23  1  0  0  0  0
 18 19  1  0  0  0  0
 18 21  1  0  0  0  0
 18 24  1  0  0  0  0
 19 20  2  0  0  0  0
 19 28  1  0  0  0  0
 21 22  1  0  0  0  0
 21 25  1  0  0  0  0
 21 26  1  0  0  0  0
 22 27  1  0  0  0  0
 28 29  1  0  0  0  0
 28 33  1  0  0  0  0
 29 30  1  0  0  0  0
 29 32  1  0  0  0  0
 29 34  1  0  0  0  0
 30 31  2  0  0  0  0
 30 38  1  0  0  0  0
 32 35  1  0  0  0  0
 32 36  1  0  0  0  0
 32 37  1  0  0  0  0
 38 39  1  0  0  0  0
 38 40  1  0  0  0  0
 39 41  1  0  0  0  0
 39 42  1  0  0  0  0
 39 43  1  0  0  0  0
M  END
$$$$

  -OEChem-05262217303D

 43 42  0     1  0  0  0  0  0999 V2000
    3.7142   -1.8389    4.0019 C   0  0  0  0  0  0  0  0  0  0  0  0
    2.8612   -1.6597    4.8570 O   0  0  0  0  0  0  0  0  0  0  0  0
    4.8824   -2.7680    4.2725 C   0  0  0  0  0  0  0  0  0  0  0  0
    5.8238   -2.2227    4.1712 H   0  0  0  0  0  0  0  0  0  0  0  0
    4.8166   -3.1714    5.2869 H   0  0  0  0  0  0  0  0  0  0  0  0
    4.8719   -3.5980    3.5619 H   0  0  0  0  0  0  0  0  0  0  0  0
    3.6110   -1.2038    2.7828 N   0  0  0  0  0  0  0  0  0  0  0  0
    2.4536   -0.4046    2.3607 C   0  0  2  0  0  0  0  0  0  0  0  0
    2.1672   -0.5660    0.8533 C   0  0  0  0  0  0  0  0  0  0  0  0
    3.0077   -1.0730    0.1197 O   0  0  0  0  0  0  0  0  0  0  0  0
    2.7351    1.0612    2.7033 C   0  0  0  0  0  0  0  0  0  0  0  0
    4.2678   -1.4807    2.0537 H   0  0  0  0  0  0  0  0  0  0  0  0
    1.5584   -0.7345    2.8985 H   0  0  0  0  0  0  0  0  0  0  0  0
    3.6203    1.4170    2.1658 H   0  0  0  0  0  0  0  0  0  0  0  0
    1.8840    1.6919    2.4295 H   0  0  0  0  0  0  0  0  0  0  0  0
    2.9130    1.1700    3.7781 H   0  0  0  0  0  0  0  0  0  0  0  0
    0.9498   -0.1710    0.3296 N   0  0  0  0  0  0  0  0  0  0  0  0
    0.6032   -0.1874   -1.1032 C   0  0  2  0  0  0  0  0  0  0  0  0
    0.5988    1.2173   -1.7364 C   0  0  0  0  0  0  0  0  0  0  0  0
    1.5175    1.5545   -2.4708 O   0  0  0  0  0  0  0  0  0  0  0  0
   -0.7390   -0.9161   -1.2615 C   0  0  0  0  0  0  0  0  0  0  0  0
   -1.8183   -0.1926   -0.6466 O   0  0  0  0  0  0  0  0  0  0  0  0
    0.2696    0.2197    0.9767 H   0  0  0  0  0  0  0  0  0  0  0  0
    1.3477   -0.7683   -1.6586 H   0  0  0  0  0  0  0  0  0  0  0  0
   -0.6643   -1.9137   -0.8155 H   0  0  0  0  0  0  0  0  0  0  0  0
   -0.9534   -1.0450   -2.3278 H   0  0  0  0  0  0  0  0  0  0  0  0
   -2.6529   -0.6923   -0.7312 H   0  0  0  0  0  0  0  0  0  0  0  0
   -0.4411    2.0951   -1.4816 N   0  0  0  0  0  0  0  0  0  0  0  0
   -0.6260    3.4588   -2.0170 C   0  0  2  0  0  0  0  0  0  0  0  0
   -0.8579    3.5246   -3.5443 C   0  0  0  0  0  0  0  0  0  0  0  0
   -1.8687    4.0620   -3.9780 O   0  0  0  0  0  0  0  0  0  0  0  0
    0.5282    4.3792   -1.5958 C   0  0  0  0  0  0  0  0  0  0  0  0
   -1.2251    1.6703   -0.9831 H   0  0  0  0  0  0  0  0  0  0  0  0
   -1.5345    3.8595   -1.5557 H   0  0  0  0  0  0  0  0  0  0  0  0
    1.4622    4.0998   -2.0918 H   0  0  0  0  0  0  0  0  0  0  0  0
    0.2971    5.4148   -1.8641 H   0  0  0  0  0  0  0  0  0  0  0  0
    0.6796    4.3276   -0.5136 H   0  0  0  0  0  0  0  0  0  0  0  0
    0.0512    2.9812   -4.4297 N   0  0  0  0  0  0  0  0  0  0  0  0
   -0.1140    2.9804   -5.8760 C   0  0  0  0  0  0  0  0  0  0  0  0
    0.8483    2.4922   -4.0127 H   0  0  0  0  0  0  0  0  0  0  0  0
    0.7583    2.5241   -6.3536 H   0  0  0  0  0  0  0  0  0  0  0  0
   -1.0040    2.4095   -6.1595 H   0  0  0  0  0  0  0  0  0  0  0  0
   -0.2164    4.0041   -6.2505 H   0  0  0  0  0  0  0  0  0  0  0  0
  1  2  2  0  0  0  0
  1  3  1  0  0  0  0
  1  7  1  0  0  0  0
  3  4  1  0  0  0  0
  3  5  1  0  0  0  0
  3  6  1  0  0  0  0
  7  8  1  0  0  0  0
  7 12  1  0  0  0  0
  8  9  1  0  0  0  0
  8 11  1  0  0  0  0
  8 13  1  0  0  0  0
  9 10  2  0  0  0  0
  9 17  1  0  0  0  0
 11 14  1  0  0  0  0
 11 15  1  0  0  0  0
 11 16  1  0  0  0  0
 17 18  1  0  0  0  0
 17 23  1  0  0  0  0
 18 19  1  0  0  0  0
 18 21  1  0  0  0  0
 18 24  1  0  0  0  0
 19 20  2  0  0  0  0
 19 28  1  0  0  0  0
 21 22  1  0  0  0  0
 21 25  1  0  0  0  0
 21 26  1  0  0  0  0
 22 27  1  0  0  0  0
 28 29  1  0  0  0  0
 28 33  1  0  0  0  0
 29 30  1  0  0  0  0
 29 32  1  0  0  0  0
 29 34  1  0  0  0  0
 30 31  2  0  0  0  0
 30 38  1  0  0  0  0
 32 35  1  0  0  0  0
 32 36  1  0  0  0  0
 32 37  1  0  0  0  0
 38 39  1  0  0  0  0
 38 40  1  0  0  0  0
 39 41  1  0  0  0  0
 39 42  1  0  0  0  0
 39 43  1  0  0  0  0
M  END
$$$$

  -OEChem-05262217303D

 43 42  0     1  0  0  0  0  0999 V2000
    3.6763   -1.9539    4.0159 C   0  0  0  0  0  0  0  0  0  0  0  0
    2.7918   -1.8297    4.8484 O   0  0  0  0  0  0  0  0  0  0  0  0
    4.8427   -2.8886    4.2762 C   0  0  0  0  0  0  0  0  0  0  0  0
    5.7854   -2.3426    4.1906 H   0  0  0  0  0  0  0  0  0  0  0  0
    4.7704   -3.3102    5.2828 H   0  0  0  0  0  0  0  0  0  0  0  0
    4.8360   -3.7053    3.5502 H   0  0  0  0  0  0  0  0  0  0  0  0
    3.6093   -1.2543    2.8297 N   0  0  0  0  0  0  0  0  0  0  0  0
    2.4511   -0.4583    2.4031 C   0  0  2  0  0  0  0  0  0  0  0  0
    2.2098   -0.5695    0.8832 C   0  0  0  0  0  0  0  0  0  0  0  0
    3.0732   -1.0450    0.1555 O   0  0  0  0  0  0  0  0  0  0  0  0
    2.6974    0.9994    2.8034 C   0  0  0  0  0  0  0  0  0  0  0  0
    4.2927   -1.4898    2.1106 H   0  0  0  0  0  0  0  0  0  0  0  0
    1.5461   -0.8207    2.9025 H   0  0  0  0  0  0  0  0  0  0  0  0
    3.5951    1.3857    2.3097 H   0  0  0  0  0  0  0  0  0  0  0  0
    1.8469    1.6266    2.5197 H   0  0  0  0  0  0  0  0  0  0  0  0
    2.8350    1.0758    3.8867 H   0  0  0  0  0  0  0  0  0  0  0  0
    1.0140   -0.1417    0.3370 N   0  0  0  0  0  0  0  0  0  0  0  0
    0.6940   -0.1399   -1.1023 C   0  0  2  0  0  0  0  0  0  0  0  0
    0.7351    1.2647   -1.7304 C   0  0  0  0  0  0  0  0  0  0  0  0
    1.4966    1.4924   -2.6610 O   0  0  0  0  0  0  0  0  0  0  0  0
   -0.6812   -0.7953   -1.2777 C   0  0  0  0  0  0  0  0  0  0  0  0
   -1.7168   -0.0015   -0.6742 O   0  0  0  0  0  0  0  0  0  0  0  0
    0.3089    0.2112    0.9790 H   0  0  0  0  0  0  0  0  0  0  0  0
    1.4212   -0.7502   -1.6494 H   0  0  0  0  0  0  0  0  0  0  0  0
   -0.6714   -1.7954   -0.8310 H   0  0  0  0  0  0  0  0  0  0  0  0
   -0.8906   -0.9109   -2.3466 H   0  0  0  0  0  0  0  0  0  0  0  0
   -2.5905   -0.4101   -0.8254 H   0  0  0  0  0  0  0  0  0  0  0  0
   -0.1050    2.2580   -1.2549 N   0  0  0  0  0  0  0  0  0  0  0  0
   -0.2335    3.6407   -1.7560 C   0  0  2  0  0  0  0  0  0  0  0  0
   -0.8011    3.7520   -3.1896 C   0  0  0  0  0  0  0  0  0  0  0  0
   -1.8248    4.3946   -3.3840 O   0  0  0  0  0  0  0  0  0  0  0  0
    1.0930    4.4021   -1.6249 C   0  0  0  0  0  0  0  0  0  0  0  0
   -0.8535    1.9042   -0.6587 H   0  0  0  0  0  0  0  0  0  0  0  0
   -0.9531    4.1489   -1.1058 H   0  0  0  0  0  0  0  0  0  0  0  0
    1.8510    4.0048   -2.3059 H   0  0  0  0  0  0  0  0  0  0  0  0
    0.9428    5.4594   -1.8642 H   0  0  0  0  0  0  0  0  0  0  0  0
    1.4722    4.3294   -0.6014 H   0  0  0  0  0  0  0  0  0  0  0  0
   -0.1833    3.1279   -4.2546 N   0  0  0  0  0  0  0  0  0  0  0  0
   -0.6798    3.1626   -5.6230 C   0  0  0  0  0  0  0  0  0  0  0  0
    0.6292    2.5478   -4.0263 H   0  0  0  0  0  0  0  0  0  0  0  0
    0.0013    2.6186   -6.2844 H   0  0  0  0  0  0  0  0  0  0  0  0
   -1.6688    2.6970   -5.6836 H   0  0  0  0  0  0  0  0  0  0  0  0
   -0.7529    4.1963   -5.9771 H   0  0  0  0  0  0  0  0  0  0  0  0
  1  2  2  0  0  0  0
  1  3  1  0  0  0  0
  1  7  1  0  0  0  0
  3  4  1  0  0  0  0
  3  5  1  0  0  0  0
  3  6  1  0  0  0  0
  7  8  1  0  0  0  0
  7 12  1  0  0  0  0
  8  9  1  0  0  0  0
  8 11  1  0  0  0  0
  8 13  1  0  0  0  0
  9 10  2  0  0  0  0
  9 17  1  0  0  0  0
 11 14  1  0  0  0  0
 11 15  1  0  0  0  0
 11 16  1  0  0  0  0
 17 18  1  0  0  0  0
 17 23  1  0  0  0  0
 18 19  1  0  0  0  0
 18 21  1  0  0  0  0
 18 24  1  0  0  0  0
 19 20  2  0  0  0  0
 19 28  1  0  0  0  0
 21 22  1  0  0  0  0
 21 25  1  0  0  0  0
 21 26  1  0  0  0  0
 22 27  1  0  0  0  0
 28 29  1  0  0  0  0
 28 33  1  0  0  0  0
 29 30  1  0  0  0  0
 29 32  1  0  0  0  0
 29 34  1  0  0  0  0
 30 31  2  0  0  0  0
 30 38  1  0  0  0  0
 32 35  1  0  0  0  0
 32 36  1  0  0  0  0
 32 37  1  0  0  0  0
 38 39  1  0  0  0  0
 38 40  1  0  0  0  0
 39 41  1  0  0  0  0
 39 42  1  0  0  0  0
 39 43  1  0  0  0  0
M  END
$$$$

  -OEChem-05262217303D

 43 42  0     1  0  0  0  0  0999 V2000
    3.6180   -2.1005    4.0309 C   0  0  0  0  0  0  0  0  0  0  0  0
    2.7099   -2.0274    4.8437 O   0  0  0  0  0  0  0  0  0  0  0  0
    4.7815   -3.0446    4.2685 C   0  0  0  0  0  0  0  0  0  0  0  0
    5.7257   -2.4979    4.2086 H   0  0  0  0  0  0  0  0  0  0  0  0
    4.7013   -3.4995    5.2597 H   0  0  0  0  0  0  0  0  0  0  0  0
    4.7786   -3.8364    3.5154 H   0  0  0  0  0  0  0  0  0  0  0  0
    3.5786   -1.3354    2.8847 N   0  0  0  0  0  0  0  0  0  0  0  0
    2.4316   -0.5141    2.4757 C   0  0  2  0  0  0  0  0  0  0  0  0
    2.2467   -0.5197    0.9435 C   0  0  0  0  0  0  0  0  0  0  0  0
    3.1398   -0.9420    0.2189 O   0  0  0  0  0  0  0  0  0  0  0  0
    2.6581    0.9114    2.9879 C   0  0  0  0  0  0  0  0  0  0  0  0
    4.2826   -1.5263    2.1720 H   0  0  0  0  0  0  0  0  0  0  0  0
    1.5119   -0.9141    2.9165 H   0  0  0  0  0  0  0  0  0  0  0  0
    3.5691    1.3341    2.5519 H   0  0  0  0  0  0  0  0  0  0  0  0
    1.8140    1.5554    2.7242 H   0  0  0  0  0  0  0  0  0  0  0  0
    2.7624    0.9090    4.0777 H   0  0  0  0  0  0  0  0  0  0  0  0
    1.0742   -0.0551    0.3766 N   0  0  0  0  0  0  0  0  0  0  0  0
    0.7779   -0.0669   -1.0690 C   0  0  2  0  0  0  0  0  0  0  0  0
    0.8767    1.3125   -1.7428 C   0  0  0  0  0  0  0  0  0  0  0  0
    1.4093    1.4100   -2.8409 O   0  0  0  0  0  0  0  0  0  0  0  0
   -0.6280   -0.6460   -1.2456 C   0  0  0  0  0  0  0  0  0  0  0  0
   -1.6072    0.2324   -0.6684 O   0  0  0  0  0  0  0  0  0  0  0  0
    0.3234    0.2094    1.0097 H   0  0  0  0  0  0  0  0  0  0  0  0
    1.4797   -0.7262   -1.5917 H   0  0  0  0  0  0  0  0  0  0  0  0
   -0.6865   -1.6343   -0.7774 H   0  0  0  0  0  0  0  0  0  0  0  0
   -0.8353   -0.7703   -2.3143 H   0  0  0  0  0  0  0  0  0  0  0  0
   -2.5091   -0.0901   -0.8550 H   0  0  0  0  0  0  0  0  0  0  0  0
    0.3126    2.4229   -1.1359 N   0  0  0  0  0  0  0  0  0  0  0  0
    0.2705    3.8030   -1.6594 C   0  0  2  0  0  0  0  0  0  0  0  0
   -0.6018    3.9839   -2.9231 C   0  0  0  0  0  0  0  0  0  0  0  0
   -1.5310    4.7808   -2.9040 O   0  0  0  0  0  0  0  0  0  0  0  0
    1.6860    4.3535   -1.8829 C   0  0  0  0  0  0  0  0  0  0  0  0
   -0.3219    2.1946   -0.3738 H   0  0  0  0  0  0  0  0  0  0  0  0
   -0.1886    4.4221   -0.8818 H   0  0  0  0  0  0  0  0  0  0  0  0
    2.1796    3.8562   -2.7229 H   0  0  0  0  0  0  0  0  0  0  0  0
    1.6402    5.4249   -2.1013 H   0  0  0  0  0  0  0  0  0  0  0  0
    2.2957    4.2081   -0.9862 H   0  0  0  0  0  0  0  0  0  0  0  0
   -0.3620    3.2523   -4.0692 N   0  0  0  0  0  0  0  0  0  0  0  0
   -1.1732    3.3329   -5.2756 C   0  0  0  0  0  0  0  0  0  0  0  0
    0.3810    2.5506   -4.0065 H   0  0  0  0  0  0  0  0  0  0  0  0
   -0.7274    2.7271   -6.0704 H   0  0  0  0  0  0  0  0  0  0  0  0
   -2.1850    2.9628   -5.0816 H   0  0  0  0  0  0  0  0  0  0  0  0
   -1.2373    4.3683   -5.6265 H   0  0  0  0  0  0  0  0  0  0  0  0
  1  2  2  0  0  0  0
  1  3  1  0  0  0  0
  1  7  1  0  0  0  0
  3  4  1  0  0  0  0
  3  5  1  0  0  0  0
  3  6  1  0  0  0  0
  7  8  1  0  0  0  0
  7 12  1  0  0  0  0
  8  9  1  0  0  0  0
  8 11  1  0  0  0  0
  8 13  1  0  0  0  0
  9 10  2  0  0  0  0
  9 17  1  0  0  0  0
 11 14  1  0  0  0  0
 11 15  1  0  0  0  0
 11 16  1  0  0  0  0
 17 18  1  0  0  0  0
 17 23  1  0  0  0  0
 18 19  1  0  0  0  0
 18 21  1  0  0  0  0
 18 24  1  0  0  0  0
 19 20  2  0  0  0  0
 19 28  1  0  0  0  0
 21 22  1  0  0  0  0
 21 25  1  0  0  0  0
 21 26  1  0  0  0  0
 22 27  1  0  0  0  0
 28 29  1  0  0  0  0
 28 33  1  0  0  0  0
 29 30  1  0  0  0  0
 29 32  1  0  0  0  0
 29 34  1  0  0  0  0
 30 31  2  0  0  0  0
 30 38  1  0  0  0  0
 32 35  1  0  0  0  0
 32 36  1  0  0  0  0
 32 37  1  0  0  0  0
 38 39  1  0  0  0  0
 38 40  1  0  0  0  0
 39 41  1  0  0  0  0
 39 42  1  0  0  0  0
 39 43  1  0  0  0  0
M  END
$$$$

  -OEChem-05262217303D

 43 42  0     1  0  0  0  0  0999 V2000
    3.5117   -2.2161    4.2732 C   0  0  0  0  0  0  0  0  0  0  0  0
    2.6302   -2.0341    5.0980 O   0  0  0  0  0  0  0  0  0  0  0  0
    4.6376   -3.1904    4.5633 C   0  0  0  0  0  0  0  0  0  0  0  0
    5.5993   -2.6742    4.5140 H   0  0  0  0  0  0  0  0  0  0  0  0
    4.5171   -3.6168    5.5632 H   0  0  0  0  0  0  0  0  0  0  0  0
    4.6290   -4.0010    3.8305 H   0  0  0  0  0  0  0  0  0  0  0  0
    3.4793   -1.5409    3.0716 N   0  0  0  0  0  0  0  0  0  0  0  0
    2.3688   -0.6870    2.6304 C   0  0  2  0  0  0  0  0  0  0  0  0
    2.2677   -0.6375    1.0909 C   0  0  0  0  0  0  0  0  0  0  0  0
    3.1308   -1.1632    0.3980 O   0  0  0  0  0  0  0  0  0  0  0  0
    2.5750    0.7187    3.2065 C   0  0  0  0  0  0  0  0  0  0  0  0
    4.1589   -1.8131    2.3615 H   0  0  0  0  0  0  0  0  0  0  0  0
    1.4236   -1.0950    3.0049 H   0  0  0  0  0  0  0  0  0  0  0  0
    3.5120    1.1490    2.8386 H   0  0  0  0  0  0  0  0  0  0  0  0
    1.7506    1.3787    2.9210 H   0  0  0  0  0  0  0  0  0  0  0  0
    2.6162    0.6783    4.2998 H   0  0  0  0  0  0  0  0  0  0  0  0
    1.2072    0.0034    0.4790 N   0  0  0  0  0  0  0  0  0  0  0  0
    0.8991   -0.0979   -0.9601 C   0  0  2  0  0  0  0  0  0  0  0  0
    1.2666    1.1396   -1.7897 C   0  0  0  0  0  0  0  0  0  0  0  0
    1.3694    1.0357   -3.0049 O   0  0  0  0  0  0  0  0  0  0  0  0
   -0.6080   -0.3622   -1.0605 C   0  0  0  0  0  0  0  0  0  0  0  0
   -1.3587    0.7674   -0.5846 O   0  0  0  0  0  0  0  0  0  0  0  0
    0.4430    0.2989    1.0846 H   0  0  0  0  0  0  0  0  0  0  0  0
    1.4265   -0.9490   -1.4042 H   0  0  0  0  0  0  0  0  0  0  0  0
   -0.8629   -1.2473   -0.4685 H   0  0  0  0  0  0  0  0  0  0  0  0
   -0.8820   -0.5701   -2.1006 H   0  0  0  0  0  0  0  0  0  0  0  0
   -1.4071    1.4916   -1.2619 H   0  0  0  0  0  0  0  0  0  0  0  0
    1.2401    2.3921   -1.1974 N   0  0  0  0  0  0  0  0  0  0  0  0
    0.9568    3.6283   -1.9474 C   0  0  2  0  0  0  0  0  0  0  0  0
   -0.3867    3.5411   -2.7177 C   0  0  0  0  0  0  0  0  0  0  0  0
   -1.3329    2.9469   -2.2049 O   0  0  0  0  0  0  0  0  0  0  0  0
    2.1533    4.0104   -2.8356 C   0  0  0  0  0  0  0  0  0  0  0  0
    0.9480    2.3688   -0.2249 H   0  0  0  0  0  0  0  0  0  0  0  0
    0.8349    4.4350   -1.2184 H   0  0  0  0  0  0  0  0  0  0  0  0
    2.2535    3.3274   -3.6846 H   0  0  0  0  0  0  0  0  0  0  0  0
    2.0317    5.0265   -3.2228 H   0  0  0  0  0  0  0  0  0  0  0  0
    3.0797    3.9746   -2.2542 H   0  0  0  0  0  0  0  0  0  0  0  0
   -0.5614    4.1489   -3.9476 N   0  0  0  0  0  0  0  0  0  0  0  0
   -1.7755    3.9992   -4.7406 C   0  0  0  0  0  0  0  0  0  0  0  0
    0.2770    4.4916   -4.4074 H   0  0  0  0  0  0  0  0  0  0  0  0
   -1.7064    4.5992   -5.6532 H   0  0  0  0  0  0  0  0  0  0  0  0
   -1.9213    2.9512   -5.0230 H   0  0  0  0  0  0  0  0  0  0  0  0
   -2.6495    4.3370   -4.1736 H   0  0  0  0  0  0  0  0  0  0  0  0
  1  2  2  0  0  0  0
  1  3  1  0  0  0  0
  1  7  1  0  0  0  0
  3  4  1  0  0  0  0
  3  5  1  0  0  0  0
  3  6  1  0  0  0  0
  7  8  1  0  0  0  0
  7 12  1  0  0  0  0
  8  9  1  0  0  0  0
  8 11  1  0  0  0  0
  8 13  1  0  0  0  0
  9 10  2  0  0  0  0
  9 17  1  0  0  0  0
 11 14  1  0  0  0  0
 11 15  1  0  0  0  0
 11 16  1  0  0  0  0
 17 18  1  0  0  0  0
 17 23  1  0  0  0  0
 18 19  1  0  0  0  0
 18 21  1  0  0  0  0
 18 24  1  0  0  0  0
 19 20  2  0  0  0  0
 19 28  1  0  0  0  0
 21 22  1  0  0  0  0
 21 25  1  0  0  0  0
 21 26  1  0  0  0  0
 22 27  1  0  0  0  0
 28 29  1  0  0  0  0
 28 33  1  0  0  0  0
 29 30  1  0  0  0  0
 29 32  1  0  0  0  0
 29 34  1  0  0  0  0
 30 31  2  0  0  0  0
 30 38  1  0  0  0  0
 32 35  1  0  0  0  0
 32 36  1  0  0  0  0
 32 37  1  0  0  0  0
 38 39  1  0  0  0  0
 38 40  1  0  0  0  0
 39 41  1  0  0  0  0
 39 42  1  0  0  0  0
 39 43  1  0  0  0  0
M  END
$$$$

  -OEChem-05262217303D

 43 42  0     1  0  0  0  0  0999 V2000
    3.5209   -2.1485    4.3125 C   0  0  0  0  0  0  0  0  0  0  0  0
    2.6611   -1.9167    5.1475 O   0  0  0  0  0  0  0  0  0  0  0  0
    4.6323   -3.1357    4.6139 C   0  0  0  0  0  0  0  0  0  0  0  0
    5.6021   -2.6367    4.5496 H   0  0  0  0  0  0  0  0  0  0  0  0
    4.5116   -3.5426    5.6217 H   0  0  0  0  0  0  0  0  0  0  0  0
    4.6057   -3.9588    3.8958 H   0  0  0  0  0  0  0  0  0  0  0  0
    3.4778   -1.5176    3.0876 N   0  0  0  0  0  0  0  0  0  0  0  0
    2.3755   -0.6587    2.6361 C   0  0  2  0  0  0  0  0  0  0  0  0
    2.2363   -0.6758    1.0985 C   0  0  0  0  0  0  0  0  0  0  0  0
    3.0684   -1.2539    0.4092 O   0  0  0  0  0  0  0  0  0  0  0  0
    2.6302    0.7653    3.1434 C   0  0  0  0  0  0  0  0  0  0  0  0
    4.1358   -1.8331    2.3752 H   0  0  0  0  0  0  0  0  0  0  0  0
    1.4310   -1.0260    3.0525 H   0  0  0  0  0  0  0  0  0  0  0  0
    3.5606    1.1610    2.7236 H   0  0  0  0  0  0  0  0  0  0  0  0
    1.8077    1.4289    2.8611 H   0  0  0  0  0  0  0  0  0  0  0  0
    2.7121    0.7694    4.2351 H   0  0  0  0  0  0  0  0  0  0  0  0
    1.1872   -0.0234    0.4789 N   0  0  0  0  0  0  0  0  0  0  0  0
    0.8394   -0.1878   -0.9457 C   0  0  2  0  0  0  0  0  0  0  0  0
    1.2297    0.9794   -1.8613 C   0  0  0  0  0  0  0  0  0  0  0  0
    1.0847    0.8674   -3.0716 O   0  0  0  0  0  0  0  0  0  0  0  0
   -0.6822   -0.3820   -0.9770 C   0  0  0  0  0  0  0  0  0  0  0  0
   -1.3604    0.8084   -0.5393 O   0  0  0  0  0  0  0  0  0  0  0  0
    0.4470    0.3319    1.0834 H   0  0  0  0  0  0  0  0  0  0  0  0
    1.3118   -1.0873   -1.3544 H   0  0  0  0  0  0  0  0  0  0  0  0
   -0.9601   -1.2216   -0.3312 H   0  0  0  0  0  0  0  0  0  0  0  0
   -1.0037   -0.6295   -1.9946 H   0  0  0  0  0  0  0  0  0  0  0  0
   -1.2799    1.5557   -1.1855 H   0  0  0  0  0  0  0  0  0  0  0  0
    1.5724    2.2031   -1.3107 N   0  0  0  0  0  0  0  0  0  0  0  0
    1.3783    3.4787   -2.0235 C   0  0  2  0  0  0  0  0  0  0  0  0
   -0.0719    3.6443   -2.5524 C   0  0  0  0  0  0  0  0  0  0  0  0
   -1.0056    3.1463   -1.9270 O   0  0  0  0  0  0  0  0  0  0  0  0
    2.4472    3.6435   -3.1170 C   0  0  0  0  0  0  0  0  0  0  0  0
    1.5119    2.2223   -0.2971 H   0  0  0  0  0  0  0  0  0  0  0  0
    1.5321    4.2873   -1.3029 H   0  0  0  0  0  0  0  0  0  0  0  0
    2.2636    2.9652   -3.9559 H   0  0  0  0  0  0  0  0  0  0  0  0
    2.4512    4.6693   -3.4971 H   0  0  0  0  0  0  0  0  0  0  0  0
    3.4390    3.4259   -2.7089 H   0  0  0  0  0  0  0  0  0  0  0  0
   -0.3465    4.3833   -3.6888 N   0  0  0  0  0  0  0  0  0  0  0  0
   -1.6784    4.4718   -4.2749 C   0  0  0  0  0  0  0  0  0  0  0  0
    0.4496    4.6605   -4.2549 H   0  0  0  0  0  0  0  0  0  0  0  0
   -1.6721    5.1616   -5.1243 H   0  0  0  0  0  0  0  0  0  0  0  0
   -2.0067    3.4884   -4.6275 H   0  0  0  0  0  0  0  0  0  0  0  0
   -2.4002    4.8415   -3.5389 H   0  0  0  0  0  0  0  0  0  0  0  0
  1  2  2  0  0  0  0
  1  3  1  0  0  0  0
  1  7  1  0  0  0  0
  3  4  1  0  0  0  0
  3  5  1  0  0  0  0
  3  6  1  0  0  0  0
  7  8  1  0  0  0  0
  7 12  1  0  0  0  0
  8  9  1  0  0  0  0
  8 11  1  0  0  0  0
  8 13  1  0  0  0  0
  9 10  2  0  0  0  0
  9 17  1  0  0  0  0
 11 14  1  0  0  0  0
 11 15  1  0  0  0  0
 11 16  1  0  0  0  0
 17 18  1  0  0  0  0
 17 23  1  0  0  0  0
 18 19  1  0  0  0  0
 18 21  1  0  0  0  0
 18 24  1  0  0  0  0
 19 20  2  0  0  0  0
 19 28  1  0  0  0  0
 21 22  1  0  0  0  0
 21 25  1  0  0  0  0
 21 26  1  0  0  0  0
 22 27  1  0  0  0  0
 28 29  1  0  0  0  0
 28 33  1  0  0  0  0
 29 30  1  0  0  0  0
 29 32  1  0  0  0  0
 29 34  1  0  0  0  0
 30 31  2  0  0  0  0
 30 38  1  0  0  0  0
 32 35  1  0  0  0  0
 32 36  1  0  0  0  0
 32 37  1  0  0  0  0
 38 39  1  0  0  0  0
 38 40  1  0  0  0  0
 39 41  1  0  0  0  0
 39 42  1  0  0  0  0
 39 43  1  0  0  0  0
M  END
$$$$

  -OEChem-05262217303D

 43 42  0     1  0  0  0  0  0999 V2000
    3.5747   -2.0403    4.3209 C   0  0  0  0  0  0  0  0  0  0  0  0
    2.7516   -1.7612    5.1778 O   0  0  0  0  0  0  0  0  0  0  0  0
    4.6971   -3.0137    4.6276 C   0  0  0  0  0  0  0  0  0  0  0  0
    5.6643   -2.5344    4.4575 H   0  0  0  0  0  0  0  0  0  0  0  0
    4.6429   -3.3356    5.6714 H   0  0  0  0  0  0  0  0  0  0  0  0
    4.6150   -3.8920    3.9827 H   0  0  0  0  0  0  0  0  0  0  0  0
    3.4806   -1.4766    3.0664 N   0  0  0  0  0  0  0  0  0  0  0  0
    2.3623   -0.6384    2.6141 C   0  0  2  0  0  0  0  0  0  0  0  0
    2.1775   -0.7250    1.0834 C   0  0  0  0  0  0  0  0  0  0  0  0
    2.9799   -1.3489    0.3987 O   0  0  0  0  0  0  0  0  0  0  0  0
    2.6291    0.8076    3.0488 C   0  0  0  0  0  0  0  0  0  0  0  0
    4.1036   -1.8383    2.3445 H   0  0  0  0  0  0  0  0  0  0  0  0
    1.4323   -0.9877    3.0763 H   0  0  0  0  0  0  0  0  0  0  0  0
    3.5467    1.1836    2.5854 H   0  0  0  0  0  0  0  0  0  0  0  0
    1.7978    1.4576    2.7600 H   0  0  0  0  0  0  0  0  0  0  0  0
    2.7417    0.8625    4.1365 H   0  0  0  0  0  0  0  0  0  0  0  0
    1.1354   -0.0699    0.4551 N   0  0  0  0  0  0  0  0  0  0  0  0
    0.7529   -0.2897   -0.9534 C   0  0  2  0  0  0  0  0  0  0  0  0
    1.1602    0.8235   -1.9283 C   0  0  0  0  0  0  0  0  0  0  0  0
    0.7999    0.7704   -3.0974 O   0  0  0  0  0  0  0  0  0  0  0  0
   -0.7764   -0.4193   -0.9319 C   0  0  0  0  0  0  0  0  0  0  0  0
   -1.3884    0.8217   -0.5362 O   0  0  0  0  0  0  0  0  0  0  0  0
    0.4255    0.3534    1.0530 H   0  0  0  0  0  0  0  0  0  0  0  0
    1.1797   -1.2246   -1.3309 H   0  0  0  0  0  0  0  0  0  0  0  0
   -1.0731   -1.2130   -0.2382 H   0  0  0  0  0  0  0  0  0  0  0  0
   -1.1378   -0.7017   -1.9267 H   0  0  0  0  0  0  0  0  0  0  0  0
   -1.1919    1.5637   -1.1584 H   0  0  0  0  0  0  0  0  0  0  0  0
    1.8365    1.9363   -1.4585 N   0  0  0  0  0  0  0  0  0  0  0  0
    1.7534    3.2500   -2.1212 C   0  0  2  0  0  0  0  0  0  0  0  0
    0.2893    3.6839   -2.4085 C   0  0  0  0  0  0  0  0  0  0  0  0
   -0.6182    3.2970   -1.6751 O   0  0  0  0  0  0  0  0  0  0  0  0
    2.6460    3.2597   -3.3731 C   0  0  0  0  0  0  0  0  0  0  0  0
    1.9750    1.9294   -0.4525 H   0  0  0  0  0  0  0  0  0  0  0  0
    2.1597    3.9953   -1.4312 H   0  0  0  0  0  0  0  0  0  0  0  0
    2.2197    2.6381   -4.1667 H   0  0  0  0  0  0  0  0  0  0  0  0
    2.7601    4.2785   -3.7549 H   0  0  0  0  0  0  0  0  0  0  0  0
    3.6406    2.8730   -3.1293 H   0  0  0  0  0  0  0  0  0  0  0  0
   -0.0140    4.5480   -3.4455 N   0  0  0  0  0  0  0  0  0  0  0  0
   -1.3805    4.9043   -3.8083 C   0  0  0  0  0  0  0  0  0  0  0  0
    0.7298    4.7490   -4.1068 H   0  0  0  0  0  0  0  0  0  0  0  0
   -1.3774    5.6262   -4.6307 H   0  0  0  0  0  0  0  0  0  0  0  0
   -1.9352    4.0158   -4.1280 H   0  0  0  0  0  0  0  0  0  0  0  0
   -1.8994    5.3565   -2.9566 H   0  0  0  0  0  0  0  0  0  0  0  0
  1  2  2  0  0  0  0
  1  3  1  0  0  0  0
  1  7  1  0  0  0  0
  3  4  1  0  0  0  0
  3  5  1  0  0  0  0
  3  6  1  0  0  0  0
  7  8  1  0  0  0  0
  7 12  1  0  0  0  0
  8  9  1  0  0  0  0
  8 11  1  0  0  0  0
  8 13  1  0  0  0  0
  9 10  2  0  0  0  0
  9 17  1  0  0  0  0
 11 14  1  0  0  0  0
 11 15  1  0  0  0  0
 11 16  1  0  0  0  0
 17 18  1  0  0  0  0
 17 23  1  0  0  0  0
 18 19  1  0  0  0  0
 18 21  1  0  0  0  0
 18 24  1  0  0  0  0
 19 20  2  0  0  0  0
 19 28  1  0  0  0  0
 21 22  1  0  0  0  0
 21 25  1  0  0  0  0
 21 26  1  0  0  0  0
 22 27  1  0  0  0  0
 28 29  1  0  0  0  0
 28 33  1  0  0  0  0
 29 30  1  0  0  0  0
 29 32  1  0  0  0  0
 29 34  1  0  0  0  0
 30 31  2  0  0  0  0
 30 38  1  0  0  0  0
 32 35  1  0  0  0  0
 32 36  1  0  0  0  0
 32 37  1  0  0  0  0
 38 39  1  0  0  0  0
 38 40  1  0  0  0  0
 39 41  1  0  0  0  0
 39 42  1  0  0  0  0
 39 43  1  0  0  0  0
M  END
$$$$

  -OEChem-05262217303D

 43 42  0     1  0  0  0  0  0999 V2000
    3.4931   -1.9683    4.3280 C   0  0  0  0  0  0  0  0  0  0  0  0
    2.6917   -1.5803    5.1627 O   0  0  0  0  0  0  0  0  0  0  0  0
    4.4954   -3.0519    4.6777 C   0  0  0  0  0  0  0  0  0  0  0  0
    5.5122   -2.6664    4.5713 H   0  0  0  0  0  0  0  0  0  0  0  0
    4.3494   -3.3815    5.7102 H   0  0  0  0  0  0  0  0  0  0  0  0
    4.3664   -3.9098    4.0131 H   0  0  0  0  0  0  0  0  0  0  0  0
    3.4827   -1.4280    3.0597 N   0  0  0  0  0  0  0  0  0  0  0  0
    2.4582   -0.4996    2.5639 C   0  0  2  0  0  0  0  0  0  0  0  0
    2.2329   -0.6683    1.0465 C   0  0  0  0  0  0  0  0  0  0  0  0
    3.0177   -1.3259    0.3729 O   0  0  0  0  0  0  0  0  0  0  0  0
    2.8989    0.9308    2.8918 C   0  0  0  0  0  0  0  0  0  0  0  0
    4.0841   -1.8645    2.3615 H   0  0  0  0  0  0  0  0  0  0  0  0
    1.5033   -0.7049    3.0602 H   0  0  0  0  0  0  0  0  0  0  0  0
    3.8462    1.1637    2.3952 H   0  0  0  0  0  0  0  0  0  0  0  0
    2.1441    1.6517    2.5633 H   0  0  0  0  0  0  0  0  0  0  0  0
    3.0350    1.0464    3.9720 H   0  0  0  0  0  0  0  0  0  0  0  0
    1.1710   -0.0531    0.4126 N   0  0  0  0  0  0  0  0  0  0  0  0
    0.7482   -0.3432   -0.9716 C   0  0  2  0  0  0  0  0  0  0  0  0
    1.1290    0.7350   -1.9991 C   0  0  0  0  0  0  0  0  0  0  0  0
    0.5435    0.7990   -3.0733 O   0  0  0  0  0  0  0  0  0  0  0  0
   -0.7779   -0.4903   -0.8957 C   0  0  0  0  0  0  0  0  0  0  0  0
   -1.3830    0.7642   -0.5397 O   0  0  0  0  0  0  0  0  0  0  0  0
    0.4908    0.4301    1.0005 H   0  0  0  0  0  0  0  0  0  0  0  0
    1.1749   -1.2895   -1.3189 H   0  0  0  0  0  0  0  0  0  0  0  0
   -1.0452   -1.2527   -0.1565 H   0  0  0  0  0  0  0  0  0  0  0  0
   -1.1688   -0.8226   -1.8634 H   0  0  0  0  0  0  0  0  0  0  0  0
   -1.1502    1.4783   -1.1732 H   0  0  0  0  0  0  0  0  0  0  0  0
    2.0656    1.6982   -1.6663 N   0  0  0  0  0  0  0  0  0  0  0  0
    2.0666    3.0411   -2.2742 C   0  0  2  0  0  0  0  0  0  0  0  0
    0.6597    3.7017   -2.2652 C   0  0  0  0  0  0  0  0  0  0  0  0
   -0.1179    3.4663   -1.3437 O   0  0  0  0  0  0  0  0  0  0  0  0
    2.7000    2.9773   -3.6736 C   0  0  0  0  0  0  0  0  0  0  0  0
    2.4050    1.6187   -0.7122 H   0  0  0  0  0  0  0  0  0  0  0  0
    2.7056    3.6829   -1.6603 H   0  0  0  0  0  0  0  0  0  0  0  0
    2.0454    2.4563   -4.3791 H   0  0  0  0  0  0  0  0  0  0  0  0
    2.8899    3.9850   -4.0548 H   0  0  0  0  0  0  0  0  0  0  0  0
    3.6542    2.4433   -3.6304 H   0  0  0  0  0  0  0  0  0  0  0  0
    0.2649    4.5744   -3.2638 N   0  0  0  0  0  0  0  0  0  0  0  0
   -1.0912    5.1012   -3.3638 C   0  0  0  0  0  0  0  0  0  0  0  0
    0.8660    4.6312   -4.0802 H   0  0  0  0  0  0  0  0  0  0  0  0
   -1.1615    5.8068   -4.1972 H   0  0  0  0  0  0  0  0  0  0  0  0
   -1.8047    4.2882   -3.5347 H   0  0  0  0  0  0  0  0  0  0  0  0
   -1.3703    5.6271   -2.4446 H   0  0  0  0  0  0  0  0  0  0  0  0
  1  2  2  0  0  0  0
  1  3  1  0  0  0  0
  1  7  1  0  0  0  0
  3  4  1  0  0  0  0
  3  5  1  0  0  0  0
  3  6  1  0  0  0  0
  7  8  1  0  0  0  0
  7 12  1  0  0  0  0
  8  9  1  0  0  0  0
  8 11  1  0  0  0  0
  8 13  1  0  0  0  0
  9 10  2  0  0  0  0
  9 17  1  0  0  0  0
 11 14  1  0  0  0  0
 11 15  1  0  0  0  0
 11 16  1  0  0  0  0
 17 18  1  0  0  0  0
 17 23  1  0  0  0  0
 18 19  1  0  0  0  0
 18 21  1  0  0  0  0
 18 24  1  0  0  0  0
 19 20  2  0  0  0  0
 19 28  1  0  0  0  0
 21 22  1  0  0  0  0
 21 25  1  0  0  0  0
 21 26  1  0  0  0  0
 22 27  1  0  0  0  0
 28 29  1  0  0  0  0
 28 33  1  0  0  0  0
 29 30  1  0  0  0  0
 29 32  1  0  0  0  0
 29 34  1  0  0  0  0
 30 31  2  0  0  0  0
 30 38  1  0  0  0  0
 32 35  1  0  0  0  0
 32 36  1  0  0  0  0
 32 37  1  0  0  0  0
 38 39  1  0  0  0  0
 38 40  1  0  0  0  0
 39 41  1  0  0  0  0
 39 42  1  0  0  0  0
 39 43  1  0  0  0  0
M  END
$$$$

  -OEChem-05262217303D

 43 42  0     1  0  0  0  0  0999 V2000
    3.4500   -1.9379    4.1863 C   0  0  0  0  0  0  0  0  0  0  0  0
    2.5777   -1.6868    5.0022 O   0  0  0  0  0  0  0  0  0  0  0  0
    4.5454   -2.9326    4.5214 C   0  0  0  0  0  0  0  0  0  0  0  0
    5.5246   -2.4576    4.4230 H   0  0  0  0  0  0  0  0  0  0  0  0
    4.4287   -3.2886    5.5489 H   0  0  0  0  0  0  0  0  0  0  0  0
    4.4934   -3.7886    3.8441 H   0  0  0  0  0  0  0  0  0  0  0  0
    3.4319   -1.3245    2.9514 N   0  0  0  0  0  0  0  0  0  0  0  0
    2.3521   -0.4480    2.4794 C   0  0  2  0  0  0  0  0  0  0  0  0
    2.1689   -0.5434    0.9511 C   0  0  0  0  0  0  0  0  0  0  0  0
    3.0339   -1.0479    0.2446 O   0  0  0  0  0  0  0  0  0  0  0  0
    2.6783    0.9896    2.8971 C   0  0  0  0  0  0  0  0  0  0  0  0
    4.1087   -1.6433    2.2591 H   0  0  0  0  0  0  0  0  0  0  0  0
    1.4042   -0.7495    2.9387 H   0  0  0  0  0  0  0  0  0  0  0  0
    3.6203    1.3169    2.4454 H   0  0  0  0  0  0  0  0  0  0  0  0
    1.8836    1.6725    2.5821 H   0  0  0  0  0  0  0  0  0  0  0  0
    2.7738    1.0546    3.9859 H   0  0  0  0  0  0  0  0  0  0  0  0
    1.0655    0.0079    0.3316 N   0  0  0  0  0  0  0  0  0  0  0  0
    0.6648   -0.2809   -1.0589 C   0  0  2  0  0  0  0  0  0  0  0  0
    0.9947    0.8826   -2.0149 C   0  0  0  0  0  0  0  0  0  0  0  0
    0.2295    1.1854   -2.9246 O   0  0  0  0  0  0  0  0  0  0  0  0
   -0.8315   -0.6189   -1.0408 C   0  0  0  0  0  0  0  0  0  0  0  0
   -1.5941    0.5316   -0.6605 O   0  0  0  0  0  0  0  0  0  0  0  0
    0.3405    0.3889    0.9394 H   0  0  0  0  0  0  0  0  0  0  0  0
    1.1973   -1.1610   -1.4344 H   0  0  0  0  0  0  0  0  0  0  0  0
   -1.0167   -1.4334   -0.3329 H   0  0  0  0  0  0  0  0  0  0  0  0
   -1.1508   -0.9627   -2.0306 H   0  0  0  0  0  0  0  0  0  0  0  0
   -1.5727    1.1893   -1.3836 H   0  0  0  0  0  0  0  0  0  0  0  0
    2.0865    1.6848   -1.7282 N   0  0  0  0  0  0  0  0  0  0  0  0
    2.5626    2.8686   -2.4716 C   0  0  2  0  0  0  0  0  0  0  0  0
    1.6285    4.0977   -2.3925 C   0  0  0  0  0  0  0  0  0  0  0  0
    2.0655    5.1620   -1.9757 O   0  0  0  0  0  0  0  0  0  0  0  0
    2.8843    2.5130   -3.9298 C   0  0  0  0  0  0  0  0  0  0  0  0
    2.6640    1.3497   -0.9589 H   0  0  0  0  0  0  0  0  0  0  0  0
    3.5046    3.1770   -2.0063 H   0  0  0  0  0  0  0  0  0  0  0  0
    1.9771    2.2690   -4.4899 H   0  0  0  0  0  0  0  0  0  0  0  0
    3.3703    3.3606   -4.4231 H   0  0  0  0  0  0  0  0  0  0  0  0
    3.5616    1.6546   -3.9715 H   0  0  0  0  0  0  0  0  0  0  0  0
    0.3063    4.0173   -2.7807 N   0  0  0  0  0  0  0  0  0  0  0  0
   -0.6345    5.1271   -2.7159 C   0  0  0  0  0  0  0  0  0  0  0  0
   -0.0164    3.0970   -3.0883 H   0  0  0  0  0  0  0  0  0  0  0  0
   -1.6119    4.8144   -3.0953 H   0  0  0  0  0  0  0  0  0  0  0  0
   -0.7560    5.4672   -1.6821 H   0  0  0  0  0  0  0  0  0  0  0  0
   -0.2803    5.9659   -3.3242 H   0  0  0  0  0  0  0  0  0  0  0  0
  1  2  2  0  0  0  0
  1  3  1  0  0  0  0
  1  7  1  0  0  0  0
  3  4  1  0  0  0  0
  3  5  1  0  0  0  0
  3  6  1  0  0  0  0
  7  8  1  0  0  0  0
  7 12  1  0  0  0  0
  8  9  1  0  0  0  0
  8 11  1  0  0  0  0
  8 13  1  0  0  0  0
  9 10  2  0  0  0  0
  9 17  1  0  0  0  0
 11 14  1  0  0  0  0
 11 15  1  0  0  0  0
 11 16  1  0  0  0  0
 17 18  1  0  0  0  0
 17 23  1  0  0  0  0
 18 19  1  0  0  0  0
 18 21  1  0  0  0  0
 18 24  1  0  0  0  0
 19 20  2  0  0  0  0
 19 28  1  0  0  0  0
 21 22  1  0  0  0  0
 21 25  1  0  0  0  0
 21 26  1  0  0  0  0
 22 27  1  0  0  0  0
 28 29  1  0  0  0  0
 28 33  1  0  0  0  0
 29 30  1  0  0  0  0
 29 32  1  0  0  0  0
 29 34  1  0  0  0  0
 30 31  2  0  0  0  0
 30 38  1  0  0  0  0
 32 35  1  0  0  0  0
 32 36  1  0  0  0  0
 32 37  1  0  0  0  0
 38 39  1  0  0  0  0
 38 40  1  0  0  0  0
 39 41  1  0  0  0  0
 39 42  1  0  0  0  0
 39 43  1  0  0  0  0
M  END
$$$$

  -OEChem-05262217303D

 43 42  0     1  0  0  0  0  0999 V2000
    3.4624   -1.8144    4.1650 C   0  0  0  0  0  0  0  0  0  0  0  0
    2.6056   -1.5340    4.9878 O   0  0  0  0  0  0  0  0  0  0  0  0
    4.5696   -2.7897    4.5180 C   0  0  0  0  0  0  0  0  0  0  0  0
    5.5436   -2.3436    4.3026 H   0  0  0  0  0  0  0  0  0  0  0  0
    4.5256   -3.0401    5.5818 H   0  0  0  0  0  0  0  0  0  0  0  0
    4.4591   -3.7071    3.9344 H   0  0  0  0  0  0  0  0  0  0  0  0
    3.4172   -1.2525    2.9065 N   0  0  0  0  0  0  0  0  0  0  0  0
    2.3338   -0.3862    2.4233 C   0  0  2  0  0  0  0  0  0  0  0  0
    2.1188   -0.5369    0.9037 C   0  0  0  0  0  0  0  0  0  0  0  0
    2.9683   -1.0687    0.1968 O   0  0  0  0  0  0  0  0  0  0  0  0
    2.6795    1.0641    2.7767 C   0  0  0  0  0  0  0  0  0  0  0  0
    4.0876   -1.5898    2.2168 H   0  0  0  0  0  0  0  0  0  0  0  0
    1.3939   -0.6621    2.9140 H   0  0  0  0  0  0  0  0  0  0  0  0
    3.6206    1.3609    2.3025 H   0  0  0  0  0  0  0  0  0  0  0  0
    1.8898    1.7425    2.4394 H   0  0  0  0  0  0  0  0  0  0  0  0
    2.7861    1.1744    3.8608 H   0  0  0  0  0  0  0  0  0  0  0  0
    1.0137    0.0078    0.2823 N   0  0  0  0  0  0  0  0  0  0  0  0
    0.5874   -0.3346   -1.0866 C   0  0  2  0  0  0  0  0  0  0  0  0
    0.9314    0.7934   -2.0782 C   0  0  0  0  0  0  0  0  0  0  0  0
    0.0867    1.2624   -2.8356 O   0  0  0  0  0  0  0  0  0  0  0  0
   -0.9129   -0.6539   -1.0360 C   0  0  0  0  0  0  0  0  0  0  0  0
   -1.6575    0.5198   -0.6948 O   0  0  0  0  0  0  0  0  0  0  0  0
    0.3083    0.4320    0.8843 H   0  0  0  0  0  0  0  0  0  0  0  0
    1.1015   -1.2364   -1.4353 H   0  0  0  0  0  0  0  0  0  0  0  0
   -1.0998   -1.4382   -0.2947 H   0  0  0  0  0  0  0  0  0  0  0  0
   -1.2468   -1.0304   -2.0090 H   0  0  0  0  0  0  0  0  0  0  0  0
   -1.5833    1.1668   -1.4263 H   0  0  0  0  0  0  0  0  0  0  0  0
    2.1923    1.3589   -1.9941 N   0  0  0  0  0  0  0  0  0  0  0  0
    2.7358    2.4842   -2.7799 C   0  0  2  0  0  0  0  0  0  0  0  0
    2.0720    3.8477   -2.4813 C   0  0  0  0  0  0  0  0  0  0  0  0
    2.7556    4.7748   -2.0679 O   0  0  0  0  0  0  0  0  0  0  0  0
    2.7127    2.1726   -4.2828 C   0  0  0  0  0  0  0  0  0  0  0  0
    2.8110    0.9152   -1.3148 H   0  0  0  0  0  0  0  0  0  0  0  0
    3.7879    2.5921   -2.4960 H   0  0  0  0  0  0  0  0  0  0  0  0
    1.6890    2.1185   -4.6637 H   0  0  0  0  0  0  0  0  0  0  0  0
    3.2406    2.9559   -4.8360 H   0  0  0  0  0  0  0  0  0  0  0  0
    3.2082    1.2170   -4.4791 H   0  0  0  0  0  0  0  0  0  0  0  0
    0.7143    4.0322   -2.6511 N   0  0  0  0  0  0  0  0  0  0  0  0
    0.0112    5.2618   -2.3125 C   0  0  0  0  0  0  0  0  0  0  0  0
    0.1797    3.2025   -2.9185 H   0  0  0  0  0  0  0  0  0  0  0  0
   -1.0518    5.1674   -2.5542 H   0  0  0  0  0  0  0  0  0  0  0  0
    0.1072    5.4737   -1.2428 H   0  0  0  0  0  0  0  0  0  0  0  0
    0.4200    6.1058   -2.8778 H   0  0  0  0  0  0  0  0  0  0  0  0
  1  2  2  0  0  0  0
  1  3  1  0  0  0  0
  1  7  1  0  0  0  0
  3  4  1  0  0  0  0
  3  5  1  0  0  0  0
  3  6  1  0  0  0  0
  7  8  1  0  0  0  0
  7 12  1  0  0  0  0
  8  9  1  0  0  0  0
  8 11  1  0  0  0  0
  8 13  1  0  0  0  0
  9 10  2  0  0  0  0
  9 17  1  0  0  0  0
 11 14  1  0  0  0  0
 11 15  1  0  0  0  0
 11 16  1  0  0  0  0
 17 18  1  0  0  0  0
 17 23  1  0  0  0  0
 18 19  1  0  0  0  0
 18 21  1  0  0  0  0
 18 24  1  0  0  0  0
 19 20  2  0  0  0  0
 19 28  1  0  0  0  0
 21 22  1  0  0  0  0
 21 25  1  0  0  0  0
 21 26  1  0  0  0  0
 22 27  1  0  0  0  0
 28 29  1  0  0  0  0
 28 33  1  0  0  0  0
 29 30  1  0  0  0  0
 29 32  1  0  0  0  0
 29 34  1  0  0  0  0
 30 31  2  0  0  0  0
 30 38  1  0  0  0  0
 32 35  1  0  0  0  0
 32 36  1  0  0  0  0
 32 37  1  0  0  0  0
 38 39  1  0  0  0  0
 38 40  1  0  0  0  0
 39 41  1  0  0  0  0
 39 42  1  0  0  0  0
 39 43  1  0  0  0  0
M  END
$$$$

  -OEChem-05262217303D

 43 42  0     1  0  0  0  0  0999 V2000
    3.4838   -1.6949    4.1195 C   0  0  0  0  0  0  0  0  0  0  0  0
    2.6246   -1.4457    4.9497 O   0  0  0  0  0  0  0  0  0  0  0  0
    4.6164   -2.6475    4.4533 C   0  0  0  0  0  0  0  0  0  0  0  0
    5.5786   -2.1539    4.2969 H   0  0  0  0  0  0  0  0  0  0  0  0
    4.5489   -2.9627    5.4983 H   0  0  0  0  0  0  0  0  0  0  0  0
    4.5597   -3.5316    3.8137 H   0  0  0  0  0  0  0  0  0  0  0  0
    3.4173   -1.1230    2.8667 N   0  0  0  0  0  0  0  0  0  0  0  0
    2.2945   -0.3074    2.3844 C   0  0  2  0  0  0  0  0  0  0  0  0
    2.0530   -0.5158    0.8751 C   0  0  0  0  0  0  0  0  0  0  0  0
    2.8884   -1.0816    0.1757 O   0  0  0  0  0  0  0  0  0  0  0  0
    2.6023    1.1629    2.6871 C   0  0  0  0  0  0  0  0  0  0  0  0
    4.0846   -1.4507    2.1697 H   0  0  0  0  0  0  0  0  0  0  0  0
    1.3745   -0.5964    2.9044 H   0  0  0  0  0  0  0  0  0  0  0  0
    3.5085    1.4815    2.1618 H   0  0  0  0  0  0  0  0  0  0  0  0
    1.7734    1.8044    2.3727 H   0  0  0  0  0  0  0  0  0  0  0  0
    2.7553    1.3036    3.7620 H   0  0  0  0  0  0  0  0  0  0  0  0
    0.9450    0.0138    0.2450 N   0  0  0  0  0  0  0  0  0  0  0  0
    0.5107   -0.3845   -1.1047 C   0  0  2  0  0  0  0  0  0  0  0  0
    0.8640    0.7085   -2.1298 C   0  0  0  0  0  0  0  0  0  0  0  0
    0.0009    1.3319   -2.7423 O   0  0  0  0  0  0  0  0  0  0  0  0
   -0.9922   -0.6923   -1.0363 C   0  0  0  0  0  0  0  0  0  0  0  0
   -1.7321    0.4970   -0.7432 O   0  0  0  0  0  0  0  0  0  0  0  0
    0.2463    0.4640    0.8355 H   0  0  0  0  0  0  0  0  0  0  0  0
    1.0138   -1.3039   -1.4217 H   0  0  0  0  0  0  0  0  0  0  0  0
   -1.1845   -1.4471   -0.2664 H   0  0  0  0  0  0  0  0  0  0  0  0
   -1.3280   -1.1023   -1.9948 H   0  0  0  0  0  0  0  0  0  0  0  0
   -1.5939    1.1405   -1.4712 H   0  0  0  0  0  0  0  0  0  0  0  0
    2.2036    1.0307   -2.2645 N   0  0  0  0  0  0  0  0  0  0  0  0
    2.7991    2.0960   -3.0958 C   0  0  2  0  0  0  0  0  0  0  0  0
    2.4520    3.5315   -2.6399 C   0  0  0  0  0  0  0  0  0  0  0  0
    3.3530    4.3259   -2.4067 O   0  0  0  0  0  0  0  0  0  0  0  0
    2.4663    1.8951   -4.5804 C   0  0  0  0  0  0  0  0  0  0  0  0
    2.8295    0.5074   -1.6492 H   0  0  0  0  0  0  0  0  0  0  0  0
    3.8860    2.0028   -2.9998 H   0  0  0  0  0  0  0  0  0  0  0  0
    1.4028    2.0580   -4.7762 H   0  0  0  0  0  0  0  0  0  0  0  0
    3.0363    2.6031   -5.1901 H   0  0  0  0  0  0  0  0  0  0  0  0
    2.7277    0.8802   -4.8945 H   0  0  0  0  0  0  0  0  0  0  0  0
    1.1406    3.9331   -2.4824 N   0  0  0  0  0  0  0  0  0  0  0  0
    0.7390    5.2641   -2.0496 C   0  0  0  0  0  0  0  0  0  0  0  0
    0.4264    3.2270   -2.6737 H   0  0  0  0  0  0  0  0  0  0  0  0
   -0.3512    5.3240   -1.9781 H   0  0  0  0  0  0  0  0  0  0  0  0
    1.1633    5.4917   -1.0661 H   0  0  0  0  0  0  0  0  0  0  0  0
    1.0813    6.0184   -2.7657 H   0  0  0  0  0  0  0  0  0  0  0  0
  1  2  2  0  0  0  0
  1  3  1  0  0  0  0
  1  7  1  0  0  0  0
  3  4  1  0  0  0  0
  3  5  1  0  0  0  0
  3  6  1  0  0  0  0
  7  8  1  0  0  0  0
  7 12  1  0  0  0  0
  8  9  1  0  0  0  0
  8 11  1  0  0  0  0
  8 13  1  0  0  0  0
  9 10  2  0  0  0  0
  9 17  1  0  0  0  0
 11 14  1  0  0  0  0
 11 15  1  0  0  0  0
 11 16  1  0  0  0  0
 17 18  1  0  0  0  0
 17 23  1  0  0  0  0
 18 19  1  0  0  0  0
 18 21  1  0  0  0  0
 18 24  1  0  0  0  0
 19 20  2  0  0  0  0
 19 28  1  0  0  0  0
 21 22  1  0  0  0  0
 21 25  1  0  0  0  0
 21 26  1  0  0  0  0
 22 27  1  0  0  0  0
 28 29  1  0  0  0  0
 28 33  1  0  0  0  0
 29 30  1  0  0  0  0
 29 32  1  0  0  0  0
 29 34  1  0  0  0  0
 30 31  2  0  0  0  0
 30 38  1  0  0  0  0
 32 35  1  0  0  0  0
 32 36  1  0  0  0  0
 32 37  1  0  0  0  0
 38 39  1  0  0  0  0
 38 40  1  0  0  0  0
 39 41  1  0  0  0  0
 39 42  1  0  0  0  0
 39 43  1  0  0  0  0
M  END
$$$$

  -OEChem-05262217303D

 43 42  0     1  0  0  0  0  0999 V2000
    3.5278   -1.5630    4.1162 C   0  0  0  0  0  0  0  0  0  0  0  0
    2.7086   -1.2402    4.9615 O   0  0  0  0  0  0  0  0  0  0  0  0
    4.6916   -2.4635    4.4854 C   0  0  0  0  0  0  0  0  0  0  0  0
    5.6366   -1.9632    4.2601 H   0  0  0  0  0  0  0  0  0  0  0  0
    4.6633   -2.6975    5.5534 H   0  0  0  0  0  0  0  0  0  0  0  0
    4.6368   -3.3963    3.9191 H   0  0  0  0  0  0  0  0  0  0  0  0
    3.3922   -1.1123    2.8201 N   0  0  0  0  0  0  0  0  0  0  0  0
    2.2582   -0.3165    2.3315 C   0  0  2  0  0  0  0  0  0  0  0  0
    1.9884   -0.5651    0.8326 C   0  0  0  0  0  0  0  0  0  0  0  0
    2.7951   -1.1790    0.1397 O   0  0  0  0  0  0  0  0  0  0  0  0
    2.5612    1.1641    2.5873 C   0  0  0  0  0  0  0  0  0  0  0  0
    4.0339   -1.4866    2.1224 H   0  0  0  0  0  0  0  0  0  0  0  0
    1.3502   -0.5975    2.8763 H   0  0  0  0  0  0  0  0  0  0  0  0
    3.4549    1.4738    2.0362 H   0  0  0  0  0  0  0  0  0  0  0  0
    1.7218    1.7905    2.2709 H   0  0  0  0  0  0  0  0  0  0  0  0
    2.7335    1.3374    3.6544 H   0  0  0  0  0  0  0  0  0  0  0  0
    0.8789   -0.0307    0.2079 N   0  0  0  0  0  0  0  0  0  0  0  0
    0.4409   -0.4184   -1.1420 C   0  0  2  0  0  0  0  0  0  0  0  0
    0.7892    0.6781   -2.1647 C   0  0  0  0  0  0  0  0  0  0  0  0
   -0.0546    1.4578   -2.5994 O   0  0  0  0  0  0  0  0  0  0  0  0
   -1.0619   -0.7271   -1.0670 C   0  0  0  0  0  0  0  0  0  0  0  0
   -1.8048    0.4572   -0.7603 O   0  0  0  0  0  0  0  0  0  0  0  0
    0.1963    0.4475    0.7951 H   0  0  0  0  0  0  0  0  0  0  0  0
    0.9386   -1.3381   -1.4661 H   0  0  0  0  0  0  0  0  0  0  0  0
   -1.2499   -1.4903   -0.3048 H   0  0  0  0  0  0  0  0  0  0  0  0
   -1.4008   -1.1270   -2.0287 H   0  0  0  0  0  0  0  0  0  0  0  0
   -1.6178    1.1337   -1.4482 H   0  0  0  0  0  0  0  0  0  0  0  0
    2.1163    0.7867   -2.5428 N   0  0  0  0  0  0  0  0  0  0  0  0
    2.7169    1.7860   -3.4497 C   0  0  2  0  0  0  0  0  0  0  0  0
    2.7136    3.2318   -2.9036 C   0  0  0  0  0  0  0  0  0  0  0  0
    3.7566    3.8712   -2.8822 O   0  0  0  0  0  0  0  0  0  0  0  0
    2.0825    1.7268   -4.8461 C   0  0  0  0  0  0  0  0  0  0  0  0
    2.7566    0.1834   -2.0241 H   0  0  0  0  0  0  0  0  0  0  0  0
    3.7701    1.5106   -3.5694 H   0  0  0  0  0  0  0  0  0  0  0  0
    1.0499    2.0872   -4.8309 H   0  0  0  0  0  0  0  0  0  0  0  0
    2.6505    2.3536   -5.5407 H   0  0  0  0  0  0  0  0  0  0  0  0
    2.0885    0.7000   -5.2235 H   0  0  0  0  0  0  0  0  0  0  0  0
    1.5545    3.8158   -2.4330 N   0  0  0  0  0  0  0  0  0  0  0  0
    1.4772    5.1754   -1.9169 C   0  0  0  0  0  0  0  0  0  0  0  0
    0.7069    3.2464   -2.4869 H   0  0  0  0  0  0  0  0  0  0  0  0
    0.4601    5.3925   -1.5767 H   0  0  0  0  0  0  0  0  0  0  0  0
    2.1597    5.3027   -1.0701 H   0  0  0  0  0  0  0  0  0  0  0  0
    1.7437    5.8965   -2.6966 H   0  0  0  0  0  0  0  0  0  0  0  0
  1  2  2  0  0  0  0
  1  3  1  0  0  0  0
  1  7  1  0  0  0  0
  3  4  1  0  0  0  0
  3  5  1  0  0  0  0
  3  6  1  0  0  0  0
  7  8  1  0  0  0  0
  7 12  1  0  0  0  0
  8  9  1  0  0  0  0
  8 11  1  0  0  0  0
  8 13  1  0  0  0  0
  9 10  2  0  0  0  0
  9 17  1  0  0  0  0
 11 14  1  0  0  0  0
 11 15  1  0  0  0  0
 11 16  1  0  0  0  0
 17 18  1  0  0  0  0
 17 23  1  0  0  0  0
 18 19  1  0  0  0  0
 18 21  1  0  0  0  0
 18 24  1  0  0  0  0
 19 20  2  0  0  0  0
 19 28  1  0  0  0  0
 21 22  1  0  0  0  0
 21 25  1  0  0  0  0
 21 26  1  0  0  0  0
 22 27  1  0  0  0  0
 28 29  1  0  0  0  0
 28 33  1  0  0  0  0
 29 30  1  0  0  0  0
 29 32  1  0  0  0  0
 29 34  1  0  0  0  0
 30 31  2  0  0  0  0
 30 38  1  0  0  0  0
 32 35  1  0  0  0  0
 32 36  1  0  0  0  0
 32 37  1  0  0  0  0
 38 39  1  0  0  0  0
 38 40  1  0  0  0  0
 39 41  1  0  0  0  0
 39 42  1  0  0  0  0
 39 43  1  0  0  0  0
M  END
$$$$

  -OEChem-05262217303D

 43 42  0     1  0  0  0  0  0999 V2000
    3.5698   -1.4463    4.0949 C   0  0  0  0  0  0  0  0  0  0  0  0
    2.7791   -1.0573    4.9394 O   0  0  0  0  0  0  0  0  0  0  0  0
    4.7059   -2.3743    4.4820 C   0  0  0  0  0  0  0  0  0  0  0  0
    5.6661   -1.8973    4.2707 H   0  0  0  0  0  0  0  0  0  0  0  0
    4.6549   -2.6069    5.5493 H   0  0  0  0  0  0  0  0  0  0  0  0
    4.6371   -3.3058    3.9152 H   0  0  0  0  0  0  0  0  0  0  0  0
    3.4242   -1.0499    2.7824 N   0  0  0  0  0  0  0  0  0  0  0  0
    2.2980   -0.2550    2.2746 C   0  0  2  0  0  0  0  0  0  0  0  0
    1.9801   -0.5916    0.8028 C   0  0  0  0  0  0  0  0  0  0  0  0
    2.7563   -1.2650    0.1307 O   0  0  0  0  0  0  0  0  0  0  0  0
    2.6505    1.2292    2.4218 C   0  0  0  0  0  0  0  0  0  0  0  0
    4.0362   -1.4814    2.0910 H   0  0  0  0  0  0  0  0  0  0  0  0
    1.3981   -0.4724    2.8606 H   0  0  0  0  0  0  0  0  0  0  0  0
    3.5384    1.4726    1.8290 H   0  0  0  0  0  0  0  0  0  0  0  0
    1.8220    1.8591    2.0838 H   0  0  0  0  0  0  0  0  0  0  0  0
    2.8556    1.4674    3.4704 H   0  0  0  0  0  0  0  0  0  0  0  0
    0.8554   -0.0815    0.1846 N   0  0  0  0  0  0  0  0  0  0  0  0
    0.4127   -0.4738   -1.1613 C   0  0  2  0  0  0  0  0  0  0  0  0
    0.7242    0.6273   -2.1918 C   0  0  0  0  0  0  0  0  0  0  0  0
   -0.0740    1.5305   -2.4286 O   0  0  0  0  0  0  0  0  0  0  0  0
   -1.0844   -0.8075   -1.0703 C   0  0  0  0  0  0  0  0  0  0  0  0
   -1.8475    0.3617   -0.7531 O   0  0  0  0  0  0  0  0  0  0  0  0
    0.1957    0.4406    0.7601 H   0  0  0  0  0  0  0  0  0  0  0  0
    0.9201   -1.3868   -1.4885 H   0  0  0  0  0  0  0  0  0  0  0  0
   -1.2519   -1.5758   -0.3084 H   0  0  0  0  0  0  0  0  0  0  0  0
   -1.4251   -1.2110   -2.0297 H   0  0  0  0  0  0  0  0  0  0  0  0
   -1.6249    1.0731   -1.3950 H   0  0  0  0  0  0  0  0  0  0  0  0
    1.9499    0.5830   -2.8345 N   0  0  0  0  0  0  0  0  0  0  0  0
    2.4946    1.5668   -3.7935 C   0  0  2  0  0  0  0  0  0  0  0  0
    2.7951    2.9561   -3.1851 C   0  0  0  0  0  0  0  0  0  0  0  0
    3.9097    3.4433   -3.3168 O   0  0  0  0  0  0  0  0  0  0  0  0
    1.6018    1.6919   -5.0356 C   0  0  0  0  0  0  0  0  0  0  0  0
    2.6029   -0.1055   -2.4603 H   0  0  0  0  0  0  0  0  0  0  0  0
    3.4571    1.1733   -4.1370 H   0  0  0  0  0  0  0  0  0  0  0  0
    0.6537    2.1823   -4.7977 H   0  0  0  0  0  0  0  0  0  0  0  0
    2.1092    2.2875   -5.8011 H   0  0  0  0  0  0  0  0  0  0  0  0
    1.3891    0.7028   -5.4519 H   0  0  0  0  0  0  0  0  0  0  0  0
    1.8336    3.6516   -2.4793 N   0  0  0  0  0  0  0  0  0  0  0  0
    2.0569    4.9479   -1.8545 C   0  0  0  0  0  0  0  0  0  0  0  0
    0.9200    3.2003   -2.3939 H   0  0  0  0  0  0  0  0  0  0  0  0
    1.1392    5.2972   -1.3718 H   0  0  0  0  0  0  0  0  0  0  0  0
    2.8423    4.8763   -1.0948 H   0  0  0  0  0  0  0  0  0  0  0  0
    2.3567    5.6879   -2.6038 H   0  0  0  0  0  0  0  0  0  0  0  0
  1  2  2  0  0  0  0
  1  3  1  0  0  0  0
  1  7  1  0  0  0  0
  3  4  1  0  0  0  0
  3  5  1  0  0  0  0
  3  6  1  0  0  0  0
  7  8  1  0  0  0  0
  7 12  1  0  0  0  0
  8  9  1  0  0  0  0
  8 11  1  0  0  0  0
  8 13  1  0  0  0  0
  9 10  2  0  0  0  0
  9 17  1  0  0  0  0
 11 14  1  0  0  0  0
 11 15  1  0  0  0  0
 11 16  1  0  0  0  0
 17 18  1  0  0  0  0
 17 23  1  0  0  0  0
 18 19  1  0  0  0  0
 18 21  1  0  0  0  0
 18 24  1  0  0  0  0
 19 20  2  0  0  0  0
 19 28  1  0  0  0  0
 21 22  1  0  0  0  0
 21 25  1  0  0  0  0
 21 26  1  0  0  0  0
 22 27  1  0  0  0  0
 28 29  1  0  0  0  0
 28 33  1  0  0  0  0
 29 30  1  0  0  0  0
 29 32  1  0  0  0  0
 29 34  1  0  0  0  0
 30 31  2  0  0  0  0
 30 38  1  0  0  0  0
 32 35  1  0  0  0  0
 32 36  1  0  0  0  0
 32 37  1  0  0  0  0
 38 39  1  0  0  0  0
 38 40  1  0  0  0  0
 39 41  1  0  0  0  0
 39 42  1  0  0  0  0
 39 43  1  0  0  0  0
M  END
$$$$

  -OEChem-05262217303D

 43 42  0     1  0  0  0  0  0999 V2000
    3.6004   -1.3672    4.1005 C   0  0  0  0  0  0  0  0  0  0  0  0
    2.8476   -0.8836    4.9305 O   0  0  0  0  0  0  0  0  0  0  0  0
    4.7075   -2.3096    4.5338 C   0  0  0  0  0  0  0  0  0  0  0  0
    5.6713   -1.9481    4.1674 H   0  0  0  0  0  0  0  0  0  0  0  0
    4.7463   -2.3680    5.6253 H   0  0  0  0  0  0  0  0  0  0  0  0
    4.5247   -3.3096    4.1334 H   0  0  0  0  0  0  0  0  0  0  0  0
    3.4379   -1.0631    2.7654 N   0  0  0  0  0  0  0  0  0  0  0  0
    2.3418   -0.2466    2.2284 C   0  0  2  0  0  0  0  0  0  0  0  0
    1.9870   -0.6436    0.7806 C   0  0  0  0  0  0  0  0  0  0  0  0
    2.7378   -1.3591    0.1242 O   0  0  0  0  0  0  0  0  0  0  0  0
    2.7610    1.2263    2.2899 C   0  0  0  0  0  0  0  0  0  0  0  0
    4.0207   -1.5601    2.0931 H   0  0  0  0  0  0  0  0  0  0  0  0
    1.4426   -0.3926    2.8369 H   0  0  0  0  0  0  0  0  0  0  0  0
    3.6544    1.3956    1.6802 H   0  0  0  0  0  0  0  0  0  0  0  0
    1.9593    1.8726    1.9198 H   0  0  0  0  0  0  0  0  0  0  0  0
    2.9841    1.5146    3.3221 H   0  0  0  0  0  0  0  0  0  0  0  0
    0.8469   -0.1529    0.1746 N   0  0  0  0  0  0  0  0  0  0  0  0
    0.4001   -0.5255   -1.1755 C   0  0  2  0  0  0  0  0  0  0  0  0
    0.6673    0.5955   -2.1973 C   0  0  0  0  0  0  0  0  0  0  0  0
   -0.0353    1.6029   -2.2203 O   0  0  0  0  0  0  0  0  0  0  0  0
   -1.0909   -0.8832   -1.0858 C   0  0  0  0  0  0  0  0  0  0  0  0
   -1.8726    0.2668   -0.7420 O   0  0  0  0  0  0  0  0  0  0  0  0
    0.2148    0.4128    0.7393 H   0  0  0  0  0  0  0  0  0  0  0  0
    0.9216   -1.4238   -1.5199 H   0  0  0  0  0  0  0  0  0  0  0  0
   -1.2449   -1.6718   -0.3419 H   0  0  0  0  0  0  0  0  0  0  0  0
   -1.4276   -1.2694   -2.0535 H   0  0  0  0  0  0  0  0  0  0  0  0
   -1.6158    1.0208   -1.3196 H   0  0  0  0  0  0  0  0  0  0  0  0
    1.7153    0.4510   -3.0909 N   0  0  0  0  0  0  0  0  0  0  0  0
    2.1660    1.4294   -4.1028 C   0  0  2  0  0  0  0  0  0  0  0  0
    2.7594    2.7325   -3.5186 C   0  0  0  0  0  0  0  0  0  0  0  0
    3.8778    3.0909   -3.8614 O   0  0  0  0  0  0  0  0  0  0  0  0
    1.0554    1.7385   -5.1167 C   0  0  0  0  0  0  0  0  0  0  0  0
    2.3361   -0.3350   -2.9051 H   0  0  0  0  0  0  0  0  0  0  0  0
    2.9781    0.9524   -4.6616 H   0  0  0  0  0  0  0  0  0  0  0  0
    0.2495    2.3209   -4.6613 H   0  0  0  0  0  0  0  0  0  0  0  0
    1.4629    2.3184   -5.9508 H   0  0  0  0  0  0  0  0  0  0  0  0
    0.6339    0.8105   -5.5143 H   0  0  0  0  0  0  0  0  0  0  0  0
    2.0550    3.4964   -2.6093 N   0  0  0  0  0  0  0  0  0  0  0  0
    2.5609    4.7208   -2.0046 C   0  0  0  0  0  0  0  0  0  0  0  0
    1.1315    3.1466   -2.3436 H   0  0  0  0  0  0  0  0  0  0  0  0
    1.7980    5.1653   -1.3579 H   0  0  0  0  0  0  0  0  0  0  0  0
    3.4491    4.5104   -1.3998 H   0  0  0  0  0  0  0  0  0  0  0  0
    2.8250    5.4497   -2.7781 H   0  0  0  0  0  0  0  0  0  0  0  0
  1  2  2  0  0  0  0
  1  3  1  0  0  0  0
  1  7  1  0  0  0  0
  3  4  1  0  0  0  0
  3  5  1  0  0  0  0
  3  6  1  0  0  0  0
  7  8  1  0  0  0  0
  7 12  1  0  0  0  0
  8  9  1  0  0  0  0
  8 11  1  0  0  0  0
  8 13  1  0  0  0  0
  9 10  2  0  0  0  0
  9 17  1  0  0  0  0
 11 14  1  0  0  0  0
 11 15  1  0  0  0  0
 11 16  1  0  0  0  0
 17 18  1  0  0  0  0
 17 23  1  0  0  0  0
 18 19  1  0  0  0  0
 18 21  1  0  0  0  0
 18 24  1  0  0  0  0
 19 20  2  0  0  0  0
 19 28  1  0  0  0  0
 21 22  1  0  0  0  0
 21 25  1  0  0  0  0
 21 26  1  0  0  0  0
 22 27  1  0  0  0  0
 28 29  1  0  0  0  0
 28 33  1  0  0  0  0
 29 30  1  0  0  0  0
 29 32  1  0  0  0  0
 29 34  1  0  0  0  0
 30 31  2  0  0  0  0
 30 38  1  0  0  0  0
 32 35  1  0  0  0  0
 32 36  1  0  0  0  0
 32 37  1  0  0  0  0
 38 39  1  0  0  0  0
 38 40  1  0  0  0  0
 39 41  1  0  0  0  0
 39 42  1  0  0  0  0
 39 43  1  0  0  0  0
M  END
$$$$

  -OEChem-05262217303D

 43 42  0     1  0  0  0  0  0999 V2000
    3.6275   -1.3893    4.1107 C   0  0  0  0  0  0  0  0  0  0  0  0
    2.8736   -0.9141    4.9449 O   0  0  0  0  0  0  0  0  0  0  0  0
    4.7259   -2.3462    4.5336 C   0  0  0  0  0  0  0  0  0  0  0  0
    5.6985   -1.9630    4.2154 H   0  0  0  0  0  0  0  0  0  0  0  0
    4.7302   -2.4575    5.6216 H   0  0  0  0  0  0  0  0  0  0  0  0
    4.5616   -3.3264    4.0796 H   0  0  0  0  0  0  0  0  0  0  0  0
    3.4715   -1.0669    2.7791 N   0  0  0  0  0  0  0  0  0  0  0  0
    2.3651   -0.2601    2.2477 C   0  0  2  0  0  0  0  0  0  0  0  0
    2.0037   -0.6604    0.8024 C   0  0  0  0  0  0  0  0  0  0  0  0
    2.7439   -1.3908    0.1508 O   0  0  0  0  0  0  0  0  0  0  0  0
    2.7679    1.2169    2.3094 C   0  0  0  0  0  0  0  0  0  0  0  0
    4.0473   -1.5673    2.1030 H   0  0  0  0  0  0  0  0  0  0  0  0
    1.4704   -0.4154    2.8607 H   0  0  0  0  0  0  0  0  0  0  0  0
    3.6552    1.3982    1.6942 H   0  0  0  0  0  0  0  0  0  0  0  0
    1.9554    1.8535    1.9464 H   0  0  0  0  0  0  0  0  0  0  0  0
    2.9941    1.5050    3.3410 H   0  0  0  0  0  0  0  0  0  0  0  0
    0.8566   -0.1761    0.2050 N   0  0  0  0  0  0  0  0  0  0  0  0
    0.4104   -0.5294   -1.1506 C   0  0  2  0  0  0  0  0  0  0  0  0
    0.6493    0.6001   -2.1696 C   0  0  0  0  0  0  0  0  0  0  0  0
    0.0784    1.6787   -2.0325 O   0  0  0  0  0  0  0  0  0  0  0  0
   -1.0791   -0.8874   -1.0658 C   0  0  0  0  0  0  0  0  0  0  0  0
   -1.8572    0.2609   -0.7055 O   0  0  0  0  0  0  0  0  0  0  0  0
    0.2415    0.4130    0.7643 H   0  0  0  0  0  0  0  0  0  0  0  0
    0.9384   -1.4205   -1.5042 H   0  0  0  0  0  0  0  0  0  0  0  0
   -1.2348   -1.6862   -0.3331 H   0  0  0  0  0  0  0  0  0  0  0  0
   -1.4165   -1.2589   -2.0390 H   0  0  0  0  0  0  0  0  0  0  0  0
   -1.5656    1.0402   -1.2295 H   0  0  0  0  0  0  0  0  0  0  0  0
    1.4635    0.3748   -3.2676 N   0  0  0  0  0  0  0  0  0  0  0  0
    1.7794    1.3244   -4.3564 C   0  0  2  0  0  0  0  0  0  0  0  0
    2.6136    2.5544   -3.9285 C   0  0  0  0  0  0  0  0  0  0  0  0
    3.6203    2.8452   -4.5600 O   0  0  0  0  0  0  0  0  0  0  0  0
    0.5106    1.7590   -5.1041 C   0  0  0  0  0  0  0  0  0  0  0  0
    1.9924   -0.4946   -3.2490 H   0  0  0  0  0  0  0  0  0  0  0  0
    2.3980    0.7797   -5.0776 H   0  0  0  0  0  0  0  0  0  0  0  0
   -0.1180    2.4037   -4.4833 H   0  0  0  0  0  0  0  0  0  0  0  0
    0.7820    2.3176   -6.0054 H   0  0  0  0  0  0  0  0  0  0  0  0
   -0.0742    0.8839   -5.4028 H   0  0  0  0  0  0  0  0  0  0  0  0
    2.2420    3.3372   -2.8535 N   0  0  0  0  0  0  0  0  0  0  0  0
    2.9629    4.5271   -2.4237 C   0  0  0  0  0  0  0  0  0  0  0  0
    1.3785    3.0702   -2.3752 H   0  0  0  0  0  0  0  0  0  0  0  0
    2.4841    4.9593   -1.5400 H   0  0  0  0  0  0  0  0  0  0  0  0
    3.9980    4.2770   -2.1686 H   0  0  0  0  0  0  0  0  0  0  0  0
    2.9670    5.2799   -3.2188 H   0  0  0  0  0  0  0  0  0  0  0  0
  1  2  2  0  0  0  0
  1  3  1  0  0  0  0
  1  7  1  0  0  0  0
  3  4  1  0  0  0  0
  3  5  1  0  0  0  0
  3  6  1  0  0  0  0
  7  8  1  0  0  0  0
  7 12  1  0  0  0  0
  8  9  1  0  0  0  0
  8 11  1  0  0  0  0
  8 13  1  0  0  0  0
  9 10  2  0  0  0  0
  9 17  1  0  0  0  0
 11 14  1  0  0  0  0
 11 15  1  0  0  0  0
 11 16  1  0  0  0  0
 17 18  1  0  0  0  0
 17 23  1  0  0  0  0
 18 19  1  0  0  0  0
 18 21  1  0  0  0  0
 18 24  1  0  0  0  0
 19 20  2  0  0  0  0
 19 28  1  0  0  0  0
 21 22  1  0  0  0  0
 21 25  1  0  0  0  0
 21 26  1  0  0  0  0
 22 27  1  0  0  0  0
 28 29  1  0  0  0  0
 28 33  1  0  0  0  0
 29 30  1  0  0  0  0
 29 32  1  0  0  0  0
 29 34  1  0  0  0  0
 30 31  2  0  0  0  0
 30 38  1  0  0  0  0
 32 35  1  0  0  0  0
 32 36  1  0  0  0  0
 32 37  1  0  0  0  0
 38 39  1  0  0  0  0
 38 40  1  0  0  0  0
 39 41  1  0  0  0  0
 39 42  1  0  0  0  0
 39 43  1  0  0  0  0
M  END
$$$$

  -OEChem-05262217303D

 43 42  0     1  0  0  0  0  0999 V2000
    3.6509   -1.3976    4.1102 C   0  0  0  0  0  0  0  0  0  0  0  0
    2.9040   -0.9142    4.9459 O   0  0  0  0  0  0  0  0  0  0  0  0
    4.7510   -2.3528    4.5335 C   0  0  0  0  0  0  0  0  0  0  0  0
    5.7225   -1.9675    4.2151 H   0  0  0  0  0  0  0  0  0  0  0  0
    4.7559   -2.4632    5.6215 H   0  0  0  0  0  0  0  0  0  0  0  0
    4.5892   -3.3341    4.0808 H   0  0  0  0  0  0  0  0  0  0  0  0
    3.4895   -1.0805    2.7780 N   0  0  0  0  0  0  0  0  0  0  0  0
    2.3899   -0.2635    2.2470 C   0  0  2  0  0  0  0  0  0  0  0  0
    2.0133   -0.6751    0.8084 C   0  0  0  0  0  0  0  0  0  0  0  0
    2.7443   -1.4172    0.1600 O   0  0  0  0  0  0  0  0  0  0  0  0
    2.8163    1.2078    2.2909 C   0  0  0  0  0  0  0  0  0  0  0  0
    4.0584   -1.5880    2.1014 H   0  0  0  0  0  0  0  0  0  0  0  0
    1.4972   -0.3992    2.8674 H   0  0  0  0  0  0  0  0  0  0  0  0
    3.7043    1.3679    1.6711 H   0  0  0  0  0  0  0  0  0  0  0  0
    2.0135    1.8540    1.9231 H   0  0  0  0  0  0  0  0  0  0  0  0
    3.0510    1.5034    3.3186 H   0  0  0  0  0  0  0  0  0  0  0  0
    0.8578   -0.2000    0.2192 N   0  0  0  0  0  0  0  0  0  0  0  0
    0.4120   -0.5395   -1.1412 C   0  0  2  0  0  0  0  0  0  0  0  0
    0.6243    0.5991   -2.1550 C   0  0  0  0  0  0  0  0  0  0  0  0
    0.2077    1.7241   -1.8941 O   0  0  0  0  0  0  0  0  0  0  0  0
   -1.0781   -0.8913   -1.0606 C   0  0  0  0  0  0  0  0  0  0  0  0
   -1.8470    0.2613   -0.6908 O   0  0  0  0  0  0  0  0  0  0  0  0
    0.2621    0.4172    0.7690 H   0  0  0  0  0  0  0  0  0  0  0  0
    0.9444   -1.4237   -1.5049 H   0  0  0  0  0  0  0  0  0  0  0  0
   -1.2392   -1.6955   -0.3348 H   0  0  0  0  0  0  0  0  0  0  0  0
   -1.4174   -1.2518   -2.0374 H   0  0  0  0  0  0  0  0  0  0  0  0
   -1.5311    1.0529   -1.1788 H   0  0  0  0  0  0  0  0  0  0  0  0
    1.1630    0.3260   -3.4018 N   0  0  0  0  0  0  0  0  0  0  0  0
    1.3389    1.2709   -4.5251 C   0  0  2  0  0  0  0  0  0  0  0  0
    2.3665    2.3982   -4.2713 C   0  0  0  0  0  0  0  0  0  0  0  0
    3.2821    2.5647   -5.0656 O   0  0  0  0  0  0  0  0  0  0  0  0
   -0.0069    1.8494   -4.9846 C   0  0  0  0  0  0  0  0  0  0  0  0
    1.5628   -0.6023   -3.5165 H   0  0  0  0  0  0  0  0  0  0  0  0
    1.7332    0.6896   -5.3651 H   0  0  0  0  0  0  0  0  0  0  0  0
   -0.4197    2.5403   -4.2440 H   0  0  0  0  0  0  0  0  0  0  0  0
    0.1247    2.3980   -5.9225 H   0  0  0  0  0  0  0  0  0  0  0  0
   -0.7294    1.0453   -5.1532 H   0  0  0  0  0  0  0  0  0  0  0  0
    2.2736    3.2189   -3.1650 N   0  0  0  0  0  0  0  0  0  0  0  0
    3.2287    4.2714   -2.8478 C   0  0  0  0  0  0  0  0  0  0  0  0
    1.5097    3.0185   -2.5152 H   0  0  0  0  0  0  0  0  0  0  0  0
    2.8932    4.8328   -1.9707 H   0  0  0  0  0  0  0  0  0  0  0  0
    4.2123    3.8422   -2.6308 H   0  0  0  0  0  0  0  0  0  0  0  0
    3.3244    4.9684   -3.6870 H   0  0  0  0  0  0  0  0  0  0  0  0
  1  2  2  0  0  0  0
  1  3  1  0  0  0  0
  1  7  1  0  0  0  0
  3  4  1  0  0  0  0
  3  5  1  0  0  0  0
  3  6  1  0  0  0  0
  7  8  1  0  0  0  0
  7 12  1  0  0  0  0
  8  9  1  0  0  0  0
  8 11  1  0  0  0  0
  8 13  1  0  0  0  0
  9 10  2  0  0  0  0
  9 17  1  0  0  0  0
 11 14  1  0  0  0  0
 11 15  1  0  0  0  0
 11 16  1  0  0  0  0
 17 18  1  0  0  0  0
 17 23  1  0  0  0  0
 18 19  1  0  0  0  0
 18 21  1  0  0  0  0
 18 24  1  0  0  0  0
 19 20  2  0  0  0  0
 19 28  1  0  0  0  0
 21 22  1  0  0  0  0
 21 25  1  0  0  0  0
 21 26  1  0  0  0  0
 22 27  1  0  0  0  0
 28 29  1  0  0  0  0
 28 33  1  0  0  0  0
 29 30  1  0  0  0  0
 29 32  1  0  0  0  0
 29 34  1  0  0  0  0
 30 31  2  0  0  0  0
 30 38  1  0  0  0  0
 32 35  1  0  0  0  0
 32 36  1  0  0  0  0
 32 37  1  0  0  0  0
 38 39  1  0  0  0  0
 38 40  1  0  0  0  0
 39 41  1  0  0  0  0
 39 42  1  0  0  0  0
 39 43  1  0  0  0  0
M  END
$$$$

  -OEChem-05262217303D

 43 42  0     1  0  0  0  0  0999 V2000
    3.6803   -1.3884    4.1011 C   0  0  0  0  0  0  0  0  0  0  0  0
    2.9481   -0.8908    4.9415 O   0  0  0  0  0  0  0  0  0  0  0  0
    4.7616   -2.3688    4.5151 C   0  0  0  0  0  0  0  0  0  0  0  0
    5.7441   -1.9804    4.2363 H   0  0  0  0  0  0  0  0  0  0  0  0
    4.7375   -2.5220    5.5978 H   0  0  0  0  0  0  0  0  0  0  0  0
    4.6033   -3.3299    4.0199 H   0  0  0  0  0  0  0  0  0  0  0  0
    3.5179   -1.0698    2.7696 N   0  0  0  0  0  0  0  0  0  0  0  0
    2.4172   -0.2531    2.2406 C   0  0  2  0  0  0  0  0  0  0  0  0
    2.0203   -0.6861    0.8134 C   0  0  0  0  0  0  0  0  0  0  0  0
    2.7391   -1.4444    0.1700 O   0  0  0  0  0  0  0  0  0  0  0  0
    2.8527    1.2154    2.2581 C   0  0  0  0  0  0  0  0  0  0  0  0
    4.0709   -1.5935    2.0922 H   0  0  0  0  0  0  0  0  0  0  0  0
    1.5311   -0.3726    2.8737 H   0  0  0  0  0  0  0  0  0  0  0  0
    3.7349    1.3620    1.6268 H   0  0  0  0  0  0  0  0  0  0  0  0
    2.0493    1.8600    1.8891 H   0  0  0  0  0  0  0  0  0  0  0  0
    3.0994    1.5241    3.2791 H   0  0  0  0  0  0  0  0  0  0  0  0
    0.8558   -0.2211    0.2338 N   0  0  0  0  0  0  0  0  0  0  0  0
    0.4094   -0.5518   -1.1295 C   0  0  2  0  0  0  0  0  0  0  0  0
    0.5969    0.5943   -2.1383 C   0  0  0  0  0  0  0  0  0  0  0  0
    0.3620    1.7462   -1.7874 O   0  0  0  0  0  0  0  0  0  0  0  0
   -1.0805   -0.9005   -1.0439 C   0  0  0  0  0  0  0  0  0  0  0  0
   -1.8452    0.2534   -0.6646 O   0  0  0  0  0  0  0  0  0  0  0  0
    0.2860    0.4305    0.7707 H   0  0  0  0  0  0  0  0  0  0  0  0
    0.9471   -1.4285   -1.5028 H   0  0  0  0  0  0  0  0  0  0  0  0
   -1.2391   -1.7059   -0.3191 H   0  0  0  0  0  0  0  0  0  0  0  0
   -1.4273   -1.2587   -2.0191 H   0  0  0  0  0  0  0  0  0  0  0  0
   -1.5342    1.0519   -1.1406 H   0  0  0  0  0  0  0  0  0  0  0  0
    0.8322    0.3097   -3.4740 N   0  0  0  0  0  0  0  0  0  0  0  0
    0.8765    1.2687   -4.5986 C   0  0  2  0  0  0  0  0  0  0  0  0
    2.0460    2.2794   -4.5487 C   0  0  0  0  0  0  0  0  0  0  0  0
    2.7944    2.3766   -5.5117 O   0  0  0  0  0  0  0  0  0  0  0  0
   -0.4674    1.9917   -4.7664 C   0  0  0  0  0  0  0  0  0  0  0  0
    1.0646   -0.6573   -3.6870 H   0  0  0  0  0  0  0  0  0  0  0  0
    1.0313    0.6791   -5.5083 H   0  0  0  0  0  0  0  0  0  0  0  0
   -0.6536    2.6858   -3.9422 H   0  0  0  0  0  0  0  0  0  0  0  0
   -0.4682    2.5653   -5.6986 H   0  0  0  0  0  0  0  0  0  0  0  0
   -1.2867    1.2678   -4.8058 H   0  0  0  0  0  0  0  0  0  0  0  0
    2.2660    3.0711   -3.4392 N   0  0  0  0  0  0  0  0  0  0  0  0
    3.3762    4.0055   -3.3119 C   0  0  0  0  0  0  0  0  0  0  0  0
    1.6364    2.9253   -2.6463 H   0  0  0  0  0  0  0  0  0  0  0  0
    3.3135    4.5381   -2.3579 H   0  0  0  0  0  0  0  0  0  0  0  0
    4.3314    3.4713   -3.3491 H   0  0  0  0  0  0  0  0  0  0  0  0
    3.3524    4.7432   -4.1211 H   0  0  0  0  0  0  0  0  0  0  0  0
  1  2  2  0  0  0  0
  1  3  1  0  0  0  0
  1  7  1  0  0  0  0
  3  4  1  0  0  0  0
  3  5  1  0  0  0  0
  3  6  1  0  0  0  0
  7  8  1  0  0  0  0
  7 12  1  0  0  0  0
  8  9  1  0  0  0  0
  8 11  1  0  0  0  0
  8 13  1  0  0  0  0
  9 10  2  0  0  0  0
  9 17  1  0  0  0  0
 11 14  1  0  0  0  0
 11 15  1  0  0  0  0
 11 16  1  0  0  0  0
 17 18  1  0  0  0  0
 17 23  1  0  0  0  0
 18 19  1  0  0  0  0
 18 21  1  0  0  0  0
 18 24  1  0  0  0  0
 19 20  2  0  0  0  0
 19 28  1  0  0  0  0
 21 22  1  0  0  0  0
 21 25  1  0  0  0  0
 21 26  1  0  0  0  0
 22 27  1  0  0  0  0
 28 29  1  0  0  0  0
 28 33  1  0  0  0  0
 29 30  1  0  0  0  0
 29 32  1  0  0  0  0
 29 34  1  0  0  0  0
 30 31  2  0  0  0  0
 30 38  1  0  0  0  0
 32 35  1  0  0  0  0
 32 36  1  0  0  0  0
 32 37  1  0  0  0  0
 38 39  1  0  0  0  0
 38 40  1  0  0  0  0
 39 41  1  0  0  0  0
 39 42  1  0  0  0  0
 39 43  1  0  0  0  0
M  END
$$$$

  -OEChem-05262217303D

 43 42  0     1  0  0  0  0  0999 V2000
    3.7311   -1.3233    4.0600 C   0  0  0  0  0  0  0  0  0  0  0  0
    3.0208   -0.8017    4.9047 O   0  0  0  0  0  0  0  0  0  0  0  0
    4.8113   -2.3052    4.4730 C   0  0  0  0  0  0  0  0  0  0  0  0
    5.7942   -1.9155    4.1977 H   0  0  0  0  0  0  0  0  0  0  0  0
    4.7844   -2.4617    5.5550 H   0  0  0  0  0  0  0  0  0  0  0  0
    4.6545   -3.2650    3.9747 H   0  0  0  0  0  0  0  0  0  0  0  0
    3.5419   -1.0348    2.7253 N   0  0  0  0  0  0  0  0  0  0  0  0
    2.4280   -0.2344    2.1998 C   0  0  2  0  0  0  0  0  0  0  0  0
    1.9964   -0.7145    0.7986 C   0  0  0  0  0  0  0  0  0  0  0  0
    2.7042   -1.4882    0.1610 O   0  0  0  0  0  0  0  0  0  0  0  0
    2.8639    1.2337    2.1553 C   0  0  0  0  0  0  0  0  0  0  0  0
    4.0721   -1.5828    2.0488 H   0  0  0  0  0  0  0  0  0  0  0  0
    1.5585   -0.3328    2.8588 H   0  0  0  0  0  0  0  0  0  0  0  0
    3.7329    1.3556    1.5010 H   0  0  0  0  0  0  0  0  0  0  0  0
    2.0536    1.8659    1.7797 H   0  0  0  0  0  0  0  0  0  0  0  0
    3.1323    1.5791    3.1588 H   0  0  0  0  0  0  0  0  0  0  0  0
    0.8133   -0.2733    0.2393 N   0  0  0  0  0  0  0  0  0  0  0  0
    0.3678   -0.5874   -1.1285 C   0  0  2  0  0  0  0  0  0  0  0  0
    0.5102    0.5855   -2.1141 C   0  0  0  0  0  0  0  0  0  0  0  0
    0.5115    1.7362   -1.6917 O   0  0  0  0  0  0  0  0  0  0  0  0
   -1.1089   -0.9872   -1.0365 C   0  0  0  0  0  0  0  0  0  0  0  0
   -1.9139    0.1282   -0.6245 O   0  0  0  0  0  0  0  0  0  0  0  0
    0.2776    0.4205    0.7580 H   0  0  0  0  0  0  0  0  0  0  0  0
    0.9332   -1.4352   -1.5283 H   0  0  0  0  0  0  0  0  0  0  0  0
   -1.2297   -1.8118   -0.3261 H   0  0  0  0  0  0  0  0  0  0  0  0
   -1.4547   -1.3405   -2.0134 H   0  0  0  0  0  0  0  0  0  0  0  0
   -1.7126    0.9301   -1.1446 H   0  0  0  0  0  0  0  0  0  0  0  0
    0.4322    0.3523   -3.4781 N   0  0  0  0  0  0  0  0  0  0  0  0
    0.4006    1.3620   -4.5580 C   0  0  2  0  0  0  0  0  0  0  0  0
    1.6944    2.1961   -4.7088 C   0  0  0  0  0  0  0  0  0  0  0  0
    2.2578    2.2345   -5.7942 O   0  0  0  0  0  0  0  0  0  0  0  0
   -0.8278    2.2745   -4.4331 C   0  0  0  0  0  0  0  0  0  0  0  0
    0.4713   -0.6229   -3.7635 H   0  0  0  0  0  0  0  0  0  0  0  0
    0.2887    0.8121   -5.4986 H   0  0  0  0  0  0  0  0  0  0  0  0
   -0.7437    2.9423   -3.5710 H   0  0  0  0  0  0  0  0  0  0  0  0
   -0.9251    2.8928   -5.3312 H   0  0  0  0  0  0  0  0  0  0  0  0
   -1.7375    1.6762   -4.3255 H   0  0  0  0  0  0  0  0  0  0  0  0
    2.2285    2.8948   -3.6446 N   0  0  0  0  0  0  0  0  0  0  0  0
    3.4635    3.6636   -3.7121 C   0  0  0  0  0  0  0  0  0  0  0  0
    1.7440    2.7976   -2.7488 H   0  0  0  0  0  0  0  0  0  0  0  0
    3.6765    4.1190   -2.7403 H   0  0  0  0  0  0  0  0  0  0  0  0
    4.3039    3.0158   -3.9828 H   0  0  0  0  0  0  0  0  0  0  0  0
    3.3777    4.4617   -4.4571 H   0  0  0  0  0  0  0  0  0  0  0  0
  1  2  2  0  0  0  0
  1  3  1  0  0  0  0
  1  7  1  0  0  0  0
  3  4  1  0  0  0  0
  3  5  1  0  0  0  0
  3  6  1  0  0  0  0
  7  8  1  0  0  0  0
  7 12  1  0  0  0  0
  8  9  1  0  0  0  0
  8 11  1  0  0  0  0
  8 13  1  0  0  0  0
  9 10  2  0  0  0  0
  9 17  1  0  0  0  0
 11 14  1  0  0  0  0
 11 15  1  0  0  0  0
 11 16  1  0  0  0  0
 17 18  1  0  0  0  0
 17 23  1  0  0  0  0
 18 19  1  0  0  0  0
 18 21  1  0  0  0  0
 18 24  1  0  0  0  0
 19 20  2  0  0  0  0
 19 28  1  0  0  0  0
 21 22  1  0  0  0  0
 21 25  1  0  0  0  0
 21 26  1  0  0  0  0
 22 27  1  0  0  0  0
 28 29  1  0  0  0  0
 28 33  1  0  0  0  0
 29 30  1  0  0  0  0
 29 32  1  0  0  0  0
 29 34  1  0  0  0  0
 30 31  2  0  0  0  0
 30 38  1  0  0  0  0
 32 35  1  0  0  0  0
 32 36  1  0  0  0  0
 32 37  1  0  0  0  0
 38 39  1  0  0  0  0
 38 40  1  0  0  0  0
 39 41  1  0  0  0  0
 39 42  1  0  0  0  0
 39 43  1  0  0  0  0
M  END
$$$$

  -OEChem-05262217303D

 43 42  0     1  0  0  0  0  0999 V2000
    3.8182   -1.3209    3.9561 C   0  0  0  0  0  0  0  0  0  0  0  0
    3.1262   -0.7794    4.8034 O   0  0  0  0  0  0  0  0  0  0  0  0
    4.9058   -2.2945    4.3695 C   0  0  0  0  0  0  0  0  0  0  0  0
    5.8859   -1.8938    4.0993 H   0  0  0  0  0  0  0  0  0  0  0  0
    4.8759   -2.4560    5.4507 H   0  0  0  0  0  0  0  0  0  0  0  0
    4.7600   -3.2535    3.8665 H   0  0  0  0  0  0  0  0  0  0  0  0
    3.6091   -1.0548    2.6196 N   0  0  0  0  0  0  0  0  0  0  0  0
    2.4991   -0.2461    2.0985 C   0  0  2  0  0  0  0  0  0  0  0  0
    1.9837   -0.7860    0.7488 C   0  0  0  0  0  0  0  0  0  0  0  0
    2.6536   -1.5852    0.1016 O   0  0  0  0  0  0  0  0  0  0  0  0
    2.9883    1.1973    1.9472 C   0  0  0  0  0  0  0  0  0  0  0  0
    4.1236   -1.6188    1.9443 H   0  0  0  0  0  0  0  0  0  0  0  0
    1.6585   -0.2700    2.8004 H   0  0  0  0  0  0  0  0  0  0  0  0
    3.8310    1.2454    1.2499 H   0  0  0  0  0  0  0  0  0  0  0  0
    2.1870    1.8386    1.5679 H   0  0  0  0  0  0  0  0  0  0  0  0
    3.3144    1.5894    2.9159 H   0  0  0  0  0  0  0  0  0  0  0  0
    0.7676   -0.3676    0.2452 N   0  0  0  0  0  0  0  0  0  0  0  0
    0.3215   -0.6437   -1.1302 C   0  0  2  0  0  0  0  0  0  0  0  0
    0.7262    0.4419   -2.1478 C   0  0  0  0  0  0  0  0  0  0  0  0
    1.2383    1.4866   -1.7637 O   0  0  0  0  0  0  0  0  0  0  0  0
   -1.2056   -0.7762   -1.0826 C   0  0  0  0  0  0  0  0  0  0  0  0
   -1.8204    0.4730   -0.7320 O   0  0  0  0  0  0  0  0  0  0  0  0
    0.2914    0.3788    0.7478 H   0  0  0  0  0  0  0  0  0  0  0  0
    0.7387   -1.5957   -1.4740 H   0  0  0  0  0  0  0  0  0  0  0  0
   -1.4853   -1.5394   -0.3480 H   0  0  0  0  0  0  0  0  0  0  0  0
   -1.5820   -1.1056   -2.0563 H   0  0  0  0  0  0  0  0  0  0  0  0
   -1.5771    1.1863   -1.3506 H   0  0  0  0  0  0  0  0  0  0  0  0
    0.3716    0.3061   -3.4820 N   0  0  0  0  0  0  0  0  0  0  0  0
    0.5625    1.2957   -4.5650 C   0  0  2  0  0  0  0  0  0  0  0  0
    2.0351    1.5928   -4.9352 C   0  0  0  0  0  0  0  0  0  0  0  0
    2.3723    1.5607   -6.1111 O   0  0  0  0  0  0  0  0  0  0  0  0
   -0.1970    2.5976   -4.2716 C   0  0  0  0  0  0  0  0  0  0  0  0
   -0.0016   -0.6002   -3.7516 H   0  0  0  0  0  0  0  0  0  0  0  0
    0.1116    0.8650   -5.4654 H   0  0  0  0  0  0  0  0  0  0  0  0
    0.2624    3.1494   -3.4464 H   0  0  0  0  0  0  0  0  0  0  0  0
   -0.1869    3.2424   -5.1564 H   0  0  0  0  0  0  0  0  0  0  0  0
   -1.2381    2.3829   -4.0133 H   0  0  0  0  0  0  0  0  0  0  0  0
    2.9742    1.9011   -3.9714 N   0  0  0  0  0  0  0  0  0  0  0  0
    4.3687    2.2077   -4.2575 C   0  0  0  0  0  0  0  0  0  0  0  0
    2.6398    1.9334   -3.0049 H   0  0  0  0  0  0  0  0  0  0  0  0
    4.4441    3.1127   -4.8692 H   0  0  0  0  0  0  0  0  0  0  0  0
    4.9163    2.3731   -3.3248 H   0  0  0  0  0  0  0  0  0  0  0  0
    4.8415    1.3782   -4.7937 H   0  0  0  0  0  0  0  0  0  0  0  0
  1  2  2  0  0  0  0
  1  3  1  0  0  0  0
  1  7  1  0  0  0  0
  3  4  1  0  0  0  0
  3  5  1  0  0  0  0
  3  6  1  0  0  0  0
  7  8  1  0  0  0  0
  7 12  1  0  0  0  0
  8  9  1  0  0  0  0
  8 11  1  0  0  0  0
  8 13  1  0  0  0  0
  9 10  2  0  0  0  0
  9 17  1  0  0  0  0
 11 14  1  0  0  0  0
 11 15  1  0  0  0  0
 11 16  1  0  0  0  0
 17 18  1  0  0  0  0
 17 23  1  0  0  0  0
 18 19  1  0  0  0  0
 18 21  1  0  0  0  0
 18 24  1  0  0  0  0
 19 20  2  0  0  0  0
 19 28  1  0  0  0  0
 21 22  1  0  0  0  0
 21 25  1  0  0  0  0
 21 26  1  0  0  0  0
 22 27  1  0  0  0  0
 28 29  1  0  0  0  0
 28 33  1  0  0  0  0
 29 30  1  0  0  0  0
 29 32  1  0  0  0  0
 29 34  1  0  0  0  0
 30 31  2  0  0  0  0
 30 38  1  0  0  0  0
 32 35  1  0  0  0  0
 32 36  1  0  0  0  0
 32 37  1  0  0  0  0
 38 39  1  0  0  0  0
 38 40  1  0  0  0  0
 39 41  1  0  0  0  0
 39 42  1  0  0  0  0
 39 43  1  0  0  0  0
M  END
$$$$

  -OEChem-05262217303D

 43 42  0     1  0  0  0  0  0999 V2000
    3.8724   -1.2730    3.8991 C   0  0  0  0  0  0  0  0  0  0  0  0
    3.1803   -0.7656    4.7674 O   0  0  0  0  0  0  0  0  0  0  0  0
    4.9872   -2.2299    4.2773 C   0  0  0  0  0  0  0  0  0  0  0  0
    5.9544   -1.8015    4.0044 H   0  0  0  0  0  0  0  0  0  0  0  0
    4.9751   -2.4155    5.3549 H   0  0  0  0  0  0  0  0  0  0  0  0
    4.8572   -3.1812    3.7555 H   0  0  0  0  0  0  0  0  0  0  0  0
    3.6350   -0.9879    2.5714 N   0  0  0  0  0  0  0  0  0  0  0  0
    2.4859   -0.2151    2.0824 C   0  0  2  0  0  0  0  0  0  0  0  0
    1.9647   -0.7634    0.7384 C   0  0  0  0  0  0  0  0  0  0  0  0
    2.6475   -1.5432    0.0805 O   0  0  0  0  0  0  0  0  0  0  0  0
    2.9177    1.2469    1.9342 C   0  0  0  0  0  0  0  0  0  0  0  0
    4.1473   -1.5321    1.8784 H   0  0  0  0  0  0  0  0  0  0  0  0
    1.6612   -0.2766    2.8004 H   0  0  0  0  0  0  0  0  0  0  0  0
    3.7314    1.3336    1.2070 H   0  0  0  0  0  0  0  0  0  0  0  0
    2.0808    1.8641    1.5931 H   0  0  0  0  0  0  0  0  0  0  0  0
    3.2654    1.6381    2.8957 H   0  0  0  0  0  0  0  0  0  0  0  0
    0.7262   -0.3824    0.2583 N   0  0  0  0  0  0  0  0  0  0  0  0
    0.2877   -0.6395   -1.1238 C   0  0  2  0  0  0  0  0  0  0  0  0
    0.6452    0.5007   -2.1021 C   0  0  0  0  0  0  0  0  0  0  0  0
    1.3625    1.4245   -1.7375 O   0  0  0  0  0  0  0  0  0  0  0  0
   -1.2305   -0.8587   -1.0718 C   0  0  0  0  0  0  0  0  0  0  0  0
   -1.9118    0.3425   -0.6792 O   0  0  0  0  0  0  0  0  0  0  0  0
    0.2384    0.3469    0.7737 H   0  0  0  0  0  0  0  0  0  0  0  0
    0.7514   -1.5561   -1.5028 H   0  0  0  0  0  0  0  0  0  0  0  0
   -1.4580   -1.6552   -0.3551 H   0  0  0  0  0  0  0  0  0  0  0  0
   -1.5984   -1.1866   -2.0492 H   0  0  0  0  0  0  0  0  0  0  0  0
   -1.7805    1.0635   -1.3215 H   0  0  0  0  0  0  0  0  0  0  0  0
    0.0459    0.5620   -3.3528 N   0  0  0  0  0  0  0  0  0  0  0  0
    0.2335    1.6063   -4.3838 C   0  0  2  0  0  0  0  0  0  0  0  0
    1.6626    1.6938   -4.9701 C   0  0  0  0  0  0  0  0  0  0  0  0
    1.8171    1.6122   -6.1811 O   0  0  0  0  0  0  0  0  0  0  0  0
   -0.2382    2.9789   -3.8832 C   0  0  0  0  0  0  0  0  0  0  0  0
   -0.4821   -0.2614   -3.6296 H   0  0  0  0  0  0  0  0  0  0  0  0
   -0.4162    1.3385   -5.2237 H   0  0  0  0  0  0  0  0  0  0  0  0
    0.4228    3.3684   -3.1037 H   0  0  0  0  0  0  0  0  0  0  0  0
   -0.2443    3.6955   -4.7108 H   0  0  0  0  0  0  0  0  0  0  0  0
   -1.2524    2.9099   -3.4794 H   0  0  0  0  0  0  0  0  0  0  0  0
    2.7661    1.8469   -4.1551 N   0  0  0  0  0  0  0  0  0  0  0  0
    4.1406    1.8703   -4.6339 C   0  0  0  0  0  0  0  0  0  0  0  0
    2.5864    1.8555   -3.1476 H   0  0  0  0  0  0  0  0  0  0  0  0
    4.8269    2.0230   -3.7953 H   0  0  0  0  0  0  0  0  0  0  0  0
    4.3929    0.9227   -5.1209 H   0  0  0  0  0  0  0  0  0  0  0  0
    4.2833    2.6859   -5.3504 H   0  0  0  0  0  0  0  0  0  0  0  0
  1  2  2  0  0  0  0
  1  3  1  0  0  0  0
  1  7  1  0  0  0  0
  3  4  1  0  0  0  0
  3  5  1  0  0  0  0
  3  6  1  0  0  0  0
  7  8  1  0  0  0  0
  7 12  1  0  0  0  0
  8  9  1  0  0  0  0
  8 11  1  0  0  0  0
  8 13  1  0  0  0  0
  9 10  2  0  0  0  0
  9 17  1  0  0  0  0
 11 14  1  0  0  0  0
 11 15  1  0  0  0  0
 11 16  1  0  0  0  0
 17 18  1  0  0  0  0
 17 23  1  0  0  0  0
 18 19  1  0  0  0  0
 18 21  1  0  0  0  0
 18 24  1  0  0  0  0
 19 20  2  0  0  0  0
 19 28  1  0  0  0  0
 21 22  1  0  0  0  0
 21 25  1  0  0  0  0
 21 26  1  0  0  0  0
 22 27  1  0  0  0  0
 28 29  1  0  0  0  0
 28 33  1  0  0  0  0
 29 30  1  0  0  0  0
 29 32  1  0  0  0  0
 29 34  1  0  0  0  0
 30 31  2  0  0  0  0
 30 38  1  0  0  0  0
 32 35  1  0  0  0  0
 32 36  1  0  0  0  0
 32 37  1  0  0  0  0
 38 39  1  0  0  0  0
 38 40  1  0  0  0  0
 39 41  1  0  0  0  0
 39 42  1  0  0  0  0
 39 43  1  0  0  0  0
M  END
$$$$

  -OEChem-05262217303D

 43 42  0     1  0  0  0  0  0999 V2000
    3.8718   -1.3164    3.8894 C   0  0  0  0  0  0  0  0  0  0  0  0
    3.1618   -0.8579    4.7703 O   0  0  0  0  0  0  0  0  0  0  0  0
    5.0112   -2.2543    4.2405 C   0  0  0  0  0  0  0  0  0  0  0  0
    5.9668   -1.7917    3.9825 H   0  0  0  0  0  0  0  0  0  0  0  0
    5.0027   -2.4740    5.3118 H   0  0  0  0  0  0  0  0  0  0  0  0
    4.9072   -3.1917    3.6887 H   0  0  0  0  0  0  0  0  0  0  0  0
    3.6363   -0.9909    2.5710 N   0  0  0  0  0  0  0  0  0  0  0  0
    2.4693   -0.2338    2.1002 C   0  0  2  0  0  0  0  0  0  0  0  0
    1.9548   -0.7668    0.7475 C   0  0  0  0  0  0  0  0  0  0  0  0
    2.6456   -1.5317    0.0811 O   0  0  0  0  0  0  0  0  0  0  0  0
    2.8732    1.2377    1.9747 C   0  0  0  0  0  0  0  0  0  0  0  0
    4.1638   -1.5017    1.8640 H   0  0  0  0  0  0  0  0  0  0  0  0
    1.6491   -0.3235    2.8205 H   0  0  0  0  0  0  0  0  0  0  0  0
    3.6778    1.3526    1.2411 H   0  0  0  0  0  0  0  0  0  0  0  0
    2.0215    1.8447    1.6532 H   0  0  0  0  0  0  0  0  0  0  0  0
    3.2234    1.6176    2.9397 H   0  0  0  0  0  0  0  0  0  0  0  0
    0.7119   -0.3925    0.2721 N   0  0  0  0  0  0  0  0  0  0  0  0
    0.2836   -0.6193   -1.1187 C   0  0  2  0  0  0  0  0  0  0  0  0
    0.6279    0.5550   -2.0642 C   0  0  0  0  0  0  0  0  0  0  0  0
    1.5267    1.3339   -1.7731 O   0  0  0  0  0  0  0  0  0  0  0  0
   -1.2275   -0.8856   -1.0717 C   0  0  0  0  0  0  0  0  0  0  0  0
   -1.9437    0.2825   -0.6414 O   0  0  0  0  0  0  0  0  0  0  0  0
    0.2024    0.3029    0.8123 H   0  0  0  0  0  0  0  0  0  0  0  0
    0.7698   -1.5133   -1.5228 H   0  0  0  0  0  0  0  0  0  0  0  0
   -1.4295   -1.7090   -0.3780 H   0  0  0  0  0  0  0  0  0  0  0  0
   -1.5868   -1.1974   -2.0575 H   0  0  0  0  0  0  0  0  0  0  0  0
   -1.8271    1.0302   -1.2553 H   0  0  0  0  0  0  0  0  0  0  0  0
   -0.1669    0.8312   -3.1697 N   0  0  0  0  0  0  0  0  0  0  0  0
   -0.0121    1.9520   -4.1228 C   0  0  2  0  0  0  0  0  0  0  0  0
    1.2857    1.9148   -4.9644 C   0  0  0  0  0  0  0  0  0  0  0  0
    1.2042    1.9242   -6.1851 O   0  0  0  0  0  0  0  0  0  0  0  0
   -0.1792    3.3099   -3.4248 C   0  0  0  0  0  0  0  0  0  0  0  0
   -0.8327    0.1062   -3.4248 H   0  0  0  0  0  0  0  0  0  0  0  0
   -0.8343    1.8682   -4.8413 H   0  0  0  0  0  0  0  0  0  0  0  0
    0.6658    3.5274   -2.7651 H   0  0  0  0  0  0  0  0  0  0  0  0
   -0.2399    4.1084   -4.1713 H   0  0  0  0  0  0  0  0  0  0  0  0
   -1.0978    3.3234   -2.8310 H   0  0  0  0  0  0  0  0  0  0  0  0
    2.5299    1.8495   -4.3698 N   0  0  0  0  0  0  0  0  0  0  0  0
    3.7833    1.7560   -5.1051 C   0  0  0  0  0  0  0  0  0  0  0  0
    2.5418    1.7859   -3.3482 H   0  0  0  0  0  0  0  0  0  0  0  0
    4.6269    1.7262   -4.4086 H   0  0  0  0  0  0  0  0  0  0  0  0
    3.8037    0.8460   -5.7136 H   0  0  0  0  0  0  0  0  0  0  0  0
    3.9079    2.6233   -5.7618 H   0  0  0  0  0  0  0  0  0  0  0  0
  1  2  2  0  0  0  0
  1  3  1  0  0  0  0
  1  7  1  0  0  0  0
  3  4  1  0  0  0  0
  3  5  1  0  0  0  0
  3  6  1  0  0  0  0
  7  8  1  0  0  0  0
  7 12  1  0  0  0  0
  8  9  1  0  0  0  0
  8 11  1  0  0  0  0
  8 13  1  0  0  0  0
  9 10  2  0  0  0  0
  9 17  1  0  0  0  0
 11 14  1  0  0  0  0
 11 15  1  0  0  0  0
 11 16  1  0  0  0  0
 17 18  1  0  0  0  0
 17 23  1  0  0  0  0
 18 19  1  0  0  0  0
 18 21  1  0  0  0  0
 18 24  1  0  0  0  0
 19 20  2  0  0  0  0
 19 28  1  0  0  0  0
 21 22  1  0  0  0  0
 21 25  1  0  0  0  0
 21 26  1  0  0  0  0
 22 27  1  0  0  0  0
 28 29  1  0  0  0  0
 28 33  1  0  0  0  0
 29 30  1  0  0  0  0
 29 32  1  0  0  0  0
 29 34  1  0  0  0  0
 30 31  2  0  0  0  0
 30 38  1  0  0  0  0
 32 35  1  0  0  0  0
 32 36  1  0  0  0  0
 32 37  1  0  0  0  0
 38 39  1  0  0  0  0
 38 40  1  0  0  0  0
 39 41  1  0  0  0  0
 39 42  1  0  0  0  0
 39 43  1  0  0  0  0
M  END
$$$$

  -OEChem-05262217303D

 43 42  0     1  0  0  0  0  0999 V2000
    3.8520   -1.3817    3.8962 C   0  0  0  0  0  0  0  0  0  0  0  0
    3.1137   -0.9803    4.7819 O   0  0  0  0  0  0  0  0  0  0  0  0
    4.9930   -2.3257    4.2249 C   0  0  0  0  0  0  0  0  0  0  0  0
    5.9495   -1.8260    4.0540 H   0  0  0  0  0  0  0  0  0  0  0  0
    4.9374   -2.6345    5.2726 H   0  0  0  0  0  0  0  0  0  0  0  0
    4.9362   -3.2155    3.5929 H   0  0  0  0  0  0  0  0  0  0  0  0
    3.6458   -0.9876    2.5916 N   0  0  0  0  0  0  0  0  0  0  0  0
    2.4710   -0.2366    2.1296 C   0  0  2  0  0  0  0  0  0  0  0  0
    1.9835   -0.7341    0.7534 C   0  0  0  0  0  0  0  0  0  0  0  0
    2.6940   -1.4699    0.0752 O   0  0  0  0  0  0  0  0  0  0  0  0
    2.8479    1.2456    2.0586 C   0  0  0  0  0  0  0  0  0  0  0  0
    4.1974   -1.4559    1.8736 H   0  0  0  0  0  0  0  0  0  0  0  0
    1.6423   -0.3654    2.8341 H   0  0  0  0  0  0  0  0  0  0  0  0
    3.6617    1.3992    1.3424 H   0  0  0  0  0  0  0  0  0  0  0  0
    1.9897    1.8466    1.7431 H   0  0  0  0  0  0  0  0  0  0  0  0
    3.1752    1.6001    3.0412 H   0  0  0  0  0  0  0  0  0  0  0  0
    0.7350   -0.3736    0.2805 N   0  0  0  0  0  0  0  0  0  0  0  0
    0.3100   -0.5782   -1.1150 C   0  0  2  0  0  0  0  0  0  0  0  0
    0.6310    0.6199   -2.0394 C   0  0  0  0  0  0  0  0  0  0  0  0
    1.6642    1.2535   -1.8717 O   0  0  0  0  0  0  0  0  0  0  0  0
   -1.1917   -0.8940   -1.0614 C   0  0  0  0  0  0  0  0  0  0  0  0
   -1.9418    0.2399   -0.5947 O   0  0  0  0  0  0  0  0  0  0  0  0
    0.1914    0.2693    0.8516 H   0  0  0  0  0  0  0  0  0  0  0  0
    0.8177   -1.4507   -1.5395 H   0  0  0  0  0  0  0  0  0  0  0  0
   -1.3635   -1.7433   -0.3909 H   0  0  0  0  0  0  0  0  0  0  0  0
   -1.5470   -1.1882   -2.0543 H   0  0  0  0  0  0  0  0  0  0  0  0
   -1.7928    1.0321   -1.1423 H   0  0  0  0  0  0  0  0  0  0  0  0
   -0.3094    1.1007   -2.9438 N   0  0  0  0  0  0  0  0  0  0  0  0
   -0.1748    2.2825   -3.8231 C   0  0  2  0  0  0  0  0  0  0  0  0
    0.9332    2.1680   -4.8968 C   0  0  0  0  0  0  0  0  0  0  0  0
    0.6291    2.2577   -6.0785 O   0  0  0  0  0  0  0  0  0  0  0  0
   -0.0235    3.5750   -3.0084 C   0  0  0  0  0  0  0  0  0  0  0  0
   -1.0823    0.4712   -3.1466 H   0  0  0  0  0  0  0  0  0  0  0  0
   -1.1164    2.3724   -4.3750 H   0  0  0  0  0  0  0  0  0  0  0  0
    0.9443    3.6179   -2.5008 H   0  0  0  0  0  0  0  0  0  0  0  0
   -0.0965    4.4431   -3.6711 H   0  0  0  0  0  0  0  0  0  0  0  0
   -0.8151    3.6468   -2.2570 H   0  0  0  0  0  0  0  0  0  0  0  0
    2.2500    1.9389   -4.5514 N   0  0  0  0  0  0  0  0  0  0  0  0
    3.3244    1.7448   -5.5147 C   0  0  0  0  0  0  0  0  0  0  0  0
    2.4361    1.7870   -3.5560 H   0  0  0  0  0  0  0  0  0  0  0  0
    4.2756    1.6003   -4.9933 H   0  0  0  0  0  0  0  0  0  0  0  0
    3.1296    0.8623   -6.1328 H   0  0  0  0  0  0  0  0  0  0  0  0
    3.4175    2.6197   -6.1664 H   0  0  0  0  0  0  0  0  0  0  0  0
  1  2  2  0  0  0  0
  1  3  1  0  0  0  0
  1  7  1  0  0  0  0
  3  4  1  0  0  0  0
  3  5  1  0  0  0  0
  3  6  1  0  0  0  0
  7  8  1  0  0  0  0
  7 12  1  0  0  0  0
  8  9  1  0  0  0  0
  8 11  1  0  0  0  0
  8 13  1  0  0  0  0
  9 10  2  0  0  0  0
  9 17  1  0  0  0  0
 11 14  1  0  0  0  0
 11 15  1  0  0  0  0
 11 16  1  0  0  0  0
 17 18  1  0  0  0  0
 17 23  1  0  0  0  0
 18 19  1  0  0  0  0
 18 21  1  0  0  0  0
 18 24  1  0  0  0  0
 19 20  2  0  0  0  0
 19 28  1  0  0  0  0
 21 22  1  0  0  0  0
 21 25  1  0  0  0  0
 21 26  1  0  0  0  0
 22 27  1  0  0  0  0
 28 29  1  0  0  0  0
 28 33  1  0  0  0  0
 29 30  1  0  0  0  0
 29 32  1  0  0  0  0
 29 34  1  0  0  0  0
 30 31  2  0  0  0  0
 30 38  1  0  0  0  0
 32 35  1  0  0  0  0
 32 36  1  0  0  0  0
 32 37  1  0  0  0  0
 38 39  1  0  0  0  0
 38 40  1  0  0  0  0
 39 41  1  0  0  0  0
 39 42  1  0  0  0  0
 39 43  1  0  0  0  0
M  END
$$$$

  -OEChem-05262217303D

 43 42  0     1  0  0  0  0  0999 V2000
    3.8222   -1.4724    3.9175 C   0  0  0  0  0  0  0  0  0  0  0  0
    3.0475   -1.1374    4.7998 O   0  0  0  0  0  0  0  0  0  0  0  0
    4.9713   -2.4130    4.2288 C   0  0  0  0  0  0  0  0  0  0  0  0
    5.9241   -1.9150    4.0332 H   0  0  0  0  0  0  0  0  0  0  0  0
    4.9389   -2.7130    5.2801 H   0  0  0  0  0  0  0  0  0  0  0  0
    4.9010   -3.3079    3.6054 H   0  0  0  0  0  0  0  0  0  0  0  0
    3.6496   -1.0062    2.6316 N   0  0  0  0  0  0  0  0  0  0  0  0
    2.4763   -0.2490    2.1759 C   0  0  2  0  0  0  0  0  0  0  0  0
    2.0319   -0.6836    0.7638 C   0  0  0  0  0  0  0  0  0  0  0  0
    2.7761   -1.3646    0.0659 O   0  0  0  0  0  0  0  0  0  0  0  0
    2.8354    1.2391    2.1906 C   0  0  0  0  0  0  0  0  0  0  0  0
    4.2338   -1.4201    1.9059 H   0  0  0  0  0  0  0  0  0  0  0  0
    1.6313   -0.4235    2.8508 H   0  0  0  0  0  0  0  0  0  0  0  0
    3.6687    1.4377    1.5087 H   0  0  0  0  0  0  0  0  0  0  0  0
    1.9795    1.8453    1.8791 H   0  0  0  0  0  0  0  0  0  0  0  0
    3.1283    1.5468    3.1996 H   0  0  0  0  0  0  0  0  0  0  0  0
    0.7781   -0.3440    0.2880 N   0  0  0  0  0  0  0  0  0  0  0  0
    0.3621   -0.5246   -1.1138 C   0  0  2  0  0  0  0  0  0  0  0  0
    0.6480    0.6932   -2.0242 C   0  0  0  0  0  0  0  0  0  0  0  0
    1.7621    1.1962   -2.0140 O   0  0  0  0  0  0  0  0  0  0  0  0
   -1.1257   -0.9006   -1.0596 C   0  0  0  0  0  0  0  0  0  0  0  0
   -1.9226    0.1860   -0.5553 O   0  0  0  0  0  0  0  0  0  0  0  0
    0.1879    0.2211    0.8937 H   0  0  0  0  0  0  0  0  0  0  0  0
    0.8983   -1.3718   -1.5550 H   0  0  0  0  0  0  0  0  0  0  0  0
   -1.2631   -1.7802   -0.4213 H   0  0  0  0  0  0  0  0  0  0  0  0
   -1.4699   -1.1711   -2.0633 H   0  0  0  0  0  0  0  0  0  0  0  0
   -1.6992    1.0379   -0.9724 H   0  0  0  0  0  0  0  0  0  0  0  0
   -0.3754    1.3570   -2.6930 N   0  0  0  0  0  0  0  0  0  0  0  0
   -0.2505    2.5901   -3.5013 C   0  0  2  0  0  0  0  0  0  0  0  0
    0.6239    2.4475   -4.7702 C   0  0  0  0  0  0  0  0  0  0  0  0
    0.1176    2.6419   -5.8669 O   0  0  0  0  0  0  0  0  0  0  0  0
    0.2062    3.7799   -2.6443 C   0  0  0  0  0  0  0  0  0  0  0  0
   -1.2225    0.8108   -2.8354 H   0  0  0  0  0  0  0  0  0  0  0  0
   -1.2564    2.8350   -3.8585 H   0  0  0  0  0  0  0  0  0  0  0  0
    1.2473    3.6698   -2.3278 H   0  0  0  0  0  0  0  0  0  0  0  0
    0.1242    4.7072   -3.2202 H   0  0  0  0  0  0  0  0  0  0  0  0
   -0.4215    3.8709   -1.7529 H   0  0  0  0  0  0  0  0  0  0  0  0
    1.9515    2.0767   -4.6928 N   0  0  0  0  0  0  0  0  0  0  0  0
    2.8081    1.8623   -5.8510 C   0  0  0  0  0  0  0  0  0  0  0  0
    2.2991    1.8337   -3.7606 H   0  0  0  0  0  0  0  0  0  0  0  0
    3.8139    1.5779   -5.5271 H   0  0  0  0  0  0  0  0  0  0  0  0
    2.4078    1.0622   -6.4823 H   0  0  0  0  0  0  0  0  0  0  0  0
    2.8837    2.7783   -6.4463 H   0  0  0  0  0  0  0  0  0  0  0  0
  1  2  2  0  0  0  0
  1  3  1  0  0  0  0
  1  7  1  0  0  0  0
  3  4  1  0  0  0  0
  3  5  1  0  0  0  0
  3  6  1  0  0  0  0
  7  8  1  0  0  0  0
  7 12  1  0  0  0  0
  8  9  1  0  0  0  0
  8 11  1  0  0  0  0
  8 13  1  0  0  0  0
  9 10  2  0  0  0  0
  9 17  1  0  0  0  0
 11 14  1  0  0  0  0
 11 15  1  0  0  0  0
 11 16  1  0  0  0  0
 17 18  1  0  0  0  0
 17 23  1  0  0  0  0
 18 19  1  0  0  0  0
 18 21  1  0  0  0  0
 18 24  1  0  0  0  0
 19 20  2  0  0  0  0
 19 28  1  0  0  0  0
 21 22  1  0  0  0  0
 21 25  1  0  0  0  0
 21 26  1  0  0  0  0
 22 27  1  0  0  0  0
 28 29  1  0  0  0  0
 28 33  1  0  0  0  0
 29 30  1  0  0  0  0
 29 32  1  0  0  0  0
 29 34  1  0  0  0  0
 30 31  2  0  0  0  0
 30 38  1  0  0  0  0
 32 35  1  0  0  0  0
 32 36  1  0  0  0  0
 32 37  1  0  0  0  0
 38 39  1  0  0  0  0
 38 40  1  0  0  0  0
 39 41  1  0  0  0  0
 39 42  1  0  0  0  0
 39 43  1  0  0  0  0
M  END
$$$$

  -OEChem-05262217303D

 43 42  0     1  0  0  0  0  0999 V2000
    3.8055   -1.4460    3.9800 C   0  0  0  0  0  0  0  0  0  0  0  0
    3.0078   -1.1224    4.8461 O   0  0  0  0  0  0  0  0  0  0  0  0
    4.9684   -2.3598    4.3181 C   0  0  0  0  0  0  0  0  0  0  0  0
    5.9129   -1.8314    4.1668 H   0  0  0  0  0  0  0  0  0  0  0  0
    4.9053   -2.6791    5.3621 H   0  0  0  0  0  0  0  0  0  0  0  0
    4.9471   -3.2451    3.6777 H   0  0  0  0  0  0  0  0  0  0  0  0
    3.6468   -0.9901    2.6887 N   0  0  0  0  0  0  0  0  0  0  0  0
    2.4683   -0.2563    2.2092 C   0  0  2  0  0  0  0  0  0  0  0  0
    2.0588   -0.7023    0.7899 C   0  0  0  0  0  0  0  0  0  0  0  0
    2.8157   -1.3965    0.1206 O   0  0  0  0  0  0  0  0  0  0  0  0
    2.7974    1.2389    2.2285 C   0  0  0  0  0  0  0  0  0  0  0  0
    4.2463   -1.4029    1.9747 H   0  0  0  0  0  0  0  0  0  0  0  0
    1.6147   -0.4466    2.8686 H   0  0  0  0  0  0  0  0  0  0  0  0
    3.6339    1.4548    1.5559 H   0  0  0  0  0  0  0  0  0  0  0  0
    1.9331    1.8288    1.9095 H   0  0  0  0  0  0  0  0  0  0  0  0
    3.0736    1.5520    3.2403 H   0  0  0  0  0  0  0  0  0  0  0  0
    0.8227   -0.3496    0.2793 N   0  0  0  0  0  0  0  0  0  0  0  0
    0.4608   -0.4640   -1.1439 C   0  0  2  0  0  0  0  0  0  0  0  0
    0.7877    0.8189   -1.9384 C   0  0  0  0  0  0  0  0  0  0  0  0
    1.9484    1.0637   -2.2382 O   0  0  0  0  0  0  0  0  0  0  0  0
   -1.0081   -0.9043   -1.2429 C   0  0  0  0  0  0  0  0  0  0  0  0
   -1.9062    0.0978   -0.7399 O   0  0  0  0  0  0  0  0  0  0  0  0
    0.2468    0.2571    0.8572 H   0  0  0  0  0  0  0  0  0  0  0  0
    1.0543   -1.2593   -1.6077 H   0  0  0  0  0  0  0  0  0  0  0  0
   -1.1427   -1.8324   -0.6771 H   0  0  0  0  0  0  0  0  0  0  0  0
   -1.2523   -1.1175   -2.2891 H   0  0  0  0  0  0  0  0  0  0  0  0
   -2.8166   -0.2522   -0.6937 H   0  0  0  0  0  0  0  0  0  0  0  0
   -0.2139    1.6921   -2.3282 N   0  0  0  0  0  0  0  0  0  0  0  0
   -0.0679    2.9757   -3.0446 C   0  0  2  0  0  0  0  0  0  0  0  0
    0.4129    2.8433   -4.5079 C   0  0  0  0  0  0  0  0  0  0  0  0
   -0.2551    3.3384   -5.4064 O   0  0  0  0  0  0  0  0  0  0  0  0
    0.8199    3.9544   -2.2623 C   0  0  0  0  0  0  0  0  0  0  0  0
   -1.1392    1.4508   -1.9696 H   0  0  0  0  0  0  0  0  0  0  0  0
   -1.0656    3.4242   -3.0952 H   0  0  0  0  0  0  0  0  0  0  0  0
    1.8632    3.6257   -2.2510 H   0  0  0  0  0  0  0  0  0  0  0  0
    0.7823    4.9447   -2.7270 H   0  0  0  0  0  0  0  0  0  0  0  0
    0.4709    4.0425   -1.2292 H   0  0  0  0  0  0  0  0  0  0  0  0
    1.5761    2.1695   -4.8230 N   0  0  0  0  0  0  0  0  0  0  0  0
    2.0567    1.9600   -6.1812 C   0  0  0  0  0  0  0  0  0  0  0  0
    2.0675    1.7281   -4.0404 H   0  0  0  0  0  0  0  0  0  0  0  0
    3.0310    1.4624   -6.1631 H   0  0  0  0  0  0  0  0  0  0  0  0
    1.3556    1.3332   -6.7415 H   0  0  0  0  0  0  0  0  0  0  0  0
    2.1678    2.9173   -6.7009 H   0  0  0  0  0  0  0  0  0  0  0  0
  1  2  2  0  0  0  0
  1  3  1  0  0  0  0
  1  7  1  0  0  0  0
  3  4  1  0  0  0  0
  3  5  1  0  0  0  0
  3  6  1  0  0  0  0
  7  8  1  0  0  0  0
  7 12  1  0  0  0  0
  8  9  1  0  0  0  0
  8 11  1  0  0  0  0
  8 13  1  0  0  0  0
  9 10  2  0  0  0  0
  9 17  1  0  0  0  0
 11 14  1  0  0  0  0
 11 15  1  0  0  0  0
 11 16  1  0  0  0  0
 17 18  1  0  0  0  0
 17 23  1  0  0  0  0
 18 19  1  0  0  0  0
 18 21  1  0  0  0  0
 18 24  1  0  0  0  0
 19 20  2  0  0  0  0
 19 28  1  0  0  0  0
 21 22  1  0  0  0  0
 21 25  1  0  0  0  0
 21 26  1  0  0  0  0
 22 27  1  0  0  0  0
 28 29  1  0  0  0  0
 28 33  1  0  0  0  0
 29 30  1  0  0  0  0
 29 32  1  0  0  0  0
 29 34  1  0  0  0  0
 30 31  2  0  0  0  0
 30 38  1  0  0  0  0
 32 35  1  0  0  0  0
 32 36  1  0  0  0  0
 32 37  1  0  0  0  0
 38 39  1  0  0  0  0
 38 40  1  0  0  0  0
 39 41  1  0  0  0  0
 39 42  1  0  0  0  0
 39 43  1  0  0  0  0
M  END
$$$$

  -OEChem-05262217303D

 43 42  0     1  0  0  0  0  0999 V2000
    3.7318   -1.6399    4.0085 C   0  0  0  0  0  0  0  0  0  0  0  0
    2.9025   -1.3740    4.8643 O   0  0  0  0  0  0  0  0  0  0  0  0
    4.8765   -2.5844    4.3238 C   0  0  0  0  0  0  0  0  0  0  0  0
    5.8308   -2.0645    4.2099 H   0  0  0  0  0  0  0  0  0  0  0  0
    4.7935   -2.9486    5.3517 H   0  0  0  0  0  0  0  0  0  0  0  0
    4.8530   -3.4403    3.6448 H   0  0  0  0  0  0  0  0  0  0  0  0
    3.6224   -1.0933    2.7478 N   0  0  0  0  0  0  0  0  0  0  0  0
    2.4625   -0.3251    2.2770 C   0  0  2  0  0  0  0  0  0  0  0  0
    2.1183   -0.6597    0.8106 C   0  0  0  0  0  0  0  0  0  0  0  0
    2.9173   -1.2809    0.1197 O   0  0  0  0  0  0  0  0  0  0  0  0
    2.7822    1.1647    2.4305 C   0  0  0  0  0  0  0  0  0  0  0  0
    4.2485   -1.4562    2.0294 H   0  0  0  0  0  0  0  0  0  0  0  0
    1.5819   -0.5690    2.8809 H   0  0  0  0  0  0  0  0  0  0  0  0
    3.6490    1.4360    1.8189 H   0  0  0  0  0  0  0  0  0  0  0  0
    1.9309    1.7768    2.1180 H   0  0  0  0  0  0  0  0  0  0  0  0
    3.0078    1.3963    3.4763 H   0  0  0  0  0  0  0  0  0  0  0  0
    0.8937   -0.2974    0.2791 N   0  0  0  0  0  0  0  0  0  0  0  0
    0.5613   -0.3760   -1.1541 C   0  0  2  0  0  0  0  0  0  0  0  0
    0.8967    0.9210   -1.9199 C   0  0  0  0  0  0  0  0  0  0  0  0
    2.0003    1.0555   -2.4297 O   0  0  0  0  0  0  0  0  0  0  0  0
   -0.9076   -0.8069   -1.2867 C   0  0  0  0  0  0  0  0  0  0  0  0
   -1.8128    0.1856   -0.7756 O   0  0  0  0  0  0  0  0  0  0  0  0
    0.2725    0.2428    0.8761 H   0  0  0  0  0  0  0  0  0  0  0  0
    1.1596   -1.1654   -1.6224 H   0  0  0  0  0  0  0  0  0  0  0  0
   -1.0565   -1.7480   -0.7466 H   0  0  0  0  0  0  0  0  0  0  0  0
   -1.1337   -0.9916   -2.3424 H   0  0  0  0  0  0  0  0  0  0  0  0
   -2.7316   -0.1433   -0.8104 H   0  0  0  0  0  0  0  0  0  0  0  0
   -0.0403    1.9334   -2.0402 N   0  0  0  0  0  0  0  0  0  0  0  0
    0.1133    3.2420   -2.7077 C   0  0  2  0  0  0  0  0  0  0  0  0
    0.2953    3.1713   -4.2418 C   0  0  0  0  0  0  0  0  0  0  0  0
   -0.4454    3.8244   -4.9654 O   0  0  0  0  0  0  0  0  0  0  0  0
    1.2363    4.0610   -2.0574 C   0  0  0  0  0  0  0  0  0  0  0  0
   -0.9389    1.7236   -1.6018 H   0  0  0  0  0  0  0  0  0  0  0  0
   -0.8177    3.7937   -2.5413 H   0  0  0  0  0  0  0  0  0  0  0  0
    2.2170    3.6196   -2.2571 H   0  0  0  0  0  0  0  0  0  0  0  0
    1.2342    5.0807   -2.4550 H   0  0  0  0  0  0  0  0  0  0  0  0
    1.0904    4.1118   -0.9744 H   0  0  0  0  0  0  0  0  0  0  0  0
    1.2771    2.3876   -4.8140 N   0  0  0  0  0  0  0  0  0  0  0  0
    1.4986    2.2684   -6.2477 C   0  0  0  0  0  0  0  0  0  0  0  0
    1.8521    1.8403   -4.1671 H   0  0  0  0  0  0  0  0  0  0  0  0
    2.3579    1.6198   -6.4434 H   0  0  0  0  0  0  0  0  0  0  0  0
    0.6188    1.8364   -6.7354 H   0  0  0  0  0  0  0  0  0  0  0  0
    1.7004    3.2507   -6.6871 H   0  0  0  0  0  0  0  0  0  0  0  0
  1  2  2  0  0  0  0
  1  3  1  0  0  0  0
  1  7  1  0  0  0  0
  3  4  1  0  0  0  0
  3  5  1  0  0  0  0
  3  6  1  0  0  0  0
  7  8  1  0  0  0  0
  7 12  1  0  0  0  0
  8  9  1  0  0  0  0
  8 11  1  0  0  0  0
  8 13  1  0  0  0  0
  9 10  2  0  0  0  0
  9 17  1  0  0  0  0
 11 14  1  0  0  0  0
 11 15  1  0  0  0  0
 11 16  1  0  0  0  0
 17 18  1  0  0  0  0
 17 23  1  0  0  0  0
 18 19  1  0  0  0  0
 18 21  1  0  0  0  0
 18 24  1  0  0  0  0
 19 20  2  0  0  0  0
 19 28  1  0  0  0  0
 21 22  1  0  0  0  0
 21 25  1  0  0  0  0
 21 26  1  0  0  0  0
 22 27  1  0  0  0  0
 28 29  1  0  0  0  0
 28 33  1  0  0  0  0
 29 30  1  0  0  0  0
 29 32  1  0  0  0  0
 29 34  1  0  0  0  0
 30 31  2  0  0  0  0
 30 38  1  0  0  0  0
 32 35  1  0  0  0  0
 32 36  1  0  0  0  0
 32 37  1  0  0  0  0
 38 39  1  0  0  0  0
 38 40  1  0  0  0  0
 39 41  1  0  0  0  0
 39 42  1  0  0  0  0
 39 43  1  0  0  0  0
M  END
$$$$

  -OEChem-05262217303D

 43 42  0     1  0  0  0  0  0999 V2000
    3.6766   -1.7696    4.0619 C   0  0  0  0  0  0  0  0  0  0  0  0
    2.8163   -1.5425    4.8982 O   0  0  0  0  0  0  0  0  0  0  0  0
    4.8303   -2.6997    4.3865 C   0  0  0  0  0  0  0  0  0  0  0  0
    5.7793   -2.1712    4.2688 H   0  0  0  0  0  0  0  0  0  0  0  0
    4.7501   -3.0545    5.4177 H   0  0  0  0  0  0  0  0  0  0  0  0
    4.8156   -3.5617    3.7150 H   0  0  0  0  0  0  0  0  0  0  0  0
    3.5965   -1.1871    2.8150 N   0  0  0  0  0  0  0  0  0  0  0  0
    2.4476   -0.4065    2.3379 C   0  0  2  0  0  0  0  0  0  0  0  0
    2.1750   -0.6549    0.8399 C   0  0  0  0  0  0  0  0  0  0  0  0
    3.0148   -1.2170    0.1475 O   0  0  0  0  0  0  0  0  0  0  0  0
    2.7364    1.0758    2.5937 C   0  0  0  0  0  0  0  0  0  0  0  0
    4.2548   -1.5105    2.1063 H   0  0  0  0  0  0  0  0  0  0  0  0
    1.5454   -0.6988    2.8860 H   0  0  0  0  0  0  0  0  0  0  0  0
    3.6262    1.3927    2.0398 H   0  0  0  0  0  0  0  0  0  0  0  0
    1.8907    1.6940    2.2780 H   0  0  0  0  0  0  0  0  0  0  0  0
    2.9101    1.2489    3.6607 H   0  0  0  0  0  0  0  0  0  0  0  0
    0.9733   -0.2692    0.2753 N   0  0  0  0  0  0  0  0  0  0  0  0
    0.6848   -0.3049   -1.1691 C   0  0  2  0  0  0  0  0  0  0  0  0
    1.0509    1.0049   -1.8941 C   0  0  0  0  0  0  0  0  0  0  0  0
    2.0347    1.0459   -2.6204 O   0  0  0  0  0  0  0  0  0  0  0  0
   -0.7883   -0.6973   -1.3517 C   0  0  0  0  0  0  0  0  0  0  0  0
   -1.6772    0.3091   -0.8384 O   0  0  0  0  0  0  0  0  0  0  0  0
    0.3120    0.2168    0.8760 H   0  0  0  0  0  0  0  0  0  0  0  0
    1.2841   -1.0934   -1.6388 H   0  0  0  0  0  0  0  0  0  0  0  0
   -0.9764   -1.6484   -0.8422 H   0  0  0  0  0  0  0  0  0  0  0  0
   -0.9904   -0.8468   -2.4179 H   0  0  0  0  0  0  0  0  0  0  0  0
   -2.6061    0.0279   -0.9462 H   0  0  0  0  0  0  0  0  0  0  0  0
    0.2507    2.1254   -1.7496 N   0  0  0  0  0  0  0  0  0  0  0  0
    0.4165    3.4452   -2.3904 C   0  0  2  0  0  0  0  0  0  0  0  0
    0.2409    3.4416   -3.9264 C   0  0  0  0  0  0  0  0  0  0  0  0
   -0.5970    4.1724   -4.4387 O   0  0  0  0  0  0  0  0  0  0  0  0
    1.7520    4.0885   -1.9914 C   0  0  0  0  0  0  0  0  0  0  0  0
   -0.6239    1.9445   -1.2543 H   0  0  0  0  0  0  0  0  0  0  0  0
   -0.3760    4.0902   -1.9971 H   0  0  0  0  0  0  0  0  0  0  0  0
    2.5992    3.5495   -2.4253 H   0  0  0  0  0  0  0  0  0  0  0  0
    1.7900    5.1234   -2.3461 H   0  0  0  0  0  0  0  0  0  0  0  0
    1.8622    4.0915   -0.9030 H   0  0  0  0  0  0  0  0  0  0  0  0
    1.0064    2.6229   -4.7320 N   0  0  0  0  0  0  0  0  0  0  0  0
    0.8789    2.5481   -6.1799 C   0  0  0  0  0  0  0  0  0  0  0  0
    1.6531    1.9927   -4.2490 H   0  0  0  0  0  0  0  0  0  0  0  0
    1.6044    1.8363   -6.5849 H   0  0  0  0  0  0  0  0  0  0  0  0
   -0.1263    2.2160   -6.4587 H   0  0  0  0  0  0  0  0  0  0  0  0
    1.0663    3.5279   -6.6311 H   0  0  0  0  0  0  0  0  0  0  0  0
  1  2  2  0  0  0  0
  1  3  1  0  0  0  0
  1  7  1  0  0  0  0
  3  4  1  0  0  0  0
  3  5  1  0  0  0  0
  3  6  1  0  0  0  0
  7  8  1  0  0  0  0
  7 12  1  0  0  0  0
  8  9  1  0  0  0  0
  8 11  1  0  0  0  0
  8 13  1  0  0  0  0
  9 10  2  0  0  0  0
  9 17  1  0  0  0  0
 11 14  1  0  0  0  0
 11 15  1  0  0  0  0
 11 16  1  0  0  0  0
 17 18  1  0  0  0  0
 17 23  1  0  0  0  0
 18 19  1  0  0  0  0
 18 21  1  0  0  0  0
 18 24  1  0  0  0  0
 19 20  2  0  0  0  0
 19 28  1  0  0  0  0
 21 22  1  0  0  0  0
 21 25  1  0  0  0  0
 21 26  1  0  0  0  0
 22 27  1  0  0  0  0
 28 29  1  0  0  0  0
 28 33  1  0  0  0  0
 29 30  1  0  0  0  0
 29 32  1  0  0  0  0
 29 34  1  0  0  0  0
 30 31  2  0  0  0  0
 30 38  1  0  0  0  0
 32 35  1  0  0  0  0
 32 36  1  0  0  0  0
 32 37  1  0  0  0  0
 38 39  1  0  0  0  0
 38 40  1  0  0  0  0
 39 41  1  0  0  0  0
 39 42  1  0  0  0  0
 39 43  1  0  0  0  0
M  END
$$$$

  -OEChem-05262217303D

 43 42  0     1  0  0  0  0  0999 V2000
    3.6455   -1.8585    4.0899 C   0  0  0  0  0  0  0  0  0  0  0  0
    2.7799   -1.6679    4.9296 O   0  0  0  0  0  0  0  0  0  0  0  0
    4.8106   -2.7827    4.3896 C   0  0  0  0  0  0  0  0  0  0  0  0
    5.7410   -2.2103    4.4248 H   0  0  0  0  0  0  0  0  0  0  0  0
    4.6622   -3.2760    5.3542 H   0  0  0  0  0  0  0  0  0  0  0  0
    4.8904   -3.5473    3.6129 H   0  0  0  0  0  0  0  0  0  0  0  0
    3.5607   -1.2411    2.8605 N   0  0  0  0  0  0  0  0  0  0  0  0
    2.3971   -0.4731    2.3996 C   0  0  2  0  0  0  0  0  0  0  0  0
    2.1523   -0.6692    0.8888 C   0  0  0  0  0  0  0  0  0  0  0  0
    2.9939   -1.2274    0.1955 O   0  0  0  0  0  0  0  0  0  0  0  0
    2.6398    1.0048    2.7212 C   0  0  0  0  0  0  0  0  0  0  0  0
    4.2211   -1.5420    2.1439 H   0  0  0  0  0  0  0  0  0  0  0  0
    1.4958   -0.8128    2.9215 H   0  0  0  0  0  0  0  0  0  0  0  0
    3.5297    1.3694    2.1978 H   0  0  0  0  0  0  0  0  0  0  0  0
    1.7824    1.6123    2.4168 H   0  0  0  0  0  0  0  0  0  0  0  0
    2.7896    1.1374    3.7975 H   0  0  0  0  0  0  0  0  0  0  0  0
    0.9831   -0.2194    0.3050 N   0  0  0  0  0  0  0  0  0  0  0  0
    0.7019   -0.2656   -1.1409 C   0  0  2  0  0  0  0  0  0  0  0  0
    1.1551    0.9990   -1.8931 C   0  0  0  0  0  0  0  0  0  0  0  0
    1.9399    0.9040   -2.8274 O   0  0  0  0  0  0  0  0  0  0  0  0
   -0.7982   -0.5248   -1.3218 C   0  0  0  0  0  0  0  0  0  0  0  0
   -1.5786    0.5800   -0.8360 O   0  0  0  0  0  0  0  0  0  0  0  0
    0.3070    0.2450    0.9061 H   0  0  0  0  0  0  0  0  0  0  0  0
    1.2367   -1.1101   -1.5901 H   0  0  0  0  0  0  0  0  0  0  0  0
   -1.0806   -1.4404   -0.7912 H   0  0  0  0  0  0  0  0  0  0  0  0
   -1.0103   -0.6780   -2.3856 H   0  0  0  0  0  0  0  0  0  0  0  0
   -2.5284    0.4244   -1.0004 H   0  0  0  0  0  0  0  0  0  0  0  0
    0.6288    2.2322   -1.5464 N   0  0  0  0  0  0  0  0  0  0  0  0
    0.9223    3.5417   -2.1619 C   0  0  2  0  0  0  0  0  0  0  0  0
    0.4262    3.6956   -3.6177 C   0  0  0  0  0  0  0  0  0  0  0  0
   -0.3130    4.6278   -3.9069 O   0  0  0  0  0  0  0  0  0  0  0  0
    2.4155    3.8807   -2.0520 C   0  0  0  0  0  0  0  0  0  0  0  0
   -0.1838    2.1711   -0.9330 H   0  0  0  0  0  0  0  0  0  0  0  0
    0.3835    4.2940   -1.5769 H   0  0  0  0  0  0  0  0  0  0  0  0
    3.0194    3.2336   -2.6948 H   0  0  0  0  0  0  0  0  0  0  0  0
    2.5870    4.9176   -2.3570 H   0  0  0  0  0  0  0  0  0  0  0  0
    2.7572    3.7624   -1.0195 H   0  0  0  0  0  0  0  0  0  0  0  0
    0.7979    2.7992   -4.5992 N   0  0  0  0  0  0  0  0  0  0  0  0
    0.3747    2.8840   -5.9896 C   0  0  0  0  0  0  0  0  0  0  0  0
    1.3937    2.0225   -4.2987 H   0  0  0  0  0  0  0  0  0  0  0  0
    0.7398    3.8106   -6.4447 H   0  0  0  0  0  0  0  0  0  0  0  0
    0.7750    2.0382   -6.5571 H   0  0  0  0  0  0  0  0  0  0  0  0
   -0.7179    2.8624   -6.0599 H   0  0  0  0  0  0  0  0  0  0  0  0
  1  2  2  0  0  0  0
  1  3  1  0  0  0  0
  1  7  1  0  0  0  0
  3  4  1  0  0  0  0
  3  5  1  0  0  0  0
  3  6  1  0  0  0  0
  7  8  1  0  0  0  0
  7 12  1  0  0  0  0
  8  9  1  0  0  0  0
  8 11  1  0  0  0  0
  8 13  1  0  0  0  0
  9 10  2  0  0  0  0
  9 17  1  0  0  0  0
 11 14  1  0  0  0  0
 11 15  1  0  0  0  0
 11 16  1  0  0  0  0
 17 18  1  0  0  0  0
 17 23  1  0  0  0  0
 18 19  1  0  0  0  0
 18 21  1  0  0  0  0
 18 24  1  0  0  0  0
 19 20  2  0  0  0  0
 19 28  1  0  0  0  0
 21 22  1  0  0  0  0
 21 25  1  0  0  0  0
 21 26  1  0  0  0  0
 22 27  1  0  0  0  0
 28 29  1  0  0  0  0
 28 33  1  0  0  0  0
 29 30  1  0  0  0  0
 29 32  1  0  0  0  0
 29 34  1  0  0  0  0
 30 31  2  0  0  0  0
 30 38  1  0  0  0  0
 32 35  1  0  0  0  0
 32 36  1  0  0  0  0
 32 37  1  0  0  0  0
 38 39  1  0  0  0  0
 38 40  1  0  0  0  0
 39 41  1  0  0  0  0
 39 42  1  0  0  0  0
 39 43  1  0  0  0  0
M  END
$$$$

  -OEChem-05262217303D

 43 42  0     1  0  0  0  0  0999 V2000
    3.4129   -2.1160    4.3591 C   0  0  0  0  0  0  0  0  0  0  0  0
    2.4975   -1.9186    5.1424 O   0  0  0  0  0  0  0  0  0  0  0  0
    4.5410   -3.0617    4.7262 C   0  0  0  0  0  0  0  0  0  0  0  0
    5.4976   -2.5353    4.6839 H   0  0  0  0  0  0  0  0  0  0  0  0
    4.3957   -3.4471    5.7392 H   0  0  0  0  0  0  0  0  0  0  0  0
    4.5645   -3.9030    4.0294 H   0  0  0  0  0  0  0  0  0  0  0  0
    3.4177   -1.4847    3.1334 N   0  0  0  0  0  0  0  0  0  0  0  0
    2.3136   -0.6654    2.6165 C   0  0  2  0  0  0  0  0  0  0  0  0
    2.2701   -0.6805    1.0734 C   0  0  0  0  0  0  0  0  0  0  0  0
    3.1702   -1.2110    0.4335 O   0  0  0  0  0  0  0  0  0  0  0  0
    2.4828    0.7664    3.1376 C   0  0  0  0  0  0  0  0  0  0  0  0
    4.1308   -1.7695    2.4620 H   0  0  0  0  0  0  0  0  0  0  0  0
    1.3597   -1.0695    2.9728 H   0  0  0  0  0  0  0  0  0  0  0  0
    3.4298    1.1902    2.7882 H   0  0  0  0  0  0  0  0  0  0  0  0
    1.6646    1.4041    2.7900 H   0  0  0  0  0  0  0  0  0  0  0  0
    2.4803    0.7746    4.2323 H   0  0  0  0  0  0  0  0  0  0  0  0
    1.2211   -0.0909    0.3941 N   0  0  0  0  0  0  0  0  0  0  0  0
    1.0288   -0.1685   -1.0650 C   0  0  2  0  0  0  0  0  0  0  0  0
    1.7073    0.9628   -1.8513 C   0  0  0  0  0  0  0  0  0  0  0  0
    2.0859    0.7491   -2.9952 O   0  0  0  0  0  0  0  0  0  0  0  0
   -0.4801   -0.1851   -1.3407 C   0  0  0  0  0  0  0  0  0  0  0  0
   -1.0921    1.0572   -0.9612 O   0  0  0  0  0  0  0  0  0  0  0  0
    0.4441    0.2647    0.9479 H   0  0  0  0  0  0  0  0  0  0  0  0
    1.4468   -1.1102   -1.4378 H   0  0  0  0  0  0  0  0  0  0  0  0
   -0.9416   -1.0041   -0.7792 H   0  0  0  0  0  0  0  0  0  0  0  0
   -0.6614   -0.3700   -2.4051 H   0  0  0  0  0  0  0  0  0  0  0  0
   -1.0511    1.7127   -1.7065 H   0  0  0  0  0  0  0  0  0  0  0  0
    1.5888    2.2654   -1.3919 N   0  0  0  0  0  0  0  0  0  0  0  0
    1.5413    3.4355   -2.2858 C   0  0  2  0  0  0  0  0  0  0  0  0
    0.3722    3.3216   -3.2963 C   0  0  0  0  0  0  0  0  0  0  0  0
   -0.7153    2.9116   -2.8951 O   0  0  0  0  0  0  0  0  0  0  0  0
    2.9100    3.6979   -2.9380 C   0  0  0  0  0  0  0  0  0  0  0  0
    1.0394    2.3292   -0.5386 H   0  0  0  0  0  0  0  0  0  0  0  0
    1.3191    4.3103   -1.6674 H   0  0  0  0  0  0  0  0  0  0  0  0
    3.1498    2.9375   -3.6869 H   0  0  0  0  0  0  0  0  0  0  0  0
    2.9160    4.6766   -3.4272 H   0  0  0  0  0  0  0  0  0  0  0  0
    3.6960    3.6904   -2.1767 H   0  0  0  0  0  0  0  0  0  0  0  0
    0.5104    3.6800   -4.6246 N   0  0  0  0  0  0  0  0  0  0  0  0
   -0.5363    3.4595   -5.6152 C   0  0  0  0  0  0  0  0  0  0  0  0
    1.4584    3.8407   -4.9524 H   0  0  0  0  0  0  0  0  0  0  0  0
   -0.2308    3.8634   -6.5853 H   0  0  0  0  0  0  0  0  0  0  0  0
   -0.7334    2.3886   -5.7306 H   0  0  0  0  0  0  0  0  0  0  0  0
   -1.4635    3.9578   -5.3130 H   0  0  0  0  0  0  0  0  0  0  0  0
  1  2  2  0  0  0  0
  1  3  1  0  0  0  0
  1  7  1  0  0  0  0
  3  4  1  0  0  0  0
  3  5  1  0  0  0  0
  3  6  1  0  0  0  0
  7  8  1  0  0  0  0
  7 12  1  0  0  0  0
  8  9  1  0  0  0  0
  8 11  1  0  0  0  0
  8 13  1  0  0  0  0
  9 10  2  0  0  0  0
  9 17  1  0  0  0  0
 11 14  1  0  0  0  0
 11 15  1  0  0  0  0
 11 16  1  0  0  0  0
 17 18  1  0  0  0  0
 17 23  1  0  0  0  0
 18 19  1  0  0  0  0
 18 21  1  0  0  0  0
 18 24  1  0  0  0  0
 19 20  2  0  0  0  0
 19 28  1  0  0  0  0
 21 22  1  0  0  0  0
 21 25  1  0  0  0  0
 21 26  1  0  0  0  0
 22 27  1  0  0  0  0
 28 29  1  0  0  0  0
 28 33  1  0  0  0  0
 29 30  1  0  0  0  0
 29 32  1  0  0  0  0
 29 34  1  0  0  0  0
 30 31  2  0  0  0  0
 30 38  1  0  0  0  0
 32 35  1  0  0  0  0
 32 36  1  0  0  0  0
 32 37  1  0  0  0  0
 38 39  1  0  0  0  0
 38 40  1  0  0  0  0
 39 41  1  0  0  0  0
 39 42  1  0  0  0  0
 39 43  1  0  0  0  0
M  END
$$$$

  -OEChem-05262217303D

 43 42  0     1  0  0  0  0  0999 V2000
    3.4312   -2.0714    4.3908 C   0  0  0  0  0  0  0  0  0  0  0  0
    2.5432   -1.8286    5.1925 O   0  0  0  0  0  0  0  0  0  0  0  0
    4.5432   -3.0381    4.7521 C   0  0  0  0  0  0  0  0  0  0  0  0
    5.5088   -2.5286    4.7069 H   0  0  0  0  0  0  0  0  0  0  0  0
    4.3952   -3.4225    5.7650 H   0  0  0  0  0  0  0  0  0  0  0  0
    4.5487   -3.8788    4.0540 H   0  0  0  0  0  0  0  0  0  0  0  0
    3.4203   -1.4719    3.1495 N   0  0  0  0  0  0  0  0  0  0  0  0
    2.3214   -0.6417    2.6390 C   0  0  2  0  0  0  0  0  0  0  0  0
    2.2301   -0.7073    1.0990 C   0  0  0  0  0  0  0  0  0  0  0  0
    3.0892   -1.2941    0.4518 O   0  0  0  0  0  0  0  0  0  0  0  0
    2.5408    0.8012    3.1087 C   0  0  0  0  0  0  0  0  0  0  0  0
    4.1017   -1.8009    2.4657 H   0  0  0  0  0  0  0  0  0  0  0  0
    1.3693   -1.0097    3.0376 H   0  0  0  0  0  0  0  0  0  0  0  0
    3.4814    1.1946    2.7102 H   0  0  0  0  0  0  0  0  0  0  0  0
    1.7219    1.4450    2.7744 H   0  0  0  0  0  0  0  0  0  0  0  0
    2.5820    0.8424    4.2019 H   0  0  0  0  0  0  0  0  0  0  0  0
    1.1890   -0.0968    0.4266 N   0  0  0  0  0  0  0  0  0  0  0  0
    0.9398   -0.2433   -1.0191 C   0  0  2  0  0  0  0  0  0  0  0  0
    1.6386    0.7928   -1.9096 C   0  0  0  0  0  0  0  0  0  0  0  0
    1.7622    0.5658   -3.1061 O   0  0  0  0  0  0  0  0  0  0  0  0
   -0.5788   -0.1637   -1.2158 C   0  0  0  0  0  0  0  0  0  0  0  0
   -1.0737    1.1420   -0.8761 O   0  0  0  0  0  0  0  0  0  0  0  0
    0.4419    0.3107    0.9866 H   0  0  0  0  0  0  0  0  0  0  0  0
    1.2762   -1.2304   -1.3537 H   0  0  0  0  0  0  0  0  0  0  0  0
   -1.0682   -0.9152   -0.5876 H   0  0  0  0  0  0  0  0  0  0  0  0
   -0.8313   -0.3890   -2.2577 H   0  0  0  0  0  0  0  0  0  0  0  0
   -0.9006    1.8031   -1.5961 H   0  0  0  0  0  0  0  0  0  0  0  0
    1.8883    2.0616   -1.4117 N   0  0  0  0  0  0  0  0  0  0  0  0
    1.9417    3.2614   -2.2655 C   0  0  2  0  0  0  0  0  0  0  0  0
    0.6539    3.4241   -3.1151 C   0  0  0  0  0  0  0  0  0  0  0  0
   -0.4303    3.1181   -2.6229 O   0  0  0  0  0  0  0  0  0  0  0  0
    3.2350    3.2770   -3.0984 C   0  0  0  0  0  0  0  0  0  0  0  0
    1.5599    2.1894   -0.4589 H   0  0  0  0  0  0  0  0  0  0  0  0
    1.9803    4.1331   -1.6055 H   0  0  0  0  0  0  0  0  0  0  0  0
    3.2128    2.5144   -3.8824 H   0  0  0  0  0  0  0  0  0  0  0  0
    3.3718    4.2542   -3.5709 H   0  0  0  0  0  0  0  0  0  0  0  0
    4.0993    3.0836   -2.4557 H   0  0  0  0  0  0  0  0  0  0  0  0
    0.6891    3.9369   -4.3993 N   0  0  0  0  0  0  0  0  0  0  0  0
   -0.4845    3.9928   -5.2626 C   0  0  0  0  0  0  0  0  0  0  0  0
    1.6066    4.0263   -4.8260 H   0  0  0  0  0  0  0  0  0  0  0  0
   -0.2414    4.5068   -6.1977 H   0  0  0  0  0  0  0  0  0  0  0  0
   -0.8323    2.9822   -5.5006 H   0  0  0  0  0  0  0  0  0  0  0  0
   -1.2976    4.5388   -4.7731 H   0  0  0  0  0  0  0  0  0  0  0  0
  1  2  2  0  0  0  0
  1  3  1  0  0  0  0
  1  7  1  0  0  0  0
  3  4  1  0  0  0  0
  3  5  1  0  0  0  0
  3  6  1  0  0  0  0
  7  8  1  0  0  0  0
  7 12  1  0  0  0  0
  8  9  1  0  0  0  0
  8 11  1  0  0  0  0
  8 13  1  0  0  0  0
  9 10  2  0  0  0  0
  9 17  1  0  0  0  0
 11 14  1  0  0  0  0
 11 15  1  0  0  0  0
 11 16  1  0  0  0  0
 17 18  1  0  0  0  0
 17 23  1  0  0  0  0
 18 19  1  0  0  0  0
 18 21  1  0  0  0  0
 18 24  1  0  0  0  0
 19 20  2  0  0  0  0
 19 28  1  0  0  0  0
 21 22  1  0  0  0  0
 21 25  1  0  0  0  0
 21 26  1  0  0  0  0
 22 27  1  0  0  0  0
 28 29  1  0  0  0  0
 28 33  1  0  0  0  0
 29 30  1  0  0  0  0
 29 32  1  0  0  0  0
 29 34  1  0  0  0  0
 30 31  2  0  0  0  0
 30 38  1  0  0  0  0
 32 35  1  0  0  0  0
 32 36  1  0  0  0  0
 32 37  1  0  0  0  0
 38 39  1  0  0  0  0
 38 40  1  0  0  0  0
 39 41  1  0  0  0  0
 39 42  1  0  0  0  0
 39 43  1  0  0  0  0
M  END
$$$$

  -OEChem-05262217303D

 43 42  0     1  0  0  0  0  0999 V2000
    3.4268   -2.0191    4.4179 C   0  0  0  0  0  0  0  0  0  0  0  0
    2.5665   -1.7038    5.2245 O   0  0  0  0  0  0  0  0  0  0  0  0
    4.4976   -3.0238    4.7986 C   0  0  0  0  0  0  0  0  0  0  0  0
    5.4808   -2.5478    4.7731 H   0  0  0  0  0  0  0  0  0  0  0  0
    4.3156   -3.4051    5.8075 H   0  0  0  0  0  0  0  0  0  0  0  0
    4.4883   -3.8629    4.0989 H   0  0  0  0  0  0  0  0  0  0  0  0
    3.4233   -1.4639    3.1559 N   0  0  0  0  0  0  0  0  0  0  0  0
    2.3568   -0.5977    2.6366 C   0  0  2  0  0  0  0  0  0  0  0  0
    2.2154   -0.7256    1.1048 C   0  0  0  0  0  0  0  0  0  0  0  0
    3.0377   -1.3625    0.4573 O   0  0  0  0  0  0  0  0  0  0  0  0
    2.6710    0.8493    3.0322 C   0  0  0  0  0  0  0  0  0  0  0  0
    4.0757   -1.8494    2.4735 H   0  0  0  0  0  0  0  0  0  0  0  0
    1.3978   -0.8922    3.0770 H   0  0  0  0  0  0  0  0  0  0  0  0
    3.6208    1.1690    2.5914 H   0  0  0  0  0  0  0  0  0  0  0  0
    1.8805    1.5237    2.6897 H   0  0  0  0  0  0  0  0  0  0  0  0
    2.7457    0.9368    4.1209 H   0  0  0  0  0  0  0  0  0  0  0  0
    1.1766   -0.1079    0.4353 N   0  0  0  0  0  0  0  0  0  0  0  0
    0.8767   -0.3144   -0.9941 C   0  0  2  0  0  0  0  0  0  0  0  0
    1.5774    0.6424   -1.9683 C   0  0  0  0  0  0  0  0  0  0  0  0
    1.4650    0.4591   -3.1736 O   0  0  0  0  0  0  0  0  0  0  0  0
   -0.6446   -0.1710   -1.1293 C   0  0  0  0  0  0  0  0  0  0  0  0
   -1.0625    1.1726   -0.8331 O   0  0  0  0  0  0  0  0  0  0  0  0
    0.4634    0.3590    0.9943 H   0  0  0  0  0  0  0  0  0  0  0  0
    1.1553   -1.3315   -1.2886 H   0  0  0  0  0  0  0  0  0  0  0  0
   -1.1430   -0.8682   -0.4476 H   0  0  0  0  0  0  0  0  0  0  0  0
   -0.9521   -0.4307   -2.1481 H   0  0  0  0  0  0  0  0  0  0  0  0
   -0.7674    1.8249   -1.5184 H   0  0  0  0  0  0  0  0  0  0  0  0
    2.1696    1.8000   -1.4911 N   0  0  0  0  0  0  0  0  0  0  0  0
    2.3114    3.0182   -2.3085 C   0  0  2  0  0  0  0  0  0  0  0  0
    0.9658    3.4598   -2.9448 C   0  0  0  0  0  0  0  0  0  0  0  0
   -0.0867    3.2426   -2.3478 O   0  0  0  0  0  0  0  0  0  0  0  0
    3.4435    2.8404   -3.3343 C   0  0  0  0  0  0  0  0  0  0  0  0
    2.0624    1.9238   -0.4891 H   0  0  0  0  0  0  0  0  0  0  0  0
    2.6109    3.8313   -1.6408 H   0  0  0  0  0  0  0  0  0  0  0  0
    3.1565    2.1377   -4.1225 H   0  0  0  0  0  0  0  0  0  0  0  0
    3.6933    3.7986   -3.7993 H   0  0  0  0  0  0  0  0  0  0  0  0
    4.3417    2.4562   -2.8407 H   0  0  0  0  0  0  0  0  0  0  0  0
    0.9230    4.1424   -4.1471 N   0  0  0  0  0  0  0  0  0  0  0  0
   -0.3251    4.4814   -4.8206 C   0  0  0  0  0  0  0  0  0  0  0  0
    1.7868    4.1835   -4.6795 H   0  0  0  0  0  0  0  0  0  0  0  0
   -0.1224    5.0798   -5.7140 H   0  0  0  0  0  0  0  0  0  0  0  0
   -0.8551    3.5720   -5.1232 H   0  0  0  0  0  0  0  0  0  0  0  0
   -0.9748    5.0638   -4.1586 H   0  0  0  0  0  0  0  0  0  0  0  0
  1  2  2  0  0  0  0
  1  3  1  0  0  0  0
  1  7  1  0  0  0  0
  3  4  1  0  0  0  0
  3  5  1  0  0  0  0
  3  6  1  0  0  0  0
  7  8  1  0  0  0  0
  7 12  1  0  0  0  0
  8  9  1  0  0  0  0
  8 11  1  0  0  0  0
  8 13  1  0  0  0  0
  9 10  2  0  0  0  0
  9 17  1  0  0  0  0
 11 14  1  0  0  0  0
 11 15  1  0  0  0  0
 11 16  1  0  0  0  0
 17 18  1  0  0  0  0
 17 23  1  0  0  0  0
 18 19  1  0  0  0  0
 18 21  1  0  0  0  0
 18 24  1  0  0  0  0
 19 20  2  0  0  0  0
 19 28  1  0  0  0  0
 21 22  1  0  0  0  0
 21 25  1  0  0  0  0
 21 26  1  0  0  0  0
 22 27  1  0  0  0  0
 28 29  1  0  0  0  0
 28 33  1  0  0  0  0
 29 30  1  0  0  0  0
 29 32  1  0  0  0  0
 29 34  1  0  0  0  0
 30 31  2  0  0  0  0
 30 38  1  0  0  0  0
 32 35  1  0  0  0  0
 32 36  1  0  0  0  0
 32 37  1  0  0  0  0
 38 39  1  0  0  0  0
 38 40  1  0  0  0  0
 39 41  1  0  0  0  0
 39 42  1  0  0  0  0
 39 43  1  0  0  0  0
M  END
$$$$

  -OEChem-05262217303D

 43 42  0     1  0  0  0  0  0999 V2000
    3.4418   -1.9219    4.4264 C   0  0  0  0  0  0  0  0  0  0  0  0
    2.6109   -1.5464    5.2378 O   0  0  0  0  0  0  0  0  0  0  0  0
    4.4850   -2.9497    4.8230 C   0  0  0  0  0  0  0  0  0  0  0  0
    5.4857   -2.5208    4.7290 H   0  0  0  0  0  0  0  0  0  0  0  0
    4.3312   -3.2621    5.8598 H   0  0  0  0  0  0  0  0  0  0  0  0
    4.4096   -3.8274    4.1762 H   0  0  0  0  0  0  0  0  0  0  0  0
    3.4283   -1.4166    3.1434 N   0  0  0  0  0  0  0  0  0  0  0  0
    2.3756   -0.5423    2.6090 C   0  0  2  0  0  0  0  0  0  0  0  0
    2.1914   -0.7449    1.0901 C   0  0  0  0  0  0  0  0  0  0  0  0
    2.9852   -1.4263    0.4527 O   0  0  0  0  0  0  0  0  0  0  0  0
    2.7447    0.9118    2.9222 C   0  0  0  0  0  0  0  0  0  0  0  0
    4.0529   -1.8508    2.4642 H   0  0  0  0  0  0  0  0  0  0  0  0
    1.4196   -0.7818    3.0878 H   0  0  0  0  0  0  0  0  0  0  0  0
    3.6945    1.1773    2.4470 H   0  0  0  0  0  0  0  0  0  0  0  0
    1.9687    1.5937    2.5611 H   0  0  0  0  0  0  0  0  0  0  0  0
    2.8455    1.0513    4.0034 H   0  0  0  0  0  0  0  0  0  0  0  0
    1.1578   -0.1301    0.4117 N   0  0  0  0  0  0  0  0  0  0  0  0
    0.8144   -0.3947   -0.9983 C   0  0  2  0  0  0  0  0  0  0  0  0
    1.5184    0.4898   -2.0378 C   0  0  0  0  0  0  0  0  0  0  0  0
    1.1988    0.4124   -3.2175 O   0  0  0  0  0  0  0  0  0  0  0  0
   -0.7050   -0.1961   -1.0849 C   0  0  0  0  0  0  0  0  0  0  0  0
   -1.0580    1.1764   -0.8380 O   0  0  0  0  0  0  0  0  0  0  0  0
    0.4834    0.4068    0.9564 H   0  0  0  0  0  0  0  0  0  0  0  0
    1.0464   -1.4344   -1.2505 H   0  0  0  0  0  0  0  0  0  0  0  0
   -1.2061   -0.8412   -0.3557 H   0  0  0  0  0  0  0  0  0  0  0  0
   -1.0600   -0.4879   -2.0793 H   0  0  0  0  0  0  0  0  0  0  0  0
   -0.6453    1.8030   -1.4810 H   0  0  0  0  0  0  0  0  0  0  0  0
    2.4104    1.4636   -1.6233 N   0  0  0  0  0  0  0  0  0  0  0  0
    2.6393    2.7027   -2.3879 C   0  0  2  0  0  0  0  0  0  0  0  0
    1.3156    3.4207   -2.7699 C   0  0  0  0  0  0  0  0  0  0  0  0
    0.3273    3.3048   -2.0483 O   0  0  0  0  0  0  0  0  0  0  0  0
    3.5438    2.4150   -3.5975 C   0  0  0  0  0  0  0  0  0  0  0  0
    2.5139    1.5124   -0.6145 H   0  0  0  0  0  0  0  0  0  0  0  0
    3.1830    3.3952   -1.7389 H   0  0  0  0  0  0  0  0  0  0  0  0
    3.0099    1.8436   -4.3631 H   0  0  0  0  0  0  0  0  0  0  0  0
    3.8940    3.3501   -4.0445 H   0  0  0  0  0  0  0  0  0  0  0  0
    4.4192    1.8374   -3.2840 H   0  0  0  0  0  0  0  0  0  0  0  0
    1.2347    4.2396   -3.8820 N   0  0  0  0  0  0  0  0  0  0  0  0
   -0.0116    4.8528   -4.3264 C   0  0  0  0  0  0  0  0  0  0  0  0
    2.0172    4.2114   -4.5285 H   0  0  0  0  0  0  0  0  0  0  0  0
    0.1750    5.5096   -5.1816 H   0  0  0  0  0  0  0  0  0  0  0  0
   -0.7302    4.0833   -4.6284 H   0  0  0  0  0  0  0  0  0  0  0  0
   -0.4539    5.4526   -3.5236 H   0  0  0  0  0  0  0  0  0  0  0  0
  1  2  2  0  0  0  0
  1  3  1  0  0  0  0
  1  7  1  0  0  0  0
  3  4  1  0  0  0  0
  3  5  1  0  0  0  0
  3  6  1  0  0  0  0
  7  8  1  0  0  0  0
  7 12  1  0  0  0  0
  8  9  1  0  0  0  0
  8 11  1  0  0  0  0
  8 13  1  0  0  0  0
  9 10  2  0  0  0  0
  9 17  1  0  0  0  0
 11 14  1  0  0  0  0
 11 15  1  0  0  0  0
 11 16  1  0  0  0  0
 17 18  1  0  0  0  0
 17 23  1  0  0  0  0
 18 19  1  0  0  0  0
 18 21  1  0  0  0  0
 18 24  1  0  0  0  0
 19 20  2  0  0  0  0
 19 28  1  0  0  0  0
 21 22  1  0  0  0  0
 21 25  1  0  0  0  0
 21 26  1  0  0  0  0
 22 27  1  0  0  0  0
 28 29  1  0  0  0  0
 28 33  1  0  0  0  0
 29 30  1  0  0  0  0
 29 32  1  0  0  0  0
 29 34  1  0  0  0  0
 30 31  2  0  0  0  0
 30 38  1  0  0  0  0
 32 35  1  0  0  0  0
 32 36  1  0  0  0  0
 32 37  1  0  0  0  0
 38 39  1  0  0  0  0
 38 40  1  0  0  0  0
 39 41  1  0  0  0  0
 39 42  1  0  0  0  0
 39 43  1  0  0  0  0
M  END
$$$$

  -OEChem-05262217303D

 43 42  0     1  0  0  0  0  0999 V2000
    3.3237   -1.9637    4.2702 C   0  0  0  0  0  0  0  0  0  0  0  0
    2.4062   -1.6969    5.0294 O   0  0  0  0  0  0  0  0  0  0  0  0
    4.3469   -3.0169    4.6511 C   0  0  0  0  0  0  0  0  0  0  0  0
    5.3483   -2.5798    4.6596 H   0  0  0  0  0  0  0  0  0  0  0  0
    4.1275   -3.4127    5.6467 H   0  0  0  0  0  0  0  0  0  0  0  0
    4.3212   -3.8394    3.9321 H   0  0  0  0  0  0  0  0  0  0  0  0
    3.4184   -1.3204    3.0539 N   0  0  0  0  0  0  0  0  0  0  0  0
    2.4003   -0.4043    2.5227 C   0  0  2  0  0  0  0  0  0  0  0  0
    2.2524   -0.5441    0.9947 C   0  0  0  0  0  0  0  0  0  0  0  0
    3.1451   -1.0430    0.3202 O   0  0  0  0  0  0  0  0  0  0  0  0
    2.7977    1.0261    2.8989 C   0  0  0  0  0  0  0  0  0  0  0  0
    4.1265   -1.6565    2.4025 H   0  0  0  0  0  0  0  0  0  0  0  0
    1.4245   -0.6341    2.9647 H   0  0  0  0  0  0  0  0  0  0  0  0
    3.7725    1.2798    2.4699 H   0  0  0  0  0  0  0  0  0  0  0  0
    2.0564    1.7423    2.5312 H   0  0  0  0  0  0  0  0  0  0  0  0
    2.8606    1.1259    3.9872 H   0  0  0  0  0  0  0  0  0  0  0  0
    1.1499   -0.0384    0.3367 N   0  0  0  0  0  0  0  0  0  0  0  0
    0.8198   -0.3231   -1.0732 C   0  0  2  0  0  0  0  0  0  0  0  0
    1.4377    0.6781   -2.0705 C   0  0  0  0  0  0  0  0  0  0  0  0
    0.9161    0.8531   -3.1659 O   0  0  0  0  0  0  0  0  0  0  0  0
   -0.7096   -0.3662   -1.1796 C   0  0  0  0  0  0  0  0  0  0  0  0
   -1.2638    0.9283   -0.9167 O   0  0  0  0  0  0  0  0  0  0  0  0
    0.4122    0.3755    0.9063 H   0  0  0  0  0  0  0  0  0  0  0  0
    1.2013   -1.3129   -1.3453 H   0  0  0  0  0  0  0  0  0  0  0  0
   -1.1061   -1.0871   -0.4571 H   0  0  0  0  0  0  0  0  0  0  0  0
   -1.0096   -0.7022   -2.1781 H   0  0  0  0  0  0  0  0  0  0  0  0
   -1.0812    1.5283   -1.6653 H   0  0  0  0  0  0  0  0  0  0  0  0
    2.4565    1.5168   -1.6514 N   0  0  0  0  0  0  0  0  0  0  0  0
    3.1312    2.5784   -2.4254 C   0  0  2  0  0  0  0  0  0  0  0  0
    2.2469    3.8071   -2.7386 C   0  0  0  0  0  0  0  0  0  0  0  0
    2.6289    4.9233   -2.4137 O   0  0  0  0  0  0  0  0  0  0  0  0
    3.7630    2.0150   -3.7060 C   0  0  0  0  0  0  0  0  0  0  0  0
    2.8583    1.2661   -0.7504 H   0  0  0  0  0  0  0  0  0  0  0  0
    3.9526    2.9500   -1.8038 H   0  0  0  0  0  0  0  0  0  0  0  0
    2.9989    1.7081   -4.4261 H   0  0  0  0  0  0  0  0  0  0  0  0
    4.3902    2.7769   -4.1797 H   0  0  0  0  0  0  0  0  0  0  0  0
    4.3884    1.1484   -3.4716 H   0  0  0  0  0  0  0  0  0  0  0  0
    1.0313    3.6704   -3.3790 N   0  0  0  0  0  0  0  0  0  0  0  0
    0.1635    4.7852   -3.7322 C   0  0  0  0  0  0  0  0  0  0  0  0
    0.7628    2.7172   -3.6357 H   0  0  0  0  0  0  0  0  0  0  0  0
   -0.7589    4.4157   -4.1901 H   0  0  0  0  0  0  0  0  0  0  0  0
   -0.1003    5.3630   -2.8405 H   0  0  0  0  0  0  0  0  0  0  0  0
    0.6637    5.4478   -4.4457 H   0  0  0  0  0  0  0  0  0  0  0  0
  1  2  2  0  0  0  0
  1  3  1  0  0  0  0
  1  7  1  0  0  0  0
  3  4  1  0  0  0  0
  3  5  1  0  0  0  0
  3  6  1  0  0  0  0
  7  8  1  0  0  0  0
  7 12  1  0  0  0  0
  8  9  1  0  0  0  0
  8 11  1  0  0  0  0
  8 13  1  0  0  0  0
  9 10  2  0  0  0  0
  9 17  1  0  0  0  0
 11 14  1  0  0  0  0
 11 15  1  0  0  0  0
 11 16  1  0  0  0  0
 17 18  1  0  0  0  0
 17 23  1  0  0  0  0
 18 19  1  0  0  0  0
 18 21  1  0  0  0  0
 18 24  1  0  0  0  0
 19 20  2  0  0  0  0
 19 28  1  0  0  0  0
 21 22  1  0  0  0  0
 21 25  1  0  0  0  0
 21 26  1  0  0  0  0
 22 27  1  0  0  0  0
 28 29  1  0  0  0  0
 28 33  1  0  0  0  0
 29 30  1  0  0  0  0
 29 32  1  0  0  0  0
 29 34  1  0  0  0  0
 30 31  2  0  0  0  0
 30 38  1  0  0  0  0
 32 35  1  0  0  0  0
 32 36  1  0  0  0  0
 32 37  1  0  0  0  0
 38 39  1  0  0  0  0
 38 40  1  0  0  0  0
 39 41  1  0  0  0  0
 39 42  1  0  0  0  0
 39 43  1  0  0  0  0
M  END
$$$$

  -OEChem-05262217303D

 43 42  0     1  0  0  0  0  0999 V2000
    3.4206   -1.8179    4.2474 C   0  0  0  0  0  0  0  0  0  0  0  0
    2.5496   -1.5144    5.0465 O   0  0  0  0  0  0  0  0  0  0  0  0
    4.5015   -2.8089    4.6360 C   0  0  0  0  0  0  0  0  0  0  0  0
    5.4877   -2.3540    4.5154 H   0  0  0  0  0  0  0  0  0  0  0  0
    4.3781   -3.1106    5.6800 H   0  0  0  0  0  0  0  0  0  0  0  0
    4.4370   -3.6972    4.0029 H   0  0  0  0  0  0  0  0  0  0  0  0
    3.4103   -1.2733    2.9805 N   0  0  0  0  0  0  0  0  0  0  0  0
    2.3418   -0.4096    2.4609 C   0  0  2  0  0  0  0  0  0  0  0  0
    2.1484   -0.5922    0.9423 C   0  0  0  0  0  0  0  0  0  0  0  0
    3.0132   -1.1252    0.2554 O   0  0  0  0  0  0  0  0  0  0  0  0
    2.6949    1.0450    2.7879 C   0  0  0  0  0  0  0  0  0  0  0  0
    4.0901   -1.6305    2.3105 H   0  0  0  0  0  0  0  0  0  0  0  0
    1.3918   -0.6670    2.9422 H   0  0  0  0  0  0  0  0  0  0  0  0
    3.6380    1.3283    2.3095 H   0  0  0  0  0  0  0  0  0  0  0  0
    1.9092    1.7215    2.4378 H   0  0  0  0  0  0  0  0  0  0  0  0
    2.8012    1.1740    3.8699 H   0  0  0  0  0  0  0  0  0  0  0  0
    1.0540   -0.0609    0.2915 N   0  0  0  0  0  0  0  0  0  0  0  0
    0.6828   -0.3692   -1.1025 C   0  0  2  0  0  0  0  0  0  0  0  0
    1.3337    0.5923   -2.1192 C   0  0  0  0  0  0  0  0  0  0  0  0
    0.7072    0.9891   -3.0964 O   0  0  0  0  0  0  0  0  0  0  0  0
   -0.8494   -0.3681   -1.1845 C   0  0  0  0  0  0  0  0  0  0  0  0
   -1.3585    0.9482   -0.9460 O   0  0  0  0  0  0  0  0  0  0  0  0
    0.3531    0.4135    0.8603 H   0  0  0  0  0  0  0  0  0  0  0  0
    1.0248   -1.3776   -1.3582 H   0  0  0  0  0  0  0  0  0  0  0  0
   -1.2582   -1.0604   -0.4412 H   0  0  0  0  0  0  0  0  0  0  0  0
   -1.1727   -0.7150   -2.1719 H   0  0  0  0  0  0  0  0  0  0  0  0
   -1.1278    1.5270   -1.6994 H   0  0  0  0  0  0  0  0  0  0  0  0
    2.5668    1.1440   -1.8154 N   0  0  0  0  0  0  0  0  0  0  0  0
    3.3554    2.0998   -2.6182 C   0  0  2  0  0  0  0  0  0  0  0  0
    2.7517    3.5201   -2.7086 C   0  0  0  0  0  0  0  0  0  0  0  0
    3.4321    4.4863   -2.3903 O   0  0  0  0  0  0  0  0  0  0  0  0
    3.6494    1.5362   -4.0151 C   0  0  0  0  0  0  0  0  0  0  0  0
    3.0331    0.7016   -1.0221 H   0  0  0  0  0  0  0  0  0  0  0  0
    4.3199    2.2159   -2.1126 H   0  0  0  0  0  0  0  0  0  0  0  0
    2.7388    1.4711   -4.6175 H   0  0  0  0  0  0  0  0  0  0  0  0
    4.3585    2.1850   -4.5386 H   0  0  0  0  0  0  0  0  0  0  0  0
    4.0882    0.5371   -3.9365 H   0  0  0  0  0  0  0  0  0  0  0  0
    1.4578    3.7225   -3.1450 N   0  0  0  0  0  0  0  0  0  0  0  0
    0.8254    5.0302   -3.2479 C   0  0  0  0  0  0  0  0  0  0  0  0
    0.9289    2.8822   -3.3893 H   0  0  0  0  0  0  0  0  0  0  0  0
   -0.1995    4.9263   -3.6169 H   0  0  0  0  0  0  0  0  0  0  0  0
    0.7935    5.5174   -2.2679 H   0  0  0  0  0  0  0  0  0  0  0  0
    1.3802    5.6698   -3.9422 H   0  0  0  0  0  0  0  0  0  0  0  0
  1  2  2  0  0  0  0
  1  3  1  0  0  0  0
  1  7  1  0  0  0  0
  3  4  1  0  0  0  0
  3  5  1  0  0  0  0
  3  6  1  0  0  0  0
  7  8  1  0  0  0  0
  7 12  1  0  0  0  0
  8  9  1  0  0  0  0
  8 11  1  0  0  0  0
  8 13  1  0  0  0  0
  9 10  2  0  0  0  0
  9 17  1  0  0  0  0
 11 14  1  0  0  0  0
 11 15  1  0  0  0  0
 11 16  1  0  0  0  0
 17 18  1  0  0  0  0
 17 23  1  0  0  0  0
 18 19  1  0  0  0  0
 18 21  1  0  0  0  0
 18 24  1  0  0  0  0
 19 20  2  0  0  0  0
 19 28  1  0  0  0  0
 21 22  1  0  0  0  0
 21 25  1  0  0  0  0
 21 26  1  0  0  0  0
 22 27  1  0  0  0  0
 28 29  1  0  0  0  0
 28 33  1  0  0  0  0
 29 30  1  0  0  0  0
 29 32  1  0  0  0  0
 29 34  1  0  0  0  0
 30 31  2  0  0  0  0
 30 38  1  0  0  0  0
 32 35  1  0  0  0  0
 32 36  1  0  0  0  0
 32 37  1  0  0  0  0
 38 39  1  0  0  0  0
 38 40  1  0  0  0  0
 39 41  1  0  0  0  0
 39 42  1  0  0  0  0
 39 43  1  0  0  0  0
M  END
$$$$

  -OEChem-05262217303D

 43 42  0     1  0  0  0  0  0999 V2000
    3.4482   -1.6432    4.2099 C   0  0  0  0  0  0  0  0  0  0  0  0
    2.6085   -1.2682    5.0121 O   0  0  0  0  0  0  0  0  0  0  0  0
    4.5127   -2.6398    4.6285 C   0  0  0  0  0  0  0  0  0  0  0  0
    5.5062   -2.2377    4.4160 H   0  0  0  0  0  0  0  0  0  0  0  0
    4.4378   -2.8424    5.7006 H   0  0  0  0  0  0  0  0  0  0  0  0
    4.3819   -3.5771    4.0824 H   0  0  0  0  0  0  0  0  0  0  0  0
    3.4195   -1.1728    2.9140 N   0  0  0  0  0  0  0  0  0  0  0  0
    2.3636   -0.3091    2.3690 C   0  0  2  0  0  0  0  0  0  0  0  0
    2.0943   -0.6094    0.8805 C   0  0  0  0  0  0  0  0  0  0  0  0
    2.9049   -1.2386    0.2067 O   0  0  0  0  0  0  0  0  0  0  0  0
    2.7916    1.1507    2.5556 C   0  0  0  0  0  0  0  0  0  0  0  0
    4.0676   -1.5930    2.2494 H   0  0  0  0  0  0  0  0  0  0  0  0
    1.4263   -0.4814    2.9096 H   0  0  0  0  0  0  0  0  0  0  0  0
    3.7268    1.3487    2.0217 H   0  0  0  0  0  0  0  0  0  0  0  0
    2.0231    1.8308    2.1754 H   0  0  0  0  0  0  0  0  0  0  0  0
    2.9452    1.3671    3.6178 H   0  0  0  0  0  0  0  0  0  0  0  0
    0.9993   -0.0770    0.2306 N   0  0  0  0  0  0  0  0  0  0  0  0
    0.5863   -0.4383   -1.1375 C   0  0  2  0  0  0  0  0  0  0  0  0
    1.2522    0.4696   -2.1930 C   0  0  0  0  0  0  0  0  0  0  0  0
    0.5855    1.0693   -3.0317 O   0  0  0  0  0  0  0  0  0  0  0  0
   -0.9471   -0.3987   -1.1907 C   0  0  0  0  0  0  0  0  0  0  0  0
   -1.4157    0.9404   -1.0048 O   0  0  0  0  0  0  0  0  0  0  0  0
    0.3444    0.4761    0.7826 H   0  0  0  0  0  0  0  0  0  0  0  0
    0.8935   -1.4657   -1.3587 H   0  0  0  0  0  0  0  0  0  0  0  0
   -1.3616   -1.0458   -0.4107 H   0  0  0  0  0  0  0  0  0  0  0  0
   -1.2962   -0.7784   -2.1571 H   0  0  0  0  0  0  0  0  0  0  0  0
   -1.1306    1.4838   -1.7684 H   0  0  0  0  0  0  0  0  0  0  0  0
    2.6064    0.7269   -2.0627 N   0  0  0  0  0  0  0  0  0  0  0  0
    3.4441    1.6307   -2.8752 C   0  0  2  0  0  0  0  0  0  0  0  0
    3.1251    3.1315   -2.6900 C   0  0  0  0  0  0  0  0  0  0  0  0
    4.0126    3.9012   -2.3471 O   0  0  0  0  0  0  0  0  0  0  0  0
    3.4093    1.2374   -4.3588 C   0  0  0  0  0  0  0  0  0  0  0  0
    3.0690    0.1863   -1.3273 H   0  0  0  0  0  0  0  0  0  0  0  0
    4.4764    1.4961   -2.5353 H   0  0  0  0  0  0  0  0  0  0  0  0
    2.4287    1.4360   -4.8010 H   0  0  0  0  0  0  0  0  0  0  0  0
    4.1562    1.8123   -4.9155 H   0  0  0  0  0  0  0  0  0  0  0  0
    3.6353    0.1732   -4.4749 H   0  0  0  0  0  0  0  0  0  0  0  0
    1.8499    3.6188   -2.8949 N   0  0  0  0  0  0  0  0  0  0  0  0
    1.4685    5.0122   -2.7126 C   0  0  0  0  0  0  0  0  0  0  0  0
    1.1393    2.9275   -3.1449 H   0  0  0  0  0  0  0  0  0  0  0  0
    0.4085    5.1466   -2.9486 H   0  0  0  0  0  0  0  0  0  0  0  0
    1.6354    5.3224   -1.6760 H   0  0  0  0  0  0  0  0  0  0  0  0
    2.0552    5.6585   -3.3736 H   0  0  0  0  0  0  0  0  0  0  0  0
  1  2  2  0  0  0  0
  1  3  1  0  0  0  0
  1  7  1  0  0  0  0
  3  4  1  0  0  0  0
  3  5  1  0  0  0  0
  3  6  1  0  0  0  0
  7  8  1  0  0  0  0
  7 12  1  0  0  0  0
  8  9  1  0  0  0  0
  8 11  1  0  0  0  0
  8 13  1  0  0  0  0
  9 10  2  0  0  0  0
  9 17  1  0  0  0  0
 11 14  1  0  0  0  0
 11 15  1  0  0  0  0
 11 16  1  0  0  0  0
 17 18  1  0  0  0  0
 17 23  1  0  0  0  0
 18 19  1  0  0  0  0
 18 21  1  0  0  0  0
 18 24  1  0  0  0  0
 19 20  2  0  0  0  0
 19 28  1  0  0  0  0
 21 22  1  0  0  0  0
 21 25  1  0  0  0  0
 21 26  1  0  0  0  0
 22 27  1  0  0  0  0
 28 29  1  0  0  0  0
 28 33  1  0  0  0  0
 29 30  1  0  0  0  0
 29 32  1  0  0  0  0
 29 34  1  0  0  0  0
 30 31  2  0  0  0  0
 30 38  1  0  0  0  0
 32 35  1  0  0  0  0
 32 36  1  0  0  0  0
 32 37  1  0  0  0  0
 38 39  1  0  0  0  0
 38 40  1  0  0  0  0
 39 41  1  0  0  0  0
 39 42  1  0  0  0  0
 39 43  1  0  0  0  0
M  END
$$$$

  -OEChem-05262217303D

 43 42  0     1  0  0  0  0  0999 V2000
    3.4633   -1.2688    4.0610 C   0  0  0  0  0  0  0  0  0  0  0  0
    2.6336   -0.7795    4.8103 O   0  0  0  0  0  0  0  0  0  0  0  0
    4.4519   -2.2930    4.5866 C   0  0  0  0  0  0  0  0  0  0  0  0
    5.4743   -1.9474    4.4149 H   0  0  0  0  0  0  0  0  0  0  0  0
    4.3068   -2.4410    5.6606 H   0  0  0  0  0  0  0  0  0  0  0  0
    4.3068   -3.2486    4.0769 H   0  0  0  0  0  0  0  0  0  0  0  0
    3.4996   -0.8999    2.7323 N   0  0  0  0  0  0  0  0  0  0  0  0
    2.5092   -0.0285    2.0840 C   0  0  2  0  0  0  0  0  0  0  0  0
    2.0433   -0.5948    0.7280 C   0  0  0  0  0  0  0  0  0  0  0  0
    2.7269   -1.4104    0.1146 O   0  0  0  0  0  0  0  0  0  0  0  0
    3.1479    1.3506    1.8909 C   0  0  0  0  0  0  0  0  0  0  0  0
    4.1235   -1.4265    2.1236 H   0  0  0  0  0  0  0  0  0  0  0  0
    1.6203    0.0743    2.7157 H   0  0  0  0  0  0  0  0  0  0  0  0
    4.0272    1.2810    1.2417 H   0  0  0  0  0  0  0  0  0  0  0  0
    2.4360    2.0454    1.4349 H   0  0  0  0  0  0  0  0  0  0  0  0
    3.4592    1.7617    2.8564 H   0  0  0  0  0  0  0  0  0  0  0  0
    0.9393   -0.0713    0.0852 N   0  0  0  0  0  0  0  0  0  0  0  0
    0.4304   -0.5469   -1.2115 C   0  0  2  0  0  0  0  0  0  0  0  0
    1.1021    0.2329   -2.3584 C   0  0  0  0  0  0  0  0  0  0  0  0
    0.4819    1.0457   -3.0402 O   0  0  0  0  0  0  0  0  0  0  0  0
   -1.0996   -0.4161   -1.1896 C   0  0  0  0  0  0  0  0  0  0  0  0
   -1.4842    0.9611   -1.1245 O   0  0  0  0  0  0  0  0  0  0  0  0
    0.3961    0.6409    0.5721 H   0  0  0  0  0  0  0  0  0  0  0  0
    0.6655   -1.6076   -1.3487 H   0  0  0  0  0  0  0  0  0  0  0  0
   -1.5079   -0.9555   -0.3284 H   0  0  0  0  0  0  0  0  0  0  0  0
   -1.5194   -0.8674   -2.0947 H   0  0  0  0  0  0  0  0  0  0  0  0
   -1.1264    1.4235   -1.9135 H   0  0  0  0  0  0  0  0  0  0  0  0
    2.4809    0.1403   -2.4452 N   0  0  0  0  0  0  0  0  0  0  0  0
    3.3847    1.0981   -3.1068 C   0  0  2  0  0  0  0  0  0  0  0  0
    3.3439    2.4973   -2.4528 C   0  0  0  0  0  0  0  0  0  0  0  0
    4.2799    2.8693   -1.7573 O   0  0  0  0  0  0  0  0  0  0  0  0
    3.1385    1.1638   -4.6214 C   0  0  0  0  0  0  0  0  0  0  0  0
    2.8964   -0.4604   -1.7268 H   0  0  0  0  0  0  0  0  0  0  0  0
    4.4050    0.7242   -2.9711 H   0  0  0  0  0  0  0  0  0  0  0  0
    2.1710    1.6167   -4.8540 H   0  0  0  0  0  0  0  0  0  0  0  0
    3.9178    1.7643   -5.1006 H   0  0  0  0  0  0  0  0  0  0  0  0
    3.1632    0.1582   -5.0518 H   0  0  0  0  0  0  0  0  0  0  0  0
    2.2155    3.2877   -2.5502 N   0  0  0  0  0  0  0  0  0  0  0  0
    2.0323    4.5251   -1.8041 C   0  0  0  0  0  0  0  0  0  0  0  0
    1.3999    2.8368   -2.9709 H   0  0  0  0  0  0  0  0  0  0  0  0
    1.0924    5.0046   -2.0942 H   0  0  0  0  0  0  0  0  0  0  0  0
    2.0029    4.3224   -0.7286 H   0  0  0  0  0  0  0  0  0  0  0  0
    2.8515    5.2222   -2.0098 H   0  0  0  0  0  0  0  0  0  0  0  0
  1  2  2  0  0  0  0
  1  3  1  0  0  0  0
  1  7  1  0  0  0  0
  3  4  1  0  0  0  0
  3  5  1  0  0  0  0
  3  6  1  0  0  0  0
  7  8  1  0  0  0  0
  7 12  1  0  0  0  0
  8  9  1  0  0  0  0
  8 11  1  0  0  0  0
  8 13  1  0  0  0  0
  9 10  2  0  0  0  0
  9 17  1  0  0  0  0
 11 14  1  0  0  0  0
 11 15  1  0  0  0  0
 11 16  1  0  0  0  0
 17 18  1  0  0  0  0
 17 23  1  0  0  0  0
 18 19  1  0  0  0  0
 18 21  1  0  0  0  0
 18 24  1  0  0  0  0
 19 20  2  0  0  0  0
 19 28  1  0  0  0  0
 21 22  1  0  0  0  0
 21 25  1  0  0  0  0
 21 26  1  0  0  0  0
 22 27  1  0  0  0  0
 28 29  1  0  0  0  0
 28 33  1  0  0  0  0
 29 30  1  0  0  0  0
 29 32  1  0  0  0  0
 29 34  1  0  0  0  0
 30 31  2  0  0  0  0
 30 38  1  0  0  0  0
 32 35  1  0  0  0  0
 32 36  1  0  0  0  0
 32 37  1  0  0  0  0
 38 39  1  0  0  0  0
 38 40  1  0  0  0  0
 39 41  1  0  0  0  0
 39 42  1  0  0  0  0
 39 43  1  0  0  0  0
M  END
$$$$

  -OEChem-05262217303D

 43 42  0     1  0  0  0  0  0999 V2000
    3.0900   -1.7671    3.7788 C   0  0  0  0  0  0  0  0  0  0  0  0
    1.8929   -1.8599    4.0007 O   0  0  0  0  0  0  0  0  0  0  0  0
    4.0457   -2.8301    4.2868 C   0  0  0  0  0  0  0  0  0  0  0  0
    4.7882   -2.3778    4.9488 H   0  0  0  0  0  0  0  0  0  0  0  0
    3.4973   -3.5956    4.8431 H   0  0  0  0  0  0  0  0  0  0  0  0
    4.5575   -3.3051    3.4460 H   0  0  0  0  0  0  0  0  0  0  0  0
    3.5725   -0.7092    3.0362 N   0  0  0  0  0  0  0  0  0  0  0  0
    2.6855    0.2134    2.3149 C   0  0  2  0  0  0  0  0  0  0  0  0
    2.2799   -0.3304    0.9294 C   0  0  0  0  0  0  0  0  0  0  0  0
    3.0662   -0.9940    0.2570 O   0  0  0  0  0  0  0  0  0  0  0  0
    3.4178    1.5492    2.1662 C   0  0  0  0  0  0  0  0  0  0  0  0
    4.5265   -0.8030    2.6981 H   0  0  0  0  0  0  0  0  0  0  0  0
    1.7727    0.3846    2.8962 H   0  0  0  0  0  0  0  0  0  0  0  0
    4.3342    1.4237    1.5800 H   0  0  0  0  0  0  0  0  0  0  0  0
    2.7800    2.2799    1.6591 H   0  0  0  0  0  0  0  0  0  0  0  0
    3.6839    1.9482    3.1500 H   0  0  0  0  0  0  0  0  0  0  0  0
    1.0939    0.0527    0.3343 N   0  0  0  0  0  0  0  0  0  0  0  0
    0.6188   -0.5078   -0.9386 C   0  0  2  0  0  0  0  0  0  0  0  0
    1.1443    0.3237   -2.1236 C   0  0  0  0  0  0  0  0  0  0  0  0
    0.4353    1.1292   -2.7226 O   0  0  0  0  0  0  0  0  0  0  0  0
   -0.9139   -0.5826   -0.8756 C   0  0  0  0  0  0  0  0  0  0  0  0
   -1.4813    0.7301   -0.8176 O   0  0  0  0  0  0  0  0  0  0  0  0
    0.4317    0.5921    0.8903 H   0  0  0  0  0  0  0  0  0  0  0  0
    0.9838   -1.5328   -1.0626 H   0  0  0  0  0  0  0  0  0  0  0  0
   -1.2246   -1.1602    0.0014 H   0  0  0  0  0  0  0  0  0  0  0  0
   -1.2902   -1.0992   -1.7647 H   0  0  0  0  0  0  0  0  0  0  0  0
   -1.1733    1.2399   -1.5992 H   0  0  0  0  0  0  0  0  0  0  0  0
    2.4781    0.1644   -2.4558 N   0  0  0  0  0  0  0  0  0  0  0  0
    3.2546    0.9432   -3.4398 C   0  0  2  0  0  0  0  0  0  0  0  0
    3.4394    2.4302   -3.0602 C   0  0  0  0  0  0  0  0  0  0  0  0
    4.5670    2.8855   -2.9218 O   0  0  0  0  0  0  0  0  0  0  0  0
    2.6732    0.7987   -4.8533 C   0  0  0  0  0  0  0  0  0  0  0  0
    3.0101   -0.3865   -1.7749 H   0  0  0  0  0  0  0  0  0  0  0  0
    4.2592    0.5080   -3.4661 H   0  0  0  0  0  0  0  0  0  0  0  0
    1.7063    1.3020   -4.9424 H   0  0  0  0  0  0  0  0  0  0  0  0
    3.3553    1.2430   -5.5848 H   0  0  0  0  0  0  0  0  0  0  0  0
    2.5399   -0.2584   -5.1016 H   0  0  0  0  0  0  0  0  0  0  0  0
    2.3493    3.2509   -2.8483 N   0  0  0  0  0  0  0  0  0  0  0  0
    2.4438    4.6454   -2.4400 C   0  0  0  0  0  0  0  0  0  0  0  0
    1.4315    2.8036   -2.9080 H   0  0  0  0  0  0  0  0  0  0  0  0
    1.4482    5.0983   -2.4126 H   0  0  0  0  0  0  0  0  0  0  0  0
    2.8895    4.7226   -1.4431 H   0  0  0  0  0  0  0  0  0  0  0  0
    3.0594    5.2110   -3.1471 H   0  0  0  0  0  0  0  0  0  0  0  0
  1  2  2  0  0  0  0
  1  3  1  0  0  0  0
  1  7  1  0  0  0  0
  3  4  1  0  0  0  0
  3  5  1  0  0  0  0
  3  6  1  0  0  0  0
  7  8  1  0  0  0  0
  7 12  1  0  0  0  0
  8  9  1  0  0  0  0
  8 11  1  0  0  0  0
  8 13  1  0  0  0  0
  9 10  2  0  0  0  0
  9 17  1  0  0  0  0
 11 14  1  0  0  0  0
 11 15  1  0  0  0  0
 11 16  1  0  0  0  0
 17 18  1  0  0  0  0
 17 23  1  0  0  0  0
 18 19  1  0  0  0  0
 18 21  1  0  0  0  0
 18 24  1  0  0  0  0
 19 20  2  0  0  0  0
 19 28  1  0  0  0  0
 21 22  1  0  0  0  0
 21 25  1  0  0  0  0
 21 26  1  0  0  0  0
 22 27  1  0  0  0  0
 28 29  1  0  0  0  0
 28 33  1  0  0  0  0
 29 30  1  0  0  0  0
 29 32  1  0  0  0  0
 29 34  1  0  0  0  0
 30 31  2  0  0  0  0
 30 38  1  0  0  0  0
 32 35  1  0  0  0  0
 32 36  1  0  0  0  0
 32 37  1  0  0  0  0
 38 39  1  0  0  0  0
 38 40  1  0  0  0  0
 39 41  1  0  0  0  0
 39 42  1  0  0  0  0
 39 43  1  0  0  0  0
M  END
$$$$

  -OEChem-05262217303D

 43 42  0     1  0  0  0  0  0999 V2000
    3.1080   -1.8639    3.7532 C   0  0  0  0  0  0  0  0  0  0  0  0
    1.9189   -2.0359    3.9708 O   0  0  0  0  0  0  0  0  0  0  0  0
    4.1200   -2.9123    4.1748 C   0  0  0  0  0  0  0  0  0  0  0  0
    4.8418   -2.4771    4.8703 H   0  0  0  0  0  0  0  0  0  0  0  0
    3.6145   -3.7471    4.6683 H   0  0  0  0  0  0  0  0  0  0  0  0
    4.6511   -3.2912    3.2982 H   0  0  0  0  0  0  0  0  0  0  0  0
    3.5310   -0.7306    3.0896 N   0  0  0  0  0  0  0  0  0  0  0  0
    2.5937    0.1845    2.4240 C   0  0  2  0  0  0  0  0  0  0  0  0
    2.2441   -0.2767    0.9936 C   0  0  0  0  0  0  0  0  0  0  0  0
    3.0511   -0.9098    0.3161 O   0  0  0  0  0  0  0  0  0  0  0  0
    3.2355    1.5732    2.3956 C   0  0  0  0  0  0  0  0  0  0  0  0
    4.4855   -0.7549    2.7407 H   0  0  0  0  0  0  0  0  0  0  0  0
    1.6625    0.2479    2.9978 H   0  0  0  0  0  0  0  0  0  0  0  0
    4.1646    1.5563    1.8165 H   0  0  0  0  0  0  0  0  0  0  0  0
    2.5555    2.2990    1.9386 H   0  0  0  0  0  0  0  0  0  0  0  0
    3.4634    1.9065    3.4130 H   0  0  0  0  0  0  0  0  0  0  0  0
    1.0617    0.1068    0.3912 N   0  0  0  0  0  0  0  0  0  0  0  0
    0.6220   -0.4400   -0.8988 C   0  0  2  0  0  0  0  0  0  0  0  0
    1.1486    0.4061   -2.0733 C   0  0  0  0  0  0  0  0  0  0  0  0
    0.4924    1.3268   -2.5546 O   0  0  0  0  0  0  0  0  0  0  0  0
   -0.9108   -0.5382   -0.8653 C   0  0  0  0  0  0  0  0  0  0  0  0
   -1.5003    0.7642   -0.7966 O   0  0  0  0  0  0  0  0  0  0  0  0
    0.3769    0.6108    0.9527 H   0  0  0  0  0  0  0  0  0  0  0  0
    0.9997   -1.4600   -1.0253 H   0  0  0  0  0  0  0  0  0  0  0  0
   -1.2308   -1.1354   -0.0050 H   0  0  0  0  0  0  0  0  0  0  0  0
   -1.2616   -1.0450   -1.7707 H   0  0  0  0  0  0  0  0  0  0  0  0
   -1.1430    1.3125   -1.5308 H   0  0  0  0  0  0  0  0  0  0  0  0
    2.3785    0.0599   -2.6048 N   0  0  0  0  0  0  0  0  0  0  0  0
    3.0809    0.6944   -3.7389 C   0  0  2  0  0  0  0  0  0  0  0  0
    3.5452    2.1477   -3.4881 C   0  0  0  0  0  0  0  0  0  0  0  0
    4.7017    2.4627   -3.7356 O   0  0  0  0  0  0  0  0  0  0  0  0
    2.2490    0.6013   -5.0255 C   0  0  0  0  0  0  0  0  0  0  0  0
    2.9259   -0.5685   -2.0124 H   0  0  0  0  0  0  0  0  0  0  0  0
    3.9927    0.1121   -3.9091 H   0  0  0  0  0  0  0  0  0  0  0  0
    1.3639    1.2421   -4.9753 H   0  0  0  0  0  0  0  0  0  0  0  0
    2.8504    0.9192   -5.8832 H   0  0  0  0  0  0  0  0  0  0  0  0
    1.9241   -0.4298   -5.1940 H   0  0  0  0  0  0  0  0  0  0  0  0
    2.6760    3.1045   -3.0031 N   0  0  0  0  0  0  0  0  0  0  0  0
    3.0349    4.4990   -2.7872 C   0  0  0  0  0  0  0  0  0  0  0  0
    1.7145    2.7983   -2.8371 H   0  0  0  0  0  0  0  0  0  0  0  0
    2.1757    5.0535   -2.3984 H   0  0  0  0  0  0  0  0  0  0  0  0
    3.8529    4.5753   -2.0636 H   0  0  0  0  0  0  0  0  0  0  0  0
    3.3506    4.9631   -3.7273 H   0  0  0  0  0  0  0  0  0  0  0  0
  1  2  2  0  0  0  0
  1  3  1  0  0  0  0
  1  7  1  0  0  0  0
  3  4  1  0  0  0  0
  3  5  1  0  0  0  0
  3  6  1  0  0  0  0
  7  8  1  0  0  0  0
  7 12  1  0  0  0  0
  8  9  1  0  0  0  0
  8 11  1  0  0  0  0
  8 13  1  0  0  0  0
  9 10  2  0  0  0  0
  9 17  1  0  0  0  0
 11 14  1  0  0  0  0
 11 15  1  0  0  0  0
 11 16  1  0  0  0  0
 17 18  1  0  0  0  0
 17 23  1  0  0  0  0
 18 19  1  0  0  0  0
 18 21  1  0  0  0  0
 18 24  1  0  0  0  0
 19 20  2  0  0  0  0
 19 28  1  0  0  0  0
 21 22  1  0  0  0  0
 21 25  1  0  0  0  0
 21 26  1  0  0  0  0
 22 27  1  0  0  0  0
 28 29  1  0  0  0  0
 28 33  1  0  0  0  0
 29 30  1  0  0  0  0
 29 32  1  0  0  0  0
 29 34  1  0  0  0  0
 30 31  2  0  0  0  0
 30 38  1  0  0  0  0
 32 35  1  0  0  0  0
 32 36  1  0  0  0  0
 32 37  1  0  0  0  0
 38 39  1  0  0  0  0
 38 40  1  0  0  0  0
 39 41  1  0  0  0  0
 39 42  1  0  0  0  0
 39 43  1  0  0  0  0
M  END
$$$$

  -OEChem-05262217303D

 43 42  0     1  0  0  0  0  0999 V2000
    3.6736   -1.2515    4.0407 C   0  0  0  0  0  0  0  0  0  0  0  0
    2.9791   -0.6786    4.8649 O   0  0  0  0  0  0  0  0  0  0  0  0
    4.7389   -2.2327    4.4915 C   0  0  0  0  0  0  0  0  0  0  0  0
    5.7208   -1.9040    4.1425 H   0  0  0  0  0  0  0  0  0  0  0  0
    4.7560   -2.2956    5.5832 H   0  0  0  0  0  0  0  0  0  0  0  0
    4.5278   -3.2247    4.0852 H   0  0  0  0  0  0  0  0  0  0  0  0
    3.4824   -1.0146    2.6958 N   0  0  0  0  0  0  0  0  0  0  0  0
    2.4134   -0.1715    2.1449 C   0  0  2  0  0  0  0  0  0  0  0  0
    1.9582   -0.6621    0.7555 C   0  0  0  0  0  0  0  0  0  0  0  0
    2.6396   -1.4592    0.1161 O   0  0  0  0  0  0  0  0  0  0  0  0
    2.9321    1.2679    2.0608 C   0  0  0  0  0  0  0  0  0  0  0  0
    4.0123   -1.5837    2.0369 H   0  0  0  0  0  0  0  0  0  0  0  0
    1.5394   -0.2033    2.8049 H   0  0  0  0  0  0  0  0  0  0  0  0
    3.7970    1.3256    1.3918 H   0  0  0  0  0  0  0  0  0  0  0  0
    2.1534    1.9371    1.6827 H   0  0  0  0  0  0  0  0  0  0  0  0
    3.2350    1.6196    3.0523 H   0  0  0  0  0  0  0  0  0  0  0  0
    0.8119   -0.1654    0.1665 N   0  0  0  0  0  0  0  0  0  0  0  0
    0.3538   -0.5605   -1.1720 C   0  0  2  0  0  0  0  0  0  0  0  0
    0.9381    0.3545   -2.2650 C   0  0  0  0  0  0  0  0  0  0  0  0
    0.4991    1.4894   -2.4338 O   0  0  0  0  0  0  0  0  0  0  0  0
   -1.1818   -0.5523   -1.1635 C   0  0  0  0  0  0  0  0  0  0  0  0
   -1.6833    0.7767   -0.9817 O   0  0  0  0  0  0  0  0  0  0  0  0
    0.2618    0.5229    0.6784 H   0  0  0  0  0  0  0  0  0  0  0  0
    0.6634   -1.5879   -1.3882 H   0  0  0  0  0  0  0  0  0  0  0  0
   -1.5576   -1.2030   -0.3667 H   0  0  0  0  0  0  0  0  0  0  0  0
   -1.5501   -0.9468   -2.1162 H   0  0  0  0  0  0  0  0  0  0  0  0
   -1.2261    1.3862   -1.6042 H   0  0  0  0  0  0  0  0  0  0  0  0
    1.9632   -0.1293   -3.0602 N   0  0  0  0  0  0  0  0  0  0  0  0
    2.7019    0.6087   -4.1062 C   0  0  2  0  0  0  0  0  0  0  0  0
    3.5645    1.7789   -3.5779 C   0  0  0  0  0  0  0  0  0  0  0  0
    4.7530    1.8276   -3.8646 O   0  0  0  0  0  0  0  0  0  0  0  0
    1.7671    1.0749   -5.2313 C   0  0  0  0  0  0  0  0  0  0  0  0
    2.3884   -0.9930   -2.7249 H   0  0  0  0  0  0  0  0  0  0  0  0
    3.4028   -0.1022   -4.5563 H   0  0  0  0  0  0  0  0  0  0  0  0
    1.0998    1.8719   -4.8918 H   0  0  0  0  0  0  0  0  0  0  0  0
    2.3556    1.4599   -6.0701 H   0  0  0  0  0  0  0  0  0  0  0  0
    1.1589    0.2395   -5.5906 H   0  0  0  0  0  0  0  0  0  0  0  0
    3.0255    2.7622   -2.7717 N   0  0  0  0  0  0  0  0  0  0  0  0
    3.7893    3.8670   -2.2087 C   0  0  0  0  0  0  0  0  0  0  0  0
    2.0309    2.6726   -2.5519 H   0  0  0  0  0  0  0  0  0  0  0  0
    3.1331    4.5227   -1.6283 H   0  0  0  0  0  0  0  0  0  0  0  0
    4.5755    3.4897   -1.5465 H   0  0  0  0  0  0  0  0  0  0  0  0
    4.2516    4.4584   -3.0060 H   0  0  0  0  0  0  0  0  0  0  0  0
  1  2  2  0  0  0  0
  1  3  1  0  0  0  0
  1  7  1  0  0  0  0
  3  4  1  0  0  0  0
  3  5  1  0  0  0  0
  3  6  1  0  0  0  0
  7  8  1  0  0  0  0
  7 12  1  0  0  0  0
  8  9  1  0  0  0  0
  8 11  1  0  0  0  0
  8 13  1  0  0  0  0
  9 10  2  0  0  0  0
  9 17  1  0  0  0  0
 11 14  1  0  0  0  0
 11 15  1  0  0  0  0
 11 16  1  0  0  0  0
 17 18  1  0  0  0  0
 17 23  1  0  0  0  0
 18 19  1  0  0  0  0
 18 21  1  0  0  0  0
 18 24  1  0  0  0  0
 19 20  2  0  0  0  0
 19 28  1  0  0  0  0
 21 22  1  0  0  0  0
 21 25  1  0  0  0  0
 21 26  1  0  0  0  0
 22 27  1  0  0  0  0
 28 29  1  0  0  0  0
 28 33  1  0  0  0  0
 29 30  1  0  0  0  0
 29 32  1  0  0  0  0
 29 34  1  0  0  0  0
 30 31  2  0  0  0  0
 30 38  1  0  0  0  0
 32 35  1  0  0  0  0
 32 36  1  0  0  0  0
 32 37  1  0  0  0  0
 38 39  1  0  0  0  0
 38 40  1  0  0  0  0
 39 41  1  0  0  0  0
 39 42  1  0  0  0  0
 39 43  1  0  0  0  0
M  END
$$$$

  -OEChem-05262217303D

 43 42  0     1  0  0  0  0  0999 V2000
    3.6954   -1.3510    4.0683 C   0  0  0  0  0  0  0  0  0  0  0  0
    2.9837   -0.8112    4.9000 O   0  0  0  0  0  0  0  0  0  0  0  0
    4.7608   -2.3397    4.5027 C   0  0  0  0  0  0  0  0  0  0  0  0
    5.7429   -2.0043    4.1606 H   0  0  0  0  0  0  0  0  0  0  0  0
    4.7769   -2.4207    5.5932 H   0  0  0  0  0  0  0  0  0  0  0  0
    4.5517   -3.3250    4.0791 H   0  0  0  0  0  0  0  0  0  0  0  0
    3.5260   -1.0681    2.7295 N   0  0  0  0  0  0  0  0  0  0  0  0
    2.4520   -0.2242    2.1895 C   0  0  2  0  0  0  0  0  0  0  0  0
    2.0087   -0.6926    0.7882 C   0  0  0  0  0  0  0  0  0  0  0  0
    2.6965   -1.4780    0.1422 O   0  0  0  0  0  0  0  0  0  0  0  0
    2.9560    1.2218    2.1388 C   0  0  0  0  0  0  0  0  0  0  0  0
    4.0636   -1.6184    2.0610 H   0  0  0  0  0  0  0  0  0  0  0  0
    1.5741   -0.2775    2.8428 H   0  0  0  0  0  0  0  0  0  0  0  0
    3.8281    1.3008    1.4816 H   0  0  0  0  0  0  0  0  0  0  0  0
    2.1748    1.8901    1.7638 H   0  0  0  0  0  0  0  0  0  0  0  0
    3.2431    1.5575    3.1406 H   0  0  0  0  0  0  0  0  0  0  0  0
    0.8494   -0.2107    0.2129 N   0  0  0  0  0  0  0  0  0  0  0  0
    0.3976   -0.5732   -1.1374 C   0  0  2  0  0  0  0  0  0  0  0  0
    0.9392    0.3777   -2.2214 C   0  0  0  0  0  0  0  0  0  0  0  0
    0.6212    1.5637   -2.2092 O   0  0  0  0  0  0  0  0  0  0  0  0
   -1.1365   -0.5846   -1.1285 C   0  0  0  0  0  0  0  0  0  0  0  0
   -1.6502    0.7347   -0.9082 O   0  0  0  0  0  0  0  0  0  0  0  0
    0.3047    0.4786    0.7293 H   0  0  0  0  0  0  0  0  0  0  0  0
    0.7275   -1.5887   -1.3777 H   0  0  0  0  0  0  0  0  0  0  0  0
   -1.5055   -1.2624   -0.3513 H   0  0  0  0  0  0  0  0  0  0  0  0
   -1.5000   -0.9551   -2.0925 H   0  0  0  0  0  0  0  0  0  0  0  0
   -1.1666    1.3799   -1.4710 H   0  0  0  0  0  0  0  0  0  0  0  0
    1.7296   -0.1232   -3.2424 N   0  0  0  0  0  0  0  0  0  0  0  0
    2.2847    0.6230   -4.3926 C   0  0  2  0  0  0  0  0  0  0  0  0
    3.3562    1.6803   -4.0367 C   0  0  0  0  0  0  0  0  0  0  0  0
    4.3775    1.7459   -4.7076 O   0  0  0  0  0  0  0  0  0  0  0  0
    1.1693    1.2473   -5.2428 C   0  0  0  0  0  0  0  0  0  0  0  0
    2.0680   -1.0732   -3.1043 H   0  0  0  0  0  0  0  0  0  0  0  0
    2.7901   -0.1119   -5.0279 H   0  0  0  0  0  0  0  0  0  0  0  0
    0.6827    2.0734   -4.7166 H   0  0  0  0  0  0  0  0  0  0  0  0
    1.5863    1.6392   -6.1759 H   0  0  0  0  0  0  0  0  0  0  0  0
    0.4135    0.4962   -5.4909 H   0  0  0  0  0  0  0  0  0  0  0  0
    3.1772    2.5651   -2.9917 N   0  0  0  0  0  0  0  0  0  0  0  0
    4.1098    3.6343   -2.6625 C   0  0  0  0  0  0  0  0  0  0  0  0
    2.2689    2.5291   -2.5236 H   0  0  0  0  0  0  0  0  0  0  0  0
    4.1266    4.3848   -3.4593 H   0  0  0  0  0  0  0  0  0  0  0  0
    3.8104    4.1219   -1.7298 H   0  0  0  0  0  0  0  0  0  0  0  0
    5.1214    3.2357   -2.5320 H   0  0  0  0  0  0  0  0  0  0  0  0
  1  2  2  0  0  0  0
  1  3  1  0  0  0  0
  1  7  1  0  0  0  0
  3  4  1  0  0  0  0
  3  5  1  0  0  0  0
  3  6  1  0  0  0  0
  7  8  1  0  0  0  0
  7 12  1  0  0  0  0
  8  9  1  0  0  0  0
  8 11  1  0  0  0  0
  8 13  1  0  0  0  0
  9 10  2  0  0  0  0
  9 17  1  0  0  0  0
 11 14  1  0  0  0  0
 11 15  1  0  0  0  0
 11 16  1  0  0  0  0
 17 18  1  0  0  0  0
 17 23  1  0  0  0  0
 18 19  1  0  0  0  0
 18 21  1  0  0  0  0
 18 24  1  0  0  0  0
 19 20  2  0  0  0  0
 19 28  1  0  0  0  0
 21 22  1  0  0  0  0
 21 25  1  0  0  0  0
 21 26  1  0  0  0  0
 22 27  1  0  0  0  0
 28 29  1  0  0  0  0
 28 33  1  0  0  0  0
 29 30  1  0  0  0  0
 29 32  1  0  0  0  0
 29 34  1  0  0  0  0
 30 31  2  0  0  0  0
 30 38  1  0  0  0  0
 32 35  1  0  0  0  0
 32 36  1  0  0  0  0
 32 37  1  0  0  0  0
 38 39  1  0  0  0  0
 38 40  1  0  0  0  0
 39 41  1  0  0  0  0
 39 42  1  0  0  0  0
 39 43  1  0  0  0  0
M  END
$$$$

  -OEChem-05262217303D

 43 42  0     1  0  0  0  0  0999 V2000
    3.7384   -1.3636    4.0523 C   0  0  0  0  0  0  0  0  0  0  0  0
    3.0408   -0.8151    4.8904 O   0  0  0  0  0  0  0  0  0  0  0  0
    4.8028   -2.3572    4.4784 C   0  0  0  0  0  0  0  0  0  0  0  0
    5.7886   -2.0050    4.1652 H   0  0  0  0  0  0  0  0  0  0  0  0
    4.7983   -2.4706    5.5661 H   0  0  0  0  0  0  0  0  0  0  0  0
    4.6093   -3.3312    4.0225 H   0  0  0  0  0  0  0  0  0  0  0  0
    3.5525   -1.0875    2.7143 N   0  0  0  0  0  0  0  0  0  0  0  0
    2.4667   -0.2521    2.1843 C   0  0  2  0  0  0  0  0  0  0  0  0
    2.0030   -0.7311    0.7935 C   0  0  0  0  0  0  0  0  0  0  0  0
    2.6723   -1.5351    0.1519 O   0  0  0  0  0  0  0  0  0  0  0  0
    2.9617    1.1959    2.1145 C   0  0  0  0  0  0  0  0  0  0  0  0
    4.0734   -1.6500    2.0427 H   0  0  0  0  0  0  0  0  0  0  0  0
    1.5992   -0.3049    2.8514 H   0  0  0  0  0  0  0  0  0  0  0  0
    3.8287    1.2730    1.4504 H   0  0  0  0  0  0  0  0  0  0  0  0
    2.1741    1.8556    1.7375 H   0  0  0  0  0  0  0  0  0  0  0  0
    3.2535    1.5440    3.1106 H   0  0  0  0  0  0  0  0  0  0  0  0
    0.8409   -0.2426    0.2299 N   0  0  0  0  0  0  0  0  0  0  0  0
    0.3846   -0.5811   -1.1255 C   0  0  2  0  0  0  0  0  0  0  0  0
    0.9105    0.3815   -2.2053 C   0  0  0  0  0  0  0  0  0  0  0  0
    0.7540    1.5909   -2.0632 O   0  0  0  0  0  0  0  0  0  0  0  0
   -1.1484   -0.5624   -1.1079 C   0  0  0  0  0  0  0  0  0  0  0  0
   -1.6320    0.7663   -0.8686 O   0  0  0  0  0  0  0  0  0  0  0  0
    0.3284    0.4771    0.7371 H   0  0  0  0  0  0  0  0  0  0  0  0
    0.7044   -1.5956   -1.3825 H   0  0  0  0  0  0  0  0  0  0  0  0
   -1.5277   -1.2414   -0.3368 H   0  0  0  0  0  0  0  0  0  0  0  0
   -1.5248   -0.9130   -2.0747 H   0  0  0  0  0  0  0  0  0  0  0  0
   -1.1169    1.4169   -1.3943 H   0  0  0  0  0  0  0  0  0  0  0  0
    1.4189   -0.1223   -3.3915 N   0  0  0  0  0  0  0  0  0  0  0  0
    1.8659    0.6480   -4.5722 C   0  0  2  0  0  0  0  0  0  0  0  0
    3.1122    1.5361   -4.3460 C   0  0  0  0  0  0  0  0  0  0  0  0
    4.0371    1.4840   -5.1453 O   0  0  0  0  0  0  0  0  0  0  0  0
    0.7143    1.4698   -5.1678 C   0  0  0  0  0  0  0  0  0  0  0  0
    1.6073   -1.1220   -3.3985 H   0  0  0  0  0  0  0  0  0  0  0  0
    2.1563   -0.0845   -5.3328 H   0  0  0  0  0  0  0  0  0  0  0  0
    0.4392    2.3022   -4.5139 H   0  0  0  0  0  0  0  0  0  0  0  0
    1.0144    1.8838   -6.1357 H   0  0  0  0  0  0  0  0  0  0  0  0
   -0.1662    0.8385   -5.3201 H   0  0  0  0  0  0  0  0  0  0  0  0
    3.1955    2.4010   -3.2730 N   0  0  0  0  0  0  0  0  0  0  0  0
    4.3166    3.2986   -3.0324 C   0  0  0  0  0  0  0  0  0  0  0  0
    2.3807    2.4360   -2.6560 H   0  0  0  0  0  0  0  0  0  0  0  0
    4.4104    4.0214   -3.8494 H   0  0  0  0  0  0  0  0  0  0  0  0
    4.1646    3.8486   -2.0988 H   0  0  0  0  0  0  0  0  0  0  0  0
    5.2506    2.7327   -2.9518 H   0  0  0  0  0  0  0  0  0  0  0  0
  1  2  2  0  0  0  0
  1  3  1  0  0  0  0
  1  7  1  0  0  0  0
  3  4  1  0  0  0  0
  3  5  1  0  0  0  0
  3  6  1  0  0  0  0
  7  8  1  0  0  0  0
  7 12  1  0  0  0  0
  8  9  1  0  0  0  0
  8 11  1  0  0  0  0
  8 13  1  0  0  0  0
  9 10  2  0  0  0  0
  9 17  1  0  0  0  0
 11 14  1  0  0  0  0
 11 15  1  0  0  0  0
 11 16  1  0  0  0  0
 17 18  1  0  0  0  0
 17 23  1  0  0  0  0
 18 19  1  0  0  0  0
 18 21  1  0  0  0  0
 18 24  1  0  0  0  0
 19 20  2  0  0  0  0
 19 28  1  0  0  0  0
 21 22  1  0  0  0  0
 21 25  1  0  0  0  0
 21 26  1  0  0  0  0
 22 27  1  0  0  0  0
 28 29  1  0  0  0  0
 28 33  1  0  0  0  0
 29 30  1  0  0  0  0
 29 32  1  0  0  0  0
 29 34  1  0  0  0  0
 30 31  2  0  0  0  0
 30 38  1  0  0  0  0
 32 35  1  0  0  0  0
 32 36  1  0  0  0  0
 32 37  1  0  0  0  0
 38 39  1  0  0  0  0
 38 40  1  0  0  0  0
 39 41  1  0  0  0  0
 39 42  1  0  0  0  0
 39 43  1  0  0  0  0
M  END
$$$$

  -OEChem-05262217303D

 43 42  0     1  0  0  0  0  0999 V2000
    3.7310   -1.3211    4.0649 C   0  0  0  0  0  0  0  0  0  0  0  0
    3.0357   -0.7581    4.8954 O   0  0  0  0  0  0  0  0  0  0  0  0
    4.7836   -2.3215    4.5041 C   0  0  0  0  0  0  0  0  0  0  0  0
    5.7732   -1.9857    4.1852 H   0  0  0  0  0  0  0  0  0  0  0  0
    4.7789   -2.4199    5.5932 H   0  0  0  0  0  0  0  0  0  0  0  0
    4.5776   -3.2991    4.0616 H   0  0  0  0  0  0  0  0  0  0  0  0
    3.5521   -1.0577    2.7233 N   0  0  0  0  0  0  0  0  0  0  0  0
    2.4684   -0.2279    2.1801 C   0  0  2  0  0  0  0  0  0  0  0  0
    1.9954   -0.7369    0.8029 C   0  0  0  0  0  0  0  0  0  0  0  0
    2.6596   -1.5573    0.1768 O   0  0  0  0  0  0  0  0  0  0  0  0
    2.9704    1.2157    2.0760 C   0  0  0  0  0  0  0  0  0  0  0  0
    4.0664   -1.6364    2.0601 H   0  0  0  0  0  0  0  0  0  0  0  0
    1.6036   -0.2612    2.8519 H   0  0  0  0  0  0  0  0  0  0  0  0
    3.8293    1.2749    1.3998 H   0  0  0  0  0  0  0  0  0  0  0  0
    2.1816    1.8720    1.6959 H   0  0  0  0  0  0  0  0  0  0  0  0
    3.2765    1.5818    3.0611 H   0  0  0  0  0  0  0  0  0  0  0  0
    0.8279   -0.2615    0.2395 N   0  0  0  0  0  0  0  0  0  0  0  0
    0.3794   -0.5991   -1.1196 C   0  0  2  0  0  0  0  0  0  0  0  0
    0.8884    0.3705   -2.2005 C   0  0  0  0  0  0  0  0  0  0  0  0
    0.9197    1.5732   -1.9594 O   0  0  0  0  0  0  0  0  0  0  0  0
   -1.1525   -0.5729   -1.1088 C   0  0  0  0  0  0  0  0  0  0  0  0
   -1.6277    0.7607   -0.8725 O   0  0  0  0  0  0  0  0  0  0  0  0
    0.3360    0.4854    0.7269 H   0  0  0  0  0  0  0  0  0  0  0  0
    0.7063   -1.6111   -1.3785 H   0  0  0  0  0  0  0  0  0  0  0  0
   -1.5386   -1.2480   -0.3377 H   0  0  0  0  0  0  0  0  0  0  0  0
   -1.5283   -0.9238   -2.0757 H   0  0  0  0  0  0  0  0  0  0  0  0
   -1.1057    1.4139   -1.3846 H   0  0  0  0  0  0  0  0  0  0  0  0
    1.1089   -0.0846   -3.4904 N   0  0  0  0  0  0  0  0  0  0  0  0
    1.4325    0.7283   -4.6825 C   0  0  2  0  0  0  0  0  0  0  0  0
    2.8070    1.4363   -4.6388 C   0  0  0  0  0  0  0  0  0  0  0  0
    3.5771    1.3065   -5.5806 O   0  0  0  0  0  0  0  0  0  0  0  0
    0.3109    1.7301   -4.9921 C   0  0  0  0  0  0  0  0  0  0  0  0
    1.1161   -1.0946   -3.6083 H   0  0  0  0  0  0  0  0  0  0  0  0
    1.4800    0.0371   -5.5307 H   0  0  0  0  0  0  0  0  0  0  0  0
    0.2710    2.5278   -4.2448 H   0  0  0  0  0  0  0  0  0  0  0  0
    0.4815    2.1907   -5.9704 H   0  0  0  0  0  0  0  0  0  0  0  0
   -0.6580    1.2225   -5.0134 H   0  0  0  0  0  0  0  0  0  0  0  0
    3.1803    2.2175   -3.5635 N   0  0  0  0  0  0  0  0  0  0  0  0
    4.4593    2.9055   -3.4589 C   0  0  0  0  0  0  0  0  0  0  0  0
    2.5037    2.2923   -2.8003 H   0  0  0  0  0  0  0  0  0  0  0  0
    4.5020    3.4805   -2.5288 H   0  0  0  0  0  0  0  0  0  0  0  0
    5.2834    2.1845   -3.4597 H   0  0  0  0  0  0  0  0  0  0  0  0
    4.5928    3.5955   -4.2986 H   0  0  0  0  0  0  0  0  0  0  0  0
  1  2  2  0  0  0  0
  1  3  1  0  0  0  0
  1  7  1  0  0  0  0
  3  4  1  0  0  0  0
  3  5  1  0  0  0  0
  3  6  1  0  0  0  0
  7  8  1  0  0  0  0
  7 12  1  0  0  0  0
  8  9  1  0  0  0  0
  8 11  1  0  0  0  0
  8 13  1  0  0  0  0
  9 10  2  0  0  0  0
  9 17  1  0  0  0  0
 11 14  1  0  0  0  0
 11 15  1  0  0  0  0
 11 16  1  0  0  0  0
 17 18  1  0  0  0  0
 17 23  1  0  0  0  0
 18 19  1  0  0  0  0
 18 21  1  0  0  0  0
 18 24  1  0  0  0  0
 19 20  2  0  0  0  0
 19 28  1  0  0  0  0
 21 22  1  0  0  0  0
 21 25  1  0  0  0  0
 21 26  1  0  0  0  0
 22 27  1  0  0  0  0
 28 29  1  0  0  0  0
 28 33  1  0  0  0  0
 29 30  1  0  0  0  0
 29 32  1  0  0  0  0
 29 34  1  0  0  0  0
 30 31  2  0  0  0  0
 30 38  1  0  0  0  0
 32 35  1  0  0  0  0
 32 36  1  0  0  0  0
 32 37  1  0  0  0  0
 38 39  1  0  0  0  0
 38 40  1  0  0  0  0
 39 41  1  0  0  0  0
 39 42  1  0  0  0  0
 39 43  1  0  0  0  0
M  END
$$$$

  -OEChem-05262217303D

 43 42  0     1  0  0  0  0  0999 V2000
    3.8116   -1.3192    3.9901 C   0  0  0  0  0  0  0  0  0  0  0  0
    3.1433   -0.7419    4.8328 O   0  0  0  0  0  0  0  0  0  0  0  0
    4.8857   -2.3034    4.4132 C   0  0  0  0  0  0  0  0  0  0  0  0
    5.8594   -1.9758    4.0411 H   0  0  0  0  0  0  0  0  0  0  0  0
    4.9286   -2.3682    5.5041 H   0  0  0  0  0  0  0  0  0  0  0  0
    4.6637   -3.2944    4.0100 H   0  0  0  0  0  0  0  0  0  0  0  0
    3.5846   -1.0849    2.6505 N   0  0  0  0  0  0  0  0  0  0  0  0
    2.4830   -0.2658    2.1281 C   0  0  2  0  0  0  0  0  0  0  0  0
    1.9723   -0.7941    0.7720 C   0  0  0  0  0  0  0  0  0  0  0  0
    2.6263   -1.6144    0.1351 O   0  0  0  0  0  0  0  0  0  0  0  0
    2.9779    1.1769    1.9878 C   0  0  0  0  0  0  0  0  0  0  0  0
    4.0800   -1.6726    1.9809 H   0  0  0  0  0  0  0  0  0  0  0  0
    1.6388   -0.2918    2.8258 H   0  0  0  0  0  0  0  0  0  0  0  0
    3.8130    1.2280    1.2818 H   0  0  0  0  0  0  0  0  0  0  0  0
    2.1754    1.8261    1.6249 H   0  0  0  0  0  0  0  0  0  0  0  0
    3.3158    1.5571    2.9571 H   0  0  0  0  0  0  0  0  0  0  0  0
    0.7844   -0.3326    0.2406 N   0  0  0  0  0  0  0  0  0  0  0  0
    0.3344   -0.6327   -1.1275 C   0  0  2  0  0  0  0  0  0  0  0  0
    0.8011    0.3910   -2.1781 C   0  0  0  0  0  0  0  0  0  0  0  0
    1.0572    1.5388   -1.8318 O   0  0  0  0  0  0  0  0  0  0  0  0
   -1.1973   -0.6543   -1.0958 C   0  0  0  0  0  0  0  0  0  0  0  0
   -1.7168    0.6520   -0.8030 O   0  0  0  0  0  0  0  0  0  0  0  0
    0.3212    0.4325    0.7273 H   0  0  0  0  0  0  0  0  0  0  0  0
    0.6912   -1.6222   -1.4302 H   0  0  0  0  0  0  0  0  0  0  0  0
   -1.5466   -1.3685   -0.3423 H   0  0  0  0  0  0  0  0  0  0  0  0
   -1.5791   -0.9852   -2.0672 H   0  0  0  0  0  0  0  0  0  0  0  0
   -1.2911    1.3402   -1.3513 H   0  0  0  0  0  0  0  0  0  0  0  0
    0.7260    0.0799   -3.5268 N   0  0  0  0  0  0  0  0  0  0  0  0
    0.9781    0.9849   -4.6692 C   0  0  2  0  0  0  0  0  0  0  0  0
    2.4360    1.4834   -4.8034 C   0  0  0  0  0  0  0  0  0  0  0  0
    2.9954    1.4071   -5.8888 O   0  0  0  0  0  0  0  0  0  0  0  0
   -0.0026    2.1661   -4.6703 C   0  0  0  0  0  0  0  0  0  0  0  0
    0.5391   -0.8950   -3.7471 H   0  0  0  0  0  0  0  0  0  0  0  0
    0.7766    0.4070   -5.5773 H   0  0  0  0  0  0  0  0  0  0  0  0
    0.2135    2.8642   -3.8564 H   0  0  0  0  0  0  0  0  0  0  0  0
    0.0754    2.7140   -5.6148 H   0  0  0  0  0  0  0  0  0  0  0  0
   -1.0310    1.8085   -4.5619 H   0  0  0  0  0  0  0  0  0  0  0  0
    3.1139    2.0262   -3.7303 N   0  0  0  0  0  0  0  0  0  0  0  0
    4.4687    2.5546   -3.8028 C   0  0  0  0  0  0  0  0  0  0  0  0
    2.5918    2.0990   -2.8537 H   0  0  0  0  0  0  0  0  0  0  0  0
    4.5035    3.4247   -4.4665 H   0  0  0  0  0  0  0  0  0  0  0  0
    4.8069    2.8615   -2.8083 H   0  0  0  0  0  0  0  0  0  0  0  0
    5.1583    1.7929   -4.1818 H   0  0  0  0  0  0  0  0  0  0  0  0
  1  2  2  0  0  0  0
  1  3  1  0  0  0  0
  1  7  1  0  0  0  0
  3  4  1  0  0  0  0
  3  5  1  0  0  0  0
  3  6  1  0  0  0  0
  7  8  1  0  0  0  0
  7 12  1  0  0  0  0
  8  9  1  0  0  0  0
  8 11  1  0  0  0  0
  8 13  1  0  0  0  0
  9 10  2  0  0  0  0
  9 17  1  0  0  0  0
 11 14  1  0  0  0  0
 11 15  1  0  0  0  0
 11 16  1  0  0  0  0
 17 18  1  0  0  0  0
 17 23  1  0  0  0  0
 18 19  1  0  0  0  0
 18 21  1  0  0  0  0
 18 24  1  0  0  0  0
 19 20  2  0  0  0  0
 19 28  1  0  0  0  0
 21 22  1  0  0  0  0
 21 25  1  0  0  0  0
 21 26  1  0  0  0  0
 22 27  1  0  0  0  0
 28 29  1  0  0  0  0
 28 33  1  0  0  0  0
 29 30  1  0  0  0  0
 29 32  1  0  0  0  0
 29 34  1  0  0  0  0
 30 31  2  0  0  0  0
 30 38  1  0  0  0  0
 32 35  1  0  0  0  0
 32 36  1  0  0  0  0
 32 37  1  0  0  0  0
 38 39  1  0  0  0  0
 38 40  1  0  0  0  0
 39 41  1  0  0  0  0
 39 42  1  0  0  0  0
 39 43  1  0  0  0  0
M  END
$$$$

  -OEChem-05262217303D

 43 42  0     1  0  0  0  0  0999 V2000
    3.8854   -1.2513    3.9033 C   0  0  0  0  0  0  0  0  0  0  0  0
    3.2370   -0.6505    4.7452 O   0  0  0  0  0  0  0  0  0  0  0  0
    4.9420   -2.2533    4.3285 C   0  0  0  0  0  0  0  0  0  0  0  0
    5.9314   -1.9009    4.0271 H   0  0  0  0  0  0  0  0  0  0  0  0
    4.9276   -2.3786    5.4148 H   0  0  0  0  0  0  0  0  0  0  0  0
    4.7484   -3.2217    3.8605 H   0  0  0  0  0  0  0  0  0  0  0  0
    3.6529   -1.0298    2.5626 N   0  0  0  0  0  0  0  0  0  0  0  0
    2.5501   -0.2144    2.0365 C   0  0  2  0  0  0  0  0  0  0  0  0
    1.9583   -0.8217    0.7484 C   0  0  0  0  0  0  0  0  0  0  0  0
    2.5685   -1.6886    0.1291 O   0  0  0  0  0  0  0  0  0  0  0  0
    3.0826    1.1961    1.7674 C   0  0  0  0  0  0  0  0  0  0  0  0
    4.1246   -1.6443    1.9002 H   0  0  0  0  0  0  0  0  0  0  0  0
    1.7397   -0.1597    2.7715 H   0  0  0  0  0  0  0  0  0  0  0  0
    3.8936    1.1655    1.0325 H   0  0  0  0  0  0  0  0  0  0  0  0
    2.2880    1.8413    1.3799 H   0  0  0  0  0  0  0  0  0  0  0  0
    3.4659    1.6379    2.6927 H   0  0  0  0  0  0  0  0  0  0  0  0
    0.7352   -0.3951    0.2677 N   0  0  0  0  0  0  0  0  0  0  0  0
    0.2930   -0.6769   -1.1071 C   0  0  2  0  0  0  0  0  0  0  0  0
    0.9843    0.1865   -2.1834 C   0  0  0  0  0  0  0  0  0  0  0  0
    1.6986    1.1268   -1.8560 O   0  0  0  0  0  0  0  0  0  0  0  0
   -1.2225   -0.4479   -1.1415 C   0  0  0  0  0  0  0  0  0  0  0  0
   -1.5347    0.9356   -0.9207 O   0  0  0  0  0  0  0  0  0  0  0  0
    0.3284    0.4198    0.7227 H   0  0  0  0  0  0  0  0  0  0  0  0
    0.4919   -1.7276   -1.3429 H   0  0  0  0  0  0  0  0  0  0  0  0
   -1.7051   -1.0593   -0.3712 H   0  0  0  0  0  0  0  0  0  0  0  0
   -1.6254   -0.7626   -2.1096 H   0  0  0  0  0  0  0  0  0  0  0  0
   -1.0970    1.5156   -1.5712 H   0  0  0  0  0  0  0  0  0  0  0  0
    0.6567    0.0154   -3.5204 N   0  0  0  0  0  0  0  0  0  0  0  0
    1.1272    0.8234   -4.6667 C   0  0  2  0  0  0  0  0  0  0  0  0
    2.6410    0.7126   -4.9642 C   0  0  0  0  0  0  0  0  0  0  0  0
    3.0075    0.4433   -6.1002 O   0  0  0  0  0  0  0  0  0  0  0  0
    0.7018    2.2922   -4.5306 C   0  0  0  0  0  0  0  0  0  0  0  0
    0.1069   -0.8113   -3.7391 H   0  0  0  0  0  0  0  0  0  0  0  0
    0.6197    0.4328   -5.5550 H   0  0  0  0  0  0  0  0  0  0  0  0
    1.2541    2.7959   -3.7321 H   0  0  0  0  0  0  0  0  0  0  0  0
    0.8988    2.8249   -5.4665 H   0  0  0  0  0  0  0  0  0  0  0  0
   -0.3681    2.3600   -4.3134 H   0  0  0  0  0  0  0  0  0  0  0  0
    3.5851    0.8999   -3.9748 N   0  0  0  0  0  0  0  0  0  0  0  0
    5.0194    0.7553   -4.1781 C   0  0  0  0  0  0  0  0  0  0  0  0
    3.2271    1.0977   -3.0369 H   0  0  0  0  0  0  0  0  0  0  0  0
    5.5554    0.9698   -3.2486 H   0  0  0  0  0  0  0  0  0  0  0  0
    5.2596   -0.2666   -4.4888 H   0  0  0  0  0  0  0  0  0  0  0  0
    5.3694    1.4508   -4.9479 H   0  0  0  0  0  0  0  0  0  0  0  0
  1  2  2  0  0  0  0
  1  3  1  0  0  0  0
  1  7  1  0  0  0  0
  3  4  1  0  0  0  0
  3  5  1  0  0  0  0
  3  6  1  0  0  0  0
  7  8  1  0  0  0  0
  7 12  1  0  0  0  0
  8  9  1  0  0  0  0
  8 11  1  0  0  0  0
  8 13  1  0  0  0  0
  9 10  2  0  0  0  0
  9 17  1  0  0  0  0
 11 14  1  0  0  0  0
 11 15  1  0  0  0  0
 11 16  1  0  0  0  0
 17 18  1  0  0  0  0
 17 23  1  0  0  0  0
 18 19  1  0  0  0  0
 18 21  1  0  0  0  0
 18 24  1  0  0  0  0
 19 20  2  0  0  0  0
 19 28  1  0  0  0  0
 21 22  1  0  0  0  0
 21 25  1  0  0  0  0
 21 26  1  0  0  0  0
 22 27  1  0  0  0  0
 28 29  1  0  0  0  0
 28 33  1  0  0  0  0
 29 30  1  0  0  0  0
 29 32  1  0  0  0  0
 29 34  1  0  0  0  0
 30 31  2  0  0  0  0
 30 38  1  0  0  0  0
 32 35  1  0  0  0  0
 32 36  1  0  0  0  0
 32 37  1  0  0  0  0
 38 39  1  0  0  0  0
 38 40  1  0  0  0  0
 39 41  1  0  0  0  0
 39 42  1  0  0  0  0
 39 43  1  0  0  0  0
M  END
$$$$

  -OEChem-05262217303D

 43 42  0     1  0  0  0  0  0999 V2000
    3.9357   -1.2742    3.8448 C   0  0  0  0  0  0  0  0  0  0  0  0
    3.2945   -0.6988    4.7097 O   0  0  0  0  0  0  0  0  0  0  0  0
    5.0273   -2.2542    4.2330 C   0  0  0  0  0  0  0  0  0  0  0  0
    5.9844   -1.9316    3.8158 H   0  0  0  0  0  0  0  0  0  0  0  0
    5.1172   -2.3054    5.3219 H   0  0  0  0  0  0  0  0  0  0  0  0
    4.7884   -3.2502    3.8521 H   0  0  0  0  0  0  0  0  0  0  0  0
    3.6615   -1.0439    2.5135 N   0  0  0  0  0  0  0  0  0  0  0  0
    2.5254   -0.2500    2.0262 C   0  0  2  0  0  0  0  0  0  0  0  0
    1.9288   -0.8464    0.7346 C   0  0  0  0  0  0  0  0  0  0  0  0
    2.5425   -1.7035    0.1046 O   0  0  0  0  0  0  0  0  0  0  0  0
    3.0097    1.1822    1.7805 C   0  0  0  0  0  0  0  0  0  0  0  0
    4.1266   -1.6412    1.8311 H   0  0  0  0  0  0  0  0  0  0  0  0
    1.7283   -0.2377    2.7773 H   0  0  0  0  0  0  0  0  0  0  0  0
    3.7998    1.1944    1.0226 H   0  0  0  0  0  0  0  0  0  0  0  0
    2.1864    1.8136    1.4326 H   0  0  0  0  0  0  0  0  0  0  0  0
    3.4064    1.6116    2.7061 H   0  0  0  0  0  0  0  0  0  0  0  0
    0.6929   -0.4335    0.2713 N   0  0  0  0  0  0  0  0  0  0  0  0
    0.2622   -0.6767   -1.1155 C   0  0  2  0  0  0  0  0  0  0  0  0
    0.9359    0.2500   -2.1543 C   0  0  0  0  0  0  0  0  0  0  0  0
    1.8286    1.0173   -1.8149 O   0  0  0  0  0  0  0  0  0  0  0  0
   -1.2629   -0.5081   -1.1382 C   0  0  0  0  0  0  0  0  0  0  0  0
   -1.6324    0.8509   -0.8610 O   0  0  0  0  0  0  0  0  0  0  0  0
    0.2735    0.3606    0.7503 H   0  0  0  0  0  0  0  0  0  0  0  0
    0.4975   -1.7091   -1.3943 H   0  0  0  0  0  0  0  0  0  0  0  0
   -1.7133   -1.1659   -0.3869 H   0  0  0  0  0  0  0  0  0  0  0  0
   -1.6622   -0.8072   -2.1127 H   0  0  0  0  0  0  0  0  0  0  0  0
   -1.2830    1.4667   -1.5308 H   0  0  0  0  0  0  0  0  0  0  0  0
    0.4163    0.3527   -3.4376 N   0  0  0  0  0  0  0  0  0  0  0  0
    0.8861    1.2424   -4.5221 C   0  0  2  0  0  0  0  0  0  0  0  0
    2.3154    0.9433   -5.0333 C   0  0  0  0  0  0  0  0  0  0  0  0
    2.4862    0.7153   -6.2233 O   0  0  0  0  0  0  0  0  0  0  0  0
    0.7363    2.7225   -4.1405 C   0  0  0  0  0  0  0  0  0  0  0  0
   -0.2755   -0.3477   -3.6913 H   0  0  0  0  0  0  0  0  0  0  0  0
    0.2229    1.0726   -5.3770 H   0  0  0  0  0  0  0  0  0  0  0  0
    1.4377    3.0056   -3.3504 H   0  0  0  0  0  0  0  0  0  0  0  0
    0.9366    3.3541   -5.0119 H   0  0  0  0  0  0  0  0  0  0  0  0
   -0.2814    2.9250   -3.7942 H   0  0  0  0  0  0  0  0  0  0  0  0
    3.3967    0.9151   -4.1758 N   0  0  0  0  0  0  0  0  0  0  0  0
    4.7548    0.5861   -4.5851 C   0  0  0  0  0  0  0  0  0  0  0  0
    3.1894    1.0441   -3.1816 H   0  0  0  0  0  0  0  0  0  0  0  0
    5.4379    0.6863   -3.7361 H   0  0  0  0  0  0  0  0  0  0  0  0
    4.8049   -0.4442   -4.9522 H   0  0  0  0  0  0  0  0  0  0  0  0
    5.0901    1.2616   -5.3791 H   0  0  0  0  0  0  0  0  0  0  0  0
  1  2  2  0  0  0  0
  1  3  1  0  0  0  0
  1  7  1  0  0  0  0
  3  4  1  0  0  0  0
  3  5  1  0  0  0  0
  3  6  1  0  0  0  0
  7  8  1  0  0  0  0
  7 12  1  0  0  0  0
  8  9  1  0  0  0  0
  8 11  1  0  0  0  0
  8 13  1  0  0  0  0
  9 10  2  0  0  0  0
  9 17  1  0  0  0  0
 11 14  1  0  0  0  0
 11 15  1  0  0  0  0
 11 16  1  0  0  0  0
 17 18  1  0  0  0  0
 17 23  1  0  0  0  0
 18 19  1  0  0  0  0
 18 21  1  0  0  0  0
 18 24  1  0  0  0  0
 19 20  2  0  0  0  0
 19 28  1  0  0  0  0
 21 22  1  0  0  0  0
 21 25  1  0  0  0  0
 21 26  1  0  0  0  0
 22 27  1  0  0  0  0
 28 29  1  0  0  0  0
 28 33  1  0  0  0  0
 29 30  1  0  0  0  0
 29 32  1  0  0  0  0
 29 34  1  0  0  0  0
 30 31  2  0  0  0  0
 30 38  1  0  0  0  0
 32 35  1  0  0  0  0
 32 36  1  0  0  0  0
 32 37  1  0  0  0  0
 38 39  1  0  0  0  0
 38 40  1  0  0  0  0
 39 41  1  0  0  0  0
 39 42  1  0  0  0  0
 39 43  1  0  0  0  0
M  END
$$$$

  -OEChem-05262217303D

 43 42  0     1  0  0  0  0  0999 V2000
    3.9230   -1.2892    3.8553 C   0  0  0  0  0  0  0  0  0  0  0  0
    3.2785   -0.7152    4.7187 O   0  0  0  0  0  0  0  0  0  0  0  0
    5.0126   -2.2702    4.2449 C   0  0  0  0  0  0  0  0  0  0  0  0
    5.9856   -1.8946    3.9192 H   0  0  0  0  0  0  0  0  0  0  0  0
    5.0302   -2.4024    5.3304 H   0  0  0  0  0  0  0  0  0  0  0  0
    4.8284   -3.2399    3.7763 H   0  0  0  0  0  0  0  0  0  0  0  0
    3.6557   -1.0551    2.5234 N   0  0  0  0  0  0  0  0  0  0  0  0
    2.5222   -0.2607    2.0320 C   0  0  2  0  0  0  0  0  0  0  0  0
    1.9304   -0.8557    0.7383 C   0  0  0  0  0  0  0  0  0  0  0  0
    2.5447   -1.7150    0.1125 O   0  0  0  0  0  0  0  0  0  0  0  0
    3.0102    1.1698    1.7867 C   0  0  0  0  0  0  0  0  0  0  0  0
    4.1247   -1.6503    1.8416 H   0  0  0  0  0  0  0  0  0  0  0  0
    1.7221   -0.2465    2.7798 H   0  0  0  0  0  0  0  0  0  0  0  0
    3.7935    1.1807    1.0216 H   0  0  0  0  0  0  0  0  0  0  0  0
    2.1866    1.8060    1.4486 H   0  0  0  0  0  0  0  0  0  0  0  0
    3.4173    1.5942    2.7099 H   0  0  0  0  0  0  0  0  0  0  0  0
    0.6901   -0.4506    0.2790 N   0  0  0  0  0  0  0  0  0  0  0  0
    0.2692   -0.6629   -1.1164 C   0  0  2  0  0  0  0  0  0  0  0  0
    0.9308    0.3033   -2.1305 C   0  0  0  0  0  0  0  0  0  0  0  0
    1.9699    0.8850   -1.8453 O   0  0  0  0  0  0  0  0  0  0  0  0
   -1.2614   -0.5427   -1.1287 C   0  0  0  0  0  0  0  0  0  0  0  0
   -1.6733    0.7945   -0.8057 O   0  0  0  0  0  0  0  0  0  0  0  0
    0.2548    0.3217    0.7788 H   0  0  0  0  0  0  0  0  0  0  0  0
    0.5309   -1.6808   -1.4245 H   0  0  0  0  0  0  0  0  0  0  0  0
   -1.6866   -1.2383   -0.3970 H   0  0  0  0  0  0  0  0  0  0  0  0
   -1.6554   -0.8255   -2.1102 H   0  0  0  0  0  0  0  0  0  0  0  0
   -1.3529    1.4431   -1.4587 H   0  0  0  0  0  0  0  0  0  0  0  0
    0.2608    0.6741   -3.2899 N   0  0  0  0  0  0  0  0  0  0  0  0
    0.7082    1.6506   -4.3074 C   0  0  2  0  0  0  0  0  0  0  0  0
    1.9913    1.2528   -5.0749 C   0  0  0  0  0  0  0  0  0  0  0  0
    1.9644    1.2098   -6.2974 O   0  0  0  0  0  0  0  0  0  0  0  0
    0.8412    3.0606   -3.7141 C   0  0  0  0  0  0  0  0  0  0  0  0
   -0.5464    0.1052   -3.5314 H   0  0  0  0  0  0  0  0  0  0  0  0
   -0.0846    1.7028   -5.0613 H   0  0  0  0  0  0  0  0  0  0  0  0
    1.6863    3.1254   -3.0228 H   0  0  0  0  0  0  0  0  0  0  0  0
    1.0038    3.7880   -4.5160 H   0  0  0  0  0  0  0  0  0  0  0  0
   -0.0709    3.3367   -3.1773 H   0  0  0  0  0  0  0  0  0  0  0  0
    3.1612    0.9404   -4.4122 N   0  0  0  0  0  0  0  0  0  0  0  0
    4.3937    0.5380   -5.0745 C   0  0  0  0  0  0  0  0  0  0  0  0
    3.1199    0.9485   -3.3893 H   0  0  0  0  0  0  0  0  0  0  0  0
    5.1774    0.3575   -4.3326 H   0  0  0  0  0  0  0  0  0  0  0  0
    4.2385   -0.3826   -5.6462 H   0  0  0  0  0  0  0  0  0  0  0  0
    4.7370    1.3237   -5.7554 H   0  0  0  0  0  0  0  0  0  0  0  0
  1  2  2  0  0  0  0
  1  3  1  0  0  0  0
  1  7  1  0  0  0  0
  3  4  1  0  0  0  0
  3  5  1  0  0  0  0
  3  6  1  0  0  0  0
  7  8  1  0  0  0  0
  7 12  1  0  0  0  0
  8  9  1  0  0  0  0
  8 11  1  0  0  0  0
  8 13  1  0  0  0  0
  9 10  2  0  0  0  0
  9 17  1  0  0  0  0
 11 14  1  0  0  0  0
 11 15  1  0  0  0  0
 11 16  1  0  0  0  0
 17 18  1  0  0  0  0
 17 23  1  0  0  0  0
 18 19  1  0  0  0  0
 18 21  1  0  0  0  0
 18 24  1  0  0  0  0
 19 20  2  0  0  0  0
 19 28  1  0  0  0  0
 21 22  1  0  0  0  0
 21 25  1  0  0  0  0
 21 26  1  0  0  0  0
 22 27  1  0  0  0  0
 28 29  1  0  0  0  0
 28 33  1  0  0  0  0
 29 30  1  0  0  0  0
 29 32  1  0  0  0  0
 29 34  1  0  0  0  0
 30 31  2  0  0  0  0
 30 38  1  0  0  0  0
 32 35  1  0  0  0  0
 32 36  1  0  0  0  0
 32 37  1  0  0  0  0
 38 39  1  0  0  0  0
 38 40  1  0  0  0  0
 39 41  1  0  0  0  0
 39 42  1  0  0  0  0
 39 43  1  0  0  0  0
M  END
$$$$

  -OEChem-05262217303D

 43 42  0     1  0  0  0  0  0999 V2000
    3.9176   -1.3121    3.8628 C   0  0  0  0  0  0  0  0  0  0  0  0
    3.2691   -0.7495    4.7309 O   0  0  0  0  0  0  0  0  0  0  0  0
    5.0274   -2.2734    4.2440 C   0  0  0  0  0  0  0  0  0  0  0  0
    5.9913   -1.8754    3.9179 H   0  0  0  0  0  0  0  0  0  0  0  0
    5.0503   -2.4117    5.3286 H   0  0  0  0  0  0  0  0  0  0  0  0
    4.8622   -3.2437    3.7694 H   0  0  0  0  0  0  0  0  0  0  0  0
    3.6399   -1.0786    2.5330 N   0  0  0  0  0  0  0  0  0  0  0  0
    2.4967   -0.2932    2.0506 C   0  0  2  0  0  0  0  0  0  0  0  0
    1.9239   -0.8680    0.7389 C   0  0  0  0  0  0  0  0  0  0  0  0
    2.5456   -1.7209    0.1123 O   0  0  0  0  0  0  0  0  0  0  0  0
    2.9610    1.1512    1.8414 C   0  0  0  0  0  0  0  0  0  0  0  0
    4.1148   -1.6631    1.8458 H   0  0  0  0  0  0  0  0  0  0  0  0
    1.6921   -0.3114    2.7936 H   0  0  0  0  0  0  0  0  0  0  0  0
    3.7455    1.1937    1.0787 H   0  0  0  0  0  0  0  0  0  0  0  0
    2.1278    1.7814    1.5170 H   0  0  0  0  0  0  0  0  0  0  0  0
    3.3590    1.5597    2.7757 H   0  0  0  0  0  0  0  0  0  0  0  0
    0.6849   -0.4636    0.2744 N   0  0  0  0  0  0  0  0  0  0  0  0
    0.2769   -0.6419   -1.1296 C   0  0  2  0  0  0  0  0  0  0  0  0
    0.9341    0.3548   -2.1178 C   0  0  0  0  0  0  0  0  0  0  0  0
    2.0794    0.7413   -1.9297 O   0  0  0  0  0  0  0  0  0  0  0  0
   -1.2561   -0.5532   -1.1400 C   0  0  0  0  0  0  0  0  0  0  0  0
   -1.6985    0.7648   -0.7749 O   0  0  0  0  0  0  0  0  0  0  0  0
    0.2266    0.2785    0.7983 H   0  0  0  0  0  0  0  0  0  0  0  0
    0.5562   -1.6468   -1.4634 H   0  0  0  0  0  0  0  0  0  0  0  0
   -1.6698   -1.2822   -0.4348 H   0  0  0  0  0  0  0  0  0  0  0  0
   -1.6389   -0.8111   -2.1328 H   0  0  0  0  0  0  0  0  0  0  0  0
   -1.3343    1.4515   -1.3630 H   0  0  0  0  0  0  0  0  0  0  0  0
    0.1783    0.9896   -3.0976 N   0  0  0  0  0  0  0  0  0  0  0  0
    0.6329    2.0436   -4.0313 C   0  0  2  0  0  0  0  0  0  0  0  0
    1.7245    1.5983   -5.0331 C   0  0  0  0  0  0  0  0  0  0  0  0
    1.5034    1.6872   -6.2332 O   0  0  0  0  0  0  0  0  0  0  0  0
    1.0595    3.3136   -3.2803 C   0  0  0  0  0  0  0  0  0  0  0  0
   -0.7182    0.5570   -3.3063 H   0  0  0  0  0  0  0  0  0  0  0  0
   -0.2345    2.3197   -4.6404 H   0  0  0  0  0  0  0  0  0  0  0  0
    1.9872    3.1564   -2.7227 H   0  0  0  0  0  0  0  0  0  0  0  0
    1.2274    4.1289   -3.9912 H   0  0  0  0  0  0  0  0  0  0  0  0
    0.2787    3.6225   -2.5793 H   0  0  0  0  0  0  0  0  0  0  0  0
    2.9328    1.0887   -4.6026 N   0  0  0  0  0  0  0  0  0  0  0  0
    3.9795    0.6075   -5.4931 C   0  0  0  0  0  0  0  0  0  0  0  0
    3.0348    0.9599   -3.5918 H   0  0  0  0  0  0  0  0  0  0  0  0
    4.8432    0.2723   -4.9109 H   0  0  0  0  0  0  0  0  0  0  0  0
    3.6174   -0.2340   -6.0925 H   0  0  0  0  0  0  0  0  0  0  0  0
    4.3055    1.4068   -6.1668 H   0  0  0  0  0  0  0  0  0  0  0  0
  1  2  2  0  0  0  0
  1  3  1  0  0  0  0
  1  7  1  0  0  0  0
  3  4  1  0  0  0  0
  3  5  1  0  0  0  0
  3  6  1  0  0  0  0
  7  8  1  0  0  0  0
  7 12  1  0  0  0  0
  8  9  1  0  0  0  0
  8 11  1  0  0  0  0
  8 13  1  0  0  0  0
  9 10  2  0  0  0  0
  9 17  1  0  0  0  0
 11 14  1  0  0  0  0
 11 15  1  0  0  0  0
 11 16  1  0  0  0  0
 17 18  1  0  0  0  0
 17 23  1  0  0  0  0
 18 19  1  0  0  0  0
 18 21  1  0  0  0  0
 18 24  1  0  0  0  0
 19 20  2  0  0  0  0
 19 28  1  0  0  0  0
 21 22  1  0  0  0  0
 21 25  1  0  0  0  0
 21 26  1  0  0  0  0
 22 27  1  0  0  0  0
 28 29  1  0  0  0  0
 28 33  1  0  0  0  0
 29 30  1  0  0  0  0
 29 32  1  0  0  0  0
 29 34  1  0  0  0  0
 30 31  2  0  0  0  0
 30 38  1  0  0  0  0
 32 35  1  0  0  0  0
 32 36  1  0  0  0  0
 32 37  1  0  0  0  0
 38 39  1  0  0  0  0
 38 40  1  0  0  0  0
 39 41  1  0  0  0  0
 39 42  1  0  0  0  0
 39 43  1  0  0  0  0
M  END
$$$$

  -OEChem-05262217303D

 43 42  0     1  0  0  0  0  0999 V2000
    3.8855   -1.3670    3.9048 C   0  0  0  0  0  0  0  0  0  0  0  0
    3.1974   -0.8594    4.7764 O   0  0  0  0  0  0  0  0  0  0  0  0
    5.0065   -2.3190    4.2779 C   0  0  0  0  0  0  0  0  0  0  0  0
    5.9716   -1.8800    4.0133 H   0  0  0  0  0  0  0  0  0  0  0  0
    4.9912   -2.5165    5.3535 H   0  0  0  0  0  0  0  0  0  0  0  0
    4.8865   -3.2656    3.7456 H   0  0  0  0  0  0  0  0  0  0  0  0
    3.6386   -1.0834    2.5785 N   0  0  0  0  0  0  0  0  0  0  0  0
    2.4865   -0.3098    2.0971 C   0  0  2  0  0  0  0  0  0  0  0  0
    1.9652   -0.8432    0.7467 C   0  0  0  0  0  0  0  0  0  0  0  0
    2.6237   -1.6574    0.1081 O   0  0  0  0  0  0  0  0  0  0  0  0
    2.9149    1.1541    1.9634 C   0  0  0  0  0  0  0  0  0  0  0  0
    4.1455   -1.6286    1.8817 H   0  0  0  0  0  0  0  0  0  0  0  0
    1.6635   -0.3817    2.8162 H   0  0  0  0  0  0  0  0  0  0  0  0
    3.7238    1.2500    1.2316 H   0  0  0  0  0  0  0  0  0  0  0  0
    2.0749    1.7737    1.6362 H   0  0  0  0  0  0  0  0  0  0  0  0
    3.2689    1.5337    2.9272 H   0  0  0  0  0  0  0  0  0  0  0  0
    0.7252   -0.4573    0.2689 N   0  0  0  0  0  0  0  0  0  0  0  0
    0.3349   -0.6052   -1.1438 C   0  0  2  0  0  0  0  0  0  0  0  0
    0.9699    0.4257   -2.1121 C   0  0  0  0  0  0  0  0  0  0  0  0
    2.1731    0.6359   -2.0729 O   0  0  0  0  0  0  0  0  0  0  0  0
   -1.2001   -0.5706   -1.1526 C   0  0  0  0  0  0  0  0  0  0  0  0
   -1.6951    0.7169   -0.7439 O   0  0  0  0  0  0  0  0  0  0  0  0
    0.2149    0.2250    0.8250 H   0  0  0  0  0  0  0  0  0  0  0  0
    0.6451   -1.5936   -1.4999 H   0  0  0  0  0  0  0  0  0  0  0  0
   -1.5919   -1.3411   -0.4796 H   0  0  0  0  0  0  0  0  0  0  0  0
   -1.5652   -0.8011   -2.1590 H   0  0  0  0  0  0  0  0  0  0  0  0
   -1.2467    1.4516   -1.2012 H   0  0  0  0  0  0  0  0  0  0  0  0
    0.1783    1.2842   -2.8680 N   0  0  0  0  0  0  0  0  0  0  0  0
    0.6421    2.3984   -3.7242 C   0  0  2  0  0  0  0  0  0  0  0  0
    1.4969    1.9703   -4.9403 C   0  0  0  0  0  0  0  0  0  0  0  0
    1.1035    2.2384   -6.0673 O   0  0  0  0  0  0  0  0  0  0  0  0
    1.3538    3.4828   -2.9022 C   0  0  0  0  0  0  0  0  0  0  0  0
   -0.7749    0.9641   -3.0252 H   0  0  0  0  0  0  0  0  0  0  0  0
   -0.2550    2.8675   -4.1418 H   0  0  0  0  0  0  0  0  0  0  0  0
    2.3226    3.1345   -2.5325 H   0  0  0  0  0  0  0  0  0  0  0  0
    1.5272    4.3671   -3.5237 H   0  0  0  0  0  0  0  0  0  0  0  0
    0.7389    3.7776   -2.0468 H   0  0  0  0  0  0  0  0  0  0  0  0
    2.6767    1.2712   -4.7831 N   0  0  0  0  0  0  0  0  0  0  0  0
    3.4888    0.7843   -5.8894 C   0  0  0  0  0  0  0  0  0  0  0  0
    2.9160    0.9964   -3.8261 H   0  0  0  0  0  0  0  0  0  0  0  0
    4.3726    0.2640   -5.5076 H   0  0  0  0  0  0  0  0  0  0  0  0
    2.9148    0.0864   -6.5076 H   0  0  0  0  0  0  0  0  0  0  0  0
    3.8227    1.6184   -6.5152 H   0  0  0  0  0  0  0  0  0  0  0  0
  1  2  2  0  0  0  0
  1  3  1  0  0  0  0
  1  7  1  0  0  0  0
  3  4  1  0  0  0  0
  3  5  1  0  0  0  0
  3  6  1  0  0  0  0
  7  8  1  0  0  0  0
  7 12  1  0  0  0  0
  8  9  1  0  0  0  0
  8 11  1  0  0  0  0
  8 13  1  0  0  0  0
  9 10  2  0  0  0  0
  9 17  1  0  0  0  0
 11 14  1  0  0  0  0
 11 15  1  0  0  0  0
 11 16  1  0  0  0  0
 17 18  1  0  0  0  0
 17 23  1  0  0  0  0
 18 19  1  0  0  0  0
 18 21  1  0  0  0  0
 18 24  1  0  0  0  0
 19 20  2  0  0  0  0
 19 28  1  0  0  0  0
 21 22  1  0  0  0  0
 21 25  1  0  0  0  0
 21 26  1  0  0  0  0
 22 27  1  0  0  0  0
 28 29  1  0  0  0  0
 28 33  1  0  0  0  0
 29 30  1  0  0  0  0
 29 32  1  0  0  0  0
 29 34  1  0  0  0  0
 30 31  2  0  0  0  0
 30 38  1  0  0  0  0
 32 35  1  0  0  0  0
 32 36  1  0  0  0  0
 32 37  1  0  0  0  0
 38 39  1  0  0  0  0
 38 40  1  0  0  0  0
 39 41  1  0  0  0  0
 39 42  1  0  0  0  0
 39 43  1  0  0  0  0
M  END
$$$$

  -OEChem-05262217303D

 43 42  0     1  0  0  0  0  0999 V2000
    3.8326   -1.3559    4.0001 C   0  0  0  0  0  0  0  0  0  0  0  0
    3.0941   -0.8687    4.8417 O   0  0  0  0  0  0  0  0  0  0  0  0
    4.9522   -2.2900    4.4192 C   0  0  0  0  0  0  0  0  0  0  0  0
    5.9192   -1.8503    4.1633 H   0  0  0  0  0  0  0  0  0  0  0  0
    4.9169   -2.4606    5.4989 H   0  0  0  0  0  0  0  0  0  0  0  0
    4.8493   -3.2503    3.9082 H   0  0  0  0  0  0  0  0  0  0  0  0
    3.6442   -1.0635    2.6661 N   0  0  0  0  0  0  0  0  0  0  0  0
    2.5007   -0.3077    2.1389 C   0  0  2  0  0  0  0  0  0  0  0  0
    2.0491   -0.8373    0.7624 C   0  0  0  0  0  0  0  0  0  0  0  0
    2.7517   -1.6285    0.1446 O   0  0  0  0  0  0  0  0  0  0  0  0
    2.9039    1.1661    2.0382 C   0  0  0  0  0  0  0  0  0  0  0  0
    4.1947   -1.5911    1.9889 H   0  0  0  0  0  0  0  0  0  0  0  0
    1.6473   -0.4023    2.8188 H   0  0  0  0  0  0  0  0  0  0  0  0
    3.7436    1.2863    1.3457 H   0  0  0  0  0  0  0  0  0  0  0  0
    2.0664    1.7715    1.6786 H   0  0  0  0  0  0  0  0  0  0  0  0
    3.2048    1.5436    3.0207 H   0  0  0  0  0  0  0  0  0  0  0  0
    0.8210   -0.4684    0.2438 N   0  0  0  0  0  0  0  0  0  0  0  0
    0.4897   -0.5711   -1.1874 C   0  0  2  0  0  0  0  0  0  0  0  0
    1.1522    0.5303   -2.0475 C   0  0  0  0  0  0  0  0  0  0  0  0
    2.3400    0.4598   -2.3295 O   0  0  0  0  0  0  0  0  0  0  0  0
   -1.0396   -0.6355   -1.3247 C   0  0  0  0  0  0  0  0  0  0  0  0
   -1.6651    0.5888   -0.9080 O   0  0  0  0  0  0  0  0  0  0  0  0
    0.3012    0.2218    0.7801 H   0  0  0  0  0  0  0  0  0  0  0  0
    0.8794   -1.5209   -1.5701 H   0  0  0  0  0  0  0  0  0  0  0  0
   -1.4194   -1.4638   -0.7168 H   0  0  0  0  0  0  0  0  0  0  0  0
   -1.3040   -0.8428   -2.3672 H   0  0  0  0  0  0  0  0  0  0  0  0
   -2.6361    0.4876   -0.8900 H   0  0  0  0  0  0  0  0  0  0  0  0
    0.4062    1.5937   -2.5279 N   0  0  0  0  0  0  0  0  0  0  0  0
    0.8798    2.7579   -3.3041 C   0  0  2  0  0  0  0  0  0  0  0  0
    1.3471    2.4313   -4.7414 C   0  0  0  0  0  0  0  0  0  0  0  0
    0.8799    3.0603   -5.6821 O   0  0  0  0  0  0  0  0  0  0  0  0
    1.9613    3.5323   -2.5377 C   0  0  0  0  0  0  0  0  0  0  0  0
   -0.5538    1.6158   -2.1810 H   0  0  0  0  0  0  0  0  0  0  0  0
    0.0240    3.4319   -3.4127 H   0  0  0  0  0  0  0  0  0  0  0  0
    2.8954    2.9653   -2.4873 H   0  0  0  0  0  0  0  0  0  0  0  0
    2.1676    4.4827   -3.0398 H   0  0  0  0  0  0  0  0  0  0  0  0
    1.6266    3.7450   -1.5181 H   0  0  0  0  0  0  0  0  0  0  0  0
    2.2812    1.4449   -4.9863 N   0  0  0  0  0  0  0  0  0  0  0  0
    2.7597    1.0807   -6.3122 C   0  0  0  0  0  0  0  0  0  0  0  0
    2.6290    0.9385   -4.1669 H   0  0  0  0  0  0  0  0  0  0  0  0
    3.5267    0.3043   -6.2354 H   0  0  0  0  0  0  0  0  0  0  0  0
    1.9370    0.6961   -6.9237 H   0  0  0  0  0  0  0  0  0  0  0  0
    3.1970    1.9502   -6.8139 H   0  0  0  0  0  0  0  0  0  0  0  0
  1  2  2  0  0  0  0
  1  3  1  0  0  0  0
  1  7  1  0  0  0  0
  3  4  1  0  0  0  0
  3  5  1  0  0  0  0
  3  6  1  0  0  0  0
  7  8  1  0  0  0  0
  7 12  1  0  0  0  0
  8  9  1  0  0  0  0
  8 11  1  0  0  0  0
  8 13  1  0  0  0  0
  9 10  2  0  0  0  0
  9 17  1  0  0  0  0
 11 14  1  0  0  0  0
 11 15  1  0  0  0  0
 11 16  1  0  0  0  0
 17 18  1  0  0  0  0
 17 23  1  0  0  0  0
 18 19  1  0  0  0  0
 18 21  1  0  0  0  0
 18 24  1  0  0  0  0
 19 20  2  0  0  0  0
 19 28  1  0  0  0  0
 21 22  1  0  0  0  0
 21 25  1  0  0  0  0
 21 26  1  0  0  0  0
 22 27  1  0  0  0  0
 28 29  1  0  0  0  0
 28 33  1  0  0  0  0
 29 30  1  0  0  0  0
 29 32  1  0  0  0  0
 29 34  1  0  0  0  0
 30 31  2  0  0  0  0
 30 38  1  0  0  0  0
 32 35  1  0  0  0  0
 32 36  1  0  0  0  0
 32 37  1  0  0  0  0
 38 39  1  0  0  0  0
 38 40  1  0  0  0  0
 39 41  1  0  0  0  0
 39 42  1  0  0  0  0
 39 43  1  0  0  0  0
M  END
$$$$

  -OEChem-05262217303D

 43 42  0     1  0  0  0  0  0999 V2000
    3.7102   -1.5772    4.0758 C   0  0  0  0  0  0  0  0  0  0  0  0
    2.8960   -1.2149    4.9106 O   0  0  0  0  0  0  0  0  0  0  0  0
    4.8357   -2.5167    4.4660 C   0  0  0  0  0  0  0  0  0  0  0  0
    5.8006   -2.0487    4.2565 H   0  0  0  0  0  0  0  0  0  0  0  0
    4.7809   -2.7486    5.5333 H   0  0  0  0  0  0  0  0  0  0  0  0
    4.7589   -3.4474    3.8987 H   0  0  0  0  0  0  0  0  0  0  0  0
    3.6031   -1.1398    2.7730 N   0  0  0  0  0  0  0  0  0  0  0  0
    2.4701   -0.3665    2.2485 C   0  0  2  0  0  0  0  0  0  0  0  0
    2.1295   -0.7713    0.7993 C   0  0  0  0  0  0  0  0  0  0  0  0
    2.9165   -1.4493    0.1505 O   0  0  0  0  0  0  0  0  0  0  0  0
    2.8320    1.1196    2.3204 C   0  0  0  0  0  0  0  0  0  0  0  0
    4.2188   -1.5716    2.0839 H   0  0  0  0  0  0  0  0  0  0  0  0
    1.5782   -0.5516    2.8567 H   0  0  0  0  0  0  0  0  0  0  0  0
    3.7149    1.3279    1.7071 H   0  0  0  0  0  0  0  0  0  0  0  0
    2.0035    1.7365    1.9600 H   0  0  0  0  0  0  0  0  0  0  0  0
    3.0505    1.4057    3.3544 H   0  0  0  0  0  0  0  0  0  0  0  0
    0.9184   -0.4109    0.2368 N   0  0  0  0  0  0  0  0  0  0  0  0
    0.6429   -0.4780   -1.2089 C   0  0  2  0  0  0  0  0  0  0  0  0
    1.3129    0.6533   -2.0194 C   0  0  0  0  0  0  0  0  0  0  0  0
    2.4138    0.4772   -2.5218 O   0  0  0  0  0  0  0  0  0  0  0  0
   -0.8779   -0.5608   -1.4099 C   0  0  0  0  0  0  0  0  0  0  0  0
   -1.5428    0.6402   -0.9852 O   0  0  0  0  0  0  0  0  0  0  0  0
    0.3214    0.1958    0.7934 H   0  0  0  0  0  0  0  0  0  0  0  0
    1.0611   -1.4128   -1.5991 H   0  0  0  0  0  0  0  0  0  0  0  0
   -1.2692   -1.4148   -0.8469 H   0  0  0  0  0  0  0  0  0  0  0  0
   -1.0920   -0.7371   -2.4696 H   0  0  0  0  0  0  0  0  0  0  0  0
   -2.5106    0.5405   -1.0685 H   0  0  0  0  0  0  0  0  0  0  0  0
    0.6506    1.8503   -2.2340 N   0  0  0  0  0  0  0  0  0  0  0  0
    1.1175    3.0230   -3.0009 C   0  0  2  0  0  0  0  0  0  0  0  0
    1.2632    2.7821   -4.5213 C   0  0  0  0  0  0  0  0  0  0  0  0
    0.6666    3.5090   -5.3052 O   0  0  0  0  0  0  0  0  0  0  0  0
    2.4142    3.5920   -2.4085 C   0  0  0  0  0  0  0  0  0  0  0  0
   -0.2861    1.8872   -1.8284 H   0  0  0  0  0  0  0  0  0  0  0  0
    0.3526    3.7987   -2.8905 H   0  0  0  0  0  0  0  0  0  0  0  0
    3.2529    2.9050   -2.5525 H   0  0  0  0  0  0  0  0  0  0  0  0
    2.6642    4.5397   -2.8958 H   0  0  0  0  0  0  0  0  0  0  0  0
    2.2939    3.7751   -1.3368 H   0  0  0  0  0  0  0  0  0  0  0  0
    2.0468    1.7579   -5.0138 N   0  0  0  0  0  0  0  0  0  0  0  0
    2.2027    1.4532   -6.4287 C   0  0  0  0  0  0  0  0  0  0  0  0
    2.4862    1.1510   -4.3155 H   0  0  0  0  0  0  0  0  0  0  0  0
    2.8881    0.6102   -6.5584 H   0  0  0  0  0  0  0  0  0  0  0  0
    1.2374    1.1875   -6.8717 H   0  0  0  0  0  0  0  0  0  0  0  0
    2.6117    2.3165   -6.9638 H   0  0  0  0  0  0  0  0  0  0  0  0
  1  2  2  0  0  0  0
  1  3  1  0  0  0  0
  1  7  1  0  0  0  0
  3  4  1  0  0  0  0
  3  5  1  0  0  0  0
  3  6  1  0  0  0  0
  7  8  1  0  0  0  0
  7 12  1  0  0  0  0
  8  9  1  0  0  0  0
  8 11  1  0  0  0  0
  8 13  1  0  0  0  0
  9 10  2  0  0  0  0
  9 17  1  0  0  0  0
 11 14  1  0  0  0  0
 11 15  1  0  0  0  0
 11 16  1  0  0  0  0
 17 18  1  0  0  0  0
 17 23  1  0  0  0  0
 18 19  1  0  0  0  0
 18 21  1  0  0  0  0
 18 24  1  0  0  0  0
 19 20  2  0  0  0  0
 19 28  1  0  0  0  0
 21 22  1  0  0  0  0
 21 25  1  0  0  0  0
 21 26  1  0  0  0  0
 22 27  1  0  0  0  0
 28 29  1  0  0  0  0
 28 33  1  0  0  0  0
 29 30  1  0  0  0  0
 29 32  1  0  0  0  0
 29 34  1  0  0  0  0
 30 31  2  0  0  0  0
 30 38  1  0  0  0  0
 32 35  1  0  0  0  0
 32 36  1  0  0  0  0
 32 37  1  0  0  0  0
 38 39  1  0  0  0  0
 38 40  1  0  0  0  0
 39 41  1  0  0  0  0
 39 42  1  0  0  0  0
 39 43  1  0  0  0  0
M  END
$$$$

  -OEChem-05262217303D

 43 42  0     1  0  0  0  0  0999 V2000
    3.6415   -1.6904    4.1310 C   0  0  0  0  0  0  0  0  0  0  0  0
    2.7766   -1.4078    4.9454 O   0  0  0  0  0  0  0  0  0  0  0  0
    4.7759   -2.6219    4.5138 C   0  0  0  0  0  0  0  0  0  0  0  0
    5.7361   -2.1259    4.3531 H   0  0  0  0  0  0  0  0  0  0  0  0
    4.6958   -2.9012    5.5680 H   0  0  0  0  0  0  0  0  0  0  0  0
    4.7357   -3.5283    3.9049 H   0  0  0  0  0  0  0  0  0  0  0  0
    3.5834   -1.1719    2.8551 N   0  0  0  0  0  0  0  0  0  0  0  0
    2.4456   -0.4120    2.3215 C   0  0  2  0  0  0  0  0  0  0  0  0
    2.1819   -0.7536    0.8405 C   0  0  0  0  0  0  0  0  0  0  0  0
    3.0177   -1.3716    0.1933 O   0  0  0  0  0  0  0  0  0  0  0  0
    2.7468    1.0807    2.4836 C   0  0  0  0  0  0  0  0  0  0  0  0
    4.2405   -1.5476    2.1714 H   0  0  0  0  0  0  0  0  0  0  0  0
    1.5364   -0.6592    2.8799 H   0  0  0  0  0  0  0  0  0  0  0  0
    3.6464    1.3526    1.9220 H   0  0  0  0  0  0  0  0  0  0  0  0
    1.9116    1.6852    2.1174 H   0  0  0  0  0  0  0  0  0  0  0  0
    2.9088    1.3208    3.5393 H   0  0  0  0  0  0  0  0  0  0  0  0
    0.9947   -0.3839    0.2362 N   0  0  0  0  0  0  0  0  0  0  0  0
    0.7630   -0.4468   -1.2170 C   0  0  2  0  0  0  0  0  0  0  0  0
    1.4659    0.6770   -2.0056 C   0  0  0  0  0  0  0  0  0  0  0  0
    2.4224    0.4166   -2.7225 O   0  0  0  0  0  0  0  0  0  0  0  0
   -0.7521   -0.4859   -1.4602 C   0  0  0  0  0  0  0  0  0  0  0  0
   -1.3886    0.7372   -1.0542 O   0  0  0  0  0  0  0  0  0  0  0  0
    0.3545    0.1822    0.7874 H   0  0  0  0  0  0  0  0  0  0  0  0
    1.1728   -1.3903   -1.5954 H   0  0  0  0  0  0  0  0  0  0  0  0
   -1.1873   -1.3263   -0.9091 H   0  0  0  0  0  0  0  0  0  0  0  0
   -0.9398   -0.6545   -2.5263 H   0  0  0  0  0  0  0  0  0  0  0  0
   -2.3498    0.6916   -1.2208 H   0  0  0  0  0  0  0  0  0  0  0  0
    0.9601    1.9655   -1.9724 N   0  0  0  0  0  0  0  0  0  0  0  0
    1.4553    3.1521   -2.6984 C   0  0  2  0  0  0  0  0  0  0  0  0
    1.2921    3.0830   -4.2342 C   0  0  0  0  0  0  0  0  0  0  0  0
    0.6946    3.9785   -4.8169 O   0  0  0  0  0  0  0  0  0  0  0  0
    2.9072    3.4691   -2.3140 C   0  0  0  0  0  0  0  0  0  0  0  0
    0.0612    2.0425   -1.4940 H   0  0  0  0  0  0  0  0  0  0  0  0
    0.8483    4.0014   -2.3680 H   0  0  0  0  0  0  0  0  0  0  0  0
    3.5951    2.7071   -2.6922 H   0  0  0  0  0  0  0  0  0  0  0  0
    3.2034    4.4343   -2.7366 H   0  0  0  0  0  0  0  0  0  0  0  0
    3.0091    3.5212   -1.2259 H   0  0  0  0  0  0  0  0  0  0  0  0
    1.8008    2.0262   -4.9620 N   0  0  0  0  0  0  0  0  0  0  0  0
    1.6810    1.8932   -6.4066 C   0  0  0  0  0  0  0  0  0  0  0  0
    2.2645    1.2890   -4.4232 H   0  0  0  0  0  0  0  0  0  0  0  0
    2.1548    0.9647   -6.7396 H   0  0  0  0  0  0  0  0  0  0  0  0
    0.6274    1.8704   -6.7037 H   0  0  0  0  0  0  0  0  0  0  0  0
    2.1722    2.7327   -6.9095 H   0  0  0  0  0  0  0  0  0  0  0  0
  1  2  2  0  0  0  0
  1  3  1  0  0  0  0
  1  7  1  0  0  0  0
  3  4  1  0  0  0  0
  3  5  1  0  0  0  0
  3  6  1  0  0  0  0
  7  8  1  0  0  0  0
  7 12  1  0  0  0  0
  8  9  1  0  0  0  0
  8 11  1  0  0  0  0
  8 13  1  0  0  0  0
  9 10  2  0  0  0  0
  9 17  1  0  0  0  0
 11 14  1  0  0  0  0
 11 15  1  0  0  0  0
 11 16  1  0  0  0  0
 17 18  1  0  0  0  0
 17 23  1  0  0  0  0
 18 19  1  0  0  0  0
 18 21  1  0  0  0  0
 18 24  1  0  0  0  0
 19 20  2  0  0  0  0
 19 28  1  0  0  0  0
 21 22  1  0  0  0  0
 21 25  1  0  0  0  0
 21 26  1  0  0  0  0
 22 27  1  0  0  0  0
 28 29  1  0  0  0  0
 28 33  1  0  0  0  0
 29 30  1  0  0  0  0
 29 32  1  0  0  0  0
 29 34  1  0  0  0  0
 30 31  2  0  0  0  0
 30 38  1  0  0  0  0
 32 35  1  0  0  0  0
 32 36  1  0  0  0  0
 32 37  1  0  0  0  0
 38 39  1  0  0  0  0
 38 40  1  0  0  0  0
 39 41  1  0  0  0  0
 39 42  1  0  0  0  0
 39 43  1  0  0  0  0
M  END
$$$$

  -OEChem-05262217303D

 43 42  0     1  0  0  0  0  0999 V2000
    3.5983   -1.7201    4.1940 C   0  0  0  0  0  0  0  0  0  0  0  0
    2.7646   -1.3681    5.0137 O   0  0  0  0  0  0  0  0  0  0  0  0
    4.7285   -2.6454    4.6040 C   0  0  0  0  0  0  0  0  0  0  0  0
    5.6903   -2.1503    4.4494 H   0  0  0  0  0  0  0  0  0  0  0  0
    4.6343   -2.9102    5.6610 H   0  0  0  0  0  0  0  0  0  0  0  0
    4.6975   -3.5605    4.0075 H   0  0  0  0  0  0  0  0  0  0  0  0
    3.5083   -1.2807    2.8903 N   0  0  0  0  0  0  0  0  0  0  0  0
    2.3874   -0.4970    2.3556 C   0  0  2  0  0  0  0  0  0  0  0  0
    2.1416   -0.7985    0.8628 C   0  0  0  0  0  0  0  0  0  0  0  0
    2.9665   -1.4315    0.2160 O   0  0  0  0  0  0  0  0  0  0  0  0
    2.6969    0.9903    2.5574 C   0  0  0  0  0  0  0  0  0  0  0  0
    4.1461   -1.6939    2.2100 H   0  0  0  0  0  0  0  0  0  0  0  0
    1.4691   -0.7519    2.8956 H   0  0  0  0  0  0  0  0  0  0  0  0
    3.6075    1.2682    2.0166 H   0  0  0  0  0  0  0  0  0  0  0  0
    1.8720    1.6097    2.1927 H   0  0  0  0  0  0  0  0  0  0  0  0
    2.8440    1.2058    3.6208 H   0  0  0  0  0  0  0  0  0  0  0  0
    0.9908   -0.3547    0.2391 N   0  0  0  0  0  0  0  0  0  0  0  0
    0.7696   -0.4164   -1.2159 C   0  0  2  0  0  0  0  0  0  0  0  0
    1.5542    0.6437   -2.0120 C   0  0  0  0  0  0  0  0  0  0  0  0
    2.2914    0.2986   -2.9262 O   0  0  0  0  0  0  0  0  0  0  0  0
   -0.7382   -0.3139   -1.4694 C   0  0  0  0  0  0  0  0  0  0  0  0
   -1.2409    0.9747   -1.0796 O   0  0  0  0  0  0  0  0  0  0  0  0
    0.3558    0.2195    0.7881 H   0  0  0  0  0  0  0  0  0  0  0  0
    1.1015   -1.3944   -1.5821 H   0  0  0  0  0  0  0  0  0  0  0  0
   -1.2598   -1.1004   -0.9135 H   0  0  0  0  0  0  0  0  0  0  0  0
   -0.9351   -0.4729   -2.5351 H   0  0  0  0  0  0  0  0  0  0  0  0
   -2.1892    1.0512   -1.2989 H   0  0  0  0  0  0  0  0  0  0  0  0
    1.3395    1.9884   -1.7593 N   0  0  0  0  0  0  0  0  0  0  0  0
    1.9465    3.1430   -2.4511 C   0  0  2  0  0  0  0  0  0  0  0  0
    1.5098    3.3152   -3.9240 C   0  0  0  0  0  0  0  0  0  0  0  0
    1.0333    4.3817   -4.2901 O   0  0  0  0  0  0  0  0  0  0  0  0
    3.4769    3.1152   -2.3322 C   0  0  0  0  0  0  0  0  0  0  0  0
    0.5281    2.1673   -1.1681 H   0  0  0  0  0  0  0  0  0  0  0  0
    1.6052    4.0413   -1.9262 H   0  0  0  0  0  0  0  0  0  0  0  0
    3.9072    2.2987   -2.9192 H   0  0  0  0  0  0  0  0  0  0  0  0
    3.8980    4.0564   -2.6992 H   0  0  0  0  0  0  0  0  0  0  0  0
    3.7746    2.9860   -1.2874 H   0  0  0  0  0  0  0  0  0  0  0  0
    1.6468    2.2890   -4.8371 N   0  0  0  0  0  0  0  0  0  0  0  0
    1.2893    2.3920   -6.2447 C   0  0  0  0  0  0  0  0  0  0  0  0
    2.0358    1.4131   -4.4764 H   0  0  0  0  0  0  0  0  0  0  0  0
    1.9172    3.1368   -6.7444 H   0  0  0  0  0  0  0  0  0  0  0  0
    1.4332    1.4278   -6.7414 H   0  0  0  0  0  0  0  0  0  0  0  0
    0.2398    2.6840   -6.3540 H   0  0  0  0  0  0  0  0  0  0  0  0
  1  2  2  0  0  0  0
  1  3  1  0  0  0  0
  1  7  1  0  0  0  0
  3  4  1  0  0  0  0
  3  5  1  0  0  0  0
  3  6  1  0  0  0  0
  7  8  1  0  0  0  0
  7 12  1  0  0  0  0
  8  9  1  0  0  0  0
  8 11  1  0  0  0  0
  8 13  1  0  0  0  0
  9 10  2  0  0  0  0
  9 17  1  0  0  0  0
 11 14  1  0  0  0  0
 11 15  1  0  0  0  0
 11 16  1  0  0  0  0
 17 18  1  0  0  0  0
 17 23  1  0  0  0  0
 18 19  1  0  0  0  0
 18 21  1  0  0  0  0
 18 24  1  0  0  0  0
 19 20  2  0  0  0  0
 19 28  1  0  0  0  0
 21 22  1  0  0  0  0
 21 25  1  0  0  0  0
 21 26  1  0  0  0  0
 22 27  1  0  0  0  0
 28 29  1  0  0  0  0
 28 33  1  0  0  0  0
 29 30  1  0  0  0  0
 29 32  1  0  0  0  0
 29 34  1  0  0  0  0
 30 31  2  0  0  0  0
 30 38  1  0  0  0  0
 32 35  1  0  0  0  0
 32 36  1  0  0  0  0
 32 37  1  0  0  0  0
 38 39  1  0  0  0  0
 38 40  1  0  0  0  0
 39 41  1  0  0  0  0
 39 42  1  0  0  0  0
 39 43  1  0  0  0  0
M  END
$$$$

  -OEChem-05262217303D

 43 42  0     1  0  0  0  0  0999 V2000
    3.3590   -1.9219    4.4744 C   0  0  0  0  0  0  0  0  0  0  0  0
    2.4580   -1.6274    5.2437 O   0  0  0  0  0  0  0  0  0  0  0  0
    4.4707   -2.8527    4.9208 C   0  0  0  0  0  0  0  0  0  0  0  0
    5.4409   -2.3694    4.7815 H   0  0  0  0  0  0  0  0  0  0  0  0
    4.3514   -3.1043    5.9784 H   0  0  0  0  0  0  0  0  0  0  0  0
    4.4432   -3.7740    4.3341 H   0  0  0  0  0  0  0  0  0  0  0  0
    3.3647   -1.4125    3.1933 N   0  0  0  0  0  0  0  0  0  0  0  0
    2.2758   -0.6191    2.6084 C   0  0  2  0  0  0  0  0  0  0  0  0
    2.2169   -0.7848    1.0743 C   0  0  0  0  0  0  0  0  0  0  0  0
    3.0922   -1.4074    0.4851 O   0  0  0  0  0  0  0  0  0  0  0  0
    2.4866    0.8516    2.9857 C   0  0  0  0  0  0  0  0  0  0  0  0
    4.0609   -1.7818    2.5458 H   0  0  0  0  0  0  0  0  0  0  0  0
    1.3159   -0.9614    3.0106 H   0  0  0  0  0  0  0  0  0  0  0  0
    3.4381    1.2165    2.5859 H   0  0  0  0  0  0  0  0  0  0  0  0
    1.6784    1.4724    2.5877 H   0  0  0  0  0  0  0  0  0  0  0  0
    2.5002    0.9656    4.0743 H   0  0  0  0  0  0  0  0  0  0  0  0
    1.1856   -0.2303    0.3405 N   0  0  0  0  0  0  0  0  0  0  0  0
    1.0381   -0.3712   -1.1187 C   0  0  2  0  0  0  0  0  0  0  0  0
    2.0078    0.4888   -1.9436 C   0  0  0  0  0  0  0  0  0  0  0  0
    2.3536    0.0997   -3.0514 O   0  0  0  0  0  0  0  0  0  0  0  0
   -0.4141   -0.0404   -1.4866 C   0  0  0  0  0  0  0  0  0  0  0  0
   -0.7169    1.3394   -1.2286 O   0  0  0  0  0  0  0  0  0  0  0  0
    0.4535    0.2663    0.8444 H   0  0  0  0  0  0  0  0  0  0  0  0
    1.2281   -1.4147   -1.3935 H   0  0  0  0  0  0  0  0  0  0  0  0
   -1.0887   -0.6762   -0.9039 H   0  0  0  0  0  0  0  0  0  0  0  0
   -0.5870   -0.2580   -2.5462 H   0  0  0  0  0  0  0  0  0  0  0  0
   -0.4789    1.9046   -2.0100 H   0  0  0  0  0  0  0  0  0  0  0  0
    2.2016    1.8126   -1.5799 N   0  0  0  0  0  0  0  0  0  0  0  0
    2.4845    2.8833   -2.5510 C   0  0  2  0  0  0  0  0  0  0  0  0
    1.3655    2.9825   -3.6180 C   0  0  0  0  0  0  0  0  0  0  0  0
    0.1942    2.8902   -3.2555 O   0  0  0  0  0  0  0  0  0  0  0  0
    3.8994    2.7435   -3.1389 C   0  0  0  0  0  0  0  0  0  0  0  0
    1.6537    2.0768   -0.7649 H   0  0  0  0  0  0  0  0  0  0  0  0
    2.4662    3.8322   -2.0069 H   0  0  0  0  0  0  0  0  0  0  0  0
    3.9700    1.8860   -3.8143 H   0  0  0  0  0  0  0  0  0  0  0  0
    4.1689    3.6449   -3.6975 H   0  0  0  0  0  0  0  0  0  0  0  0
    4.6286    2.6074   -2.3344 H   0  0  0  0  0  0  0  0  0  0  0  0
    1.6451    3.1859   -4.9568 N   0  0  0  0  0  0  0  0  0  0  0  0
    0.6195    3.1539   -5.9922 C   0  0  0  0  0  0  0  0  0  0  0  0
    2.6163    3.0793   -5.2363 H   0  0  0  0  0  0  0  0  0  0  0  0
    1.0626    3.3687   -6.9694 H   0  0  0  0  0  0  0  0  0  0  0  0
    0.1484    2.1663   -6.0334 H   0  0  0  0  0  0  0  0  0  0  0  0
   -0.1522    3.9049   -5.7926 H   0  0  0  0  0  0  0  0  0  0  0  0
  1  2  2  0  0  0  0
  1  3  1  0  0  0  0
  1  7  1  0  0  0  0
  3  4  1  0  0  0  0
  3  5  1  0  0  0  0
  3  6  1  0  0  0  0
  7  8  1  0  0  0  0
  7 12  1  0  0  0  0
  8  9  1  0  0  0  0
  8 11  1  0  0  0  0
  8 13  1  0  0  0  0
  9 10  2  0  0  0  0
  9 17  1  0  0  0  0
 11 14  1  0  0  0  0
 11 15  1  0  0  0  0
 11 16  1  0  0  0  0
 17 18  1  0  0  0  0
 17 23  1  0  0  0  0
 18 19  1  0  0  0  0
 18 21  1  0  0  0  0
 18 24  1  0  0  0  0
 19 20  2  0  0  0  0
 19 28  1  0  0  0  0
 21 22  1  0  0  0  0
 21 25  1  0  0  0  0
 21 26  1  0  0  0  0
 22 27  1  0  0  0  0
 28 29  1  0  0  0  0
 28 33  1  0  0  0  0
 29 30  1  0  0  0  0
 29 32  1  0  0  0  0
 29 34  1  0  0  0  0
 30 31  2  0  0  0  0
 30 38  1  0  0  0  0
 32 35  1  0  0  0  0
 32 36  1  0  0  0  0
 32 37  1  0  0  0  0
 38 39  1  0  0  0  0
 38 40  1  0  0  0  0
 39 41  1  0  0  0  0
 39 42  1  0  0  0  0
 39 43  1  0  0  0  0
M  END
$$$$

  -OEChem-05262217303D

 43 42  0     1  0  0  0  0  0999 V2000
    3.3728   -1.8743    4.4982 C   0  0  0  0  0  0  0  0  0  0  0  0
    2.5110   -1.5085    5.2816 O   0  0  0  0  0  0  0  0  0  0  0  0
    4.4427   -2.8539    4.9423 C   0  0  0  0  0  0  0  0  0  0  0  0
    5.4315   -2.4034    4.8274 H   0  0  0  0  0  0  0  0  0  0  0  0
    4.2971   -3.1203    5.9928 H   0  0  0  0  0  0  0  0  0  0  0  0
    4.3909   -3.7628    4.3380 H   0  0  0  0  0  0  0  0  0  0  0  0
    3.3686   -1.4038    3.2024 N   0  0  0  0  0  0  0  0  0  0  0  0
    2.2997   -0.5791    2.6235 C   0  0  2  0  0  0  0  0  0  0  0  0
    2.1859   -0.7914    1.0988 C   0  0  0  0  0  0  0  0  0  0  0  0
    3.0150   -1.4681    0.5023 O   0  0  0  0  0  0  0  0  0  0  0  0
    2.5864    0.8916    2.9477 C   0  0  0  0  0  0  0  0  0  0  0  0
    4.0217   -1.8337    2.5474 H   0  0  0  0  0  0  0  0  0  0  0  0
    1.3381   -0.8638    3.0645 H   0  0  0  0  0  0  0  0  0  0  0  0
    3.5387    1.2025    2.5065 H   0  0  0  0  0  0  0  0  0  0  0  0
    1.7924    1.5356    2.5579 H   0  0  0  0  0  0  0  0  0  0  0  0
    2.6419    1.0369    4.0315 H   0  0  0  0  0  0  0  0  0  0  0  0
    1.1578   -0.2147    0.3787 N   0  0  0  0  0  0  0  0  0  0  0  0
    0.9419   -0.4167   -1.0650 C   0  0  2  0  0  0  0  0  0  0  0  0
    1.9112    0.3360   -1.9874 C   0  0  0  0  0  0  0  0  0  0  0  0
    2.0144   -0.0134   -3.1562 O   0  0  0  0  0  0  0  0  0  0  0  0
   -0.5014    0.0052   -1.3650 C   0  0  0  0  0  0  0  0  0  0  0  0
   -0.6809    1.4145   -1.1517 O   0  0  0  0  0  0  0  0  0  0  0  0
    0.4652    0.3338    0.8857 H   0  0  0  0  0  0  0  0  0  0  0  0
    1.0455   -1.4821   -1.2968 H   0  0  0  0  0  0  0  0  0  0  0  0
   -1.1863   -0.5519   -0.7174 H   0  0  0  0  0  0  0  0  0  0  0  0
   -0.7533   -0.2415   -2.4021 H   0  0  0  0  0  0  0  0  0  0  0  0
   -0.3141    1.9526   -1.9009 H   0  0  0  0  0  0  0  0  0  0  0  0
    2.4477    1.5432   -1.5697 N   0  0  0  0  0  0  0  0  0  0  0  0
    2.8307    2.6172   -2.5022 C   0  0  2  0  0  0  0  0  0  0  0  0
    1.6553    3.0219   -3.4297 C   0  0  0  0  0  0  0  0  0  0  0  0
    0.5116    3.0276   -2.9786 O   0  0  0  0  0  0  0  0  0  0  0  0
    4.1165    2.2436   -3.2597 C   0  0  0  0  0  0  0  0  0  0  0  0
    2.1226    1.8277   -0.6506 H   0  0  0  0  0  0  0  0  0  0  0  0
    3.0618    3.5043   -1.9051 H   0  0  0  0  0  0  0  0  0  0  0  0
    3.9336    1.4462   -3.9863 H   0  0  0  0  0  0  0  0  0  0  0  0
    4.5115    3.1133   -3.7930 H   0  0  0  0  0  0  0  0  0  0  0  0
    4.8800    1.8988   -2.5557 H   0  0  0  0  0  0  0  0  0  0  0  0
    1.8626    3.4184   -4.7384 N   0  0  0  0  0  0  0  0  0  0  0  0
    0.7696    3.7003   -5.6614 C   0  0  0  0  0  0  0  0  0  0  0  0
    2.7884    3.2518   -5.1219 H   0  0  0  0  0  0  0  0  0  0  0  0
    1.1637    4.0703   -6.6128 H   0  0  0  0  0  0  0  0  0  0  0  0
    0.1893    2.7917   -5.8537 H   0  0  0  0  0  0  0  0  0  0  0  0
    0.1026    4.4640   -5.2473 H   0  0  0  0  0  0  0  0  0  0  0  0
  1  2  2  0  0  0  0
  1  3  1  0  0  0  0
  1  7  1  0  0  0  0
  3  4  1  0  0  0  0
  3  5  1  0  0  0  0
  3  6  1  0  0  0  0
  7  8  1  0  0  0  0
  7 12  1  0  0  0  0
  8  9  1  0  0  0  0
  8 11  1  0  0  0  0
  8 13  1  0  0  0  0
  9 10  2  0  0  0  0
  9 17  1  0  0  0  0
 11 14  1  0  0  0  0
 11 15  1  0  0  0  0
 11 16  1  0  0  0  0
 17 18  1  0  0  0  0
 17 23  1  0  0  0  0
 18 19  1  0  0  0  0
 18 21  1  0  0  0  0
 18 24  1  0  0  0  0
 19 20  2  0  0  0  0
 19 28  1  0  0  0  0
 21 22  1  0  0  0  0
 21 25  1  0  0  0  0
 21 26  1  0  0  0  0
 22 27  1  0  0  0  0
 28 29  1  0  0  0  0
 28 33  1  0  0  0  0
 29 30  1  0  0  0  0
 29 32  1  0  0  0  0
 29 34  1  0  0  0  0
 30 31  2  0  0  0  0
 30 38  1  0  0  0  0
 32 35  1  0  0  0  0
 32 36  1  0  0  0  0
 32 37  1  0  0  0  0
 38 39  1  0  0  0  0
 38 40  1  0  0  0  0
 39 41  1  0  0  0  0
 39 42  1  0  0  0  0
 39 43  1  0  0  0  0
M  END
$$$$

  -OEChem-05262217303D

 43 42  0     1  0  0  0  0  0999 V2000
    3.3805   -1.8171    4.5151 C   0  0  0  0  0  0  0  0  0  0  0  0
    2.5584   -1.3764    5.3024 O   0  0  0  0  0  0  0  0  0  0  0  0
    4.4125   -2.8290    4.9758 C   0  0  0  0  0  0  0  0  0  0  0  0
    5.4181   -2.4224    4.8437 H   0  0  0  0  0  0  0  0  0  0  0  0
    4.2636   -3.0644    6.0332 H   0  0  0  0  0  0  0  0  0  0  0  0
    4.3195   -3.7492    4.3939 H   0  0  0  0  0  0  0  0  0  0  0  0
    3.3673   -1.3995    3.2013 N   0  0  0  0  0  0  0  0  0  0  0  0
    2.3264   -0.5457    2.6143 C   0  0  2  0  0  0  0  0  0  0  0  0
    2.1550   -0.8202    1.1053 C   0  0  0  0  0  0  0  0  0  0  0  0
    2.9402   -1.5497    0.5121 O   0  0  0  0  0  0  0  0  0  0  0  0
    2.7025    0.9202    2.8584 C   0  0  0  0  0  0  0  0  0  0  0  0
    3.9826   -1.8868    2.5500 H   0  0  0  0  0  0  0  0  0  0  0  0
    1.3646   -0.7562    3.0950 H   0  0  0  0  0  0  0  0  0  0  0  0
    3.6619    1.1529    2.3857 H   0  0  0  0  0  0  0  0  0  0  0  0
    1.9388    1.5888    2.4500 H   0  0  0  0  0  0  0  0  0  0  0  0
    2.7879    1.1158    3.9322 H   0  0  0  0  0  0  0  0  0  0  0  0
    1.1352   -0.2253    0.3891 N   0  0  0  0  0  0  0  0  0  0  0  0
    0.8720   -0.4627   -1.0421 C   0  0  2  0  0  0  0  0  0  0  0  0
    1.8347    0.2092   -2.0330 C   0  0  0  0  0  0  0  0  0  0  0  0
    1.7275   -0.0347   -3.2282 O   0  0  0  0  0  0  0  0  0  0  0  0
   -0.5593    0.0289   -1.2933 C   0  0  0  0  0  0  0  0  0  0  0  0
   -0.6548    1.4517   -1.1103 O   0  0  0  0  0  0  0  0  0  0  0  0
    0.4912    0.3875    0.8876 H   0  0  0  0  0  0  0  0  0  0  0  0
    0.9121   -1.5386   -1.2419 H   0  0  0  0  0  0  0  0  0  0  0  0
   -1.2474   -0.4744   -0.6060 H   0  0  0  0  0  0  0  0  0  0  0  0
   -0.8663   -0.2280   -2.3130 H   0  0  0  0  0  0  0  0  0  0  0  0
   -0.1669    1.9620   -1.8060 H   0  0  0  0  0  0  0  0  0  0  0  0
    2.6748    1.2228   -1.6027 N   0  0  0  0  0  0  0  0  0  0  0  0
    3.1387    2.3041   -2.4897 C   0  0  2  0  0  0  0  0  0  0  0  0
    1.9644    3.0054   -3.2243 C   0  0  0  0  0  0  0  0  0  0  0  0
    0.8754    3.1097   -2.6635 O   0  0  0  0  0  0  0  0  0  0  0  0
    4.2294    1.7820   -3.4401 C   0  0  0  0  0  0  0  0  0  0  0  0
    2.5720    1.4425   -0.6172 H   0  0  0  0  0  0  0  0  0  0  0  0
    3.6026    3.0700   -1.8614 H   0  0  0  0  0  0  0  0  0  0  0  0
    3.8096    1.1063   -4.1916 H   0  0  0  0  0  0  0  0  0  0  0  0
    4.7171    2.6139   -3.9566 H   0  0  0  0  0  0  0  0  0  0  0  0
    4.9917    1.2369   -2.8748 H   0  0  0  0  0  0  0  0  0  0  0  0
    2.1226    3.5587   -4.4821 N   0  0  0  0  0  0  0  0  0  0  0  0
    1.0151    4.1280   -5.2408 C   0  0  0  0  0  0  0  0  0  0  0  0
    2.9808    3.3317   -4.9753 H   0  0  0  0  0  0  0  0  0  0  0  0
    1.3764    4.5354   -6.1898 H   0  0  0  0  0  0  0  0  0  0  0  0
    0.2643    3.3603   -5.4554 H   0  0  0  0  0  0  0  0  0  0  0  0
    0.5396    4.9385   -4.6784 H   0  0  0  0  0  0  0  0  0  0  0  0
  1  2  2  0  0  0  0
  1  3  1  0  0  0  0
  1  7  1  0  0  0  0
  3  4  1  0  0  0  0
  3  5  1  0  0  0  0
  3  6  1  0  0  0  0
  7  8  1  0  0  0  0
  7 12  1  0  0  0  0
  8  9  1  0  0  0  0
  8 11  1  0  0  0  0
  8 13  1  0  0  0  0
  9 10  2  0  0  0  0
  9 17  1  0  0  0  0
 11 14  1  0  0  0  0
 11 15  1  0  0  0  0
 11 16  1  0  0  0  0
 17 18  1  0  0  0  0
 17 23  1  0  0  0  0
 18 19  1  0  0  0  0
 18 21  1  0  0  0  0
 18 24  1  0  0  0  0
 19 20  2  0  0  0  0
 19 28  1  0  0  0  0
 21 22  1  0  0  0  0
 21 25  1  0  0  0  0
 21 26  1  0  0  0  0
 22 27  1  0  0  0  0
 28 29  1  0  0  0  0
 28 33  1  0  0  0  0
 29 30  1  0  0  0  0
 29 32  1  0  0  0  0
 29 34  1  0  0  0  0
 30 31  2  0  0  0  0
 30 38  1  0  0  0  0
 32 35  1  0  0  0  0
 32 36  1  0  0  0  0
 32 37  1  0  0  0  0
 38 39  1  0  0  0  0
 38 40  1  0  0  0  0
 39 41  1  0  0  0  0
 39 42  1  0  0  0  0
 39 43  1  0  0  0  0
M  END
$$$$

  -OEChem-05262217303D

 43 42  0     1  0  0  0  0  0999 V2000
    3.3971   -1.7454    4.5128 C   0  0  0  0  0  0  0  0  0  0  0  0
    2.6029   -1.2521    5.2973 O   0  0  0  0  0  0  0  0  0  0  0  0
    4.3995   -2.7794    4.9900 C   0  0  0  0  0  0  0  0  0  0  0  0
    5.4173   -2.4226    4.8139 H   0  0  0  0  0  0  0  0  0  0  0  0
    4.2707   -2.9623    6.0605 H   0  0  0  0  0  0  0  0  0  0  0  0
    4.2515   -3.7188    4.4517 H   0  0  0  0  0  0  0  0  0  0  0  0
    3.3784   -1.3688    3.1866 N   0  0  0  0  0  0  0  0  0  0  0  0
    2.3606   -0.4948    2.5883 C   0  0  2  0  0  0  0  0  0  0  0  0
    2.1411   -0.8230    1.0965 C   0  0  0  0  0  0  0  0  0  0  0  0
    2.8990   -1.5842    0.5079 O   0  0  0  0  0  0  0  0  0  0  0  0
    2.8054    0.9616    2.7632 C   0  0  0  0  0  0  0  0  0  0  0  0
    3.9665   -1.8980    2.5432 H   0  0  0  0  0  0  0  0  0  0  0  0
    1.4023   -0.6426    3.0984 H   0  0  0  0  0  0  0  0  0  0  0  0
    3.7562    1.1369    2.2503 H   0  0  0  0  0  0  0  0  0  0  0  0
    2.0556    1.6464    2.3554 H   0  0  0  0  0  0  0  0  0  0  0  0
    2.9363    1.1927    3.8253 H   0  0  0  0  0  0  0  0  0  0  0  0
    1.1223   -0.2279    0.3804 N   0  0  0  0  0  0  0  0  0  0  0  0
    0.8031   -0.5170   -1.0306 C   0  0  2  0  0  0  0  0  0  0  0  0
    1.7505    0.0723   -2.0898 C   0  0  0  0  0  0  0  0  0  0  0  0
    1.4582   -0.0168   -3.2759 O   0  0  0  0  0  0  0  0  0  0  0  0
   -0.6184    0.0240   -1.2387 C   0  0  0  0  0  0  0  0  0  0  0  0
   -0.6469    1.4562   -1.1077 O   0  0  0  0  0  0  0  0  0  0  0  0
    0.5263    0.4443    0.8628 H   0  0  0  0  0  0  0  0  0  0  0  0
    0.7933   -1.6009   -1.1833 H   0  0  0  0  0  0  0  0  0  0  0  0
   -1.2980   -0.4249   -0.5069 H   0  0  0  0  0  0  0  0  0  0  0  0
   -0.9797   -0.2562   -2.2342 H   0  0  0  0  0  0  0  0  0  0  0  0
   -0.0565    1.9137   -1.7544 H   0  0  0  0  0  0  0  0  0  0  0  0
    2.8403    0.8349   -1.7065 N   0  0  0  0  0  0  0  0  0  0  0  0
    3.3864    1.9197   -2.5413 C   0  0  2  0  0  0  0  0  0  0  0  0
    2.2873    2.8999   -3.0352 C   0  0  0  0  0  0  0  0  0  0  0  0
    1.2840    3.0893   -2.3506 O   0  0  0  0  0  0  0  0  0  0  0  0
    4.2302    1.3302   -3.6836 C   0  0  0  0  0  0  0  0  0  0  0  0
    2.9500    0.9151   -0.7007 H   0  0  0  0  0  0  0  0  0  0  0  0
    4.0610    2.5114   -1.9156 H   0  0  0  0  0  0  0  0  0  0  0  0
    3.5969    0.8374   -4.4278 H   0  0  0  0  0  0  0  0  0  0  0  0
    4.8028    2.1176   -4.1825 H   0  0  0  0  0  0  0  0  0  0  0  0
    4.9360    0.5927   -3.2890 H   0  0  0  0  0  0  0  0  0  0  0  0
    2.4313    3.6090   -4.2141 N   0  0  0  0  0  0  0  0  0  0  0  0
    1.3817    4.4619   -4.7586 C   0  0  0  0  0  0  0  0  0  0  0  0
    3.1989    3.3374   -4.8208 H   0  0  0  0  0  0  0  0  0  0  0  0
    1.7211    4.9345   -5.6851 H   0  0  0  0  0  0  0  0  0  0  0  0
    0.4845    3.8729   -4.9772 H   0  0  0  0  0  0  0  0  0  0  0  0
    1.1206    5.2517   -4.0465 H   0  0  0  0  0  0  0  0  0  0  0  0
  1  2  2  0  0  0  0
  1  3  1  0  0  0  0
  1  7  1  0  0  0  0
  3  4  1  0  0  0  0
  3  5  1  0  0  0  0
  3  6  1  0  0  0  0
  7  8  1  0  0  0  0
  7 12  1  0  0  0  0
  8  9  1  0  0  0  0
  8 11  1  0  0  0  0
  8 13  1  0  0  0  0
  9 10  2  0  0  0  0
  9 17  1  0  0  0  0
 11 14  1  0  0  0  0
 11 15  1  0  0  0  0
 11 16  1  0  0  0  0
 17 18  1  0  0  0  0
 17 23  1  0  0  0  0
 18 19  1  0  0  0  0
 18 21  1  0  0  0  0
 18 24  1  0  0  0  0
 19 20  2  0  0  0  0
 19 28  1  0  0  0  0
 21 22  1  0  0  0  0
 21 25  1  0  0  0  0
 21 26  1  0  0  0  0
 22 27  1  0  0  0  0
 28 29  1  0  0  0  0
 28 33  1  0  0  0  0
 29 30  1  0  0  0  0
 29 32  1  0  0  0  0
 29 34  1  0  0  0  0
 30 31  2  0  0  0  0
 30 38  1  0  0  0  0
 32 35  1  0  0  0  0
 32 36  1  0  0  0  0
 32 37  1  0  0  0  0
 38 39  1  0  0  0  0
 38 40  1  0  0  0  0
 39 41  1  0  0  0  0
 39 42  1  0  0  0  0
 39 43  1  0  0  0  0
M  END
$$$$

  -OEChem-05262217303D

 43 42  0     1  0  0  0  0  0999 V2000
    3.3387   -1.7670    4.3718 C   0  0  0  0  0  0  0  0  0  0  0  0
    2.4609   -1.3884    5.1302 O   0  0  0  0  0  0  0  0  0  0  0  0
    4.3888   -2.7516    4.8506 C   0  0  0  0  0  0  0  0  0  0  0  0
    5.3848   -2.3143    4.7478 H   0  0  0  0  0  0  0  0  0  0  0  0
    4.2205   -3.0002    5.9022 H   0  0  0  0  0  0  0  0  0  0  0  0
    4.3379   -3.6693    4.2596 H   0  0  0  0  0  0  0  0  0  0  0  0
    3.3702   -1.3042    3.0730 N   0  0  0  0  0  0  0  0  0  0  0  0
    2.3466   -0.4345    2.4783 C   0  0  2  0  0  0  0  0  0  0  0  0
    2.1752   -0.7014    0.9693 C   0  0  0  0  0  0  0  0  0  0  0  0
    3.0378   -1.2967    0.3337 O   0  0  0  0  0  0  0  0  0  0  0  0
    2.7521    1.0231    2.7216 C   0  0  0  0  0  0  0  0  0  0  0  0
    4.0529   -1.7219    2.4424 H   0  0  0  0  0  0  0  0  0  0  0  0
    1.3782   -0.6251    2.9541 H   0  0  0  0  0  0  0  0  0  0  0  0
    3.7197    1.2348    2.2555 H   0  0  0  0  0  0  0  0  0  0  0  0
    2.0070    1.7070    2.3038 H   0  0  0  0  0  0  0  0  0  0  0  0
    2.8331    1.2195    3.7955 H   0  0  0  0  0  0  0  0  0  0  0  0
    1.1001   -0.1860    0.2743 N   0  0  0  0  0  0  0  0  0  0  0  0
    0.7909   -0.4543   -1.1444 C   0  0  2  0  0  0  0  0  0  0  0  0
    1.6965    0.2826   -2.1580 C   0  0  0  0  0  0  0  0  0  0  0  0
    1.2764    0.5257   -3.2839 O   0  0  0  0  0  0  0  0  0  0  0  0
   -0.6917   -0.1171   -1.3537 C   0  0  0  0  0  0  0  0  0  0  0  0
   -0.9121    1.2874   -1.1780 O   0  0  0  0  0  0  0  0  0  0  0  0
    0.4305    0.3797    0.7948 H   0  0  0  0  0  0  0  0  0  0  0  0
    0.9211   -1.5242   -1.3355 H   0  0  0  0  0  0  0  0  0  0  0  0
   -1.2992   -0.6745   -0.6331 H   0  0  0  0  0  0  0  0  0  0  0  0
   -1.0125   -0.4206   -2.3562 H   0  0  0  0  0  0  0  0  0  0  0  0
   -0.5272    1.7818   -1.9271 H   0  0  0  0  0  0  0  0  0  0  0  0
    2.8827    0.8572   -1.7333 N   0  0  0  0  0  0  0  0  0  0  0  0
    3.8390    1.6520   -2.5299 C   0  0  2  0  0  0  0  0  0  0  0  0
    3.3189    3.0423   -2.9631 C   0  0  0  0  0  0  0  0  0  0  0  0
    3.9448    4.0460   -2.6488 O   0  0  0  0  0  0  0  0  0  0  0  0
    4.3542    0.8526   -3.7347 C   0  0  0  0  0  0  0  0  0  0  0  0
    3.2167    0.4874   -0.8431 H   0  0  0  0  0  0  0  0  0  0  0  0
    4.7025    1.8441   -1.8846 H   0  0  0  0  0  0  0  0  0  0  0  0
    3.5663    0.6998   -4.4777 H   0  0  0  0  0  0  0  0  0  0  0  0
    5.1768    1.3904   -4.2161 H   0  0  0  0  0  0  0  0  0  0  0  0
    4.7231   -0.1254   -3.4117 H   0  0  0  0  0  0  0  0  0  0  0  0
    2.1567    3.1752   -3.6966 N   0  0  0  0  0  0  0  0  0  0  0  0
    1.5966    4.4510   -4.1201 C   0  0  0  0  0  0  0  0  0  0  0  0
    1.6578    2.3074   -3.9080 H   0  0  0  0  0  0  0  0  0  0  0  0
    0.6870    4.2873   -4.7061 H   0  0  0  0  0  0  0  0  0  0  0  0
    1.3434    5.0659   -3.2501 H   0  0  0  0  0  0  0  0  0  0  0  0
    2.3142    4.9968   -4.7414 H   0  0  0  0  0  0  0  0  0  0  0  0
  1  2  2  0  0  0  0
  1  3  1  0  0  0  0
  1  7  1  0  0  0  0
  3  4  1  0  0  0  0
  3  5  1  0  0  0  0
  3  6  1  0  0  0  0
  7  8  1  0  0  0  0
  7 12  1  0  0  0  0
  8  9  1  0  0  0  0
  8 11  1  0  0  0  0
  8 13  1  0  0  0  0
  9 10  2  0  0  0  0
  9 17  1  0  0  0  0
 11 14  1  0  0  0  0
 11 15  1  0  0  0  0
 11 16  1  0  0  0  0
 17 18  1  0  0  0  0
 17 23  1  0  0  0  0
 18 19  1  0  0  0  0
 18 21  1  0  0  0  0
 18 24  1  0  0  0  0
 19 20  2  0  0  0  0
 19 28  1  0  0  0  0
 21 22  1  0  0  0  0
 21 25  1  0  0  0  0
 21 26  1  0  0  0  0
 22 27  1  0  0  0  0
 28 29  1  0  0  0  0
 28 33  1  0  0  0  0
 29 30  1  0  0  0  0
 29 32  1  0  0  0  0
 29 34  1  0  0  0  0
 30 31  2  0  0  0  0
 30 38  1  0  0  0  0
 32 35  1  0  0  0  0
 32 36  1  0  0  0  0
 32 37  1  0  0  0  0
 38 39  1  0  0  0  0
 38 40  1  0  0  0  0
 39 41  1  0  0  0  0
 39 42  1  0  0  0  0
 39 43  1  0  0  0  0
M  END
$$$$

  -OEChem-05262217303D

 43 42  0     1  0  0  0  0  0999 V2000
    3.3823   -1.6846    4.3593 C   0  0  0  0  0  0  0  0  0  0  0  0
    2.5480   -1.2375    5.1296 O   0  0  0  0  0  0  0  0  0  0  0  0
    4.4066   -2.6928    4.8452 C   0  0  0  0  0  0  0  0  0  0  0  0
    5.4154   -2.2965    4.7069 H   0  0  0  0  0  0  0  0  0  0  0  0
    4.2540   -2.9030    5.9077 H   0  0  0  0  0  0  0  0  0  0  0  0
    4.3083   -3.6254    4.2844 H   0  0  0  0  0  0  0  0  0  0  0  0
    3.3853   -1.2807    3.0404 N   0  0  0  0  0  0  0  0  0  0  0  0
    2.3731   -0.3996    2.4422 C   0  0  2  0  0  0  0  0  0  0  0  0
    2.1446   -0.7167    0.9504 C   0  0  0  0  0  0  0  0  0  0  0  0
    2.9573   -1.3831    0.3175 O   0  0  0  0  0  0  0  0  0  0  0  0
    2.8313    1.0519    2.6177 C   0  0  0  0  0  0  0  0  0  0  0  0
    4.0300   -1.7512    2.4067 H   0  0  0  0  0  0  0  0  0  0  0  0
    1.4144   -0.5390    2.9539 H   0  0  0  0  0  0  0  0  0  0  0  0
    3.7860    1.2175    2.1081 H   0  0  0  0  0  0  0  0  0  0  0  0
    2.0908    1.7435    2.2044 H   0  0  0  0  0  0  0  0  0  0  0  0
    2.9595    1.2824    3.6803 H   0  0  0  0  0  0  0  0  0  0  0  0
    1.0625   -0.1934    0.2709 N   0  0  0  0  0  0  0  0  0  0  0  0
    0.7131   -0.4716   -1.1362 C   0  0  2  0  0  0  0  0  0  0  0  0
    1.6104    0.2434   -2.1749 C   0  0  0  0  0  0  0  0  0  0  0  0
    1.1205    0.7030   -3.2015 O   0  0  0  0  0  0  0  0  0  0  0  0
   -0.7730   -0.1299   -1.3109 C   0  0  0  0  0  0  0  0  0  0  0  0
   -0.9803    1.2764   -1.1421 O   0  0  0  0  0  0  0  0  0  0  0  0
    0.4373    0.4241    0.7880 H   0  0  0  0  0  0  0  0  0  0  0  0
    0.8283   -1.5447   -1.3195 H   0  0  0  0  0  0  0  0  0  0  0  0
   -1.3656   -0.6788   -0.5715 H   0  0  0  0  0  0  0  0  0  0  0  0
   -1.1184   -0.4391   -2.3034 H   0  0  0  0  0  0  0  0  0  0  0  0
   -0.5962    1.7548   -1.9032 H   0  0  0  0  0  0  0  0  0  0  0  0
    2.9305    0.5224   -1.8647 N   0  0  0  0  0  0  0  0  0  0  0  0
    3.9392    1.1941   -2.7085 C   0  0  2  0  0  0  0  0  0  0  0  0
    3.6913    2.7022   -2.9402 C   0  0  0  0  0  0  0  0  0  0  0  0
    4.5665    3.5089   -2.6548 O   0  0  0  0  0  0  0  0  0  0  0  0
    4.1256    0.4556   -4.0413 C   0  0  0  0  0  0  0  0  0  0  0  0
    3.2729    0.0208   -1.0418 H   0  0  0  0  0  0  0  0  0  0  0  0
    4.8916    1.1271   -2.1721 H   0  0  0  0  0  0  0  0  0  0  0  0
    3.2407    0.5520   -4.6766 H   0  0  0  0  0  0  0  0  0  0  0  0
    4.9802    0.8721   -4.5835 H   0  0  0  0  0  0  0  0  0  0  0  0
    4.3133   -0.6075   -3.8640 H   0  0  0  0  0  0  0  0  0  0  0  0
    2.5028    3.1589   -3.4733 N   0  0  0  0  0  0  0  0  0  0  0  0
    2.2034    4.5623   -3.7213 C   0  0  0  0  0  0  0  0  0  0  0  0
    1.7963    2.4465   -3.6713 H   0  0  0  0  0  0  0  0  0  0  0  0
    1.2039    4.6637   -4.1551 H   0  0  0  0  0  0  0  0  0  0  0  0
    2.2359    5.1318   -2.7866 H   0  0  0  0  0  0  0  0  0  0  0  0
    2.9287    4.9907   -4.4210 H   0  0  0  0  0  0  0  0  0  0  0  0
  1  2  2  0  0  0  0
  1  3  1  0  0  0  0
  1  7  1  0  0  0  0
  3  4  1  0  0  0  0
  3  5  1  0  0  0  0
  3  6  1  0  0  0  0
  7  8  1  0  0  0  0
  7 12  1  0  0  0  0
  8  9  1  0  0  0  0
  8 11  1  0  0  0  0
  8 13  1  0  0  0  0
  9 10  2  0  0  0  0
  9 17  1  0  0  0  0
 11 14  1  0  0  0  0
 11 15  1  0  0  0  0
 11 16  1  0  0  0  0
 17 18  1  0  0  0  0
 17 23  1  0  0  0  0
 18 19  1  0  0  0  0
 18 21  1  0  0  0  0
 18 24  1  0  0  0  0
 19 20  2  0  0  0  0
 19 28  1  0  0  0  0
 21 22  1  0  0  0  0
 21 25  1  0  0  0  0
 21 26  1  0  0  0  0
 22 27  1  0  0  0  0
 28 29  1  0  0  0  0
 28 33  1  0  0  0  0
 29 30  1  0  0  0  0
 29 32  1  0  0  0  0
 29 34  1  0  0  0  0
 30 31  2  0  0  0  0
 30 38  1  0  0  0  0
 32 35  1  0  0  0  0
 32 36  1  0  0  0  0
 32 37  1  0  0  0  0
 38 39  1  0  0  0  0
 38 40  1  0  0  0  0
 39 41  1  0  0  0  0
 39 42  1  0  0  0  0
 39 43  1  0  0  0  0
M  END
$$$$

  -OEChem-05262217303D

 43 42  0     1  0  0  0  0  0999 V2000
    3.5088   -1.1790    4.1772 C   0  0  0  0  0  0  0  0  0  0  0  0
    2.8561   -0.4265    4.8822 O   0  0  0  0  0  0  0  0  0  0  0  0
    4.3902   -2.2412    4.8067 C   0  0  0  0  0  0  0  0  0  0  0  0
    5.4226   -2.1166    4.4711 H   0  0  0  0  0  0  0  0  0  0  0  0
    4.3623   -2.1566    5.8967 H   0  0  0  0  0  0  0  0  0  0  0  0
    4.0385   -3.2355    4.5212 H   0  0  0  0  0  0  0  0  0  0  0  0
    3.4374   -1.0733    2.8043 N   0  0  0  0  0  0  0  0  0  0  0  0
    2.5447   -0.1533    2.0867 C   0  0  2  0  0  0  0  0  0  0  0  0
    2.0119   -0.7755    0.7809 C   0  0  0  0  0  0  0  0  0  0  0  0
    2.5886   -1.7252    0.2583 O   0  0  0  0  0  0  0  0  0  0  0  0
    3.3257    1.1301    1.7815 C   0  0  0  0  0  0  0  0  0  0  0  0
    3.9142   -1.7858    2.2541 H   0  0  0  0  0  0  0  0  0  0  0  0
    1.6779    0.0907    2.7109 H   0  0  0  0  0  0  0  0  0  0  0  0
    4.1909    0.9136    1.1462 H   0  0  0  0  0  0  0  0  0  0  0  0
    2.6911    1.8562    1.2640 H   0  0  0  0  0  0  0  0  0  0  0  0
    3.6826    1.5864    2.7104 H   0  0  0  0  0  0  0  0  0  0  0  0
    0.9625   -0.1934    0.0969 N   0  0  0  0  0  0  0  0  0  0  0  0
    0.4971   -0.5869   -1.2468 C   0  0  2  0  0  0  0  0  0  0  0  0
    1.4424   -0.1015   -2.3728 C   0  0  0  0  0  0  0  0  0  0  0  0
    1.0285    0.6343   -3.2653 O   0  0  0  0  0  0  0  0  0  0  0  0
   -0.9405   -0.0719   -1.4046 C   0  0  0  0  0  0  0  0  0  0  0  0
   -0.9559    1.3594   -1.4072 O   0  0  0  0  0  0  0  0  0  0  0  0
    0.5558    0.6518    0.4967 H   0  0  0  0  0  0  0  0  0  0  0  0
    0.4635   -1.6794   -1.3086 H   0  0  0  0  0  0  0  0  0  0  0  0
   -1.5609   -0.4461   -0.5833 H   0  0  0  0  0  0  0  0  0  0  0  0
   -1.3680   -0.4458   -2.3411 H   0  0  0  0  0  0  0  0  0  0  0  0
   -0.4754    1.6753   -2.2007 H   0  0  0  0  0  0  0  0  0  0  0  0
    2.8063   -0.2696   -2.2055 N   0  0  0  0  0  0  0  0  0  0  0  0
    3.8858    0.5090   -2.8366 C   0  0  2  0  0  0  0  0  0  0  0  0
    3.8519    1.9987   -2.4302 C   0  0  0  0  0  0  0  0  0  0  0  0
    4.6623    2.4211   -1.6159 O   0  0  0  0  0  0  0  0  0  0  0  0
    3.9100    0.3241   -4.3611 C   0  0  0  0  0  0  0  0  0  0  0  0
    3.0586   -0.8404   -1.3934 H   0  0  0  0  0  0  0  0  0  0  0  0
    4.8329    0.1100   -2.4584 H   0  0  0  0  0  0  0  0  0  0  0  0
    3.0312    0.7684   -4.8358 H   0  0  0  0  0  0  0  0  0  0  0  0
    4.8009    0.8019   -4.7804 H   0  0  0  0  0  0  0  0  0  0  0  0
    3.9380   -0.7406   -4.6114 H   0  0  0  0  0  0  0  0  0  0  0  0
    2.8460    2.8306   -2.8813 N   0  0  0  0  0  0  0  0  0  0  0  0
    2.6353    4.1812   -2.3780 C   0  0  0  0  0  0  0  0  0  0  0  0
    2.0875    2.3651   -3.3839 H   0  0  0  0  0  0  0  0  0  0  0  0
    1.8120    4.6599   -2.9167 H   0  0  0  0  0  0  0  0  0  0  0  0
    2.3872    4.1583   -1.3119 H   0  0  0  0  0  0  0  0  0  0  0  0
    3.5363    4.7880   -2.5177 H   0  0  0  0  0  0  0  0  0  0  0  0
  1  2  2  0  0  0  0
  1  3  1  0  0  0  0
  1  7  1  0  0  0  0
  3  4  1  0  0  0  0
  3  5  1  0  0  0  0
  3  6  1  0  0  0  0
  7  8  1  0  0  0  0
  7 12  1  0  0  0  0
  8  9  1  0  0  0  0
  8 11  1  0  0  0  0
  8 13  1  0  0  0  0
  9 10  2  0  0  0  0
  9 17  1  0  0  0  0
 11 14  1  0  0  0  0
 11 15  1  0  0  0  0
 11 16  1  0  0  0  0
 17 18  1  0  0  0  0
 17 23  1  0  0  0  0
 18 19  1  0  0  0  0
 18 21  1  0  0  0  0
 18 24  1  0  0  0  0
 19 20  2  0  0  0  0
 19 28  1  0  0  0  0
 21 22  1  0  0  0  0
 21 25  1  0  0  0  0
 21 26  1  0  0  0  0
 22 27  1  0  0  0  0
 28 29  1  0  0  0  0
 28 33  1  0  0  0  0
 29 30  1  0  0  0  0
 29 32  1  0  0  0  0
 29 34  1  0  0  0  0
 30 31  2  0  0  0  0
 30 38  1  0  0  0  0
 32 35  1  0  0  0  0
 32 36  1  0  0  0  0
 32 37  1  0  0  0  0
 38 39  1  0  0  0  0
 38 40  1  0  0  0  0
 39 41  1  0  0  0  0
 39 42  1  0  0  0  0
 39 43  1  0  0  0  0
M  END
$$$$

  -OEChem-05262217303D

 43 42  0     1  0  0  0  0  0999 V2000
    3.5213   -1.2637    4.1567 C   0  0  0  0  0  0  0  0  0  0  0  0
    2.8006   -0.6014    4.8859 O   0  0  0  0  0  0  0  0  0  0  0  0
    4.4257   -2.3305    4.7442 C   0  0  0  0  0  0  0  0  0  0  0  0
    5.4654   -2.1263    4.4768 H   0  0  0  0  0  0  0  0  0  0  0  0
    4.3379   -2.3409    5.8343 H   0  0  0  0  0  0  0  0  0  0  0  0
    4.1438   -3.3134    4.3585 H   0  0  0  0  0  0  0  0  0  0  0  0
    3.5076   -1.0524    2.7940 N   0  0  0  0  0  0  0  0  0  0  0  0
    2.5862   -0.1393    2.1044 C   0  0  2  0  0  0  0  0  0  0  0  0
    2.0600   -0.7400    0.7861 C   0  0  0  0  0  0  0  0  0  0  0  0
    2.6638   -1.6513    0.2259 O   0  0  0  0  0  0  0  0  0  0  0  0
    3.3324    1.1701    1.8303 C   0  0  0  0  0  0  0  0  0  0  0  0
    4.0386   -1.7023    2.2167 H   0  0  0  0  0  0  0  0  0  0  0  0
    1.7166    0.0680    2.7375 H   0  0  0  0  0  0  0  0  0  0  0  0
    4.1979    0.9926    1.1830 H   0  0  0  0  0  0  0  0  0  0  0  0
    2.6746    1.8933    1.3388 H   0  0  0  0  0  0  0  0  0  0  0  0
    3.6839    1.6080    2.7700 H   0  0  0  0  0  0  0  0  0  0  0  0
    0.9569   -0.2000    0.1535 N   0  0  0  0  0  0  0  0  0  0  0  0
    0.4786   -0.5949   -1.1826 C   0  0  2  0  0  0  0  0  0  0  0  0
    1.3666   -0.0296   -2.3155 C   0  0  0  0  0  0  0  0  0  0  0  0
    0.9414    0.8228   -3.0917 O   0  0  0  0  0  0  0  0  0  0  0  0
   -0.9895   -0.1585   -1.2892 C   0  0  0  0  0  0  0  0  0  0  0  0
   -1.0850    1.2693   -1.2620 O   0  0  0  0  0  0  0  0  0  0  0  0
    0.5127    0.6089    0.5870 H   0  0  0  0  0  0  0  0  0  0  0  0
    0.5029   -1.6861   -1.2687 H   0  0  0  0  0  0  0  0  0  0  0  0
   -1.5661   -0.5833   -0.4607 H   0  0  0  0  0  0  0  0  0  0  0  0
   -1.4206   -0.5358   -2.2226 H   0  0  0  0  0  0  0  0  0  0  0  0
   -0.6043    1.6293   -2.0382 H   0  0  0  0  0  0  0  0  0  0  0  0
    2.7036   -0.3874   -2.3429 N   0  0  0  0  0  0  0  0  0  0  0  0
    3.7841    0.2468   -3.1207 C   0  0  2  0  0  0  0  0  0  0  0  0
    4.0552    1.7105   -2.7066 C   0  0  0  0  0  0  0  0  0  0  0  0
    5.1032    1.9972   -2.1432 O   0  0  0  0  0  0  0  0  0  0  0  0
    3.5430    0.1195   -4.6319 C   0  0  0  0  0  0  0  0  0  0  0  0
    2.9865   -1.0018   -1.5727 H   0  0  0  0  0  0  0  0  0  0  0  0
    4.7028   -0.3076   -2.9013 H   0  0  0  0  0  0  0  0  0  0  0  0
    2.6853    0.7159   -4.9547 H   0  0  0  0  0  0  0  0  0  0  0  0
    4.4236    0.4665   -5.1814 H   0  0  0  0  0  0  0  0  0  0  0  0
    3.3590   -0.9257   -4.8978 H   0  0  0  0  0  0  0  0  0  0  0  0
    3.0982    2.6881   -2.8945 N   0  0  0  0  0  0  0  0  0  0  0  0
    3.2256    4.0517   -2.3998 C   0  0  0  0  0  0  0  0  0  0  0  0
    2.1875    2.3584   -3.2225 H   0  0  0  0  0  0  0  0  0  0  0  0
    2.3599    4.6467   -2.7067 H   0  0  0  0  0  0  0  0  0  0  0  0
    3.2828    4.0590   -1.3064 H   0  0  0  0  0  0  0  0  0  0  0  0
    4.1279    4.5229   -2.8038 H   0  0  0  0  0  0  0  0  0  0  0  0
  1  2  2  0  0  0  0
  1  3  1  0  0  0  0
  1  7  1  0  0  0  0
  3  4  1  0  0  0  0
  3  5  1  0  0  0  0
  3  6  1  0  0  0  0
  7  8  1  0  0  0  0
  7 12  1  0  0  0  0
  8  9  1  0  0  0  0
  8 11  1  0  0  0  0
  8 13  1  0  0  0  0
  9 10  2  0  0  0  0
  9 17  1  0  0  0  0
 11 14  1  0  0  0  0
 11 15  1  0  0  0  0
 11 16  1  0  0  0  0
 17 18  1  0  0  0  0
 17 23  1  0  0  0  0
 18 19  1  0  0  0  0
 18 21  1  0  0  0  0
 18 24  1  0  0  0  0
 19 20  2  0  0  0  0
 19 28  1  0  0  0  0
 21 22  1  0  0  0  0
 21 25  1  0  0  0  0
 21 26  1  0  0  0  0
 22 27  1  0  0  0  0
 28 29  1  0  0  0  0
 28 33  1  0  0  0  0
 29 30  1  0  0  0  0
 29 32  1  0  0  0  0
 29 34  1  0  0  0  0
 30 31  2  0  0  0  0
 30 38  1  0  0  0  0
 32 35  1  0  0  0  0
 32 36  1  0  0  0  0
 32 37  1  0  0  0  0
 38 39  1  0  0  0  0
 38 40  1  0  0  0  0
 39 41  1  0  0  0  0
 39 42  1  0  0  0  0
 39 43  1  0  0  0  0
M  END
$$$$

  -OEChem-05262217303D

 43 42  0     1  0  0  0  0  0999 V2000
    3.2647   -1.4167    3.8408 C   0  0  0  0  0  0  0  0  0  0  0  0
    2.1252   -1.2870    4.2597 O   0  0  0  0  0  0  0  0  0  0  0  0
    4.1823   -2.4652    4.4406 C   0  0  0  0  0  0  0  0  0  0  0  0
    5.0747   -1.9883    4.8532 H   0  0  0  0  0  0  0  0  0  0  0  0
    3.6673   -3.0029    5.2418 H   0  0  0  0  0  0  0  0  0  0  0  0
    4.4817   -3.1823    3.6722 H   0  0  0  0  0  0  0  0  0  0  0  0
    3.7103   -0.6327    2.7966 N   0  0  0  0  0  0  0  0  0  0  0  0
    2.8061    0.2060    1.9977 C   0  0  2  0  0  0  0  0  0  0  0  0
    2.1818   -0.5653    0.8168 C   0  0  0  0  0  0  0  0  0  0  0  0
    2.7954   -1.4772    0.2669 O   0  0  0  0  0  0  0  0  0  0  0  0
    3.6122    1.3995    1.4770 C   0  0  0  0  0  0  0  0  0  0  0  0
    4.5774   -0.9317    2.3576 H   0  0  0  0  0  0  0  0  0  0  0  0
    1.9930    0.5865    2.6253 H   0  0  0  0  0  0  0  0  0  0  0  0
    4.4241    1.0622    0.8237 H   0  0  0  0  0  0  0  0  0  0  0  0
    2.9689    2.0762    0.9061 H   0  0  0  0  0  0  0  0  0  0  0  0
    4.0452    1.9585    2.3124 H   0  0  0  0  0  0  0  0  0  0  0  0
    1.0040   -0.1333    0.2364 N   0  0  0  0  0  0  0  0  0  0  0  0
    0.4810   -0.6572   -1.0347 C   0  0  2  0  0  0  0  0  0  0  0  0
    1.2785   -0.1034   -2.2352 C   0  0  0  0  0  0  0  0  0  0  0  0
    0.8652    0.8457   -2.8975 O   0  0  0  0  0  0  0  0  0  0  0  0
   -1.0183   -0.3301   -1.0951 C   0  0  0  0  0  0  0  0  0  0  0  0
   -1.2237    1.0848   -1.1682 O   0  0  0  0  0  0  0  0  0  0  0  0
    0.5336    0.6717    0.6476 H   0  0  0  0  0  0  0  0  0  0  0  0
    0.5752   -1.7481   -1.0490 H   0  0  0  0  0  0  0  0  0  0  0  0
   -1.5251   -0.7326   -0.2115 H   0  0  0  0  0  0  0  0  0  0  0  0
   -1.4595   -0.8057   -1.9773 H   0  0  0  0  0  0  0  0  0  0  0  0
   -0.7402    1.4321   -1.9502 H   0  0  0  0  0  0  0  0  0  0  0  0
    2.5404   -0.6247   -2.4633 N   0  0  0  0  0  0  0  0  0  0  0  0
    3.5936   -0.0505   -3.3226 C   0  0  2  0  0  0  0  0  0  0  0  0
    4.1218    1.3115   -2.8179 C   0  0  0  0  0  0  0  0  0  0  0  0
    5.3000    1.4330   -2.5103 O   0  0  0  0  0  0  0  0  0  0  0  0
    3.1541    0.0260   -4.7917 C   0  0  0  0  0  0  0  0  0  0  0  0
    2.8597   -1.2464   -1.7127 H   0  0  0  0  0  0  0  0  0  0  0  0
    4.4426   -0.7413   -3.2854 H   0  0  0  0  0  0  0  0  0  0  0  0
    2.3826    0.7864   -4.9412 H   0  0  0  0  0  0  0  0  0  0  0  0
    4.0096    0.2825   -5.4242 H   0  0  0  0  0  0  0  0  0  0  0  0
    2.7592   -0.9403   -5.1194 H   0  0  0  0  0  0  0  0  0  0  0  0
    3.2700    2.3860   -2.6544 N   0  0  0  0  0  0  0  0  0  0  0  0
    3.6847    3.6893   -2.1549 C   0  0  0  0  0  0  0  0  0  0  0  0
    2.2857    2.2185   -2.8758 H   0  0  0  0  0  0  0  0  0  0  0  0
    2.8228    4.3604   -2.0911 H   0  0  0  0  0  0  0  0  0  0  0  0
    4.1255    3.5955   -1.1570 H   0  0  0  0  0  0  0  0  0  0  0  0
    4.4240    4.1377   -2.8268 H   0  0  0  0  0  0  0  0  0  0  0  0
  1  2  2  0  0  0  0
  1  3  1  0  0  0  0
  1  7  1  0  0  0  0
  3  4  1  0  0  0  0
  3  5  1  0  0  0  0
  3  6  1  0  0  0  0
  7  8  1  0  0  0  0
  7 12  1  0  0  0  0
  8  9  1  0  0  0  0
  8 11  1  0  0  0  0
  8 13  1  0  0  0  0
  9 10  2  0  0  0  0
  9 17  1  0  0  0  0
 11 14  1  0  0  0  0
 11 15  1  0  0  0  0
 11 16  1  0  0  0  0
 17 18  1  0  0  0  0
 17 23  1  0  0  0  0
 18 19  1  0  0  0  0
 18 21  1  0  0  0  0
 18 24  1  0  0  0  0
 19 20  2  0  0  0  0
 19 28  1  0  0  0  0
 21 22  1  0  0  0  0
 21 25  1  0  0  0  0
 21 26  1  0  0  0  0
 22 27  1  0  0  0  0
 28 29  1  0  0  0  0
 28 33  1  0  0  0  0
 29 30  1  0  0  0  0
 29 32  1  0  0  0  0
 29 34  1  0  0  0  0
 30 31  2  0  0  0  0
 30 38  1  0  0  0  0
 32 35  1  0  0  0  0
 32 36  1  0  0  0  0
 32 37  1  0  0  0  0
 38 39  1  0  0  0  0
 38 40  1  0  0  0  0
 39 41  1  0  0  0  0
 39 42  1  0  0  0  0
 39 43  1  0  0  0  0
M  END
$$$$

  -OEChem-05262217303D

 43 42  0     1  0  0  0  0  0999 V2000
    3.3420   -1.4253    3.7919 C   0  0  0  0  0  0  0  0  0  0  0  0
    2.2242   -1.3163    4.2708 O   0  0  0  0  0  0  0  0  0  0  0  0
    4.3082   -2.4581    4.3407 C   0  0  0  0  0  0  0  0  0  0  0  0
    5.2093   -1.9650    4.7135 H   0  0  0  0  0  0  0  0  0  0  0  0
    3.8435   -3.0106    5.1624 H   0  0  0  0  0  0  0  0  0  0  0  0
    4.5857   -3.1646    3.5544 H   0  0  0  0  0  0  0  0  0  0  0  0
    3.7223   -0.6276    2.7325 N   0  0  0  0  0  0  0  0  0  0  0  0
    2.7707    0.2076    1.9866 C   0  0  2  0  0  0  0  0  0  0  0  0
    2.1402   -0.5449    0.7970 C   0  0  0  0  0  0  0  0  0  0  0  0
    2.7616   -1.4296    0.2117 O   0  0  0  0  0  0  0  0  0  0  0  0
    3.5269    1.4410    1.4848 C   0  0  0  0  0  0  0  0  0  0  0  0
    4.5690   -0.9133    2.2471 H   0  0  0  0  0  0  0  0  0  0  0  0
    1.9628    0.5421    2.6468 H   0  0  0  0  0  0  0  0  0  0  0  0
    4.3281    1.1483    0.7979 H   0  0  0  0  0  0  0  0  0  0  0  0
    2.8483    2.1174    0.9557 H   0  0  0  0  0  0  0  0  0  0  0  0
    3.9690    1.9840    2.3261 H   0  0  0  0  0  0  0  0  0  0  0  0
    0.9426   -0.1265    0.2477 N   0  0  0  0  0  0  0  0  0  0  0  0
    0.4272   -0.6517   -1.0233 C   0  0  2  0  0  0  0  0  0  0  0  0
    1.2056   -0.0582   -2.2153 C   0  0  0  0  0  0  0  0  0  0  0  0
    0.8744    1.0076   -2.7297 O   0  0  0  0  0  0  0  0  0  0  0  0
   -1.0789   -0.3565   -1.0768 C   0  0  0  0  0  0  0  0  0  0  0  0
   -1.3175    1.0538   -1.1387 O   0  0  0  0  0  0  0  0  0  0  0  0
    0.4630    0.6665    0.6711 H   0  0  0  0  0  0  0  0  0  0  0  0
    0.5433   -1.7401   -1.0506 H   0  0  0  0  0  0  0  0  0  0  0  0
   -1.5750   -0.7776   -0.1959 H   0  0  0  0  0  0  0  0  0  0  0  0
   -1.5107   -0.8342   -1.9624 H   0  0  0  0  0  0  0  0  0  0  0  0
   -0.7865    1.4358   -1.8734 H   0  0  0  0  0  0  0  0  0  0  0  0
    2.3307   -0.7372   -2.6497 N   0  0  0  0  0  0  0  0  0  0  0  0
    3.3445   -0.2442   -3.6038 C   0  0  2  0  0  0  0  0  0  0  0  0
    4.1478    0.9737   -3.0911 C   0  0  0  0  0  0  0  0  0  0  0  0
    5.3701    0.9258   -3.0610 O   0  0  0  0  0  0  0  0  0  0  0  0
    2.7391    0.0324   -4.9873 C   0  0  0  0  0  0  0  0  0  0  0  0
    2.6526   -1.4414   -1.9801 H   0  0  0  0  0  0  0  0  0  0  0  0
    4.0703   -1.0535   -3.7356 H   0  0  0  0  0  0  0  0  0  0  0  0
    2.0866    0.9098   -4.9711 H   0  0  0  0  0  0  0  0  0  0  0  0
    3.5373    0.2172   -5.7130 H   0  0  0  0  0  0  0  0  0  0  0  0
    2.1566   -0.8296   -5.3260 H   0  0  0  0  0  0  0  0  0  0  0  0
    3.5094    2.1134   -2.6425 N   0  0  0  0  0  0  0  0  0  0  0  0
    4.2009    3.3061   -2.1733 C   0  0  0  0  0  0  0  0  0  0  0  0
    2.4887    2.1129   -2.7059 H   0  0  0  0  0  0  0  0  0  0  0  0
    3.4764    4.0551   -1.8394 H   0  0  0  0  0  0  0  0  0  0  0  0
    4.8590    3.0628   -1.3326 H   0  0  0  0  0  0  0  0  0  0  0  0
    4.8030    3.7402   -2.9784 H   0  0  0  0  0  0  0  0  0  0  0  0
  1  2  2  0  0  0  0
  1  3  1  0  0  0  0
  1  7  1  0  0  0  0
  3  4  1  0  0  0  0
  3  5  1  0  0  0  0
  3  6  1  0  0  0  0
  7  8  1  0  0  0  0
  7 12  1  0  0  0  0
  8  9  1  0  0  0  0
  8 11  1  0  0  0  0
  8 13  1  0  0  0  0
  9 10  2  0  0  0  0
  9 17  1  0  0  0  0
 11 14  1  0  0  0  0
 11 15  1  0  0  0  0
 11 16  1  0  0  0  0
 17 18  1  0  0  0  0
 17 23  1  0  0  0  0
 18 19  1  0  0  0  0
 18 21  1  0  0  0  0
 18 24  1  0  0  0  0
 19 20  2  0  0  0  0
 19 28  1  0  0  0  0
 21 22  1  0  0  0  0
 21 25  1  0  0  0  0
 21 26  1  0  0  0  0
 22 27  1  0  0  0  0
 28 29  1  0  0  0  0
 28 33  1  0  0  0  0
 29 30  1  0  0  0  0
 29 32  1  0  0  0  0
 29 34  1  0  0  0  0
 30 31  2  0  0  0  0
 30 38  1  0  0  0  0
 32 35  1  0  0  0  0
 32 36  1  0  0  0  0
 32 37  1  0  0  0  0
 38 39  1  0  0  0  0
 38 40  1  0  0  0  0
 39 41  1  0  0  0  0
 39 42  1  0  0  0  0
 39 43  1  0  0  0  0
M  END
$$$$

  -OEChem-05262217303D

 43 42  0     1  0  0  0  0  0999 V2000
    3.4993   -1.3244    3.8853 C   0  0  0  0  0  0  0  0  0  0  0  0
    2.5342   -1.0210    4.5681 O   0  0  0  0  0  0  0  0  0  0  0  0
    4.4784   -2.3721    4.3799 C   0  0  0  0  0  0  0  0  0  0  0  0
    5.4822   -1.9451    4.4433 H   0  0  0  0  0  0  0  0  0  0  0  0
    4.1836   -2.7254    5.3720 H   0  0  0  0  0  0  0  0  0  0  0  0
    4.4938   -3.2220    3.6932 H   0  0  0  0  0  0  0  0  0  0  0  0
    3.6990   -0.7306    2.6561 N   0  0  0  0  0  0  0  0  0  0  0  0
    2.6984    0.1117    1.9838 C   0  0  2  0  0  0  0  0  0  0  0  0
    2.0593   -0.6014    0.7754 C   0  0  0  0  0  0  0  0  0  0  0  0
    2.6604   -1.4943    0.1826 O   0  0  0  0  0  0  0  0  0  0  0  0
    3.4028    1.3926    1.5280 C   0  0  0  0  0  0  0  0  0  0  0  0
    4.4012   -1.1675    2.0630 H   0  0  0  0  0  0  0  0  0  0  0  0
    1.8930    0.3836    2.6743 H   0  0  0  0  0  0  0  0  0  0  0  0
    4.1988    1.1600    0.8130 H   0  0  0  0  0  0  0  0  0  0  0  0
    2.6920    2.0715    1.0467 H   0  0  0  0  0  0  0  0  0  0  0  0
    3.8442    1.9078    2.3870 H   0  0  0  0  0  0  0  0  0  0  0  0
    0.8663   -0.1564    0.2384 N   0  0  0  0  0  0  0  0  0  0  0  0
    0.3633   -0.6334   -1.0554 C   0  0  2  0  0  0  0  0  0  0  0  0
    1.1453   -0.0039   -2.2250 C   0  0  0  0  0  0  0  0  0  0  0  0
    0.9584    1.1682   -2.5427 O   0  0  0  0  0  0  0  0  0  0  0  0
   -1.1386   -0.3214   -1.1219 C   0  0  0  0  0  0  0  0  0  0  0  0
   -1.3620    1.0934   -1.1406 O   0  0  0  0  0  0  0  0  0  0  0  0
    0.4228    0.6613    0.6544 H   0  0  0  0  0  0  0  0  0  0  0  0
    0.4711   -1.7212   -1.1154 H   0  0  0  0  0  0  0  0  0  0  0  0
   -1.6547   -0.7680   -0.2652 H   0  0  0  0  0  0  0  0  0  0  0  0
   -1.5589   -0.7636   -2.0314 H   0  0  0  0  0  0  0  0  0  0  0  0
   -0.7683    1.5084   -1.8065 H   0  0  0  0  0  0  0  0  0  0  0  0
    2.0710   -0.7802   -2.9008 N   0  0  0  0  0  0  0  0  0  0  0  0
    3.0118   -0.3238   -3.9451 C   0  0  2  0  0  0  0  0  0  0  0  0
    4.0810    0.6787   -3.4504 C   0  0  0  0  0  0  0  0  0  0  0  0
    5.2606    0.4786   -3.7067 O   0  0  0  0  0  0  0  0  0  0  0  0
    2.2711    0.2256   -5.1721 C   0  0  0  0  0  0  0  0  0  0  0  0
    2.3259   -1.6374   -2.4096 H   0  0  0  0  0  0  0  0  0  0  0  0
    3.5609   -1.2099   -4.2805 H   0  0  0  0  0  0  0  0  0  0  0  0
    1.7885    1.1821   -4.9524 H   0  0  0  0  0  0  0  0  0  0  0  0
    2.9771    0.3835   -5.9935 H   0  0  0  0  0  0  0  0  0  0  0  0
    1.5070   -0.4837   -5.5037 H   0  0  0  0  0  0  0  0  0  0  0  0
    3.7315    1.8002   -2.7238 N   0  0  0  0  0  0  0  0  0  0  0  0
    4.6817    2.8055   -2.2693 C   0  0  0  0  0  0  0  0  0  0  0  0
    2.7296    1.9557   -2.5903 H   0  0  0  0  0  0  0  0  0  0  0  0
    4.1717    3.5586   -1.6611 H   0  0  0  0  0  0  0  0  0  0  0  0
    5.4661    2.3437   -1.6606 H   0  0  0  0  0  0  0  0  0  0  0  0
    5.1478    3.3055   -3.1246 H   0  0  0  0  0  0  0  0  0  0  0  0
  1  2  2  0  0  0  0
  1  3  1  0  0  0  0
  1  7  1  0  0  0  0
  3  4  1  0  0  0  0
  3  5  1  0  0  0  0
  3  6  1  0  0  0  0
  7  8  1  0  0  0  0
  7 12  1  0  0  0  0
  8  9  1  0  0  0  0
  8 11  1  0  0  0  0
  8 13  1  0  0  0  0
  9 10  2  0  0  0  0
  9 17  1  0  0  0  0
 11 14  1  0  0  0  0
 11 15  1  0  0  0  0
 11 16  1  0  0  0  0
 17 18  1  0  0  0  0
 17 23  1  0  0  0  0
 18 19  1  0  0  0  0
 18 21  1  0  0  0  0
 18 24  1  0  0  0  0
 19 20  2  0  0  0  0
 19 28  1  0  0  0  0
 21 22  1  0  0  0  0
 21 25  1  0  0  0  0
 21 26  1  0  0  0  0
 22 27  1  0  0  0  0
 28 29  1  0  0  0  0
 28 33  1  0  0  0  0
 29 30  1  0  0  0  0
 29 32  1  0  0  0  0
 29 34  1  0  0  0  0
 30 31  2  0  0  0  0
 30 38  1  0  0  0  0
 32 35  1  0  0  0  0
 32 36  1  0  0  0  0
 32 37  1  0  0  0  0
 38 39  1  0  0  0  0
 38 40  1  0  0  0  0
 39 41  1  0  0  0  0
 39 42  1  0  0  0  0
 39 43  1  0  0  0  0
M  END
$$$$

  -OEChem-05262217303D

 43 42  0     1  0  0  0  0  0999 V2000
    3.7984   -1.1562    3.9624 C   0  0  0  0  0  0  0  0  0  0  0  0
    3.2149   -0.4366    4.7571 O   0  0  0  0  0  0  0  0  0  0  0  0
    4.8009   -2.1824    4.4553 C   0  0  0  0  0  0  0  0  0  0  0  0
    5.7720   -2.0118    3.9844 H   0  0  0  0  0  0  0  0  0  0  0  0
    4.9175   -2.1046    5.5398 H   0  0  0  0  0  0  0  0  0  0  0  0
    4.4553   -3.1892    4.2091 H   0  0  0  0  0  0  0  0  0  0  0  0
    3.5399   -1.0422    2.6130 N   0  0  0  0  0  0  0  0  0  0  0  0
    2.5140   -0.1644    2.0349 C   0  0  2  0  0  0  0  0  0  0  0  0
    1.9147   -0.7599    0.7451 C   0  0  0  0  0  0  0  0  0  0  0  0
    2.4867   -1.6679    0.1480 O   0  0  0  0  0  0  0  0  0  0  0  0
    3.1557    1.1960    1.7441 C   0  0  0  0  0  0  0  0  0  0  0  0
    3.9724   -1.7243    1.9912 H   0  0  0  0  0  0  0  0  0  0  0  0
    1.6924   -0.0332    2.7478 H   0  0  0  0  0  0  0  0  0  0  0  0
    3.9759    1.0866    1.0271 H   0  0  0  0  0  0  0  0  0  0  0  0
    2.4188    1.8896    1.3280 H   0  0  0  0  0  0  0  0  0  0  0  0
    3.5549    1.6310    2.6660 H   0  0  0  0  0  0  0  0  0  0  0  0
    0.7551   -0.2471    0.1968 N   0  0  0  0  0  0  0  0  0  0  0  0
    0.2906   -0.6179   -1.1459 C   0  0  2  0  0  0  0  0  0  0  0  0
    1.1142    0.0585   -2.2590 C   0  0  0  0  0  0  0  0  0  0  0  0
    1.1088    1.2824   -2.3619 O   0  0  0  0  0  0  0  0  0  0  0  0
   -1.1943   -0.2460   -1.2470 C   0  0  0  0  0  0  0  0  0  0  0  0
   -1.3656    1.1751   -1.1766 O   0  0  0  0  0  0  0  0  0  0  0  0
    0.3544    0.5874    0.6227 H   0  0  0  0  0  0  0  0  0  0  0  0
    0.3675   -1.7026   -1.2713 H   0  0  0  0  0  0  0  0  0  0  0  0
   -1.7604   -0.7286   -0.4435 H   0  0  0  0  0  0  0  0  0  0  0  0
   -1.5938   -0.6104   -2.1993 H   0  0  0  0  0  0  0  0  0  0  0  0
   -0.7059    1.6202   -1.7542 H   0  0  0  0  0  0  0  0  0  0  0  0
    1.8030   -0.7199   -3.1741 N   0  0  0  0  0  0  0  0  0  0  0  0
    2.6534   -0.2424   -4.2854 C   0  0  2  0  0  0  0  0  0  0  0  0
    3.9328    0.5107   -3.8493 C   0  0  0  0  0  0  0  0  0  0  0  0
    5.0102    0.1948   -4.3358 O   0  0  0  0  0  0  0  0  0  0  0  0
    1.8448    0.5897   -5.2905 C   0  0  0  0  0  0  0  0  0  0  0  0
    1.9037   -1.6986   -2.9127 H   0  0  0  0  0  0  0  0  0  0  0  0
    2.9987   -1.1332   -4.8207 H   0  0  0  0  0  0  0  0  0  0  0  0
    1.5532    1.5549   -4.8668 H   0  0  0  0  0  0  0  0  0  0  0  0
    2.4458    0.7799   -6.1854 H   0  0  0  0  0  0  0  0  0  0  0  0
    0.9406    0.0513   -5.5895 H   0  0  0  0  0  0  0  0  0  0  0  0
    3.8850    1.5382   -2.9277 N   0  0  0  0  0  0  0  0  0  0  0  0
    5.0467    2.3012   -2.4937 C   0  0  0  0  0  0  0  0  0  0  0  0
    2.9566    1.7937   -2.5837 H   0  0  0  0  0  0  0  0  0  0  0  0
    4.7564    3.0272   -1.7282 H   0  0  0  0  0  0  0  0  0  0  0  0
    5.8053    1.6355   -2.0691 H   0  0  0  0  0  0  0  0  0  0  0  0
    5.4853    2.8434   -3.3376 H   0  0  0  0  0  0  0  0  0  0  0  0
  1  2  2  0  0  0  0
  1  3  1  0  0  0  0
  1  7  1  0  0  0  0
  3  4  1  0  0  0  0
  3  5  1  0  0  0  0
  3  6  1  0  0  0  0
  7  8  1  0  0  0  0
  7 12  1  0  0  0  0
  8  9  1  0  0  0  0
  8 11  1  0  0  0  0
  8 13  1  0  0  0  0
  9 10  2  0  0  0  0
  9 17  1  0  0  0  0
 11 14  1  0  0  0  0
 11 15  1  0  0  0  0
 11 16  1  0  0  0  0
 17 18  1  0  0  0  0
 17 23  1  0  0  0  0
 18 19  1  0  0  0  0
 18 21  1  0  0  0  0
 18 24  1  0  0  0  0
 19 20  2  0  0  0  0
 19 28  1  0  0  0  0
 21 22  1  0  0  0  0
 21 25  1  0  0  0  0
 21 26  1  0  0  0  0
 22 27  1  0  0  0  0
 28 29  1  0  0  0  0
 28 33  1  0  0  0  0
 29 30  1  0  0  0  0
 29 32  1  0  0  0  0
 29 34  1  0  0  0  0
 30 31  2  0  0  0  0
 30 38  1  0  0  0  0
 32 35  1  0  0  0  0
 32 36  1  0  0  0  0
 32 37  1  0  0  0  0
 38 39  1  0  0  0  0
 38 40  1  0  0  0  0
 39 41  1  0  0  0  0
 39 42  1  0  0  0  0
 39 43  1  0  0  0  0
M  END
$$$$

  -OEChem-05262217303D

 43 42  0     1  0  0  0  0  0999 V2000
    3.8198   -1.2961    3.9925 C   0  0  0  0  0  0  0  0  0  0  0  0
    3.2020   -0.6415    4.8170 O   0  0  0  0  0  0  0  0  0  0  0  0
    4.8370   -2.3268    4.4448 C   0  0  0  0  0  0  0  0  0  0  0  0
    5.8287   -2.0609    4.0709 H   0  0  0  0  0  0  0  0  0  0  0  0
    4.8720   -2.3687    5.5371 H   0  0  0  0  0  0  0  0  0  0  0  0
    4.5639   -3.3138    4.0638 H   0  0  0  0  0  0  0  0  0  0  0  0
    3.5857   -1.1075    2.6467 N   0  0  0  0  0  0  0  0  0  0  0  0
    2.5301   -0.2426    2.1028 C   0  0  2  0  0  0  0  0  0  0  0  0
    1.9619   -0.7971    0.7806 C   0  0  0  0  0  0  0  0  0  0  0  0
    2.5508   -1.6821    0.1667 O   0  0  0  0  0  0  0  0  0  0  0  0
    3.1159    1.1565    1.8879 C   0  0  0  0  0  0  0  0  0  0  0  0
    4.0349   -1.7528    1.9980 H   0  0  0  0  0  0  0  0  0  0  0  0
    1.6985   -0.1808    2.8134 H   0  0  0  0  0  0  0  0  0  0  0  0
    3.9462    1.1190    1.1753 H   0  0  0  0  0  0  0  0  0  0  0  0
    2.3536    1.8384    1.4988 H   0  0  0  0  0  0  0  0  0  0  0  0
    3.4871    1.5609    2.8350 H   0  0  0  0  0  0  0  0  0  0  0  0
    0.7948   -0.2914    0.2421 N   0  0  0  0  0  0  0  0  0  0  0  0
    0.3365   -0.6304   -1.1121 C   0  0  2  0  0  0  0  0  0  0  0  0
    1.1334    0.0816   -2.2223 C   0  0  0  0  0  0  0  0  0  0  0  0
    1.2611    1.3022   -2.1792 O   0  0  0  0  0  0  0  0  0  0  0  0
   -1.1466   -0.2524   -1.2050 C   0  0  0  0  0  0  0  0  0  0  0  0
   -1.3077    1.1685   -1.0993 O   0  0  0  0  0  0  0  0  0  0  0  0
    0.3870    0.5303    0.6855 H   0  0  0  0  0  0  0  0  0  0  0  0
    0.4228   -1.7112   -1.2625 H   0  0  0  0  0  0  0  0  0  0  0  0
   -1.7163   -0.7505   -0.4133 H   0  0  0  0  0  0  0  0  0  0  0  0
   -1.5474   -0.5904   -2.1664 H   0  0  0  0  0  0  0  0  0  0  0  0
   -0.6236    1.6296   -1.6331 H   0  0  0  0  0  0  0  0  0  0  0  0
    1.5644   -0.6263   -3.3324 N   0  0  0  0  0  0  0  0  0  0  0  0
    2.2399   -0.0855   -4.5317 C   0  0  2  0  0  0  0  0  0  0  0  0
    3.6481    0.5055   -4.2846 C   0  0  0  0  0  0  0  0  0  0  0  0
    4.5744    0.1686   -5.0098 O   0  0  0  0  0  0  0  0  0  0  0  0
    1.3469    0.9249   -5.2652 C   0  0  0  0  0  0  0  0  0  0  0  0
    1.5244   -1.6391   -3.2477 H   0  0  0  0  0  0  0  0  0  0  0  0
    2.3870   -0.9285   -5.2148 H   0  0  0  0  0  0  0  0  0  0  0  0
    1.2324    1.8477   -4.6894 H   0  0  0  0  0  0  0  0  0  0  0  0
    1.7909    1.1818   -6.2324 H   0  0  0  0  0  0  0  0  0  0  0  0
    0.3553    0.4983   -5.4430 H   0  0  0  0  0  0  0  0  0  0  0  0
    3.8800    1.4194   -3.2761 N   0  0  0  0  0  0  0  0  0  0  0  0
    5.1745    2.0299   -3.0083 C   0  0  0  0  0  0  0  0  0  0  0  0
    3.0692    1.6899   -2.7149 H   0  0  0  0  0  0  0  0  0  0  0  0
    5.5113    2.6081   -3.8751 H   0  0  0  0  0  0  0  0  0  0  0  0
    5.1030    2.7033   -2.1487 H   0  0  0  0  0  0  0  0  0  0  0  0
    5.9215    1.2612   -2.7841 H   0  0  0  0  0  0  0  0  0  0  0  0
  1  2  2  0  0  0  0
  1  3  1  0  0  0  0
  1  7  1  0  0  0  0
  3  4  1  0  0  0  0
  3  5  1  0  0  0  0
  3  6  1  0  0  0  0
  7  8  1  0  0  0  0
  7 12  1  0  0  0  0
  8  9  1  0  0  0  0
  8 11  1  0  0  0  0
  8 13  1  0  0  0  0
  9 10  2  0  0  0  0
  9 17  1  0  0  0  0
 11 14  1  0  0  0  0
 11 15  1  0  0  0  0
 11 16  1  0  0  0  0
 17 18  1  0  0  0  0
 17 23  1  0  0  0  0
 18 19  1  0  0  0  0
 18 21  1  0  0  0  0
 18 24  1  0  0  0  0
 19 20  2  0  0  0  0
 19 28  1  0  0  0  0
 21 22  1  0  0  0  0
 21 25  1  0  0  0  0
 21 26  1  0  0  0  0
 22 27  1  0  0  0  0
 28 29  1  0  0  0  0
 28 33  1  0  0  0  0
 29 30  1  0  0  0  0
 29 32  1  0  0  0  0
 29 34  1  0  0  0  0
 30 31  2  0  0  0  0
 30 38  1  0  0  0  0
 32 35  1  0  0  0  0
 32 36  1  0  0  0  0
 32 37  1  0  0  0  0
 38 39  1  0  0  0  0
 38 40  1  0  0  0  0
 39 41  1  0  0  0  0
 39 42  1  0  0  0  0
 39 43  1  0  0  0  0
M  END
$$$$

  -OEChem-05262217303D

 43 42  0     1  0  0  0  0  0999 V2000
    3.8144   -1.3252    4.0022 C   0  0  0  0  0  0  0  0  0  0  0  0
    3.1858   -0.6762    4.8231 O   0  0  0  0  0  0  0  0  0  0  0  0
    4.8290   -2.3561    4.4609 C   0  0  0  0  0  0  0  0  0  0  0  0
    5.8298   -2.0667    4.1311 H   0  0  0  0  0  0  0  0  0  0  0  0
    4.8250   -2.4294    5.5522 H   0  0  0  0  0  0  0  0  0  0  0  0
    4.5836   -3.3350    4.0417 H   0  0  0  0  0  0  0  0  0  0  0  0
    3.5958   -1.1285    2.6549 N   0  0  0  0  0  0  0  0  0  0  0  0
    2.5472   -0.2600    2.1032 C   0  0  2  0  0  0  0  0  0  0  0  0
    1.9839   -0.8146    0.7784 C   0  0  0  0  0  0  0  0  0  0  0  0
    2.5822   -1.6902    0.1605 O   0  0  0  0  0  0  0  0  0  0  0  0
    3.1413    1.1359    1.8916 C   0  0  0  0  0  0  0  0  0  0  0  0
    4.0538   -1.7685    2.0072 H   0  0  0  0  0  0  0  0  0  0  0  0
    1.7116   -0.1928    2.8086 H   0  0  0  0  0  0  0  0  0  0  0  0
    3.9801    1.0933    1.1892 H   0  0  0  0  0  0  0  0  0  0  0  0
    2.3867    1.8199    1.4916 H   0  0  0  0  0  0  0  0  0  0  0  0
    3.5029    1.5405    2.8425 H   0  0  0  0  0  0  0  0  0  0  0  0
    0.8045   -0.3260    0.2511 N   0  0  0  0  0  0  0  0  0  0  0  0
    0.3496   -0.6501   -1.1088 C   0  0  2  0  0  0  0  0  0  0  0  0
    1.1171    0.0921   -2.2183 C   0  0  0  0  0  0  0  0  0  0  0  0
    1.4054    1.2737   -2.0555 O   0  0  0  0  0  0  0  0  0  0  0  0
   -1.1342   -0.2766   -1.1883 C   0  0  0  0  0  0  0  0  0  0  0  0
   -1.2966    1.1434   -1.0603 O   0  0  0  0  0  0  0  0  0  0  0  0
    0.3992    0.4957    0.6961 H   0  0  0  0  0  0  0  0  0  0  0  0
    0.4490   -1.7270   -1.2775 H   0  0  0  0  0  0  0  0  0  0  0  0
   -1.6984   -0.7891   -0.4019 H   0  0  0  0  0  0  0  0  0  0  0  0
   -1.5396   -0.6004   -2.1527 H   0  0  0  0  0  0  0  0  0  0  0  0
   -0.6140    1.6208   -1.5782 H   0  0  0  0  0  0  0  0  0  0  0  0
    1.2804   -0.4960   -3.4624 N   0  0  0  0  0  0  0  0  0  0  0  0
    1.8255    0.1330   -4.6851 C   0  0  2  0  0  0  0  0  0  0  0  0
    3.3200    0.5254   -4.6148 C   0  0  0  0  0  0  0  0  0  0  0  0
    4.0657    0.2036   -5.5301 O   0  0  0  0  0  0  0  0  0  0  0  0
    0.9678    1.3284   -5.1239 C   0  0  0  0  0  0  0  0  0  0  0  0
    1.0756   -1.4908   -3.5108 H   0  0  0  0  0  0  0  0  0  0  0  0
    1.7526   -0.6150   -5.4816 H   0  0  0  0  0  0  0  0  0  0  0  0
    1.0710    2.1685   -4.4314 H   0  0  0  0  0  0  0  0  0  0  0  0
    1.2805    1.6679   -6.1166 H   0  0  0  0  0  0  0  0  0  0  0  0
   -0.0874    1.0430   -5.1732 H   0  0  0  0  0  0  0  0  0  0  0  0
    3.8295    1.2405   -3.5495 N   0  0  0  0  0  0  0  0  0  0  0  0
    5.2241    1.6417   -3.4286 C   0  0  0  0  0  0  0  0  0  0  0  0
    3.1636    1.5037   -2.8194 H   0  0  0  0  0  0  0  0  0  0  0  0
    5.5125    2.2835   -4.2677 H   0  0  0  0  0  0  0  0  0  0  0  0
    5.3778    2.1975   -2.4986 H   0  0  0  0  0  0  0  0  0  0  0  0
    5.8754    0.7616   -3.4175 H   0  0  0  0  0  0  0  0  0  0  0  0
  1  2  2  0  0  0  0
  1  3  1  0  0  0  0
  1  7  1  0  0  0  0
  3  4  1  0  0  0  0
  3  5  1  0  0  0  0
  3  6  1  0  0  0  0
  7  8  1  0  0  0  0
  7 12  1  0  0  0  0
  8  9  1  0  0  0  0
  8 11  1  0  0  0  0
  8 13  1  0  0  0  0
  9 10  2  0  0  0  0
  9 17  1  0  0  0  0
 11 14  1  0  0  0  0
 11 15  1  0  0  0  0
 11 16  1  0  0  0  0
 17 18  1  0  0  0  0
 17 23  1  0  0  0  0
 18 19  1  0  0  0  0
 18 21  1  0  0  0  0
 18 24  1  0  0  0  0
 19 20  2  0  0  0  0
 19 28  1  0  0  0  0
 21 22  1  0  0  0  0
 21 25  1  0  0  0  0
 21 26  1  0  0  0  0
 22 27  1  0  0  0  0
 28 29  1  0  0  0  0
 28 33  1  0  0  0  0
 29 30  1  0  0  0  0
 29 32  1  0  0  0  0
 29 34  1  0  0  0  0
 30 31  2  0  0  0  0
 30 38  1  0  0  0  0
 32 35  1  0  0  0  0
 32 36  1  0  0  0  0
 32 37  1  0  0  0  0
 38 39  1  0  0  0  0
 38 40  1  0  0  0  0
 39 41  1  0  0  0  0
 39 42  1  0  0  0  0
 39 43  1  0  0  0  0
M  END
$$$$

  -OEChem-05262217303D

 43 42  0     1  0  0  0  0  0999 V2000
    3.8656   -1.3056    3.9368 C   0  0  0  0  0  0  0  0  0  0  0  0
    3.2529   -0.6598    4.7720 O   0  0  0  0  0  0  0  0  0  0  0  0
    4.8849   -2.3417    4.3719 C   0  0  0  0  0  0  0  0  0  0  0  0
    5.8684   -2.0910    3.9670 H   0  0  0  0  0  0  0  0  0  0  0  0
    4.9503   -2.3713    5.4632 H   0  0  0  0  0  0  0  0  0  0  0  0
    4.5903   -3.3299    4.0101 H   0  0  0  0  0  0  0  0  0  0  0  0
    3.6210   -1.1067    2.5948 N   0  0  0  0  0  0  0  0  0  0  0  0
    2.5453   -0.2579    2.0651 C   0  0  2  0  0  0  0  0  0  0  0  0
    1.9505   -0.8413    0.7675 C   0  0  0  0  0  0  0  0  0  0  0  0
    2.5402   -1.7250    0.1522 O   0  0  0  0  0  0  0  0  0  0  0  0
    3.1140    1.1415    1.8107 C   0  0  0  0  0  0  0  0  0  0  0  0
    4.0608   -1.7523    1.9400 H   0  0  0  0  0  0  0  0  0  0  0  0
    1.7305   -0.1893    2.7941 H   0  0  0  0  0  0  0  0  0  0  0  0
    3.9285    1.0974    1.0806 H   0  0  0  0  0  0  0  0  0  0  0  0
    2.3377    1.8091    1.4242 H   0  0  0  0  0  0  0  0  0  0  0  0
    3.5021    1.5671    2.7416 H   0  0  0  0  0  0  0  0  0  0  0  0
    0.7562   -0.3665    0.2615 N   0  0  0  0  0  0  0  0  0  0  0  0
    0.3106   -0.6700   -1.1066 C   0  0  2  0  0  0  0  0  0  0  0  0
    1.0561    0.1173   -2.2009 C   0  0  0  0  0  0  0  0  0  0  0  0
    1.5441    1.2095   -1.9320 O   0  0  0  0  0  0  0  0  0  0  0  0
   -1.1818   -0.3318   -1.1748 C   0  0  0  0  0  0  0  0  0  0  0  0
   -1.3846    1.0801   -1.0127 O   0  0  0  0  0  0  0  0  0  0  0  0
    0.3669    0.4645    0.7030 H   0  0  0  0  0  0  0  0  0  0  0  0
    0.4398   -1.7393   -1.3022 H   0  0  0  0  0  0  0  0  0  0  0  0
   -1.7276   -0.8763   -0.3970 H   0  0  0  0  0  0  0  0  0  0  0  0
   -1.5847   -0.6465   -2.1431 H   0  0  0  0  0  0  0  0  0  0  0  0
   -0.7676    1.5967   -1.5680 H   0  0  0  0  0  0  0  0  0  0  0  0
    0.9671   -0.2874   -3.5238 N   0  0  0  0  0  0  0  0  0  0  0  0
    1.4614    0.4349   -4.7158 C   0  0  2  0  0  0  0  0  0  0  0  0
    2.9983    0.5889   -4.7999 C   0  0  0  0  0  0  0  0  0  0  0  0
    3.5756    0.2578   -5.8266 O   0  0  0  0  0  0  0  0  0  0  0  0
    0.7673    1.7957   -4.8693 C   0  0  0  0  0  0  0  0  0  0  0  0
    0.5811   -1.2150   -3.6784 H   0  0  0  0  0  0  0  0  0  0  0  0
    1.1741   -0.1637   -5.5869 H   0  0  0  0  0  0  0  0  0  0  0  0
    1.0926    2.4991   -4.0974 H   0  0  0  0  0  0  0  0  0  0  0  0
    1.0085    2.2292   -5.8453 H   0  0  0  0  0  0  0  0  0  0  0  0
   -0.3186    1.6796   -4.8018 H   0  0  0  0  0  0  0  0  0  0  0  0
    3.7319    1.0953   -3.7456 N   0  0  0  0  0  0  0  0  0  0  0  0
    5.1816    1.2333   -3.7511 C   0  0  0  0  0  0  0  0  0  0  0  0
    3.2061    1.3416   -2.9034 H   0  0  0  0  0  0  0  0  0  0  0  0
    5.5026    1.8767   -4.5770 H   0  0  0  0  0  0  0  0  0  0  0  0
    5.5215    1.6811   -2.8124 H   0  0  0  0  0  0  0  0  0  0  0  0
    5.6583    0.2537   -3.8604 H   0  0  0  0  0  0  0  0  0  0  0  0
  1  2  2  0  0  0  0
  1  3  1  0  0  0  0
  1  7  1  0  0  0  0
  3  4  1  0  0  0  0
  3  5  1  0  0  0  0
  3  6  1  0  0  0  0
  7  8  1  0  0  0  0
  7 12  1  0  0  0  0
  8  9  1  0  0  0  0
  8 11  1  0  0  0  0
  8 13  1  0  0  0  0
  9 10  2  0  0  0  0
  9 17  1  0  0  0  0
 11 14  1  0  0  0  0
 11 15  1  0  0  0  0
 11 16  1  0  0  0  0
 17 18  1  0  0  0  0
 17 23  1  0  0  0  0
 18 19  1  0  0  0  0
 18 21  1  0  0  0  0
 18 24  1  0  0  0  0
 19 20  2  0  0  0  0
 19 28  1  0  0  0  0
 21 22  1  0  0  0  0
 21 25  1  0  0  0  0
 21 26  1  0  0  0  0
 22 27  1  0  0  0  0
 28 29  1  0  0  0  0
 28 33  1  0  0  0  0
 29 30  1  0  0  0  0
 29 32  1  0  0  0  0
 29 34  1  0  0  0  0
 30 31  2  0  0  0  0
 30 38  1  0  0  0  0
 32 35  1  0  0  0  0
 32 36  1  0  0  0  0
 32 37  1  0  0  0  0
 38 39  1  0  0  0  0
 38 40  1  0  0  0  0
 39 41  1  0  0  0  0
 39 42  1  0  0  0  0
 39 43  1  0  0  0  0
M  END
$$$$

  -OEChem-05262217303D

 43 42  0     1  0  0  0  0  0999 V2000
    3.9039   -1.3095    3.8790 C   0  0  0  0  0  0  0  0  0  0  0  0
    3.3147   -0.6144    4.6914 O   0  0  0  0  0  0  0  0  0  0  0  0
    4.8898   -2.3612    4.3518 C   0  0  0  0  0  0  0  0  0  0  0  0
    5.8859   -2.1419    3.9597 H   0  0  0  0  0  0  0  0  0  0  0  0
    4.9350   -2.3708    5.4446 H   0  0  0  0  0  0  0  0  0  0  0  0
    4.5776   -3.3489    4.0039 H   0  0  0  0  0  0  0  0  0  0  0  0
    3.6654   -1.1506    2.5302 N   0  0  0  0  0  0  0  0  0  0  0  0
    2.6117   -0.2926    1.9721 C   0  0  2  0  0  0  0  0  0  0  0  0
    1.9355   -0.9434    0.7489 C   0  0  0  0  0  0  0  0  0  0  0  0
    2.4682   -1.8837    0.1655 O   0  0  0  0  0  0  0  0  0  0  0  0
    3.2409    1.0471    1.5805 C   0  0  0  0  0  0  0  0  0  0  0  0
    4.0781   -1.8372    1.9002 H   0  0  0  0  0  0  0  0  0  0  0  0
    1.8319   -0.1198    2.7216 H   0  0  0  0  0  0  0  0  0  0  0  0
    4.0087    0.8998    0.8139 H   0  0  0  0  0  0  0  0  0  0  0  0
    2.4816    1.7275    1.1833 H   0  0  0  0  0  0  0  0  0  0  0  0
    3.7037    1.5179    2.4536 H   0  0  0  0  0  0  0  0  0  0  0  0
    0.7162   -0.4819    0.2887 N   0  0  0  0  0  0  0  0  0  0  0  0
    0.2811   -0.7297   -1.0954 C   0  0  2  0  0  0  0  0  0  0  0  0
    1.2053   -0.1452   -2.1881 C   0  0  0  0  0  0  0  0  0  0  0  0
    2.0759    0.6642   -1.8901 O   0  0  0  0  0  0  0  0  0  0  0  0
   -1.1221   -0.1266   -1.2249 C   0  0  0  0  0  0  0  0  0  0  0  0
   -1.0714    1.3009   -1.0876 O   0  0  0  0  0  0  0  0  0  0  0  0
    0.3832    0.3805    0.7158 H   0  0  0  0  0  0  0  0  0  0  0  0
    0.2205   -1.8107   -1.2560 H   0  0  0  0  0  0  0  0  0  0  0  0
   -1.7796   -0.5459   -0.4555 H   0  0  0  0  0  0  0  0  0  0  0  0
   -1.5511   -0.3847   -2.1984 H   0  0  0  0  0  0  0  0  0  0  0  0
   -0.4328    1.7012   -1.7075 H   0  0  0  0  0  0  0  0  0  0  0  0
    0.8890   -0.3256   -3.5269 N   0  0  0  0  0  0  0  0  0  0  0  0
    1.5619    0.2823   -4.6961 C   0  0  2  0  0  0  0  0  0  0  0  0
    3.0313   -0.1523   -4.9107 C   0  0  0  0  0  0  0  0  0  0  0  0
    3.3974   -0.4795   -6.0315 O   0  0  0  0  0  0  0  0  0  0  0  0
    1.4453    1.8132   -4.6765 C   0  0  0  0  0  0  0  0  0  0  0  0
    0.1769   -1.0238   -3.7230 H   0  0  0  0  0  0  0  0  0  0  0  0
    1.0189   -0.0621   -5.5826 H   0  0  0  0  0  0  0  0  0  0  0  0
    2.0615    2.2501   -3.8854 H   0  0  0  0  0  0  0  0  0  0  0  0
    1.7826    2.2250   -5.6332 H   0  0  0  0  0  0  0  0  0  0  0  0
    0.4057    2.1149   -4.5184 H   0  0  0  0  0  0  0  0  0  0  0  0
    3.9390   -0.1724   -3.8707 N   0  0  0  0  0  0  0  0  0  0  0  0
    5.3387   -0.5463   -4.0143 C   0  0  0  0  0  0  0  0  0  0  0  0
    3.5951    0.1458   -2.9611 H   0  0  0  0  0  0  0  0  0  0  0  0
    5.8535    0.1473   -4.6872 H   0  0  0  0  0  0  0  0  0  0  0  0
    5.8366   -0.5192   -3.0403 H   0  0  0  0  0  0  0  0  0  0  0  0
    5.4247   -1.5604   -4.4181 H   0  0  0  0  0  0  0  0  0  0  0  0
  1  2  2  0  0  0  0
  1  3  1  0  0  0  0
  1  7  1  0  0  0  0
  3  4  1  0  0  0  0
  3  5  1  0  0  0  0
  3  6  1  0  0  0  0
  7  8  1  0  0  0  0
  7 12  1  0  0  0  0
  8  9  1  0  0  0  0
  8 11  1  0  0  0  0
  8 13  1  0  0  0  0
  9 10  2  0  0  0  0
  9 17  1  0  0  0  0
 11 14  1  0  0  0  0
 11 15  1  0  0  0  0
 11 16  1  0  0  0  0
 17 18  1  0  0  0  0
 17 23  1  0  0  0  0
 18 19  1  0  0  0  0
 18 21  1  0  0  0  0
 18 24  1  0  0  0  0
 19 20  2  0  0  0  0
 19 28  1  0  0  0  0
 21 22  1  0  0  0  0
 21 25  1  0  0  0  0
 21 26  1  0  0  0  0
 22 27  1  0  0  0  0
 28 29  1  0  0  0  0
 28 33  1  0  0  0  0
 29 30  1  0  0  0  0
 29 32  1  0  0  0  0
 29 34  1  0  0  0  0
 30 31  2  0  0  0  0
 30 38  1  0  0  0  0
 32 35  1  0  0  0  0
 32 36  1  0  0  0  0
 32 37  1  0  0  0  0
 38 39  1  0  0  0  0
 38 40  1  0  0  0  0
 39 41  1  0  0  0  0
 39 42  1  0  0  0  0
 39 43  1  0  0  0  0
M  END
$$$$

  -OEChem-05262217303D

 43 42  0     1  0  0  0  0  0999 V2000
    3.9696   -1.2817    3.8346 C   0  0  0  0  0  0  0  0  0  0  0  0
    3.4018   -0.5933    4.6678 O   0  0  0  0  0  0  0  0  0  0  0  0
    4.9951   -2.3118    4.2699 C   0  0  0  0  0  0  0  0  0  0  0  0
    5.9731   -2.0654    3.8494 H   0  0  0  0  0  0  0  0  0  0  0  0
    5.0742   -2.3278    5.3606 H   0  0  0  0  0  0  0  0  0  0  0  0
    4.6974   -3.3047    3.9243 H   0  0  0  0  0  0  0  0  0  0  0  0
    3.6724   -1.1335    2.4967 N   0  0  0  0  0  0  0  0  0  0  0  0
    2.5848   -0.2942    1.9767 C   0  0  2  0  0  0  0  0  0  0  0  0
    1.9056   -0.9413    0.7523 C   0  0  0  0  0  0  0  0  0  0  0  0
    2.4267   -1.8969    0.1828 O   0  0  0  0  0  0  0  0  0  0  0  0
    3.1696    1.0714    1.6046 C   0  0  0  0  0  0  0  0  0  0  0  0
    4.0679   -1.8174    1.8527 H   0  0  0  0  0  0  0  0  0  0  0  0
    1.8150   -0.1602    2.7442 H   0  0  0  0  0  0  0  0  0  0  0  0
    3.9179    0.9643    0.8125 H   0  0  0  0  0  0  0  0  0  0  0  0
    2.3832    1.7439    1.2491 H   0  0  0  0  0  0  0  0  0  0  0  0
    3.6473    1.5294    2.4767 H   0  0  0  0  0  0  0  0  0  0  0  0
    0.6809   -0.4875    0.2954 N   0  0  0  0  0  0  0  0  0  0  0  0
    0.2578   -0.7085   -1.0983 C   0  0  2  0  0  0  0  0  0  0  0  0
    1.1770   -0.0821   -2.1779 C   0  0  0  0  0  0  0  0  0  0  0  0
    2.1920    0.5254   -1.8594 O   0  0  0  0  0  0  0  0  0  0  0  0
   -1.1671   -0.1498   -1.2082 C   0  0  0  0  0  0  0  0  0  0  0  0
   -1.1668    1.2737   -1.0268 O   0  0  0  0  0  0  0  0  0  0  0  0
    0.3410    0.3665    0.7330 H   0  0  0  0  0  0  0  0  0  0  0  0
    0.2266   -1.7865   -1.2874 H   0  0  0  0  0  0  0  0  0  0  0  0
   -1.8022   -0.6131   -0.4453 H   0  0  0  0  0  0  0  0  0  0  0  0
   -1.5988   -0.3979   -2.1831 H   0  0  0  0  0  0  0  0  0  0  0  0
   -0.6208    1.7245   -1.6974 H   0  0  0  0  0  0  0  0  0  0  0  0
    0.7248    0.0395   -3.4852 N   0  0  0  0  0  0  0  0  0  0  0  0
    1.4072    0.7185   -4.6093 C   0  0  2  0  0  0  0  0  0  0  0  0
    2.7569    0.0890   -5.0307 C   0  0  0  0  0  0  0  0  0  0  0  0
    2.9266   -0.2267   -6.2006 O   0  0  0  0  0  0  0  0  0  0  0  0
    1.5599    2.2238   -4.3470 C   0  0  0  0  0  0  0  0  0  0  0  0
   -0.1032   -0.5025   -3.7173 H   0  0  0  0  0  0  0  0  0  0  0  0
    0.7497    0.6194   -5.4796 H   0  0  0  0  0  0  0  0  0  0  0  0
    2.2946    2.4204   -3.5610 H   0  0  0  0  0  0  0  0  0  0  0  0
    1.8967    2.7286   -5.2580 H   0  0  0  0  0  0  0  0  0  0  0  0
    0.6017    2.6580   -4.0471 H   0  0  0  0  0  0  0  0  0  0  0  0
    3.7658   -0.1385   -4.1162 N   0  0  0  0  0  0  0  0  0  0  0  0
    5.0322   -0.7806   -4.4384 C   0  0  0  0  0  0  0  0  0  0  0  0
    3.5573    0.0979   -3.1423 H   0  0  0  0  0  0  0  0  0  0  0  0
    5.6657   -0.8315   -3.5475 H   0  0  0  0  0  0  0  0  0  0  0  0
    4.8632   -1.7993   -4.8021 H   0  0  0  0  0  0  0  0  0  0  0  0
    5.5644   -0.2133   -5.2090 H   0  0  0  0  0  0  0  0  0  0  0  0
  1  2  2  0  0  0  0
  1  3  1  0  0  0  0
  1  7  1  0  0  0  0
  3  4  1  0  0  0  0
  3  5  1  0  0  0  0
  3  6  1  0  0  0  0
  7  8  1  0  0  0  0
  7 12  1  0  0  0  0
  8  9  1  0  0  0  0
  8 11  1  0  0  0  0
  8 13  1  0  0  0  0
  9 10  2  0  0  0  0
  9 17  1  0  0  0  0
 11 14  1  0  0  0  0
 11 15  1  0  0  0  0
 11 16  1  0  0  0  0
 17 18  1  0  0  0  0
 17 23  1  0  0  0  0
 18 19  1  0  0  0  0
 18 21  1  0  0  0  0
 18 24  1  0  0  0  0
 19 20  2  0  0  0  0
 19 28  1  0  0  0  0
 21 22  1  0  0  0  0
 21 25  1  0  0  0  0
 21 26  1  0  0  0  0
 22 27  1  0  0  0  0
 28 29  1  0  0  0  0
 28 33  1  0  0  0  0
 29 30  1  0  0  0  0
 29 32  1  0  0  0  0
 29 34  1  0  0  0  0
 30 31  2  0  0  0  0
 30 38  1  0  0  0  0
 32 35  1  0  0  0  0
 32 36  1  0  0  0  0
 32 37  1  0  0  0  0
 38 39  1  0  0  0  0
 38 40  1  0  0  0  0
 39 41  1  0  0  0  0
 39 42  1  0  0  0  0
 39 43  1  0  0  0  0
M  END
$$$$

  -OEChem-05262217303D

 43 42  0     1  0  0  0  0  0999 V2000
    3.9345   -1.3032    3.8602 C   0  0  0  0  0  0  0  0  0  0  0  0
    3.3343   -0.6366    4.6885 O   0  0  0  0  0  0  0  0  0  0  0  0
    4.9619   -2.3263    4.3061 C   0  0  0  0  0  0  0  0  0  0  0  0
    5.9405   -2.0777    3.8886 H   0  0  0  0  0  0  0  0  0  0  0  0
    5.0355   -2.3359    5.3971 H   0  0  0  0  0  0  0  0  0  0  0  0
    4.6697   -3.3223    3.9644 H   0  0  0  0  0  0  0  0  0  0  0  0
    3.6735   -1.1370    2.5170 N   0  0  0  0  0  0  0  0  0  0  0  0
    2.5858   -0.3092    1.9800 C   0  0  2  0  0  0  0  0  0  0  0  0
    1.9304   -0.9656    0.7479 C   0  0  0  0  0  0  0  0  0  0  0  0
    2.4701   -1.9148    0.1861 O   0  0  0  0  0  0  0  0  0  0  0  0
    3.1641    1.0588    1.6088 C   0  0  0  0  0  0  0  0  0  0  0  0
    4.0940   -1.8078    1.8748 H   0  0  0  0  0  0  0  0  0  0  0  0
    1.8042   -0.1788    2.7362 H   0  0  0  0  0  0  0  0  0  0  0  0
    3.9372    0.9508    0.8409 H   0  0  0  0  0  0  0  0  0  0  0  0
    2.3800    1.7161    1.2216 H   0  0  0  0  0  0  0  0  0  0  0  0
    3.6091    1.5332    2.4890 H   0  0  0  0  0  0  0  0  0  0  0  0
    0.6963   -0.5397    0.2894 N   0  0  0  0  0  0  0  0  0  0  0  0
    0.2920   -0.7163   -1.1171 C   0  0  2  0  0  0  0  0  0  0  0  0
    1.1905   -0.0141   -2.1723 C   0  0  0  0  0  0  0  0  0  0  0  0
    2.3154    0.3737   -1.8855 O   0  0  0  0  0  0  0  0  0  0  0  0
   -1.1624   -0.2326   -1.1986 C   0  0  0  0  0  0  0  0  0  0  0  0
   -1.2422    1.1780   -0.9453 O   0  0  0  0  0  0  0  0  0  0  0  0
    0.3194    0.2821    0.7573 H   0  0  0  0  0  0  0  0  0  0  0  0
    0.3112   -1.7856   -1.3516 H   0  0  0  0  0  0  0  0  0  0  0  0
   -1.7653   -0.7671   -0.4562 H   0  0  0  0  0  0  0  0  0  0  0  0
   -1.5861   -0.4600   -2.1819 H   0  0  0  0  0  0  0  0  0  0  0  0
   -0.7492    1.6954   -1.6085 H   0  0  0  0  0  0  0  0  0  0  0  0
    0.6440    0.4230   -3.3733 N   0  0  0  0  0  0  0  0  0  0  0  0
    1.3198    1.2042   -4.4335 C   0  0  2  0  0  0  0  0  0  0  0  0
    2.5043    0.4824   -5.1190 C   0  0  0  0  0  0  0  0  0  0  0  0
    2.4877    0.3330   -6.3333 O   0  0  0  0  0  0  0  0  0  0  0  0
    1.7380    2.5939   -3.9315 C   0  0  0  0  0  0  0  0  0  0  0  0
   -0.2665    0.0360   -3.6071 H   0  0  0  0  0  0  0  0  0  0  0  0
    0.5775    1.3692   -5.2215 H   0  0  0  0  0  0  0  0  0  0  0  0
    2.5594    2.5292   -3.2122 H   0  0  0  0  0  0  0  0  0  0  0  0
    2.0733    3.2086   -4.7728 H   0  0  0  0  0  0  0  0  0  0  0  0
    0.8929    3.0967   -3.4527 H   0  0  0  0  0  0  0  0  0  0  0  0
    3.5665   -0.0138   -4.3902 N   0  0  0  0  0  0  0  0  0  0  0  0
    4.6741   -0.7623   -4.9671 C   0  0  0  0  0  0  0  0  0  0  0  0
    3.4981    0.0756   -3.3724 H   0  0  0  0  0  0  0  0  0  0  0  0
    5.4107   -0.9995   -4.1935 H   0  0  0  0  0  0  0  0  0  0  0  0
    4.3160   -1.6996   -5.4052 H   0  0  0  0  0  0  0  0  0  0  0  0
    5.1695   -0.1739   -5.7465 H   0  0  0  0  0  0  0  0  0  0  0  0
  1  2  2  0  0  0  0
  1  3  1  0  0  0  0
  1  7  1  0  0  0  0
  3  4  1  0  0  0  0
  3  5  1  0  0  0  0
  3  6  1  0  0  0  0
  7  8  1  0  0  0  0
  7 12  1  0  0  0  0
  8  9  1  0  0  0  0
  8 11  1  0  0  0  0
  8 13  1  0  0  0  0
  9 10  2  0  0  0  0
  9 17  1  0  0  0  0
 11 14  1  0  0  0  0
 11 15  1  0  0  0  0
 11 16  1  0  0  0  0
 17 18  1  0  0  0  0
 17 23  1  0  0  0  0
 18 19  1  0  0  0  0
 18 21  1  0  0  0  0
 18 24  1  0  0  0  0
 19 20  2  0  0  0  0
 19 28  1  0  0  0  0
 21 22  1  0  0  0  0
 21 25  1  0  0  0  0
 21 26  1  0  0  0  0
 22 27  1  0  0  0  0
 28 29  1  0  0  0  0
 28 33  1  0  0  0  0
 29 30  1  0  0  0  0
 29 32  1  0  0  0  0
 29 34  1  0  0  0  0
 30 31  2  0  0  0  0
 30 38  1  0  0  0  0
 32 35  1  0  0  0  0
 32 36  1  0  0  0  0
 32 37  1  0  0  0  0
 38 39  1  0  0  0  0
 38 40  1  0  0  0  0
 39 41  1  0  0  0  0
 39 42  1  0  0  0  0
 39 43  1  0  0  0  0
M  END
$$$$

  -OEChem-05262217303D

 43 42  0     1  0  0  0  0  0999 V2000
    3.9270   -1.2957    3.8893 C   0  0  0  0  0  0  0  0  0  0  0  0
    3.3288   -0.6190    4.7111 O   0  0  0  0  0  0  0  0  0  0  0  0
    4.9769   -2.2933    4.3423 C   0  0  0  0  0  0  0  0  0  0  0  0
    5.9514   -2.0228    3.9282 H   0  0  0  0  0  0  0  0  0  0  0  0
    5.0463   -2.2982    5.4339 H   0  0  0  0  0  0  0  0  0  0  0  0
    4.7101   -3.2969    4.0018 H   0  0  0  0  0  0  0  0  0  0  0  0
    3.6441   -1.1614    2.5469 N   0  0  0  0  0  0  0  0  0  0  0  0
    2.5486   -0.3463    2.0066 C   0  0  2  0  0  0  0  0  0  0  0  0
    1.9342   -0.9870    0.7451 C   0  0  0  0  0  0  0  0  0  0  0  0
    2.4924   -1.9290    0.1910 O   0  0  0  0  0  0  0  0  0  0  0  0
    3.0995    1.0451    1.6816 C   0  0  0  0  0  0  0  0  0  0  0  0
    4.0698   -1.8334    1.9090 H   0  0  0  0  0  0  0  0  0  0  0  0
    1.7502   -0.2559    2.7510 H   0  0  0  0  0  0  0  0  0  0  0  0
    3.8854    0.9766    0.9220 H   0  0  0  0  0  0  0  0  0  0  0  0
    2.3055    1.6949    1.3018 H   0  0  0  0  0  0  0  0  0  0  0  0
    3.5218    1.5052    2.5807 H   0  0  0  0  0  0  0  0  0  0  0  0
    0.7006   -0.5773    0.2707 N   0  0  0  0  0  0  0  0  0  0  0  0
    0.3247   -0.7128   -1.1484 C   0  0  2  0  0  0  0  0  0  0  0  0
    1.2183    0.0458   -2.1696 C   0  0  0  0  0  0  0  0  0  0  0  0
    2.4152    0.1973   -1.9719 O   0  0  0  0  0  0  0  0  0  0  0  0
   -1.1475   -0.2845   -1.2313 C   0  0  0  0  0  0  0  0  0  0  0  0
   -1.2895    1.1110   -0.9210 O   0  0  0  0  0  0  0  0  0  0  0  0
    0.2864    0.2102    0.7646 H   0  0  0  0  0  0  0  0  0  0  0  0
    0.3840   -1.7720   -1.4200 H   0  0  0  0  0  0  0  0  0  0  0  0
   -1.7414   -0.8743   -0.5244 H   0  0  0  0  0  0  0  0  0  0  0  0
   -1.5433   -0.4861   -2.2320 H   0  0  0  0  0  0  0  0  0  0  0  0
   -0.7616    1.6752   -1.5156 H   0  0  0  0  0  0  0  0  0  0  0  0
    0.6398    0.7755   -3.2029 N   0  0  0  0  0  0  0  0  0  0  0  0
    1.3325    1.6422   -4.1821 C   0  0  2  0  0  0  0  0  0  0  0  0
    2.3105    0.9015   -5.1248 C   0  0  0  0  0  0  0  0  0  0  0  0
    2.1256    0.9534   -6.3332 O   0  0  0  0  0  0  0  0  0  0  0  0
    2.0187    2.8326   -3.4957 C   0  0  0  0  0  0  0  0  0  0  0  0
   -0.3283    0.5443   -3.4112 H   0  0  0  0  0  0  0  0  0  0  0  0
    0.5572    2.0637   -4.8307 H   0  0  0  0  0  0  0  0  0  0  0  0
    2.8837    2.5125   -2.9077 H   0  0  0  0  0  0  0  0  0  0  0  0
    2.3677    3.5463   -4.2488 H   0  0  0  0  0  0  0  0  0  0  0  0
    1.3165    3.3462   -2.8325 H   0  0  0  0  0  0  0  0  0  0  0  0
    3.3660    0.1605   -4.6323 N   0  0  0  0  0  0  0  0  0  0  0  0
    4.2687   -0.6239   -5.4634 C   0  0  0  0  0  0  0  0  0  0  0  0
    3.4234    0.0781   -3.6130 H   0  0  0  0  0  0  0  0  0  0  0  0
    5.0229   -1.1150   -4.8410 H   0  0  0  0  0  0  0  0  0  0  0  0
    3.7140   -1.3939   -6.0095 H   0  0  0  0  0  0  0  0  0  0  0  0
    4.7823    0.0199   -6.1850 H   0  0  0  0  0  0  0  0  0  0  0  0
  1  2  2  0  0  0  0
  1  3  1  0  0  0  0
  1  7  1  0  0  0  0
  3  4  1  0  0  0  0
  3  5  1  0  0  0  0
  3  6  1  0  0  0  0
  7  8  1  0  0  0  0
  7 12  1  0  0  0  0
  8  9  1  0  0  0  0
  8 11  1  0  0  0  0
  8 13  1  0  0  0  0
  9 10  2  0  0  0  0
  9 17  1  0  0  0  0
 11 14  1  0  0  0  0
 11 15  1  0  0  0  0
 11 16  1  0  0  0  0
 17 18  1  0  0  0  0
 17 23  1  0  0  0  0
 18 19  1  0  0  0  0
 18 21  1  0  0  0  0
 18 24  1  0  0  0  0
 19 20  2  0  0  0  0
 19 28  1  0  0  0  0
 21 22  1  0  0  0  0
 21 25  1  0  0  0  0
 21 26  1  0  0  0  0
 22 27  1  0  0  0  0
 28 29  1  0  0  0  0
 28 33  1  0  0  0  0
 29 30  1  0  0  0  0
 29 32  1  0  0  0  0
 29 34  1  0  0  0  0
 30 31  2  0  0  0  0
 30 38  1  0  0  0  0
 32 35  1  0  0  0  0
 32 36  1  0  0  0  0
 32 37  1  0  0  0  0
 38 39  1  0  0  0  0
 38 40  1  0  0  0  0
 39 41  1  0  0  0  0
 39 42  1  0  0  0  0
 39 43  1  0  0  0  0
M  END
$$$$

  -OEChem-05262217303D

 43 42  0     1  0  0  0  0  0999 V2000
    3.8838   -1.3357    3.9447 C   0  0  0  0  0  0  0  0  0  0  0  0
    3.2431   -0.7103    4.7750 O   0  0  0  0  0  0  0  0  0  0  0  0
    4.9456   -2.3251    4.3863 C   0  0  0  0  0  0  0  0  0  0  0  0
    5.9240   -2.0134    4.0128 H   0  0  0  0  0  0  0  0  0  0  0  0
    4.9836   -2.3751    5.4780 H   0  0  0  0  0  0  0  0  0  0  0  0
    4.7148   -3.3193    3.9961 H   0  0  0  0  0  0  0  0  0  0  0  0
    3.6350   -1.1530    2.6016 N   0  0  0  0  0  0  0  0  0  0  0  0
    2.5214   -0.3606    2.0655 C   0  0  2  0  0  0  0  0  0  0  0  0
    1.9826   -0.9614    0.7511 C   0  0  0  0  0  0  0  0  0  0  0  0
    2.5936   -1.8623    0.1870 O   0  0  0  0  0  0  0  0  0  0  0  0
    3.0138    1.0715    1.8369 C   0  0  0  0  0  0  0  0  0  0  0  0
    4.0941   -1.7900    1.9507 H   0  0  0  0  0  0  0  0  0  0  0  0
    1.6946   -0.3496    2.7839 H   0  0  0  0  0  0  0  0  0  0  0  0
    3.8263    1.0840    1.1028 H   0  0  0  0  0  0  0  0  0  0  0  0
    2.2015    1.7046    1.4678 H   0  0  0  0  0  0  0  0  0  0  0  0
    3.3842    1.4981    2.7746 H   0  0  0  0  0  0  0  0  0  0  0  0
    0.7502   -0.5793    0.2522 N   0  0  0  0  0  0  0  0  0  0  0  0
    0.4026   -0.6866   -1.1767 C   0  0  2  0  0  0  0  0  0  0  0  0
    1.2809    0.1197   -2.1728 C   0  0  0  0  0  0  0  0  0  0  0  0
    2.4994    0.0549   -2.1266 O   0  0  0  0  0  0  0  0  0  0  0  0
   -1.0844   -0.3147   -1.2610 C   0  0  0  0  0  0  0  0  0  0  0  0
   -1.2916    1.0638   -0.9059 O   0  0  0  0  0  0  0  0  0  0  0  0
    0.2751    0.1537    0.7743 H   0  0  0  0  0  0  0  0  0  0  0  0
    0.5034   -1.7361   -1.4739 H   0  0  0  0  0  0  0  0  0  0  0  0
   -1.6662   -0.9556   -0.5895 H   0  0  0  0  0  0  0  0  0  0  0  0
   -1.4506   -0.4932   -2.2776 H   0  0  0  0  0  0  0  0  0  0  0  0
   -0.6770    1.6644   -1.3664 H   0  0  0  0  0  0  0  0  0  0  0  0
    0.7140    1.0901   -2.9931 N   0  0  0  0  0  0  0  0  0  0  0  0
    1.4284    2.0111   -3.9043 C   0  0  2  0  0  0  0  0  0  0  0  0
    2.1610    1.3159   -5.0759 C   0  0  0  0  0  0  0  0  0  0  0  0
    1.8176    1.5644   -6.2236 O   0  0  0  0  0  0  0  0  0  0  0  0
    2.3725    2.9467   -3.1345 C   0  0  0  0  0  0  0  0  0  0  0  0
   -0.2853    0.9862   -3.1544 H   0  0  0  0  0  0  0  0  0  0  0  0
    0.6679    2.6508   -4.3647 H   0  0  0  0  0  0  0  0  0  0  0  0
    3.2336    2.4057   -2.7317 H   0  0  0  0  0  0  0  0  0  0  0  0
    2.7477    3.7288   -3.8020 H   0  0  0  0  0  0  0  0  0  0  0  0
    1.8429    3.4250   -2.3053 H   0  0  0  0  0  0  0  0  0  0  0  0
    3.1626    0.3929   -4.8513 N   0  0  0  0  0  0  0  0  0  0  0  0
    3.8188   -0.3689   -5.9047 C   0  0  0  0  0  0  0  0  0  0  0  0
    3.3294    0.1395   -3.8730 H   0  0  0  0  0  0  0  0  0  0  0  0
    4.5807   -1.0263   -5.4748 H   0  0  0  0  0  0  0  0  0  0  0  0
    3.0914   -0.9855   -6.4428 H   0  0  0  0  0  0  0  0  0  0  0  0
    4.3068    0.3046   -6.6167 H   0  0  0  0  0  0  0  0  0  0  0  0
  1  2  2  0  0  0  0
  1  3  1  0  0  0  0
  1  7  1  0  0  0  0
  3  4  1  0  0  0  0
  3  5  1  0  0  0  0
  3  6  1  0  0  0  0
  7  8  1  0  0  0  0
  7 12  1  0  0  0  0
  8  9  1  0  0  0  0
  8 11  1  0  0  0  0
  8 13  1  0  0  0  0
  9 10  2  0  0  0  0
  9 17  1  0  0  0  0
 11 14  1  0  0  0  0
 11 15  1  0  0  0  0
 11 16  1  0  0  0  0
 17 18  1  0  0  0  0
 17 23  1  0  0  0  0
 18 19  1  0  0  0  0
 18 21  1  0  0  0  0
 18 24  1  0  0  0  0
 19 20  2  0  0  0  0
 19 28  1  0  0  0  0
 21 22  1  0  0  0  0
 21 25  1  0  0  0  0
 21 26  1  0  0  0  0
 22 27  1  0  0  0  0
 28 29  1  0  0  0  0
 28 33  1  0  0  0  0
 29 30  1  0  0  0  0
 29 32  1  0  0  0  0
 29 34  1  0  0  0  0
 30 31  2  0  0  0  0
 30 38  1  0  0  0  0
 32 35  1  0  0  0  0
 32 36  1  0  0  0  0
 32 37  1  0  0  0  0
 38 39  1  0  0  0  0
 38 40  1  0  0  0  0
 39 41  1  0  0  0  0
 39 42  1  0  0  0  0
 39 43  1  0  0  0  0
M  END
$$$$

  -OEChem-05262217303D

 43 42  0     1  0  0  0  0  0999 V2000
    3.8220   -1.3399    4.0732 C   0  0  0  0  0  0  0  0  0  0  0  0
    3.0924   -0.7926    4.8851 O   0  0  0  0  0  0  0  0  0  0  0  0
    4.9203   -2.2750    4.5433 C   0  0  0  0  0  0  0  0  0  0  0  0
    5.8965   -1.8778    4.2546 H   0  0  0  0  0  0  0  0  0  0  0  0
    4.8893   -2.3768    5.6318 H   0  0  0  0  0  0  0  0  0  0  0  0
    4.7888   -3.2622    4.0934 H   0  0  0  0  0  0  0  0  0  0  0  0
    3.6429   -1.1155    2.7250 N   0  0  0  0  0  0  0  0  0  0  0  0
    2.5159   -0.3675    2.1530 C   0  0  2  0  0  0  0  0  0  0  0  0
    2.0826   -0.9447    0.7892 C   0  0  0  0  0  0  0  0  0  0  0  0
    2.7755   -1.7838    0.2279 O   0  0  0  0  0  0  0  0  0  0  0  0
    2.9355    1.0983    2.0044 C   0  0  0  0  0  0  0  0  0  0  0  0
    4.1795   -1.6953    2.0798 H   0  0  0  0  0  0  0  0  0  0  0  0
    1.6514   -0.4307    2.8227 H   0  0  0  0  0  0  0  0  0  0  0  0
    3.7902    1.1846    1.3255 H   0  0  0  0  0  0  0  0  0  0  0  0
    2.1117    1.6974    1.6048 H   0  0  0  0  0  0  0  0  0  0  0  0
    3.2209    1.5104    2.9776 H   0  0  0  0  0  0  0  0  0  0  0  0
    0.8682   -0.5874    0.2315 N   0  0  0  0  0  0  0  0  0  0  0  0
    0.5950   -0.6665   -1.2148 C   0  0  2  0  0  0  0  0  0  0  0  0
    1.5204    0.2048   -2.1002 C   0  0  0  0  0  0  0  0  0  0  0  0
    2.6420   -0.1780   -2.3997 O   0  0  0  0  0  0  0  0  0  0  0  0
   -0.9016   -0.3999   -1.4367 C   0  0  0  0  0  0  0  0  0  0  0  0
   -1.2592    0.9459   -1.0845 O   0  0  0  0  0  0  0  0  0  0  0  0
    0.3576    0.1329    0.7366 H   0  0  0  0  0  0  0  0  0  0  0  0
    0.7822   -1.6985   -1.5316 H   0  0  0  0  0  0  0  0  0  0  0  0
   -1.4850   -1.1023   -0.8319 H   0  0  0  0  0  0  0  0  0  0  0  0
   -1.1520   -0.5818   -2.4876 H   0  0  0  0  0  0  0  0  0  0  0  0
   -2.2267    1.0680   -1.1382 H   0  0  0  0  0  0  0  0  0  0  0  0
    1.0450    1.3806   -2.6572 N   0  0  0  0  0  0  0  0  0  0  0  0
    1.7676    2.3340   -3.5238 C   0  0  2  0  0  0  0  0  0  0  0  0
    2.0994    1.7997   -4.9365 C   0  0  0  0  0  0  0  0  0  0  0  0
    1.7504    2.4424   -5.9184 O   0  0  0  0  0  0  0  0  0  0  0  0
    3.0264    2.8733   -2.8296 C   0  0  0  0  0  0  0  0  0  0  0  0
    0.1125    1.6452   -2.3368 H   0  0  0  0  0  0  0  0  0  0  0  0
    1.1001    3.1885   -3.6755 H   0  0  0  0  0  0  0  0  0  0  0  0
    3.7931    2.0983   -2.7390 H   0  0  0  0  0  0  0  0  0  0  0  0
    3.4468    3.7015   -3.4088 H   0  0  0  0  0  0  0  0  0  0  0  0
    2.7816    3.2407   -1.8285 H   0  0  0  0  0  0  0  0  0  0  0  0
    2.7729    0.6080   -5.1143 N   0  0  0  0  0  0  0  0  0  0  0  0
    3.0861    0.0298   -6.4134 C   0  0  0  0  0  0  0  0  0  0  0  0
    3.0105    0.0932   -4.2613 H   0  0  0  0  0  0  0  0  0  0  0  0
    3.6663   -0.8892   -6.2861 H   0  0  0  0  0  0  0  0  0  0  0  0
    2.1666   -0.2116   -6.9565 H   0  0  0  0  0  0  0  0  0  0  0  0
    3.6768    0.7305   -7.0127 H   0  0  0  0  0  0  0  0  0  0  0  0
  1  2  2  0  0  0  0
  1  3  1  0  0  0  0
  1  7  1  0  0  0  0
  3  4  1  0  0  0  0
  3  5  1  0  0  0  0
  3  6  1  0  0  0  0
  7  8  1  0  0  0  0
  7 12  1  0  0  0  0
  8  9  1  0  0  0  0
  8 11  1  0  0  0  0
  8 13  1  0  0  0  0
  9 10  2  0  0  0  0
  9 17  1  0  0  0  0
 11 14  1  0  0  0  0
 11 15  1  0  0  0  0
 11 16  1  0  0  0  0
 17 18  1  0  0  0  0
 17 23  1  0  0  0  0
 18 19  1  0  0  0  0
 18 21  1  0  0  0  0
 18 24  1  0  0  0  0
 19 20  2  0  0  0  0
 19 28  1  0  0  0  0
 21 22  1  0  0  0  0
 21 25  1  0  0  0  0
 21 26  1  0  0  0  0
 22 27  1  0  0  0  0
 28 29  1  0  0  0  0
 28 33  1  0  0  0  0
 29 30  1  0  0  0  0
 29 32  1  0  0  0  0
 29 34  1  0  0  0  0
 30 31  2  0  0  0  0
 30 38  1  0  0  0  0
 32 35  1  0  0  0  0
 32 36  1  0  0  0  0
 32 37  1  0  0  0  0
 38 39  1  0  0  0  0
 38 40  1  0  0  0  0
 39 41  1  0  0  0  0
 39 42  1  0  0  0  0
 39 43  1  0  0  0  0
M  END
$$$$

  -OEChem-05262217303D

 43 42  0     1  0  0  0  0  0999 V2000
    3.6752   -1.4995    4.1769 C   0  0  0  0  0  0  0  0  0  0  0  0
    2.8730   -1.0392    4.9744 O   0  0  0  0  0  0  0  0  0  0  0  0
    4.7726   -2.4337    4.6512 C   0  0  0  0  0  0  0  0  0  0  0  0
    5.7508   -2.0295    4.3792 H   0  0  0  0  0  0  0  0  0  0  0  0
    4.7280   -2.5464    5.7381 H   0  0  0  0  0  0  0  0  0  0  0  0
    4.6513   -3.4167    4.1894 H   0  0  0  0  0  0  0  0  0  0  0  0
    3.5769   -1.1793    2.8398 N   0  0  0  0  0  0  0  0  0  0  0  0
    2.4664   -0.4211    2.2492 C   0  0  2  0  0  0  0  0  0  0  0  0
    2.1533   -0.8966    0.8156 C   0  0  0  0  0  0  0  0  0  0  0  0
    2.9381   -1.6276    0.2262 O   0  0  0  0  0  0  0  0  0  0  0  0
    2.8423    1.0640    2.2502 C   0  0  0  0  0  0  0  0  0  0  0  0
    4.1802   -1.6857    2.1915 H   0  0  0  0  0  0  0  0  0  0  0  0
    1.5596   -0.5662    2.8463 H   0  0  0  0  0  0  0  0  0  0  0  0
    3.7427    1.2304    1.6496 H   0  0  0  0  0  0  0  0  0  0  0  0
    2.0300    1.6687    1.8361 H   0  0  0  0  0  0  0  0  0  0  0  0
    3.0372    1.4042    3.2723 H   0  0  0  0  0  0  0  0  0  0  0  0
    0.9632   -0.5439    0.2060 N   0  0  0  0  0  0  0  0  0  0  0  0
    0.7434   -0.6119   -1.2495 C   0  0  2  0  0  0  0  0  0  0  0  0
    1.6961    0.2694   -2.0908 C   0  0  0  0  0  0  0  0  0  0  0  0
    2.6906   -0.2169   -2.6103 O   0  0  0  0  0  0  0  0  0  0  0  0
   -0.7430   -0.3377   -1.5245 C   0  0  0  0  0  0  0  0  0  0  0  0
   -1.1112    1.0068   -1.1757 O   0  0  0  0  0  0  0  0  0  0  0  0
    0.3842    0.1173    0.7181 H   0  0  0  0  0  0  0  0  0  0  0  0
    0.9413   -1.6417   -1.5669 H   0  0  0  0  0  0  0  0  0  0  0  0
   -1.3540   -1.0444   -0.9529 H   0  0  0  0  0  0  0  0  0  0  0  0
   -0.9505   -0.5056   -2.5870 H   0  0  0  0  0  0  0  0  0  0  0  0
   -2.0668    1.1467   -1.3209 H   0  0  0  0  0  0  0  0  0  0  0  0
    1.3479    1.5756   -2.3908 N   0  0  0  0  0  0  0  0  0  0  0  0
    2.0763    2.5398   -3.2395 C   0  0  2  0  0  0  0  0  0  0  0  0
    2.1072    2.1739   -4.7414 C   0  0  0  0  0  0  0  0  0  0  0  0
    1.6499    2.9590   -5.5620 O   0  0  0  0  0  0  0  0  0  0  0  0
    3.4924    2.7913   -2.7027 C   0  0  0  0  0  0  0  0  0  0  0  0
    0.4518    1.8682   -1.9981 H   0  0  0  0  0  0  0  0  0  0  0  0
    1.5389    3.4912   -3.1710 H   0  0  0  0  0  0  0  0  0  0  0  0
    4.1276    1.9090   -2.8252 H   0  0  0  0  0  0  0  0  0  0  0  0
    3.9555    3.6218   -3.2445 H   0  0  0  0  0  0  0  0  0  0  0  0
    3.4551    3.0487   -1.6401 H   0  0  0  0  0  0  0  0  0  0  0  0
    2.6228    0.9684   -5.1734 N   0  0  0  0  0  0  0  0  0  0  0  0
    2.6175    0.5254   -6.5601 C   0  0  0  0  0  0  0  0  0  0  0  0
    2.9118    0.3163   -4.4381 H   0  0  0  0  0  0  0  0  0  0  0  0
    3.1569   -0.4222   -6.6535 H   0  0  0  0  0  0  0  0  0  0  0  0
    1.5906    0.3784   -6.9102 H   0  0  0  0  0  0  0  0  0  0  0  0
    3.1075    1.2655   -7.2014 H   0  0  0  0  0  0  0  0  0  0  0  0
  1  2  2  0  0  0  0
  1  3  1  0  0  0  0
  1  7  1  0  0  0  0
  3  4  1  0  0  0  0
  3  5  1  0  0  0  0
  3  6  1  0  0  0  0
  7  8  1  0  0  0  0
  7 12  1  0  0  0  0
  8  9  1  0  0  0  0
  8 11  1  0  0  0  0
  8 13  1  0  0  0  0
  9 10  2  0  0  0  0
  9 17  1  0  0  0  0
 11 14  1  0  0  0  0
 11 15  1  0  0  0  0
 11 16  1  0  0  0  0
 17 18  1  0  0  0  0
 17 23  1  0  0  0  0
 18 19  1  0  0  0  0
 18 21  1  0  0  0  0
 18 24  1  0  0  0  0
 19 20  2  0  0  0  0
 19 28  1  0  0  0  0
 21 22  1  0  0  0  0
 21 25  1  0  0  0  0
 21 26  1  0  0  0  0
 22 27  1  0  0  0  0
 28 29  1  0  0  0  0
 28 33  1  0  0  0  0
 29 30  1  0  0  0  0
 29 32  1  0  0  0  0
 29 34  1  0  0  0  0
 30 31  2  0  0  0  0
 30 38  1  0  0  0  0
 32 35  1  0  0  0  0
 32 36  1  0  0  0  0
 32 37  1  0  0  0  0
 38 39  1  0  0  0  0
 38 40  1  0  0  0  0
 39 41  1  0  0  0  0
 39 42  1  0  0  0  0
 39 43  1  0  0  0  0
M  END
$$$$

  -OEChem-05262217303D

 43 42  0     1  0  0  0  0  0999 V2000
    3.6213   -1.5521    4.2226 C   0  0  0  0  0  0  0  0  0  0  0  0
    2.8211   -1.0968    5.0248 O   0  0  0  0  0  0  0  0  0  0  0  0
    4.7303   -2.4757    4.6892 C   0  0  0  0  0  0  0  0  0  0  0  0
    5.7033   -2.0286    4.4713 H   0  0  0  0  0  0  0  0  0  0  0  0
    4.6520   -2.6442    5.7669 H   0  0  0  0  0  0  0  0  0  0  0  0
    4.6557   -3.4374    4.1757 H   0  0  0  0  0  0  0  0  0  0  0  0
    3.5129   -1.2318    2.8864 N   0  0  0  0  0  0  0  0  0  0  0  0
    2.4025   -0.4672    2.3056 C   0  0  2  0  0  0  0  0  0  0  0  0
    2.1192   -0.8922    0.8503 C   0  0  0  0  0  0  0  0  0  0  0  0
    2.9137   -1.6045    0.2511 O   0  0  0  0  0  0  0  0  0  0  0  0
    2.7569    1.0219    2.3673 C   0  0  0  0  0  0  0  0  0  0  0  0
    4.1197   -1.7278    2.2335 H   0  0  0  0  0  0  0  0  0  0  0  0
    1.4892   -0.6480    2.8826 H   0  0  0  0  0  0  0  0  0  0  0  0
    3.6623    1.2231    1.7852 H   0  0  0  0  0  0  0  0  0  0  0  0
    1.9411    1.6302    1.9659 H   0  0  0  0  0  0  0  0  0  0  0  0
    2.9342    1.3264    3.4039 H   0  0  0  0  0  0  0  0  0  0  0  0
    0.9604   -0.4856    0.2156 N   0  0  0  0  0  0  0  0  0  0  0  0
    0.7542   -0.5721   -1.2407 C   0  0  2  0  0  0  0  0  0  0  0  0
    1.7670    0.2332   -2.0829 C   0  0  0  0  0  0  0  0  0  0  0  0
    2.5670   -0.3491   -2.8029 O   0  0  0  0  0  0  0  0  0  0  0  0
   -0.7010   -0.1907   -1.5433 C   0  0  0  0  0  0  0  0  0  0  0  0
   -0.9631    1.1871   -1.2297 O   0  0  0  0  0  0  0  0  0  0  0  0
    0.3787    0.1766    0.7230 H   0  0  0  0  0  0  0  0  0  0  0  0
    0.8840   -1.6195   -1.5353 H   0  0  0  0  0  0  0  0  0  0  0  0
   -1.3742   -0.8335   -0.9660 H   0  0  0  0  0  0  0  0  0  0  0  0
   -0.9044   -0.3658   -2.6054 H   0  0  0  0  0  0  0  0  0  0  0  0
   -1.8867    1.4162   -1.4489 H   0  0  0  0  0  0  0  0  0  0  0  0
    1.6611    1.6121   -2.1505 N   0  0  0  0  0  0  0  0  0  0  0  0
    2.4900    2.5487   -2.9355 C   0  0  2  0  0  0  0  0  0  0  0  0
    2.2985    2.4566   -4.4666 C   0  0  0  0  0  0  0  0  0  0  0  0
    2.0473    3.4715   -5.1036 O   0  0  0  0  0  0  0  0  0  0  0  0
    3.9733    2.4186   -2.5622 C   0  0  0  0  0  0  0  0  0  0  0  0
    0.8370    1.9864   -1.6781 H   0  0  0  0  0  0  0  0  0  0  0  0
    2.1793    3.5594   -2.6515 H   0  0  0  0  0  0  0  0  0  0  0  0
    4.3860    1.4639   -2.9008 H   0  0  0  0  0  0  0  0  0  0  0  0
    4.5487    3.2227   -3.0311 H   0  0  0  0  0  0  0  0  0  0  0  0
    4.1005    2.4876   -1.4778 H   0  0  0  0  0  0  0  0  0  0  0  0
    2.4102    1.2524   -5.1321 N   0  0  0  0  0  0  0  0  0  0  0  0
    2.2948    1.1003   -6.5754 C   0  0  0  0  0  0  0  0  0  0  0  0
    2.6322    0.4367   -4.5537 H   0  0  0  0  0  0  0  0  0  0  0  0
    3.0974    1.6462   -7.0817 H   0  0  0  0  0  0  0  0  0  0  0  0
    2.3668    0.0433   -6.8495 H   0  0  0  0  0  0  0  0  0  0  0  0
    1.3310    1.4830   -6.9268 H   0  0  0  0  0  0  0  0  0  0  0  0
  1  2  2  0  0  0  0
  1  3  1  0  0  0  0
  1  7  1  0  0  0  0
  3  4  1  0  0  0  0
  3  5  1  0  0  0  0
  3  6  1  0  0  0  0
  7  8  1  0  0  0  0
  7 12  1  0  0  0  0
  8  9  1  0  0  0  0
  8 11  1  0  0  0  0
  8 13  1  0  0  0  0
  9 10  2  0  0  0  0
  9 17  1  0  0  0  0
 11 14  1  0  0  0  0
 11 15  1  0  0  0  0
 11 16  1  0  0  0  0
 17 18  1  0  0  0  0
 17 23  1  0  0  0  0
 18 19  1  0  0  0  0
 18 21  1  0  0  0  0
 18 24  1  0  0  0  0
 19 20  2  0  0  0  0
 19 28  1  0  0  0  0
 21 22  1  0  0  0  0
 21 25  1  0  0  0  0
 21 26  1  0  0  0  0
 22 27  1  0  0  0  0
 28 29  1  0  0  0  0
 28 33  1  0  0  0  0
 29 30  1  0  0  0  0
 29 32  1  0  0  0  0
 29 34  1  0  0  0  0
 30 31  2  0  0  0  0
 30 38  1  0  0  0  0
 32 35  1  0  0  0  0
 32 36  1  0  0  0  0
 32 37  1  0  0  0  0
 38 39  1  0  0  0  0
 38 40  1  0  0  0  0
 39 41  1  0  0  0  0
 39 42  1  0  0  0  0
 39 43  1  0  0  0  0
M  END
$$$$

  -OEChem-05262217303D

 43 42  0     1  0  0  0  0  0999 V2000
    3.5496   -1.6244    4.2794 C   0  0  0  0  0  0  0  0  0  0  0  0
    2.6913   -1.2345    5.0555 O   0  0  0  0  0  0  0  0  0  0  0  0
    4.6579   -2.5404    4.7637 C   0  0  0  0  0  0  0  0  0  0  0  0
    5.6322   -2.0941    4.5501 H   0  0  0  0  0  0  0  0  0  0  0  0
    4.5720   -2.6985    5.8425 H   0  0  0  0  0  0  0  0  0  0  0  0
    4.5898   -3.5071    4.2589 H   0  0  0  0  0  0  0  0  0  0  0  0
    3.5042   -1.2415    2.9558 N   0  0  0  0  0  0  0  0  0  0  0  0
    2.3976   -0.4916    2.3478 C   0  0  2  0  0  0  0  0  0  0  0  0
    2.1856   -0.8869    0.8717 C   0  0  0  0  0  0  0  0  0  0  0  0
    3.0343   -1.5422    0.2809 O   0  0  0  0  0  0  0  0  0  0  0  0
    2.7091    1.0040    2.4608 C   0  0  0  0  0  0  0  0  0  0  0  0
    4.1632   -1.6857    2.3166 H   0  0  0  0  0  0  0  0  0  0  0  0
    1.4663   -0.7099    2.8818 H   0  0  0  0  0  0  0  0  0  0  0  0
    3.6322    1.2435    1.9230 H   0  0  0  0  0  0  0  0  0  0  0  0
    1.8951    1.6012    2.0394 H   0  0  0  0  0  0  0  0  0  0  0  0
    2.8343    1.2861    3.5111 H   0  0  0  0  0  0  0  0  0  0  0  0
    1.0389   -0.5058    0.2002 N   0  0  0  0  0  0  0  0  0  0  0  0
    0.8778   -0.6114   -1.2609 C   0  0  2  0  0  0  0  0  0  0  0  0
    1.9004    0.1988   -2.0828 C   0  0  0  0  0  0  0  0  0  0  0  0
    2.5470   -0.3521   -2.9646 O   0  0  0  0  0  0  0  0  0  0  0  0
   -0.5602   -0.2138   -1.6125 C   0  0  0  0  0  0  0  0  0  0  0  0
   -0.7964    1.1732   -1.3214 O   0  0  0  0  0  0  0  0  0  0  0  0
    0.4037    0.1152    0.6954 H   0  0  0  0  0  0  0  0  0  0  0  0
    1.0153   -1.6610   -1.5432 H   0  0  0  0  0  0  0  0  0  0  0  0
   -1.2648   -0.8366   -1.0513 H   0  0  0  0  0  0  0  0  0  0  0  0
   -0.7322   -0.3951   -2.6791 H   0  0  0  0  0  0  0  0  0  0  0  0
   -1.6863    1.4392   -1.6219 H   0  0  0  0  0  0  0  0  0  0  0  0
    1.9676    1.5730   -1.9235 N   0  0  0  0  0  0  0  0  0  0  0  0
    2.8109    2.5257   -2.6720 C   0  0  2  0  0  0  0  0  0  0  0  0
    2.4365    2.6841   -4.1635 C   0  0  0  0  0  0  0  0  0  0  0  0
    2.1683    3.7951   -4.6023 O   0  0  0  0  0  0  0  0  0  0  0  0
    4.2995    2.1880   -2.5103 C   0  0  0  0  0  0  0  0  0  0  0  0
    1.2032    1.9565   -1.3686 H   0  0  0  0  0  0  0  0  0  0  0  0
    2.6586    3.5090   -2.2154 H   0  0  0  0  0  0  0  0  0  0  0  0
    4.5556    1.2587   -3.0276 H   0  0  0  0  0  0  0  0  0  0  0  0
    4.9134    2.9911   -2.9297 H   0  0  0  0  0  0  0  0  0  0  0  0
    4.5505    2.0771   -1.4512 H   0  0  0  0  0  0  0  0  0  0  0  0
    2.3887    1.5952   -5.0107 N   0  0  0  0  0  0  0  0  0  0  0  0
    2.0257    1.6673   -6.4189 C   0  0  0  0  0  0  0  0  0  0  0  0
    2.5768    0.6840   -4.5824 H   0  0  0  0  0  0  0  0  0  0  0  0
    2.0670    0.6711   -6.8695 H   0  0  0  0  0  0  0  0  0  0  0  0
    1.0095    2.0583   -6.5332 H   0  0  0  0  0  0  0  0  0  0  0  0
    2.7183    2.3204   -6.9595 H   0  0  0  0  0  0  0  0  0  0  0  0
  1  2  2  0  0  0  0
  1  3  1  0  0  0  0
  1  7  1  0  0  0  0
  3  4  1  0  0  0  0
  3  5  1  0  0  0  0
  3  6  1  0  0  0  0
  7  8  1  0  0  0  0
  7 12  1  0  0  0  0
  8  9  1  0  0  0  0
  8 11  1  0  0  0  0
  8 13  1  0  0  0  0
  9 10  2  0  0  0  0
  9 17  1  0  0  0  0
 11 14  1  0  0  0  0
 11 15  1  0  0  0  0
 11 16  1  0  0  0  0
 17 18  1  0  0  0  0
 17 23  1  0  0  0  0
 18 19  1  0  0  0  0
 18 21  1  0  0  0  0
 18 24  1  0  0  0  0
 19 20  2  0  0  0  0
 19 28  1  0  0  0  0
 21 22  1  0  0  0  0
 21 25  1  0  0  0  0
 21 26  1  0  0  0  0
 22 27  1  0  0  0  0
 28 29  1  0  0  0  0
 28 33  1  0  0  0  0
 29 30  1  0  0  0  0
 29 32  1  0  0  0  0
 29 34  1  0  0  0  0
 30 31  2  0  0  0  0
 30 38  1  0  0  0  0
 32 35  1  0  0  0  0
 32 36  1  0  0  0  0
 32 37  1  0  0  0  0
 38 39  1  0  0  0  0
 38 40  1  0  0  0  0
 39 41  1  0  0  0  0
 39 42  1  0  0  0  0
 39 43  1  0  0  0  0
M  END
$$$$

  -OEChem-05262217303D

 43 42  0     1  0  0  0  0  0999 V2000
    3.3001   -1.6950    4.5786 C   0  0  0  0  0  0  0  0  0  0  0  0
    2.4280   -1.2600    5.3137 O   0  0  0  0  0  0  0  0  0  0  0  0
    4.3519   -2.6452    5.1199 C   0  0  0  0  0  0  0  0  0  0  0  0
    5.3484   -2.2219    4.9723 H   0  0  0  0  0  0  0  0  0  0  0  0
    4.1952   -2.8127    6.1892 H   0  0  0  0  0  0  0  0  0  0  0  0
    4.2908   -3.6046    4.6003 H   0  0  0  0  0  0  0  0  0  0  0  0
    3.3257   -1.3288    3.2499 N   0  0  0  0  0  0  0  0  0  0  0  0
    2.2771   -0.5437    2.5858 C   0  0  2  0  0  0  0  0  0  0  0  0
    2.1807   -0.8875    1.0842 C   0  0  0  0  0  0  0  0  0  0  0  0
    3.0143   -1.6177    0.5623 O   0  0  0  0  0  0  0  0  0  0  0  0
    2.5836    0.9453    2.7825 C   0  0  0  0  0  0  0  0  0  0  0  0
    3.9876   -1.8141    2.6444 H   0  0  0  0  0  0  0  0  0  0  0  0
    1.3055   -0.7743    3.0362 H   0  0  0  0  0  0  0  0  0  0  0  0
    3.5436    1.2018    2.3234 H   0  0  0  0  0  0  0  0  0  0  0  0
    1.8024    1.5640    2.3309 H   0  0  0  0  0  0  0  0  0  0  0  0
    2.6331    1.1844    3.8497 H   0  0  0  0  0  0  0  0  0  0  0  0
    1.1619   -0.3723    0.3059 N   0  0  0  0  0  0  0  0  0  0  0  0
    1.0387   -0.5765   -1.1487 C   0  0  2  0  0  0  0  0  0  0  0  0
    2.2174   -0.0521   -1.9859 C   0  0  0  0  0  0  0  0  0  0  0  0
    2.4706   -0.5900   -3.0562 O   0  0  0  0  0  0  0  0  0  0  0  0
   -0.2725    0.0708   -1.6119 C   0  0  0  0  0  0  0  0  0  0  0  0
   -0.2337    1.4968   -1.4527 O   0  0  0  0  0  0  0  0  0  0  0  0
    0.5076    0.2707    0.7473 H   0  0  0  0  0  0  0  0  0  0  0  0
    0.9743   -1.6526   -1.3402 H   0  0  0  0  0  0  0  0  0  0  0  0
   -1.1034   -0.3371   -1.0267 H   0  0  0  0  0  0  0  0  0  0  0  0
   -0.4570   -0.1734   -2.6636 H   0  0  0  0  0  0  0  0  0  0  0  0
    0.1652    1.9302   -2.2524 H   0  0  0  0  0  0  0  0  0  0  0  0
    2.7279    1.2056   -1.7029 N   0  0  0  0  0  0  0  0  0  0  0  0
    3.2908    2.1001   -2.7286 C   0  0  2  0  0  0  0  0  0  0  0  0
    2.2550    2.3968   -3.8417 C   0  0  0  0  0  0  0  0  0  0  0  0
    1.0943    2.6392   -3.5166 O   0  0  0  0  0  0  0  0  0  0  0  0
    4.6391    1.5723   -3.2495 C   0  0  0  0  0  0  0  0  0  0  0  0
    2.2507    1.6549   -0.9256 H   0  0  0  0  0  0  0  0  0  0  0  0
    3.4982    3.0607   -2.2475 H   0  0  0  0  0  0  0  0  0  0  0  0
    4.5108    0.6709   -3.8559 H   0  0  0  0  0  0  0  0  0  0  0  0
    5.1323    2.3324   -3.8627 H   0  0  0  0  0  0  0  0  0  0  0  0
    5.2968    1.3294   -2.4092 H   0  0  0  0  0  0  0  0  0  0  0  0
    2.5980    2.4042   -5.1810 N   0  0  0  0  0  0  0  0  0  0  0  0
    1.6131    2.5428   -6.2468 C   0  0  0  0  0  0  0  0  0  0  0  0
    3.5080    2.0164   -5.4136 H   0  0  0  0  0  0  0  0  0  0  0  0
    2.1116    2.5705   -7.2207 H   0  0  0  0  0  0  0  0  0  0  0  0
    0.9168    1.6975   -6.2359 H   0  0  0  0  0  0  0  0  0  0  0  0
    1.0438    3.4708   -6.1269 H   0  0  0  0  0  0  0  0  0  0  0  0
  1  2  2  0  0  0  0
  1  3  1  0  0  0  0
  1  7  1  0  0  0  0
  3  4  1  0  0  0  0
  3  5  1  0  0  0  0
  3  6  1  0  0  0  0
  7  8  1  0  0  0  0
  7 12  1  0  0  0  0
  8  9  1  0  0  0  0
  8 11  1  0  0  0  0
  8 13  1  0  0  0  0
  9 10  2  0  0  0  0
  9 17  1  0  0  0  0
 11 14  1  0  0  0  0
 11 15  1  0  0  0  0
 11 16  1  0  0  0  0
 17 18  1  0  0  0  0
 17 23  1  0  0  0  0
 18 19  1  0  0  0  0
 18 21  1  0  0  0  0
 18 24  1  0  0  0  0
 19 20  2  0  0  0  0
 19 28  1  0  0  0  0
 21 22  1  0  0  0  0
 21 25  1  0  0  0  0
 21 26  1  0  0  0  0
 22 27  1  0  0  0  0
 28 29  1  0  0  0  0
 28 33  1  0  0  0  0
 29 30  1  0  0  0  0
 29 32  1  0  0  0  0
 29 34  1  0  0  0  0
 30 31  2  0  0  0  0
 30 38  1  0  0  0  0
 32 35  1  0  0  0  0
 32 36  1  0  0  0  0
 32 37  1  0  0  0  0
 38 39  1  0  0  0  0
 38 40  1  0  0  0  0
 39 41  1  0  0  0  0
 39 42  1  0  0  0  0
 39 43  1  0  0  0  0
M  END
$$$$

  -OEChem-05262217303D

 43 42  0     1  0  0  0  0  0999 V2000
    3.3235   -1.6457    4.5942 C   0  0  0  0  0  0  0  0  0  0  0  0
    2.5127   -1.1212    5.3409 O   0  0  0  0  0  0  0  0  0  0  0  0
    4.3199   -2.6540    5.1347 C   0  0  0  0  0  0  0  0  0  0  0  0
    5.3391   -2.2973    4.9675 H   0  0  0  0  0  0  0  0  0  0  0  0
    4.1676   -2.7966    6.2083 H   0  0  0  0  0  0  0  0  0  0  0  0
    4.1902   -3.6147    4.6301 H   0  0  0  0  0  0  0  0  0  0  0  0
    3.3281   -1.3302    3.2522 N   0  0  0  0  0  0  0  0  0  0  0  0
    2.3094   -0.5023    2.5937 C   0  0  2  0  0  0  0  0  0  0  0  0
    2.1352   -0.8946    1.1113 C   0  0  0  0  0  0  0  0  0  0  0  0
    2.9101   -1.6836    0.5845 O   0  0  0  0  0  0  0  0  0  0  0  0
    2.7199    0.9693    2.7187 C   0  0  0  0  0  0  0  0  0  0  0  0
    3.9295   -1.8862    2.6443 H   0  0  0  0  0  0  0  0  0  0  0  0
    1.3416   -0.6504    3.0858 H   0  0  0  0  0  0  0  0  0  0  0  0
    3.6797    1.1430    2.2218 H   0  0  0  0  0  0  0  0  0  0  0  0
    1.9666    1.6202    2.2647 H   0  0  0  0  0  0  0  0  0  0  0  0
    2.8193    1.2463    3.7732 H   0  0  0  0  0  0  0  0  0  0  0  0
    1.1170   -0.3511    0.3517 N   0  0  0  0  0  0  0  0  0  0  0  0
    0.9295   -0.5952   -1.0907 C   0  0  2  0  0  0  0  0  0  0  0  0
    2.0860   -0.1712   -2.0101 C   0  0  0  0  0  0  0  0  0  0  0  0
    2.1333   -0.6204   -3.1481 O   0  0  0  0  0  0  0  0  0  0  0  0
   -0.3540    0.1352   -1.5042 C   0  0  0  0  0  0  0  0  0  0  0  0
   -0.1990    1.5580   -1.3803 O   0  0  0  0  0  0  0  0  0  0  0  0
    0.5209    0.3498    0.7888 H   0  0  0  0  0  0  0  0  0  0  0  0
    0.7846   -1.6691   -1.2462 H   0  0  0  0  0  0  0  0  0  0  0  0
   -1.1831   -0.1984   -0.8715 H   0  0  0  0  0  0  0  0  0  0  0  0
   -0.6081   -0.1151   -2.5399 H   0  0  0  0  0  0  0  0  0  0  0  0
    0.3196    1.9415   -2.1348 H   0  0  0  0  0  0  0  0  0  0  0  0
    2.8892    0.8988   -1.6488 N   0  0  0  0  0  0  0  0  0  0  0  0
    3.5523    1.7733   -2.6313 C   0  0  2  0  0  0  0  0  0  0  0  0
    2.5372    2.3842   -3.6325 C   0  0  0  0  0  0  0  0  0  0  0  0
    1.4213    2.7076   -3.2301 O   0  0  0  0  0  0  0  0  0  0  0  0
    4.7234    1.0390   -3.3071 C   0  0  0  0  0  0  0  0  0  0  0  0
    2.6204    1.3214   -0.7658 H   0  0  0  0  0  0  0  0  0  0  0  0
    3.9827    2.6171   -2.0838 H   0  0  0  0  0  0  0  0  0  0  0  0
    4.3655    0.2614   -3.9886 H   0  0  0  0  0  0  0  0  0  0  0  0
    5.3367    1.7427   -3.8776 H   0  0  0  0  0  0  0  0  0  0  0  0
    5.3582    0.5667   -2.5508 H   0  0  0  0  0  0  0  0  0  0  0  0
    2.8622    2.6059   -4.9584 N   0  0  0  0  0  0  0  0  0  0  0  0
    1.8913    3.0673   -5.9436 C   0  0  0  0  0  0  0  0  0  0  0  0
    3.7243    2.1837   -5.2908 H   0  0  0  0  0  0  0  0  0  0  0  0
    2.3739    3.1968   -6.9170 H   0  0  0  0  0  0  0  0  0  0  0  0
    1.0808    2.3388   -6.0522 H   0  0  0  0  0  0  0  0  0  0  0  0
    1.4634    4.0294   -5.6419 H   0  0  0  0  0  0  0  0  0  0  0  0
  1  2  2  0  0  0  0
  1  3  1  0  0  0  0
  1  7  1  0  0  0  0
  3  4  1  0  0  0  0
  3  5  1  0  0  0  0
  3  6  1  0  0  0  0
  7  8  1  0  0  0  0
  7 12  1  0  0  0  0
  8  9  1  0  0  0  0
  8 11  1  0  0  0  0
  8 13  1  0  0  0  0
  9 10  2  0  0  0  0
  9 17  1  0  0  0  0
 11 14  1  0  0  0  0
 11 15  1  0  0  0  0
 11 16  1  0  0  0  0
 17 18  1  0  0  0  0
 17 23  1  0  0  0  0
 18 19  1  0  0  0  0
 18 21  1  0  0  0  0
 18 24  1  0  0  0  0
 19 20  2  0  0  0  0
 19 28  1  0  0  0  0
 21 22  1  0  0  0  0
 21 25  1  0  0  0  0
 21 26  1  0  0  0  0
 22 27  1  0  0  0  0
 28 29  1  0  0  0  0
 28 33  1  0  0  0  0
 29 30  1  0  0  0  0
 29 32  1  0  0  0  0
 29 34  1  0  0  0  0
 30 31  2  0  0  0  0
 30 38  1  0  0  0  0
 32 35  1  0  0  0  0
 32 36  1  0  0  0  0
 32 37  1  0  0  0  0
 38 39  1  0  0  0  0
 38 40  1  0  0  0  0
 39 41  1  0  0  0  0
 39 42  1  0  0  0  0
 39 43  1  0  0  0  0
M  END
$$$$

  -OEChem-05262217303D

 43 42  0     1  0  0  0  0  0999 V2000
    3.3412   -1.6093    4.6100 C   0  0  0  0  0  0  0  0  0  0  0  0
    2.5606   -1.0367    5.3534 O   0  0  0  0  0  0  0  0  0  0  0  0
    4.3248   -2.6205    5.1687 C   0  0  0  0  0  0  0  0  0  0  0  0
    5.3487   -2.2804    4.9953 H   0  0  0  0  0  0  0  0  0  0  0  0
    4.1708   -2.7412    6.2447 H   0  0  0  0  0  0  0  0  0  0  0  0
    4.1824   -3.5887    4.6824 H   0  0  0  0  0  0  0  0  0  0  0  0
    3.3259   -1.3404    3.2576 N   0  0  0  0  0  0  0  0  0  0  0  0
    2.3299   -0.4884    2.5939 C   0  0  2  0  0  0  0  0  0  0  0  0
    2.1088   -0.9106    1.1261 C   0  0  0  0  0  0  0  0  0  0  0  0
    2.8489   -1.7313    0.5983 O   0  0  0  0  0  0  0  0  0  0  0  0
    2.8043    0.9673    2.6698 C   0  0  0  0  0  0  0  0  0  0  0  0
    3.8999   -1.9318    2.6570 H   0  0  0  0  0  0  0  0  0  0  0  0
    1.3668   -0.5811    3.1082 H   0  0  0  0  0  0  0  0  0  0  0  0
    3.7626    1.0857    2.1546 H   0  0  0  0  0  0  0  0  0  0  0  0
    2.0728    1.6371    2.2077 H   0  0  0  0  0  0  0  0  0  0  0  0
    2.9317    1.2704    3.7140 H   0  0  0  0  0  0  0  0  0  0  0  0
    1.0964   -0.3475    0.3740 N   0  0  0  0  0  0  0  0  0  0  0  0
    0.8533   -0.6180   -1.0563 C   0  0  2  0  0  0  0  0  0  0  0  0
    1.9804   -0.2781   -2.0480 C   0  0  0  0  0  0  0  0  0  0  0  0
    1.8429   -0.5800   -3.2271 O   0  0  0  0  0  0  0  0  0  0  0  0
   -0.4041    0.1822   -1.4225 C   0  0  0  0  0  0  0  0  0  0  0  0
   -0.1603    1.5960   -1.3271 O   0  0  0  0  0  0  0  0  0  0  0  0
    0.5485    0.3976    0.8019 H   0  0  0  0  0  0  0  0  0  0  0  0
    0.6412   -1.6848   -1.1795 H   0  0  0  0  0  0  0  0  0  0  0  0
   -1.2227   -0.0923   -0.7493 H   0  0  0  0  0  0  0  0  0  0  0  0
   -0.7206   -0.0658   -2.4416 H   0  0  0  0  0  0  0  0  0  0  0  0
    0.4581    1.9246   -2.0285 H   0  0  0  0  0  0  0  0  0  0  0  0
    3.0337    0.5346   -1.6623 N   0  0  0  0  0  0  0  0  0  0  0  0
    3.7689    1.3967   -2.6039 C   0  0  2  0  0  0  0  0  0  0  0  0
    2.8202    2.3026   -3.4342 C   0  0  0  0  0  0  0  0  0  0  0  0
    1.7741    2.7070   -2.9306 O   0  0  0  0  0  0  0  0  0  0  0  0
    4.7172    0.5501   -3.4692 C   0  0  0  0  0  0  0  0  0  0  0  0
    2.9874    0.8336   -0.6940 H   0  0  0  0  0  0  0  0  0  0  0  0
    4.3939    2.0730   -2.0135 H   0  0  0  0  0  0  0  0  0  0  0  0
    4.1606   -0.0523   -4.1936 H   0  0  0  0  0  0  0  0  0  0  0  0
    5.4128    1.1933   -4.0160 H   0  0  0  0  0  0  0  0  0  0  0  0
    5.3014   -0.1260   -2.8372 H   0  0  0  0  0  0  0  0  0  0  0  0
    3.1456    2.7098   -4.7158 N   0  0  0  0  0  0  0  0  0  0  0  0
    2.2355    3.4745   -5.5603 C   0  0  0  0  0  0  0  0  0  0  0  0
    3.9397    2.2509   -5.1522 H   0  0  0  0  0  0  0  0  0  0  0  0
    2.7279    3.7426   -6.5000 H   0  0  0  0  0  0  0  0  0  0  0  0
    1.3418    2.8853   -5.7914 H   0  0  0  0  0  0  0  0  0  0  0  0
    1.9291    4.3984   -5.0585 H   0  0  0  0  0  0  0  0  0  0  0  0
  1  2  2  0  0  0  0
  1  3  1  0  0  0  0
  1  7  1  0  0  0  0
  3  4  1  0  0  0  0
  3  5  1  0  0  0  0
  3  6  1  0  0  0  0
  7  8  1  0  0  0  0
  7 12  1  0  0  0  0
  8  9  1  0  0  0  0
  8 11  1  0  0  0  0
  8 13  1  0  0  0  0
  9 10  2  0  0  0  0
  9 17  1  0  0  0  0
 11 14  1  0  0  0  0
 11 15  1  0  0  0  0
 11 16  1  0  0  0  0
 17 18  1  0  0  0  0
 17 23  1  0  0  0  0
 18 19  1  0  0  0  0
 18 21  1  0  0  0  0
 18 24  1  0  0  0  0
 19 20  2  0  0  0  0
 19 28  1  0  0  0  0
 21 22  1  0  0  0  0
 21 25  1  0  0  0  0
 21 26  1  0  0  0  0
 22 27  1  0  0  0  0
 28 29  1  0  0  0  0
 28 33  1  0  0  0  0
 29 30  1  0  0  0  0
 29 32  1  0  0  0  0
 29 34  1  0  0  0  0
 30 31  2  0  0  0  0
 30 38  1  0  0  0  0
 32 35  1  0  0  0  0
 32 36  1  0  0  0  0
 32 37  1  0  0  0  0
 38 39  1  0  0  0  0
 38 40  1  0  0  0  0
 39 41  1  0  0  0  0
 39 42  1  0  0  0  0
 39 43  1  0  0  0  0
M  END
$$$$

  -OEChem-05262217303D

 43 42  0     1  0  0  0  0  0999 V2000
    3.2907   -1.5886    4.6245 C   0  0  0  0  0  0  0  0  0  0  0  0
    2.5141   -0.9835    5.3457 O   0  0  0  0  0  0  0  0  0  0  0  0
    4.1968   -2.6579    5.2047 C   0  0  0  0  0  0  0  0  0  0  0  0
    5.2429   -2.3896    5.0385 H   0  0  0  0  0  0  0  0  0  0  0  0
    4.0243   -2.7561    6.2802 H   0  0  0  0  0  0  0  0  0  0  0  0
    3.9935   -3.6191    4.7265 H   0  0  0  0  0  0  0  0  0  0  0  0
    3.3396   -1.3090    3.2753 N   0  0  0  0  0  0  0  0  0  0  0  0
    2.3979   -0.4203    2.5819 C   0  0  2  0  0  0  0  0  0  0  0  0
    2.1573   -0.8765    1.1282 C   0  0  0  0  0  0  0  0  0  0  0  0
    2.8915   -1.7076    0.6081 O   0  0  0  0  0  0  0  0  0  0  0  0
    2.9573    1.0060    2.6178 C   0  0  0  0  0  0  0  0  0  0  0  0
    3.9026   -1.9278    2.6927 H   0  0  0  0  0  0  0  0  0  0  0  0
    1.4286   -0.4392    3.0923 H   0  0  0  0  0  0  0  0  0  0  0  0
    3.9248    1.0526    2.1081 H   0  0  0  0  0  0  0  0  0  0  0  0
    2.2701    1.7030    2.1283 H   0  0  0  0  0  0  0  0  0  0  0  0
    3.0941    1.3320    3.6540 H   0  0  0  0  0  0  0  0  0  0  0  0
    1.1441   -0.3210    0.3739 N   0  0  0  0  0  0  0  0  0  0  0  0
    0.8398   -0.6370   -1.0362 C   0  0  2  0  0  0  0  0  0  0  0  0
    1.9273   -0.3812   -2.0993 C   0  0  0  0  0  0  0  0  0  0  0  0
    1.6383   -0.4873   -3.2853 O   0  0  0  0  0  0  0  0  0  0  0  0
   -0.4051    0.2024   -1.3602 C   0  0  0  0  0  0  0  0  0  0  0  0
   -0.1020    1.6075   -1.3152 O   0  0  0  0  0  0  0  0  0  0  0  0
    0.6342    0.4610    0.7838 H   0  0  0  0  0  0  0  0  0  0  0  0
    0.5817   -1.6978   -1.1090 H   0  0  0  0  0  0  0  0  0  0  0  0
   -1.2012   -0.0228   -0.6428 H   0  0  0  0  0  0  0  0  0  0  0  0
   -0.7813   -0.0562   -2.3557 H   0  0  0  0  0  0  0  0  0  0  0  0
    0.6071    1.8685   -1.9527 H   0  0  0  0  0  0  0  0  0  0  0  0
    3.1629    0.1343   -1.7501 N   0  0  0  0  0  0  0  0  0  0  0  0
    3.9500    1.0083   -2.6365 C   0  0  2  0  0  0  0  0  0  0  0  0
    3.0997    2.1607   -3.2391 C   0  0  0  0  0  0  0  0  0  0  0  0
    2.1734    2.6409   -2.5891 O   0  0  0  0  0  0  0  0  0  0  0  0
    4.6672    0.1585   -3.6980 C   0  0  0  0  0  0  0  0  0  0  0  0
    3.3295    0.1880   -0.7495 H   0  0  0  0  0  0  0  0  0  0  0  0
    4.7231    1.4884   -2.0295 H   0  0  0  0  0  0  0  0  0  0  0  0
    3.9548   -0.2607   -4.4152 H   0  0  0  0  0  0  0  0  0  0  0  0
    5.3963    0.7630   -4.2454 H   0  0  0  0  0  0  0  0  0  0  0  0
    5.1999   -0.6691   -3.2192 H   0  0  0  0  0  0  0  0  0  0  0  0
    3.3796    2.6903   -4.4861 N   0  0  0  0  0  0  0  0  0  0  0  0
    2.5365    3.6915   -5.1290 C   0  0  0  0  0  0  0  0  0  0  0  0
    4.0499    2.1836   -5.0564 H   0  0  0  0  0  0  0  0  0  0  0  0
    2.9511    3.9644   -6.1041 H   0  0  0  0  0  0  0  0  0  0  0  0
    1.5243    3.3010   -5.2793 H   0  0  0  0  0  0  0  0  0  0  0  0
    2.4777    4.5964   -4.5150 H   0  0  0  0  0  0  0  0  0  0  0  0
  1  2  2  0  0  0  0
  1  3  1  0  0  0  0
  1  7  1  0  0  0  0
  3  4  1  0  0  0  0
  3  5  1  0  0  0  0
  3  6  1  0  0  0  0
  7  8  1  0  0  0  0
  7 12  1  0  0  0  0
  8  9  1  0  0  0  0
  8 11  1  0  0  0  0
  8 13  1  0  0  0  0
  9 10  2  0  0  0  0
  9 17  1  0  0  0  0
 11 14  1  0  0  0  0
 11 15  1  0  0  0  0
 11 16  1  0  0  0  0
 17 18  1  0  0  0  0
 17 23  1  0  0  0  0
 18 19  1  0  0  0  0
 18 21  1  0  0  0  0
 18 24  1  0  0  0  0
 19 20  2  0  0  0  0
 19 28  1  0  0  0  0
 21 22  1  0  0  0  0
 21 25  1  0  0  0  0
 21 26  1  0  0  0  0
 22 27  1  0  0  0  0
 28 29  1  0  0  0  0
 28 33  1  0  0  0  0
 29 30  1  0  0  0  0
 29 32  1  0  0  0  0
 29 34  1  0  0  0  0
 30 31  2  0  0  0  0
 30 38  1  0  0  0  0
 32 35  1  0  0  0  0
 32 36  1  0  0  0  0
 32 37  1  0  0  0  0
 38 39  1  0  0  0  0
 38 40  1  0  0  0  0
 39 41  1  0  0  0  0
 39 42  1  0  0  0  0
 39 43  1  0  0  0  0
M  END
$$$$

  -OEChem-05262217303D

 43 42  0     1  0  0  0  0  0999 V2000
    3.2627   -1.5862    4.5065 C   0  0  0  0  0  0  0  0  0  0  0  0
    2.4157   -1.0608    5.2107 O   0  0  0  0  0  0  0  0  0  0  0  0
    4.2168   -2.6088    5.0942 C   0  0  0  0  0  0  0  0  0  0  0  0
    5.2462   -2.2543    5.0026 H   0  0  0  0  0  0  0  0  0  0  0  0
    3.9926   -2.7693    6.1526 H   0  0  0  0  0  0  0  0  0  0  0  0
    4.1173   -3.5598    4.5654 H   0  0  0  0  0  0  0  0  0  0  0  0
    3.3449   -1.2600    3.1690 N   0  0  0  0  0  0  0  0  0  0  0  0
    2.3879   -0.3920    2.4694 C   0  0  2  0  0  0  0  0  0  0  0  0
    2.1757   -0.8346    1.0077 C   0  0  0  0  0  0  0  0  0  0  0  0
    2.9785   -1.5815    0.4594 O   0  0  0  0  0  0  0  0  0  0  0  0
    2.9143    1.0457    2.5220 C   0  0  0  0  0  0  0  0  0  0  0  0
    3.9853   -1.8061    2.5944 H   0  0  0  0  0  0  0  0  0  0  0  0
    1.4129   -0.4374    2.9674 H   0  0  0  0  0  0  0  0  0  0  0  0
    3.8863    1.1171    2.0233 H   0  0  0  0  0  0  0  0  0  0  0  0
    2.2181    1.7304    2.0281 H   0  0  0  0  0  0  0  0  0  0  0  0
    3.0322    1.3677    3.5617 H   0  0  0  0  0  0  0  0  0  0  0  0
    1.1125   -0.3500    0.2718 N   0  0  0  0  0  0  0  0  0  0  0  0
    0.8361   -0.6092   -1.1574 C   0  0  2  0  0  0  0  0  0  0  0  0
    1.9130   -0.1622   -2.1799 C   0  0  0  0  0  0  0  0  0  0  0  0
    1.5757    0.0868   -3.3320 O   0  0  0  0  0  0  0  0  0  0  0  0
   -0.5272    0.0301   -1.4571 C   0  0  0  0  0  0  0  0  0  0  0  0
   -0.4451    1.4547   -1.3319 O   0  0  0  0  0  0  0  0  0  0  0  0
    0.5331    0.3585    0.7210 H   0  0  0  0  0  0  0  0  0  0  0  0
    0.7353   -1.6910   -1.2886 H   0  0  0  0  0  0  0  0  0  0  0  0
   -1.2737   -0.3547   -0.7539 H   0  0  0  0  0  0  0  0  0  0  0  0
   -0.8617   -0.2367   -2.4654 H   0  0  0  0  0  0  0  0  0  0  0  0
    0.0546    1.8275   -2.0834 H   0  0  0  0  0  0  0  0  0  0  0  0
    3.1964    0.1626   -1.7737 N   0  0  0  0  0  0  0  0  0  0  0  0
    4.3168    0.6424   -2.6087 C   0  0  2  0  0  0  0  0  0  0  0  0
    4.1496    2.0779   -3.1571 C   0  0  0  0  0  0  0  0  0  0  0  0
    5.0302    2.9053   -2.9624 O   0  0  0  0  0  0  0  0  0  0  0  0
    4.6308   -0.3450   -3.7414 C   0  0  0  0  0  0  0  0  0  0  0  0
    3.4404   -0.2274   -0.8615 H   0  0  0  0  0  0  0  0  0  0  0  0
    5.1990    0.6717   -1.9609 H   0  0  0  0  0  0  0  0  0  0  0  0
    3.8343   -0.3574   -4.4910 H   0  0  0  0  0  0  0  0  0  0  0  0
    5.5621   -0.0577   -4.2396 H   0  0  0  0  0  0  0  0  0  0  0  0
    4.7503   -1.3568   -3.3424 H   0  0  0  0  0  0  0  0  0  0  0  0
    3.0276    2.4443   -3.8729 N   0  0  0  0  0  0  0  0  0  0  0  0
    2.8193    3.7644   -4.4510 C   0  0  0  0  0  0  0  0  0  0  0  0
    2.3323    1.7090   -4.0225 H   0  0  0  0  0  0  0  0  0  0  0  0
    1.8500    3.8051   -4.9570 H   0  0  0  0  0  0  0  0  0  0  0  0
    2.8349    4.5315   -3.6698 H   0  0  0  0  0  0  0  0  0  0  0  0
    3.6023    3.9895   -5.1827 H   0  0  0  0  0  0  0  0  0  0  0  0
  1  2  2  0  0  0  0
  1  3  1  0  0  0  0
  1  7  1  0  0  0  0
  3  4  1  0  0  0  0
  3  5  1  0  0  0  0
  3  6  1  0  0  0  0
  7  8  1  0  0  0  0
  7 12  1  0  0  0  0
  8  9  1  0  0  0  0
  8 11  1  0  0  0  0
  8 13  1  0  0  0  0
  9 10  2  0  0  0  0
  9 17  1  0  0  0  0
 11 14  1  0  0  0  0
 11 15  1  0  0  0  0
 11 16  1  0  0  0  0
 17 18  1  0  0  0  0
 17 23  1  0  0  0  0
 18 19  1  0  0  0  0
 18 21  1  0  0  0  0
 18 24  1  0  0  0  0
 19 20  2  0  0  0  0
 19 28  1  0  0  0  0
 21 22  1  0  0  0  0
 21 25  1  0  0  0  0
 21 26  1  0  0  0  0
 22 27  1  0  0  0  0
 28 29  1  0  0  0  0
 28 33  1  0  0  0  0
 29 30  1  0  0  0  0
 29 32  1  0  0  0  0
 29 34  1  0  0  0  0
 30 31  2  0  0  0  0
 30 38  1  0  0  0  0
 32 35  1  0  0  0  0
 32 36  1  0  0  0  0
 32 37  1  0  0  0  0
 38 39  1  0  0  0  0
 38 40  1  0  0  0  0
 39 41  1  0  0  0  0
 39 42  1  0  0  0  0
 39 43  1  0  0  0  0
M  END
$$$$

  -OEChem-05262217303D

 43 42  0     1  0  0  0  0  0999 V2000
    3.3599   -1.4558    4.4665 C   0  0  0  0  0  0  0  0  0  0  0  0
    2.6084   -0.8085    5.1776 O   0  0  0  0  0  0  0  0  0  0  0  0
    4.2852   -2.4913    5.0775 C   0  0  0  0  0  0  0  0  0  0  0  0
    5.3242   -2.2497    4.8410 H   0  0  0  0  0  0  0  0  0  0  0  0
    4.1666   -2.5074    6.1646 H   0  0  0  0  0  0  0  0  0  0  0  0
    4.0498   -3.4828    4.6831 H   0  0  0  0  0  0  0  0  0  0  0  0
    3.3610   -1.2515    3.1025 N   0  0  0  0  0  0  0  0  0  0  0  0
    2.4280   -0.3617    2.3977 C   0  0  2  0  0  0  0  0  0  0  0  0
    2.1004   -0.8778    0.9814 C   0  0  0  0  0  0  0  0  0  0  0  0
    2.7854   -1.7532    0.4623 O   0  0  0  0  0  0  0  0  0  0  0  0
    3.0535    1.0351    2.3273 C   0  0  0  0  0  0  0  0  0  0  0  0
    3.9199   -1.8866    2.5346 H   0  0  0  0  0  0  0  0  0  0  0  0
    1.4833   -0.3047    2.9499 H   0  0  0  0  0  0  0  0  0  0  0  0
    3.9983    1.0061    1.7749 H   0  0  0  0  0  0  0  0  0  0  0  0
    2.3785    1.7358    1.8265 H   0  0  0  0  0  0  0  0  0  0  0  0
    3.2514    1.4119    3.3360 H   0  0  0  0  0  0  0  0  0  0  0  0
    1.0469   -0.3444    0.2641 N   0  0  0  0  0  0  0  0  0  0  0  0
    0.7186   -0.6076   -1.1534 C   0  0  2  0  0  0  0  0  0  0  0  0
    1.7989   -0.2318   -2.2040 C   0  0  0  0  0  0  0  0  0  0  0  0
    1.4568    0.2667   -3.2716 O   0  0  0  0  0  0  0  0  0  0  0  0
   -0.6196    0.0947   -1.4270 C   0  0  0  0  0  0  0  0  0  0  0  0
   -0.4595    1.5138   -1.3244 O   0  0  0  0  0  0  0  0  0  0  0  0
    0.5670    0.4472    0.6915 H   0  0  0  0  0  0  0  0  0  0  0  0
    0.5577   -1.6842   -1.2662 H   0  0  0  0  0  0  0  0  0  0  0  0
   -1.3662   -0.2421   -0.7001 H   0  0  0  0  0  0  0  0  0  0  0  0
   -0.9917   -0.1675   -2.4234 H   0  0  0  0  0  0  0  0  0  0  0  0
    0.0584    1.8372   -2.0875 H   0  0  0  0  0  0  0  0  0  0  0  0
    3.1473   -0.2732   -1.8925 N   0  0  0  0  0  0  0  0  0  0  0  0
    4.2938    0.1042   -2.7435 C   0  0  2  0  0  0  0  0  0  0  0  0
    4.4102    1.6188   -3.0287 C   0  0  0  0  0  0  0  0  0  0  0  0
    5.4322    2.2163   -2.7182 O   0  0  0  0  0  0  0  0  0  0  0  0
    4.3132   -0.7079   -4.0461 C   0  0  0  0  0  0  0  0  0  0  0  0
    3.3584   -0.7763   -1.0271 H   0  0  0  0  0  0  0  0  0  0  0  0
    5.1986   -0.1665   -2.1893 H   0  0  0  0  0  0  0  0  0  0  0  0
    3.4820   -0.4319   -4.7011 H   0  0  0  0  0  0  0  0  0  0  0  0
    5.2471   -0.5250   -4.5868 H   0  0  0  0  0  0  0  0  0  0  0  0
    4.2443   -1.7776   -3.8271 H   0  0  0  0  0  0  0  0  0  0  0  0
    3.3775    2.3144   -3.6246 N   0  0  0  0  0  0  0  0  0  0  0  0
    3.4049    3.7446   -3.8976 C   0  0  0  0  0  0  0  0  0  0  0  0
    2.5300    1.7767   -3.8207 H   0  0  0  0  0  0  0  0  0  0  0  0
    2.4914    4.0474   -4.4184 H   0  0  0  0  0  0  0  0  0  0  0  0
    3.4767    4.3108   -2.9632 H   0  0  0  0  0  0  0  0  0  0  0  0
    4.2624    3.9969   -4.5301 H   0  0  0  0  0  0  0  0  0  0  0  0
  1  2  2  0  0  0  0
  1  3  1  0  0  0  0
  1  7  1  0  0  0  0
  3  4  1  0  0  0  0
  3  5  1  0  0  0  0
  3  6  1  0  0  0  0
  7  8  1  0  0  0  0
  7 12  1  0  0  0  0
  8  9  1  0  0  0  0
  8 11  1  0  0  0  0
  8 13  1  0  0  0  0
  9 10  2  0  0  0  0
  9 17  1  0  0  0  0
 11 14  1  0  0  0  0
 11 15  1  0  0  0  0
 11 16  1  0  0  0  0
 17 18  1  0  0  0  0
 17 23  1  0  0  0  0
 18 19  1  0  0  0  0
 18 21  1  0  0  0  0
 18 24  1  0  0  0  0
 19 20  2  0  0  0  0
 19 28  1  0  0  0  0
 21 22  1  0  0  0  0
 21 25  1  0  0  0  0
 21 26  1  0  0  0  0
 22 27  1  0  0  0  0
 28 29  1  0  0  0  0
 28 33  1  0  0  0  0
 29 30  1  0  0  0  0
 29 32  1  0  0  0  0
 29 34  1  0  0  0  0
 30 31  2  0  0  0  0
 30 38  1  0  0  0  0
 32 35  1  0  0  0  0
 32 36  1  0  0  0  0
 32 37  1  0  0  0  0
 38 39  1  0  0  0  0
 38 40  1  0  0  0  0
 39 41  1  0  0  0  0
 39 42  1  0  0  0  0
 39 43  1  0  0  0  0
M  END
$$$$

  -OEChem-05262217303D

 43 42  0     1  0  0  0  0  0999 V2000
    3.5409   -1.1209    4.2586 C   0  0  0  0  0  0  0  0  0  0  0  0
    2.9766   -0.2404    4.8879 O   0  0  0  0  0  0  0  0  0  0  0  0
    4.3238   -2.1962    4.9883 C   0  0  0  0  0  0  0  0  0  0  0  0
    5.3433   -2.2471    4.5984 H   0  0  0  0  0  0  0  0  0  0  0  0
    4.3677   -1.9696    6.0573 H   0  0  0  0  0  0  0  0  0  0  0  0
    3.8398   -3.1665    4.8528 H   0  0  0  0  0  0  0  0  0  0  0  0
    3.4533   -1.1496    2.8826 N   0  0  0  0  0  0  0  0  0  0  0  0
    2.6349   -0.2272    2.0843 C   0  0  2  0  0  0  0  0  0  0  0  0
    2.0125   -0.9237    0.8582 C   0  0  0  0  0  0  0  0  0  0  0  0
    2.4813   -1.9751    0.4318 O   0  0  0  0  0  0  0  0  0  0  0  0
    3.5263    0.9352    1.6338 C   0  0  0  0  0  0  0  0  0  0  0  0
    3.8491   -1.9572    2.4043 H   0  0  0  0  0  0  0  0  0  0  0  0
    1.8109    0.1630    2.6919 H   0  0  0  0  0  0  0  0  0  0  0  0
    4.3507    0.5705    1.0119 H   0  0  0  0  0  0  0  0  0  0  0  0
    2.9498    1.6617    1.0531 H   0  0  0  0  0  0  0  0  0  0  0  0
    3.9480    1.4481    2.5041 H   0  0  0  0  0  0  0  0  0  0  0  0
    0.9608   -0.3407    0.1772 N   0  0  0  0  0  0  0  0  0  0  0  0
    0.5270   -0.6735   -1.1955 C   0  0  2  0  0  0  0  0  0  0  0  0
    1.5969   -0.4539   -2.2999 C   0  0  0  0  0  0  0  0  0  0  0  0
    1.3547    0.2837   -3.2518 O   0  0  0  0  0  0  0  0  0  0  0  0
   -0.7615    0.1204   -1.4541 C   0  0  0  0  0  0  0  0  0  0  0  0
   -0.4778    1.5233   -1.4694 O   0  0  0  0  0  0  0  0  0  0  0  0
    0.6595    0.5703    0.5226 H   0  0  0  0  0  0  0  0  0  0  0  0
    0.2711   -1.7372   -1.2256 H   0  0  0  0  0  0  0  0  0  0  0  0
   -1.4938   -0.0981   -0.6698 H   0  0  0  0  0  0  0  0  0  0  0  0
   -1.2022   -0.1791   -2.4112 H   0  0  0  0  0  0  0  0  0  0  0  0
    0.0819    1.7212   -2.2484 H   0  0  0  0  0  0  0  0  0  0  0  0
    2.8980   -0.8847   -2.1058 N   0  0  0  0  0  0  0  0  0  0  0  0
    4.1107   -0.4478   -2.8214 C   0  0  2  0  0  0  0  0  0  0  0  0
    4.4351    1.0449   -2.5953 C   0  0  0  0  0  0  0  0  0  0  0  0
    5.3765    1.3591   -1.8790 O   0  0  0  0  0  0  0  0  0  0  0  0
    4.0510   -0.8005   -4.3148 C   0  0  0  0  0  0  0  0  0  0  0  0
    3.0348   -1.4421   -1.2574 H   0  0  0  0  0  0  0  0  0  0  0  0
    4.9506   -1.0100   -2.3998 H   0  0  0  0  0  0  0  0  0  0  0  0
    3.2900   -0.2142   -4.8369 H   0  0  0  0  0  0  0  0  0  0  0  0
    5.0181   -0.5976   -4.7854 H   0  0  0  0  0  0  0  0  0  0  0  0
    3.8199   -1.8621   -4.4431 H   0  0  0  0  0  0  0  0  0  0  0  0
    3.6200    2.0297   -3.1173 N   0  0  0  0  0  0  0  0  0  0  0  0
    3.7675    3.4459   -2.8117 C   0  0  0  0  0  0  0  0  0  0  0  0
    2.7499    1.6987   -3.5401 H   0  0  0  0  0  0  0  0  0  0  0  0
    3.0575    4.0344   -3.4005 H   0  0  0  0  0  0  0  0  0  0  0  0
    3.5773    3.6301   -1.7496 H   0  0  0  0  0  0  0  0  0  0  0  0
    4.7797    3.7868   -3.0532 H   0  0  0  0  0  0  0  0  0  0  0  0
  1  2  2  0  0  0  0
  1  3  1  0  0  0  0
  1  7  1  0  0  0  0
  3  4  1  0  0  0  0
  3  5  1  0  0  0  0
  3  6  1  0  0  0  0
  7  8  1  0  0  0  0
  7 12  1  0  0  0  0
  8  9  1  0  0  0  0
  8 11  1  0  0  0  0
  8 13  1  0  0  0  0
  9 10  2  0  0  0  0
  9 17  1  0  0  0  0
 11 14  1  0  0  0  0
 11 15  1  0  0  0  0
 11 16  1  0  0  0  0
 17 18  1  0  0  0  0
 17 23  1  0  0  0  0
 18 19  1  0  0  0  0
 18 21  1  0  0  0  0
 18 24  1  0  0  0  0
 19 20  2  0  0  0  0
 19 28  1  0  0  0  0
 21 22  1  0  0  0  0
 21 25  1  0  0  0  0
 21 26  1  0  0  0  0
 22 27  1  0  0  0  0
 28 29  1  0  0  0  0
 28 33  1  0  0  0  0
 29 30  1  0  0  0  0
 29 32  1  0  0  0  0
 29 34  1  0  0  0  0
 30 31  2  0  0  0  0
 30 38  1  0  0  0  0
 32 35  1  0  0  0  0
 32 36  1  0  0  0  0
 32 37  1  0  0  0  0
 38 39  1  0  0  0  0
 38 40  1  0  0  0  0
 39 41  1  0  0  0  0
 39 42  1  0  0  0  0
 39 43  1  0  0  0  0
M  END
$$$$

  -OEChem-05262217303D

 43 42  0     1  0  0  0  0  0999 V2000
    3.5826   -1.1878    4.1980 C   0  0  0  0  0  0  0  0  0  0  0  0
    2.9478   -0.4014    4.8824 O   0  0  0  0  0  0  0  0  0  0  0  0
    4.4069   -2.2775    4.8573 C   0  0  0  0  0  0  0  0  0  0  0  0
    5.4574   -2.1741    4.5746 H   0  0  0  0  0  0  0  0  0  0  0  0
    4.3262   -2.2044    5.9455 H   0  0  0  0  0  0  0  0  0  0  0  0
    4.0468   -3.2601    4.5428 H   0  0  0  0  0  0  0  0  0  0  0  0
    3.5401   -1.0983    2.8224 N   0  0  0  0  0  0  0  0  0  0  0  0
    2.6580   -0.1898    2.0771 C   0  0  2  0  0  0  0  0  0  0  0  0
    2.0266   -0.8785    0.8505 C   0  0  0  0  0  0  0  0  0  0  0  0
    2.5033   -1.9176    0.4021 O   0  0  0  0  0  0  0  0  0  0  0  0
    3.4878    1.0208    1.6385 C   0  0  0  0  0  0  0  0  0  0  0  0
    3.9861   -1.8473    2.2955 H   0  0  0  0  0  0  0  0  0  0  0  0
    1.8371    0.1493    2.7185 H   0  0  0  0  0  0  0  0  0  0  0  0
    4.2998    0.7103    0.9722 H   0  0  0  0  0  0  0  0  0  0  0  0
    2.8625    1.7464    1.1093 H   0  0  0  0  0  0  0  0  0  0  0  0
    3.9244    1.5154    2.5122 H   0  0  0  0  0  0  0  0  0  0  0  0
    0.9365   -0.3196    0.2101 N   0  0  0  0  0  0  0  0  0  0  0  0
    0.4847   -0.6645   -1.1519 C   0  0  2  0  0  0  0  0  0  0  0  0
    1.5302   -0.4012   -2.2678 C   0  0  0  0  0  0  0  0  0  0  0  0
    1.3299    0.4641   -3.1166 O   0  0  0  0  0  0  0  0  0  0  0  0
   -0.8368    0.0823   -1.3866 C   0  0  0  0  0  0  0  0  0  0  0  0
   -0.6094    1.4953   -1.4072 O   0  0  0  0  0  0  0  0  0  0  0  0
    0.6159    0.5787    0.5705 H   0  0  0  0  0  0  0  0  0  0  0  0
    0.2649   -1.7365   -1.1813 H   0  0  0  0  0  0  0  0  0  0  0  0
   -1.5495   -0.1648   -0.5927 H   0  0  0  0  0  0  0  0  0  0  0  0
   -1.2784   -0.2322   -2.3382 H   0  0  0  0  0  0  0  0  0  0  0  0
   -0.0337    1.7074   -2.1725 H   0  0  0  0  0  0  0  0  0  0  0  0
    2.7542   -1.0467   -2.2336 N   0  0  0  0  0  0  0  0  0  0  0  0
    3.9541   -0.7449   -3.0372 C   0  0  2  0  0  0  0  0  0  0  0  0
    4.5554    0.6488   -2.7466 C   0  0  0  0  0  0  0  0  0  0  0  0
    5.6503    0.7373   -2.2071 O   0  0  0  0  0  0  0  0  0  0  0  0
    3.6956   -0.9489   -4.5372 C   0  0  0  0  0  0  0  0  0  0  0  0
    2.8883   -1.6438   -1.4114 H   0  0  0  0  0  0  0  0  0  0  0  0
    4.7204   -1.4725   -2.7495 H   0  0  0  0  0  0  0  0  0  0  0  0
    3.0079   -0.1960   -4.9324 H   0  0  0  0  0  0  0  0  0  0  0  0
    4.6363   -0.8746   -5.0916 H   0  0  0  0  0  0  0  0  0  0  0  0
    3.2670   -1.9396   -4.7162 H   0  0  0  0  0  0  0  0  0  0  0  0
    3.8459    1.7998   -3.0270 N   0  0  0  0  0  0  0  0  0  0  0  0
    4.2938    3.1374   -2.6651 C   0  0  0  0  0  0  0  0  0  0  0  0
    2.8820    1.6612   -3.3391 H   0  0  0  0  0  0  0  0  0  0  0  0
    3.5938    3.8860   -3.0483 H   0  0  0  0  0  0  0  0  0  0  0  0
    4.3527    3.2395   -1.5767 H   0  0  0  0  0  0  0  0  0  0  0  0
    5.2816    3.3396   -3.0925 H   0  0  0  0  0  0  0  0  0  0  0  0
  1  2  2  0  0  0  0
  1  3  1  0  0  0  0
  1  7  1  0  0  0  0
  3  4  1  0  0  0  0
  3  5  1  0  0  0  0
  3  6  1  0  0  0  0
  7  8  1  0  0  0  0
  7 12  1  0  0  0  0
  8  9  1  0  0  0  0
  8 11  1  0  0  0  0
  8 13  1  0  0  0  0
  9 10  2  0  0  0  0
  9 17  1  0  0  0  0
 11 14  1  0  0  0  0
 11 15  1  0  0  0  0
 11 16  1  0  0  0  0
 17 18  1  0  0  0  0
 17 23  1  0  0  0  0
 18 19  1  0  0  0  0
 18 21  1  0  0  0  0
 18 24  1  0  0  0  0
 19 20  2  0  0  0  0
 19 28  1  0  0  0  0
 21 22  1  0  0  0  0
 21 25  1  0  0  0  0
 21 26  1  0  0  0  0
 22 27  1  0  0  0  0
 28 29  1  0  0  0  0
 28 33  1  0  0  0  0
 29 30  1  0  0  0  0
 29 32  1  0  0  0  0
 29 34  1  0  0  0  0
 30 31  2  0  0  0  0
 30 38  1  0  0  0  0
 32 35  1  0  0  0  0
 32 36  1  0  0  0  0
 32 37  1  0  0  0  0
 38 39  1  0  0  0  0
 38 40  1  0  0  0  0
 39 41  1  0  0  0  0
 39 42  1  0  0  0  0
 39 43  1  0  0  0  0
M  END
$$$$

  -OEChem-05262217303D

 43 42  0     1  0  0  0  0  0999 V2000
    3.3675   -1.3364    3.9256 C   0  0  0  0  0  0  0  0  0  0  0  0
    2.3034   -1.0025    4.4223 O   0  0  0  0  0  0  0  0  0  0  0  0
    4.2205   -2.3974    4.5945 C   0  0  0  0  0  0  0  0  0  0  0  0
    5.2233   -2.0067    4.7831 H   0  0  0  0  0  0  0  0  0  0  0  0
    3.7736   -2.6951    5.5473 H   0  0  0  0  0  0  0  0  0  0  0  0
    4.2943   -3.2768    3.9500 H   0  0  0  0  0  0  0  0  0  0  0  0
    3.7864   -0.7703    2.7394 N   0  0  0  0  0  0  0  0  0  0  0  0
    2.9123    0.0646    1.9042 C   0  0  2  0  0  0  0  0  0  0  0  0
    2.1360   -0.7596    0.8566 C   0  0  0  0  0  0  0  0  0  0  0  0
    2.6013   -1.8060    0.4123 O   0  0  0  0  0  0  0  0  0  0  0  0
    3.7946    1.1004    1.2021 C   0  0  0  0  0  0  0  0  0  0  0  0
    4.5659   -1.2330    2.2787 H   0  0  0  0  0  0  0  0  0  0  0  0
    2.1859    0.5951    2.5294 H   0  0  0  0  0  0  0  0  0  0  0  0
    4.5209    0.6076    0.5466 H   0  0  0  0  0  0  0  0  0  0  0  0
    3.1835    1.7755    0.5951 H   0  0  0  0  0  0  0  0  0  0  0  0
    4.3396    1.6972    1.9400 H   0  0  0  0  0  0  0  0  0  0  0  0
    0.9711   -0.2690    0.2953 N   0  0  0  0  0  0  0  0  0  0  0  0
    0.4468   -0.7090   -1.0093 C   0  0  2  0  0  0  0  0  0  0  0  0
    1.4237   -0.4423   -2.1816 C   0  0  0  0  0  0  0  0  0  0  0  0
    1.2702    0.5270   -2.9216 O   0  0  0  0  0  0  0  0  0  0  0  0
   -0.9184   -0.0328   -1.2028 C   0  0  0  0  0  0  0  0  0  0  0  0
   -0.7616    1.3854   -1.3200 O   0  0  0  0  0  0  0  0  0  0  0  0
    0.6554    0.6422    0.6254 H   0  0  0  0  0  0  0  0  0  0  0  0
    0.2745   -1.7896   -0.9746 H   0  0  0  0  0  0  0  0  0  0  0  0
   -1.5732   -0.2632   -0.3557 H   0  0  0  0  0  0  0  0  0  0  0  0
   -1.3955   -0.4226   -2.1082 H   0  0  0  0  0  0  0  0  0  0  0  0
   -0.1707    1.5721   -2.0825 H   0  0  0  0  0  0  0  0  0  0  0  0
    2.5352   -1.2540   -2.3272 N   0  0  0  0  0  0  0  0  0  0  0  0
    3.7140   -0.9961   -3.1762 C   0  0  2  0  0  0  0  0  0  0  0  0
    4.5162    0.2561   -2.7532 C   0  0  0  0  0  0  0  0  0  0  0  0
    5.6625    0.1366   -2.3417 O   0  0  0  0  0  0  0  0  0  0  0  0
    3.3431   -0.9524   -4.6656 C   0  0  0  0  0  0  0  0  0  0  0  0
    2.6894   -1.8690   -1.5209 H   0  0  0  0  0  0  0  0  0  0  0  0
    4.3890   -1.8486   -3.0468 H   0  0  0  0  0  0  0  0  0  0  0  0
    2.7504   -0.0655   -4.9062 H   0  0  0  0  0  0  0  0  0  0  0  0
    4.2512   -0.9292   -5.2760 H   0  0  0  0  0  0  0  0  0  0  0  0
    2.7660   -1.8411   -4.9381 H   0  0  0  0  0  0  0  0  0  0  0  0
    3.9411    1.5111   -2.7824 N   0  0  0  0  0  0  0  0  0  0  0  0
    4.6184    2.7320   -2.3689 C   0  0  0  0  0  0  0  0  0  0  0  0
    2.9534    1.5459   -3.0454 H   0  0  0  0  0  0  0  0  0  0  0  0
    3.9607    3.5945   -2.5132 H   0  0  0  0  0  0  0  0  0  0  0  0
    4.8952    2.6789   -1.3112 H   0  0  0  0  0  0  0  0  0  0  0  0
    5.5251    2.8860   -2.9632 H   0  0  0  0  0  0  0  0  0  0  0  0
  1  2  2  0  0  0  0
  1  3  1  0  0  0  0
  1  7  1  0  0  0  0
  3  4  1  0  0  0  0
  3  5  1  0  0  0  0
  3  6  1  0  0  0  0
  7  8  1  0  0  0  0
  7 12  1  0  0  0  0
  8  9  1  0  0  0  0
  8 11  1  0  0  0  0
  8 13  1  0  0  0  0
  9 10  2  0  0  0  0
  9 17  1  0  0  0  0
 11 14  1  0  0  0  0
 11 15  1  0  0  0  0
 11 16  1  0  0  0  0
 17 18  1  0  0  0  0
 17 23  1  0  0  0  0
 18 19  1  0  0  0  0
 18 21  1  0  0  0  0
 18 24  1  0  0  0  0
 19 20  2  0  0  0  0
 19 28  1  0  0  0  0
 21 22  1  0  0  0  0
 21 25  1  0  0  0  0
 21 26  1  0  0  0  0
 22 27  1  0  0  0  0
 28 29  1  0  0  0  0
 28 33  1  0  0  0  0
 29 30  1  0  0  0  0
 29 32  1  0  0  0  0
 29 34  1  0  0  0  0
 30 31  2  0  0  0  0
 30 38  1  0  0  0  0
 32 35  1  0  0  0  0
 32 36  1  0  0  0  0
 32 37  1  0  0  0  0
 38 39  1  0  0  0  0
 38 40  1  0  0  0  0
 39 41  1  0  0  0  0
 39 42  1  0  0  0  0
 39 43  1  0  0  0  0
M  END
$$$$

  -OEChem-05262217303D

 43 42  0     1  0  0  0  0  0999 V2000
    3.4171   -1.3284    3.8849 C   0  0  0  0  0  0  0  0  0  0  0  0
    2.3770   -0.9818    4.4220 O   0  0  0  0  0  0  0  0  0  0  0  0
    4.2832   -2.3982    4.5228 C   0  0  0  0  0  0  0  0  0  0  0  0
    5.2893   -2.0095    4.6979 H   0  0  0  0  0  0  0  0  0  0  0  0
    3.8549   -2.7094    5.4797 H   0  0  0  0  0  0  0  0  0  0  0  0
    4.3455   -3.2687    3.8651 H   0  0  0  0  0  0  0  0  0  0  0  0
    3.7962   -0.7686    2.6821 N   0  0  0  0  0  0  0  0  0  0  0  0
    2.9045    0.0796    1.8787 C   0  0  2  0  0  0  0  0  0  0  0  0
    2.1351   -0.7258    0.8124 C   0  0  0  0  0  0  0  0  0  0  0  0
    2.6280   -1.7341    0.3117 O   0  0  0  0  0  0  0  0  0  0  0  0
    3.7658    1.1499    1.2034 C   0  0  0  0  0  0  0  0  0  0  0  0
    4.5475   -1.2461    2.1902 H   0  0  0  0  0  0  0  0  0  0  0  0
    2.1728    0.5805    2.5217 H   0  0  0  0  0  0  0  0  0  0  0  0
    4.5086    0.6868    0.5452 H   0  0  0  0  0  0  0  0  0  0  0  0
    3.1432    1.8213    0.6037 H   0  0  0  0  0  0  0  0  0  0  0  0
    4.2899    1.7456    1.9573 H   0  0  0  0  0  0  0  0  0  0  0  0
    0.9386   -0.2594    0.2988 N   0  0  0  0  0  0  0  0  0  0  0  0
    0.4074   -0.7109   -0.9960 C   0  0  2  0  0  0  0  0  0  0  0  0
    1.3636   -0.3943   -2.1695 C   0  0  0  0  0  0  0  0  0  0  0  0
    1.3017    0.6824   -2.7584 O   0  0  0  0  0  0  0  0  0  0  0  0
   -0.9812   -0.0781   -1.1714 C   0  0  0  0  0  0  0  0  0  0  0  0
   -0.8765    1.3451   -1.2890 O   0  0  0  0  0  0  0  0  0  0  0  0
    0.6020    0.6368    0.6483 H   0  0  0  0  0  0  0  0  0  0  0  0
    0.2704   -1.7966   -0.9661 H   0  0  0  0  0  0  0  0  0  0  0  0
   -1.6197   -0.3322   -0.3187 H   0  0  0  0  0  0  0  0  0  0  0  0
   -1.4541   -0.4818   -2.0728 H   0  0  0  0  0  0  0  0  0  0  0  0
   -0.2438    1.5589   -2.0111 H   0  0  0  0  0  0  0  0  0  0  0  0
    2.3199   -1.3313   -2.5205 N   0  0  0  0  0  0  0  0  0  0  0  0
    3.4304   -1.1455   -3.4772 C   0  0  2  0  0  0  0  0  0  0  0  0
    4.4808   -0.0986   -3.0368 C   0  0  0  0  0  0  0  0  0  0  0  0
    5.6682   -0.3939   -3.0363 O   0  0  0  0  0  0  0  0  0  0  0  0
    2.9159   -0.8500   -4.8930 C   0  0  0  0  0  0  0  0  0  0  0  0
    2.4754   -2.0293   -1.7876 H   0  0  0  0  0  0  0  0  0  0  0  0
    3.9602   -2.1024   -3.5306 H   0  0  0  0  0  0  0  0  0  0  0  0
    2.4760    0.1489   -4.9588 H   0  0  0  0  0  0  0  0  0  0  0  0
    3.7423   -0.9043   -5.6085 H   0  0  0  0  0  0  0  0  0  0  0  0
    2.1591   -1.5852   -5.1826 H   0  0  0  0  0  0  0  0  0  0  0  0
    4.1052    1.1708   -2.6421 N   0  0  0  0  0  0  0  0  0  0  0  0
    5.0446    2.2319   -2.3064 C   0  0  0  0  0  0  0  0  0  0  0  0
    3.1098    1.3887   -2.7280 H   0  0  0  0  0  0  0  0  0  0  0  0
    4.5037    3.1203   -1.9664 H   0  0  0  0  0  0  0  0  0  0  0  0
    5.7177    1.9108   -1.5045 H   0  0  0  0  0  0  0  0  0  0  0  0
    5.6435    2.5032   -3.1821 H   0  0  0  0  0  0  0  0  0  0  0  0
  1  2  2  0  0  0  0
  1  3  1  0  0  0  0
  1  7  1  0  0  0  0
  3  4  1  0  0  0  0
  3  5  1  0  0  0  0
  3  6  1  0  0  0  0
  7  8  1  0  0  0  0
  7 12  1  0  0  0  0
  8  9  1  0  0  0  0
  8 11  1  0  0  0  0
  8 13  1  0  0  0  0
  9 10  2  0  0  0  0
  9 17  1  0  0  0  0
 11 14  1  0  0  0  0
 11 15  1  0  0  0  0
 11 16  1  0  0  0  0
 17 18  1  0  0  0  0
 17 23  1  0  0  0  0
 18 19  1  0  0  0  0
 18 21  1  0  0  0  0
 18 24  1  0  0  0  0
 19 20  2  0  0  0  0
 19 28  1  0  0  0  0
 21 22  1  0  0  0  0
 21 25  1  0  0  0  0
 21 26  1  0  0  0  0
 22 27  1  0  0  0  0
 28 29  1  0  0  0  0
 28 33  1  0  0  0  0
 29 30  1  0  0  0  0
 29 32  1  0  0  0  0
 29 34  1  0  0  0  0
 30 31  2  0  0  0  0
 30 38  1  0  0  0  0
 32 35  1  0  0  0  0
 32 36  1  0  0  0  0
 32 37  1  0  0  0  0
 38 39  1  0  0  0  0
 38 40  1  0  0  0  0
 39 41  1  0  0  0  0
 39 42  1  0  0  0  0
 39 43  1  0  0  0  0
M  END
$$$$

  -OEChem-05262217303D

 43 42  0     1  0  0  0  0  0999 V2000
    3.5008   -1.3169    3.8402 C   0  0  0  0  0  0  0  0  0  0  0  0
    2.4993   -0.9684    4.4450 O   0  0  0  0  0  0  0  0  0  0  0  0
    4.4030   -2.3907    4.4183 C   0  0  0  0  0  0  0  0  0  0  0  0
    5.4218   -2.0087    4.5187 H   0  0  0  0  0  0  0  0  0  0  0  0
    4.0427   -2.6951    5.4049 H   0  0  0  0  0  0  0  0  0  0  0  0
    4.4112   -3.2639    3.7613 H   0  0  0  0  0  0  0  0  0  0  0  0
    3.8048   -0.7556    2.6172 N   0  0  0  0  0  0  0  0  0  0  0  0
    2.8667    0.0921    1.8675 C   0  0  2  0  0  0  0  0  0  0  0  0
    2.0938   -0.7033    0.7963 C   0  0  0  0  0  0  0  0  0  0  0  0
    2.5941   -1.6941    0.2691 O   0  0  0  0  0  0  0  0  0  0  0  0
    3.6801    1.2079    1.2071 C   0  0  0  0  0  0  0  0  0  0  0  0
    4.5208   -1.2369    2.0781 H   0  0  0  0  0  0  0  0  0  0  0  0
    2.1366    0.5497    2.5438 H   0  0  0  0  0  0  0  0  0  0  0  0
    4.4169    0.7868    0.5155 H   0  0  0  0  0  0  0  0  0  0  0  0
    3.0241    1.8815    0.6468 H   0  0  0  0  0  0  0  0  0  0  0  0
    4.2080    1.7923    1.9672 H   0  0  0  0  0  0  0  0  0  0  0  0
    0.8854   -0.2447    0.3048 N   0  0  0  0  0  0  0  0  0  0  0  0
    0.3601   -0.6979   -0.9903 C   0  0  2  0  0  0  0  0  0  0  0  0
    1.3096   -0.3560   -2.1596 C   0  0  0  0  0  0  0  0  0  0  0  0
    1.3863    0.7965   -2.5788 O   0  0  0  0  0  0  0  0  0  0  0  0
   -1.0324   -0.0785   -1.1738 C   0  0  0  0  0  0  0  0  0  0  0  0
   -0.9409    1.3459   -1.2913 O   0  0  0  0  0  0  0  0  0  0  0  0
    0.5522    0.6530    0.6530 H   0  0  0  0  0  0  0  0  0  0  0  0
    0.2352   -1.7850   -0.9642 H   0  0  0  0  0  0  0  0  0  0  0  0
   -1.6756   -0.3400   -0.3271 H   0  0  0  0  0  0  0  0  0  0  0  0
   -1.4931   -0.4857   -2.0800 H   0  0  0  0  0  0  0  0  0  0  0  0
   -0.2511    1.5739   -1.9546 H   0  0  0  0  0  0  0  0  0  0  0  0
    2.0677   -1.3646   -2.7289 N   0  0  0  0  0  0  0  0  0  0  0  0
    3.1091   -1.2072   -3.7657 C   0  0  2  0  0  0  0  0  0  0  0  0
    4.3537   -0.4073   -3.3125 C   0  0  0  0  0  0  0  0  0  0  0  0
    5.4710   -0.8639   -3.5140 O   0  0  0  0  0  0  0  0  0  0  0  0
    2.5288   -0.6311   -5.0649 C   0  0  0  0  0  0  0  0  0  0  0  0
    2.1498   -2.1913   -2.1364 H   0  0  0  0  0  0  0  0  0  0  0  0
    3.4685   -2.2139   -4.0029 H   0  0  0  0  0  0  0  0  0  0  0  0
    2.2539    0.4208   -4.9480 H   0  0  0  0  0  0  0  0  0  0  0  0
    3.2701   -0.6995   -5.8671 H   0  0  0  0  0  0  0  0  0  0  0  0
    1.6402   -1.1938   -5.3664 H   0  0  0  0  0  0  0  0  0  0  0  0
    4.2332    0.8214   -2.6929 N   0  0  0  0  0  0  0  0  0  0  0  0
    5.3643    1.6534   -2.3074 C   0  0  0  0  0  0  0  0  0  0  0  0
    3.2835    1.1909   -2.6099 H   0  0  0  0  0  0  0  0  0  0  0  0
    5.0124    2.5599   -1.8058 H   0  0  0  0  0  0  0  0  0  0  0  0
    6.0215    1.1111   -1.6196 H   0  0  0  0  0  0  0  0  0  0  0  0
    5.9415    1.9469   -3.1903 H   0  0  0  0  0  0  0  0  0  0  0  0
  1  2  2  0  0  0  0
  1  3  1  0  0  0  0
  1  7  1  0  0  0  0
  3  4  1  0  0  0  0
  3  5  1  0  0  0  0
  3  6  1  0  0  0  0
  7  8  1  0  0  0  0
  7 12  1  0  0  0  0
  8  9  1  0  0  0  0
  8 11  1  0  0  0  0
  8 13  1  0  0  0  0
  9 10  2  0  0  0  0
  9 17  1  0  0  0  0
 11 14  1  0  0  0  0
 11 15  1  0  0  0  0
 11 16  1  0  0  0  0
 17 18  1  0  0  0  0
 17 23  1  0  0  0  0
 18 19  1  0  0  0  0
 18 21  1  0  0  0  0
 18 24  1  0  0  0  0
 19 20  2  0  0  0  0
 19 28  1  0  0  0  0
 21 22  1  0  0  0  0
 21 25  1  0  0  0  0
 21 26  1  0  0  0  0
 22 27  1  0  0  0  0
 28 29  1  0  0  0  0
 28 33  1  0  0  0  0
 29 30  1  0  0  0  0
 29 32  1  0  0  0  0
 29 34  1  0  0  0  0
 30 31  2  0  0  0  0
 30 38  1  0  0  0  0
 32 35  1  0  0  0  0
 32 36  1  0  0  0  0
 32 37  1  0  0  0  0
 38 39  1  0  0  0  0
 38 40  1  0  0  0  0
 39 41  1  0  0  0  0
 39 42  1  0  0  0  0
 39 43  1  0  0  0  0
M  END
$$$$

  -OEChem-05262217303D

 43 42  0     1  0  0  0  0  0999 V2000
    3.9096   -1.2095    3.8960 C   0  0  0  0  0  0  0  0  0  0  0  0
    3.3759   -0.4444    4.6832 O   0  0  0  0  0  0  0  0  0  0  0  0
    4.8610   -2.2789    4.3978 C   0  0  0  0  0  0  0  0  0  0  0  0
    5.8588   -2.1134    3.9846 H   0  0  0  0  0  0  0  0  0  0  0  0
    4.9213   -2.2478    5.4893 H   0  0  0  0  0  0  0  0  0  0  0  0
    4.5068   -3.2667    4.0934 H   0  0  0  0  0  0  0  0  0  0  0  0
    3.6381   -1.1113    2.5478 N   0  0  0  0  0  0  0  0  0  0  0  0
    2.6233   -0.2194    1.9712 C   0  0  2  0  0  0  0  0  0  0  0  0
    1.9280   -0.8577    0.7525 C   0  0  0  0  0  0  0  0  0  0  0  0
    2.4200   -1.8300    0.1861 O   0  0  0  0  0  0  0  0  0  0  0  0
    3.3077    1.0904    1.5688 C   0  0  0  0  0  0  0  0  0  0  0  0
    4.0144   -1.8385    1.9407 H   0  0  0  0  0  0  0  0  0  0  0  0
    1.8468   -0.0074    2.7143 H   0  0  0  0  0  0  0  0  0  0  0  0
    4.0819    0.9040    0.8173 H   0  0  0  0  0  0  0  0  0  0  0  0
    2.5799    1.7931    1.1518 H   0  0  0  0  0  0  0  0  0  0  0  0
    3.7743    1.5563    2.4427 H   0  0  0  0  0  0  0  0  0  0  0  0
    0.7571   -0.3279    0.2442 N   0  0  0  0  0  0  0  0  0  0  0  0
    0.2818   -0.6661   -1.1041 C   0  0  2  0  0  0  0  0  0  0  0  0
    1.2791   -0.2733   -2.2149 C   0  0  0  0  0  0  0  0  0  0  0  0
    1.5490    0.9117   -2.3937 O   0  0  0  0  0  0  0  0  0  0  0  0
   -1.0719    0.0257   -1.3078 C   0  0  0  0  0  0  0  0  0  0  0  0
   -0.9122    1.4498   -1.3163 O   0  0  0  0  0  0  0  0  0  0  0  0
    0.4494    0.5633    0.6311 H   0  0  0  0  0  0  0  0  0  0  0  0
    0.1183   -1.7467   -1.1605 H   0  0  0  0  0  0  0  0  0  0  0  0
   -1.7685   -0.2653   -0.5143 H   0  0  0  0  0  0  0  0  0  0  0  0
   -1.5018   -0.2953   -2.2624 H   0  0  0  0  0  0  0  0  0  0  0  0
   -0.1453    1.6957   -1.8813 H   0  0  0  0  0  0  0  0  0  0  0  0
    1.8024   -1.2456   -3.0505 N   0  0  0  0  0  0  0  0  0  0  0  0
    2.7596   -1.0429   -4.1589 C   0  0  2  0  0  0  0  0  0  0  0  0
    4.1637   -0.5549   -3.7297 C   0  0  0  0  0  0  0  0  0  0  0  0
    5.1556   -1.1208   -4.1693 O   0  0  0  0  0  0  0  0  0  0  0  0
    2.1708   -0.1317   -5.2452 C   0  0  0  0  0  0  0  0  0  0  0  0
    1.6979   -2.1994   -2.7102 H   0  0  0  0  0  0  0  0  0  0  0  0
    2.9135   -2.0231   -4.6218 H   0  0  0  0  0  0  0  0  0  0  0  0
    2.0836    0.9012   -4.8964 H   0  0  0  0  0  0  0  0  0  0  0  0
    2.8180   -0.1377   -6.1282 H   0  0  0  0  0  0  0  0  0  0  0  0
    1.1787   -0.4855   -5.5413 H   0  0  0  0  0  0  0  0  0  0  0  0
    4.3242    0.5146   -2.8710 N   0  0  0  0  0  0  0  0  0  0  0  0
    5.6161    1.0329   -2.4444 C   0  0  0  0  0  0  0  0  0  0  0  0
    3.4673    0.9808   -2.5655 H   0  0  0  0  0  0  0  0  0  0  0  0
    6.1813    1.4075   -3.3040 H   0  0  0  0  0  0  0  0  0  0  0  0
    5.4770    1.8549   -1.7359 H   0  0  0  0  0  0  0  0  0  0  0  0
    6.1998    0.2478   -1.9526 H   0  0  0  0  0  0  0  0  0  0  0  0
  1  2  2  0  0  0  0
  1  3  1  0  0  0  0
  1  7  1  0  0  0  0
  3  4  1  0  0  0  0
  3  5  1  0  0  0  0
  3  6  1  0  0  0  0
  7  8  1  0  0  0  0
  7 12  1  0  0  0  0
  8  9  1  0  0  0  0
  8 11  1  0  0  0  0
  8 13  1  0  0  0  0
  9 10  2  0  0  0  0
  9 17  1  0  0  0  0
 11 14  1  0  0  0  0
 11 15  1  0  0  0  0
 11 16  1  0  0  0  0
 17 18  1  0  0  0  0
 17 23  1  0  0  0  0
 18 19  1  0  0  0  0
 18 21  1  0  0  0  0
 18 24  1  0  0  0  0
 19 20  2  0  0  0  0
 19 28  1  0  0  0  0
 21 22  1  0  0  0  0
 21 25  1  0  0  0  0
 21 26  1  0  0  0  0
 22 27  1  0  0  0  0
 28 29  1  0  0  0  0
 28 33  1  0  0  0  0
 29 30  1  0  0  0  0
 29 32  1  0  0  0  0
 29 34  1  0  0  0  0
 30 31  2  0  0  0  0
 30 38  1  0  0  0  0
 32 35  1  0  0  0  0
 32 36  1  0  0  0  0
 32 37  1  0  0  0  0
 38 39  1  0  0  0  0
 38 40  1  0  0  0  0
 39 41  1  0  0  0  0
 39 42  1  0  0  0  0
 39 43  1  0  0  0  0
M  END
$$$$

  -OEChem-05262217303D

 43 42  0     1  0  0  0  0  0999 V2000
    3.8931   -1.2722    3.9376 C   0  0  0  0  0  0  0  0  0  0  0  0
    3.3408   -0.5365    4.7399 O   0  0  0  0  0  0  0  0  0  0  0  0
    4.8530   -2.3434    4.4205 C   0  0  0  0  0  0  0  0  0  0  0  0
    5.8489   -2.1664    4.0073 H   0  0  0  0  0  0  0  0  0  0  0  0
    4.9167   -2.3282    5.5122 H   0  0  0  0  0  0  0  0  0  0  0  0
    4.5038   -3.3288    4.1024 H   0  0  0  0  0  0  0  0  0  0  0  0
    3.6330   -1.1416    2.5898 N   0  0  0  0  0  0  0  0  0  0  0  0
    2.6053   -0.2556    2.0266 C   0  0  2  0  0  0  0  0  0  0  0  0
    1.9417   -0.8738    0.7793 C   0  0  0  0  0  0  0  0  0  0  0  0
    2.4555   -1.8291    0.2042 O   0  0  0  0  0  0  0  0  0  0  0  0
    3.2629    1.0821    1.6737 C   0  0  0  0  0  0  0  0  0  0  0  0
    4.0206   -1.8509    1.9689 H   0  0  0  0  0  0  0  0  0  0  0  0
    1.8143   -0.0856    2.7652 H   0  0  0  0  0  0  0  0  0  0  0  0
    4.0494    0.9373    0.9260 H   0  0  0  0  0  0  0  0  0  0  0  0
    2.5236    1.7809    1.2703 H   0  0  0  0  0  0  0  0  0  0  0  0
    3.7093    1.5310    2.5668 H   0  0  0  0  0  0  0  0  0  0  0  0
    0.7662   -0.3562    0.2696 N   0  0  0  0  0  0  0  0  0  0  0  0
    0.3034   -0.6806   -1.0874 C   0  0  2  0  0  0  0  0  0  0  0  0
    1.2879   -0.2620   -2.1987 C   0  0  0  0  0  0  0  0  0  0  0  0
    1.6920    0.8973   -2.2306 O   0  0  0  0  0  0  0  0  0  0  0  0
   -1.0456    0.0166   -1.2958 C   0  0  0  0  0  0  0  0  0  0  0  0
   -0.8761    1.4401   -1.2876 O   0  0  0  0  0  0  0  0  0  0  0  0
    0.4495    0.5287    0.6631 H   0  0  0  0  0  0  0  0  0  0  0  0
    0.1479   -1.7617   -1.1560 H   0  0  0  0  0  0  0  0  0  0  0  0
   -1.7511   -0.2791   -0.5122 H   0  0  0  0  0  0  0  0  0  0  0  0
   -1.4680   -0.2914   -2.2582 H   0  0  0  0  0  0  0  0  0  0  0  0
   -0.0804    1.6902   -1.8074 H   0  0  0  0  0  0  0  0  0  0  0  0
    1.5846   -1.1328   -3.2343 N   0  0  0  0  0  0  0  0  0  0  0  0
    2.4126   -0.8510   -4.4265 C   0  0  2  0  0  0  0  0  0  0  0  0
    3.9108   -0.5930   -4.1398 C   0  0  0  0  0  0  0  0  0  0  0  0
    4.7567   -1.1757   -4.8052 O   0  0  0  0  0  0  0  0  0  0  0  0
    1.8134    0.2892   -5.2624 C   0  0  0  0  0  0  0  0  0  0  0  0
    1.3258   -2.1037   -3.0765 H   0  0  0  0  0  0  0  0  0  0  0  0
    2.3785   -1.7501   -5.0508 H   0  0  0  0  0  0  0  0  0  0  0  0
    1.9242    1.2536   -4.7586 H   0  0  0  0  0  0  0  0  0  0  0  0
    2.3239    0.3519   -6.2287 H   0  0  0  0  0  0  0  0  0  0  0  0
    0.7494    0.1103   -5.4441 H   0  0  0  0  0  0  0  0  0  0  0  0
    4.3148    0.2976   -3.1652 N   0  0  0  0  0  0  0  0  0  0  0  0
    5.7062    0.6047   -2.8656 C   0  0  0  0  0  0  0  0  0  0  0  0
    3.5704    0.7805   -2.6574 H   0  0  0  0  0  0  0  0  0  0  0  0
    6.2030    1.0265   -3.7454 H   0  0  0  0  0  0  0  0  0  0  0  0
    5.7651    1.3335   -2.0516 H   0  0  0  0  0  0  0  0  0  0  0  0
    6.2399   -0.3006   -2.5589 H   0  0  0  0  0  0  0  0  0  0  0  0
  1  2  2  0  0  0  0
  1  3  1  0  0  0  0
  1  7  1  0  0  0  0
  3  4  1  0  0  0  0
  3  5  1  0  0  0  0
  3  6  1  0  0  0  0
  7  8  1  0  0  0  0
  7 12  1  0  0  0  0
  8  9  1  0  0  0  0
  8 11  1  0  0  0  0
  8 13  1  0  0  0  0
  9 10  2  0  0  0  0
  9 17  1  0  0  0  0
 11 14  1  0  0  0  0
 11 15  1  0  0  0  0
 11 16  1  0  0  0  0
 17 18  1  0  0  0  0
 17 23  1  0  0  0  0
 18 19  1  0  0  0  0
 18 21  1  0  0  0  0
 18 24  1  0  0  0  0
 19 20  2  0  0  0  0
 19 28  1  0  0  0  0
 21 22  1  0  0  0  0
 21 25  1  0  0  0  0
 21 26  1  0  0  0  0
 22 27  1  0  0  0  0
 28 29  1  0  0  0  0
 28 33  1  0  0  0  0
 29 30  1  0  0  0  0
 29 32  1  0  0  0  0
 29 34  1  0  0  0  0
 30 31  2  0  0  0  0
 30 38  1  0  0  0  0
 32 35  1  0  0  0  0
 32 36  1  0  0  0  0
 32 37  1  0  0  0  0
 38 39  1  0  0  0  0
 38 40  1  0  0  0  0
 39 41  1  0  0  0  0
 39 42  1  0  0  0  0
 39 43  1  0  0  0  0
M  END
$$$$

  -OEChem-05262217303D

 43 42  0     1  0  0  0  0  0999 V2000
    3.9333   -1.2783    3.9060 C   0  0  0  0  0  0  0  0  0  0  0  0
    3.4152   -0.5121    4.7027 O   0  0  0  0  0  0  0  0  0  0  0  0
    4.9122   -2.3320    4.3890 C   0  0  0  0  0  0  0  0  0  0  0  0
    5.8943   -2.1623    3.9410 H   0  0  0  0  0  0  0  0  0  0  0  0
    5.0088   -2.2860    5.4775 H   0  0  0  0  0  0  0  0  0  0  0  0
    4.5583   -3.3272    4.1084 H   0  0  0  0  0  0  0  0  0  0  0  0
    3.6200   -1.1948    2.5658 N   0  0  0  0  0  0  0  0  0  0  0  0
    2.5895   -0.3082    2.0094 C   0  0  2  0  0  0  0  0  0  0  0  0
    1.9139   -0.9253    0.7684 C   0  0  0  0  0  0  0  0  0  0  0  0
    2.4241   -1.8779    0.1858 O   0  0  0  0  0  0  0  0  0  0  0  0
    3.2457    1.0277    1.6474 C   0  0  0  0  0  0  0  0  0  0  0  0
    3.9890   -1.9189    1.9505 H   0  0  0  0  0  0  0  0  0  0  0  0
    1.8064   -0.1363    2.7558 H   0  0  0  0  0  0  0  0  0  0  0  0
    4.0285    0.8786    0.8965 H   0  0  0  0  0  0  0  0  0  0  0  0
    2.5045    1.7240    1.2431 H   0  0  0  0  0  0  0  0  0  0  0  0
    3.6958    1.4816    2.5364 H   0  0  0  0  0  0  0  0  0  0  0  0
    0.7321   -0.4072    0.2739 N   0  0  0  0  0  0  0  0  0  0  0  0
    0.2791   -0.7006   -1.0940 C   0  0  2  0  0  0  0  0  0  0  0  0
    1.2546   -0.2417   -2.1966 C   0  0  0  0  0  0  0  0  0  0  0  0
    1.8031    0.8510   -2.0865 O   0  0  0  0  0  0  0  0  0  0  0  0
   -1.0651    0.0078   -1.2860 C   0  0  0  0  0  0  0  0  0  0  0  0
   -0.8854    1.4302   -1.2403 O   0  0  0  0  0  0  0  0  0  0  0  0
    0.4250    0.4769    0.6761 H   0  0  0  0  0  0  0  0  0  0  0  0
    0.1299   -1.7801   -1.1930 H   0  0  0  0  0  0  0  0  0  0  0  0
   -1.7733   -0.3035   -0.5108 H   0  0  0  0  0  0  0  0  0  0  0  0
   -1.4893   -0.2725   -2.2557 H   0  0  0  0  0  0  0  0  0  0  0  0
   -0.0859    1.6965   -1.7427 H   0  0  0  0  0  0  0  0  0  0  0  0
    1.3254   -0.9344   -3.3945 N   0  0  0  0  0  0  0  0  0  0  0  0
    2.0869   -0.5528   -4.6033 C   0  0  2  0  0  0  0  0  0  0  0  0
    3.6244   -0.5353   -4.4322 C   0  0  0  0  0  0  0  0  0  0  0  0
    4.3224   -1.1371   -5.2372 O   0  0  0  0  0  0  0  0  0  0  0  0
    1.5856    0.7791   -5.1791 C   0  0  0  0  0  0  0  0  0  0  0  0
    0.9029   -1.8591   -3.3937 H   0  0  0  0  0  0  0  0  0  0  0  0
    1.8800   -1.3186   -5.3580 H   0  0  0  0  0  0  0  0  0  0  0  0
    1.8568    1.6199   -4.5341 H   0  0  0  0  0  0  0  0  0  0  0  0
    2.0314    0.9506   -6.1641 H   0  0  0  0  0  0  0  0  0  0  0  0
    0.4974    0.7607   -5.2912 H   0  0  0  0  0  0  0  0  0  0  0  0
    4.2267    0.1519   -3.3972 N   0  0  0  0  0  0  0  0  0  0  0  0
    5.6625    0.1739   -3.1574 C   0  0  0  0  0  0  0  0  0  0  0  0
    3.5994    0.6176   -2.7372 H   0  0  0  0  0  0  0  0  0  0  0  0
    6.1941    0.5353   -4.0438 H   0  0  0  0  0  0  0  0  0  0  0  0
    5.8942    0.8405   -2.3213 H   0  0  0  0  0  0  0  0  0  0  0  0
    6.0244   -0.8299   -2.9125 H   0  0  0  0  0  0  0  0  0  0  0  0
  1  2  2  0  0  0  0
  1  3  1  0  0  0  0
  1  7  1  0  0  0  0
  3  4  1  0  0  0  0
  3  5  1  0  0  0  0
  3  6  1  0  0  0  0
  7  8  1  0  0  0  0
  7 12  1  0  0  0  0
  8  9  1  0  0  0  0
  8 11  1  0  0  0  0
  8 13  1  0  0  0  0
  9 10  2  0  0  0  0
  9 17  1  0  0  0  0
 11 14  1  0  0  0  0
 11 15  1  0  0  0  0
 11 16  1  0  0  0  0
 17 18  1  0  0  0  0
 17 23  1  0  0  0  0
 18 19  1  0  0  0  0
 18 21  1  0  0  0  0
 18 24  1  0  0  0  0
 19 20  2  0  0  0  0
 19 28  1  0  0  0  0
 21 22  1  0  0  0  0
 21 25  1  0  0  0  0
 21 26  1  0  0  0  0
 22 27  1  0  0  0  0
 28 29  1  0  0  0  0
 28 33  1  0  0  0  0
 29 30  1  0  0  0  0
 29 32  1  0  0  0  0
 29 34  1  0  0  0  0
 30 31  2  0  0  0  0
 30 38  1  0  0  0  0
 32 35  1  0  0  0  0
 32 36  1  0  0  0  0
 32 37  1  0  0  0  0
 38 39  1  0  0  0  0
 38 40  1  0  0  0  0
 39 41  1  0  0  0  0
 39 42  1  0  0  0  0
 39 43  1  0  0  0  0
M  END
$$$$

  -OEChem-05262217303D

 43 42  0     1  0  0  0  0  0999 V2000
    3.8970   -1.3128    3.9155 C   0  0  0  0  0  0  0  0  0  0  0  0
    3.3379   -0.5807    4.7165 O   0  0  0  0  0  0  0  0  0  0  0  0
    4.8820   -2.3596    4.4004 C   0  0  0  0  0  0  0  0  0  0  0  0
    5.8791   -2.1411    4.0103 H   0  0  0  0  0  0  0  0  0  0  0  0
    4.9227   -2.3609    5.4933 H   0  0  0  0  0  0  0  0  0  0  0  0
    4.5730   -3.3505    4.0590 H   0  0  0  0  0  0  0  0  0  0  0  0
    3.6302   -1.1929    2.5681 N   0  0  0  0  0  0  0  0  0  0  0  0
    2.6015   -0.3098    2.0028 C   0  0  2  0  0  0  0  0  0  0  0  0
    1.9268   -0.9356    0.7660 C   0  0  0  0  0  0  0  0  0  0  0  0
    2.4429   -1.8856    0.1839 O   0  0  0  0  0  0  0  0  0  0  0  0
    3.2626    1.0210    1.6327 C   0  0  0  0  0  0  0  0  0  0  0  0
    4.0240   -1.8988    1.9472 H   0  0  0  0  0  0  0  0  0  0  0  0
    1.8162   -0.1290    2.7447 H   0  0  0  0  0  0  0  0  0  0  0  0
    4.0487    0.8635    0.8872 H   0  0  0  0  0  0  0  0  0  0  0  0
    2.5256    1.7157    1.2185 H   0  0  0  0  0  0  0  0  0  0  0  0
    3.7094    1.4814    2.5198 H   0  0  0  0  0  0  0  0  0  0  0  0
    0.7317   -0.4353    0.2847 N   0  0  0  0  0  0  0  0  0  0  0  0
    0.2853   -0.7144   -1.0888 C   0  0  2  0  0  0  0  0  0  0  0  0
    1.2407   -0.2159   -2.1925 C   0  0  0  0  0  0  0  0  0  0  0  0
    1.9434    0.7665   -1.9791 O   0  0  0  0  0  0  0  0  0  0  0  0
   -1.0732   -0.0279   -1.2587 C   0  0  0  0  0  0  0  0  0  0  0  0
   -0.9220    1.3974   -1.1845 O   0  0  0  0  0  0  0  0  0  0  0  0
    0.4189    0.4437    0.6935 H   0  0  0  0  0  0  0  0  0  0  0  0
    0.1607   -1.7954   -1.2075 H   0  0  0  0  0  0  0  0  0  0  0  0
   -1.7683   -0.3681   -0.4836 H   0  0  0  0  0  0  0  0  0  0  0  0
   -1.5020   -0.2975   -2.2297 H   0  0  0  0  0  0  0  0  0  0  0  0
   -0.1600    1.7030   -1.7169 H   0  0  0  0  0  0  0  0  0  0  0  0
    1.0991   -0.6851   -3.4892 N   0  0  0  0  0  0  0  0  0  0  0  0
    1.7848   -0.1871   -4.7015 C   0  0  2  0  0  0  0  0  0  0  0  0
    3.3189   -0.3873   -4.7209 C   0  0  0  0  0  0  0  0  0  0  0  0
    3.8437   -0.8745   -5.7131 O   0  0  0  0  0  0  0  0  0  0  0  0
    1.4233    1.2780   -4.9839 C   0  0  0  0  0  0  0  0  0  0  0  0
    0.5224   -1.5150   -3.5986 H   0  0  0  0  0  0  0  0  0  0  0  0
    1.3990   -0.7731   -5.5423 H   0  0  0  0  0  0  0  0  0  0  0  0
    1.8716    1.9491   -4.2457 H   0  0  0  0  0  0  0  0  0  0  0  0
    1.7918    1.5687   -5.9730 H   0  0  0  0  0  0  0  0  0  0  0  0
    0.3377    1.4130   -4.9667 H   0  0  0  0  0  0  0  0  0  0  0  0
    4.1095   -0.0199   -3.6504 N   0  0  0  0  0  0  0  0  0  0  0  0
    5.5554   -0.1859   -3.6069 C   0  0  0  0  0  0  0  0  0  0  0  0
    3.6254    0.3871   -2.8467 H   0  0  0  0  0  0  0  0  0  0  0  0
    6.0312    0.3880   -4.4090 H   0  0  0  0  0  0  0  0  0  0  0  0
    5.9463    0.1685   -2.6483 H   0  0  0  0  0  0  0  0  0  0  0  0
    5.8230   -1.2415   -3.7204 H   0  0  0  0  0  0  0  0  0  0  0  0
  1  2  2  0  0  0  0
  1  3  1  0  0  0  0
  1  7  1  0  0  0  0
  3  4  1  0  0  0  0
  3  5  1  0  0  0  0
  3  6  1  0  0  0  0
  7  8  1  0  0  0  0
  7 12  1  0  0  0  0
  8  9  1  0  0  0  0
  8 11  1  0  0  0  0
  8 13  1  0  0  0  0
  9 10  2  0  0  0  0
  9 17  1  0  0  0  0
 11 14  1  0  0  0  0
 11 15  1  0  0  0  0
 11 16  1  0  0  0  0
 17 18  1  0  0  0  0
 17 23  1  0  0  0  0
 18 19  1  0  0  0  0
 18 21  1  0  0  0  0
 18 24  1  0  0  0  0
 19 20  2  0  0  0  0
 19 28  1  0  0  0  0
 21 22  1  0  0  0  0
 21 25  1  0  0  0  0
 21 26  1  0  0  0  0
 22 27  1  0  0  0  0
 28 29  1  0  0  0  0
 28 33  1  0  0  0  0
 29 30  1  0  0  0  0
 29 32  1  0  0  0  0
 29 34  1  0  0  0  0
 30 31  2  0  0  0  0
 30 38  1  0  0  0  0
 32 35  1  0  0  0  0
 32 36  1  0  0  0  0
 32 37  1  0  0  0  0
 38 39  1  0  0  0  0
 38 40  1  0  0  0  0
 39 41  1  0  0  0  0
 39 42  1  0  0  0  0
 39 43  1  0  0  0  0
M  END
$$$$

  -OEChem-05262217303D

 43 42  0     1  0  0  0  0  0999 V2000
    3.9686   -1.2839    3.9041 C   0  0  0  0  0  0  0  0  0  0  0  0
    3.4732   -0.4821    4.6802 O   0  0  0  0  0  0  0  0  0  0  0  0
    4.9150   -2.3537    4.4155 C   0  0  0  0  0  0  0  0  0  0  0  0
    5.9074   -2.2120    3.9804 H   0  0  0  0  0  0  0  0  0  0  0  0
    4.9954   -2.2965    5.5048 H   0  0  0  0  0  0  0  0  0  0  0  0
    4.5421   -3.3439    4.1419 H   0  0  0  0  0  0  0  0  0  0  0  0
    3.6581   -1.2296    2.5622 N   0  0  0  0  0  0  0  0  0  0  0  0
    2.6309   -0.3528    1.9850 C   0  0  2  0  0  0  0  0  0  0  0  0
    1.9000   -1.0308    0.8085 C   0  0  0  0  0  0  0  0  0  0  0  0
    2.3382   -2.0648    0.3108 O   0  0  0  0  0  0  0  0  0  0  0  0
    3.3061    0.9400    1.5187 C   0  0  0  0  0  0  0  0  0  0  0  0
    3.9880   -1.9951    1.9755 H   0  0  0  0  0  0  0  0  0  0  0  0
    1.8768   -0.1134    2.7424 H   0  0  0  0  0  0  0  0  0  0  0  0
    4.0572    0.7242    0.7518 H   0  0  0  0  0  0  0  0  0  0  0  0
    2.5686    1.6296    1.0971 H   0  0  0  0  0  0  0  0  0  0  0  0
    3.7989    1.4349    2.3616 H   0  0  0  0  0  0  0  0  0  0  0  0
    0.7070   -0.5207    0.3281 N   0  0  0  0  0  0  0  0  0  0  0  0
    0.2779   -0.7516   -1.0634 C   0  0  2  0  0  0  0  0  0  0  0  0
    1.3465   -0.5532   -2.1666 C   0  0  0  0  0  0  0  0  0  0  0  0
    2.3556    0.1013   -1.9294 O   0  0  0  0  0  0  0  0  0  0  0  0
   -0.8846    0.2178   -1.3086 C   0  0  0  0  0  0  0  0  0  0  0  0
   -0.4190    1.5740   -1.2589 O   0  0  0  0  0  0  0  0  0  0  0  0
    0.4502    0.3855    0.7154 H   0  0  0  0  0  0  0  0  0  0  0  0
   -0.0849   -1.7807   -1.1426 H   0  0  0  0  0  0  0  0  0  0  0  0
   -1.6634    0.0680   -0.5530 H   0  0  0  0  0  0  0  0  0  0  0  0
   -1.3357    0.0224   -2.2868 H   0  0  0  0  0  0  0  0  0  0  0  0
    0.3612    1.7068   -1.8320 H   0  0  0  0  0  0  0  0  0  0  0  0
    1.0018   -0.7626   -3.4944 N   0  0  0  0  0  0  0  0  0  0  0  0
    1.8015   -0.4251   -4.6929 C   0  0  2  0  0  0  0  0  0  0  0  0
    3.1446   -1.1826   -4.8214 C   0  0  0  0  0  0  0  0  0  0  0  0
    3.4144   -1.7400   -5.8768 O   0  0  0  0  0  0  0  0  0  0  0  0
    2.0126    1.0905   -4.8177 C   0  0  0  0  0  0  0  0  0  0  0  0
    0.1539   -1.3012   -3.6501 H   0  0  0  0  0  0  0  0  0  0  0  0
    1.2065   -0.7297   -5.5602 H   0  0  0  0  0  0  0  0  0  0  0  0
    2.6951    1.4638   -4.0488 H   0  0  0  0  0  0  0  0  0  0  0  0
    2.4437    1.3268   -5.7957 H   0  0  0  0  0  0  0  0  0  0  0  0
    1.0580    1.6167   -4.7253 H   0  0  0  0  0  0  0  0  0  0  0  0
    4.0394   -1.2517   -3.7725 N   0  0  0  0  0  0  0  0  0  0  0  0
    5.2918   -1.9929   -3.8134 C   0  0  0  0  0  0  0  0  0  0  0  0
    3.7596   -0.7864   -2.9051 H   0  0  0  0  0  0  0  0  0  0  0  0
    5.8179   -1.8955   -2.8589 H   0  0  0  0  0  0  0  0  0  0  0  0
    5.1015   -3.0553   -3.9965 H   0  0  0  0  0  0  0  0  0  0  0  0
    5.9399   -1.6074   -4.6072 H   0  0  0  0  0  0  0  0  0  0  0  0
  1  2  2  0  0  0  0
  1  3  1  0  0  0  0
  1  7  1  0  0  0  0
  3  4  1  0  0  0  0
  3  5  1  0  0  0  0
  3  6  1  0  0  0  0
  7  8  1  0  0  0  0
  7 12  1  0  0  0  0
  8  9  1  0  0  0  0
  8 11  1  0  0  0  0
  8 13  1  0  0  0  0
  9 10  2  0  0  0  0
  9 17  1  0  0  0  0
 11 14  1  0  0  0  0
 11 15  1  0  0  0  0
 11 16  1  0  0  0  0
 17 18  1  0  0  0  0
 17 23  1  0  0  0  0
 18 19  1  0  0  0  0
 18 21  1  0  0  0  0
 18 24  1  0  0  0  0
 19 20  2  0  0  0  0
 19 28  1  0  0  0  0
 21 22  1  0  0  0  0
 21 25  1  0  0  0  0
 21 26  1  0  0  0  0
 22 27  1  0  0  0  0
 28 29  1  0  0  0  0
 28 33  1  0  0  0  0
 29 30  1  0  0  0  0
 29 32  1  0  0  0  0
 29 34  1  0  0  0  0
 30 31  2  0  0  0  0
 30 38  1  0  0  0  0
 32 35  1  0  0  0  0
 32 36  1  0  0  0  0
 32 37  1  0  0  0  0
 38 39  1  0  0  0  0
 38 40  1  0  0  0  0
 39 41  1  0  0  0  0
 39 42  1  0  0  0  0
 39 43  1  0  0  0  0
M  END
$$$$

  -OEChem-05262217303D

 43 42  0     1  0  0  0  0  0999 V2000
    3.9789   -1.2913    3.8856 C   0  0  0  0  0  0  0  0  0  0  0  0
    3.4851   -0.4900    4.6632 O   0  0  0  0  0  0  0  0  0  0  0  0
    4.9363   -2.3535    4.3925 C   0  0  0  0  0  0  0  0  0  0  0  0
    5.9093   -2.2400    3.9084 H   0  0  0  0  0  0  0  0  0  0  0  0
    5.0672   -2.2583    5.4741 H   0  0  0  0  0  0  0  0  0  0  0  0
    4.5411   -3.3482    4.1720 H   0  0  0  0  0  0  0  0  0  0  0  0
    3.6584   -1.2424    2.5460 N   0  0  0  0  0  0  0  0  0  0  0  0
    2.6199   -0.3766    1.9732 C   0  0  2  0  0  0  0  0  0  0  0  0
    1.8858   -1.0692    0.8072 C   0  0  0  0  0  0  0  0  0  0  0  0
    2.3156   -2.1163    0.3304 O   0  0  0  0  0  0  0  0  0  0  0  0
    3.2823    0.9171    1.4909 C   0  0  0  0  0  0  0  0  0  0  0  0
    3.9864   -2.0091    1.9596 H   0  0  0  0  0  0  0  0  0  0  0  0
    1.8714   -0.1368    2.7358 H   0  0  0  0  0  0  0  0  0  0  0  0
    4.0187    0.7010    0.7097 H   0  0  0  0  0  0  0  0  0  0  0  0
    2.5346    1.6036    1.0823 H   0  0  0  0  0  0  0  0  0  0  0  0
    3.7905    1.4156    2.3225 H   0  0  0  0  0  0  0  0  0  0  0  0
    0.6836   -0.5782    0.3298 N   0  0  0  0  0  0  0  0  0  0  0  0
    0.2781   -0.7603   -1.0773 C   0  0  2  0  0  0  0  0  0  0  0  0
    1.3422   -0.4800   -2.1744 C   0  0  0  0  0  0  0  0  0  0  0  0
    2.4555   -0.0618   -1.8825 O   0  0  0  0  0  0  0  0  0  0  0  0
   -0.9432    0.1483   -1.2719 C   0  0  0  0  0  0  0  0  0  0  0  0
   -0.5687    1.5271   -1.1436 O   0  0  0  0  0  0  0  0  0  0  0  0
    0.4057    0.3111    0.7407 H   0  0  0  0  0  0  0  0  0  0  0  0
   -0.0321   -1.8021   -1.2048 H   0  0  0  0  0  0  0  0  0  0  0  0
   -1.7033   -0.0931   -0.5209 H   0  0  0  0  0  0  0  0  0  0  0  0
   -1.3944   -0.0228   -2.2543 H   0  0  0  0  0  0  0  0  0  0  0  0
    0.1123    1.7783   -1.7954 H   0  0  0  0  0  0  0  0  0  0  0  0
    0.9372   -0.3375   -3.4955 N   0  0  0  0  0  0  0  0  0  0  0  0
    1.7610    0.0979   -4.6453 C   0  0  2  0  0  0  0  0  0  0  0  0
    2.9460   -0.8351   -4.9927 C   0  0  0  0  0  0  0  0  0  0  0  0
    3.0406   -1.2780   -6.1295 O   0  0  0  0  0  0  0  0  0  0  0  0
    2.2346    1.5492   -4.4814 C   0  0  0  0  0  0  0  0  0  0  0  0
    0.0098   -0.6926   -3.7119 H   0  0  0  0  0  0  0  0  0  0  0  0
    1.1051    0.0820   -5.5220 H   0  0  0  0  0  0  0  0  0  0  0  0
    2.9911    1.6370   -3.6964 H   0  0  0  0  0  0  0  0  0  0  0  0
    2.6768    1.9037   -5.4178 H   0  0  0  0  0  0  0  0  0  0  0  0
    1.3921    2.1997   -4.2299 H   0  0  0  0  0  0  0  0  0  0  0  0
    3.8907   -1.1866   -4.0492 N   0  0  0  0  0  0  0  0  0  0  0  0
    4.9896   -2.1091   -4.2979 C   0  0  0  0  0  0  0  0  0  0  0  0
    3.7293   -0.8449   -3.0978 H   0  0  0  0  0  0  0  0  0  0  0  0
    5.6232   -2.1878   -3.4095 H   0  0  0  0  0  0  0  0  0  0  0  0
    4.6049   -3.1049   -4.5397 H   0  0  0  0  0  0  0  0  0  0  0  0
    5.6068   -1.7565   -5.1306 H   0  0  0  0  0  0  0  0  0  0  0  0
  1  2  2  0  0  0  0
  1  3  1  0  0  0  0
  1  7  1  0  0  0  0
  3  4  1  0  0  0  0
  3  5  1  0  0  0  0
  3  6  1  0  0  0  0
  7  8  1  0  0  0  0
  7 12  1  0  0  0  0
  8  9  1  0  0  0  0
  8 11  1  0  0  0  0
  8 13  1  0  0  0  0
  9 10  2  0  0  0  0
  9 17  1  0  0  0  0
 11 14  1  0  0  0  0
 11 15  1  0  0  0  0
 11 16  1  0  0  0  0
 17 18  1  0  0  0  0
 17 23  1  0  0  0  0
 18 19  1  0  0  0  0
 18 21  1  0  0  0  0
 18 24  1  0  0  0  0
 19 20  2  0  0  0  0
 19 28  1  0  0  0  0
 21 22  1  0  0  0  0
 21 25  1  0  0  0  0
 21 26  1  0  0  0  0
 22 27  1  0  0  0  0
 28 29  1  0  0  0  0
 28 33  1  0  0  0  0
 29 30  1  0  0  0  0
 29 32  1  0  0  0  0
 29 34  1  0  0  0  0
 30 31  2  0  0  0  0
 30 38  1  0  0  0  0
 32 35  1  0  0  0  0
 32 36  1  0  0  0  0
 32 37  1  0  0  0  0
 38 39  1  0  0  0  0
 38 40  1  0  0  0  0
 39 41  1  0  0  0  0
 39 42  1  0  0  0  0
 39 43  1  0  0  0  0
M  END
$$$$

  -OEChem-05262217303D

 43 42  0     1  0  0  0  0  0999 V2000
    3.9413   -1.2869    3.9106 C   0  0  0  0  0  0  0  0  0  0  0  0
    3.4376   -0.4717    4.6675 O   0  0  0  0  0  0  0  0  0  0  0  0
    4.9204   -2.3167    4.4425 C   0  0  0  0  0  0  0  0  0  0  0  0
    5.8904   -2.1956    3.9543 H   0  0  0  0  0  0  0  0  0  0  0  0
    5.0506   -2.1919    5.5212 H   0  0  0  0  0  0  0  0  0  0  0  0
    4.5454   -3.3244    4.2474 H   0  0  0  0  0  0  0  0  0  0  0  0
    3.6118   -1.2818    2.5721 N   0  0  0  0  0  0  0  0  0  0  0  0
    2.5634   -0.4416    1.9797 C   0  0  2  0  0  0  0  0  0  0  0  0
    1.8695   -1.1448    0.7952 C   0  0  0  0  0  0  0  0  0  0  0  0
    2.3126   -2.1963    0.3429 O   0  0  0  0  0  0  0  0  0  0  0  0
    3.1979    0.8734    1.5169 C   0  0  0  0  0  0  0  0  0  0  0  0
    3.9536   -2.0549    2.0019 H   0  0  0  0  0  0  0  0  0  0  0  0
    1.7938   -0.2277    2.7289 H   0  0  0  0  0  0  0  0  0  0  0  0
    3.9568    0.6829    0.7508 H   0  0  0  0  0  0  0  0  0  0  0  0
    2.4390    1.5395    1.0956 H   0  0  0  0  0  0  0  0  0  0  0  0
    3.6735    1.3828    2.3611 H   0  0  0  0  0  0  0  0  0  0  0  0
    0.6674   -0.6752    0.2974 N   0  0  0  0  0  0  0  0  0  0  0  0
    0.3043   -0.7914   -1.1291 C   0  0  2  0  0  0  0  0  0  0  0  0
    1.3780   -0.4133   -2.1925 C   0  0  0  0  0  0  0  0  0  0  0  0
    2.5585   -0.2856   -1.9006 O   0  0  0  0  0  0  0  0  0  0  0  0
   -0.9655    0.0572   -1.2901 C   0  0  0  0  0  0  0  0  0  0  0  0
   -0.6758    1.4445   -1.0650 O   0  0  0  0  0  0  0  0  0  0  0  0
    0.3493    0.1848    0.7401 H   0  0  0  0  0  0  0  0  0  0  0  0
    0.0480   -1.8381   -1.3208 H   0  0  0  0  0  0  0  0  0  0  0  0
   -1.7188   -0.2752   -0.5674 H   0  0  0  0  0  0  0  0  0  0  0  0
   -1.3964   -0.0788   -2.2870 H   0  0  0  0  0  0  0  0  0  0  0  0
   -0.0356    1.7917   -1.7137 H   0  0  0  0  0  0  0  0  0  0  0  0
    0.9795    0.0904   -3.4258 N   0  0  0  0  0  0  0  0  0  0  0  0
    1.8407    0.6546   -4.4900 C   0  0  2  0  0  0  0  0  0  0  0  0
    2.8386   -0.3421   -5.1269 C   0  0  0  0  0  0  0  0  0  0  0  0
    2.8689   -0.4562   -6.3447 O   0  0  0  0  0  0  0  0  0  0  0  0
    2.5636    1.9242   -4.0168 C   0  0  0  0  0  0  0  0  0  0  0  0
    0.0041   -0.0615   -3.6674 H   0  0  0  0  0  0  0  0  0  0  0  0
    1.1722    0.9622   -5.3010 H   0  0  0  0  0  0  0  0  0  0  0  0
    3.3421    1.6918   -3.2843 H   0  0  0  0  0  0  0  0  0  0  0  0
    3.0394    2.4209   -4.8684 H   0  0  0  0  0  0  0  0  0  0  0  0
    1.8537    2.6220   -3.5631 H   0  0  0  0  0  0  0  0  0  0  0  0
    3.6878   -1.1093   -4.3550 N   0  0  0  0  0  0  0  0  0  0  0  0
    4.6488   -2.0616   -4.8934 C   0  0  0  0  0  0  0  0  0  0  0  0
    3.6224   -0.9799   -3.3413 H   0  0  0  0  0  0  0  0  0  0  0  0
    5.3954   -1.5464   -5.5066 H   0  0  0  0  0  0  0  0  0  0  0  0
    5.1652   -2.5765   -4.0774 H   0  0  0  0  0  0  0  0  0  0  0  0
    4.1423   -2.8122   -5.5090 H   0  0  0  0  0  0  0  0  0  0  0  0
  1  2  2  0  0  0  0
  1  3  1  0  0  0  0
  1  7  1  0  0  0  0
  3  4  1  0  0  0  0
  3  5  1  0  0  0  0
  3  6  1  0  0  0  0
  7  8  1  0  0  0  0
  7 12  1  0  0  0  0
  8  9  1  0  0  0  0
  8 11  1  0  0  0  0
  8 13  1  0  0  0  0
  9 10  2  0  0  0  0
  9 17  1  0  0  0  0
 11 14  1  0  0  0  0
 11 15  1  0  0  0  0
 11 16  1  0  0  0  0
 17 18  1  0  0  0  0
 17 23  1  0  0  0  0
 18 19  1  0  0  0  0
 18 21  1  0  0  0  0
 18 24  1  0  0  0  0
 19 20  2  0  0  0  0
 19 28  1  0  0  0  0
 21 22  1  0  0  0  0
 21 25  1  0  0  0  0
 21 26  1  0  0  0  0
 22 27  1  0  0  0  0
 28 29  1  0  0  0  0
 28 33  1  0  0  0  0
 29 30  1  0  0  0  0
 29 32  1  0  0  0  0
 29 34  1  0  0  0  0
 30 31  2  0  0  0  0
 30 38  1  0  0  0  0
 32 35  1  0  0  0  0
 32 36  1  0  0  0  0
 32 37  1  0  0  0  0
 38 39  1  0  0  0  0
 38 40  1  0  0  0  0
 39 41  1  0  0  0  0
 39 42  1  0  0  0  0
 39 43  1  0  0  0  0
M  END
$$$$

  -OEChem-05262217303D

 43 42  0     1  0  0  0  0  0999 V2000
    3.9207   -1.2492    3.9315 C   0  0  0  0  0  0  0  0  0  0  0  0
    3.4002   -0.4367    4.6800 O   0  0  0  0  0  0  0  0  0  0  0  0
    4.9174   -2.2560    4.4743 C   0  0  0  0  0  0  0  0  0  0  0  0
    5.8902   -2.1123    3.9977 H   0  0  0  0  0  0  0  0  0  0  0  0
    5.0308   -2.1291    5.5546 H   0  0  0  0  0  0  0  0  0  0  0  0
    4.5681   -3.2718    4.2747 H   0  0  0  0  0  0  0  0  0  0  0  0
    3.5912   -1.2631    2.5931 N   0  0  0  0  0  0  0  0  0  0  0  0
    2.5217   -0.4542    1.9954 C   0  0  2  0  0  0  0  0  0  0  0  0
    1.8680   -1.1709    0.7964 C   0  0  0  0  0  0  0  0  0  0  0  0
    2.3351   -2.2191    0.3636 O   0  0  0  0  0  0  0  0  0  0  0  0
    3.1156    0.8854    1.5495 C   0  0  0  0  0  0  0  0  0  0  0  0
    3.9482   -2.0346    2.0296 H   0  0  0  0  0  0  0  0  0  0  0  0
    1.7366   -0.2743    2.7377 H   0  0  0  0  0  0  0  0  0  0  0  0
    3.8899    0.7258    0.7919 H   0  0  0  0  0  0  0  0  0  0  0  0
    2.3397    1.5282    1.1237 H   0  0  0  0  0  0  0  0  0  0  0  0
    3.5631    1.4046    2.4030 H   0  0  0  0  0  0  0  0  0  0  0  0
    0.6673   -0.7246    0.2758 N   0  0  0  0  0  0  0  0  0  0  0  0
    0.3471   -0.7931   -1.1640 C   0  0  2  0  0  0  0  0  0  0  0  0
    1.4328   -0.3354   -2.1841 C   0  0  0  0  0  0  0  0  0  0  0  0
    2.6252   -0.5021   -1.9807 O   0  0  0  0  0  0  0  0  0  0  0  0
   -0.9589   -0.0001   -1.3179 C   0  0  0  0  0  0  0  0  0  0  0  0
   -0.7439    1.3888   -1.0209 O   0  0  0  0  0  0  0  0  0  0  0  0
    0.3045    0.1046    0.7422 H   0  0  0  0  0  0  0  0  0  0  0  0
    0.1412   -1.8406   -1.4065 H   0  0  0  0  0  0  0  0  0  0  0  0
   -1.7144   -0.4029   -0.6340 H   0  0  0  0  0  0  0  0  0  0  0  0
   -1.3540   -0.1109   -2.3329 H   0  0  0  0  0  0  0  0  0  0  0  0
   -0.0709    1.7899   -1.6015 H   0  0  0  0  0  0  0  0  0  0  0  0
    1.0833    0.4799   -3.2559 N   0  0  0  0  0  0  0  0  0  0  0  0
    1.9934    1.1031   -4.2434 C   0  0  2  0  0  0  0  0  0  0  0  0
    2.7499    0.1064   -5.1535 C   0  0  0  0  0  0  0  0  0  0  0  0
    2.6508    0.2181   -6.3681 O   0  0  0  0  0  0  0  0  0  0  0  0
    2.9670    2.0853   -3.5748 C   0  0  0  0  0  0  0  0  0  0  0  0
    0.0909    0.5139   -3.4736 H   0  0  0  0  0  0  0  0  0  0  0  0
    1.3649    1.6983   -4.9142 H   0  0  0  0  0  0  0  0  0  0  0  0
    3.7182    1.5604   -2.9776 H   0  0  0  0  0  0  0  0  0  0  0  0
    3.4904    2.6686   -4.3389 H   0  0  0  0  0  0  0  0  0  0  0  0
    2.4249    2.7772   -2.9239 H   0  0  0  0  0  0  0  0  0  0  0  0
    3.5142   -0.9162   -4.6284 N   0  0  0  0  0  0  0  0  0  0  0  0
    4.2219   -1.9029   -5.4319 C   0  0  0  0  0  0  0  0  0  0  0  0
    3.5325   -0.9922   -3.6071 H   0  0  0  0  0  0  0  0  0  0  0  0
    4.9531   -1.4126   -6.0829 H   0  0  0  0  0  0  0  0  0  0  0  0
    4.7535   -2.6059   -4.7833 H   0  0  0  0  0  0  0  0  0  0  0  0
    3.5183   -2.4678   -6.0523 H   0  0  0  0  0  0  0  0  0  0  0  0
  1  2  2  0  0  0  0
  1  3  1  0  0  0  0
  1  7  1  0  0  0  0
  3  4  1  0  0  0  0
  3  5  1  0  0  0  0
  3  6  1  0  0  0  0
  7  8  1  0  0  0  0
  7 12  1  0  0  0  0
  8  9  1  0  0  0  0
  8 11  1  0  0  0  0
  8 13  1  0  0  0  0
  9 10  2  0  0  0  0
  9 17  1  0  0  0  0
 11 14  1  0  0  0  0
 11 15  1  0  0  0  0
 11 16  1  0  0  0  0
 17 18  1  0  0  0  0
 17 23  1  0  0  0  0
 18 19  1  0  0  0  0
 18 21  1  0  0  0  0
 18 24  1  0  0  0  0
 19 20  2  0  0  0  0
 19 28  1  0  0  0  0
 21 22  1  0  0  0  0
 21 25  1  0  0  0  0
 21 26  1  0  0  0  0
 22 27  1  0  0  0  0
 28 29  1  0  0  0  0
 28 33  1  0  0  0  0
 29 30  1  0  0  0  0
 29 32  1  0  0  0  0
 29 34  1  0  0  0  0
 30 31  2  0  0  0  0
 30 38  1  0  0  0  0
 32 35  1  0  0  0  0
 32 36  1  0  0  0  0
 32 37  1  0  0  0  0
 38 39  1  0  0  0  0
 38 40  1  0  0  0  0
 39 41  1  0  0  0  0
 39 42  1  0  0  0  0
 39 43  1  0  0  0  0
M  END
$$$$

  -OEChem-05262217303D

 43 42  0     1  0  0  0  0  0999 V2000
    3.8915   -1.2454    4.0175 C   0  0  0  0  0  0  0  0  0  0  0  0
    3.2734   -0.5328    4.7930 O   0  0  0  0  0  0  0  0  0  0  0  0
    4.9552   -2.1943    4.5366 C   0  0  0  0  0  0  0  0  0  0  0  0
    5.9276   -1.9322    4.1130 H   0  0  0  0  0  0  0  0  0  0  0  0
    5.0169   -2.1321    5.6266 H   0  0  0  0  0  0  0  0  0  0  0  0
    4.7082   -3.2211    4.2564 H   0  0  0  0  0  0  0  0  0  0  0  0
    3.6147   -1.1968    2.6681 N   0  0  0  0  0  0  0  0  0  0  0  0
    2.4926   -0.4542    2.0806 C   0  0  2  0  0  0  0  0  0  0  0  0
    1.9548   -1.1473    0.8115 C   0  0  0  0  0  0  0  0  0  0  0  0
    2.5262   -2.1288    0.3537 O   0  0  0  0  0  0  0  0  0  0  0  0
    2.9666    0.9647    1.7502 C   0  0  0  0  0  0  0  0  0  0  0  0
    4.0533   -1.9017    2.0752 H   0  0  0  0  0  0  0  0  0  0  0  0
    1.6681   -0.4025    2.7999 H   0  0  0  0  0  0  0  0  0  0  0  0
    3.7812    0.9342    1.0190 H   0  0  0  0  0  0  0  0  0  0  0  0
    2.1470    1.5587    1.3349 H   0  0  0  0  0  0  0  0  0  0  0  0
    3.3283    1.4635    2.6551 H   0  0  0  0  0  0  0  0  0  0  0  0
    0.7494   -0.7569    0.2571 N   0  0  0  0  0  0  0  0  0  0  0  0
    0.4584   -0.8102   -1.1896 C   0  0  2  0  0  0  0  0  0  0  0  0
    1.5311   -0.2795   -2.1848 C   0  0  0  0  0  0  0  0  0  0  0  0
    2.6786   -0.6925   -2.1685 O   0  0  0  0  0  0  0  0  0  0  0  0
   -0.8886   -0.0897   -1.3428 C   0  0  0  0  0  0  0  0  0  0  0  0
   -0.7659    1.3036   -1.0068 O   0  0  0  0  0  0  0  0  0  0  0  0
    0.2966    0.0097    0.7510 H   0  0  0  0  0  0  0  0  0  0  0  0
    0.3121   -1.8621   -1.4568 H   0  0  0  0  0  0  0  0  0  0  0  0
   -1.6363   -0.5562   -0.6920 H   0  0  0  0  0  0  0  0  0  0  0  0
   -1.2475   -0.1927   -2.3725 H   0  0  0  0  0  0  0  0  0  0  0  0
   -0.0099    1.7314   -1.4494 H   0  0  0  0  0  0  0  0  0  0  0  0
    1.2372    0.7702   -3.0501 N   0  0  0  0  0  0  0  0  0  0  0  0
    2.1647    1.4313   -3.9953 C   0  0  2  0  0  0  0  0  0  0  0  0
    2.6563    0.5317   -5.1539 C   0  0  0  0  0  0  0  0  0  0  0  0
    2.4100    0.8589   -6.3069 O   0  0  0  0  0  0  0  0  0  0  0  0
    3.3457    2.0879   -3.2640 C   0  0  0  0  0  0  0  0  0  0  0  0
    0.2458    0.9414   -3.2018 H   0  0  0  0  0  0  0  0  0  0  0  0
    1.6040    2.2450   -4.4674 H   0  0  0  0  0  0  0  0  0  0  0  0
    4.0300    1.3400   -2.8532 H   0  0  0  0  0  0  0  0  0  0  0  0
    3.9114    2.7165   -3.9589 H   0  0  0  0  0  0  0  0  0  0  0  0
    2.9850    2.7171   -2.4451 H   0  0  0  0  0  0  0  0  0  0  0  0
    3.3363   -0.6452   -4.9138 N   0  0  0  0  0  0  0  0  0  0  0  0
    3.7747   -1.5630   -5.9557 C   0  0  0  0  0  0  0  0  0  0  0  0
    3.4440   -0.9125   -3.9308 H   0  0  0  0  0  0  0  0  0  0  0  0
    4.2770   -2.4267   -5.5092 H   0  0  0  0  0  0  0  0  0  0  0  0
    2.9188   -1.9218   -6.5366 H   0  0  0  0  0  0  0  0  0  0  0  0
    4.4777   -1.0660   -6.6321 H   0  0  0  0  0  0  0  0  0  0  0  0
  1  2  2  0  0  0  0
  1  3  1  0  0  0  0
  1  7  1  0  0  0  0
  3  4  1  0  0  0  0
  3  5  1  0  0  0  0
  3  6  1  0  0  0  0
  7  8  1  0  0  0  0
  7 12  1  0  0  0  0
  8  9  1  0  0  0  0
  8 11  1  0  0  0  0
  8 13  1  0  0  0  0
  9 10  2  0  0  0  0
  9 17  1  0  0  0  0
 11 14  1  0  0  0  0
 11 15  1  0  0  0  0
 11 16  1  0  0  0  0
 17 18  1  0  0  0  0
 17 23  1  0  0  0  0
 18 19  1  0  0  0  0
 18 21  1  0  0  0  0
 18 24  1  0  0  0  0
 19 20  2  0  0  0  0
 19 28  1  0  0  0  0
 21 22  1  0  0  0  0
 21 25  1  0  0  0  0
 21 26  1  0  0  0  0
 22 27  1  0  0  0  0
 28 29  1  0  0  0  0
 28 33  1  0  0  0  0
 29 30  1  0  0  0  0
 29 32  1  0  0  0  0
 29 34  1  0  0  0  0
 30 31  2  0  0  0  0
 30 38  1  0  0  0  0
 32 35  1  0  0  0  0
 32 36  1  0  0  0  0
 32 37  1  0  0  0  0
 38 39  1  0  0  0  0
 38 40  1  0  0  0  0
 39 41  1  0  0  0  0
 39 42  1  0  0  0  0
 39 43  1  0  0  0  0
M  END
$$$$

  -OEChem-05262217303D

 43 42  0     1  0  0  0  0  0999 V2000
    3.7310   -1.3353    4.2519 C   0  0  0  0  0  0  0  0  0  0  0  0
    2.9274   -0.8178    5.0121 O   0  0  0  0  0  0  0  0  0  0  0  0
    4.8261   -2.2333    4.7958 C   0  0  0  0  0  0  0  0  0  0  0  0
    5.8059   -1.8103    4.5611 H   0  0  0  0  0  0  0  0  0  0  0  0
    4.7326   -2.3270    5.8813 H   0  0  0  0  0  0  0  0  0  0  0  0
    4.7502   -3.2279    4.3495 H   0  0  0  0  0  0  0  0  0  0  0  0
    3.6352   -1.1147    2.8945 N   0  0  0  0  0  0  0  0  0  0  0  0
    2.5138   -0.4215    2.2481 C   0  0  2  0  0  0  0  0  0  0  0  0
    2.1953   -1.0208    0.8626 C   0  0  0  0  0  0  0  0  0  0  0  0
    2.9672   -1.8186    0.3505 O   0  0  0  0  0  0  0  0  0  0  0  0
    2.8745    1.0616    2.1199 C   0  0  0  0  0  0  0  0  0  0  0  0
    4.2347   -1.6742    2.2876 H   0  0  0  0  0  0  0  0  0  0  0  0
    1.6121   -0.5235    2.8615 H   0  0  0  0  0  0  0  0  0  0  0  0
    3.7645    1.1859    1.4945 H   0  0  0  0  0  0  0  0  0  0  0  0
    2.0502    1.6217    1.6685 H   0  0  0  0  0  0  0  0  0  0  0  0
    3.0806    1.4873    3.1073 H   0  0  0  0  0  0  0  0  0  0  0  0
    1.0021   -0.7152    0.2336 N   0  0  0  0  0  0  0  0  0  0  0  0
    0.7766   -0.8034   -1.2228 C   0  0  2  0  0  0  0  0  0  0  0  0
    1.8829   -0.2124   -2.1347 C   0  0  0  0  0  0  0  0  0  0  0  0
    2.8230   -0.9040   -2.4987 O   0  0  0  0  0  0  0  0  0  0  0  0
   -0.6207   -0.2358   -1.5187 C   0  0  0  0  0  0  0  0  0  0  0  0
   -0.6925    1.1695   -1.2304 O   0  0  0  0  0  0  0  0  0  0  0  0
    0.4421   -0.0161    0.7154 H   0  0  0  0  0  0  0  0  0  0  0  0
    0.7484   -1.8687   -1.4759 H   0  0  0  0  0  0  0  0  0  0  0  0
   -1.3633   -0.7707   -0.9165 H   0  0  0  0  0  0  0  0  0  0  0  0
   -0.8667   -0.4059   -2.5725 H   0  0  0  0  0  0  0  0  0  0  0  0
   -1.6032    1.4994   -1.3555 H   0  0  0  0  0  0  0  0  0  0  0  0
    1.6778    1.0030   -2.7675 N   0  0  0  0  0  0  0  0  0  0  0  0
    2.5537    1.6805   -3.7454 C   0  0  2  0  0  0  0  0  0  0  0  0
    2.6191    0.9968   -5.1302 C   0  0  0  0  0  0  0  0  0  0  0  0
    2.3312    1.6390   -6.1321 O   0  0  0  0  0  0  0  0  0  0  0  0
    3.9621    1.9013   -3.1744 C   0  0  0  0  0  0  0  0  0  0  0  0
    0.8492    1.5046   -2.4457 H   0  0  0  0  0  0  0  0  0  0  0  0
    2.1246    2.6726   -3.9196 H   0  0  0  0  0  0  0  0  0  0  0  0
    4.4980    0.9546   -3.0581 H   0  0  0  0  0  0  0  0  0  0  0  0
    4.5427    2.5392   -3.8483 H   0  0  0  0  0  0  0  0  0  0  0  0
    3.9045    2.3908   -2.1976 H   0  0  0  0  0  0  0  0  0  0  0  0
    2.9843   -0.3279   -5.2591 N   0  0  0  0  0  0  0  0  0  0  0  0
    3.0322   -1.0442   -6.5254 C   0  0  0  0  0  0  0  0  0  0  0  0
    3.1573   -0.8337   -4.3850 H   0  0  0  0  0  0  0  0  0  0  0  0
    3.3896   -2.0660   -6.3658 H   0  0  0  0  0  0  0  0  0  0  0  0
    2.0358   -1.0904   -6.9770 H   0  0  0  0  0  0  0  0  0  0  0  0
    3.7135   -0.5445   -7.2222 H   0  0  0  0  0  0  0  0  0  0  0  0
  1  2  2  0  0  0  0
  1  3  1  0  0  0  0
  1  7  1  0  0  0  0
  3  4  1  0  0  0  0
  3  5  1  0  0  0  0
  3  6  1  0  0  0  0
  7  8  1  0  0  0  0
  7 12  1  0  0  0  0
  8  9  1  0  0  0  0
  8 11  1  0  0  0  0
  8 13  1  0  0  0  0
  9 10  2  0  0  0  0
  9 17  1  0  0  0  0
 11 14  1  0  0  0  0
 11 15  1  0  0  0  0
 11 16  1  0  0  0  0
 17 18  1  0  0  0  0
 17 23  1  0  0  0  0
 18 19  1  0  0  0  0
 18 21  1  0  0  0  0
 18 24  1  0  0  0  0
 19 20  2  0  0  0  0
 19 28  1  0  0  0  0
 21 22  1  0  0  0  0
 21 25  1  0  0  0  0
 21 26  1  0  0  0  0
 22 27  1  0  0  0  0
 28 29  1  0  0  0  0
 28 33  1  0  0  0  0
 29 30  1  0  0  0  0
 29 32  1  0  0  0  0
 29 34  1  0  0  0  0
 30 31  2  0  0  0  0
 30 38  1  0  0  0  0
 32 35  1  0  0  0  0
 32 36  1  0  0  0  0
 32 37  1  0  0  0  0
 38 39  1  0  0  0  0
 38 40  1  0  0  0  0
 39 41  1  0  0  0  0
 39 42  1  0  0  0  0
 39 43  1  0  0  0  0
M  END
$$$$

  -OEChem-05262217303D

 43 42  0     1  0  0  0  0  0999 V2000
    3.6317   -1.4110    4.2851 C   0  0  0  0  0  0  0  0  0  0  0  0
    2.8383   -0.8898    5.0533 O   0  0  0  0  0  0  0  0  0  0  0  0
    4.7328   -2.3089    4.8167 C   0  0  0  0  0  0  0  0  0  0  0  0
    5.7100   -1.8988    4.5504 H   0  0  0  0  0  0  0  0  0  0  0  0
    4.6665   -2.3829    5.9057 H   0  0  0  0  0  0  0  0  0  0  0  0
    4.6368   -3.3098    4.3889 H   0  0  0  0  0  0  0  0  0  0  0  0
    3.5211   -1.1912    2.9288 N   0  0  0  0  0  0  0  0  0  0  0  0
    2.4143   -0.4640    2.2945 C   0  0  2  0  0  0  0  0  0  0  0  0
    2.1250   -0.9941    0.8746 C   0  0  0  0  0  0  0  0  0  0  0  0
    2.9066   -1.7687    0.3414 O   0  0  0  0  0  0  0  0  0  0  0  0
    2.7786    1.0235    2.2454 C   0  0  0  0  0  0  0  0  0  0  0  0
    4.1160   -1.7464    2.3135 H   0  0  0  0  0  0  0  0  0  0  0  0
    1.5010   -0.5953    2.8849 H   0  0  0  0  0  0  0  0  0  0  0  0
    3.6862    1.1750    1.6522 H   0  0  0  0  0  0  0  0  0  0  0  0
    1.9678    1.6057    1.7976 H   0  0  0  0  0  0  0  0  0  0  0  0
    2.9560    1.4033    3.2566 H   0  0  0  0  0  0  0  0  0  0  0  0
    0.9675   -0.6211    0.2159 N   0  0  0  0  0  0  0  0  0  0  0  0
    0.7654   -0.7244   -1.2423 C   0  0  2  0  0  0  0  0  0  0  0  0
    1.9315   -0.2292   -2.1319 C   0  0  0  0  0  0  0  0  0  0  0  0
    2.6836   -1.0355   -2.6626 O   0  0  0  0  0  0  0  0  0  0  0  0
   -0.5739   -0.0530   -1.5839 C   0  0  0  0  0  0  0  0  0  0  0  0
   -0.5426    1.3608   -1.3288 O   0  0  0  0  0  0  0  0  0  0  0  0
    0.4133    0.0874    0.6904 H   0  0  0  0  0  0  0  0  0  0  0  0
    0.6601   -1.7892   -1.4759 H   0  0  0  0  0  0  0  0  0  0  0  0
   -1.3730   -0.5134   -0.9932 H   0  0  0  0  0  0  0  0  0  0  0  0
   -0.8030   -0.2254   -2.6412 H   0  0  0  0  0  0  0  0  0  0  0  0
   -1.4056    1.7656   -1.5416 H   0  0  0  0  0  0  0  0  0  0  0  0
    1.9750    1.0946   -2.5361 N   0  0  0  0  0  0  0  0  0  0  0  0
    2.9586    1.7440   -3.4255 C   0  0  2  0  0  0  0  0  0  0  0  0
    2.8711    1.3222   -4.9104 C   0  0  0  0  0  0  0  0  0  0  0  0
    2.7880    2.1846   -5.7757 O   0  0  0  0  0  0  0  0  0  0  0  0
    4.3857    1.5699   -2.8878 C   0  0  0  0  0  0  0  0  0  0  0  0
    1.2279    1.6726   -2.1484 H   0  0  0  0  0  0  0  0  0  0  0  0
    2.7413    2.8168   -3.4049 H   0  0  0  0  0  0  0  0  0  0  0  0
    4.7127    0.5283   -2.9584 H   0  0  0  0  0  0  0  0  0  0  0  0
    5.0810    2.1856   -3.4667 H   0  0  0  0  0  0  0  0  0  0  0  0
    4.4374    1.8802   -1.8400 H   0  0  0  0  0  0  0  0  0  0  0  0
    2.8865   -0.0067   -5.2832 N   0  0  0  0  0  0  0  0  0  0  0  0
    2.8443   -0.4726   -6.6620 C   0  0  0  0  0  0  0  0  0  0  0  0
    2.9595   -0.6872   -4.5210 H   0  0  0  0  0  0  0  0  0  0  0  0
    3.7410   -0.1505   -7.2016 H   0  0  0  0  0  0  0  0  0  0  0  0
    2.7963   -1.5655   -6.6886 H   0  0  0  0  0  0  0  0  0  0  0  0
    1.9617   -0.0758   -7.1743 H   0  0  0  0  0  0  0  0  0  0  0  0
  1  2  2  0  0  0  0
  1  3  1  0  0  0  0
  1  7  1  0  0  0  0
  3  4  1  0  0  0  0
  3  5  1  0  0  0  0
  3  6  1  0  0  0  0
  7  8  1  0  0  0  0
  7 12  1  0  0  0  0
  8  9  1  0  0  0  0
  8 11  1  0  0  0  0
  8 13  1  0  0  0  0
  9 10  2  0  0  0  0
  9 17  1  0  0  0  0
 11 14  1  0  0  0  0
 11 15  1  0  0  0  0
 11 16  1  0  0  0  0
 17 18  1  0  0  0  0
 17 23  1  0  0  0  0
 18 19  1  0  0  0  0
 18 21  1  0  0  0  0
 18 24  1  0  0  0  0
 19 20  2  0  0  0  0
 19 28  1  0  0  0  0
 21 22  1  0  0  0  0
 21 25  1  0  0  0  0
 21 26  1  0  0  0  0
 22 27  1  0  0  0  0
 28 29  1  0  0  0  0
 28 33  1  0  0  0  0
 29 30  1  0  0  0  0
 29 32  1  0  0  0  0
 29 34  1  0  0  0  0
 30 31  2  0  0  0  0
 30 38  1  0  0  0  0
 32 35  1  0  0  0  0
 32 36  1  0  0  0  0
 32 37  1  0  0  0  0
 38 39  1  0  0  0  0
 38 40  1  0  0  0  0
 39 41  1  0  0  0  0
 39 42  1  0  0  0  0
 39 43  1  0  0  0  0
M  END
$$$$

  -OEChem-05262217303D

 43 42  0     1  0  0  0  0  0999 V2000
    3.5844   -1.4454    4.3190 C   0  0  0  0  0  0  0  0  0  0  0  0
    2.7832   -0.9285    5.0819 O   0  0  0  0  0  0  0  0  0  0  0  0
    4.6772   -2.3500    4.8567 C   0  0  0  0  0  0  0  0  0  0  0  0
    5.6578   -1.9466    4.5930 H   0  0  0  0  0  0  0  0  0  0  0  0
    4.6064   -2.4206    5.9457 H   0  0  0  0  0  0  0  0  0  0  0  0
    4.5765   -3.3514    4.4312 H   0  0  0  0  0  0  0  0  0  0  0  0
    3.4918   -1.2121    2.9635 N   0  0  0  0  0  0  0  0  0  0  0  0
    2.3959   -0.4739    2.3233 C   0  0  2  0  0  0  0  0  0  0  0  0
    2.1278   -0.9805    0.8911 C   0  0  0  0  0  0  0  0  0  0  0  0
    2.9240   -1.7351    0.3495 O   0  0  0  0  0  0  0  0  0  0  0  0
    2.7607    1.0143    2.3031 C   0  0  0  0  0  0  0  0  0  0  0  0
    4.0970   -1.7582    2.3503 H   0  0  0  0  0  0  0  0  0  0  0  0
    1.4741   -0.6139    2.8981 H   0  0  0  0  0  0  0  0  0  0  0  0
    3.6753    1.1756    1.7233 H   0  0  0  0  0  0  0  0  0  0  0  0
    1.9551    1.6034    1.8549 H   0  0  0  0  0  0  0  0  0  0  0  0
    2.9258    1.3781    3.3224 H   0  0  0  0  0  0  0  0  0  0  0  0
    0.9833   -0.5920    0.2187 N   0  0  0  0  0  0  0  0  0  0  0  0
    0.7936   -0.7178   -1.2392 C   0  0  2  0  0  0  0  0  0  0  0  0
    1.9828   -0.2652   -2.1166 C   0  0  0  0  0  0  0  0  0  0  0  0
    2.5720   -1.0819   -2.8129 O   0  0  0  0  0  0  0  0  0  0  0  0
   -0.5093    0.0023   -1.6132 C   0  0  0  0  0  0  0  0  0  0  0  0
   -0.4137    1.4179   -1.3862 O   0  0  0  0  0  0  0  0  0  0  0  0
    0.4209    0.1144    0.6865 H   0  0  0  0  0  0  0  0  0  0  0  0
    0.6549   -1.7818   -1.4578 H   0  0  0  0  0  0  0  0  0  0  0  0
   -1.3368   -0.4096   -1.0258 H   0  0  0  0  0  0  0  0  0  0  0  0
   -0.7300   -0.1811   -2.6705 H   0  0  0  0  0  0  0  0  0  0  0  0
   -1.2372    1.8645   -1.6619 H   0  0  0  0  0  0  0  0  0  0  0  0
    2.2373    1.0857   -2.2829 N   0  0  0  0  0  0  0  0  0  0  0  0
    3.2804    1.7174   -3.1150 C   0  0  2  0  0  0  0  0  0  0  0  0
    3.0640    1.5825   -4.6394 C   0  0  0  0  0  0  0  0  0  0  0  0
    3.0641    2.5873   -5.3392 O   0  0  0  0  0  0  0  0  0  0  0  0
    4.6770    1.2230   -2.7129 C   0  0  0  0  0  0  0  0  0  0  0  0
    1.5544    1.6943   -1.8306 H   0  0  0  0  0  0  0  0  0  0  0  0
    3.2501    2.7902   -2.8994 H   0  0  0  0  0  0  0  0  0  0  0  0
    4.8229    0.1748   -2.9898 H   0  0  0  0  0  0  0  0  0  0  0  0
    5.4442    1.8186   -3.2173 H   0  0  0  0  0  0  0  0  0  0  0  0
    4.8177    1.3193   -1.6322 H   0  0  0  0  0  0  0  0  0  0  0  0
    2.8727    0.3500   -5.2301 N   0  0  0  0  0  0  0  0  0  0  0  0
    2.7003    0.1448   -6.6609 C   0  0  0  0  0  0  0  0  0  0  0  0
    2.8691   -0.4565   -4.5986 H   0  0  0  0  0  0  0  0  0  0  0  0
    3.5909    0.4776   -7.2042 H   0  0  0  0  0  0  0  0  0  0  0  0
    2.5413   -0.9170   -6.8728 H   0  0  0  0  0  0  0  0  0  0  0  0
    1.8332    0.7043   -7.0265 H   0  0  0  0  0  0  0  0  0  0  0  0
  1  2  2  0  0  0  0
  1  3  1  0  0  0  0
  1  7  1  0  0  0  0
  3  4  1  0  0  0  0
  3  5  1  0  0  0  0
  3  6  1  0  0  0  0
  7  8  1  0  0  0  0
  7 12  1  0  0  0  0
  8  9  1  0  0  0  0
  8 11  1  0  0  0  0
  8 13  1  0  0  0  0
  9 10  2  0  0  0  0
  9 17  1  0  0  0  0
 11 14  1  0  0  0  0
 11 15  1  0  0  0  0
 11 16  1  0  0  0  0
 17 18  1  0  0  0  0
 17 23  1  0  0  0  0
 18 19  1  0  0  0  0
 18 21  1  0  0  0  0
 18 24  1  0  0  0  0
 19 20  2  0  0  0  0
 19 28  1  0  0  0  0
 21 22  1  0  0  0  0
 21 25  1  0  0  0  0
 21 26  1  0  0  0  0
 22 27  1  0  0  0  0
 28 29  1  0  0  0  0
 28 33  1  0  0  0  0
 29 30  1  0  0  0  0
 29 32  1  0  0  0  0
 29 34  1  0  0  0  0
 30 31  2  0  0  0  0
 30 38  1  0  0  0  0
 32 35  1  0  0  0  0
 32 36  1  0  0  0  0
 32 37  1  0  0  0  0
 38 39  1  0  0  0  0
 38 40  1  0  0  0  0
 39 41  1  0  0  0  0
 39 42  1  0  0  0  0
 39 43  1  0  0  0  0
M  END
$$$$

  -OEChem-05262217303D

 43 42  0     1  0  0  0  0  0999 V2000
    3.5275   -1.4769    4.3646 C   0  0  0  0  0  0  0  0  0  0  0  0
    2.6883   -0.9909    5.1064 O   0  0  0  0  0  0  0  0  0  0  0  0
    4.6121   -2.3769    4.9258 C   0  0  0  0  0  0  0  0  0  0  0  0
    5.5968   -1.9928    4.6489 H   0  0  0  0  0  0  0  0  0  0  0  0
    4.5434   -2.4146    6.0165 H   0  0  0  0  0  0  0  0  0  0  0  0
    4.4989   -3.3892    4.5304 H   0  0  0  0  0  0  0  0  0  0  0  0
    3.4821   -1.2166    3.0115 N   0  0  0  0  0  0  0  0  0  0  0  0
    2.3926   -0.4926    2.3444 C   0  0  2  0  0  0  0  0  0  0  0  0
    2.1703   -1.0002    0.9048 C   0  0  0  0  0  0  0  0  0  0  0  0
    3.0024   -1.7240    0.3737 O   0  0  0  0  0  0  0  0  0  0  0  0
    2.7360    1.0008    2.3369 C   0  0  0  0  0  0  0  0  0  0  0  0
    4.1197   -1.7403    2.4118 H   0  0  0  0  0  0  0  0  0  0  0  0
    1.4572   -0.6471    2.8931 H   0  0  0  0  0  0  0  0  0  0  0  0
    3.6623    1.1771    1.7806 H   0  0  0  0  0  0  0  0  0  0  0  0
    1.9332    1.5800    1.8709 H   0  0  0  0  0  0  0  0  0  0  0  0
    2.8707    1.3636    3.3609 H   0  0  0  0  0  0  0  0  0  0  0  0
    1.0327   -0.6394    0.2056 N   0  0  0  0  0  0  0  0  0  0  0  0
    0.8791   -0.7874   -1.2547 C   0  0  2  0  0  0  0  0  0  0  0  0
    2.0780   -0.3260   -2.1094 C   0  0  0  0  0  0  0  0  0  0  0  0
    2.5424   -1.0772   -2.9581 O   0  0  0  0  0  0  0  0  0  0  0  0
   -0.4041   -0.0606   -1.6724 C   0  0  0  0  0  0  0  0  0  0  0  0
   -0.2855    1.3552   -1.4606 O   0  0  0  0  0  0  0  0  0  0  0  0
    0.4332    0.0452    0.6593 H   0  0  0  0  0  0  0  0  0  0  0  0
    0.7481   -1.8534   -1.4676 H   0  0  0  0  0  0  0  0  0  0  0  0
   -1.2542   -0.4520   -1.1035 H   0  0  0  0  0  0  0  0  0  0  0  0
   -0.5964   -0.2537   -2.7335 H   0  0  0  0  0  0  0  0  0  0  0  0
   -1.0685    1.8216   -1.8104 H   0  0  0  0  0  0  0  0  0  0  0  0
    2.4979    0.9919   -2.0380 N   0  0  0  0  0  0  0  0  0  0  0  0
    3.5667    1.6398   -2.8222 C   0  0  2  0  0  0  0  0  0  0  0  0
    3.2531    1.7982   -4.3274 C   0  0  0  0  0  0  0  0  0  0  0  0
    3.2555    2.9149   -4.8297 O   0  0  0  0  0  0  0  0  0  0  0  0
    4.9109    0.9303   -2.6064 C   0  0  0  0  0  0  0  0  0  0  0  0
    1.8740    1.5931   -1.5014 H   0  0  0  0  0  0  0  0  0  0  0  0
    3.6791    2.6543   -2.4271 H   0  0  0  0  0  0  0  0  0  0  0  0
    4.9130   -0.0658   -3.0589 H   0  0  0  0  0  0  0  0  0  0  0  0
    5.7192    1.5126   -3.0598 H   0  0  0  0  0  0  0  0  0  0  0  0
    5.1168    0.8253   -1.5368 H   0  0  0  0  0  0  0  0  0  0  0  0
    2.9536    0.7047   -5.1146 N   0  0  0  0  0  0  0  0  0  0  0  0
    2.6004    0.7832   -6.5245 C   0  0  0  0  0  0  0  0  0  0  0  0
    2.8875   -0.1934   -4.6268 H   0  0  0  0  0  0  0  0  0  0  0  0
    2.4666   -0.2223   -6.9349 H   0  0  0  0  0  0  0  0  0  0  0  0
    1.6666    1.3395   -6.6545 H   0  0  0  0  0  0  0  0  0  0  0  0
    3.3924    1.2845   -7.0907 H   0  0  0  0  0  0  0  0  0  0  0  0
  1  2  2  0  0  0  0
  1  3  1  0  0  0  0
  1  7  1  0  0  0  0
  3  4  1  0  0  0  0
  3  5  1  0  0  0  0
  3  6  1  0  0  0  0
  7  8  1  0  0  0  0
  7 12  1  0  0  0  0
  8  9  1  0  0  0  0
  8 11  1  0  0  0  0
  8 13  1  0  0  0  0
  9 10  2  0  0  0  0
  9 17  1  0  0  0  0
 11 14  1  0  0  0  0
 11 15  1  0  0  0  0
 11 16  1  0  0  0  0
 17 18  1  0  0  0  0
 17 23  1  0  0  0  0
 18 19  1  0  0  0  0
 18 21  1  0  0  0  0
 18 24  1  0  0  0  0
 19 20  2  0  0  0  0
 19 28  1  0  0  0  0
 21 22  1  0  0  0  0
 21 25  1  0  0  0  0
 21 26  1  0  0  0  0
 22 27  1  0  0  0  0
 28 29  1  0  0  0  0
 28 33  1  0  0  0  0
 29 30  1  0  0  0  0
 29 32  1  0  0  0  0
 29 34  1  0  0  0  0
 30 31  2  0  0  0  0
 30 38  1  0  0  0  0
 32 35  1  0  0  0  0
 32 36  1  0  0  0  0
 32 37  1  0  0  0  0
 38 39  1  0  0  0  0
 38 40  1  0  0  0  0
 39 41  1  0  0  0  0
 39 42  1  0  0  0  0
 39 43  1  0  0  0  0
M  END
$$$$

  -OEChem-05262217303D

 43 42  0     1  0  0  0  0  0999 V2000
    3.2740   -1.4563    4.6740 C   0  0  0  0  0  0  0  0  0  0  0  0
    2.4375   -0.8920    5.3610 O   0  0  0  0  0  0  0  0  0  0  0  0
    4.2771   -2.3992    5.3115 C   0  0  0  0  0  0  0  0  0  0  0  0
    5.2939   -2.0486    5.1184 H   0  0  0  0  0  0  0  0  0  0  0  0
    4.1185   -2.4433    6.3926 H   0  0  0  0  0  0  0  0  0  0  0  0
    4.1607   -3.4036    4.8970 H   0  0  0  0  0  0  0  0  0  0  0  0
    3.3024   -1.2441    3.3122 N   0  0  0  0  0  0  0  0  0  0  0  0
    2.2868   -0.4854    2.5704 C   0  0  2  0  0  0  0  0  0  0  0  0
    2.1543   -0.9898    1.1176 C   0  0  0  0  0  0  0  0  0  0  0  0
    2.9477   -1.8123    0.6772 O   0  0  0  0  0  0  0  0  0  0  0  0
    2.6714    0.9985    2.5952 C   0  0  0  0  0  0  0  0  0  0  0  0
    3.9243   -1.8354    2.7610 H   0  0  0  0  0  0  0  0  0  0  0  0
    1.3101   -0.6140    3.0500 H   0  0  0  0  0  0  0  0  0  0  0  0
    3.6391    1.1513    2.1070 H   0  0  0  0  0  0  0  0  0  0  0  0
    1.9190    1.6018    2.0785 H   0  0  0  0  0  0  0  0  0  0  0  0
    2.7434    1.3542    3.6281 H   0  0  0  0  0  0  0  0  0  0  0  0
    1.1413   -0.5200    0.3022 N   0  0  0  0  0  0  0  0  0  0  0  0
    1.0293   -0.7803   -1.1469 C   0  0  2  0  0  0  0  0  0  0  0  0
    2.3158   -0.6214   -1.9773 C   0  0  0  0  0  0  0  0  0  0  0  0
    2.4365   -1.2732   -3.0071 O   0  0  0  0  0  0  0  0  0  0  0  0
   -0.0669    0.1340   -1.7087 C   0  0  0  0  0  0  0  0  0  0  0  0
    0.3114    1.5156   -1.6198 O   0  0  0  0  0  0  0  0  0  0  0  0
    0.5624    0.2279    0.6790 H   0  0  0  0  0  0  0  0  0  0  0  0
    0.7091   -1.8190   -1.2775 H   0  0  0  0  0  0  0  0  0  0  0  0
   -0.9932   -0.0257   -1.1472 H   0  0  0  0  0  0  0  0  0  0  0  0
   -0.2669   -0.1227   -2.7547 H   0  0  0  0  0  0  0  0  0  0  0  0
    0.8265    1.7919   -2.4225 H   0  0  0  0  0  0  0  0  0  0  0  0
    3.1200    0.4870   -1.7598 N   0  0  0  0  0  0  0  0  0  0  0  0
    3.9013    1.1429   -2.8215 C   0  0  2  0  0  0  0  0  0  0  0  0
    2.9841    1.6088   -3.9795 C   0  0  0  0  0  0  0  0  0  0  0  0
    1.9249    2.1683   -3.7022 O   0  0  0  0  0  0  0  0  0  0  0  0
    5.0811    0.2624   -3.2686 C   0  0  0  0  0  0  0  0  0  0  0  0
    2.7720    1.0871   -1.0168 H   0  0  0  0  0  0  0  0  0  0  0  0
    4.3360    2.0526   -2.3962 H   0  0  0  0  0  0  0  0  0  0  0  0
    4.7385   -0.6187   -3.8188 H   0  0  0  0  0  0  0  0  0  0  0  0
    5.7560    0.8316   -3.9149 H   0  0  0  0  0  0  0  0  0  0  0  0
    5.6469   -0.0770   -2.3955 H   0  0  0  0  0  0  0  0  0  0  0  0
    3.3167    1.4083   -5.3067 N   0  0  0  0  0  0  0  0  0  0  0  0
    2.3986    1.6953   -6.4023 C   0  0  0  0  0  0  0  0  0  0  0  0
    4.0930    0.7770   -5.4832 H   0  0  0  0  0  0  0  0  0  0  0  0
    2.8846    1.4996   -7.3632 H   0  0  0  0  0  0  0  0  0  0  0  0
    1.5066    1.0642   -6.3288 H   0  0  0  0  0  0  0  0  0  0  0  0
    2.0904    2.7460   -6.3818 H   0  0  0  0  0  0  0  0  0  0  0  0
  1  2  2  0  0  0  0
  1  3  1  0  0  0  0
  1  7  1  0  0  0  0
  3  4  1  0  0  0  0
  3  5  1  0  0  0  0
  3  6  1  0  0  0  0
  7  8  1  0  0  0  0
  7 12  1  0  0  0  0
  8  9  1  0  0  0  0
  8 11  1  0  0  0  0
  8 13  1  0  0  0  0
  9 10  2  0  0  0  0
  9 17  1  0  0  0  0
 11 14  1  0  0  0  0
 11 15  1  0  0  0  0
 11 16  1  0  0  0  0
 17 18  1  0  0  0  0
 17 23  1  0  0  0  0
 18 19  1  0  0  0  0
 18 21  1  0  0  0  0
 18 24  1  0  0  0  0
 19 20  2  0  0  0  0
 19 28  1  0  0  0  0
 21 22  1  0  0  0  0
 21 25  1  0  0  0  0
 21 26  1  0  0  0  0
 22 27  1  0  0  0  0
 28 29  1  0  0  0  0
 28 33  1  0  0  0  0
 29 30  1  0  0  0  0
 29 32  1  0  0  0  0
 29 34  1  0  0  0  0
 30 31  2  0  0  0  0
 30 38  1  0  0  0  0
 32 35  1  0  0  0  0
 32 36  1  0  0  0  0
 32 37  1  0  0  0  0
 38 39  1  0  0  0  0
 38 40  1  0  0  0  0
 39 41  1  0  0  0  0
 39 42  1  0  0  0  0
 39 43  1  0  0  0  0
M  END
$$$$

  -OEChem-05262217303D

 43 42  0     1  0  0  0  0  0999 V2000
    3.3250   -1.4189    4.6694 C   0  0  0  0  0  0  0  0  0  0  0  0
    2.5511   -0.7942    5.3770 O   0  0  0  0  0  0  0  0  0  0  0  0
    4.3187   -2.3830    5.2896 C   0  0  0  0  0  0  0  0  0  0  0  0
    5.3374   -2.0916    5.0227 H   0  0  0  0  0  0  0  0  0  0  0  0
    4.2239   -2.3735    6.3790 H   0  0  0  0  0  0  0  0  0  0  0  0
    4.1309   -3.3971    4.9286 H   0  0  0  0  0  0  0  0  0  0  0  0
    3.2941   -1.2520    3.3013 N   0  0  0  0  0  0  0  0  0  0  0  0
    2.2812   -0.4655    2.5852 C   0  0  2  0  0  0  0  0  0  0  0  0
    2.0653   -0.9968    1.1522 C   0  0  0  0  0  0  0  0  0  0  0  0
    2.7865   -1.8819    0.7091 O   0  0  0  0  0  0  0  0  0  0  0  0
    2.7309    1.0001    2.5568 C   0  0  0  0  0  0  0  0  0  0  0  0
    3.8580   -1.8908    2.7409 H   0  0  0  0  0  0  0  0  0  0  0  0
    1.3213   -0.5387    3.1087 H   0  0  0  0  0  0  0  0  0  0  0  0
    3.6862    1.0976    2.0315 H   0  0  0  0  0  0  0  0  0  0  0  0
    1.9875    1.6240    2.0512 H   0  0  0  0  0  0  0  0  0  0  0  0
    2.8553    1.3776    3.5770 H   0  0  0  0  0  0  0  0  0  0  0  0
    1.0650   -0.4762    0.3527 N   0  0  0  0  0  0  0  0  0  0  0  0
    0.8928   -0.7552   -1.0879 C   0  0  2  0  0  0  0  0  0  0  0  0
    2.1411   -0.7086   -1.9893 C   0  0  0  0  0  0  0  0  0  0  0  0
    2.0864   -1.2295   -3.0965 O   0  0  0  0  0  0  0  0  0  0  0  0
   -0.1351    0.2579   -1.6086 C   0  0  0  0  0  0  0  0  0  0  0  0
    0.3815    1.5964   -1.5390 O   0  0  0  0  0  0  0  0  0  0  0  0
    0.5636    0.3306    0.7202 H   0  0  0  0  0  0  0  0  0  0  0  0
    0.4771   -1.7624   -1.1920 H   0  0  0  0  0  0  0  0  0  0  0  0
   -1.0498    0.1892   -1.0107 H   0  0  0  0  0  0  0  0  0  0  0  0
   -0.4011    0.0223   -2.6447 H   0  0  0  0  0  0  0  0  0  0  0  0
    1.0012    1.7917   -2.2898 H   0  0  0  0  0  0  0  0  0  0  0  0
    3.1934    0.1360   -1.6724 N   0  0  0  0  0  0  0  0  0  0  0  0
    4.0720    0.7463   -2.6844 C   0  0  2  0  0  0  0  0  0  0  0  0
    3.2625    1.5255   -3.7531 C   0  0  0  0  0  0  0  0  0  0  0  0
    2.2699    2.1624   -3.4051 O   0  0  0  0  0  0  0  0  0  0  0  0
    5.0276   -0.3034   -3.2762 C   0  0  0  0  0  0  0  0  0  0  0  0
    3.0526    0.6528   -0.8104 H   0  0  0  0  0  0  0  0  0  0  0  0
    4.6939    1.4886   -2.1757 H   0  0  0  0  0  0  0  0  0  0  0  0
    4.4946   -1.0066   -3.9228 H   0  0  0  0  0  0  0  0  0  0  0  0
    5.8103    0.1835   -3.8654 H   0  0  0  0  0  0  0  0  0  0  0  0
    5.5067   -0.8709   -2.4725 H   0  0  0  0  0  0  0  0  0  0  0  0
    3.6437    1.5483   -5.0824 N   0  0  0  0  0  0  0  0  0  0  0  0
    2.8411    2.1744   -6.1260 C   0  0  0  0  0  0  0  0  0  0  0  0
    4.3669    0.8905   -5.3583 H   0  0  0  0  0  0  0  0  0  0  0  0
    3.3427    2.0831   -7.0944 H   0  0  0  0  0  0  0  0  0  0  0  0
    1.8604    1.6918   -6.1962 H   0  0  0  0  0  0  0  0  0  0  0  0
    2.6971    3.2387   -5.9125 H   0  0  0  0  0  0  0  0  0  0  0  0
  1  2  2  0  0  0  0
  1  3  1  0  0  0  0
  1  7  1  0  0  0  0
  3  4  1  0  0  0  0
  3  5  1  0  0  0  0
  3  6  1  0  0  0  0
  7  8  1  0  0  0  0
  7 12  1  0  0  0  0
  8  9  1  0  0  0  0
  8 11  1  0  0  0  0
  8 13  1  0  0  0  0
  9 10  2  0  0  0  0
  9 17  1  0  0  0  0
 11 14  1  0  0  0  0
 11 15  1  0  0  0  0
 11 16  1  0  0  0  0
 17 18  1  0  0  0  0
 17 23  1  0  0  0  0
 18 19  1  0  0  0  0
 18 21  1  0  0  0  0
 18 24  1  0  0  0  0
 19 20  2  0  0  0  0
 19 28  1  0  0  0  0
 21 22  1  0  0  0  0
 21 25  1  0  0  0  0
 21 26  1  0  0  0  0
 22 27  1  0  0  0  0
 28 29  1  0  0  0  0
 28 33  1  0  0  0  0
 29 30  1  0  0  0  0
 29 32  1  0  0  0  0
 29 34  1  0  0  0  0
 30 31  2  0  0  0  0
 30 38  1  0  0  0  0
 32 35  1  0  0  0  0
 32 36  1  0  0  0  0
 32 37  1  0  0  0  0
 38 39  1  0  0  0  0
 38 40  1  0  0  0  0
 39 41  1  0  0  0  0
 39 42  1  0  0  0  0
 39 43  1  0  0  0  0
M  END
$$$$

  -OEChem-05262217303D

 43 42  0     1  0  0  0  0  0999 V2000
    3.2724   -1.3965    4.7194 C   0  0  0  0  0  0  0  0  0  0  0  0
    2.5177   -0.7151    5.3947 O   0  0  0  0  0  0  0  0  0  0  0  0
    4.1858   -2.4104    5.3820 C   0  0  0  0  0  0  0  0  0  0  0  0
    5.2301   -2.1484    5.1959 H   0  0  0  0  0  0  0  0  0  0  0  0
    4.0127   -2.4252    6.4617 H   0  0  0  0  0  0  0  0  0  0  0  0
    3.9903   -3.4079    4.9806 H   0  0  0  0  0  0  0  0  0  0  0  0
    3.2925   -1.2495    3.3487 N   0  0  0  0  0  0  0  0  0  0  0  0
    2.3505   -0.4134    2.5928 C   0  0  2  0  0  0  0  0  0  0  0  0
    2.0910   -0.9833    1.1826 C   0  0  0  0  0  0  0  0  0  0  0  0
    2.7887   -1.8903    0.7472 O   0  0  0  0  0  0  0  0  0  0  0  0
    2.9262    1.0041    2.5022 C   0  0  0  0  0  0  0  0  0  0  0  0
    3.8364   -1.9274    2.8156 H   0  0  0  0  0  0  0  0  0  0  0  0
    1.3870   -0.3795    3.1134 H   0  0  0  0  0  0  0  0  0  0  0  0
    3.8843    0.9958    1.9732 H   0  0  0  0  0  0  0  0  0  0  0  0
    2.2379    1.6678    1.9697 H   0  0  0  0  0  0  0  0  0  0  0  0
    3.0868    1.4118    3.5055 H   0  0  0  0  0  0  0  0  0  0  0  0
    1.0919   -0.4566    0.3874 N   0  0  0  0  0  0  0  0  0  0  0  0
    0.8603   -0.7616   -1.0407 C   0  0  2  0  0  0  0  0  0  0  0  0
    2.0512   -0.7922   -2.0206 C   0  0  0  0  0  0  0  0  0  0  0  0
    1.8437   -1.1244   -3.1814 O   0  0  0  0  0  0  0  0  0  0  0  0
   -0.1452    0.2956   -1.5199 C   0  0  0  0  0  0  0  0  0  0  0  0
    0.4348    1.6101   -1.4832 O   0  0  0  0  0  0  0  0  0  0  0  0
    0.6347    0.3826    0.7409 H   0  0  0  0  0  0  0  0  0  0  0  0
    0.3931   -1.7490   -1.1045 H   0  0  0  0  0  0  0  0  0  0  0  0
   -1.0344    0.2723   -0.8814 H   0  0  0  0  0  0  0  0  0  0  0  0
   -0.4708    0.0688   -2.5411 H   0  0  0  0  0  0  0  0  0  0  0  0
    1.1420    1.7322   -2.1673 H   0  0  0  0  0  0  0  0  0  0  0  0
    3.2781   -0.2482   -1.6803 N   0  0  0  0  0  0  0  0  0  0  0  0
    4.2023    0.3483   -2.6591 C   0  0  2  0  0  0  0  0  0  0  0  0
    3.5033    1.4059   -3.5549 C   0  0  0  0  0  0  0  0  0  0  0  0
    2.6040    2.0994   -3.0838 O   0  0  0  0  0  0  0  0  0  0  0  0
    4.9139   -0.7582   -3.4556 C   0  0  0  0  0  0  0  0  0  0  0  0
    3.3533    0.0481   -0.7128 H   0  0  0  0  0  0  0  0  0  0  0  0
    4.9731    0.8874   -2.1005 H   0  0  0  0  0  0  0  0  0  0  0  0
    4.2233   -1.2590   -4.1407 H   0  0  0  0  0  0  0  0  0  0  0  0
    5.7391   -0.3402   -4.0396 H   0  0  0  0  0  0  0  0  0  0  0  0
    5.3244   -1.5080   -2.7720 H   0  0  0  0  0  0  0  0  0  0  0  0
    3.8962    1.6207   -4.8637 N   0  0  0  0  0  0  0  0  0  0  0  0
    3.1890    2.5243   -5.7633 C   0  0  0  0  0  0  0  0  0  0  0  0
    4.5309    0.9372   -5.2654 H   0  0  0  0  0  0  0  0  0  0  0  0
    3.7102    2.5864   -6.7233 H   0  0  0  0  0  0  0  0  0  0  0  0
    2.1704    2.1645   -5.9425 H   0  0  0  0  0  0  0  0  0  0  0  0
    3.1370    3.5312   -5.3360 H   0  0  0  0  0  0  0  0  0  0  0  0
  1  2  2  0  0  0  0
  1  3  1  0  0  0  0
  1  7  1  0  0  0  0
  3  4  1  0  0  0  0
  3  5  1  0  0  0  0
  3  6  1  0  0  0  0
  7  8  1  0  0  0  0
  7 12  1  0  0  0  0
  8  9  1  0  0  0  0
  8 11  1  0  0  0  0
  8 13  1  0  0  0  0
  9 10  2  0  0  0  0
  9 17  1  0  0  0  0
 11 14  1  0  0  0  0
 11 15  1  0  0  0  0
 11 16  1  0  0  0  0
 17 18  1  0  0  0  0
 17 23  1  0  0  0  0
 18 19  1  0  0  0  0
 18 21  1  0  0  0  0
 18 24  1  0  0  0  0
 19 20  2  0  0  0  0
 19 28  1  0  0  0  0
 21 22  1  0  0  0  0
 21 25  1  0  0  0  0
 21 26  1  0  0  0  0
 22 27  1  0  0  0  0
 28 29  1  0  0  0  0
 28 33  1  0  0  0  0
 29 30  1  0  0  0  0
 29 32  1  0  0  0  0
 29 34  1  0  0  0  0
 30 31  2  0  0  0  0
 30 38  1  0  0  0  0
 32 35  1  0  0  0  0
 32 36  1  0  0  0  0
 32 37  1  0  0  0  0
 38 39  1  0  0  0  0
 38 40  1  0  0  0  0
 39 41  1  0  0  0  0
 39 42  1  0  0  0  0
 39 43  1  0  0  0  0
M  END
$$$$

  -OEChem-05262217303D

 43 42  0     1  0  0  0  0  0999 V2000
    3.3035   -1.3302    4.7284 C   0  0  0  0  0  0  0  0  0  0  0  0
    2.5929   -0.5847    5.3831 O   0  0  0  0  0  0  0  0  0  0  0  0
    4.1641   -2.3686    5.4238 C   0  0  0  0  0  0  0  0  0  0  0  0
    5.2188   -2.1896    5.2006 H   0  0  0  0  0  0  0  0  0  0  0  0
    4.0189   -2.3144    6.5066 H   0  0  0  0  0  0  0  0  0  0  0  0
    3.8908   -3.3700    5.0820 H   0  0  0  0  0  0  0  0  0  0  0  0
    3.3164   -1.2374    3.3524 N   0  0  0  0  0  0  0  0  0  0  0  0
    2.4172   -0.3751    2.5730 C   0  0  2  0  0  0  0  0  0  0  0  0
    2.1032   -0.9794    1.1883 C   0  0  0  0  0  0  0  0  0  0  0  0
    2.7674   -1.9163    0.7621 O   0  0  0  0  0  0  0  0  0  0  0  0
    3.0755    1.0003    2.4200 C   0  0  0  0  0  0  0  0  0  0  0  0
    3.8220   -1.9599    2.8413 H   0  0  0  0  0  0  0  0  0  0  0  0
    1.4647   -0.2625    3.1029 H   0  0  0  0  0  0  0  0  0  0  0  0
    4.0282    0.9129    1.8882 H   0  0  0  0  0  0  0  0  0  0  0  0
    2.4250    1.6799    1.8607 H   0  0  0  0  0  0  0  0  0  0  0  0
    3.2653    1.4406    3.4042 H   0  0  0  0  0  0  0  0  0  0  0  0
    1.0987   -0.4452    0.4058 N   0  0  0  0  0  0  0  0  0  0  0  0
    0.7801   -0.7764   -1.0018 C   0  0  2  0  0  0  0  0  0  0  0  0
    1.9015   -0.8948   -2.0607 C   0  0  0  0  0  0  0  0  0  0  0  0
    1.5882   -1.0016   -3.2405 O   0  0  0  0  0  0  0  0  0  0  0  0
   -0.1936    0.3331   -1.4327 C   0  0  0  0  0  0  0  0  0  0  0  0
    0.4628    1.6124   -1.4482 O   0  0  0  0  0  0  0  0  0  0  0  0
    0.6970    0.4274    0.7466 H   0  0  0  0  0  0  0  0  0  0  0  0
    0.2548   -1.7359   -1.0152 H   0  0  0  0  0  0  0  0  0  0  0  0
   -1.0433    0.3688   -0.7431 H   0  0  0  0  0  0  0  0  0  0  0  0
   -0.5956    0.1165   -2.4283 H   0  0  0  0  0  0  0  0  0  0  0  0
    1.2267    1.6423   -2.0763 H   0  0  0  0  0  0  0  0  0  0  0  0
    3.2338   -0.6983   -1.7473 N   0  0  0  0  0  0  0  0  0  0  0  0
    4.2201   -0.1216   -2.6760 C   0  0  2  0  0  0  0  0  0  0  0  0
    3.7132    1.1827   -3.3521 C   0  0  0  0  0  0  0  0  0  0  0  0
    2.9108    1.9090   -2.7681 O   0  0  0  0  0  0  0  0  0  0  0  0
    4.6699   -1.1908   -3.6847 C   0  0  0  0  0  0  0  0  0  0  0  0
    3.4466   -0.7146   -0.7517 H   0  0  0  0  0  0  0  0  0  0  0  0
    5.0989    0.1633   -2.0902 H   0  0  0  0  0  0  0  0  0  0  0  0
    3.8685   -1.4253   -4.3920 H   0  0  0  0  0  0  0  0  0  0  0  0
    5.5407   -0.8450   -4.2491 H   0  0  0  0  0  0  0  0  0  0  0  0
    4.9466   -2.1105   -3.1599 H   0  0  0  0  0  0  0  0  0  0  0  0
    4.1940    1.5836   -4.5861 N   0  0  0  0  0  0  0  0  0  0  0  0
    3.6892    2.7539   -5.2945 C   0  0  0  0  0  0  0  0  0  0  0  0
    4.7546    0.9104   -5.0994 H   0  0  0  0  0  0  0  0  0  0  0  0
    4.2455    2.9011   -6.2253 H   0  0  0  0  0  0  0  0  0  0  0  0
    2.6295    2.6255   -5.5393 H   0  0  0  0  0  0  0  0  0  0  0  0
    3.8028    3.6540   -4.6811 H   0  0  0  0  0  0  0  0  0  0  0  0
  1  2  2  0  0  0  0
  1  3  1  0  0  0  0
  1  7  1  0  0  0  0
  3  4  1  0  0  0  0
  3  5  1  0  0  0  0
  3  6  1  0  0  0  0
  7  8  1  0  0  0  0
  7 12  1  0  0  0  0
  8  9  1  0  0  0  0
  8 11  1  0  0  0  0
  8 13  1  0  0  0  0
  9 10  2  0  0  0  0
  9 17  1  0  0  0  0
 11 14  1  0  0  0  0
 11 15  1  0  0  0  0
 11 16  1  0  0  0  0
 17 18  1  0  0  0  0
 17 23  1  0  0  0  0
 18 19  1  0  0  0  0
 18 21  1  0  0  0  0
 18 24  1  0  0  0  0
 19 20  2  0  0  0  0
 19 28  1  0  0  0  0
 21 22  1  0  0  0  0
 21 25  1  0  0  0  0
 21 26  1  0  0  0  0
 22 27  1  0  0  0  0
 28 29  1  0  0  0  0
 28 33  1  0  0  0  0
 29 30  1  0  0  0  0
 29 32  1  0  0  0  0
 29 34  1  0  0  0  0
 30 31  2  0  0  0  0
 30 38  1  0  0  0  0
 32 35  1  0  0  0  0
 32 36  1  0  0  0  0
 32 37  1  0  0  0  0
 38 39  1  0  0  0  0
 38 40  1  0  0  0  0
 39 41  1  0  0  0  0
 39 42  1  0  0  0  0
 39 43  1  0  0  0  0
M  END
$$$$

  -OEChem-05262217303D

 43 42  0     1  0  0  0  0  0999 V2000
    3.2072   -1.3280    4.6504 C   0  0  0  0  0  0  0  0  0  0  0  0
    2.4586   -0.5852    5.2647 O   0  0  0  0  0  0  0  0  0  0  0  0
    4.0195   -2.3747    5.3893 C   0  0  0  0  0  0  0  0  0  0  0  0
    5.0861   -2.1628    5.2818 H   0  0  0  0  0  0  0  0  0  0  0  0
    3.7640   -2.3688    6.4528 H   0  0  0  0  0  0  0  0  0  0  0  0
    3.8087   -3.3669    4.9830 H   0  0  0  0  0  0  0  0  0  0  0  0
    3.3045   -1.2259    3.2784 N   0  0  0  0  0  0  0  0  0  0  0  0
    2.4619   -0.3490    2.4540 C   0  0  2  0  0  0  0  0  0  0  0  0
    2.1583   -0.9713    1.0757 C   0  0  0  0  0  0  0  0  0  0  0  0
    2.8436   -1.8939    0.6493 O   0  0  0  0  0  0  0  0  0  0  0  0
    3.1837    0.9921    2.2878 C   0  0  0  0  0  0  0  0  0  0  0  0
    3.8529   -1.9359    2.7952 H   0  0  0  0  0  0  0  0  0  0  0  0
    1.5013   -0.1819    2.9541 H   0  0  0  0  0  0  0  0  0  0  0  0
    4.1418    0.8518    1.7768 H   0  0  0  0  0  0  0  0  0  0  0  0
    2.5755    1.6891    1.7029 H   0  0  0  0  0  0  0  0  0  0  0  0
    3.3748    1.4423    3.2674 H   0  0  0  0  0  0  0  0  0  0  0  0
    1.1114   -0.4949    0.3100 N   0  0  0  0  0  0  0  0  0  0  0  0
    0.8438   -0.7519   -1.1244 C   0  0  2  0  0  0  0  0  0  0  0  0
    2.0065   -0.6587   -2.1528 C   0  0  0  0  0  0  0  0  0  0  0  0
    1.7351   -0.4184   -3.3238 O   0  0  0  0  0  0  0  0  0  0  0  0
   -0.3082    0.1921   -1.5028 C   0  0  0  0  0  0  0  0  0  0  0  0
    0.1207    1.5564   -1.4185 O   0  0  0  0  0  0  0  0  0  0  0  0
    0.6459    0.3293    0.6888 H   0  0  0  0  0  0  0  0  0  0  0  0
    0.4755   -1.7790   -1.2060 H   0  0  0  0  0  0  0  0  0  0  0  0
   -1.1487    0.0332   -0.8190 H   0  0  0  0  0  0  0  0  0  0  0  0
   -0.6698   -0.0250   -2.5137 H   0  0  0  0  0  0  0  0  0  0  0  0
    0.7116    1.7700   -2.1657 H   0  0  0  0  0  0  0  0  0  0  0  0
    3.3384   -0.6457   -1.7742 N   0  0  0  0  0  0  0  0  0  0  0  0
    4.5305   -0.5154   -2.6378 C   0  0  2  0  0  0  0  0  0  0  0  0
    4.7233    0.8800   -3.2745 C   0  0  0  0  0  0  0  0  0  0  0  0
    5.8021    1.4483   -3.1678 O   0  0  0  0  0  0  0  0  0  0  0  0
    4.5716   -1.6171   -3.7055 C   0  0  0  0  0  0  0  0  0  0  0  0
    3.4975   -1.0049   -0.8307 H   0  0  0  0  0  0  0  0  0  0  0  0
    5.4007   -0.6698   -1.9911 H   0  0  0  0  0  0  0  0  0  0  0  0
    3.7863   -1.4757   -4.4535 H   0  0  0  0  0  0  0  0  0  0  0  0
    5.5376   -1.6032   -4.2198 H   0  0  0  0  0  0  0  0  0  0  0  0
    4.4405   -2.5996   -3.2423 H   0  0  0  0  0  0  0  0  0  0  0  0
    3.7036    1.4972   -3.9713 N   0  0  0  0  0  0  0  0  0  0  0  0
    3.8350    2.7820   -4.6444 C   0  0  0  0  0  0  0  0  0  0  0  0
    2.8442    0.9532   -4.0802 H   0  0  0  0  0  0  0  0  0  0  0  0
    2.8698    3.0923   -5.0560 H   0  0  0  0  0  0  0  0  0  0  0  0
    4.1727    3.5504   -3.9410 H   0  0  0  0  0  0  0  0  0  0  0  0
    4.5573    2.7123   -5.4644 H   0  0  0  0  0  0  0  0  0  0  0  0
  1  2  2  0  0  0  0
  1  3  1  0  0  0  0
  1  7  1  0  0  0  0
  3  4  1  0  0  0  0
  3  5  1  0  0  0  0
  3  6  1  0  0  0  0
  7  8  1  0  0  0  0
  7 12  1  0  0  0  0
  8  9  1  0  0  0  0
  8 11  1  0  0  0  0
  8 13  1  0  0  0  0
  9 10  2  0  0  0  0
  9 17  1  0  0  0  0
 11 14  1  0  0  0  0
 11 15  1  0  0  0  0
 11 16  1  0  0  0  0
 17 18  1  0  0  0  0
 17 23  1  0  0  0  0
 18 19  1  0  0  0  0
 18 21  1  0  0  0  0
 18 24  1  0  0  0  0
 19 20  2  0  0  0  0
 19 28  1  0  0  0  0
 21 22  1  0  0  0  0
 21 25  1  0  0  0  0
 21 26  1  0  0  0  0
 22 27  1  0  0  0  0
 28 29  1  0  0  0  0
 28 33  1  0  0  0  0
 29 30  1  0  0  0  0
 29 32  1  0  0  0  0
 29 34  1  0  0  0  0
 30 31  2  0  0  0  0
 30 38  1  0  0  0  0
 32 35  1  0  0  0  0
 32 36  1  0  0  0  0
 32 37  1  0  0  0  0
 38 39  1  0  0  0  0
 38 40  1  0  0  0  0
 39 41  1  0  0  0  0
 39 42  1  0  0  0  0
 39 43  1  0  0  0  0
M  END
$$$$

  -OEChem-05262217303D

 43 42  0     1  0  0  0  0  0999 V2000
    3.4069   -1.1977    4.5422 C   0  0  0  0  0  0  0  0  0  0  0  0
    2.7526   -0.3864    5.1771 O   0  0  0  0  0  0  0  0  0  0  0  0
    4.2936   -2.1952    5.2635 C   0  0  0  0  0  0  0  0  0  0  0  0
    5.3308   -2.0728    4.9424 H   0  0  0  0  0  0  0  0  0  0  0  0
    4.2386   -2.0359    6.3441 H   0  0  0  0  0  0  0  0  0  0  0  0
    3.9681   -3.2142    5.0408 H   0  0  0  0  0  0  0  0  0  0  0  0
    3.3339   -1.2128    3.1652 N   0  0  0  0  0  0  0  0  0  0  0  0
    2.4347   -0.3622    2.3737 C   0  0  2  0  0  0  0  0  0  0  0  0
    2.0114   -1.0366    1.0523 C   0  0  0  0  0  0  0  0  0  0  0  0
    2.5639   -2.0646    0.6747 O   0  0  0  0  0  0  0  0  0  0  0  0
    3.1508    0.9625    2.0877 C   0  0  0  0  0  0  0  0  0  0  0  0
    3.8037   -1.9756    2.6800 H   0  0  0  0  0  0  0  0  0  0  0  0
    1.5211   -0.1629    2.9446 H   0  0  0  0  0  0  0  0  0  0  0  0
    4.0626    0.7886    1.5067 H   0  0  0  0  0  0  0  0  0  0  0  0
    2.5020    1.6395    1.5233 H   0  0  0  0  0  0  0  0  0  0  0  0
    3.4252    1.4552    3.0260 H   0  0  0  0  0  0  0  0  0  0  0  0
    0.9898   -0.4994    0.2923 N   0  0  0  0  0  0  0  0  0  0  0  0
    0.7004   -0.7462   -1.1391 C   0  0  2  0  0  0  0  0  0  0  0  0
    1.8720   -0.7244   -2.1655 C   0  0  0  0  0  0  0  0  0  0  0  0
    1.6854   -0.2286   -3.2722 O   0  0  0  0  0  0  0  0  0  0  0  0
   -0.4001    0.2581   -1.5148 C   0  0  0  0  0  0  0  0  0  0  0  0
    0.1098    1.5937   -1.4369 O   0  0  0  0  0  0  0  0  0  0  0  0
    0.6253    0.3854    0.6449 H   0  0  0  0  0  0  0  0  0  0  0  0
    0.2736   -1.7509   -1.2152 H   0  0  0  0  0  0  0  0  0  0  0  0
   -1.2449    0.1506   -0.8262 H   0  0  0  0  0  0  0  0  0  0  0  0
   -0.7767    0.0577   -2.5239 H   0  0  0  0  0  0  0  0  0  0  0  0
    0.7245    1.7503   -2.1803 H   0  0  0  0  0  0  0  0  0  0  0  0
    3.1646   -1.0871   -1.8286 N   0  0  0  0  0  0  0  0  0  0  0  0
    4.3779   -1.0455   -2.6693 C   0  0  2  0  0  0  0  0  0  0  0  0
    4.8662    0.3795   -3.0149 C   0  0  0  0  0  0  0  0  0  0  0  0
    5.9827    0.7389   -2.6650 O   0  0  0  0  0  0  0  0  0  0  0  0
    4.2134   -1.9000   -3.9344 C   0  0  0  0  0  0  0  0  0  0  0  0
    3.2497   -1.5435   -0.9171 H   0  0  0  0  0  0  0  0  0  0  0  0
    5.1807   -1.5039   -2.0826 H   0  0  0  0  0  0  0  0  0  0  0  0
    3.4915   -1.4566   -4.6261 H   0  0  0  0  0  0  0  0  0  0  0  0
    5.1729   -1.9864   -4.4540 H   0  0  0  0  0  0  0  0  0  0  0  0
    3.8711   -2.9053   -3.6710 H   0  0  0  0  0  0  0  0  0  0  0  0
    4.0571    1.2639   -3.7000 N   0  0  0  0  0  0  0  0  0  0  0  0
    4.4286    2.6373   -4.0110 C   0  0  0  0  0  0  0  0  0  0  0  0
    3.1111    0.9351   -3.9075 H   0  0  0  0  0  0  0  0  0  0  0  0
    3.6309    3.1242   -4.5799 H   0  0  0  0  0  0  0  0  0  0  0  0
    4.5964    3.2064   -3.0909 H   0  0  0  0  0  0  0  0  0  0  0  0
    5.3440    2.6595   -4.6116 H   0  0  0  0  0  0  0  0  0  0  0  0
  1  2  2  0  0  0  0
  1  3  1  0  0  0  0
  1  7  1  0  0  0  0
  3  4  1  0  0  0  0
  3  5  1  0  0  0  0
  3  6  1  0  0  0  0
  7  8  1  0  0  0  0
  7 12  1  0  0  0  0
  8  9  1  0  0  0  0
  8 11  1  0  0  0  0
  8 13  1  0  0  0  0
  9 10  2  0  0  0  0
  9 17  1  0  0  0  0
 11 14  1  0  0  0  0
 11 15  1  0  0  0  0
 11 16  1  0  0  0  0
 17 18  1  0  0  0  0
 17 23  1  0  0  0  0
 18 19  1  0  0  0  0
 18 21  1  0  0  0  0
 18 24  1  0  0  0  0
 19 20  2  0  0  0  0
 19 28  1  0  0  0  0
 21 22  1  0  0  0  0
 21 25  1  0  0  0  0
 21 26  1  0  0  0  0
 22 27  1  0  0  0  0
 28 29  1  0  0  0  0
 28 33  1  0  0  0  0
 29 30  1  0  0  0  0
 29 32  1  0  0  0  0
 29 34  1  0  0  0  0
 30 31  2  0  0  0  0
 30 38  1  0  0  0  0
 32 35  1  0  0  0  0
 32 36  1  0  0  0  0
 32 37  1  0  0  0  0
 38 39  1  0  0  0  0
 38 40  1  0  0  0  0
 39 41  1  0  0  0  0
 39 42  1  0  0  0  0
 39 43  1  0  0  0  0
M  END
$$$$

  -OEChem-05262217303D

 43 42  0     1  0  0  0  0  0999 V2000
    3.5256   -1.1199    4.3845 C   0  0  0  0  0  0  0  0  0  0  0  0
    2.9547   -0.2252    4.9875 O   0  0  0  0  0  0  0  0  0  0  0  0
    4.2885   -2.1871    5.1467 C   0  0  0  0  0  0  0  0  0  0  0  0
    5.3410   -2.1754    4.8528 H   0  0  0  0  0  0  0  0  0  0  0  0
    4.2214   -2.0026    6.2226 H   0  0  0  0  0  0  0  0  0  0  0  0
    3.8676   -3.1724    4.9315 H   0  0  0  0  0  0  0  0  0  0  0  0
    3.4649   -1.1728    3.0077 N   0  0  0  0  0  0  0  0  0  0  0  0
    2.6379   -0.2839    2.1798 C   0  0  2  0  0  0  0  0  0  0  0  0
    2.0017   -1.0283    0.9884 C   0  0  0  0  0  0  0  0  0  0  0  0
    2.4037   -2.1408    0.6629 O   0  0  0  0  0  0  0  0  0  0  0  0
    3.5239    0.8600    1.6764 C   0  0  0  0  0  0  0  0  0  0  0  0
    3.8478   -2.0029    2.5582 H   0  0  0  0  0  0  0  0  0  0  0  0
    1.8194    0.1310    2.7784 H   0  0  0  0  0  0  0  0  0  0  0  0
    4.3393    0.4717    1.0567 H   0  0  0  0  0  0  0  0  0  0  0  0
    2.9397    1.5667    1.0790 H   0  0  0  0  0  0  0  0  0  0  0  0
    3.9579    1.4022    2.5227 H   0  0  0  0  0  0  0  0  0  0  0  0
    0.9570   -0.4598    0.2845 N   0  0  0  0  0  0  0  0  0  0  0  0
    0.5725   -0.7453   -1.1161 C   0  0  2  0  0  0  0  0  0  0  0  0
    1.7017   -0.8111   -2.1864 C   0  0  0  0  0  0  0  0  0  0  0  0
    1.6158   -0.1210   -3.1985 O   0  0  0  0  0  0  0  0  0  0  0  0
   -0.5035    0.2904   -1.4751 C   0  0  0  0  0  0  0  0  0  0  0  0
    0.0668    1.6032   -1.4823 O   0  0  0  0  0  0  0  0  0  0  0  0
    0.7039    0.4764    0.5999 H   0  0  0  0  0  0  0  0  0  0  0  0
    0.0998   -1.7320   -1.1322 H   0  0  0  0  0  0  0  0  0  0  0  0
   -1.3162    0.2479   -0.7423 H   0  0  0  0  0  0  0  0  0  0  0  0
   -0.9343    0.0653   -2.4568 H   0  0  0  0  0  0  0  0  0  0  0  0
    0.6818    1.6759   -2.2403 H   0  0  0  0  0  0  0  0  0  0  0  0
    2.8828   -1.4954   -1.9601 N   0  0  0  0  0  0  0  0  0  0  0  0
    4.1250   -1.4589   -2.7548 C   0  0  2  0  0  0  0  0  0  0  0  0
    4.8212   -0.0796   -2.7544 C   0  0  0  0  0  0  0  0  0  0  0  0
    5.9004    0.0561   -2.1934 O   0  0  0  0  0  0  0  0  0  0  0  0
    3.8964   -1.9765   -4.1821 C   0  0  0  0  0  0  0  0  0  0  0  0
    2.9184   -1.9970   -1.0682 H   0  0  0  0  0  0  0  0  0  0  0  0
    4.8255   -2.1523   -2.2779 H   0  0  0  0  0  0  0  0  0  0  0  0
    3.2760   -1.2890   -4.7637 H   0  0  0  0  0  0  0  0  0  0  0  0
    4.8559   -2.0871   -4.6971 H   0  0  0  0  0  0  0  0  0  0  0  0
    3.4035   -2.9528   -4.1560 H   0  0  0  0  0  0  0  0  0  0  0  0
    4.2170    1.0185   -3.3335 N   0  0  0  0  0  0  0  0  0  0  0  0
    4.7546    2.3704   -3.2679 C   0  0  0  0  0  0  0  0  0  0  0  0
    3.2558    0.8756   -3.6516 H   0  0  0  0  0  0  0  0  0  0  0  0
    4.1275    3.0539   -3.8485 H   0  0  0  0  0  0  0  0  0  0  0  0
    4.7850    2.7206   -2.2310 H   0  0  0  0  0  0  0  0  0  0  0  0
    5.7687    2.4004   -3.6803 H   0  0  0  0  0  0  0  0  0  0  0  0
  1  2  2  0  0  0  0
  1  3  1  0  0  0  0
  1  7  1  0  0  0  0
  3  4  1  0  0  0  0
  3  5  1  0  0  0  0
  3  6  1  0  0  0  0
  7  8  1  0  0  0  0
  7 12  1  0  0  0  0
  8  9  1  0  0  0  0
  8 11  1  0  0  0  0
  8 13  1  0  0  0  0
  9 10  2  0  0  0  0
  9 17  1  0  0  0  0
 11 14  1  0  0  0  0
 11 15  1  0  0  0  0
 11 16  1  0  0  0  0
 17 18  1  0  0  0  0
 17 23  1  0  0  0  0
 18 19  1  0  0  0  0
 18 21  1  0  0  0  0
 18 24  1  0  0  0  0
 19 20  2  0  0  0  0
 19 28  1  0  0  0  0
 21 22  1  0  0  0  0
 21 25  1  0  0  0  0
 21 26  1  0  0  0  0
 22 27  1  0  0  0  0
 28 29  1  0  0  0  0
 28 33  1  0  0  0  0
 29 30  1  0  0  0  0
 29 32  1  0  0  0  0
 29 34  1  0  0  0  0
 30 31  2  0  0  0  0
 30 38  1  0  0  0  0
 32 35  1  0  0  0  0
 32 36  1  0  0  0  0
 32 37  1  0  0  0  0
 38 39  1  0  0  0  0
 38 40  1  0  0  0  0
 39 41  1  0  0  0  0
 39 42  1  0  0  0  0
 39 43  1  0  0  0  0
M  END
$$$$

  -OEChem-05262217303D

 43 42  0     1  0  0  0  0  0999 V2000
    3.3824   -1.2208    4.0915 C   0  0  0  0  0  0  0  0  0  0  0  0
    2.3795   -0.7207    4.5763 O   0  0  0  0  0  0  0  0  0  0  0  0
    4.1745   -2.2494    4.8762 C   0  0  0  0  0  0  0  0  0  0  0  0
    5.2017   -1.9034    5.0151 H   0  0  0  0  0  0  0  0  0  0  0  0
    3.7199   -2.4055    5.8586 H   0  0  0  0  0  0  0  0  0  0  0  0
    4.1866   -3.2007    4.3386 H   0  0  0  0  0  0  0  0  0  0  0  0
    3.7903   -0.8665    2.8223 N   0  0  0  0  0  0  0  0  0  0  0  0
    2.9639   -0.0649    1.9091 C   0  0  2  0  0  0  0  0  0  0  0  0
    2.1171   -0.9333    0.9556 C   0  0  0  0  0  0  0  0  0  0  0  0
    2.4640   -2.0745    0.6687 O   0  0  0  0  0  0  0  0  0  0  0  0
    3.9069    0.8305    1.1009 C   0  0  0  0  0  0  0  0  0  0  0  0
    4.5072   -1.4550    2.4050 H   0  0  0  0  0  0  0  0  0  0  0  0
    2.2827    0.5769    2.4782 H   0  0  0  0  0  0  0  0  0  0  0  0
    4.6010    0.2244    0.5091 H   0  0  0  0  0  0  0  0  0  0  0  0
    3.3385    1.4708    0.4191 H   0  0  0  0  0  0  0  0  0  0  0  0
    4.4890    1.4710    1.7710 H   0  0  0  0  0  0  0  0  0  0  0  0
    0.9924   -0.4079    0.3473 N   0  0  0  0  0  0  0  0  0  0  0  0
    0.4857   -0.7817   -0.9901 C   0  0  2  0  0  0  0  0  0  0  0  0
    1.5391   -0.8803   -2.1304 C   0  0  0  0  0  0  0  0  0  0  0  0
    1.5295   -0.0597   -3.0450 O   0  0  0  0  0  0  0  0  0  0  0  0
   -0.6413    0.2097   -1.3170 C   0  0  0  0  0  0  0  0  0  0  0  0
   -0.1083    1.5304   -1.4586 O   0  0  0  0  0  0  0  0  0  0  0  0
    0.7756    0.5494    0.6228 H   0  0  0  0  0  0  0  0  0  0  0  0
    0.0369   -1.7766   -0.9111 H   0  0  0  0  0  0  0  0  0  0  0  0
   -1.3901    0.1985   -0.5179 H   0  0  0  0  0  0  0  0  0  0  0  0
   -1.1427   -0.0870   -2.2444 H   0  0  0  0  0  0  0  0  0  0  0  0
    0.4942    1.5392   -2.2324 H   0  0  0  0  0  0  0  0  0  0  0  0
    2.5943   -1.7718   -2.0463 N   0  0  0  0  0  0  0  0  0  0  0  0
    3.8388   -1.7668   -2.8384 C   0  0  2  0  0  0  0  0  0  0  0  0
    4.7217   -0.5268   -2.5731 C   0  0  0  0  0  0  0  0  0  0  0  0
    5.8051   -0.6553   -2.0184 O   0  0  0  0  0  0  0  0  0  0  0  0
    3.5659   -1.9606   -4.3374 C   0  0  0  0  0  0  0  0  0  0  0  0
    2.6299   -2.2797   -1.1562 H   0  0  0  0  0  0  0  0  0  0  0  0
    4.4230   -2.6339   -2.5128 H   0  0  0  0  0  0  0  0  0  0  0  0
    3.0858   -1.0816   -4.7761 H   0  0  0  0  0  0  0  0  0  0  0  0
    4.5068   -2.1336   -4.8691 H   0  0  0  0  0  0  0  0  0  0  0  0
    2.9160   -2.8266   -4.4943 H   0  0  0  0  0  0  0  0  0  0  0  0
    4.2712    0.7409   -2.8839 N   0  0  0  0  0  0  0  0  0  0  0  0
    5.0032    1.9638   -2.5837 C   0  0  0  0  0  0  0  0  0  0  0  0
    3.3130    0.7992   -3.2359 H   0  0  0  0  0  0  0  0  0  0  0  0
    4.4501    2.8343   -2.9492 H   0  0  0  0  0  0  0  0  0  0  0  0
    5.1458    2.0709   -1.5037 H   0  0  0  0  0  0  0  0  0  0  0  0
    5.9847    1.9507   -3.0689 H   0  0  0  0  0  0  0  0  0  0  0  0
  1  2  2  0  0  0  0
  1  3  1  0  0  0  0
  1  7  1  0  0  0  0
  3  4  1  0  0  0  0
  3  5  1  0  0  0  0
  3  6  1  0  0  0  0
  7  8  1  0  0  0  0
  7 12  1  0  0  0  0
  8  9  1  0  0  0  0
  8 11  1  0  0  0  0
  8 13  1  0  0  0  0
  9 10  2  0  0  0  0
  9 17  1  0  0  0  0
 11 14  1  0  0  0  0
 11 15  1  0  0  0  0
 11 16  1  0  0  0  0
 17 18  1  0  0  0  0
 17 23  1  0  0  0  0
 18 19  1  0  0  0  0
 18 21  1  0  0  0  0
 18 24  1  0  0  0  0
 19 20  2  0  0  0  0
 19 28  1  0  0  0  0
 21 22  1  0  0  0  0
 21 25  1  0  0  0  0
 21 26  1  0  0  0  0
 22 27  1  0  0  0  0
 28 29  1  0  0  0  0
 28 33  1  0  0  0  0
 29 30  1  0  0  0  0
 29 32  1  0  0  0  0
 29 34  1  0  0  0  0
 30 31  2  0  0  0  0
 30 38  1  0  0  0  0
 32 35  1  0  0  0  0
 32 36  1  0  0  0  0
 32 37  1  0  0  0  0
 38 39  1  0  0  0  0
 38 40  1  0  0  0  0
 39 41  1  0  0  0  0
 39 42  1  0  0  0  0
 39 43  1  0  0  0  0
M  END
$$$$

  -OEChem-05262217303D

 43 42  0     1  0  0  0  0  0999 V2000
    4.5414   -0.9810    2.8948 C   0  0  0  0  0  0  0  0  0  0  0  0
    4.2762   -0.4559    3.9655 O   0  0  0  0  0  0  0  0  0  0  0  0
    5.8221   -1.7759    2.7271 C   0  0  0  0  0  0  0  0  0  0  0  0
    6.4177   -1.3542    1.9137 H   0  0  0  0  0  0  0  0  0  0  0  0
    6.4095   -1.7482    3.6487 H   0  0  0  0  0  0  0  0  0  0  0  0
    5.5849   -2.8157    2.4887 H   0  0  0  0  0  0  0  0  0  0  0  0
    3.6823   -0.8443    1.8272 N   0  0  0  0  0  0  0  0  0  0  0  0
    2.3537   -0.2168    1.9025 C   0  0  2  0  0  0  0  0  0  0  0  0
    1.3745   -0.8336    0.8773 C   0  0  0  0  0  0  0  0  0  0  0  0
    1.3870   -2.0387    0.6525 O   0  0  0  0  0  0  0  0  0  0  0  0
    2.5292    1.2970    1.7099 C   0  0  0  0  0  0  0  0  0  0  0  0
    3.9310   -1.3742    0.9856 H   0  0  0  0  0  0  0  0  0  0  0  0
    1.9218   -0.3953    2.8935 H   0  0  0  0  0  0  0  0  0  0  0  0
    2.8980    1.5185    0.7037 H   0  0  0  0  0  0  0  0  0  0  0  0
    1.5795    1.8186    1.8611 H   0  0  0  0  0  0  0  0  0  0  0  0
    3.2478    1.6901    2.4363 H   0  0  0  0  0  0  0  0  0  0  0  0
    0.5185   -0.0545    0.1172 N   0  0  0  0  0  0  0  0  0  0  0  0
    0.1700   -0.3737   -1.2819 C   0  0  2  0  0  0  0  0  0  0  0  0
    1.3752   -0.7747   -2.1757 C   0  0  0  0  0  0  0  0  0  0  0  0
    1.9094    0.0554   -2.9084 O   0  0  0  0  0  0  0  0  0  0  0  0
   -0.5959    0.8380   -1.8328 C   0  0  0  0  0  0  0  0  0  0  0  0
    0.2655    1.9791   -1.9024 O   0  0  0  0  0  0  0  0  0  0  0  0
    0.5772    0.9436    0.3148 H   0  0  0  0  0  0  0  0  0  0  0  0
   -0.5165   -1.2260   -1.2797 H   0  0  0  0  0  0  0  0  0  0  0  0
   -1.4548    1.0615   -1.1914 H   0  0  0  0  0  0  0  0  0  0  0  0
   -0.9786    0.6077   -2.8328 H   0  0  0  0  0  0  0  0  0  0  0  0
    1.0300    1.7586   -2.4794 H   0  0  0  0  0  0  0  0  0  0  0  0
    1.9449   -2.0286   -2.0349 N   0  0  0  0  0  0  0  0  0  0  0  0
    3.3275   -2.3790   -2.4057 C   0  0  2  0  0  0  0  0  0  0  0  0
    4.3680   -1.5352   -1.6335 C   0  0  0  0  0  0  0  0  0  0  0  0
    4.8637   -1.9749   -0.6022 O   0  0  0  0  0  0  0  0  0  0  0  0
    3.5463   -2.3424   -3.9261 C   0  0  0  0  0  0  0  0  0  0  0  0
    1.5854   -2.5228   -1.2111 H   0  0  0  0  0  0  0  0  0  0  0  0
    3.4878   -3.4167   -2.0953 H   0  0  0  0  0  0  0  0  0  0  0  0
    3.4905   -1.3245   -4.3209 H   0  0  0  0  0  0  0  0  0  0  0  0
    4.5329   -2.7478   -4.1712 H   0  0  0  0  0  0  0  0  0  0  0  0
    2.7883   -2.9500   -4.4294 H   0  0  0  0  0  0  0  0  0  0  0  0
    4.6305   -0.2276   -1.9918 N   0  0  0  0  0  0  0  0  0  0  0  0
    5.4644    0.6733   -1.2061 C   0  0  0  0  0  0  0  0  0  0  0  0
    3.9896    0.1706   -2.6814 H   0  0  0  0  0  0  0  0  0  0  0  0
    5.5354    1.6470   -1.7001 H   0  0  0  0  0  0  0  0  0  0  0  0
    5.0412    0.8206   -0.2078 H   0  0  0  0  0  0  0  0  0  0  0  0
    6.4754    0.2656   -1.1025 H   0  0  0  0  0  0  0  0  0  0  0  0
  1  2  2  0  0  0  0
  1  3  1  0  0  0  0
  1  7  1  0  0  0  0
  3  4  1  0  0  0  0
  3  5  1  0  0  0  0
  3  6  1  0  0  0  0
  7  8  1  0  0  0  0
  7 12  1  0  0  0  0
  8  9  1  0  0  0  0
  8 11  1  0  0  0  0
  8 13  1  0  0  0  0
  9 10  2  0  0  0  0
  9 17  1  0  0  0  0
 11 14  1  0  0  0  0
 11 15  1  0  0  0  0
 11 16  1  0  0  0  0
 17 18  1  0  0  0  0
 17 23  1  0  0  0  0
 18 19  1  0  0  0  0
 18 21  1  0  0  0  0
 18 24  1  0  0  0  0
 19 20  2  0  0  0  0
 19 28  1  0  0  0  0
 21 22  1  0  0  0  0
 21 25  1  0  0  0  0
 21 26  1  0  0  0  0
 22 27  1  0  0  0  0
 28 29  1  0  0  0  0
 28 33  1  0  0  0  0
 29 30  1  0  0  0  0
 29 32  1  0  0  0  0
 29 34  1  0  0  0  0
 30 31  2  0  0  0  0
 30 38  1  0  0  0  0
 32 35  1  0  0  0  0
 32 36  1  0  0  0  0
 32 37  1  0  0  0  0
 38 39  1  0  0  0  0
 38 40  1  0  0  0  0
 39 41  1  0  0  0  0
 39 42  1  0  0  0  0
 39 43  1  0  0  0  0
M  END
$$$$

  -OEChem-05262217303D

 43 42  0     1  0  0  0  0  0999 V2000
    4.5873   -1.0637    2.7523 C   0  0  0  0  0  0  0  0  0  0  0  0
    4.4334   -0.4250    3.7823 O   0  0  0  0  0  0  0  0  0  0  0  0
    5.7953   -1.9650    2.5830 C   0  0  0  0  0  0  0  0  0  0  0  0
    6.3469   -1.6837    1.6824 H   0  0  0  0  0  0  0  0  0  0  0  0
    6.4585   -1.8761    3.4476 H   0  0  0  0  0  0  0  0  0  0  0  0
    5.4720   -3.0046    2.4889 H   0  0  0  0  0  0  0  0  0  0  0  0
    3.6682   -0.9601    1.7323 N   0  0  0  0  0  0  0  0  0  0  0  0
    2.3961   -0.2268    1.8237 C   0  0  2  0  0  0  0  0  0  0  0  0
    1.3305   -0.8335    0.8828 C   0  0  0  0  0  0  0  0  0  0  0  0
    1.3400   -2.0329    0.6223 O   0  0  0  0  0  0  0  0  0  0  0  0
    2.6699    1.2518    1.5094 C   0  0  0  0  0  0  0  0  0  0  0  0
    3.8165   -1.5821    0.9302 H   0  0  0  0  0  0  0  0  0  0  0  0
    2.0025   -0.3046    2.8431 H   0  0  0  0  0  0  0  0  0  0  0  0
    2.9871    1.3721    0.4687 H   0  0  0  0  0  0  0  0  0  0  0  0
    1.7729    1.8555    1.6766 H   0  0  0  0  0  0  0  0  0  0  0  0
    3.4612    1.6381    2.1599 H   0  0  0  0  0  0  0  0  0  0  0  0
    0.4242   -0.0492    0.1874 N   0  0  0  0  0  0  0  0  0  0  0  0
    0.0824   -0.3709   -1.2104 C   0  0  2  0  0  0  0  0  0  0  0  0
    1.3240   -0.6984   -2.0800 C   0  0  0  0  0  0  0  0  0  0  0  0
    1.9437    0.1989   -2.6481 O   0  0  0  0  0  0  0  0  0  0  0  0
   -0.7292    0.8103   -1.7617 C   0  0  0  0  0  0  0  0  0  0  0  0
    0.0844    1.9862   -1.8330 O   0  0  0  0  0  0  0  0  0  0  0  0
    0.4923    0.9481    0.3854 H   0  0  0  0  0  0  0  0  0  0  0  0
   -0.5660   -1.2528   -1.2204 H   0  0  0  0  0  0  0  0  0  0  0  0
   -1.5992    0.9992   -1.1239 H   0  0  0  0  0  0  0  0  0  0  0  0
   -1.0978    0.5637   -2.7630 H   0  0  0  0  0  0  0  0  0  0  0  0
    0.8973    1.7788   -2.3469 H   0  0  0  0  0  0  0  0  0  0  0  0
    1.7660   -2.0075   -2.1627 N   0  0  0  0  0  0  0  0  0  0  0  0
    3.1251   -2.3968   -2.5810 C   0  0  2  0  0  0  0  0  0  0  0  0
    4.2286   -1.7350   -1.7183 C   0  0  0  0  0  0  0  0  0  0  0  0
    4.6359   -2.3002   -0.7094 O   0  0  0  0  0  0  0  0  0  0  0  0
    3.3346   -2.1730   -4.0871 C   0  0  0  0  0  0  0  0  0  0  0  0
    1.3663   -2.5888   -1.4204 H   0  0  0  0  0  0  0  0  0  0  0  0
    3.2174   -3.4745   -2.4107 H   0  0  0  0  0  0  0  0  0  0  0  0
    3.3097   -1.1115   -4.3472 H   0  0  0  0  0  0  0  0  0  0  0  0
    4.3042   -2.5768   -4.3944 H   0  0  0  0  0  0  0  0  0  0  0  0
    2.5521   -2.6849   -4.6553 H   0  0  0  0  0  0  0  0  0  0  0  0
    4.6829   -0.4598   -1.9939 N   0  0  0  0  0  0  0  0  0  0  0  0
    5.6233    0.2634   -1.1463 C   0  0  0  0  0  0  0  0  0  0  0  0
    4.0975    0.0747   -2.6382 H   0  0  0  0  0  0  0  0  0  0  0  0
    5.9064    1.2083   -1.6201 H   0  0  0  0  0  0  0  0  0  0  0  0
    5.1766    0.4840   -0.1724 H   0  0  0  0  0  0  0  0  0  0  0  0
    6.5325   -0.3270   -0.9908 H   0  0  0  0  0  0  0  0  0  0  0  0
  1  2  2  0  0  0  0
  1  3  1  0  0  0  0
  1  7  1  0  0  0  0
  3  4  1  0  0  0  0
  3  5  1  0  0  0  0
  3  6  1  0  0  0  0
  7  8  1  0  0  0  0
  7 12  1  0  0  0  0
  8  9  1  0  0  0  0
  8 11  1  0  0  0  0
  8 13  1  0  0  0  0
  9 10  2  0  0  0  0
  9 17  1  0  0  0  0
 11 14  1  0  0  0  0
 11 15  1  0  0  0  0
 11 16  1  0  0  0  0
 17 18  1  0  0  0  0
 17 23  1  0  0  0  0
 18 19  1  0  0  0  0
 18 21  1  0  0  0  0
 18 24  1  0  0  0  0
 19 20  2  0  0  0  0
 19 28  1  0  0  0  0
 21 22  1  0  0  0  0
 21 25  1  0  0  0  0
 21 26  1  0  0  0  0
 22 27  1  0  0  0  0
 28 29  1  0  0  0  0
 28 33  1  0  0  0  0
 29 30  1  0  0  0  0
 29 32  1  0  0  0  0
 29 34  1  0  0  0  0
 30 31  2  0  0  0  0
 30 38  1  0  0  0  0
 32 35  1  0  0  0  0
 32 36  1  0  0  0  0
 32 37  1  0  0  0  0
 38 39  1  0  0  0  0
 38 40  1  0  0  0  0
 39 41  1  0  0  0  0
 39 42  1  0  0  0  0
 39 43  1  0  0  0  0
M  END
$$$$

  -OEChem-05262217303D

 43 42  0     1  0  0  0  0  0999 V2000
    4.0211   -1.1076    3.8388 C   0  0  0  0  0  0  0  0  0  0  0  0
    3.5969   -0.2292    4.5728 O   0  0  0  0  0  0  0  0  0  0  0  0
    4.9377   -2.1846    4.3882 C   0  0  0  0  0  0  0  0  0  0  0  0
    5.8765   -2.1970    3.8291 H   0  0  0  0  0  0  0  0  0  0  0  0
    5.1580   -1.9906    5.4418 H   0  0  0  0  0  0  0  0  0  0  0  0
    4.4576   -3.1626    4.3033 H   0  0  0  0  0  0  0  0  0  0  0  0
    3.6558   -1.1290    2.5095 N   0  0  0  0  0  0  0  0  0  0  0  0
    2.6658   -0.2258    1.9081 C   0  0  2  0  0  0  0  0  0  0  0  0
    1.8740   -0.9170    0.7799 C   0  0  0  0  0  0  0  0  0  0  0  0
    2.2448   -1.9954    0.3236 O   0  0  0  0  0  0  0  0  0  0  0  0
    3.4031    1.0023    1.3648 C   0  0  0  0  0  0  0  0  0  0  0  0
    3.9387   -1.9394    1.9593 H   0  0  0  0  0  0  0  0  0  0  0  0
    1.9432    0.0927    2.6675 H   0  0  0  0  0  0  0  0  0  0  0  0
    4.1214    0.7068    0.5933 H   0  0  0  0  0  0  0  0  0  0  0  0
    2.6968    1.7157    0.9292 H   0  0  0  0  0  0  0  0  0  0  0  0
    3.9454    1.5057    2.1718 H   0  0  0  0  0  0  0  0  0  0  0  0
    0.7336   -0.3398    0.2509 N   0  0  0  0  0  0  0  0  0  0  0  0
    0.2585   -0.6638   -1.1044 C   0  0  2  0  0  0  0  0  0  0  0  0
    1.3718   -0.6776   -2.1798 C   0  0  0  0  0  0  0  0  0  0  0  0
    1.8125    0.3824   -2.6179 O   0  0  0  0  0  0  0  0  0  0  0  0
   -0.8567    0.3319   -1.4507 C   0  0  0  0  0  0  0  0  0  0  0  0
   -0.3309    1.6600   -1.5460 O   0  0  0  0  0  0  0  0  0  0  0  0
    0.5300    0.6047    0.5756 H   0  0  0  0  0  0  0  0  0  0  0  0
   -0.1864   -1.6632   -1.0834 H   0  0  0  0  0  0  0  0  0  0  0  0
   -1.6419    0.2977   -0.6882 H   0  0  0  0  0  0  0  0  0  0  0  0
   -1.3094    0.0523   -2.4080 H   0  0  0  0  0  0  0  0  0  0  0  0
    0.4540    1.6547   -2.1395 H   0  0  0  0  0  0  0  0  0  0  0  0
    1.8402   -1.8865   -2.6656 N   0  0  0  0  0  0  0  0  0  0  0  0
    2.9513   -2.0814   -3.6206 C   0  0  2  0  0  0  0  0  0  0  0  0
    4.3397   -1.6528   -3.0891 C   0  0  0  0  0  0  0  0  0  0  0  0
    5.2743   -2.4414   -3.1382 O   0  0  0  0  0  0  0  0  0  0  0  0
    2.6531   -1.4246   -4.9760 C   0  0  0  0  0  0  0  0  0  0  0  0
    1.6437   -2.6731   -2.0472 H   0  0  0  0  0  0  0  0  0  0  0  0
    3.0195   -3.1589   -3.8036 H   0  0  0  0  0  0  0  0  0  0  0  0
    2.6795   -0.3335   -4.9072 H   0  0  0  0  0  0  0  0  0  0  0  0
    3.4004   -1.7354   -5.7129 H   0  0  0  0  0  0  0  0  0  0  0  0
    1.6656   -1.7282   -5.3357 H   0  0  0  0  0  0  0  0  0  0  0  0
    4.5498   -0.3921   -2.5659 N   0  0  0  0  0  0  0  0  0  0  0  0
    5.8240    0.0697   -2.0345 C   0  0  0  0  0  0  0  0  0  0  0  0
    3.7397    0.2313   -2.5517 H   0  0  0  0  0  0  0  0  0  0  0  0
    5.7438    1.1134   -1.7164 H   0  0  0  0  0  0  0  0  0  0  0  0
    6.1181   -0.5354   -1.1707 H   0  0  0  0  0  0  0  0  0  0  0  0
    6.6057    0.0003   -2.7982 H   0  0  0  0  0  0  0  0  0  0  0  0
  1  2  2  0  0  0  0
  1  3  1  0  0  0  0
  1  7  1  0  0  0  0
  3  4  1  0  0  0  0
  3  5  1  0  0  0  0
  3  6  1  0  0  0  0
  7  8  1  0  0  0  0
  7 12  1  0  0  0  0
  8  9  1  0  0  0  0
  8 11  1  0  0  0  0
  8 13  1  0  0  0  0
  9 10  2  0  0  0  0
  9 17  1  0  0  0  0
 11 14  1  0  0  0  0
 11 15  1  0  0  0  0
 11 16  1  0  0  0  0
 17 18  1  0  0  0  0
 17 23  1  0  0  0  0
 18 19  1  0  0  0  0
 18 21  1  0  0  0  0
 18 24  1  0  0  0  0
 19 20  2  0  0  0  0
 19 28  1  0  0  0  0
 21 22  1  0  0  0  0
 21 25  1  0  0  0  0
 21 26  1  0  0  0  0
 22 27  1  0  0  0  0
 28 29  1  0  0  0  0
 28 33  1  0  0  0  0
 29 30  1  0  0  0  0
 29 32  1  0  0  0  0
 29 34  1  0  0  0  0
 30 31  2  0  0  0  0
 30 38  1  0  0  0  0
 32 35  1  0  0  0  0
 32 36  1  0  0  0  0
 32 37  1  0  0  0  0
 38 39  1  0  0  0  0
 38 40  1  0  0  0  0
 39 41  1  0  0  0  0
 39 42  1  0  0  0  0
 39 43  1  0  0  0  0
M  END
$$$$

  -OEChem-05262217303D

 43 42  0     1  0  0  0  0  0999 V2000
    4.0305   -1.2277    3.8208 C   0  0  0  0  0  0  0  0  0  0  0  0
    3.5871   -0.3872    4.5870 O   0  0  0  0  0  0  0  0  0  0  0  0
    4.9700   -2.3042    4.3301 C   0  0  0  0  0  0  0  0  0  0  0  0
    5.9177   -2.2591    3.7881 H   0  0  0  0  0  0  0  0  0  0  0  0
    5.1668   -2.1600    5.3961 H   0  0  0  0  0  0  0  0  0  0  0  0
    4.5215   -3.2900    4.1849 H   0  0  0  0  0  0  0  0  0  0  0  0
    3.6670   -1.2077    2.4911 N   0  0  0  0  0  0  0  0  0  0  0  0
    2.6553   -0.3070    1.9233 C   0  0  2  0  0  0  0  0  0  0  0  0
    1.8769   -0.9773    0.7738 C   0  0  0  0  0  0  0  0  0  0  0  0
    2.2850   -2.0180    0.2659 O   0  0  0  0  0  0  0  0  0  0  0  0
    3.3634    0.9551    1.4208 C   0  0  0  0  0  0  0  0  0  0  0  0
    3.9633   -1.9935    1.9131 H   0  0  0  0  0  0  0  0  0  0  0  0
    1.9273   -0.0318    2.6943 H   0  0  0  0  0  0  0  0  0  0  0  0
    4.0833    0.7033    0.6352 H   0  0  0  0  0  0  0  0  0  0  0  0
    2.6399    1.6684    1.0141 H   0  0  0  0  0  0  0  0  0  0  0  0
    3.8995    1.4403    2.2429 H   0  0  0  0  0  0  0  0  0  0  0  0
    0.7111   -0.4190    0.2817 N   0  0  0  0  0  0  0  0  0  0  0  0
    0.2409   -0.7045   -1.0834 C   0  0  2  0  0  0  0  0  0  0  0  0
    1.3452   -0.6319   -2.1636 C   0  0  0  0  0  0  0  0  0  0  0  0
    1.8987    0.4428   -2.3841 O   0  0  0  0  0  0  0  0  0  0  0  0
   -0.8934    0.2791   -1.3972 C   0  0  0  0  0  0  0  0  0  0  0  0
   -0.3919    1.6198   -1.4469 O   0  0  0  0  0  0  0  0  0  0  0  0
    0.4829    0.5057    0.6440 H   0  0  0  0  0  0  0  0  0  0  0  0
   -0.1737   -1.7169   -1.0988 H   0  0  0  0  0  0  0  0  0  0  0  0
   -1.6797    0.2046   -0.6389 H   0  0  0  0  0  0  0  0  0  0  0  0
   -1.3379    0.0229   -2.3648 H   0  0  0  0  0  0  0  0  0  0  0  0
    0.4340    1.6450   -1.9810 H   0  0  0  0  0  0  0  0  0  0  0  0
    1.6462   -1.7463   -2.9291 N   0  0  0  0  0  0  0  0  0  0  0  0
    2.6835   -1.8448   -3.9780 C   0  0  2  0  0  0  0  0  0  0  0  0
    4.1382   -1.6927   -3.4726 C   0  0  0  0  0  0  0  0  0  0  0  0
    4.9757   -2.5250   -3.7945 O   0  0  0  0  0  0  0  0  0  0  0  0
    2.4026   -0.8756   -5.1351 C   0  0  0  0  0  0  0  0  0  0  0  0
    1.3081   -2.6264   -2.5460 H   0  0  0  0  0  0  0  0  0  0  0  0
    2.6143   -2.8561   -4.3920 H   0  0  0  0  0  0  0  0  0  0  0  0
    2.5710    0.1628   -4.8359 H   0  0  0  0  0  0  0  0  0  0  0  0
    3.0664   -1.0978   -5.9766 H   0  0  0  0  0  0  0  0  0  0  0  0
    1.3676   -0.9776   -5.4749 H   0  0  0  0  0  0  0  0  0  0  0  0
    4.5177   -0.6254   -2.6827 N   0  0  0  0  0  0  0  0  0  0  0  0
    5.8654   -0.4255   -2.1695 C   0  0  0  0  0  0  0  0  0  0  0  0
    3.7833    0.0457   -2.4482 H   0  0  0  0  0  0  0  0  0  0  0  0
    6.5832   -0.3573   -2.9936 H   0  0  0  0  0  0  0  0  0  0  0  0
    5.9148    0.5020   -1.5912 H   0  0  0  0  0  0  0  0  0  0  0  0
    6.1531   -1.2567   -1.5178 H   0  0  0  0  0  0  0  0  0  0  0  0
  1  2  2  0  0  0  0
  1  3  1  0  0  0  0
  1  7  1  0  0  0  0
  3  4  1  0  0  0  0
  3  5  1  0  0  0  0
  3  6  1  0  0  0  0
  7  8  1  0  0  0  0
  7 12  1  0  0  0  0
  8  9  1  0  0  0  0
  8 11  1  0  0  0  0
  8 13  1  0  0  0  0
  9 10  2  0  0  0  0
  9 17  1  0  0  0  0
 11 14  1  0  0  0  0
 11 15  1  0  0  0  0
 11 16  1  0  0  0  0
 17 18  1  0  0  0  0
 17 23  1  0  0  0  0
 18 19  1  0  0  0  0
 18 21  1  0  0  0  0
 18 24  1  0  0  0  0
 19 20  2  0  0  0  0
 19 28  1  0  0  0  0
 21 22  1  0  0  0  0
 21 25  1  0  0  0  0
 21 26  1  0  0  0  0
 22 27  1  0  0  0  0
 28 29  1  0  0  0  0
 28 33  1  0  0  0  0
 29 30  1  0  0  0  0
 29 32  1  0  0  0  0
 29 34  1  0  0  0  0
 30 31  2  0  0  0  0
 30 38  1  0  0  0  0
 32 35  1  0  0  0  0
 32 36  1  0  0  0  0
 32 37  1  0  0  0  0
 38 39  1  0  0  0  0
 38 40  1  0  0  0  0
 39 41  1  0  0  0  0
 39 42  1  0  0  0  0
 39 43  1  0  0  0  0
M  END
$$$$

  -OEChem-05262217303D

 43 42  0     1  0  0  0  0  0999 V2000
    4.0442   -1.2765    3.8073 C   0  0  0  0  0  0  0  0  0  0  0  0
    3.5961   -0.4602    4.5965 O   0  0  0  0  0  0  0  0  0  0  0  0
    5.0059   -2.3496    4.2818 C   0  0  0  0  0  0  0  0  0  0  0  0
    5.9526   -2.2670    3.7424 H   0  0  0  0  0  0  0  0  0  0  0  0
    5.1991   -2.2361    5.3522 H   0  0  0  0  0  0  0  0  0  0  0  0
    4.5784   -3.3395    4.1038 H   0  0  0  0  0  0  0  0  0  0  0  0
    3.6678   -1.2323    2.4820 N   0  0  0  0  0  0  0  0  0  0  0  0
    2.6333   -0.3401    1.9425 C   0  0  2  0  0  0  0  0  0  0  0  0
    1.8612   -1.0072    0.7868 C   0  0  0  0  0  0  0  0  0  0  0  0
    2.2865   -2.0334    0.2636 O   0  0  0  0  0  0  0  0  0  0  0  0
    3.3110    0.9445    1.4559 C   0  0  0  0  0  0  0  0  0  0  0  0
    3.9641   -2.0047    1.8863 H   0  0  0  0  0  0  0  0  0  0  0  0
    1.9071   -0.0936    2.7247 H   0  0  0  0  0  0  0  0  0  0  0  0
    4.0287    0.7207    0.6599 H   0  0  0  0  0  0  0  0  0  0  0  0
    2.5694    1.6489    1.0669 H   0  0  0  0  0  0  0  0  0  0  0  0
    3.8441    1.4270    2.2815 H   0  0  0  0  0  0  0  0  0  0  0  0
    0.6854   -0.4616    0.3048 N   0  0  0  0  0  0  0  0  0  0  0  0
    0.2312   -0.7272   -1.0700 C   0  0  2  0  0  0  0  0  0  0  0  0
    1.3320   -0.6085   -2.1477 C   0  0  0  0  0  0  0  0  0  0  0  0
    1.9982    0.4223   -2.2032 O   0  0  0  0  0  0  0  0  0  0  0  0
   -0.9016    0.2584   -1.3761 C   0  0  0  0  0  0  0  0  0  0  0  0
   -0.3989    1.6005   -1.3963 O   0  0  0  0  0  0  0  0  0  0  0  0
    0.4494    0.4568    0.6773 H   0  0  0  0  0  0  0  0  0  0  0  0
   -0.1699   -1.7440   -1.1089 H   0  0  0  0  0  0  0  0  0  0  0  0
   -1.6960    0.1695   -0.6275 H   0  0  0  0  0  0  0  0  0  0  0  0
   -1.3362    0.0199   -2.3525 H   0  0  0  0  0  0  0  0  0  0  0  0
    0.4521    1.6366   -1.8868 H   0  0  0  0  0  0  0  0  0  0  0  0
    1.4530   -1.5725   -3.1351 N   0  0  0  0  0  0  0  0  0  0  0  0
    2.4167   -1.5770   -4.2562 C   0  0  2  0  0  0  0  0  0  0  0  0
    3.9025   -1.6881   -3.8385 C   0  0  0  0  0  0  0  0  0  0  0  0
    4.6046   -2.5503   -4.3494 O   0  0  0  0  0  0  0  0  0  0  0  0
    2.1961   -0.3764   -5.1870 C   0  0  0  0  0  0  0  0  0  0  0  0
    0.9688   -2.4470   -2.9489 H   0  0  0  0  0  0  0  0  0  0  0  0
    2.2047   -2.4739   -4.8474 H   0  0  0  0  0  0  0  0  0  0  0  0
    2.4925    0.5609   -4.7076 H   0  0  0  0  0  0  0  0  0  0  0  0
    2.7929   -0.4952   -6.0969 H   0  0  0  0  0  0  0  0  0  0  0  0
    1.1422   -0.3055   -5.4721 H   0  0  0  0  0  0  0  0  0  0  0  0
    4.4551   -0.8314   -2.9075 N   0  0  0  0  0  0  0  0  0  0  0  0
    5.8255   -0.9238   -2.4246 C   0  0  0  0  0  0  0  0  0  0  0  0
    3.8171   -0.1540   -2.4843 H   0  0  0  0  0  0  0  0  0  0  0  0
    6.5318   -0.8513   -3.2582 H   0  0  0  0  0  0  0  0  0  0  0  0
    6.0338   -0.1095   -1.7242 H   0  0  0  0  0  0  0  0  0  0  0  0
    5.9849   -1.8760   -1.9084 H   0  0  0  0  0  0  0  0  0  0  0  0
  1  2  2  0  0  0  0
  1  3  1  0  0  0  0
  1  7  1  0  0  0  0
  3  4  1  0  0  0  0
  3  5  1  0  0  0  0
  3  6  1  0  0  0  0
  7  8  1  0  0  0  0
  7 12  1  0  0  0  0
  8  9  1  0  0  0  0
  8 11  1  0  0  0  0
  8 13  1  0  0  0  0
  9 10  2  0  0  0  0
  9 17  1  0  0  0  0
 11 14  1  0  0  0  0
 11 15  1  0  0  0  0
 11 16  1  0  0  0  0
 17 18  1  0  0  0  0
 17 23  1  0  0  0  0
 18 19  1  0  0  0  0
 18 21  1  0  0  0  0
 18 24  1  0  0  0  0
 19 20  2  0  0  0  0
 19 28  1  0  0  0  0
 21 22  1  0  0  0  0
 21 25  1  0  0  0  0
 21 26  1  0  0  0  0
 22 27  1  0  0  0  0
 28 29  1  0  0  0  0
 28 33  1  0  0  0  0
 29 30  1  0  0  0  0
 29 32  1  0  0  0  0
 29 34  1  0  0  0  0
 30 31  2  0  0  0  0
 30 38  1  0  0  0  0
 32 35  1  0  0  0  0
 32 36  1  0  0  0  0
 32 37  1  0  0  0  0
 38 39  1  0  0  0  0
 38 40  1  0  0  0  0
 39 41  1  0  0  0  0
 39 42  1  0  0  0  0
 39 43  1  0  0  0  0
M  END
$$$$

  -OEChem-05262217303D

 43 42  0     1  0  0  0  0  0999 V2000
    3.9393   -1.2999    3.9347 C   0  0  0  0  0  0  0  0  0  0  0  0
    3.4477   -0.4878    4.7021 O   0  0  0  0  0  0  0  0  0  0  0  0
    4.8653   -2.3811    4.4589 C   0  0  0  0  0  0  0  0  0  0  0  0
    5.8505   -2.2850    3.9962 H   0  0  0  0  0  0  0  0  0  0  0  0
    4.9752   -2.2906    5.5433 H   0  0  0  0  0  0  0  0  0  0  0  0
    4.4559   -3.3676    4.2275 H   0  0  0  0  0  0  0  0  0  0  0  0
    3.6423   -1.2458    2.5895 N   0  0  0  0  0  0  0  0  0  0  0  0
    2.6399   -0.3500    1.9983 C   0  0  2  0  0  0  0  0  0  0  0  0
    1.9177   -1.0131    0.8086 C   0  0  0  0  0  0  0  0  0  0  0  0
    2.3754   -2.0244    0.2839 O   0  0  0  0  0  0  0  0  0  0  0  0
    3.3445    0.9315    1.5437 C   0  0  0  0  0  0  0  0  0  0  0  0
    3.9733   -2.0137    2.0066 H   0  0  0  0  0  0  0  0  0  0  0  0
    1.8783   -0.0987    2.7445 H   0  0  0  0  0  0  0  0  0  0  0  0
    4.0992    0.7042    0.7836 H   0  0  0  0  0  0  0  0  0  0  0  0
    2.6247    1.6371    1.1176 H   0  0  0  0  0  0  0  0  0  0  0  0
    3.8384    1.4143    2.3931 H   0  0  0  0  0  0  0  0  0  0  0  0
    0.7336   -0.4924    0.3201 N   0  0  0  0  0  0  0  0  0  0  0  0
    0.2868   -0.7592   -1.0573 C   0  0  2  0  0  0  0  0  0  0  0  0
    1.3699   -0.6179   -2.1491 C   0  0  0  0  0  0  0  0  0  0  0  0
    2.1406    0.3365   -2.0981 O   0  0  0  0  0  0  0  0  0  0  0  0
   -0.8474    0.2262   -1.3543 C   0  0  0  0  0  0  0  0  0  0  0  0
   -0.3417    1.5683   -1.3651 O   0  0  0  0  0  0  0  0  0  0  0  0
    0.4747    0.4173    0.6985 H   0  0  0  0  0  0  0  0  0  0  0  0
   -0.1031   -1.7805   -1.0999 H   0  0  0  0  0  0  0  0  0  0  0  0
   -1.6395    0.1322   -0.6042 H   0  0  0  0  0  0  0  0  0  0  0  0
   -1.2856   -0.0054   -2.3310 H   0  0  0  0  0  0  0  0  0  0  0  0
    0.5157    1.6111   -1.8411 H   0  0  0  0  0  0  0  0  0  0  0  0
    1.3037   -1.3889   -3.2988 N   0  0  0  0  0  0  0  0  0  0  0  0
    2.1437   -1.2616   -4.5096 C   0  0  2  0  0  0  0  0  0  0  0  0
    3.6462   -1.5709   -4.3075 C   0  0  0  0  0  0  0  0  0  0  0  0
    4.2230   -2.2818   -5.1198 O   0  0  0  0  0  0  0  0  0  0  0  0
    1.9561    0.1096   -5.1743 C   0  0  0  0  0  0  0  0  0  0  0  0
    0.6840   -2.1933   -3.2548 H   0  0  0  0  0  0  0  0  0  0  0  0
    1.7801   -2.0095   -5.2222 H   0  0  0  0  0  0  0  0  0  0  0  0
    2.4115    0.9064   -4.5792 H   0  0  0  0  0  0  0  0  0  0  0  0
    2.4285    0.1131   -6.1618 H   0  0  0  0  0  0  0  0  0  0  0  0
    0.8919    0.3307   -5.2993 H   0  0  0  0  0  0  0  0  0  0  0  0
    4.3547   -1.0510   -3.2428 N   0  0  0  0  0  0  0  0  0  0  0  0
    5.7705   -1.2939   -3.0060 C   0  0  0  0  0  0  0  0  0  0  0  0
    3.8356   -0.4423   -2.6060 H   0  0  0  0  0  0  0  0  0  0  0  0
    6.3709   -0.8906   -3.8281 H   0  0  0  0  0  0  0  0  0  0  0  0
    6.0846   -0.8091   -2.0767 H   0  0  0  0  0  0  0  0  0  0  0  0
    5.9656   -2.3678   -2.9185 H   0  0  0  0  0  0  0  0  0  0  0  0
  1  2  2  0  0  0  0
  1  3  1  0  0  0  0
  1  7  1  0  0  0  0
  3  4  1  0  0  0  0
  3  5  1  0  0  0  0
  3  6  1  0  0  0  0
  7  8  1  0  0  0  0
  7 12  1  0  0  0  0
  8  9  1  0  0  0  0
  8 11  1  0  0  0  0
  8 13  1  0  0  0  0
  9 10  2  0  0  0  0
  9 17  1  0  0  0  0
 11 14  1  0  0  0  0
 11 15  1  0  0  0  0
 11 16  1  0  0  0  0
 17 18  1  0  0  0  0
 17 23  1  0  0  0  0
 18 19  1  0  0  0  0
 18 21  1  0  0  0  0
 18 24  1  0  0  0  0
 19 20  2  0  0  0  0
 19 28  1  0  0  0  0
 21 22  1  0  0  0  0
 21 25  1  0  0  0  0
 21 26  1  0  0  0  0
 22 27  1  0  0  0  0
 28 29  1  0  0  0  0
 28 33  1  0  0  0  0
 29 30  1  0  0  0  0
 29 32  1  0  0  0  0
 29 34  1  0  0  0  0
 30 31  2  0  0  0  0
 30 38  1  0  0  0  0
 32 35  1  0  0  0  0
 32 36  1  0  0  0  0
 32 37  1  0  0  0  0
 38 39  1  0  0  0  0
 38 40  1  0  0  0  0
 39 41  1  0  0  0  0
 39 42  1  0  0  0  0
 39 43  1  0  0  0  0
M  END
$$$$

  -OEChem-05262217303D

 43 42  0     1  0  0  0  0  0999 V2000
    3.9072   -1.3256    3.9333 C   0  0  0  0  0  0  0  0  0  0  0  0
    3.3870   -0.5354    4.7049 O   0  0  0  0  0  0  0  0  0  0  0  0
    4.8448   -2.3964    4.4581 C   0  0  0  0  0  0  0  0  0  0  0  0
    5.8494   -2.2396    4.0580 H   0  0  0  0  0  0  0  0  0  0  0  0
    4.8893   -2.3567    5.5502 H   0  0  0  0  0  0  0  0  0  0  0  0
    4.4901   -3.3851    4.1569 H   0  0  0  0  0  0  0  0  0  0  0  0
    3.6381   -1.2525    2.5830 N   0  0  0  0  0  0  0  0  0  0  0  0
    2.6289   -0.3667    1.9875 C   0  0  2  0  0  0  0  0  0  0  0  0
    1.8936   -1.0454    0.8145 C   0  0  0  0  0  0  0  0  0  0  0  0
    2.3410   -2.0677    0.3019 O   0  0  0  0  0  0  0  0  0  0  0  0
    3.3306    0.9069    1.5073 C   0  0  0  0  0  0  0  0  0  0  0  0
    3.9882   -2.0087    1.9963 H   0  0  0  0  0  0  0  0  0  0  0  0
    1.8742   -0.1026    2.7362 H   0  0  0  0  0  0  0  0  0  0  0  0
    4.0714    0.6689    0.7369 H   0  0  0  0  0  0  0  0  0  0  0  0
    2.6061    1.6101    1.0855 H   0  0  0  0  0  0  0  0  0  0  0  0
    3.8401    1.3967    2.3432 H   0  0  0  0  0  0  0  0  0  0  0  0
    0.7095   -0.5231    0.3265 N   0  0  0  0  0  0  0  0  0  0  0  0
    0.2787   -0.7677   -1.0609 C   0  0  2  0  0  0  0  0  0  0  0  0
    1.3628   -0.6003   -2.1497 C   0  0  0  0  0  0  0  0  0  0  0  0
    2.2525    0.2284   -1.9846 O   0  0  0  0  0  0  0  0  0  0  0  0
   -0.8522    0.2268   -1.3428 C   0  0  0  0  0  0  0  0  0  0  0  0
   -0.3449    1.5688   -1.3214 O   0  0  0  0  0  0  0  0  0  0  0  0
    0.4562    0.3863    0.7088 H   0  0  0  0  0  0  0  0  0  0  0  0
   -0.1083   -1.7889   -1.1269 H   0  0  0  0  0  0  0  0  0  0  0  0
   -1.6479    0.1185   -0.5980 H   0  0  0  0  0  0  0  0  0  0  0  0
   -1.2889    0.0191   -2.3253 H   0  0  0  0  0  0  0  0  0  0  0  0
    0.4997    1.6355   -1.8129 H   0  0  0  0  0  0  0  0  0  0  0  0
    1.1435   -1.1076   -3.4213 N   0  0  0  0  0  0  0  0  0  0  0  0
    1.9487   -0.8554   -4.6365 C   0  0  2  0  0  0  0  0  0  0  0  0
    3.3980   -1.3953   -4.5919 C   0  0  0  0  0  0  0  0  0  0  0  0
    3.8315   -2.0184   -5.5518 O   0  0  0  0  0  0  0  0  0  0  0  0
    1.9355    0.6319   -5.0161 C   0  0  0  0  0  0  0  0  0  0  0  0
    0.3962   -1.7917   -3.5021 H   0  0  0  0  0  0  0  0  0  0  0  0
    1.4568   -1.3928   -5.4539 H   0  0  0  0  0  0  0  0  0  0  0  0
    2.5302    1.2264   -4.3168 H   0  0  0  0  0  0  0  0  0  0  0  0
    2.3586    0.7642   -6.0168 H   0  0  0  0  0  0  0  0  0  0  0  0
    0.9112    1.0162   -5.0202 H   0  0  0  0  0  0  0  0  0  0  0  0
    4.2170   -1.1786   -3.5017 N   0  0  0  0  0  0  0  0  0  0  0  0
    5.5929   -1.6453   -3.4081 C   0  0  0  0  0  0  0  0  0  0  0  0
    3.8182   -0.6317   -2.7349 H   0  0  0  0  0  0  0  0  0  0  0  0
    6.2037   -1.1966   -4.1984 H   0  0  0  0  0  0  0  0  0  0  0  0
    6.0198   -1.3668   -2.4400 H   0  0  0  0  0  0  0  0  0  0  0  0
    5.6347   -2.7352   -3.5038 H   0  0  0  0  0  0  0  0  0  0  0  0
  1  2  2  0  0  0  0
  1  3  1  0  0  0  0
  1  7  1  0  0  0  0
  3  4  1  0  0  0  0
  3  5  1  0  0  0  0
  3  6  1  0  0  0  0
  7  8  1  0  0  0  0
  7 12  1  0  0  0  0
  8  9  1  0  0  0  0
  8 11  1  0  0  0  0
  8 13  1  0  0  0  0
  9 10  2  0  0  0  0
  9 17  1  0  0  0  0
 11 14  1  0  0  0  0
 11 15  1  0  0  0  0
 11 16  1  0  0  0  0
 17 18  1  0  0  0  0
 17 23  1  0  0  0  0
 18 19  1  0  0  0  0
 18 21  1  0  0  0  0
 18 24  1  0  0  0  0
 19 20  2  0  0  0  0
 19 28  1  0  0  0  0
 21 22  1  0  0  0  0
 21 25  1  0  0  0  0
 21 26  1  0  0  0  0
 22 27  1  0  0  0  0
 28 29  1  0  0  0  0
 28 33  1  0  0  0  0
 29 30  1  0  0  0  0
 29 32  1  0  0  0  0
 29 34  1  0  0  0  0
 30 31  2  0  0  0  0
 30 38  1  0  0  0  0
 32 35  1  0  0  0  0
 32 36  1  0  0  0  0
 32 37  1  0  0  0  0
 38 39  1  0  0  0  0
 38 40  1  0  0  0  0
 39 41  1  0  0  0  0
 39 42  1  0  0  0  0
 39 43  1  0  0  0  0
M  END
$$$$

  -OEChem-05262217303D

 43 42  0     1  0  0  0  0  0999 V2000
    3.9249   -1.2933    3.9913 C   0  0  0  0  0  0  0  0  0  0  0  0
    3.5020   -0.3891    4.6944 O   0  0  0  0  0  0  0  0  0  0  0  0
    4.8263   -2.3606    4.5826 C   0  0  0  0  0  0  0  0  0  0  0  0
    5.7902   -2.3611    4.0680 H   0  0  0  0  0  0  0  0  0  0  0  0
    4.9948   -2.1656    5.6454 H   0  0  0  0  0  0  0  0  0  0  0  0
    4.3613   -3.3435    4.4740 H   0  0  0  0  0  0  0  0  0  0  0  0
    3.5768   -1.3526    2.6589 N   0  0  0  0  0  0  0  0  0  0  0  0
    2.6002   -0.4639    2.0166 C   0  0  2  0  0  0  0  0  0  0  0  0
    1.8184   -1.1864    0.9008 C   0  0  0  0  0  0  0  0  0  0  0  0
    2.1593   -2.3019    0.5169 O   0  0  0  0  0  0  0  0  0  0  0  0
    3.3500    0.7423    1.4431 C   0  0  0  0  0  0  0  0  0  0  0  0
    3.8461   -2.1882    2.1410 H   0  0  0  0  0  0  0  0  0  0  0  0
    1.8702   -0.1186    2.7566 H   0  0  0  0  0  0  0  0  0  0  0  0
    4.0698    0.4185    0.6841 H   0  0  0  0  0  0  0  0  0  0  0  0
    2.6521    1.4471    0.9813 H   0  0  0  0  0  0  0  0  0  0  0  0
    3.8919    1.2650    2.2377 H   0  0  0  0  0  0  0  0  0  0  0  0
    0.6638   -0.6352    0.3743 N   0  0  0  0  0  0  0  0  0  0  0  0
    0.2756   -0.8261   -1.0384 C   0  0  2  0  0  0  0  0  0  0  0  0
    1.3914   -1.0011   -2.1015 C   0  0  0  0  0  0  0  0  0  0  0  0
    2.5103   -0.5481   -1.8879 O   0  0  0  0  0  0  0  0  0  0  0  0
   -0.5497    0.4154   -1.3982 C   0  0  0  0  0  0  0  0  0  0  0  0
    0.2817    1.5836   -1.3608 O   0  0  0  0  0  0  0  0  0  0  0  0
    0.4689    0.2975    0.7336 H   0  0  0  0  0  0  0  0  0  0  0  0
   -0.3594   -1.7151   -1.0940 H   0  0  0  0  0  0  0  0  0  0  0  0
   -1.3817    0.5313   -0.6953 H   0  0  0  0  0  0  0  0  0  0  0  0
   -0.9807    0.3046   -2.3985 H   0  0  0  0  0  0  0  0  0  0  0  0
    1.1148    1.4420   -1.8539 H   0  0  0  0  0  0  0  0  0  0  0  0
    1.0297   -1.1888   -3.4287 N   0  0  0  0  0  0  0  0  0  0  0  0
    1.8952   -1.0768   -4.6244 C   0  0  2  0  0  0  0  0  0  0  0  0
    3.0581   -2.0951   -4.6982 C   0  0  0  0  0  0  0  0  0  0  0  0
    3.2458   -2.7089   -5.7402 O   0  0  0  0  0  0  0  0  0  0  0  0
    2.4126    0.3572   -4.8072 C   0  0  0  0  0  0  0  0  0  0  0  0
    0.0812   -1.5186   -3.5844 H   0  0  0  0  0  0  0  0  0  0  0  0
    1.2593   -1.2927   -5.4894 H   0  0  0  0  0  0  0  0  0  0  0  0
    3.1657    0.6085   -4.0547 H   0  0  0  0  0  0  0  0  0  0  0  0
    2.8733    0.4640   -5.7944 H   0  0  0  0  0  0  0  0  0  0  0  0
    1.5884    1.0726   -4.7315 H   0  0  0  0  0  0  0  0  0  0  0  0
    3.8873   -2.3273   -3.6191 N   0  0  0  0  0  0  0  0  0  0  0  0
    4.9953   -3.2715   -3.6270 C   0  0  0  0  0  0  0  0  0  0  0  0
    3.7028   -1.7768   -2.7762 H   0  0  0  0  0  0  0  0  0  0  0  0
    5.7495   -2.9710   -4.3616 H   0  0  0  0  0  0  0  0  0  0  0  0
    5.4665   -3.3058   -2.6401 H   0  0  0  0  0  0  0  0  0  0  0  0
    4.6403   -4.2771   -3.8750 H   0  0  0  0  0  0  0  0  0  0  0  0
  1  2  2  0  0  0  0
  1  3  1  0  0  0  0
  1  7  1  0  0  0  0
  3  4  1  0  0  0  0
  3  5  1  0  0  0  0
  3  6  1  0  0  0  0
  7  8  1  0  0  0  0
  7 12  1  0  0  0  0
  8  9  1  0  0  0  0
  8 11  1  0  0  0  0
  8 13  1  0  0  0  0
  9 10  2  0  0  0  0
  9 17  1  0  0  0  0
 11 14  1  0  0  0  0
 11 15  1  0  0  0  0
 11 16  1  0  0  0  0
 17 18  1  0  0  0  0
 17 23  1  0  0  0  0
 18 19  1  0  0  0  0
 18 21  1  0  0  0  0
 18 24  1  0  0  0  0
 19 20  2  0  0  0  0
 19 28  1  0  0  0  0
 21 22  1  0  0  0  0
 21 25  1  0  0  0  0
 21 26  1  0  0  0  0
 22 27  1  0  0  0  0
 28 29  1  0  0  0  0
 28 33  1  0  0  0  0
 29 30  1  0  0  0  0
 29 32  1  0  0  0  0
 29 34  1  0  0  0  0
 30 31  2  0  0  0  0
 30 38  1  0  0  0  0
 32 35  1  0  0  0  0
 32 36  1  0  0  0  0
 32 37  1  0  0  0  0
 38 39  1  0  0  0  0
 38 40  1  0  0  0  0
 39 41  1  0  0  0  0
 39 42  1  0  0  0  0
 39 43  1  0  0  0  0
M  END
$$$$

  -OEChem-05262217303D

 43 42  0     1  0  0  0  0  0999 V2000
    3.9385   -1.2509    3.9863 C   0  0  0  0  0  0  0  0  0  0  0  0
    3.5178   -0.3283    4.6666 O   0  0  0  0  0  0  0  0  0  0  0  0
    4.8559   -2.2921    4.5992 C   0  0  0  0  0  0  0  0  0  0  0  0
    5.8101   -2.3082    4.0670 H   0  0  0  0  0  0  0  0  0  0  0  0
    5.0427   -2.0572    5.6509 H   0  0  0  0  0  0  0  0  0  0  0  0
    4.3942   -3.2804    4.5355 H   0  0  0  0  0  0  0  0  0  0  0  0
    3.5736   -1.3538    2.6610 N   0  0  0  0  0  0  0  0  0  0  0  0
    2.5831   -0.4914    2.0047 C   0  0  2  0  0  0  0  0  0  0  0  0
    1.8160   -1.2405    0.8960 C   0  0  0  0  0  0  0  0  0  0  0  0
    2.1558   -2.3673    0.5476 O   0  0  0  0  0  0  0  0  0  0  0  0
    3.3105    0.7209    1.4157 C   0  0  0  0  0  0  0  0  0  0  0  0
    3.8429   -2.2019    2.1636 H   0  0  0  0  0  0  0  0  0  0  0  0
    1.8461   -0.1500    2.7395 H   0  0  0  0  0  0  0  0  0  0  0  0
    4.0393    0.4006    0.6639 H   0  0  0  0  0  0  0  0  0  0  0  0
    2.5997    1.4040    0.9410 H   0  0  0  0  0  0  0  0  0  0  0  0
    3.8384    1.2663    2.2043 H   0  0  0  0  0  0  0  0  0  0  0  0
    0.6502   -0.7192    0.3650 N   0  0  0  0  0  0  0  0  0  0  0  0
    0.2914   -0.8544   -1.0631 C   0  0  2  0  0  0  0  0  0  0  0  0
    1.4142   -0.9269   -2.1391 C   0  0  0  0  0  0  0  0  0  0  0  0
    2.5900   -0.7520   -1.8491 O   0  0  0  0  0  0  0  0  0  0  0  0
   -0.6264    0.3441   -1.3469 C   0  0  0  0  0  0  0  0  0  0  0  0
    0.1071    1.5704   -1.2259 O   0  0  0  0  0  0  0  0  0  0  0  0
    0.4217    0.1947    0.7518 H   0  0  0  0  0  0  0  0  0  0  0  0
   -0.2857   -1.7780   -1.1680 H   0  0  0  0  0  0  0  0  0  0  0  0
   -1.4597    0.3479   -0.6358 H   0  0  0  0  0  0  0  0  0  0  0  0
   -1.0611    0.2690   -2.3486 H   0  0  0  0  0  0  0  0  0  0  0  0
    0.8763    1.5900   -1.8264 H   0  0  0  0  0  0  0  0  0  0  0  0
    1.0762   -0.7450   -3.4747 N   0  0  0  0  0  0  0  0  0  0  0  0
    1.9916   -0.5391   -4.6201 C   0  0  2  0  0  0  0  0  0  0  0  0
    2.9457   -1.7192   -4.9232 C   0  0  0  0  0  0  0  0  0  0  0  0
    3.0139   -2.1487   -6.0669 O   0  0  0  0  0  0  0  0  0  0  0  0
    2.7725    0.7764   -4.4878 C   0  0  0  0  0  0  0  0  0  0  0  0
    0.0933   -0.8715   -3.6997 H   0  0  0  0  0  0  0  0  0  0  0  0
    1.3587   -0.4371   -5.5080 H   0  0  0  0  0  0  0  0  0  0  0  0
    3.5235    0.7178   -3.6948 H   0  0  0  0  0  0  0  0  0  0  0  0
    3.2901    0.9980   -5.4266 H   0  0  0  0  0  0  0  0  0  0  0  0
    2.0920    1.6035   -4.2655 H   0  0  0  0  0  0  0  0  0  0  0  0
    3.7165   -2.3012   -3.9370 N   0  0  0  0  0  0  0  0  0  0  0  0
    4.6299   -3.4127   -4.1620 C   0  0  0  0  0  0  0  0  0  0  0  0
    3.6257   -1.9077   -2.9963 H   0  0  0  0  0  0  0  0  0  0  0  0
    5.4274   -3.1193   -4.8525 H   0  0  0  0  0  0  0  0  0  0  0  0
    5.0858   -3.7218   -3.2164 H   0  0  0  0  0  0  0  0  0  0  0  0
    4.0949   -4.2698   -4.5840 H   0  0  0  0  0  0  0  0  0  0  0  0
  1  2  2  0  0  0  0
  1  3  1  0  0  0  0
  1  7  1  0  0  0  0
  3  4  1  0  0  0  0
  3  5  1  0  0  0  0
  3  6  1  0  0  0  0
  7  8  1  0  0  0  0
  7 12  1  0  0  0  0
  8  9  1  0  0  0  0
  8 11  1  0  0  0  0
  8 13  1  0  0  0  0
  9 10  2  0  0  0  0
  9 17  1  0  0  0  0
 11 14  1  0  0  0  0
 11 15  1  0  0  0  0
 11 16  1  0  0  0  0
 17 18  1  0  0  0  0
 17 23  1  0  0  0  0
 18 19  1  0  0  0  0
 18 21  1  0  0  0  0
 18 24  1  0  0  0  0
 19 20  2  0  0  0  0
 19 28  1  0  0  0  0
 21 22  1  0  0  0  0
 21 25  1  0  0  0  0
 21 26  1  0  0  0  0
 22 27  1  0  0  0  0
 28 29  1  0  0  0  0
 28 33  1  0  0  0  0
 29 30  1  0  0  0  0
 29 32  1  0  0  0  0
 29 34  1  0  0  0  0
 30 31  2  0  0  0  0
 30 38  1  0  0  0  0
 32 35  1  0  0  0  0
 32 36  1  0  0  0  0
 32 37  1  0  0  0  0
 38 39  1  0  0  0  0
 38 40  1  0  0  0  0
 39 41  1  0  0  0  0
 39 42  1  0  0  0  0
 39 43  1  0  0  0  0
M  END
$$$$

  -OEChem-05262217303D

 43 42  0     1  0  0  0  0  0999 V2000
    3.9462   -1.1945    3.9720 C   0  0  0  0  0  0  0  0  0  0  0  0
    3.5104   -0.2691    4.6390 O   0  0  0  0  0  0  0  0  0  0  0  0
    4.8912   -2.2040    4.5961 C   0  0  0  0  0  0  0  0  0  0  0  0
    5.8462   -2.1983    4.0654 H   0  0  0  0  0  0  0  0  0  0  0  0
    5.0698   -1.9547    5.6458 H   0  0  0  0  0  0  0  0  0  0  0  0
    4.4577   -3.2054    4.5411 H   0  0  0  0  0  0  0  0  0  0  0  0
    3.5712   -1.3300    2.6526 N   0  0  0  0  0  0  0  0  0  0  0  0
    2.5464   -0.5105    1.9944 C   0  0  2  0  0  0  0  0  0  0  0  0
    1.8074   -1.2994    0.8945 C   0  0  0  0  0  0  0  0  0  0  0  0
    2.1606   -2.4343    0.5916 O   0  0  0  0  0  0  0  0  0  0  0  0
    3.2218    0.7260    1.3934 C   0  0  0  0  0  0  0  0  0  0  0  0
    3.8498   -2.1844    2.1707 H   0  0  0  0  0  0  0  0  0  0  0  0
    1.7988   -0.1939    2.7295 H   0  0  0  0  0  0  0  0  0  0  0  0
    3.9530    0.4298    0.6340 H   0  0  0  0  0  0  0  0  0  0  0  0
    2.4804    1.3809    0.9259 H   0  0  0  0  0  0  0  0  0  0  0  0
    3.7388    1.2933    2.1738 H   0  0  0  0  0  0  0  0  0  0  0  0
    0.6332   -0.8189    0.3462 N   0  0  0  0  0  0  0  0  0  0  0  0
    0.3225   -0.8901   -1.0985 C   0  0  2  0  0  0  0  0  0  0  0  0
    1.4717   -0.8355   -2.1532 C   0  0  0  0  0  0  0  0  0  0  0  0
    2.6452   -0.9995   -1.8577 O   0  0  0  0  0  0  0  0  0  0  0  0
   -0.6939    0.2390   -1.3275 C   0  0  0  0  0  0  0  0  0  0  0  0
   -0.0795    1.5160   -1.1055 O   0  0  0  0  0  0  0  0  0  0  0  0
    0.3538    0.0671    0.7630 H   0  0  0  0  0  0  0  0  0  0  0  0
   -0.1793   -1.8471   -1.2703 H   0  0  0  0  0  0  0  0  0  0  0  0
   -1.5339    0.1190   -0.6344 H   0  0  0  0  0  0  0  0  0  0  0  0
   -1.1081    0.1911   -2.3395 H   0  0  0  0  0  0  0  0  0  0  0  0
    0.6506    1.6817   -1.7308 H   0  0  0  0  0  0  0  0  0  0  0  0
    1.2233   -0.2939   -3.4101 N   0  0  0  0  0  0  0  0  0  0  0  0
    2.2039   -0.0183   -4.4852 C   0  0  2  0  0  0  0  0  0  0  0  0
    2.9107   -1.2663   -5.0671 C   0  0  0  0  0  0  0  0  0  0  0  0
    2.8963   -1.4477   -6.2772 O   0  0  0  0  0  0  0  0  0  0  0  0
    3.2284    1.0431   -4.0578 C   0  0  0  0  0  0  0  0  0  0  0  0
    0.2433   -0.1972   -3.6604 H   0  0  0  0  0  0  0  0  0  0  0  0
    1.6384    0.4141   -5.3174 H   0  0  0  0  0  0  0  0  0  0  0  0
    3.9158    0.6539   -3.3012 H   0  0  0  0  0  0  0  0  0  0  0  0
    3.8216    1.3575   -4.9225 H   0  0  0  0  0  0  0  0  0  0  0  0
    2.7202    1.9217   -3.6501 H   0  0  0  0  0  0  0  0  0  0  0  0
    3.5462   -2.1828   -4.2536 N   0  0  0  0  0  0  0  0  0  0  0  0
    4.2238   -3.3772   -4.7374 C   0  0  0  0  0  0  0  0  0  0  0  0
    3.5203   -1.9919   -3.2475 H   0  0  0  0  0  0  0  0  0  0  0  0
    5.0552   -3.1052   -5.3960 H   0  0  0  0  0  0  0  0  0  0  0  0
    4.6223   -3.9498   -3.8943 H   0  0  0  0  0  0  0  0  0  0  0  0
    3.5277   -4.0160   -5.2909 H   0  0  0  0  0  0  0  0  0  0  0  0
  1  2  2  0  0  0  0
  1  3  1  0  0  0  0
  1  7  1  0  0  0  0
  3  4  1  0  0  0  0
  3  5  1  0  0  0  0
  3  6  1  0  0  0  0
  7  8  1  0  0  0  0
  7 12  1  0  0  0  0
  8  9  1  0  0  0  0
  8 11  1  0  0  0  0
  8 13  1  0  0  0  0
  9 10  2  0  0  0  0
  9 17  1  0  0  0  0
 11 14  1  0  0  0  0
 11 15  1  0  0  0  0
 11 16  1  0  0  0  0
 17 18  1  0  0  0  0
 17 23  1  0  0  0  0
 18 19  1  0  0  0  0
 18 21  1  0  0  0  0
 18 24  1  0  0  0  0
 19 20  2  0  0  0  0
 19 28  1  0  0  0  0
 21 22  1  0  0  0  0
 21 25  1  0  0  0  0
 21 26  1  0  0  0  0
 22 27  1  0  0  0  0
 28 29  1  0  0  0  0
 28 33  1  0  0  0  0
 29 30  1  0  0  0  0
 29 32  1  0  0  0  0
 29 34  1  0  0  0  0
 30 31  2  0  0  0  0
 30 38  1  0  0  0  0
 32 35  1  0  0  0  0
 32 36  1  0  0  0  0
 32 37  1  0  0  0  0
 38 39  1  0  0  0  0
 38 40  1  0  0  0  0
 39 41  1  0  0  0  0
 39 42  1  0  0  0  0
 39 43  1  0  0  0  0
M  END
$$$$

  -OEChem-05262217303D

 43 42  0     1  0  0  0  0  0999 V2000
    3.9018   -1.1470    4.0251 C   0  0  0  0  0  0  0  0  0  0  0  0
    3.4037   -0.2570    4.6969 O   0  0  0  0  0  0  0  0  0  0  0  0
    4.8955   -2.1086    4.6493 C   0  0  0  0  0  0  0  0  0  0  0  0
    5.8624   -2.0224    4.1475 H   0  0  0  0  0  0  0  0  0  0  0  0
    5.0266   -1.8789    5.7106 H   0  0  0  0  0  0  0  0  0  0  0  0
    4.5330   -3.1351    4.5530 H   0  0  0  0  0  0  0  0  0  0  0  0
    3.5546   -1.2853    2.6984 N   0  0  0  0  0  0  0  0  0  0  0  0
    2.4885   -0.5219    2.0379 C   0  0  2  0  0  0  0  0  0  0  0  0
    1.8329   -1.3278    0.8972 C   0  0  0  0  0  0  0  0  0  0  0  0
    2.2503   -2.4416    0.6046 O   0  0  0  0  0  0  0  0  0  0  0  0
    3.0867    0.7778    1.4894 C   0  0  0  0  0  0  0  0  0  0  0  0
    3.8851   -2.1189    2.2121 H   0  0  0  0  0  0  0  0  0  0  0  0
    1.7042   -0.2827    2.7643 H   0  0  0  0  0  0  0  0  0  0  0  0
    3.8598    0.5573    0.7457 H   0  0  0  0  0  0  0  0  0  0  0  0
    2.3119    1.3897    1.0176 H   0  0  0  0  0  0  0  0  0  0  0  0
    3.5377    1.3593    2.3000 H   0  0  0  0  0  0  0  0  0  0  0  0
    0.6595   -0.8899    0.3120 N   0  0  0  0  0  0  0  0  0  0  0  0
    0.4026   -0.9175   -1.1445 C   0  0  2  0  0  0  0  0  0  0  0  0
    1.5838   -0.7620   -2.1511 C   0  0  0  0  0  0  0  0  0  0  0  0
    2.6769   -1.2716   -1.9696 O   0  0  0  0  0  0  0  0  0  0  0  0
   -0.6789    0.1506   -1.3651 C   0  0  0  0  0  0  0  0  0  0  0  0
   -0.1635    1.4577   -1.0685 O   0  0  0  0  0  0  0  0  0  0  0  0
    0.3084   -0.0416    0.7525 H   0  0  0  0  0  0  0  0  0  0  0  0
   -0.0331   -1.8952   -1.3730 H   0  0  0  0  0  0  0  0  0  0  0  0
   -1.5348   -0.0552   -0.7129 H   0  0  0  0  0  0  0  0  0  0  0  0
   -1.0480    0.1148   -2.3952 H   0  0  0  0  0  0  0  0  0  0  0  0
    0.5967    1.6928   -1.6322 H   0  0  0  0  0  0  0  0  0  0  0  0
    1.4554    0.0823   -3.2498 N   0  0  0  0  0  0  0  0  0  0  0  0
    2.4884    0.4006   -4.2607 C   0  0  2  0  0  0  0  0  0  0  0  0
    2.9089   -0.7922   -5.1510 C   0  0  0  0  0  0  0  0  0  0  0  0
    2.7495   -0.7161   -6.3619 O   0  0  0  0  0  0  0  0  0  0  0  0
    3.7131    1.0777   -3.6263 C   0  0  0  0  0  0  0  0  0  0  0  0
    0.5079    0.3810   -3.4655 H   0  0  0  0  0  0  0  0  0  0  0  0
    2.0458    1.1372   -4.9396 H   0  0  0  0  0  0  0  0  0  0  0  0
    4.2897    0.3753   -3.0173 H   0  0  0  0  0  0  0  0  0  0  0  0
    4.3727    1.4643   -4.4098 H   0  0  0  0  0  0  0  0  0  0  0  0
    3.4019    1.9137   -2.9931 H   0  0  0  0  0  0  0  0  0  0  0  0
    3.4302   -1.9485   -4.6067 N   0  0  0  0  0  0  0  0  0  0  0  0
    3.7869   -3.1273   -5.3836 C   0  0  0  0  0  0  0  0  0  0  0  0
    3.4603   -1.9929   -3.5836 H   0  0  0  0  0  0  0  0  0  0  0  0
    4.5406   -2.8749   -6.1368 H   0  0  0  0  0  0  0  0  0  0  0  0
    4.1994   -3.8998   -4.7275 H   0  0  0  0  0  0  0  0  0  0  0  0
    2.9053   -3.5352   -5.8888 H   0  0  0  0  0  0  0  0  0  0  0  0
  1  2  2  0  0  0  0
  1  3  1  0  0  0  0
  1  7  1  0  0  0  0
  3  4  1  0  0  0  0
  3  5  1  0  0  0  0
  3  6  1  0  0  0  0
  7  8  1  0  0  0  0
  7 12  1  0  0  0  0
  8  9  1  0  0  0  0
  8 11  1  0  0  0  0
  8 13  1  0  0  0  0
  9 10  2  0  0  0  0
  9 17  1  0  0  0  0
 11 14  1  0  0  0  0
 11 15  1  0  0  0  0
 11 16  1  0  0  0  0
 17 18  1  0  0  0  0
 17 23  1  0  0  0  0
 18 19  1  0  0  0  0
 18 21  1  0  0  0  0
 18 24  1  0  0  0  0
 19 20  2  0  0  0  0
 19 28  1  0  0  0  0
 21 22  1  0  0  0  0
 21 25  1  0  0  0  0
 21 26  1  0  0  0  0
 22 27  1  0  0  0  0
 28 29  1  0  0  0  0
 28 33  1  0  0  0  0
 29 30  1  0  0  0  0
 29 32  1  0  0  0  0
 29 34  1  0  0  0  0
 30 31  2  0  0  0  0
 30 38  1  0  0  0  0
 32 35  1  0  0  0  0
 32 36  1  0  0  0  0
 32 37  1  0  0  0  0
 38 39  1  0  0  0  0
 38 40  1  0  0  0  0
 39 41  1  0  0  0  0
 39 42  1  0  0  0  0
 39 43  1  0  0  0  0
M  END
$$$$

  -OEChem-05262217303D

 43 42  0     1  0  0  0  0  0999 V2000
    3.7592   -1.6661    4.0816 C   0  0  0  0  0  0  0  0  0  0  0  0
    2.7769   -1.8727    4.7769 O   0  0  0  0  0  0  0  0  0  0  0  0
    5.0882   -2.3118    4.4250 C   0  0  0  0  0  0  0  0  0  0  0  0
    5.8185   -1.5431    4.6893 H   0  0  0  0  0  0  0  0  0  0  0  0
    4.9691   -2.9922    5.2727 H   0  0  0  0  0  0  0  0  0  0  0  0
    5.4607   -2.8792    3.5685 H   0  0  0  0  0  0  0  0  0  0  0  0
    3.6583   -0.8488    2.9759 N   0  0  0  0  0  0  0  0  0  0  0  0
    2.3941   -0.3130    2.4552 C   0  0  2  0  0  0  0  0  0  0  0  0
    2.3686   -0.3230    0.9124 C   0  0  0  0  0  0  0  0  0  0  0  0
    3.4274   -0.3200    0.3052 O   0  0  0  0  0  0  0  0  0  0  0  0
    2.2263    1.1117    2.9904 C   0  0  0  0  0  0  0  0  0  0  0  0
    4.4631   -0.8105    2.3500 H   0  0  0  0  0  0  0  0  0  0  0  0
    1.5575   -0.9293    2.8011 H   0  0  0  0  0  0  0  0  0  0  0  0
    3.0472    1.7486    2.6447 H   0  0  0  0  0  0  0  0  0  0  0  0
    1.2811    1.5439    2.6489 H   0  0  0  0  0  0  0  0  0  0  0  0
    2.2274    1.1062    4.0854 H   0  0  0  0  0  0  0  0  0  0  0  0
    1.1545   -0.2287    0.2480 N   0  0  0  0  0  0  0  0  0  0  0  0
    0.8641   -0.6140   -1.1588 C   0  0  2  0  0  0  0  0  0  0  0  0
    1.9940   -0.5213   -2.2218 C   0  0  0  0  0  0  0  0  0  0  0  0
    2.7903   -1.4489   -2.2954 O   0  0  0  0  0  0  0  0  0  0  0  0
   -0.3681    0.1904   -1.6031 C   0  0  0  0  0  0  0  0  0  0  0  0
   -0.0721    1.5920   -1.6574 O   0  0  0  0  0  0  0  0  0  0  0  0
    0.3550   -0.2389    0.8755 H   0  0  0  0  0  0  0  0  0  0  0  0
    0.5817   -1.6715   -1.1516 H   0  0  0  0  0  0  0  0  0  0  0  0
   -1.1905    0.0194   -0.9010 H   0  0  0  0  0  0  0  0  0  0  0  0
   -0.7059   -0.1548   -2.5865 H   0  0  0  0  0  0  0  0  0  0  0  0
    0.2587    1.9085   -0.7964 H   0  0  0  0  0  0  0  0  0  0  0  0
    1.8615    0.3009   -3.3319 N   0  0  0  0  0  0  0  0  0  0  0  0
    2.8143    0.4630   -4.4508 C   0  0  2  0  0  0  0  0  0  0  0  0
    2.8552   -0.7042   -5.4643 C   0  0  0  0  0  0  0  0  0  0  0  0
    2.8547   -0.4576   -6.6639 O   0  0  0  0  0  0  0  0  0  0  0  0
    4.2239    0.7812   -3.9323 C   0  0  0  0  0  0  0  0  0  0  0  0
    1.1424    1.0190   -3.2285 H   0  0  0  0  0  0  0  0  0  0  0  0
    2.4812    1.3370   -5.0197 H   0  0  0  0  0  0  0  0  0  0  0  0
    4.6658   -0.0843   -3.4296 H   0  0  0  0  0  0  0  0  0  0  0  0
    4.8758    1.0602   -4.7660 H   0  0  0  0  0  0  0  0  0  0  0  0
    4.1907    1.6150   -3.2247 H   0  0  0  0  0  0  0  0  0  0  0  0
    2.9170   -2.0189   -5.0498 N   0  0  0  0  0  0  0  0  0  0  0  0
    3.0529   -3.1541   -5.9512 C   0  0  0  0  0  0  0  0  0  0  0  0
    2.9926   -2.1641   -4.0390 H   0  0  0  0  0  0  0  0  0  0  0  0
    3.0554   -4.0887   -5.3820 H   0  0  0  0  0  0  0  0  0  0  0  0
    2.2183   -3.1827   -6.6597 H   0  0  0  0  0  0  0  0  0  0  0  0
    3.9907   -3.0864   -6.5124 H   0  0  0  0  0  0  0  0  0  0  0  0
  1  2  2  0  0  0  0
  1  3  1  0  0  0  0
  1  7  1  0  0  0  0
  3  4  1  0  0  0  0
  3  5  1  0  0  0  0
  3  6  1  0  0  0  0
  7  8  1  0  0  0  0
  7 12  1  0  0  0  0
  8  9  1  0  0  0  0
  8 11  1  0  0  0  0
  8 13  1  0  0  0  0
  9 10  2  0  0  0  0
  9 17  1  0  0  0  0
 11 14  1  0  0  0  0
 11 15  1  0  0  0  0
 11 16  1  0  0  0  0
 17 18  1  0  0  0  0
 17 23  1  0  0  0  0
 18 19  1  0  0  0  0
 18 21  1  0  0  0  0
 18 24  1  0  0  0  0
 19 20  2  0  0  0  0
 19 28  1  0  0  0  0
 21 22  1  0  0  0  0
 21 25  1  0  0  0  0
 21 26  1  0  0  0  0
 22 27  1  0  0  0  0
 28 29  1  0  0  0  0
 28 33  1  0  0  0  0
 29 30  1  0  0  0  0
 29 32  1  0  0  0  0
 29 34  1  0  0  0  0
 30 31  2  0  0  0  0
 30 38  1  0  0  0  0
 32 35  1  0  0  0  0
 32 36  1  0  0  0  0
 32 37  1  0  0  0  0
 38 39  1  0  0  0  0
 38 40  1  0  0  0  0
 39 41  1  0  0  0  0
 39 42  1  0  0  0  0
 39 43  1  0  0  0  0
M  END
$$$$

  -OEChem-05262217303D

 43 42  0     1  0  0  0  0  0999 V2000
    3.6051   -1.6716    4.1819 C   0  0  0  0  0  0  0  0  0  0  0  0
    2.5965   -1.7291    4.8680 O   0  0  0  0  0  0  0  0  0  0  0  0
    4.8541   -2.4264    4.5963 C   0  0  0  0  0  0  0  0  0  0  0  0
    5.6752   -1.7250    4.7626 H   0  0  0  0  0  0  0  0  0  0  0  0
    4.6709   -2.9802    5.5214 H   0  0  0  0  0  0  0  0  0  0  0  0
    5.1406   -3.1335    3.8140 H   0  0  0  0  0  0  0  0  0  0  0  0
    3.6062   -0.9211    3.0251 N   0  0  0  0  0  0  0  0  0  0  0  0
    2.4166   -0.2744    2.4569 C   0  0  2  0  0  0  0  0  0  0  0  0
    2.3854   -0.3910    0.9188 C   0  0  0  0  0  0  0  0  0  0  0  0
    3.4372   -0.5243    0.3133 O   0  0  0  0  0  0  0  0  0  0  0  0
    2.4241    1.1950    2.8876 C   0  0  0  0  0  0  0  0  0  0  0  0
    4.4205   -1.0015    2.4163 H   0  0  0  0  0  0  0  0  0  0  0  0
    1.5110   -0.7566    2.8401 H   0  0  0  0  0  0  0  0  0  0  0  0
    3.3205    1.6995    2.5123 H   0  0  0  0  0  0  0  0  0  0  0  0
    1.5430    1.7150    2.5003 H   0  0  0  0  0  0  0  0  0  0  0  0
    2.4154    1.2681    3.9800 H   0  0  0  0  0  0  0  0  0  0  0  0
    1.1754   -0.2748    0.2505 N   0  0  0  0  0  0  0  0  0  0  0  0
    0.8917   -0.6507   -1.1584 C   0  0  2  0  0  0  0  0  0  0  0  0
    2.0321   -0.5677   -2.2086 C   0  0  0  0  0  0  0  0  0  0  0  0
    2.7149   -1.5661   -2.4028 O   0  0  0  0  0  0  0  0  0  0  0  0
   -0.3284    0.1712   -1.6070 C   0  0  0  0  0  0  0  0  0  0  0  0
   -0.0284    1.5742   -1.6542 O   0  0  0  0  0  0  0  0  0  0  0  0
    0.3704   -0.2252    0.8687 H   0  0  0  0  0  0  0  0  0  0  0  0
    0.5955   -1.7047   -1.1563 H   0  0  0  0  0  0  0  0  0  0  0  0
   -1.1625   -0.0006   -0.9187 H   0  0  0  0  0  0  0  0  0  0  0  0
   -0.6504   -0.1643   -2.5990 H   0  0  0  0  0  0  0  0  0  0  0  0
    0.2325    1.9028   -0.7743 H   0  0  0  0  0  0  0  0  0  0  0  0
    2.0774    0.4586   -3.1395 N   0  0  0  0  0  0  0  0  0  0  0  0
    3.0956    0.6862   -4.1851 C   0  0  2  0  0  0  0  0  0  0  0  0
    3.0358   -0.2820   -5.3890 C   0  0  0  0  0  0  0  0  0  0  0  0
    3.0770    0.1695   -6.5266 O   0  0  0  0  0  0  0  0  0  0  0  0
    4.5041    0.7142   -3.5759 C   0  0  0  0  0  0  0  0  0  0  0  0
    1.4014    1.2059   -2.9709 H   0  0  0  0  0  0  0  0  0  0  0  0
    2.9060    1.6836   -4.5948 H   0  0  0  0  0  0  0  0  0  0  0  0
    4.8050   -0.2788   -3.2284 H   0  0  0  0  0  0  0  0  0  0  0  0
    5.2298    1.0488   -4.3237 H   0  0  0  0  0  0  0  0  0  0  0  0
    4.5379    1.4041   -2.7274 H   0  0  0  0  0  0  0  0  0  0  0  0
    2.9522   -1.6479   -5.2111 N   0  0  0  0  0  0  0  0  0  0  0  0
    2.9406   -2.6171   -6.2972 C   0  0  0  0  0  0  0  0  0  0  0  0
    2.9571   -1.9743   -4.2405 H   0  0  0  0  0  0  0  0  0  0  0  0
    3.8526   -2.5321   -6.8972 H   0  0  0  0  0  0  0  0  0  0  0  0
    2.8844   -3.6328   -5.8943 H   0  0  0  0  0  0  0  0  0  0  0  0
    2.0743   -2.4534   -6.9463 H   0  0  0  0  0  0  0  0  0  0  0  0
  1  2  2  0  0  0  0
  1  3  1  0  0  0  0
  1  7  1  0  0  0  0
  3  4  1  0  0  0  0
  3  5  1  0  0  0  0
  3  6  1  0  0  0  0
  7  8  1  0  0  0  0
  7 12  1  0  0  0  0
  8  9  1  0  0  0  0
  8 11  1  0  0  0  0
  8 13  1  0  0  0  0
  9 10  2  0  0  0  0
  9 17  1  0  0  0  0
 11 14  1  0  0  0  0
 11 15  1  0  0  0  0
 11 16  1  0  0  0  0
 17 18  1  0  0  0  0
 17 23  1  0  0  0  0
 18 19  1  0  0  0  0
 18 21  1  0  0  0  0
 18 24  1  0  0  0  0
 19 20  2  0  0  0  0
 19 28  1  0  0  0  0
 21 22  1  0  0  0  0
 21 25  1  0  0  0  0
 21 26  1  0  0  0  0
 22 27  1  0  0  0  0
 28 29  1  0  0  0  0
 28 33  1  0  0  0  0
 29 30  1  0  0  0  0
 29 32  1  0  0  0  0
 29 34  1  0  0  0  0
 30 31  2  0  0  0  0
 30 38  1  0  0  0  0
 32 35  1  0  0  0  0
 32 36  1  0  0  0  0
 32 37  1  0  0  0  0
 38 39  1  0  0  0  0
 38 40  1  0  0  0  0
 39 41  1  0  0  0  0
 39 42  1  0  0  0  0
 39 43  1  0  0  0  0
M  END
$$$$

  -OEChem-05262217303D

 43 42  0     1  0  0  0  0  0999 V2000
    3.5710   -1.3629    4.4440 C   0  0  0  0  0  0  0  0  0  0  0  0
    2.6902   -0.9089    5.1577 O   0  0  0  0  0  0  0  0  0  0  0  0
    4.6847   -2.1993    5.0455 C   0  0  0  0  0  0  0  0  0  0  0  0
    5.6503   -1.7217    4.8619 H   0  0  0  0  0  0  0  0  0  0  0  0
    4.5406   -2.2992    6.1252 H   0  0  0  0  0  0  0  0  0  0  0  0
    4.6876   -3.1959    4.5970 H   0  0  0  0  0  0  0  0  0  0  0  0
    3.5498   -1.1198    3.0871 N   0  0  0  0  0  0  0  0  0  0  0  0
    2.4497   -0.4478    2.3838 C   0  0  2  0  0  0  0  0  0  0  0  0
    2.2810   -0.9771    0.9441 C   0  0  0  0  0  0  0  0  0  0  0  0
    3.1741   -1.6401    0.4366 O   0  0  0  0  0  0  0  0  0  0  0  0
    2.7340    1.0575    2.3694 C   0  0  0  0  0  0  0  0  0  0  0  0
    4.2265   -1.6187    2.5095 H   0  0  0  0  0  0  0  0  0  0  0  0
    1.5083   -0.6337    2.9122 H   0  0  0  0  0  0  0  0  0  0  0  0
    3.6720    1.2640    1.8440 H   0  0  0  0  0  0  0  0  0  0  0  0
    1.9265    1.5984    1.8670 H   0  0  0  0  0  0  0  0  0  0  0  0
    2.8174    1.4370    3.3930 H   0  0  0  0  0  0  0  0  0  0  0  0
    1.1112   -0.7144    0.2514 N   0  0  0  0  0  0  0  0  0  0  0  0
    0.8904   -0.9019   -1.1991 C   0  0  2  0  0  0  0  0  0  0  0  0
    2.1075   -0.7397   -2.1423 C   0  0  0  0  0  0  0  0  0  0  0  0
    2.6306   -1.7365   -2.6252 O   0  0  0  0  0  0  0  0  0  0  0  0
   -0.2915   -0.0119   -1.6186 C   0  0  0  0  0  0  0  0  0  0  0  0
    0.0143    1.3856   -1.4862 O   0  0  0  0  0  0  0  0  0  0  0  0
    0.4751   -0.0754    0.7203 H   0  0  0  0  0  0  0  0  0  0  0  0
    0.5725   -1.9407   -1.3339 H   0  0  0  0  0  0  0  0  0  0  0  0
   -1.1655   -0.2535   -1.0045 H   0  0  0  0  0  0  0  0  0  0  0  0
   -0.5509   -0.2282   -2.6607 H   0  0  0  0  0  0  0  0  0  0  0  0
   -0.7478    1.9312   -1.7598 H   0  0  0  0  0  0  0  0  0  0  0  0
    2.4096    0.5027   -2.6739 N   0  0  0  0  0  0  0  0  0  0  0  0
    3.4726    0.8437   -3.6394 C   0  0  2  0  0  0  0  0  0  0  0  0
    3.2401    0.3124   -5.0727 C   0  0  0  0  0  0  0  0  0  0  0  0
    3.1976    1.1006   -6.0089 O   0  0  0  0  0  0  0  0  0  0  0  0
    4.8495    0.4171   -3.1110 C   0  0  0  0  0  0  0  0  0  0  0  0
    1.8298    1.2616   -2.3135 H   0  0  0  0  0  0  0  0  0  0  0  0
    3.4881    1.9354   -3.7196 H   0  0  0  0  0  0  0  0  0  0  0  0
    4.9459   -0.6723   -3.0857 H   0  0  0  0  0  0  0  0  0  0  0  0
    5.6381    0.8141   -3.7576 H   0  0  0  0  0  0  0  0  0  0  0  0
    5.0046    0.8018   -2.0986 H   0  0  0  0  0  0  0  0  0  0  0  0
    3.0769   -1.0360   -5.3177 N   0  0  0  0  0  0  0  0  0  0  0  0
    2.8222   -1.6073   -6.6323 C   0  0  0  0  0  0  0  0  0  0  0  0
    3.0416   -1.6383   -4.4897 H   0  0  0  0  0  0  0  0  0  0  0  0
    2.7576   -2.6974   -6.5618 H   0  0  0  0  0  0  0  0  0  0  0  0
    1.8787   -1.2285   -7.0386 H   0  0  0  0  0  0  0  0  0  0  0  0
    3.6325   -1.3538   -7.3239 H   0  0  0  0  0  0  0  0  0  0  0  0
  1  2  2  0  0  0  0
  1  3  1  0  0  0  0
  1  7  1  0  0  0  0
  3  4  1  0  0  0  0
  3  5  1  0  0  0  0
  3  6  1  0  0  0  0
  7  8  1  0  0  0  0
  7 12  1  0  0  0  0
  8  9  1  0  0  0  0
  8 11  1  0  0  0  0
  8 13  1  0  0  0  0
  9 10  2  0  0  0  0
  9 17  1  0  0  0  0
 11 14  1  0  0  0  0
 11 15  1  0  0  0  0
 11 16  1  0  0  0  0
 17 18  1  0  0  0  0
 17 23  1  0  0  0  0
 18 19  1  0  0  0  0
 18 21  1  0  0  0  0
 18 24  1  0  0  0  0
 19 20  2  0  0  0  0
 19 28  1  0  0  0  0
 21 22  1  0  0  0  0
 21 25  1  0  0  0  0
 21 26  1  0  0  0  0
 22 27  1  0  0  0  0
 28 29  1  0  0  0  0
 28 33  1  0  0  0  0
 29 30  1  0  0  0  0
 29 32  1  0  0  0  0
 29 34  1  0  0  0  0
 30 31  2  0  0  0  0
 30 38  1  0  0  0  0
 32 35  1  0  0  0  0
 32 36  1  0  0  0  0
 32 37  1  0  0  0  0
 38 39  1  0  0  0  0
 38 40  1  0  0  0  0
 39 41  1  0  0  0  0
 39 42  1  0  0  0  0
 39 43  1  0  0  0  0
M  END
$$$$

  -OEChem-05262217303D

 43 42  0     1  0  0  0  0  0999 V2000
    3.5637   -1.3563    4.4168 C   0  0  0  0  0  0  0  0  0  0  0  0
    2.7378   -0.8357    5.1503 O   0  0  0  0  0  0  0  0  0  0  0  0
    4.6617   -2.2265    4.9986 C   0  0  0  0  0  0  0  0  0  0  0  0
    5.6397   -1.8044    4.7553 H   0  0  0  0  0  0  0  0  0  0  0  0
    4.5621   -2.2818    6.0863 H   0  0  0  0  0  0  0  0  0  0  0  0
    4.5963   -3.2367    4.5868 H   0  0  0  0  0  0  0  0  0  0  0  0
    3.4956   -1.1579    3.0543 N   0  0  0  0  0  0  0  0  0  0  0  0
    2.4020   -0.4552    2.3717 C   0  0  2  0  0  0  0  0  0  0  0  0
    2.1771   -1.0001    0.9454 C   0  0  0  0  0  0  0  0  0  0  0  0
    3.0123   -1.7385    0.4415 O   0  0  0  0  0  0  0  0  0  0  0  0
    2.7425    1.0381    2.3248 C   0  0  0  0  0  0  0  0  0  0  0  0
    4.1244   -1.7063    2.4674 H   0  0  0  0  0  0  0  0  0  0  0  0
    1.4696   -0.5986    2.9283 H   0  0  0  0  0  0  0  0  0  0  0  0
    3.6697    1.2003    1.7656 H   0  0  0  0  0  0  0  0  0  0  0  0
    1.9400    1.6028    1.8410 H   0  0  0  0  0  0  0  0  0  0  0  0
    2.8744    1.4292    3.3388 H   0  0  0  0  0  0  0  0  0  0  0  0
    1.0297   -0.6584    0.2496 N   0  0  0  0  0  0  0  0  0  0  0  0
    0.8113   -0.8444   -1.2012 C   0  0  2  0  0  0  0  0  0  0  0  0
    2.0510   -0.7754   -2.1221 C   0  0  0  0  0  0  0  0  0  0  0  0
    2.3883   -1.7704   -2.7524 O   0  0  0  0  0  0  0  0  0  0  0  0
   -0.2771    0.1438   -1.6468 C   0  0  0  0  0  0  0  0  0  0  0  0
    0.1636    1.5056   -1.5226 O   0  0  0  0  0  0  0  0  0  0  0  0
    0.4447    0.0369    0.7048 H   0  0  0  0  0  0  0  0  0  0  0  0
    0.4116   -1.8548   -1.3346 H   0  0  0  0  0  0  0  0  0  0  0  0
   -1.1794   -0.0078   -1.0448 H   0  0  0  0  0  0  0  0  0  0  0  0
   -0.5392   -0.0578   -2.6912 H   0  0  0  0  0  0  0  0  0  0  0  0
   -0.5176    2.1195   -1.8572 H   0  0  0  0  0  0  0  0  0  0  0  0
    2.6318    0.4489   -2.4054 N   0  0  0  0  0  0  0  0  0  0  0  0
    3.8166    0.7176   -3.2430 C   0  0  2  0  0  0  0  0  0  0  0  0
    3.6035    0.5057   -4.7588 C   0  0  0  0  0  0  0  0  0  0  0  0
    3.8607    1.4156   -5.5370 O   0  0  0  0  0  0  0  0  0  0  0  0
    5.0273   -0.0820   -2.7421 C   0  0  0  0  0  0  0  0  0  0  0  0
    2.1600    1.2435   -1.9736 H   0  0  0  0  0  0  0  0  0  0  0  0
    4.0612    1.7772   -3.1168 H   0  0  0  0  0  0  0  0  0  0  0  0
    4.8959   -1.1536   -2.9189 H   0  0  0  0  0  0  0  0  0  0  0  0
    5.9324    0.2413   -3.2653 H   0  0  0  0  0  0  0  0  0  0  0  0
    5.1704    0.0771   -1.6690 H   0  0  0  0  0  0  0  0  0  0  0  0
    3.1319   -0.6928   -5.2542 N   0  0  0  0  0  0  0  0  0  0  0  0
    2.9108   -0.9675   -6.6664 C   0  0  0  0  0  0  0  0  0  0  0  0
    2.8988   -1.4057   -4.5567 H   0  0  0  0  0  0  0  0  0  0  0  0
    3.8413   -0.8436   -7.2303 H   0  0  0  0  0  0  0  0  0  0  0  0
    2.5610   -1.9958   -6.7993 H   0  0  0  0  0  0  0  0  0  0  0  0
    2.1558   -0.2880   -7.0751 H   0  0  0  0  0  0  0  0  0  0  0  0
  1  2  2  0  0  0  0
  1  3  1  0  0  0  0
  1  7  1  0  0  0  0
  3  4  1  0  0  0  0
  3  5  1  0  0  0  0
  3  6  1  0  0  0  0
  7  8  1  0  0  0  0
  7 12  1  0  0  0  0
  8  9  1  0  0  0  0
  8 11  1  0  0  0  0
  8 13  1  0  0  0  0
  9 10  2  0  0  0  0
  9 17  1  0  0  0  0
 11 14  1  0  0  0  0
 11 15  1  0  0  0  0
 11 16  1  0  0  0  0
 17 18  1  0  0  0  0
 17 23  1  0  0  0  0
 18 19  1  0  0  0  0
 18 21  1  0  0  0  0
 18 24  1  0  0  0  0
 19 20  2  0  0  0  0
 19 28  1  0  0  0  0
 21 22  1  0  0  0  0
 21 25  1  0  0  0  0
 21 26  1  0  0  0  0
 22 27  1  0  0  0  0
 28 29  1  0  0  0  0
 28 33  1  0  0  0  0
 29 30  1  0  0  0  0
 29 32  1  0  0  0  0
 29 34  1  0  0  0  0
 30 31  2  0  0  0  0
 30 38  1  0  0  0  0
 32 35  1  0  0  0  0
 32 36  1  0  0  0  0
 32 37  1  0  0  0  0
 38 39  1  0  0  0  0
 38 40  1  0  0  0  0
 39 41  1  0  0  0  0
 39 42  1  0  0  0  0
 39 43  1  0  0  0  0
M  END
$$$$

  -OEChem-05262217303D

 43 42  0     1  0  0  0  0  0999 V2000
    3.5307   -1.3691    4.4327 C   0  0  0  0  0  0  0  0  0  0  0  0
    2.6933   -0.8469    5.1516 O   0  0  0  0  0  0  0  0  0  0  0  0
    4.6018   -2.2612    5.0308 C   0  0  0  0  0  0  0  0  0  0  0  0
    5.5926   -1.8754    4.7788 H   0  0  0  0  0  0  0  0  0  0  0  0
    4.5019   -2.2926    6.1194 H   0  0  0  0  0  0  0  0  0  0  0  0
    4.5030   -3.2762    4.6386 H   0  0  0  0  0  0  0  0  0  0  0  0
    3.4944   -1.1589    3.0709 N   0  0  0  0  0  0  0  0  0  0  0  0
    2.4110   -0.4562    2.3716 C   0  0  2  0  0  0  0  0  0  0  0  0
    2.1862   -1.0236    0.9548 C   0  0  0  0  0  0  0  0  0  0  0  0
    3.0227   -1.7679    0.4602 O   0  0  0  0  0  0  0  0  0  0  0  0
    2.7665    1.0322    2.3016 C   0  0  0  0  0  0  0  0  0  0  0  0
    4.1263   -1.7152    2.4951 H   0  0  0  0  0  0  0  0  0  0  0  0
    1.4739   -0.5794    2.9253 H   0  0  0  0  0  0  0  0  0  0  0  0
    3.6985    1.1769    1.7455 H   0  0  0  0  0  0  0  0  0  0  0  0
    1.9715    1.5956    1.8041 H   0  0  0  0  0  0  0  0  0  0  0  0
    2.8962    1.4385    3.3101 H   0  0  0  0  0  0  0  0  0  0  0  0
    1.0344   -0.7031    0.2562 N   0  0  0  0  0  0  0  0  0  0  0  0
    0.8309   -0.9019   -1.1951 C   0  0  2  0  0  0  0  0  0  0  0  0
    2.0740   -0.8167   -2.1066 C   0  0  0  0  0  0  0  0  0  0  0  0
    2.3115   -1.7320   -2.8857 O   0  0  0  0  0  0  0  0  0  0  0  0
   -0.2417    0.0907   -1.6603 C   0  0  0  0  0  0  0  0  0  0  0  0
    0.2214    1.4445   -1.5392 O   0  0  0  0  0  0  0  0  0  0  0  0
    0.4403   -0.0090    0.7017 H   0  0  0  0  0  0  0  0  0  0  0  0
    0.4358   -1.9140   -1.3306 H   0  0  0  0  0  0  0  0  0  0  0  0
   -1.1537   -0.0436   -1.0693 H   0  0  0  0  0  0  0  0  0  0  0  0
   -0.4911   -0.1153   -2.7071 H   0  0  0  0  0  0  0  0  0  0  0  0
   -0.4231    2.0650   -1.9293 H   0  0  0  0  0  0  0  0  0  0  0  0
    2.8166    0.3514   -2.1490 N   0  0  0  0  0  0  0  0  0  0  0  0
    4.0470    0.6110   -2.9201 C   0  0  2  0  0  0  0  0  0  0  0  0
    3.8489    0.6811   -4.4515 C   0  0  0  0  0  0  0  0  0  0  0  0
    4.1718    1.6959   -5.0563 O   0  0  0  0  0  0  0  0  0  0  0  0
    5.1391   -0.4019   -2.5482 C   0  0  0  0  0  0  0  0  0  0  0  0
    2.4111    1.1229   -1.6221 H   0  0  0  0  0  0  0  0  0  0  0  0
    4.4114    1.5973   -2.6156 H   0  0  0  0  0  0  0  0  0  0  0  0
    4.8864   -1.4059   -2.9013 H   0  0  0  0  0  0  0  0  0  0  0  0
    6.0918   -0.1104   -3.0009 H   0  0  0  0  0  0  0  0  0  0  0  0
    5.2682   -0.4403   -1.4621 H   0  0  0  0  0  0  0  0  0  0  0  0
    3.3090   -0.3788   -5.1517 N   0  0  0  0  0  0  0  0  0  0  0  0
    3.0492   -0.3680   -6.5840 C   0  0  0  0  0  0  0  0  0  0  0  0
    2.9764   -1.1642   -4.5846 H   0  0  0  0  0  0  0  0  0  0  0  0
    2.7019   -1.3531   -6.9102 H   0  0  0  0  0  0  0  0  0  0  0  0
    2.2799    0.3715   -6.8279 H   0  0  0  0  0  0  0  0  0  0  0  0
    3.9620   -0.1247   -7.1378 H   0  0  0  0  0  0  0  0  0  0  0  0
  1  2  2  0  0  0  0
  1  3  1  0  0  0  0
  1  7  1  0  0  0  0
  3  4  1  0  0  0  0
  3  5  1  0  0  0  0
  3  6  1  0  0  0  0
  7  8  1  0  0  0  0
  7 12  1  0  0  0  0
  8  9  1  0  0  0  0
  8 11  1  0  0  0  0
  8 13  1  0  0  0  0
  9 10  2  0  0  0  0
  9 17  1  0  0  0  0
 11 14  1  0  0  0  0
 11 15  1  0  0  0  0
 11 16  1  0  0  0  0
 17 18  1  0  0  0  0
 17 23  1  0  0  0  0
 18 19  1  0  0  0  0
 18 21  1  0  0  0  0
 18 24  1  0  0  0  0
 19 20  2  0  0  0  0
 19 28  1  0  0  0  0
 21 22  1  0  0  0  0
 21 25  1  0  0  0  0
 21 26  1  0  0  0  0
 22 27  1  0  0  0  0
 28 29  1  0  0  0  0
 28 33  1  0  0  0  0
 29 30  1  0  0  0  0
 29 32  1  0  0  0  0
 29 34  1  0  0  0  0
 30 31  2  0  0  0  0
 30 38  1  0  0  0  0
 32 35  1  0  0  0  0
 32 36  1  0  0  0  0
 32 37  1  0  0  0  0
 38 39  1  0  0  0  0
 38 40  1  0  0  0  0
 39 41  1  0  0  0  0
 39 42  1  0  0  0  0
 39 43  1  0  0  0  0
M  END
$$$$

  -OEChem-05262217303D

 43 42  0     1  0  0  0  0  0999 V2000
    3.2077   -1.2062    4.7918 C   0  0  0  0  0  0  0  0  0  0  0  0
    2.3906   -0.5275    5.3934 O   0  0  0  0  0  0  0  0  0  0  0  0
    4.1304   -2.1410    5.5508 C   0  0  0  0  0  0  0  0  0  0  0  0
    5.1720   -1.8664    5.3683 H   0  0  0  0  0  0  0  0  0  0  0  0
    3.9323   -2.0768    6.6242 H   0  0  0  0  0  0  0  0  0  0  0  0
    3.9701   -3.1713    5.2241 H   0  0  0  0  0  0  0  0  0  0  0  0
    3.2890   -1.1292    3.4176 N   0  0  0  0  0  0  0  0  0  0  0  0
    2.3461   -0.3834    2.5738 C   0  0  2  0  0  0  0  0  0  0  0  0
    2.1799   -1.0427    1.1883 C   0  0  0  0  0  0  0  0  0  0  0  0
    2.9369   -1.9420    0.8456 O   0  0  0  0  0  0  0  0  0  0  0  0
    2.8565    1.0545    2.4291 C   0  0  0  0  0  0  0  0  0  0  0  0
    3.8856   -1.8092    2.9466 H   0  0  0  0  0  0  0  0  0  0  0  0
    1.3588   -0.3698    3.0486 H   0  0  0  0  0  0  0  0  0  0  0  0
    3.8424    1.0652    1.9536 H   0  0  0  0  0  0  0  0  0  0  0  0
    2.1688    1.6505    1.8212 H   0  0  0  0  0  0  0  0  0  0  0  0
    2.9402    1.5269    3.4133 H   0  0  0  0  0  0  0  0  0  0  0  0
    1.1619   -0.6364    0.3442 N   0  0  0  0  0  0  0  0  0  0  0  0
    1.0314   -0.9711   -1.0911 C   0  0  2  0  0  0  0  0  0  0  0  0
    2.3161   -1.1998   -1.9116 C   0  0  0  0  0  0  0  0  0  0  0  0
    2.2625   -1.9364   -2.8890 O   0  0  0  0  0  0  0  0  0  0  0  0
    0.2038    0.1374   -1.7565 C   0  0  0  0  0  0  0  0  0  0  0  0
    0.9009    1.3916   -1.7409 O   0  0  0  0  0  0  0  0  0  0  0  0
    0.6329    0.1739    0.6595 H   0  0  0  0  0  0  0  0  0  0  0  0
    0.4675   -1.9068   -1.1577 H   0  0  0  0  0  0  0  0  0  0  0  0
   -0.7470    0.2461   -1.2245 H   0  0  0  0  0  0  0  0  0  0  0  0
   -0.0275   -0.1389   -2.7912 H   0  0  0  0  0  0  0  0  0  0  0  0
    1.4756    1.4817   -2.5458 H   0  0  0  0  0  0  0  0  0  0  0  0
    3.3749   -0.3159   -1.7685 N   0  0  0  0  0  0  0  0  0  0  0  0
    4.2802    0.0532   -2.8679 C   0  0  2  0  0  0  0  0  0  0  0  0
    3.4885    0.6333   -4.0657 C   0  0  0  0  0  0  0  0  0  0  0  0
    2.6169    1.4715   -3.8428 O   0  0  0  0  0  0  0  0  0  0  0  0
    5.2130   -1.1148   -3.2306 C   0  0  0  0  0  0  0  0  0  0  0  0
    3.2103    0.3903   -1.0568 H   0  0  0  0  0  0  0  0  0  0  0  0
    4.9215    0.8640   -2.5096 H   0  0  0  0  0  0  0  0  0  0  0  0
    4.6643   -1.9369   -3.6989 H   0  0  0  0  0  0  0  0  0  0  0  0
    5.9903   -0.7789   -3.9234 H   0  0  0  0  0  0  0  0  0  0  0  0
    5.6995   -1.4980   -2.3282 H   0  0  0  0  0  0  0  0  0  0  0  0
    3.7190    0.2254   -5.3665 N   0  0  0  0  0  0  0  0  0  0  0  0
    2.8738    0.6346   -6.4816 C   0  0  0  0  0  0  0  0  0  0  0  0
    4.2977   -0.6022   -5.4799 H   0  0  0  0  0  0  0  0  0  0  0  0
    3.2581    0.2206   -7.4187 H   0  0  0  0  0  0  0  0  0  0  0  0
    1.8494    0.2751   -6.3376 H   0  0  0  0  0  0  0  0  0  0  0  0
    2.8561    1.7260   -6.5705 H   0  0  0  0  0  0  0  0  0  0  0  0
  1  2  2  0  0  0  0
  1  3  1  0  0  0  0
  1  7  1  0  0  0  0
  3  4  1  0  0  0  0
  3  5  1  0  0  0  0
  3  6  1  0  0  0  0
  7  8  1  0  0  0  0
  7 12  1  0  0  0  0
  8  9  1  0  0  0  0
  8 11  1  0  0  0  0
  8 13  1  0  0  0  0
  9 10  2  0  0  0  0
  9 17  1  0  0  0  0
 11 14  1  0  0  0  0
 11 15  1  0  0  0  0
 11 16  1  0  0  0  0
 17 18  1  0  0  0  0
 17 23  1  0  0  0  0
 18 19  1  0  0  0  0
 18 21  1  0  0  0  0
 18 24  1  0  0  0  0
 19 20  2  0  0  0  0
 19 28  1  0  0  0  0
 21 22  1  0  0  0  0
 21 25  1  0  0  0  0
 21 26  1  0  0  0  0
 22 27  1  0  0  0  0
 28 29  1  0  0  0  0
 28 33  1  0  0  0  0
 29 30  1  0  0  0  0
 29 32  1  0  0  0  0
 29 34  1  0  0  0  0
 30 31  2  0  0  0  0
 30 38  1  0  0  0  0
 32 35  1  0  0  0  0
 32 36  1  0  0  0  0
 32 37  1  0  0  0  0
 38 39  1  0  0  0  0
 38 40  1  0  0  0  0
 39 41  1  0  0  0  0
 39 42  1  0  0  0  0
 39 43  1  0  0  0  0
M  END
$$$$

  -OEChem-05262217303D

 43 42  0     1  0  0  0  0  0999 V2000
    3.2246   -1.3133    4.6978 C   0  0  0  0  0  0  0  0  0  0  0  0
    2.3193   -0.7928    5.3296 O   0  0  0  0  0  0  0  0  0  0  0  0
    4.2425   -2.1902    5.4028 C   0  0  0  0  0  0  0  0  0  0  0  0
    5.2431   -1.7659    5.2892 H   0  0  0  0  0  0  0  0  0  0  0  0
    4.0079   -2.2574    6.4690 H   0  0  0  0  0  0  0  0  0  0  0  0
    4.2299   -3.1960    4.9754 H   0  0  0  0  0  0  0  0  0  0  0  0
    3.3167   -1.1109    3.3370 N   0  0  0  0  0  0  0  0  0  0  0  0
    2.3141   -0.3935    2.5381 C   0  0  2  0  0  0  0  0  0  0  0  0
    2.2310   -0.9414    1.0984 C   0  0  0  0  0  0  0  0  0  0  0  0
    3.1242   -1.6568    0.6642 O   0  0  0  0  0  0  0  0  0  0  0  0
    2.6797    1.0946    2.5260 C   0  0  0  0  0  0  0  0  0  0  0  0
    4.0120   -1.6566    2.8289 H   0  0  0  0  0  0  0  0  0  0  0  0
    1.3246   -0.5178    2.9918 H   0  0  0  0  0  0  0  0  0  0  0  0
    3.6688    1.2430    2.0809 H   0  0  0  0  0  0  0  0  0  0  0  0
    1.9476    1.6685    1.9497 H   0  0  0  0  0  0  0  0  0  0  0  0
    2.6957    1.4883    3.5476 H   0  0  0  0  0  0  0  0  0  0  0  0
    1.1595   -0.6094    0.2895 N   0  0  0  0  0  0  0  0  0  0  0  0
    0.9798   -0.9094   -1.1511 C   0  0  2  0  0  0  0  0  0  0  0  0
    2.2085   -1.0198   -2.0824 C   0  0  0  0  0  0  0  0  0  0  0  0
    2.0496   -1.5387   -3.1801 O   0  0  0  0  0  0  0  0  0  0  0  0
    0.0305    0.1547   -1.7172 C   0  0  0  0  0  0  0  0  0  0  0  0
    0.6367    1.4536   -1.6797 O   0  0  0  0  0  0  0  0  0  0  0  0
    0.5173    0.0756    0.6830 H   0  0  0  0  0  0  0  0  0  0  0  0
    0.4814   -1.8816   -1.2162 H   0  0  0  0  0  0  0  0  0  0  0  0
   -0.8925    0.1692   -1.1283 H   0  0  0  0  0  0  0  0  0  0  0  0
   -0.2432   -0.0947   -2.7483 H   0  0  0  0  0  0  0  0  0  0  0  0
    1.3372    1.5336   -2.3548 H   0  0  0  0  0  0  0  0  0  0  0  0
    3.3610   -0.2926   -1.8321 N   0  0  0  0  0  0  0  0  0  0  0  0
    4.5784   -0.2318   -2.6668 C   0  0  2  0  0  0  0  0  0  0  0  0
    4.4178    0.5528   -3.9890 C   0  0  0  0  0  0  0  0  0  0  0  0
    5.2013    1.4548   -4.2542 O   0  0  0  0  0  0  0  0  0  0  0  0
    5.1502   -1.6334   -2.9202 C   0  0  0  0  0  0  0  0  0  0  0  0
    3.4809   -0.0709   -0.8460 H   0  0  0  0  0  0  0  0  0  0  0  0
    5.3286    0.3147   -2.0857 H   0  0  0  0  0  0  0  0  0  0  0  0
    4.5056   -2.2118   -3.5881 H   0  0  0  0  0  0  0  0  0  0  0  0
    6.1385   -1.5560   -3.3838 H   0  0  0  0  0  0  0  0  0  0  0  0
    5.2522   -2.1777   -1.9764 H   0  0  0  0  0  0  0  0  0  0  0  0
    3.3931    0.2729   -4.8707 N   0  0  0  0  0  0  0  0  0  0  0  0
    3.2025    0.9491   -6.1462 C   0  0  0  0  0  0  0  0  0  0  0  0
    2.7804   -0.5063   -4.6157 H   0  0  0  0  0  0  0  0  0  0  0  0
    2.3214    0.5486   -6.6568 H   0  0  0  0  0  0  0  0  0  0  0  0
    3.0548    2.0231   -5.9928 H   0  0  0  0  0  0  0  0  0  0  0  0
    4.0745    0.8016   -6.7919 H   0  0  0  0  0  0  0  0  0  0  0  0
  1  2  2  0  0  0  0
  1  3  1  0  0  0  0
  1  7  1  0  0  0  0
  3  4  1  0  0  0  0
  3  5  1  0  0  0  0
  3  6  1  0  0  0  0
  7  8  1  0  0  0  0
  7 12  1  0  0  0  0
  8  9  1  0  0  0  0
  8 11  1  0  0  0  0
  8 13  1  0  0  0  0
  9 10  2  0  0  0  0
  9 17  1  0  0  0  0
 11 14  1  0  0  0  0
 11 15  1  0  0  0  0
 11 16  1  0  0  0  0
 17 18  1  0  0  0  0
 17 23  1  0  0  0  0
 18 19  1  0  0  0  0
 18 21  1  0  0  0  0
 18 24  1  0  0  0  0
 19 20  2  0  0  0  0
 19 28  1  0  0  0  0
 21 22  1  0  0  0  0
 21 25  1  0  0  0  0
 21 26  1  0  0  0  0
 22 27  1  0  0  0  0
 28 29  1  0  0  0  0
 28 33  1  0  0  0  0
 29 30  1  0  0  0  0
 29 32  1  0  0  0  0
 29 34  1  0  0  0  0
 30 31  2  0  0  0  0
 30 38  1  0  0  0  0
 32 35  1  0  0  0  0
 32 36  1  0  0  0  0
 32 37  1  0  0  0  0
 38 39  1  0  0  0  0
 38 40  1  0  0  0  0
 39 41  1  0  0  0  0
 39 42  1  0  0  0  0
 39 43  1  0  0  0  0
M  END
$$$$

  -OEChem-05262217303D

 43 42  0     1  0  0  0  0  0999 V2000
    3.2402   -1.1463    4.8481 C   0  0  0  0  0  0  0  0  0  0  0  0
    2.4993   -0.3899    5.4552 O   0  0  0  0  0  0  0  0  0  0  0  0
    4.1294   -2.1160    5.6035 C   0  0  0  0  0  0  0  0  0  0  0  0
    5.1791   -1.9089    5.3810 H   0  0  0  0  0  0  0  0  0  0  0  0
    3.9704   -2.0132    6.6806 H   0  0  0  0  0  0  0  0  0  0  0  0
    3.8978   -3.1428    5.3098 H   0  0  0  0  0  0  0  0  0  0  0  0
    3.2688   -1.1249    3.4699 N   0  0  0  0  0  0  0  0  0  0  0  0
    2.3579   -0.3314    2.6338 C   0  0  2  0  0  0  0  0  0  0  0  0
    2.0972   -1.0098    1.2717 C   0  0  0  0  0  0  0  0  0  0  0  0
    2.7663   -1.9788    0.9360 O   0  0  0  0  0  0  0  0  0  0  0  0
    2.9691    1.0603    2.4342 C   0  0  0  0  0  0  0  0  0  0  0  0
    3.7965   -1.8622    3.0043 H   0  0  0  0  0  0  0  0  0  0  0  0
    1.3899   -0.2310    3.1374 H   0  0  0  0  0  0  0  0  0  0  0  0
    3.9399    0.9858    1.9342 H   0  0  0  0  0  0  0  0  0  0  0  0
    2.3112    1.6886    1.8256 H   0  0  0  0  0  0  0  0  0  0  0  0
    3.1132    1.5526    3.4014 H   0  0  0  0  0  0  0  0  0  0  0  0
    1.1184   -0.5152    0.4312 N   0  0  0  0  0  0  0  0  0  0  0  0
    0.8597   -0.8636   -0.9868 C   0  0  2  0  0  0  0  0  0  0  0  0
    1.9870   -1.3056   -1.9494 C   0  0  0  0  0  0  0  0  0  0  0  0
    1.6756   -1.6283   -3.0899 O   0  0  0  0  0  0  0  0  0  0  0  0
    0.1909    0.3887   -1.5780 C   0  0  0  0  0  0  0  0  0  0  0  0
    1.1008    1.5004   -1.5969 O   0  0  0  0  0  0  0  0  0  0  0  0
    0.7150    0.3697    0.7328 H   0  0  0  0  0  0  0  0  0  0  0  0
    0.1371   -1.6846   -0.9958 H   0  0  0  0  0  0  0  0  0  0  0  0
   -0.6884    0.6512   -0.9808 H   0  0  0  0  0  0  0  0  0  0  0  0
   -0.1584    0.1867   -2.5965 H   0  0  0  0  0  0  0  0  0  0  0  0
    1.8345    1.3765   -2.2525 H   0  0  0  0  0  0  0  0  0  0  0  0
    3.3261   -1.1191   -1.6590 N   0  0  0  0  0  0  0  0  0  0  0  0
    4.3662   -0.8515   -2.6649 C   0  0  2  0  0  0  0  0  0  0  0  0
    3.9704    0.3087   -3.6176 C   0  0  0  0  0  0  0  0  0  0  0  0
    3.3201    1.2575   -3.1832 O   0  0  0  0  0  0  0  0  0  0  0  0
    4.7359   -2.1509   -3.3988 C   0  0  0  0  0  0  0  0  0  0  0  0
    3.5334   -0.9461   -0.6774 H   0  0  0  0  0  0  0  0  0  0  0  0
    5.2616   -0.5151   -2.1340 H   0  0  0  0  0  0  0  0  0  0  0  0
    3.9210   -2.4821   -4.0496 H   0  0  0  0  0  0  0  0  0  0  0  0
    5.6312   -2.0039   -4.0100 H   0  0  0  0  0  0  0  0  0  0  0  0
    4.9431   -2.9455   -2.6752 H   0  0  0  0  0  0  0  0  0  0  0  0
    4.3632    0.3232   -4.9440 N   0  0  0  0  0  0  0  0  0  0  0  0
    3.9218    1.3416   -5.8895 C   0  0  0  0  0  0  0  0  0  0  0  0
    4.7607   -0.5370   -5.3094 H   0  0  0  0  0  0  0  0  0  0  0  0
    4.3806    1.1731   -6.8685 H   0  0  0  0  0  0  0  0  0  0  0  0
    2.8333    1.3100   -6.0054 H   0  0  0  0  0  0  0  0  0  0  0  0
    4.2105    2.3394   -5.5427 H   0  0  0  0  0  0  0  0  0  0  0  0
  1  2  2  0  0  0  0
  1  3  1  0  0  0  0
  1  7  1  0  0  0  0
  3  4  1  0  0  0  0
  3  5  1  0  0  0  0
  3  6  1  0  0  0  0
  7  8  1  0  0  0  0
  7 12  1  0  0  0  0
  8  9  1  0  0  0  0
  8 11  1  0  0  0  0
  8 13  1  0  0  0  0
  9 10  2  0  0  0  0
  9 17  1  0  0  0  0
 11 14  1  0  0  0  0
 11 15  1  0  0  0  0
 11 16  1  0  0  0  0
 17 18  1  0  0  0  0
 17 23  1  0  0  0  0
 18 19  1  0  0  0  0
 18 21  1  0  0  0  0
 18 24  1  0  0  0  0
 19 20  2  0  0  0  0
 19 28  1  0  0  0  0
 21 22  1  0  0  0  0
 21 25  1  0  0  0  0
 21 26  1  0  0  0  0
 22 27  1  0  0  0  0
 28 29  1  0  0  0  0
 28 33  1  0  0  0  0
 29 30  1  0  0  0  0
 29 32  1  0  0  0  0
 29 34  1  0  0  0  0
 30 31  2  0  0  0  0
 30 38  1  0  0  0  0
 32 35  1  0  0  0  0
 32 36  1  0  0  0  0
 32 37  1  0  0  0  0
 38 39  1  0  0  0  0
 38 40  1  0  0  0  0
 39 41  1  0  0  0  0
 39 42  1  0  0  0  0
 39 43  1  0  0  0  0
M  END
$$$$

  -OEChem-05262217303D

 43 42  0     1  0  0  0  0  0999 V2000
    3.3075   -1.0632    4.8155 C   0  0  0  0  0  0  0  0  0  0  0  0
    2.6753   -0.1834    5.3775 O   0  0  0  0  0  0  0  0  0  0  0  0
    4.1123   -2.0611    5.6262 C   0  0  0  0  0  0  0  0  0  0  0  0
    5.1682   -1.9988    5.3516 H   0  0  0  0  0  0  0  0  0  0  0  0
    4.0126   -1.8469    6.6941 H   0  0  0  0  0  0  0  0  0  0  0  0
    3.7520   -3.0748    5.4351 H   0  0  0  0  0  0  0  0  0  0  0  0
    3.2877   -1.1556    3.4399 N   0  0  0  0  0  0  0  0  0  0  0  0
    2.4468   -0.3256    2.5667 C   0  0  2  0  0  0  0  0  0  0  0  0
    2.0522   -1.0686    1.2731 C   0  0  0  0  0  0  0  0  0  0  0  0
    2.6081   -2.1199    0.9790 O   0  0  0  0  0  0  0  0  0  0  0  0
    3.2126    0.9591    2.2313 C   0  0  0  0  0  0  0  0  0  0  0  0
    3.7198   -1.9779    3.0209 H   0  0  0  0  0  0  0  0  0  0  0  0
    1.5190   -0.0663    3.0889 H   0  0  0  0  0  0  0  0  0  0  0  0
    4.1399    0.7256    1.6988 H   0  0  0  0  0  0  0  0  0  0  0  0
    2.6064    1.6178    1.6015 H   0  0  0  0  0  0  0  0  0  0  0  0
    3.4650    1.5005    3.1488 H   0  0  0  0  0  0  0  0  0  0  0  0
    1.0696   -0.5448    0.4557 N   0  0  0  0  0  0  0  0  0  0  0  0
    0.7539   -0.8843   -0.9533 C   0  0  2  0  0  0  0  0  0  0  0  0
    1.8213   -1.3697   -1.9671 C   0  0  0  0  0  0  0  0  0  0  0  0
    1.4955   -1.4824   -3.1433 O   0  0  0  0  0  0  0  0  0  0  0  0
    0.1316    0.4145   -1.4956 C   0  0  0  0  0  0  0  0  0  0  0  0
    1.1038    1.4735   -1.5252 O   0  0  0  0  0  0  0  0  0  0  0  0
    0.7673    0.3882    0.7315 H   0  0  0  0  0  0  0  0  0  0  0  0
   -0.0093   -1.6678   -0.9415 H   0  0  0  0  0  0  0  0  0  0  0  0
   -0.7109    0.7129   -0.8628 H   0  0  0  0  0  0  0  0  0  0  0  0
   -0.2660    0.2547   -2.5035 H   0  0  0  0  0  0  0  0  0  0  0  0
    1.8717    1.2693   -2.1159 H   0  0  0  0  0  0  0  0  0  0  0  0
    3.1571   -1.5259   -1.6486 N   0  0  0  0  0  0  0  0  0  0  0  0
    4.2574   -1.2737   -2.5939 C   0  0  2  0  0  0  0  0  0  0  0  0
    4.1048    0.0823   -3.3374 C   0  0  0  0  0  0  0  0  0  0  0  0
    3.5376    1.0250   -2.7879 O   0  0  0  0  0  0  0  0  0  0  0  0
    4.4147   -2.4735   -3.5422 C   0  0  0  0  0  0  0  0  0  0  0  0
    3.3616   -1.5172   -0.6491 H   0  0  0  0  0  0  0  0  0  0  0  0
    5.1807   -1.1977   -2.0123 H   0  0  0  0  0  0  0  0  0  0  0  0
    3.5813   -2.5291   -4.2494 H   0  0  0  0  0  0  0  0  0  0  0  0
    5.3465   -2.3954   -4.1099 H   0  0  0  0  0  0  0  0  0  0  0  0
    4.4419   -3.4047   -2.9678 H   0  0  0  0  0  0  0  0  0  0  0  0
    4.6409    0.2757   -4.5982 N   0  0  0  0  0  0  0  0  0  0  0  0
    4.4387    1.4974   -5.3684 C   0  0  0  0  0  0  0  0  0  0  0  0
    4.9841   -0.5496   -5.0801 H   0  0  0  0  0  0  0  0  0  0  0  0
    4.9933    1.4462   -6.3104 H   0  0  0  0  0  0  0  0  0  0  0  0
    3.3764    1.6339   -5.5971 H   0  0  0  0  0  0  0  0  0  0  0  0
    4.7938    2.3693   -4.8086 H   0  0  0  0  0  0  0  0  0  0  0  0
  1  2  2  0  0  0  0
  1  3  1  0  0  0  0
  1  7  1  0  0  0  0
  3  4  1  0  0  0  0
  3  5  1  0  0  0  0
  3  6  1  0  0  0  0
  7  8  1  0  0  0  0
  7 12  1  0  0  0  0
  8  9  1  0  0  0  0
  8 11  1  0  0  0  0
  8 13  1  0  0  0  0
  9 10  2  0  0  0  0
  9 17  1  0  0  0  0
 11 14  1  0  0  0  0
 11 15  1  0  0  0  0
 11 16  1  0  0  0  0
 17 18  1  0  0  0  0
 17 23  1  0  0  0  0
 18 19  1  0  0  0  0
 18 21  1  0  0  0  0
 18 24  1  0  0  0  0
 19 20  2  0  0  0  0
 19 28  1  0  0  0  0
 21 22  1  0  0  0  0
 21 25  1  0  0  0  0
 21 26  1  0  0  0  0
 22 27  1  0  0  0  0
 28 29  1  0  0  0  0
 28 33  1  0  0  0  0
 29 30  1  0  0  0  0
 29 32  1  0  0  0  0
 29 34  1  0  0  0  0
 30 31  2  0  0  0  0
 30 38  1  0  0  0  0
 32 35  1  0  0  0  0
 32 36  1  0  0  0  0
 32 37  1  0  0  0  0
 38 39  1  0  0  0  0
 38 40  1  0  0  0  0
 39 41  1  0  0  0  0
 39 42  1  0  0  0  0
 39 43  1  0  0  0  0
M  END
$$$$

  -OEChem-05262217303D

 43 42  0     1  0  0  0  0  0999 V2000
    3.7220   -1.4039    4.6426 C   0  0  0  0  0  0  0  0  0  0  0  0
    3.1968   -0.5418    5.3286 O   0  0  0  0  0  0  0  0  0  0  0  0
    4.5619   -2.4891    5.2892 C   0  0  0  0  0  0  0  0  0  0  0  0
    5.5786   -2.4613    4.8896 H   0  0  0  0  0  0  0  0  0  0  0  0
    4.6050   -2.3378    6.3715 H   0  0  0  0  0  0  0  0  0  0  0  0
    4.1251   -3.4702    5.0877 H   0  0  0  0  0  0  0  0  0  0  0  0
    3.5471   -1.3959    3.2748 N   0  0  0  0  0  0  0  0  0  0  0  0
    2.6679   -0.4625    2.5573 C   0  0  2  0  0  0  0  0  0  0  0  0
    2.1187   -1.0742    1.2511 C   0  0  0  0  0  0  0  0  0  0  0  0
    2.5335   -2.1581    0.8579 O   0  0  0  0  0  0  0  0  0  0  0  0
    3.4584    0.8162    2.2557 C   0  0  0  0  0  0  0  0  0  0  0  0
    3.8959   -2.2000    2.7549 H   0  0  0  0  0  0  0  0  0  0  0  0
    1.8071   -0.2134    3.1880 H   0  0  0  0  0  0  0  0  0  0  0  0
    4.3211    0.5929    1.6199 H   0  0  0  0  0  0  0  0  0  0  0  0
    2.8282    1.5495    1.7431 H   0  0  0  0  0  0  0  0  0  0  0  0
    3.8194    1.2672    3.1856 H   0  0  0  0  0  0  0  0  0  0  0  0
    1.1131   -0.4300    0.5556 N   0  0  0  0  0  0  0  0  0  0  0  0
    0.7341   -0.5606   -0.8738 C   0  0  2  0  0  0  0  0  0  0  0  0
    1.7777   -0.9075   -1.9781 C   0  0  0  0  0  0  0  0  0  0  0  0
    1.5147   -0.6031   -3.1360 O   0  0  0  0  0  0  0  0  0  0  0  0
    0.0154    0.7577   -1.2071 C   0  0  0  0  0  0  0  0  0  0  0  0
    0.9328    1.8553   -1.1301 O   0  0  0  0  0  0  0  0  0  0  0  0
    0.8741    0.4771    0.9541 H   0  0  0  0  0  0  0  0  0  0  0  0
   -0.0010   -1.3685   -0.9317 H   0  0  0  0  0  0  0  0  0  0  0  0
   -0.7988    0.9180   -0.4921 H   0  0  0  0  0  0  0  0  0  0  0  0
   -0.4384    0.7155   -2.2033 H   0  0  0  0  0  0  0  0  0  0  0  0
    1.5276    1.8518   -1.9042 H   0  0  0  0  0  0  0  0  0  0  0  0
    3.0411   -1.4094   -1.7182 N   0  0  0  0  0  0  0  0  0  0  0  0
    4.1070   -1.7506   -2.6828 C   0  0  2  0  0  0  0  0  0  0  0  0
    4.7498   -0.5403   -3.3979 C   0  0  0  0  0  0  0  0  0  0  0  0
    5.9641   -0.3917   -3.3615 O   0  0  0  0  0  0  0  0  0  0  0  0
    3.6286   -2.7994   -3.6966 C   0  0  0  0  0  0  0  0  0  0  0  0
    3.1628   -1.7567   -0.7650 H   0  0  0  0  0  0  0  0  0  0  0  0
    4.9119   -2.2161   -2.1045 H   0  0  0  0  0  0  0  0  0  0  0  0
    2.8838   -2.3829   -4.3806 H   0  0  0  0  0  0  0  0  0  0  0  0
    4.4749   -3.1562   -4.2921 H   0  0  0  0  0  0  0  0  0  0  0  0
    3.1860   -3.6547   -3.1773 H   0  0  0  0  0  0  0  0  0  0  0  0
    3.9814    0.3739   -4.0907 N   0  0  0  0  0  0  0  0  0  0  0  0
    4.5252    1.5007   -4.8356 C   0  0  0  0  0  0  0  0  0  0  0  0
    2.9750    0.1910   -4.1090 H   0  0  0  0  0  0  0  0  0  0  0  0
    5.1165    2.1458   -4.1776 H   0  0  0  0  0  0  0  0  0  0  0  0
    5.1649    1.1466   -5.6507 H   0  0  0  0  0  0  0  0  0  0  0  0
    3.7137    2.0957   -5.2651 H   0  0  0  0  0  0  0  0  0  0  0  0
  1  2  2  0  0  0  0
  1  3  1  0  0  0  0
  1  7  1  0  0  0  0
  3  4  1  0  0  0  0
  3  5  1  0  0  0  0
  3  6  1  0  0  0  0
  7  8  1  0  0  0  0
  7 12  1  0  0  0  0
  8  9  1  0  0  0  0
  8 11  1  0  0  0  0
  8 13  1  0  0  0  0
  9 10  2  0  0  0  0
  9 17  1  0  0  0  0
 11 14  1  0  0  0  0
 11 15  1  0  0  0  0
 11 16  1  0  0  0  0
 17 18  1  0  0  0  0
 17 23  1  0  0  0  0
 18 19  1  0  0  0  0
 18 21  1  0  0  0  0
 18 24  1  0  0  0  0
 19 20  2  0  0  0  0
 19 28  1  0  0  0  0
 21 22  1  0  0  0  0
 21 25  1  0  0  0  0
 21 26  1  0  0  0  0
 22 27  1  0  0  0  0
 28 29  1  0  0  0  0
 28 33  1  0  0  0  0
 29 30  1  0  0  0  0
 29 32  1  0  0  0  0
 29 34  1  0  0  0  0
 30 31  2  0  0  0  0
 30 38  1  0  0  0  0
 32 35  1  0  0  0  0
 32 36  1  0  0  0  0
 32 37  1  0  0  0  0
 38 39  1  0  0  0  0
 38 40  1  0  0  0  0
 39 41  1  0  0  0  0
 39 42  1  0  0  0  0
 39 43  1  0  0  0  0
M  END
$$$$

  -OEChem-05262217303D

 43 42  0     1  0  0  0  0  0999 V2000
    3.7458   -1.5242    4.1542 C   0  0  0  0  0  0  0  0  0  0  0  0
    3.5666   -0.4997    4.7928 O   0  0  0  0  0  0  0  0  0  0  0  0
    4.3423   -2.7463    4.8262 C   0  0  0  0  0  0  0  0  0  0  0  0
    5.2329   -3.0731    4.2841 H   0  0  0  0  0  0  0  0  0  0  0  0
    4.6239   -2.5107    5.8563 H   0  0  0  0  0  0  0  0  0  0  0  0
    3.6116   -3.5587    4.8375 H   0  0  0  0  0  0  0  0  0  0  0  0
    3.3913   -1.5819    2.8231 N   0  0  0  0  0  0  0  0  0  0  0  0
    2.6265   -0.5373    2.1290 C   0  0  2  0  0  0  0  0  0  0  0  0
    1.7959   -1.1228    0.9672 C   0  0  0  0  0  0  0  0  0  0  0  0
    1.8818   -2.3129    0.6886 O   0  0  0  0  0  0  0  0  0  0  0  0
    3.5982    0.5335    1.6172 C   0  0  0  0  0  0  0  0  0  0  0  0
    3.4080   -2.5005    2.3811 H   0  0  0  0  0  0  0  0  0  0  0  0
    1.9212   -0.0748    2.8281 H   0  0  0  0  0  0  0  0  0  0  0  0
    4.3371    0.0941    0.9407 H   0  0  0  0  0  0  0  0  0  0  0  0
    3.0598    1.3203    1.0795 H   0  0  0  0  0  0  0  0  0  0  0  0
    4.1288    0.9947    2.4563 H   0  0  0  0  0  0  0  0  0  0  0  0
    0.8648   -0.3382    0.3215 N   0  0  0  0  0  0  0  0  0  0  0  0
    0.3886   -0.4986   -1.0686 C   0  0  2  0  0  0  0  0  0  0  0  0
    1.2357   -1.0743   -2.2406 C   0  0  0  0  0  0  0  0  0  0  0  0
    0.7564   -1.0616   -3.3640 O   0  0  0  0  0  0  0  0  0  0  0  0
   -0.1024    0.9127   -1.4308 C   0  0  0  0  0  0  0  0  0  0  0  0
    0.9869    1.8499   -1.4639 O   0  0  0  0  0  0  0  0  0  0  0  0
    0.8858    0.6339    0.6261 H   0  0  0  0  0  0  0  0  0  0  0  0
   -0.4797   -1.1622   -1.0214 H   0  0  0  0  0  0  0  0  0  0  0  0
   -0.8483    1.2480   -0.7023 H   0  0  0  0  0  0  0  0  0  0  0  0
   -0.5953    0.8967   -2.4086 H   0  0  0  0  0  0  0  0  0  0  0  0
    1.7867    1.4947   -1.9213 H   0  0  0  0  0  0  0  0  0  0  0  0
    2.2546   -1.9972   -2.2205 N   0  0  0  0  0  0  0  0  0  0  0  0
    3.6191   -1.5660   -1.8703 C   0  0  2  0  0  0  0  0  0  0  0  0
    4.0137   -0.1931   -2.4768 C   0  0  0  0  0  0  0  0  0  0  0  0
    3.4656    0.8213   -2.0584 O   0  0  0  0  0  0  0  0  0  0  0  0
    4.5581   -2.6938   -2.3141 C   0  0  0  0  0  0  0  0  0  0  0  0
    2.2069   -2.5330   -3.0825 H   0  0  0  0  0  0  0  0  0  0  0  0
    3.7216   -1.4697   -0.7896 H   0  0  0  0  0  0  0  0  0  0  0  0
    4.4892   -2.8586   -3.3941 H   0  0  0  0  0  0  0  0  0  0  0  0
    5.5946   -2.4521   -2.0583 H   0  0  0  0  0  0  0  0  0  0  0  0
    4.2893   -3.6252   -1.8048 H   0  0  0  0  0  0  0  0  0  0  0  0
    4.9364   -0.0762   -3.5009 N   0  0  0  0  0  0  0  0  0  0  0  0
    5.2398    1.1870   -4.1639 C   0  0  0  0  0  0  0  0  0  0  0  0
    5.3113   -0.9349   -3.8929 H   0  0  0  0  0  0  0  0  0  0  0  0
    4.3497    1.5786   -4.6679 H   0  0  0  0  0  0  0  0  0  0  0  0
    5.5891    1.9289   -3.4379 H   0  0  0  0  0  0  0  0  0  0  0  0
    6.0256    1.0419   -4.9115 H   0  0  0  0  0  0  0  0  0  0  0  0
  1  2  2  0  0  0  0
  1  3  1  0  0  0  0
  1  7  1  0  0  0  0
  3  4  1  0  0  0  0
  3  5  1  0  0  0  0
  3  6  1  0  0  0  0
  7  8  1  0  0  0  0
  7 12  1  0  0  0  0
  8  9  1  0  0  0  0
  8 11  1  0  0  0  0
  8 13  1  0  0  0  0
  9 10  2  0  0  0  0
  9 17  1  0  0  0  0
 11 14  1  0  0  0  0
 11 15  1  0  0  0  0
 11 16  1  0  0  0  0
 17 18  1  0  0  0  0
 17 23  1  0  0  0  0
 18 19  1  0  0  0  0
 18 21  1  0  0  0  0
 18 24  1  0  0  0  0
 19 20  2  0  0  0  0
 19 28  1  0  0  0  0
 21 22  1  0  0  0  0
 21 25  1  0  0  0  0
 21 26  1  0  0  0  0
 22 27  1  0  0  0  0
 28 29  1  0  0  0  0
 28 33  1  0  0  0  0
 29 30  1  0  0  0  0
 29 32  1  0  0  0  0
 29 34  1  0  0  0  0
 30 31  2  0  0  0  0
 30 38  1  0  0  0  0
 32 35  1  0  0  0  0
 32 36  1  0  0  0  0
 32 37  1  0  0  0  0
 38 39  1  0  0  0  0
 38 40  1  0  0  0  0
 39 41  1  0  0  0  0
 39 42  1  0  0  0  0
 39 43  1  0  0  0  0
M  END
$$$$

  -OEChem-05262217303D

 43 42  0     1  0  0  0  0  0999 V2000
    3.7950   -1.3721    4.1590 C   0  0  0  0  0  0  0  0  0  0  0  0
    3.6186   -0.3120    4.7377 O   0  0  0  0  0  0  0  0  0  0  0  0
    4.4048   -2.5488    4.8974 C   0  0  0  0  0  0  0  0  0  0  0  0
    5.3429   -2.8425    4.4203 H   0  0  0  0  0  0  0  0  0  0  0  0
    4.6084   -2.2770    5.9371 H   0  0  0  0  0  0  0  0  0  0  0  0
    3.7154   -3.3965    4.8841 H   0  0  0  0  0  0  0  0  0  0  0  0
    3.4300   -1.5085    2.8364 N   0  0  0  0  0  0  0  0  0  0  0  0
    2.6742   -0.4995    2.0814 C   0  0  2  0  0  0  0  0  0  0  0  0
    1.8159   -1.1440    0.9720 C   0  0  0  0  0  0  0  0  0  0  0  0
    1.8970   -2.3471    0.7531 O   0  0  0  0  0  0  0  0  0  0  0  0
    3.6600    0.5106    1.4848 C   0  0  0  0  0  0  0  0  0  0  0  0
    3.4478   -2.4497    2.4454 H   0  0  0  0  0  0  0  0  0  0  0  0
    1.9891    0.0254    2.7562 H   0  0  0  0  0  0  0  0  0  0  0  0
    4.3718    0.0084    0.8228 H   0  0  0  0  0  0  0  0  0  0  0  0
    3.1293    1.2751    0.9084 H   0  0  0  0  0  0  0  0  0  0  0  0
    4.2201    1.0102    2.2815 H   0  0  0  0  0  0  0  0  0  0  0  0
    0.8256   -0.4143    0.3500 N   0  0  0  0  0  0  0  0  0  0  0  0
    0.3359   -0.6081   -1.0316 C   0  0  2  0  0  0  0  0  0  0  0  0
    1.2267   -1.1364   -2.1939 C   0  0  0  0  0  0  0  0  0  0  0  0
    0.8692   -0.9477   -3.3473 O   0  0  0  0  0  0  0  0  0  0  0  0
   -0.1927    0.7902   -1.3949 C   0  0  0  0  0  0  0  0  0  0  0  0
    0.8911    1.7333   -1.4464 O   0  0  0  0  0  0  0  0  0  0  0  0
    0.8359    0.5668    0.6262 H   0  0  0  0  0  0  0  0  0  0  0  0
   -0.5058   -1.3044   -0.9819 H   0  0  0  0  0  0  0  0  0  0  0  0
   -0.9282    1.1190   -0.6529 H   0  0  0  0  0  0  0  0  0  0  0  0
   -0.7055    0.7645   -2.3622 H   0  0  0  0  0  0  0  0  0  0  0  0
    1.6464    1.3980   -1.9776 H   0  0  0  0  0  0  0  0  0  0  0  0
    2.1138   -2.1847   -2.1966 N   0  0  0  0  0  0  0  0  0  0  0  0
    3.5328   -1.8892   -1.9115 C   0  0  2  0  0  0  0  0  0  0  0  0
    4.0173   -0.4927   -2.3989 C   0  0  0  0  0  0  0  0  0  0  0  0
    3.5611    0.5209   -1.8782 O   0  0  0  0  0  0  0  0  0  0  0  0
    4.3412   -3.0346   -2.5331 C   0  0  0  0  0  0  0  0  0  0  0  0
    1.9916   -2.6835   -3.0732 H   0  0  0  0  0  0  0  0  0  0  0  0
    3.7130   -1.9173   -0.8359 H   0  0  0  0  0  0  0  0  0  0  0  0
    4.2022   -3.0675   -3.6185 H   0  0  0  0  0  0  0  0  0  0  0  0
    5.4071   -2.9126   -2.3158 H   0  0  0  0  0  0  0  0  0  0  0  0
    4.0167   -3.9926   -2.1135 H   0  0  0  0  0  0  0  0  0  0  0  0
    4.9438   -0.3493   -3.4164 N   0  0  0  0  0  0  0  0  0  0  0  0
    5.3600    0.9452   -3.9442 C   0  0  0  0  0  0  0  0  0  0  0  0
    5.2531   -1.1925   -3.8903 H   0  0  0  0  0  0  0  0  0  0  0  0
    4.4983    1.4924   -4.3414 H   0  0  0  0  0  0  0  0  0  0  0  0
    5.8288    1.5475   -3.1587 H   0  0  0  0  0  0  0  0  0  0  0  0
    6.0850    0.8090   -4.7526 H   0  0  0  0  0  0  0  0  0  0  0  0
  1  2  2  0  0  0  0
  1  3  1  0  0  0  0
  1  7  1  0  0  0  0
  3  4  1  0  0  0  0
  3  5  1  0  0  0  0
  3  6  1  0  0  0  0
  7  8  1  0  0  0  0
  7 12  1  0  0  0  0
  8  9  1  0  0  0  0
  8 11  1  0  0  0  0
  8 13  1  0  0  0  0
  9 10  2  0  0  0  0
  9 17  1  0  0  0  0
 11 14  1  0  0  0  0
 11 15  1  0  0  0  0
 11 16  1  0  0  0  0
 17 18  1  0  0  0  0
 17 23  1  0  0  0  0
 18 19  1  0  0  0  0
 18 21  1  0  0  0  0
 18 24  1  0  0  0  0
 19 20  2  0  0  0  0
 19 28  1  0  0  0  0
 21 22  1  0  0  0  0
 21 25  1  0  0  0  0
 21 26  1  0  0  0  0
 22 27  1  0  0  0  0
 28 29  1  0  0  0  0
 28 33  1  0  0  0  0
 29 30  1  0  0  0  0
 29 32  1  0  0  0  0
 29 34  1  0  0  0  0
 30 31  2  0  0  0  0
 30 38  1  0  0  0  0
 32 35  1  0  0  0  0
 32 36  1  0  0  0  0
 32 37  1  0  0  0  0
 38 39  1  0  0  0  0
 38 40  1  0  0  0  0
 39 41  1  0  0  0  0
 39 42  1  0  0  0  0
 39 43  1  0  0  0  0
M  END
$$$$

  -OEChem-05262217303D

 43 42  0     1  0  0  0  0  0999 V2000
    4.1109   -1.4736    3.2823 C   0  0  0  0  0  0  0  0  0  0  0  0
    3.5120   -1.2184    4.3162 O   0  0  0  0  0  0  0  0  0  0  0  0
    5.2402   -2.4860    3.2874 C   0  0  0  0  0  0  0  0  0  0  0  0
    6.1747   -2.0029    2.9919 H   0  0  0  0  0  0  0  0  0  0  0  0
    5.3620   -2.9129    4.2866 H   0  0  0  0  0  0  0  0  0  0  0  0
    5.0183   -3.2913    2.5825 H   0  0  0  0  0  0  0  0  0  0  0  0
    3.7774   -0.8415    2.1040 N   0  0  0  0  0  0  0  0  0  0  0  0
    2.5467   -0.0578    1.9162 C   0  0  2  0  0  0  0  0  0  0  0  0
    1.4762   -0.8355    1.1139 C   0  0  0  0  0  0  0  0  0  0  0  0
    1.4392   -2.0604    1.1176 O   0  0  0  0  0  0  0  0  0  0  0  0
    2.9548    1.2443    1.2164 C   0  0  0  0  0  0  0  0  0  0  0  0
    4.2445   -1.2070    1.2683 H   0  0  0  0  0  0  0  0  0  0  0  0
    2.1025    0.1990    2.8837 H   0  0  0  0  0  0  0  0  0  0  0  0
    3.3073    1.0393    0.2009 H   0  0  0  0  0  0  0  0  0  0  0  0
    2.1097    1.9371    1.1607 H   0  0  0  0  0  0  0  0  0  0  0  0
    3.7601    1.7353    1.7723 H   0  0  0  0  0  0  0  0  0  0  0  0
    0.5647   -0.1815    0.3045 N   0  0  0  0  0  0  0  0  0  0  0  0
    0.2751   -0.5727   -1.0941 C   0  0  2  0  0  0  0  0  0  0  0  0
    1.4279   -1.2268   -1.9136 C   0  0  0  0  0  0  0  0  0  0  0  0
    1.9322   -0.6170   -2.8543 O   0  0  0  0  0  0  0  0  0  0  0  0
   -0.2725    0.6903   -1.7751 C   0  0  0  0  0  0  0  0  0  0  0  0
    0.7513    1.6884   -1.8461 O   0  0  0  0  0  0  0  0  0  0  0  0
    0.6048    0.8302    0.4200 H   0  0  0  0  0  0  0  0  0  0  0  0
   -0.5293   -1.3143   -1.0709 H   0  0  0  0  0  0  0  0  0  0  0  0
   -1.1271    1.0780   -1.2104 H   0  0  0  0  0  0  0  0  0  0  0  0
   -0.6239    0.4489   -2.7841 H   0  0  0  0  0  0  0  0  0  0  0  0
    1.4669    1.3561   -2.4294 H   0  0  0  0  0  0  0  0  0  0  0  0
    2.0184   -2.4090   -1.5024 N   0  0  0  0  0  0  0  0  0  0  0  0
    3.3739   -2.8593   -1.8608 C   0  0  2  0  0  0  0  0  0  0  0  0
    4.4625   -1.8345   -1.4625 C   0  0  0  0  0  0  0  0  0  0  0  0
    4.9692   -1.8872   -0.3465 O   0  0  0  0  0  0  0  0  0  0  0  0
    3.4552   -3.2754   -3.3378 C   0  0  0  0  0  0  0  0  0  0  0  0
    1.6806   -2.7244   -0.5861 H   0  0  0  0  0  0  0  0  0  0  0  0
    3.5788   -3.7595   -1.2717 H   0  0  0  0  0  0  0  0  0  0  0  0
    3.3046   -2.4251   -4.0082 H   0  0  0  0  0  0  0  0  0  0  0  0
    4.4373   -3.7089   -3.5508 H   0  0  0  0  0  0  0  0  0  0  0  0
    2.6905   -4.0263   -3.5582 H   0  0  0  0  0  0  0  0  0  0  0  0
    4.7900   -0.7846   -2.2982 N   0  0  0  0  0  0  0  0  0  0  0  0
    5.7098    0.2841   -1.9301 C   0  0  0  0  0  0  0  0  0  0  0  0
    4.1331   -0.6223   -3.0626 H   0  0  0  0  0  0  0  0  0  0  0  0
    5.8718    0.9510   -2.7825 H   0  0  0  0  0  0  0  0  0  0  0  0
    5.3069    0.8721   -1.0999 H   0  0  0  0  0  0  0  0  0  0  0  0
    6.6786   -0.1296   -1.6309 H   0  0  0  0  0  0  0  0  0  0  0  0
  1  2  2  0  0  0  0
  1  3  1  0  0  0  0
  1  7  1  0  0  0  0
  3  4  1  0  0  0  0
  3  5  1  0  0  0  0
  3  6  1  0  0  0  0
  7  8  1  0  0  0  0
  7 12  1  0  0  0  0
  8  9  1  0  0  0  0
  8 11  1  0  0  0  0
  8 13  1  0  0  0  0
  9 10  2  0  0  0  0
  9 17  1  0  0  0  0
 11 14  1  0  0  0  0
 11 15  1  0  0  0  0
 11 16  1  0  0  0  0
 17 18  1  0  0  0  0
 17 23  1  0  0  0  0
 18 19  1  0  0  0  0
 18 21  1  0  0  0  0
 18 24  1  0  0  0  0
 19 20  2  0  0  0  0
 19 28  1  0  0  0  0
 21 22  1  0  0  0  0
 21 25  1  0  0  0  0
 21 26  1  0  0  0  0
 22 27  1  0  0  0  0
 28 29  1  0  0  0  0
 28 33  1  0  0  0  0
 29 30  1  0  0  0  0
 29 32  1  0  0  0  0
 29 34  1  0  0  0  0
 30 31  2  0  0  0  0
 30 38  1  0  0  0  0
 32 35  1  0  0  0  0
 32 36  1  0  0  0  0
 32 37  1  0  0  0  0
 38 39  1  0  0  0  0
 38 40  1  0  0  0  0
 39 41  1  0  0  0  0
 39 42  1  0  0  0  0
 39 43  1  0  0  0  0
M  END
$$$$

  -OEChem-05262217303D

 43 42  0     1  0  0  0  0  0999 V2000
    4.5506   -1.1909    2.9369 C   0  0  0  0  0  0  0  0  0  0  0  0
    4.4311   -0.4149    3.8729 O   0  0  0  0  0  0  0  0  0  0  0  0
    5.6863   -2.1960    2.9136 C   0  0  0  0  0  0  0  0  0  0  0  0
    6.2900   -2.0549    2.0137 H   0  0  0  0  0  0  0  0  0  0  0  0
    6.3238   -2.0677    3.7924 H   0  0  0  0  0  0  0  0  0  0  0  0
    5.2833   -3.2118    2.9124 H   0  0  0  0  0  0  0  0  0  0  0  0
    3.6603   -1.1466    1.8875 N   0  0  0  0  0  0  0  0  0  0  0  0
    2.4581   -0.3000    1.8447 C   0  0  2  0  0  0  0  0  0  0  0  0
    1.3489   -0.9367    0.9772 C   0  0  0  0  0  0  0  0  0  0  0  0
    1.2593   -2.1543    0.8671 O   0  0  0  0  0  0  0  0  0  0  0  0
    2.8686    1.0854    1.3235 C   0  0  0  0  0  0  0  0  0  0  0  0
    3.7768   -1.8691    1.1691 H   0  0  0  0  0  0  0  0  0  0  0  0
    2.0503   -0.1920    2.8558 H   0  0  0  0  0  0  0  0  0  0  0  0
    3.2086    1.0200    0.2852 H   0  0  0  0  0  0  0  0  0  0  0  0
    2.0288    1.7846    1.3746 H   0  0  0  0  0  0  0  0  0  0  0  0
    3.6829    1.4934    1.9308 H   0  0  0  0  0  0  0  0  0  0  0  0
    0.4692   -0.1746    0.2283 N   0  0  0  0  0  0  0  0  0  0  0  0
    0.1956   -0.4669   -1.1953 C   0  0  2  0  0  0  0  0  0  0  0  0
    1.3624   -1.1076   -1.9993 C   0  0  0  0  0  0  0  0  0  0  0  0
    2.0631   -0.4119   -2.7316 O   0  0  0  0  0  0  0  0  0  0  0  0
   -0.2901    0.8492   -1.8200 C   0  0  0  0  0  0  0  0  0  0  0  0
    0.7653    1.8159   -1.8176 O   0  0  0  0  0  0  0  0  0  0  0  0
    0.5657    0.8236    0.4104 H   0  0  0  0  0  0  0  0  0  0  0  0
   -0.6328   -1.1803   -1.2392 H   0  0  0  0  0  0  0  0  0  0  0  0
   -1.1471    1.2363   -1.2588 H   0  0  0  0  0  0  0  0  0  0  0  0
   -0.6200    0.6699   -2.8489 H   0  0  0  0  0  0  0  0  0  0  0  0
    1.5141    1.4610   -2.3455 H   0  0  0  0  0  0  0  0  0  0  0  0
    1.6846   -2.4416   -1.8165 N   0  0  0  0  0  0  0  0  0  0  0  0
    2.9853   -3.0494   -2.1527 C   0  0  2  0  0  0  0  0  0  0  0  0
    4.1667   -2.3719   -1.4166 C   0  0  0  0  0  0  0  0  0  0  0  0
    4.5645   -2.8275   -0.3502 O   0  0  0  0  0  0  0  0  0  0  0  0
    3.2008   -3.1269   -3.6723 C   0  0  0  0  0  0  0  0  0  0  0  0
    1.2391   -2.8284   -0.9777 H   0  0  0  0  0  0  0  0  0  0  0  0
    2.9575   -4.0825   -1.7903 H   0  0  0  0  0  0  0  0  0  0  0  0
    3.3105   -2.1348   -4.1179 H   0  0  0  0  0  0  0  0  0  0  0  0
    4.1061   -3.7012   -3.8924 H   0  0  0  0  0  0  0  0  0  0  0  0
    2.3510   -3.6264   -4.1472 H   0  0  0  0  0  0  0  0  0  0  0  0
    4.7013   -1.1818   -1.8702 N   0  0  0  0  0  0  0  0  0  0  0  0
    5.7181   -0.4245   -1.1507 C   0  0  0  0  0  0  0  0  0  0  0  0
    4.1505   -0.7057   -2.5872 H   0  0  0  0  0  0  0  0  0  0  0  0
    6.0009    0.4638   -1.7237 H   0  0  0  0  0  0  0  0  0  0  0  0
    5.3439   -0.1021   -0.1745 H   0  0  0  0  0  0  0  0  0  0  0  0
    6.6142   -1.0354   -0.9995 H   0  0  0  0  0  0  0  0  0  0  0  0
  1  2  2  0  0  0  0
  1  3  1  0  0  0  0
  1  7  1  0  0  0  0
  3  4  1  0  0  0  0
  3  5  1  0  0  0  0
  3  6  1  0  0  0  0
  7  8  1  0  0  0  0
  7 12  1  0  0  0  0
  8  9  1  0  0  0  0
  8 11  1  0  0  0  0
  8 13  1  0  0  0  0
  9 10  2  0  0  0  0
  9 17  1  0  0  0  0
 11 14  1  0  0  0  0
 11 15  1  0  0  0  0
 11 16  1  0  0  0  0
 17 18  1  0  0  0  0
 17 23  1  0  0  0  0
 18 19  1  0  0  0  0
 18 21  1  0  0  0  0
 18 24  1  0  0  0  0
 19 20  2  0  0  0  0
 19 28  1  0  0  0  0
 21 22  1  0  0  0  0
 21 25  1  0  0  0  0
 21 26  1  0  0  0  0
 22 27  1  0  0  0  0
 28 29  1  0  0  0  0
 28 33  1  0  0  0  0
 29 30  1  0  0  0  0
 29 32  1  0  0  0  0
 29 34  1  0  0  0  0
 30 31  2  0  0  0  0
 30 38  1  0  0  0  0
 32 35  1  0  0  0  0
 32 36  1  0  0  0  0
 32 37  1  0  0  0  0
 38 39  1  0  0  0  0
 38 40  1  0  0  0  0
 39 41  1  0  0  0  0
 39 42  1  0  0  0  0
 39 43  1  0  0  0  0
M  END
$$$$

  -OEChem-05262217303D

 43 42  0     1  0  0  0  0  0999 V2000
    4.5380   -1.3162    2.8357 C   0  0  0  0  0  0  0  0  0  0  0  0
    4.5011   -0.5034    3.7471 O   0  0  0  0  0  0  0  0  0  0  0  0
    5.6076   -2.3910    2.8092 C   0  0  0  0  0  0  0  0  0  0  0  0
    6.1825   -2.3210    1.8827 H   0  0  0  0  0  0  0  0  0  0  0  0
    6.2861   -2.2709    3.6580 H   0  0  0  0  0  0  0  0  0  0  0  0
    5.1430   -3.3786    2.8628 H   0  0  0  0  0  0  0  0  0  0  0  0
    3.6169   -1.2498    1.8150 N   0  0  0  0  0  0  0  0  0  0  0  0
    2.4664   -0.3345    1.7825 C   0  0  2  0  0  0  0  0  0  0  0  0
    1.2954   -0.9404    0.9778 C   0  0  0  0  0  0  0  0  0  0  0  0
    1.2017   -2.1540    0.8226 O   0  0  0  0  0  0  0  0  0  0  0  0
    2.9350    0.9997    1.1840 C   0  0  0  0  0  0  0  0  0  0  0  0
    3.6519   -2.0077    1.1240 H   0  0  0  0  0  0  0  0  0  0  0  0
    2.1041   -0.1624    2.8019 H   0  0  0  0  0  0  0  0  0  0  0  0
    3.2283    0.8700    0.1373 H   0  0  0  0  0  0  0  0  0  0  0  0
    2.1392    1.7487    1.2348 H   0  0  0  0  0  0  0  0  0  0  0  0
    3.7960    1.3833    1.7405 H   0  0  0  0  0  0  0  0  0  0  0  0
    0.3827   -0.1637    0.2843 N   0  0  0  0  0  0  0  0  0  0  0  0
    0.1266   -0.4462   -1.1428 C   0  0  2  0  0  0  0  0  0  0  0  0
    1.3405   -1.0340   -1.9138 C   0  0  0  0  0  0  0  0  0  0  0  0
    2.1332   -0.2853   -2.4822 O   0  0  0  0  0  0  0  0  0  0  0  0
   -0.3854    0.8608   -1.7653 C   0  0  0  0  0  0  0  0  0  0  0  0
    0.6441    1.8555   -1.7490 O   0  0  0  0  0  0  0  0  0  0  0  0
    0.4845    0.8316    0.4779 H   0  0  0  0  0  0  0  0  0  0  0  0
   -0.6781   -1.1848   -1.2076 H   0  0  0  0  0  0  0  0  0  0  0  0
   -1.2595    1.2232   -1.2139 H   0  0  0  0  0  0  0  0  0  0  0  0
   -0.6970    0.6768   -2.7989 H   0  0  0  0  0  0  0  0  0  0  0  0
    1.4368    1.4963   -2.2073 H   0  0  0  0  0  0  0  0  0  0  0  0
    1.5277   -2.4044   -1.9694 N   0  0  0  0  0  0  0  0  0  0  0  0
    2.8078   -3.0390   -2.3373 C   0  0  2  0  0  0  0  0  0  0  0  0
    4.0098   -2.5239   -1.5033 C   0  0  0  0  0  0  0  0  0  0  0  0
    4.2854   -3.0533   -0.4323 O   0  0  0  0  0  0  0  0  0  0  0  0
    3.0509   -2.9414   -3.8517 C   0  0  0  0  0  0  0  0  0  0  0  0
    1.0130   -2.8852   -1.2273 H   0  0  0  0  0  0  0  0  0  0  0  0
    2.7189   -4.1046   -2.1022 H   0  0  0  0  0  0  0  0  0  0  0  0
    3.1760   -1.9047   -4.1759 H   0  0  0  0  0  0  0  0  0  0  0  0
    3.9542   -3.4966   -4.1230 H   0  0  0  0  0  0  0  0  0  0  0  0
    2.2049   -3.3717   -4.3962 H   0  0  0  0  0  0  0  0  0  0  0  0
    4.7295   -1.4125   -1.8989 N   0  0  0  0  0  0  0  0  0  0  0  0
    5.7869   -0.8092   -1.0970 C   0  0  0  0  0  0  0  0  0  0  0  0
    4.2636   -0.8325   -2.5977 H   0  0  0  0  0  0  0  0  0  0  0  0
    6.2980   -0.0323   -1.6735 H   0  0  0  0  0  0  0  0  0  0  0  0
    5.3740   -0.3547   -0.1917 H   0  0  0  0  0  0  0  0  0  0  0  0
    6.5277   -1.5618   -0.8072 H   0  0  0  0  0  0  0  0  0  0  0  0
  1  2  2  0  0  0  0
  1  3  1  0  0  0  0
  1  7  1  0  0  0  0
  3  4  1  0  0  0  0
  3  5  1  0  0  0  0
  3  6  1  0  0  0  0
  7  8  1  0  0  0  0
  7 12  1  0  0  0  0
  8  9  1  0  0  0  0
  8 11  1  0  0  0  0
  8 13  1  0  0  0  0
  9 10  2  0  0  0  0
  9 17  1  0  0  0  0
 11 14  1  0  0  0  0
 11 15  1  0  0  0  0
 11 16  1  0  0  0  0
 17 18  1  0  0  0  0
 17 23  1  0  0  0  0
 18 19  1  0  0  0  0
 18 21  1  0  0  0  0
 18 24  1  0  0  0  0
 19 20  2  0  0  0  0
 19 28  1  0  0  0  0
 21 22  1  0  0  0  0
 21 25  1  0  0  0  0
 21 26  1  0  0  0  0
 22 27  1  0  0  0  0
 28 29  1  0  0  0  0
 28 33  1  0  0  0  0
 29 30  1  0  0  0  0
 29 32  1  0  0  0  0
 29 34  1  0  0  0  0
 30 31  2  0  0  0  0
 30 38  1  0  0  0  0
 32 35  1  0  0  0  0
 32 36  1  0  0  0  0
 32 37  1  0  0  0  0
 38 39  1  0  0  0  0
 38 40  1  0  0  0  0
 39 41  1  0  0  0  0
 39 42  1  0  0  0  0
 39 43  1  0  0  0  0
M  END
$$$$

  -OEChem-05262217303D

 43 42  0     1  0  0  0  0  0999 V2000
    4.1202   -1.1654    3.7971 C   0  0  0  0  0  0  0  0  0  0  0  0
    3.7815   -0.2330    4.5084 O   0  0  0  0  0  0  0  0  0  0  0  0
    5.0145   -2.2605    4.3463 C   0  0  0  0  0  0  0  0  0  0  0  0
    5.9468   -2.3000    3.7779 H   0  0  0  0  0  0  0  0  0  0  0  0
    5.2495   -2.0650    5.3962 H   0  0  0  0  0  0  0  0  0  0  0  0
    4.5097   -3.2267    4.2726 H   0  0  0  0  0  0  0  0  0  0  0  0
    3.6797   -1.2322    2.4926 N   0  0  0  0  0  0  0  0  0  0  0  0
    2.6898   -0.3198    1.9052 C   0  0  2  0  0  0  0  0  0  0  0  0
    1.8258   -1.0298    0.8437 C   0  0  0  0  0  0  0  0  0  0  0  0
    2.1134   -2.1600    0.4612 O   0  0  0  0  0  0  0  0  0  0  0  0
    3.4361    0.8620    1.2778 C   0  0  0  0  0  0  0  0  0  0  0  0
    3.8777   -2.0899    1.9777 H   0  0  0  0  0  0  0  0  0  0  0  0
    2.0147    0.0492    2.6851 H   0  0  0  0  0  0  0  0  0  0  0  0
    4.1050    0.5145    0.4840 H   0  0  0  0  0  0  0  0  0  0  0  0
    2.7310    1.5805    0.8489 H   0  0  0  0  0  0  0  0  0  0  0  0
    4.0336    1.3780    2.0362 H   0  0  0  0  0  0  0  0  0  0  0  0
    0.7022   -0.4211    0.3129 N   0  0  0  0  0  0  0  0  0  0  0  0
    0.2472   -0.6823   -1.0659 C   0  0  2  0  0  0  0  0  0  0  0  0
    1.3618   -1.0281   -2.0856 C   0  0  0  0  0  0  0  0  0  0  0  0
    2.0719   -0.1315   -2.5349 O   0  0  0  0  0  0  0  0  0  0  0  0
   -0.5639    0.5411   -1.5150 C   0  0  0  0  0  0  0  0  0  0  0  0
    0.2801    1.6933   -1.6077 O   0  0  0  0  0  0  0  0  0  0  0  0
    0.5655    0.5387    0.6269 H   0  0  0  0  0  0  0  0  0  0  0  0
   -0.4332   -1.5382   -1.0385 H   0  0  0  0  0  0  0  0  0  0  0  0
   -1.3786    0.7342   -0.8091 H   0  0  0  0  0  0  0  0  0  0  0  0
   -1.0127    0.3411   -2.4938 H   0  0  0  0  0  0  0  0  0  0  0  0
    1.0694    1.4719   -2.1521 H   0  0  0  0  0  0  0  0  0  0  0  0
    1.5296   -2.3355   -2.5110 N   0  0  0  0  0  0  0  0  0  0  0  0
    2.5966   -2.8406   -3.4011 C   0  0  2  0  0  0  0  0  0  0  0  0
    4.0250   -2.7512   -2.8124 C   0  0  0  0  0  0  0  0  0  0  0  0
    4.7376   -3.7465   -2.8061 O   0  0  0  0  0  0  0  0  0  0  0  0
    2.5312   -2.1856   -4.7882 C   0  0  0  0  0  0  0  0  0  0  0  0
    1.1126   -3.0233   -1.8861 H   0  0  0  0  0  0  0  0  0  0  0  0
    2.3995   -3.9074   -3.5498 H   0  0  0  0  0  0  0  0  0  0  0  0
    2.8355   -1.1359   -4.7496 H   0  0  0  0  0  0  0  0  0  0  0  0
    3.2015   -2.7073   -5.4785 H   0  0  0  0  0  0  0  0  0  0  0  0
    1.5138   -2.2403   -5.1866 H   0  0  0  0  0  0  0  0  0  0  0  0
    4.5214   -1.5648   -2.3095 N   0  0  0  0  0  0  0  0  0  0  0  0
    5.8416   -1.4180   -1.7145 C   0  0  0  0  0  0  0  0  0  0  0  0
    3.8857   -0.7649   -2.3339 H   0  0  0  0  0  0  0  0  0  0  0  0
    6.0120   -0.3759   -1.4279 H   0  0  0  0  0  0  0  0  0  0  0  0
    5.9287   -2.0431   -0.8199 H   0  0  0  0  0  0  0  0  0  0  0  0
    6.6184   -1.7116   -2.4284 H   0  0  0  0  0  0  0  0  0  0  0  0
  1  2  2  0  0  0  0
  1  3  1  0  0  0  0
  1  7  1  0  0  0  0
  3  4  1  0  0  0  0
  3  5  1  0  0  0  0
  3  6  1  0  0  0  0
  7  8  1  0  0  0  0
  7 12  1  0  0  0  0
  8  9  1  0  0  0  0
  8 11  1  0  0  0  0
  8 13  1  0  0  0  0
  9 10  2  0  0  0  0
  9 17  1  0  0  0  0
 11 14  1  0  0  0  0
 11 15  1  0  0  0  0
 11 16  1  0  0  0  0
 17 18  1  0  0  0  0
 17 23  1  0  0  0  0
 18 19  1  0  0  0  0
 18 21  1  0  0  0  0
 18 24  1  0  0  0  0
 19 20  2  0  0  0  0
 19 28  1  0  0  0  0
 21 22  1  0  0  0  0
 21 25  1  0  0  0  0
 21 26  1  0  0  0  0
 22 27  1  0  0  0  0
 28 29  1  0  0  0  0
 28 33  1  0  0  0  0
 29 30  1  0  0  0  0
 29 32  1  0  0  0  0
 29 34  1  0  0  0  0
 30 31  2  0  0  0  0
 30 38  1  0  0  0  0
 32 35  1  0  0  0  0
 32 36  1  0  0  0  0
 32 37  1  0  0  0  0
 38 39  1  0  0  0  0
 38 40  1  0  0  0  0
 39 41  1  0  0  0  0
 39 42  1  0  0  0  0
 39 43  1  0  0  0  0
M  END
$$$$

  -OEChem-05262217303D

 43 42  0     1  0  0  0  0  0999 V2000
    4.0250   -1.2033    3.9187 C   0  0  0  0  0  0  0  0  0  0  0  0
    3.6089   -0.3045    4.6322 O   0  0  0  0  0  0  0  0  0  0  0  0
    4.9216   -2.2816    4.4970 C   0  0  0  0  0  0  0  0  0  0  0  0
    5.9033   -2.2452    4.0190 H   0  0  0  0  0  0  0  0  0  0  0  0
    5.0472   -2.1302    5.5729 H   0  0  0  0  0  0  0  0  0  0  0  0
    4.4786   -3.2664    4.3298 H   0  0  0  0  0  0  0  0  0  0  0  0
    3.6733   -1.2432    2.5861 N   0  0  0  0  0  0  0  0  0  0  0  0
    2.7005   -0.3376    1.9604 C   0  0  2  0  0  0  0  0  0  0  0  0
    1.9024   -1.0403    0.8442 C   0  0  0  0  0  0  0  0  0  0  0  0
    2.2672   -2.1286    0.4103 O   0  0  0  0  0  0  0  0  0  0  0  0
    3.4579    0.8660    1.3918 C   0  0  0  0  0  0  0  0  0  0  0  0
    3.9351   -2.0750    2.0580 H   0  0  0  0  0  0  0  0  0  0  0  0
    1.9800    0.0087    2.7095 H   0  0  0  0  0  0  0  0  0  0  0  0
    4.1772    0.5420    0.6326 H   0  0  0  0  0  0  0  0  0  0  0  0
    2.7640    1.5768    0.9326 H   0  0  0  0  0  0  0  0  0  0  0  0
    4.0010    1.3823    2.1898 H   0  0  0  0  0  0  0  0  0  0  0  0
    0.7443   -0.4762    0.3388 N   0  0  0  0  0  0  0  0  0  0  0  0
    0.2735   -0.7360   -1.0347 C   0  0  2  0  0  0  0  0  0  0  0  0
    1.3721   -1.0191   -2.0879 C   0  0  0  0  0  0  0  0  0  0  0  0
    2.1650   -0.1264   -2.3784 O   0  0  0  0  0  0  0  0  0  0  0  0
   -0.5758    0.4691   -1.4582 C   0  0  0  0  0  0  0  0  0  0  0  0
    0.2391    1.6424   -1.5521 O   0  0  0  0  0  0  0  0  0  0  0  0
    0.5575    0.4643    0.6831 H   0  0  0  0  0  0  0  0  0  0  0  0
   -0.3772   -1.6142   -1.0036 H   0  0  0  0  0  0  0  0  0  0  0  0
   -1.3843    0.6348   -0.7386 H   0  0  0  0  0  0  0  0  0  0  0  0
   -1.0336    0.2672   -2.4323 H   0  0  0  0  0  0  0  0  0  0  0  0
    1.0576    1.4353   -2.0575 H   0  0  0  0  0  0  0  0  0  0  0  0
    1.3920   -2.2237   -2.7722 N   0  0  0  0  0  0  0  0  0  0  0  0
    2.3658   -2.6401   -3.8044 C   0  0  2  0  0  0  0  0  0  0  0  0
    3.8211   -2.8071   -3.3051 C   0  0  0  0  0  0  0  0  0  0  0  0
    4.4482   -3.8119   -3.6136 O   0  0  0  0  0  0  0  0  0  0  0  0
    2.3127   -1.7153   -5.0283 C   0  0  0  0  0  0  0  0  0  0  0  0
    0.8384   -2.9646   -2.3492 H   0  0  0  0  0  0  0  0  0  0  0  0
    2.0522   -3.6319   -4.1467 H   0  0  0  0  0  0  0  0  0  0  0  0
    2.7267   -0.7290   -4.8005 H   0  0  0  0  0  0  0  0  0  0  0  0
    2.8968   -2.1473   -5.8469 H   0  0  0  0  0  0  0  0  0  0  0  0
    1.2802   -1.5916   -5.3681 H   0  0  0  0  0  0  0  0  0  0  0  0
    4.4375   -1.8365   -2.5410 N   0  0  0  0  0  0  0  0  0  0  0  0
    5.7941   -1.9409   -2.0246 C   0  0  0  0  0  0  0  0  0  0  0  0
    3.8729   -1.0156   -2.3131 H   0  0  0  0  0  0  0  0  0  0  0  0
    6.0407   -1.0549   -1.4319 H   0  0  0  0  0  0  0  0  0  0  0  0
    5.8928   -2.8242   -1.3852 H   0  0  0  0  0  0  0  0  0  0  0  0
    6.5118   -2.0180   -2.8479 H   0  0  0  0  0  0  0  0  0  0  0  0
  1  2  2  0  0  0  0
  1  3  1  0  0  0  0
  1  7  1  0  0  0  0
  3  4  1  0  0  0  0
  3  5  1  0  0  0  0
  3  6  1  0  0  0  0
  7  8  1  0  0  0  0
  7 12  1  0  0  0  0
  8  9  1  0  0  0  0
  8 11  1  0  0  0  0
  8 13  1  0  0  0  0
  9 10  2  0  0  0  0
  9 17  1  0  0  0  0
 11 14  1  0  0  0  0
 11 15  1  0  0  0  0
 11 16  1  0  0  0  0
 17 18  1  0  0  0  0
 17 23  1  0  0  0  0
 18 19  1  0  0  0  0
 18 21  1  0  0  0  0
 18 24  1  0  0  0  0
 19 20  2  0  0  0  0
 19 28  1  0  0  0  0
 21 22  1  0  0  0  0
 21 25  1  0  0  0  0
 21 26  1  0  0  0  0
 22 27  1  0  0  0  0
 28 29  1  0  0  0  0
 28 33  1  0  0  0  0
 29 30  1  0  0  0  0
 29 32  1  0  0  0  0
 29 34  1  0  0  0  0
 30 31  2  0  0  0  0
 30 38  1  0  0  0  0
 32 35  1  0  0  0  0
 32 36  1  0  0  0  0
 32 37  1  0  0  0  0
 38 39  1  0  0  0  0
 38 40  1  0  0  0  0
 39 41  1  0  0  0  0
 39 42  1  0  0  0  0
 39 43  1  0  0  0  0
M  END
$$$$

  -OEChem-05262217303D

 43 42  0     1  0  0  0  0  0999 V2000
    4.0241   -1.2366    3.9174 C   0  0  0  0  0  0  0  0  0  0  0  0
    3.5733   -0.3752    4.6556 O   0  0  0  0  0  0  0  0  0  0  0  0
    4.9487   -2.3059    4.4684 C   0  0  0  0  0  0  0  0  0  0  0  0
    5.9121   -2.2668    3.9543 H   0  0  0  0  0  0  0  0  0  0  0  0
    5.1137   -2.1471    5.5378 H   0  0  0  0  0  0  0  0  0  0  0  0
    4.5060   -3.2944    4.3232 H   0  0  0  0  0  0  0  0  0  0  0  0
    3.6831   -1.2470    2.5817 N   0  0  0  0  0  0  0  0  0  0  0  0
    2.6784   -0.3630    1.9765 C   0  0  2  0  0  0  0  0  0  0  0  0
    1.9067   -1.0719    0.8456 C   0  0  0  0  0  0  0  0  0  0  0  0
    2.3147   -2.1354    0.3883 O   0  0  0  0  0  0  0  0  0  0  0  0
    3.3916    0.8785    1.4331 C   0  0  0  0  0  0  0  0  0  0  0  0
    3.9744   -2.0545    2.0319 H   0  0  0  0  0  0  0  0  0  0  0  0
    1.9464   -0.0583    2.7323 H   0  0  0  0  0  0  0  0  0  0  0  0
    4.1207    0.5960    0.6666 H   0  0  0  0  0  0  0  0  0  0  0  0
    2.6724    1.5733    0.9885 H   0  0  0  0  0  0  0  0  0  0  0  0
    3.9174    1.3970    2.2414 H   0  0  0  0  0  0  0  0  0  0  0  0
    0.7251   -0.5435    0.3556 N   0  0  0  0  0  0  0  0  0  0  0  0
    0.2644   -0.7913   -1.0239 C   0  0  2  0  0  0  0  0  0  0  0  0
    1.3647   -1.0055   -2.0892 C   0  0  0  0  0  0  0  0  0  0  0  0
    2.2401   -0.1530   -2.2151 O   0  0  0  0  0  0  0  0  0  0  0  0
   -0.6097    0.4008   -1.4287 C   0  0  0  0  0  0  0  0  0  0  0  0
    0.1835    1.5917   -1.4989 O   0  0  0  0  0  0  0  0  0  0  0  0
    0.5042    0.3818    0.7199 H   0  0  0  0  0  0  0  0  0  0  0  0
   -0.3571   -1.6909   -1.0112 H   0  0  0  0  0  0  0  0  0  0  0  0
   -1.4244    0.5372   -0.7096 H   0  0  0  0  0  0  0  0  0  0  0  0
   -1.0596    0.2065   -2.4081 H   0  0  0  0  0  0  0  0  0  0  0  0
    1.0290    1.4070   -1.9656 H   0  0  0  0  0  0  0  0  0  0  0  0
    1.2586   -2.0353   -3.0104 N   0  0  0  0  0  0  0  0  0  0  0  0
    2.1869   -2.3283   -4.1240 C   0  0  2  0  0  0  0  0  0  0  0  0
    3.6091   -2.7594   -3.6935 C   0  0  0  0  0  0  0  0  0  0  0  0
    4.1308   -3.7254   -4.2347 O   0  0  0  0  0  0  0  0  0  0  0  0
    2.2502   -1.1640   -5.1227 C   0  0  0  0  0  0  0  0  0  0  0  0
    0.5822   -2.7583   -2.7805 H   0  0  0  0  0  0  0  0  0  0  0  0
    1.7669   -3.1828   -4.6648 H   0  0  0  0  0  0  0  0  0  0  0  0
    2.7787   -0.3044   -4.7006 H   0  0  0  0  0  0  0  0  0  0  0  0
    2.7823   -1.4770   -6.0265 H   0  0  0  0  0  0  0  0  0  0  0  0
    1.2415   -0.8498   -5.4064 H   0  0  0  0  0  0  0  0  0  0  0  0
    4.3069   -2.0720   -2.7208 N   0  0  0  0  0  0  0  0  0  0  0  0
    5.6347   -2.4403   -2.2523 C   0  0  0  0  0  0  0  0  0  0  0  0
    3.8286   -1.2729   -2.2992 H   0  0  0  0  0  0  0  0  0  0  0  0
    5.9616   -1.7511   -1.4678 H   0  0  0  0  0  0  0  0  0  0  0  0
    5.6271   -3.4549   -1.8407 H   0  0  0  0  0  0  0  0  0  0  0  0
    6.3561   -2.3971   -3.0749 H   0  0  0  0  0  0  0  0  0  0  0  0
  1  2  2  0  0  0  0
  1  3  1  0  0  0  0
  1  7  1  0  0  0  0
  3  4  1  0  0  0  0
  3  5  1  0  0  0  0
  3  6  1  0  0  0  0
  7  8  1  0  0  0  0
  7 12  1  0  0  0  0
  8  9  1  0  0  0  0
  8 11  1  0  0  0  0
  8 13  1  0  0  0  0
  9 10  2  0  0  0  0
  9 17  1  0  0  0  0
 11 14  1  0  0  0  0
 11 15  1  0  0  0  0
 11 16  1  0  0  0  0
 17 18  1  0  0  0  0
 17 23  1  0  0  0  0
 18 19  1  0  0  0  0
 18 21  1  0  0  0  0
 18 24  1  0  0  0  0
 19 20  2  0  0  0  0
 19 28  1  0  0  0  0
 21 22  1  0  0  0  0
 21 25  1  0  0  0  0
 21 26  1  0  0  0  0
 22 27  1  0  0  0  0
 28 29  1  0  0  0  0
 28 33  1  0  0  0  0
 29 30  1  0  0  0  0
 29 32  1  0  0  0  0
 29 34  1  0  0  0  0
 30 31  2  0  0  0  0
 30 38  1  0  0  0  0
 32 35  1  0  0  0  0
 32 36  1  0  0  0  0
 32 37  1  0  0  0  0
 38 39  1  0  0  0  0
 38 40  1  0  0  0  0
 39 41  1  0  0  0  0
 39 42  1  0  0  0  0
 39 43  1  0  0  0  0
M  END
$$$$

  -OEChem-05262217303D

 43 42  0     1  0  0  0  0  0999 V2000
    3.8953   -1.2629    4.0532 C   0  0  0  0  0  0  0  0  0  0  0  0
    3.3923   -0.4139    4.7717 O   0  0  0  0  0  0  0  0  0  0  0  0
    4.7783   -2.3412    4.6525 C   0  0  0  0  0  0  0  0  0  0  0  0
    5.7899   -2.2627    4.2471 H   0  0  0  0  0  0  0  0  0  0  0  0
    4.8244   -2.2295    5.7394 H   0  0  0  0  0  0  0  0  0  0  0  0
    4.3740   -3.3287    4.4172 H   0  0  0  0  0  0  0  0  0  0  0  0
    3.6506   -1.2526    2.6962 N   0  0  0  0  0  0  0  0  0  0  0  0
    2.6835   -0.3645    2.0372 C   0  0  2  0  0  0  0  0  0  0  0  0
    1.9447   -1.0774    0.8864 C   0  0  0  0  0  0  0  0  0  0  0  0
    2.3572   -2.1478    0.4495 O   0  0  0  0  0  0  0  0  0  0  0  0
    3.4369    0.8592    1.5083 C   0  0  0  0  0  0  0  0  0  0  0  0
    3.9739   -2.0565    2.1594 H   0  0  0  0  0  0  0  0  0  0  0  0
    1.9252   -0.0380    2.7573 H   0  0  0  0  0  0  0  0  0  0  0  0
    4.1943    0.5564    0.7779 H   0  0  0  0  0  0  0  0  0  0  0  0
    2.7474    1.5574    1.0238 H   0  0  0  0  0  0  0  0  0  0  0  0
    3.9345    1.3813    2.3317 H   0  0  0  0  0  0  0  0  0  0  0  0
    0.7674   -0.5578    0.3777 N   0  0  0  0  0  0  0  0  0  0  0  0
    0.3185   -0.8152   -1.0044 C   0  0  2  0  0  0  0  0  0  0  0  0
    1.4108   -1.0359   -2.0768 C   0  0  0  0  0  0  0  0  0  0  0  0
    2.3657   -0.2644   -2.1144 O   0  0  0  0  0  0  0  0  0  0  0  0
   -0.5330    0.3884   -1.4214 C   0  0  0  0  0  0  0  0  0  0  0  0
    0.2828    1.5649   -1.4908 O   0  0  0  0  0  0  0  0  0  0  0  0
    0.5392    0.3682    0.7352 H   0  0  0  0  0  0  0  0  0  0  0  0
   -0.3095   -1.7102   -0.9893 H   0  0  0  0  0  0  0  0  0  0  0  0
   -1.3496    0.5432   -0.7084 H   0  0  0  0  0  0  0  0  0  0  0  0
   -0.9803    0.1977   -2.4027 H   0  0  0  0  0  0  0  0  0  0  0  0
    1.1361    1.3635   -1.9341 H   0  0  0  0  0  0  0  0  0  0  0  0
    1.1543   -1.8556   -3.1653 N   0  0  0  0  0  0  0  0  0  0  0  0
    1.9858   -2.0165   -4.3783 C   0  0  2  0  0  0  0  0  0  0  0  0
    3.3824   -2.6388   -4.1418 C   0  0  0  0  0  0  0  0  0  0  0  0
    3.7613   -3.5460   -4.8707 O   0  0  0  0  0  0  0  0  0  0  0  0
    2.1018   -0.6969   -5.1547 C   0  0  0  0  0  0  0  0  0  0  0  0
    0.3692   -2.4928   -3.0624 H   0  0  0  0  0  0  0  0  0  0  0  0
    1.4550   -2.7182   -5.0303 H   0  0  0  0  0  0  0  0  0  0  0  0
    2.7295    0.0244   -4.6239 H   0  0  0  0  0  0  0  0  0  0  0  0
    2.5526   -0.8797   -6.1354 H   0  0  0  0  0  0  0  0  0  0  0  0
    1.1123   -0.2553   -5.3060 H   0  0  0  0  0  0  0  0  0  0  0  0
    4.2139   -2.1876   -3.1363 N   0  0  0  0  0  0  0  0  0  0  0  0
    5.5269   -2.7470   -2.8486 C   0  0  0  0  0  0  0  0  0  0  0  0
    3.8494   -1.4335   -2.5494 H   0  0  0  0  0  0  0  0  0  0  0  0
    6.0028   -2.1908   -2.0353 H   0  0  0  0  0  0  0  0  0  0  0  0
    5.4378   -3.7956   -2.5465 H   0  0  0  0  0  0  0  0  0  0  0  0
    6.1714   -2.6867   -3.7317 H   0  0  0  0  0  0  0  0  0  0  0  0
  1  2  2  0  0  0  0
  1  3  1  0  0  0  0
  1  7  1  0  0  0  0
  3  4  1  0  0  0  0
  3  5  1  0  0  0  0
  3  6  1  0  0  0  0
  7  8  1  0  0  0  0
  7 12  1  0  0  0  0
  8  9  1  0  0  0  0
  8 11  1  0  0  0  0
  8 13  1  0  0  0  0
  9 10  2  0  0  0  0
  9 17  1  0  0  0  0
 11 14  1  0  0  0  0
 11 15  1  0  0  0  0
 11 16  1  0  0  0  0
 17 18  1  0  0  0  0
 17 23  1  0  0  0  0
 18 19  1  0  0  0  0
 18 21  1  0  0  0  0
 18 24  1  0  0  0  0
 19 20  2  0  0  0  0
 19 28  1  0  0  0  0
 21 22  1  0  0  0  0
 21 25  1  0  0  0  0
 21 26  1  0  0  0  0
 22 27  1  0  0  0  0
 28 29  1  0  0  0  0
 28 33  1  0  0  0  0
 29 30  1  0  0  0  0
 29 32  1  0  0  0  0
 29 34  1  0  0  0  0
 30 31  2  0  0  0  0
 30 38  1  0  0  0  0
 32 35  1  0  0  0  0
 32 36  1  0  0  0  0
 32 37  1  0  0  0  0
 38 39  1  0  0  0  0
 38 40  1  0  0  0  0
 39 41  1  0  0  0  0
 39 42  1  0  0  0  0
 39 43  1  0  0  0  0
M  END
$$$$

  -OEChem-05262217303D

 43 42  0     1  0  0  0  0  0999 V2000
    3.8986   -1.3062    4.0022 C   0  0  0  0  0  0  0  0  0  0  0  0
    3.4228   -0.4438    4.7235 O   0  0  0  0  0  0  0  0  0  0  0  0
    4.7938   -2.3812    4.5893 C   0  0  0  0  0  0  0  0  0  0  0  0
    5.7830   -2.3359    4.1274 H   0  0  0  0  0  0  0  0  0  0  0  0
    4.9017   -2.2348    5.6678 H   0  0  0  0  0  0  0  0  0  0  0  0
    4.3596   -3.3677    4.4095 H   0  0  0  0  0  0  0  0  0  0  0  0
    3.6154   -1.3132    2.6530 N   0  0  0  0  0  0  0  0  0  0  0  0
    2.6351   -0.4291    2.0086 C   0  0  2  0  0  0  0  0  0  0  0  0
    1.8576   -1.1546    0.8921 C   0  0  0  0  0  0  0  0  0  0  0  0
    2.2358   -2.2454    0.4740 O   0  0  0  0  0  0  0  0  0  0  0  0
    3.3810    0.7781    1.4333 C   0  0  0  0  0  0  0  0  0  0  0  0
    3.9193   -2.1260    2.1185 H   0  0  0  0  0  0  0  0  0  0  0  0
    1.9018   -0.0834    2.7452 H   0  0  0  0  0  0  0  0  0  0  0  0
    4.1040    0.4563    0.6766 H   0  0  0  0  0  0  0  0  0  0  0  0
    2.6801    1.4775    0.9673 H   0  0  0  0  0  0  0  0  0  0  0  0
    3.9180    1.3056    2.2280 H   0  0  0  0  0  0  0  0  0  0  0  0
    0.6903   -0.6163    0.3790 N   0  0  0  0  0  0  0  0  0  0  0  0
    0.2810   -0.8317   -1.0234 C   0  0  2  0  0  0  0  0  0  0  0  0
    1.3976   -1.0160   -2.0791 C   0  0  0  0  0  0  0  0  0  0  0  0
    2.4358   -0.3720   -1.9623 O   0  0  0  0  0  0  0  0  0  0  0  0
   -0.5485    0.3956   -1.4172 C   0  0  0  0  0  0  0  0  0  0  0  0
    0.2817    1.5648   -1.4227 O   0  0  0  0  0  0  0  0  0  0  0  0
    0.4819    0.3131    0.7395 H   0  0  0  0  0  0  0  0  0  0  0  0
   -0.3500   -1.7243   -1.0558 H   0  0  0  0  0  0  0  0  0  0  0  0
   -1.3802    0.5335   -0.7182 H   0  0  0  0  0  0  0  0  0  0  0  0
   -0.9765    0.2483   -2.4143 H   0  0  0  0  0  0  0  0  0  0  0  0
    1.1390    1.3820   -1.8621 H   0  0  0  0  0  0  0  0  0  0  0  0
    1.0798   -1.5308   -3.3272 N   0  0  0  0  0  0  0  0  0  0  0  0
    1.9327   -1.5376   -4.5367 C   0  0  2  0  0  0  0  0  0  0  0  0
    3.2350   -2.3662   -4.4245 C   0  0  0  0  0  0  0  0  0  0  0  0
    3.5538   -3.1004   -5.3502 O   0  0  0  0  0  0  0  0  0  0  0  0
    2.2341   -0.1100   -5.0142 C   0  0  0  0  0  0  0  0  0  0  0  0
    0.2017   -2.0389   -3.3856 H   0  0  0  0  0  0  0  0  0  0  0  0
    1.3467   -2.0148   -5.3290 H   0  0  0  0  0  0  0  0  0  0  0  0
    2.9235    0.4001   -4.3355 H   0  0  0  0  0  0  0  0  0  0  0  0
    2.6965   -0.1387   -6.0061 H   0  0  0  0  0  0  0  0  0  0  0  0
    1.3106    0.4730   -5.0797 H   0  0  0  0  0  0  0  0  0  0  0  0
    4.0458   -2.2978   -3.3090 N   0  0  0  0  0  0  0  0  0  0  0  0
    5.2800   -3.0532   -3.1475 C   0  0  0  0  0  0  0  0  0  0  0  0
    3.7598   -1.6422   -2.5776 H   0  0  0  0  0  0  0  0  0  0  0  0
    6.0110   -2.7590   -3.9076 H   0  0  0  0  0  0  0  0  0  0  0  0
    5.7104   -2.8633   -2.1596 H   0  0  0  0  0  0  0  0  0  0  0  0
    5.0867   -4.1271   -3.2387 H   0  0  0  0  0  0  0  0  0  0  0  0
  1  2  2  0  0  0  0
  1  3  1  0  0  0  0
  1  7  1  0  0  0  0
  3  4  1  0  0  0  0
  3  5  1  0  0  0  0
  3  6  1  0  0  0  0
  7  8  1  0  0  0  0
  7 12  1  0  0  0  0
  8  9  1  0  0  0  0
  8 11  1  0  0  0  0
  8 13  1  0  0  0  0
  9 10  2  0  0  0  0
  9 17  1  0  0  0  0
 11 14  1  0  0  0  0
 11 15  1  0  0  0  0
 11 16  1  0  0  0  0
 17 18  1  0  0  0  0
 17 23  1  0  0  0  0
 18 19  1  0  0  0  0
 18 21  1  0  0  0  0
 18 24  1  0  0  0  0
 19 20  2  0  0  0  0
 19 28  1  0  0  0  0
 21 22  1  0  0  0  0
 21 25  1  0  0  0  0
 21 26  1  0  0  0  0
 22 27  1  0  0  0  0
 28 29  1  0  0  0  0
 28 33  1  0  0  0  0
 29 30  1  0  0  0  0
 29 32  1  0  0  0  0
 29 34  1  0  0  0  0
 30 31  2  0  0  0  0
 30 38  1  0  0  0  0
 32 35  1  0  0  0  0
 32 36  1  0  0  0  0
 32 37  1  0  0  0  0
 38 39  1  0  0  0  0
 38 40  1  0  0  0  0
 39 41  1  0  0  0  0
 39 42  1  0  0  0  0
 39 43  1  0  0  0  0
M  END
$$$$

  -OEChem-05262217303D

 43 42  0     1  0  0  0  0  0999 V2000
    3.9692   -1.1931    4.0596 C   0  0  0  0  0  0  0  0  0  0  0  0
    3.5996   -0.2187    4.6959 O   0  0  0  0  0  0  0  0  0  0  0  0
    4.8283   -2.2539    4.7218 C   0  0  0  0  0  0  0  0  0  0  0  0
    5.7776   -2.3510    4.1897 H   0  0  0  0  0  0  0  0  0  0  0  0
    5.0331   -1.9790    5.7603 H   0  0  0  0  0  0  0  0  0  0  0  0
    4.3104   -3.2160    4.7077 H   0  0  0  0  0  0  0  0  0  0  0  0
    3.5939   -1.3400    2.7412 N   0  0  0  0  0  0  0  0  0  0  0  0
    2.6295   -0.4717    2.0533 C   0  0  2  0  0  0  0  0  0  0  0  0
    1.8044   -1.2508    1.0083 C   0  0  0  0  0  0  0  0  0  0  0  0
    2.0647   -2.4233    0.7555 O   0  0  0  0  0  0  0  0  0  0  0  0
    3.3963    0.6696    1.3790 C   0  0  0  0  0  0  0  0  0  0  0  0
    3.8064   -2.2302    2.2919 H   0  0  0  0  0  0  0  0  0  0  0  0
    1.9253   -0.0532    2.7803 H   0  0  0  0  0  0  0  0  0  0  0  0
    4.0845    0.2742    0.6247 H   0  0  0  0  0  0  0  0  0  0  0  0
    2.7048    1.3623    0.8898 H   0  0  0  0  0  0  0  0  0  0  0  0
    3.9747    1.2283    2.1217 H   0  0  0  0  0  0  0  0  0  0  0  0
    0.6620   -0.7007    0.4546 N   0  0  0  0  0  0  0  0  0  0  0  0
    0.2775   -0.8896   -0.9631 C   0  0  2  0  0  0  0  0  0  0  0  0
    1.3111   -1.4161   -1.9957 C   0  0  0  0  0  0  0  0  0  0  0  0
    2.5041   -1.1887   -1.8314 O   0  0  0  0  0  0  0  0  0  0  0  0
   -0.1992    0.4919   -1.4318 C   0  0  0  0  0  0  0  0  0  0  0  0
    0.8986    1.4135   -1.4272 O   0  0  0  0  0  0  0  0  0  0  0  0
    0.5003    0.2468    0.7892 H   0  0  0  0  0  0  0  0  0  0  0  0
   -0.5619   -1.5901   -0.9827 H   0  0  0  0  0  0  0  0  0  0  0  0
   -0.9932    0.8607   -0.7736 H   0  0  0  0  0  0  0  0  0  0  0  0
   -0.6182    0.4270   -2.4411 H   0  0  0  0  0  0  0  0  0  0  0  0
    1.6824    1.0274   -1.8693 H   0  0  0  0  0  0  0  0  0  0  0  0
    0.9025   -1.5872   -3.3122 N   0  0  0  0  0  0  0  0  0  0  0  0
    1.7570   -1.7875   -4.5045 C   0  0  2  0  0  0  0  0  0  0  0  0
    2.6368   -3.0602   -4.4750 C   0  0  0  0  0  0  0  0  0  0  0  0
    2.5911   -3.8378   -5.4189 O   0  0  0  0  0  0  0  0  0  0  0  0
    2.6026   -0.5424   -4.8086 C   0  0  0  0  0  0  0  0  0  0  0  0
   -0.0969   -1.7085   -3.4491 H   0  0  0  0  0  0  0  0  0  0  0  0
    1.0783   -1.9172   -5.3541 H   0  0  0  0  0  0  0  0  0  0  0  0
    3.4045   -0.4145   -4.0758 H   0  0  0  0  0  0  0  0  0  0  0  0
    3.0613   -0.6368   -5.7981 H   0  0  0  0  0  0  0  0  0  0  0  0
    1.9760    0.3543   -4.8022 H   0  0  0  0  0  0  0  0  0  0  0  0
    3.4624   -3.3438   -3.4052 N   0  0  0  0  0  0  0  0  0  0  0  0
    4.2719   -4.5488   -3.2937 C   0  0  0  0  0  0  0  0  0  0  0  0
    3.4331   -2.6853   -2.6219 H   0  0  0  0  0  0  0  0  0  0  0  0
    4.8516   -4.5280   -2.3657 H   0  0  0  0  0  0  0  0  0  0  0  0
    3.6340   -5.4386   -3.2848 H   0  0  0  0  0  0  0  0  0  0  0  0
    4.9687   -4.6213   -4.1352 H   0  0  0  0  0  0  0  0  0  0  0  0
  1  2  2  0  0  0  0
  1  3  1  0  0  0  0
  1  7  1  0  0  0  0
  3  4  1  0  0  0  0
  3  5  1  0  0  0  0
  3  6  1  0  0  0  0
  7  8  1  0  0  0  0
  7 12  1  0  0  0  0
  8  9  1  0  0  0  0
  8 11  1  0  0  0  0
  8 13  1  0  0  0  0
  9 10  2  0  0  0  0
  9 17  1  0  0  0  0
 11 14  1  0  0  0  0
 11 15  1  0  0  0  0
 11 16  1  0  0  0  0
 17 18  1  0  0  0  0
 17 23  1  0  0  0  0
 18 19  1  0  0  0  0
 18 21  1  0  0  0  0
 18 24  1  0  0  0  0
 19 20  2  0  0  0  0
 19 28  1  0  0  0  0
 21 22  1  0  0  0  0
 21 25  1  0  0  0  0
 21 26  1  0  0  0  0
 22 27  1  0  0  0  0
 28 29  1  0  0  0  0
 28 33  1  0  0  0  0
 29 30  1  0  0  0  0
 29 32  1  0  0  0  0
 29 34  1  0  0  0  0
 30 31  2  0  0  0  0
 30 38  1  0  0  0  0
 32 35  1  0  0  0  0
 32 36  1  0  0  0  0
 32 37  1  0  0  0  0
 38 39  1  0  0  0  0
 38 40  1  0  0  0  0
 39 41  1  0  0  0  0
 39 42  1  0  0  0  0
 39 43  1  0  0  0  0
M  END
$$$$

  -OEChem-05262217303D

 43 42  0     1  0  0  0  0  0999 V2000
    3.9185   -1.1585    4.0789 C   0  0  0  0  0  0  0  0  0  0  0  0
    3.5191   -0.1749    4.6824 O   0  0  0  0  0  0  0  0  0  0  0  0
    4.7997   -2.1761    4.7787 C   0  0  0  0  0  0  0  0  0  0  0  0
    5.7648   -2.2443    4.2708 H   0  0  0  0  0  0  0  0  0  0  0  0
    4.9678   -1.8790    5.8178 H   0  0  0  0  0  0  0  0  0  0  0  0
    4.3190   -3.1573    4.7665 H   0  0  0  0  0  0  0  0  0  0  0  0
    3.5645   -1.3512    2.7609 N   0  0  0  0  0  0  0  0  0  0  0  0
    2.5922   -0.5243    2.0355 C   0  0  2  0  0  0  0  0  0  0  0  0
    1.7859   -1.3540    1.0150 C   0  0  0  0  0  0  0  0  0  0  0  0
    2.0535   -2.5352    0.8198 O   0  0  0  0  0  0  0  0  0  0  0  0
    3.3519    0.5983    1.3237 C   0  0  0  0  0  0  0  0  0  0  0  0
    3.8008   -2.2494    2.3402 H   0  0  0  0  0  0  0  0  0  0  0  0
    1.8772   -0.0877    2.7411 H   0  0  0  0  0  0  0  0  0  0  0  0
    4.0501    0.1805    0.5909 H   0  0  0  0  0  0  0  0  0  0  0  0
    2.6572    1.2640    0.8032 H   0  0  0  0  0  0  0  0  0  0  0  0
    3.9190    1.1914    2.0483 H   0  0  0  0  0  0  0  0  0  0  0  0
    0.6289   -0.8517    0.4485 N   0  0  0  0  0  0  0  0  0  0  0  0
    0.2949   -0.9715   -0.9904 C   0  0  2  0  0  0  0  0  0  0  0  0
    1.3726   -1.3575   -2.0487 C   0  0  0  0  0  0  0  0  0  0  0  0
    2.5586   -1.4409   -1.7656 O   0  0  0  0  0  0  0  0  0  0  0  0
   -0.3238    0.3876   -1.3537 C   0  0  0  0  0  0  0  0  0  0  0  0
    0.6603    1.4240   -1.2475 O   0  0  0  0  0  0  0  0  0  0  0  0
    0.4174    0.0745    0.8135 H   0  0  0  0  0  0  0  0  0  0  0  0
   -0.4765   -1.7427   -1.0713 H   0  0  0  0  0  0  0  0  0  0  0  0
   -1.1545    0.6068   -0.6742 H   0  0  0  0  0  0  0  0  0  0  0  0
   -0.7376    0.3701   -2.3667 H   0  0  0  0  0  0  0  0  0  0  0  0
    1.4300    1.2466   -1.8213 H   0  0  0  0  0  0  0  0  0  0  0  0
    1.0882   -1.1582   -3.3949 N   0  0  0  0  0  0  0  0  0  0  0  0
    2.0256   -1.2293   -4.5393 C   0  0  2  0  0  0  0  0  0  0  0  0
    2.6703   -2.6164   -4.7730 C   0  0  0  0  0  0  0  0  0  0  0  0
    2.5927   -3.1289   -5.8815 O   0  0  0  0  0  0  0  0  0  0  0  0
    3.0968   -0.1309   -4.4658 C   0  0  0  0  0  0  0  0  0  0  0  0
    0.1034   -1.0611   -3.6258 H   0  0  0  0  0  0  0  0  0  0  0  0
    1.4344   -1.0244   -5.4380 H   0  0  0  0  0  0  0  0  0  0  0  0
    3.8052   -0.3146   -3.6529 H   0  0  0  0  0  0  0  0  0  0  0  0
    3.6611   -0.0983   -5.4033 H   0  0  0  0  0  0  0  0  0  0  0  0
    2.6302    0.8461   -4.3099 H   0  0  0  0  0  0  0  0  0  0  0  0
    3.3217   -3.2920   -3.7606 N   0  0  0  0  0  0  0  0  0  0  0  0
    3.9319   -4.6050   -3.9135 C   0  0  0  0  0  0  0  0  0  0  0  0
    3.3390   -2.8332   -2.8450 H   0  0  0  0  0  0  0  0  0  0  0  0
    4.7248   -4.5732   -4.6682 H   0  0  0  0  0  0  0  0  0  0  0  0
    4.3699   -4.9280   -2.9641 H   0  0  0  0  0  0  0  0  0  0  0  0
    3.1828   -5.3431   -4.2184 H   0  0  0  0  0  0  0  0  0  0  0  0
  1  2  2  0  0  0  0
  1  3  1  0  0  0  0
  1  7  1  0  0  0  0
  3  4  1  0  0  0  0
  3  5  1  0  0  0  0
  3  6  1  0  0  0  0
  7  8  1  0  0  0  0
  7 12  1  0  0  0  0
  8  9  1  0  0  0  0
  8 11  1  0  0  0  0
  8 13  1  0  0  0  0
  9 10  2  0  0  0  0
  9 17  1  0  0  0  0
 11 14  1  0  0  0  0
 11 15  1  0  0  0  0
 11 16  1  0  0  0  0
 17 18  1  0  0  0  0
 17 23  1  0  0  0  0
 18 19  1  0  0  0  0
 18 21  1  0  0  0  0
 18 24  1  0  0  0  0
 19 20  2  0  0  0  0
 19 28  1  0  0  0  0
 21 22  1  0  0  0  0
 21 25  1  0  0  0  0
 21 26  1  0  0  0  0
 22 27  1  0  0  0  0
 28 29  1  0  0  0  0
 28 33  1  0  0  0  0
 29 30  1  0  0  0  0
 29 32  1  0  0  0  0
 29 34  1  0  0  0  0
 30 31  2  0  0  0  0
 30 38  1  0  0  0  0
 32 35  1  0  0  0  0
 32 36  1  0  0  0  0
 32 37  1  0  0  0  0
 38 39  1  0  0  0  0
 38 40  1  0  0  0  0
 39 41  1  0  0  0  0
 39 42  1  0  0  0  0
 39 43  1  0  0  0  0
M  END
$$$$

  -OEChem-05262217303D

 43 42  0     1  0  0  0  0  0999 V2000
    3.9573   -1.0242    4.0951 C   0  0  0  0  0  0  0  0  0  0  0  0
    3.5063   -0.0475    4.6730 O   0  0  0  0  0  0  0  0  0  0  0  0
    4.8702   -1.9891    4.8281 C   0  0  0  0  0  0  0  0  0  0  0  0
    5.8381   -2.0431    4.3238 H   0  0  0  0  0  0  0  0  0  0  0  0
    5.0267   -1.6524    5.8567 H   0  0  0  0  0  0  0  0  0  0  0  0
    4.4216   -2.9854    4.8479 H   0  0  0  0  0  0  0  0  0  0  0  0
    3.6250   -1.2616    2.7788 N   0  0  0  0  0  0  0  0  0  0  0  0
    2.5988   -0.5163    2.0392 C   0  0  2  0  0  0  0  0  0  0  0  0
    1.8716   -1.4170    1.0190 C   0  0  0  0  0  0  0  0  0  0  0  0
    2.2190   -2.5822    0.8674 O   0  0  0  0  0  0  0  0  0  0  0  0
    3.2714    0.6609    1.3274 C   0  0  0  0  0  0  0  0  0  0  0  0
    3.9005   -2.1614    2.3850 H   0  0  0  0  0  0  0  0  0  0  0  0
    1.8449   -0.1346    2.7360 H   0  0  0  0  0  0  0  0  0  0  0  0
    4.0078    0.2984    0.6027 H   0  0  0  0  0  0  0  0  0  0  0  0
    2.5290    1.2658    0.7989 H   0  0  0  0  0  0  0  0  0  0  0  0
    3.7822    1.3011    2.0538 H   0  0  0  0  0  0  0  0  0  0  0  0
    0.6788   -1.0165    0.4470 N   0  0  0  0  0  0  0  0  0  0  0  0
    0.3774   -1.0869   -1.0026 C   0  0  2  0  0  0  0  0  0  0  0  0
    1.5010   -1.2902   -2.0673 C   0  0  0  0  0  0  0  0  0  0  0  0
    2.6050   -1.7343   -1.8010 O   0  0  0  0  0  0  0  0  0  0  0  0
   -0.4318    0.1885   -1.2883 C   0  0  0  0  0  0  0  0  0  0  0  0
    0.3833    1.3527   -1.1000 O   0  0  0  0  0  0  0  0  0  0  0  0
    0.3686   -0.1343    0.8488 H   0  0  0  0  0  0  0  0  0  0  0  0
   -0.2850   -1.9469   -1.1388 H   0  0  0  0  0  0  0  0  0  0  0  0
   -1.2865    0.2366   -0.6047 H   0  0  0  0  0  0  0  0  0  0  0  0
   -0.8403    0.1741   -2.3034 H   0  0  0  0  0  0  0  0  0  0  0  0
    1.1352    1.3744   -1.7208 H   0  0  0  0  0  0  0  0  0  0  0  0
    1.3412   -0.7574   -3.3420 N   0  0  0  0  0  0  0  0  0  0  0  0
    2.3239   -0.7627   -4.4489 C   0  0  2  0  0  0  0  0  0  0  0  0
    2.6767   -2.1671   -4.9937 C   0  0  0  0  0  0  0  0  0  0  0  0
    2.4684   -2.4165   -6.1736 O   0  0  0  0  0  0  0  0  0  0  0  0
    3.5923    0.0250   -4.0880 C   0  0  0  0  0  0  0  0  0  0  0  0
    0.4001   -0.4565   -3.5788 H   0  0  0  0  0  0  0  0  0  0  0  0
    1.8562   -0.2296   -5.2833 H   0  0  0  0  0  0  0  0  0  0  0  0
    4.1962   -0.5054   -3.3461 H   0  0  0  0  0  0  0  0  0  0  0  0
    4.2074    0.1704   -4.9817 H   0  0  0  0  0  0  0  0  0  0  0  0
    3.3294    1.0076   -3.6861 H   0  0  0  0  0  0  0  0  0  0  0  0
    3.1914   -3.1507   -4.1731 N   0  0  0  0  0  0  0  0  0  0  0  0
    3.4710   -4.5117   -4.6083 C   0  0  0  0  0  0  0  0  0  0  0  0
    3.2649   -2.9171   -3.1782 H   0  0  0  0  0  0  0  0  0  0  0  0
    3.8931   -5.0916   -3.7820 H   0  0  0  0  0  0  0  0  0  0  0  0
    2.5519   -5.0030   -4.9435 H   0  0  0  0  0  0  0  0  0  0  0  0
    4.1919   -4.5097   -5.4325 H   0  0  0  0  0  0  0  0  0  0  0  0
  1  2  2  0  0  0  0
  1  3  1  0  0  0  0
  1  7  1  0  0  0  0
  3  4  1  0  0  0  0
  3  5  1  0  0  0  0
  3  6  1  0  0  0  0
  7  8  1  0  0  0  0
  7 12  1  0  0  0  0
  8  9  1  0  0  0  0
  8 11  1  0  0  0  0
  8 13  1  0  0  0  0
  9 10  2  0  0  0  0
  9 17  1  0  0  0  0
 11 14  1  0  0  0  0
 11 15  1  0  0  0  0
 11 16  1  0  0  0  0
 17 18  1  0  0  0  0
 17 23  1  0  0  0  0
 18 19  1  0  0  0  0
 18 21  1  0  0  0  0
 18 24  1  0  0  0  0
 19 20  2  0  0  0  0
 19 28  1  0  0  0  0
 21 22  1  0  0  0  0
 21 25  1  0  0  0  0
 21 26  1  0  0  0  0
 22 27  1  0  0  0  0
 28 29  1  0  0  0  0
 28 33  1  0  0  0  0
 29 30  1  0  0  0  0
 29 32  1  0  0  0  0
 29 34  1  0  0  0  0
 30 31  2  0  0  0  0
 30 38  1  0  0  0  0
 32 35  1  0  0  0  0
 32 36  1  0  0  0  0
 32 37  1  0  0  0  0
 38 39  1  0  0  0  0
 38 40  1  0  0  0  0
 39 41  1  0  0  0  0
 39 42  1  0  0  0  0
 39 43  1  0  0  0  0
M  END
$$$$

  -OEChem-05262217303D

 43 42  0     1  0  0  0  0  0999 V2000
    1.8573   -1.9567    2.3579 C   0  0  0  0  0  0  0  0  0  0  0  0
    0.7055   -1.5508    2.4367 O   0  0  0  0  0  0  0  0  0  0  0  0
    2.1425   -3.4417    2.2469 C   0  0  0  0  0  0  0  0  0  0  0  0
    2.8458   -3.7461    3.0260 H   0  0  0  0  0  0  0  0  0  0  0  0
    1.2184   -4.0146    2.3640 H   0  0  0  0  0  0  0  0  0  0  0  0
    2.5749   -3.6653    1.2682 H   0  0  0  0  0  0  0  0  0  0  0  0
    2.8909   -1.0488    2.2629 N   0  0  0  0  0  0  0  0  0  0  0  0
    2.6856    0.4030    2.1576 C   0  0  2  0  0  0  0  0  0  0  0  0
    2.1885    0.7949    0.7471 C   0  0  0  0  0  0  0  0  0  0  0  0
    2.8264    1.5265    0.0013 O   0  0  0  0  0  0  0  0  0  0  0  0
    4.0073    1.0835    2.5323 C   0  0  0  0  0  0  0  0  0  0  0  0
    3.7930   -1.4210    1.9746 H   0  0  0  0  0  0  0  0  0  0  0  0
    1.9264    0.7242    2.8789 H   0  0  0  0  0  0  0  0  0  0  0  0
    4.8005    0.7966    1.8342 H   0  0  0  0  0  0  0  0  0  0  0  0
    3.8958    2.1719    2.4997 H   0  0  0  0  0  0  0  0  0  0  0  0
    4.3105    0.7980    3.5441 H   0  0  0  0  0  0  0  0  0  0  0  0
    0.9507    0.3759    0.2988 N   0  0  0  0  0  0  0  0  0  0  0  0
    0.8259   -0.5336   -0.8659 C   0  0  2  0  0  0  0  0  0  0  0  0
    2.0789   -0.7184   -1.7633 C   0  0  0  0  0  0  0  0  0  0  0  0
    3.0490   -1.2733   -1.2521 O   0  0  0  0  0  0  0  0  0  0  0  0
   -0.3615   -0.0239   -1.6923 C   0  0  0  0  0  0  0  0  0  0  0  0
   -0.0517    1.2619   -2.2367 O   0  0  0  0  0  0  0  0  0  0  0  0
    0.4198    0.0132    1.0954 H   0  0  0  0  0  0  0  0  0  0  0  0
    0.5768   -1.5325   -0.4952 H   0  0  0  0  0  0  0  0  0  0  0  0
   -1.2462    0.0552   -1.0514 H   0  0  0  0  0  0  0  0  0  0  0  0
   -0.6040   -0.7266   -2.4966 H   0  0  0  0  0  0  0  0  0  0  0  0
    0.3052    1.8401   -1.5319 H   0  0  0  0  0  0  0  0  0  0  0  0
    1.9866   -0.6814   -3.1464 N   0  0  0  0  0  0  0  0  0  0  0  0
    3.0800   -0.8895   -4.1194 C   0  0  2  0  0  0  0  0  0  0  0  0
    3.5478   -2.3536   -4.2887 C   0  0  0  0  0  0  0  0  0  0  0  0
    3.7154   -2.8076   -5.4132 O   0  0  0  0  0  0  0  0  0  0  0  0
    4.2698    0.0320   -3.8144 C   0  0  0  0  0  0  0  0  0  0  0  0
    1.1798   -0.1518   -3.4785 H   0  0  0  0  0  0  0  0  0  0  0  0
    2.6883   -0.5896   -5.0969 H   0  0  0  0  0  0  0  0  0  0  0  0
    4.7810   -0.2707   -2.8958 H   0  0  0  0  0  0  0  0  0  0  0  0
    4.9931   -0.0061   -4.6349 H   0  0  0  0  0  0  0  0  0  0  0  0
    3.9311    1.0662   -3.6989 H   0  0  0  0  0  0  0  0  0  0  0  0
    3.8043   -3.1588   -3.1975 N   0  0  0  0  0  0  0  0  0  0  0  0
    4.3180   -4.5182   -3.2869 C   0  0  0  0  0  0  0  0  0  0  0  0
    3.7084   -2.7113   -2.2827 H   0  0  0  0  0  0  0  0  0  0  0  0
    3.6242   -5.1530   -3.8476 H   0  0  0  0  0  0  0  0  0  0  0  0
    5.2904   -4.5274   -3.7903 H   0  0  0  0  0  0  0  0  0  0  0  0
    4.4418   -4.9410   -2.2855 H   0  0  0  0  0  0  0  0  0  0  0  0
  1  2  2  0  0  0  0
  1  3  1  0  0  0  0
  1  7  1  0  0  0  0
  3  4  1  0  0  0  0
  3  5  1  0  0  0  0
  3  6  1  0  0  0  0
  7  8  1  0  0  0  0
  7 12  1  0  0  0  0
  8  9  1  0  0  0  0
  8 11  1  0  0  0  0
  8 13  1  0  0  0  0
  9 10  2  0  0  0  0
  9 17  1  0  0  0  0
 11 14  1  0  0  0  0
 11 15  1  0  0  0  0
 11 16  1  0  0  0  0
 17 18  1  0  0  0  0
 17 23  1  0  0  0  0
 18 19  1  0  0  0  0
 18 21  1  0  0  0  0
 18 24  1  0  0  0  0
 19 20  2  0  0  0  0
 19 28  1  0  0  0  0
 21 22  1  0  0  0  0
 21 25  1  0  0  0  0
 21 26  1  0  0  0  0
 22 27  1  0  0  0  0
 28 29  1  0  0  0  0
 28 33  1  0  0  0  0
 29 30  1  0  0  0  0
 29 32  1  0  0  0  0
 29 34  1  0  0  0  0
 30 31  2  0  0  0  0
 30 38  1  0  0  0  0
 32 35  1  0  0  0  0
 32 36  1  0  0  0  0
 32 37  1  0  0  0  0
 38 39  1  0  0  0  0
 38 40  1  0  0  0  0
 39 41  1  0  0  0  0
 39 42  1  0  0  0  0
 39 43  1  0  0  0  0
M  END
$$$$

  -OEChem-05262217303D

 43 42  0     1  0  0  0  0  0999 V2000
    2.1421   -1.8213    3.1311 C   0  0  0  0  0  0  0  0  0  0  0  0
    0.9737   -1.5301    2.9171 O   0  0  0  0  0  0  0  0  0  0  0  0
    2.5076   -3.1925    3.6670 C   0  0  0  0  0  0  0  0  0  0  0  0
    3.0265   -3.0942    4.6239 H   0  0  0  0  0  0  0  0  0  0  0  0
    1.6054   -3.7925    3.8165 H   0  0  0  0  0  0  0  0  0  0  0  0
    3.1598   -3.7095    2.9587 H   0  0  0  0  0  0  0  0  0  0  0  0
    3.1314   -0.9098    2.8245 N   0  0  0  0  0  0  0  0  0  0  0  0
    2.8784    0.4336    2.2801 C   0  0  2  0  0  0  0  0  0  0  0  0
    2.4875    0.3974    0.7822 C   0  0  0  0  0  0  0  0  0  0  0  0
    3.1203    1.0202   -0.0588 O   0  0  0  0  0  0  0  0  0  0  0  0
    4.1282    1.2809    2.5515 C   0  0  0  0  0  0  0  0  0  0  0  0
    4.0953   -1.2185    2.9212 H   0  0  0  0  0  0  0  0  0  0  0  0
    2.0436    0.8929    2.8205 H   0  0  0  0  0  0  0  0  0  0  0  0
    4.9936    0.8742    2.0182 H   0  0  0  0  0  0  0  0  0  0  0  0
    3.9683    2.3104    2.2149 H   0  0  0  0  0  0  0  0  0  0  0  0
    4.3526    1.3008    3.6224 H   0  0  0  0  0  0  0  0  0  0  0  0
    1.2907   -0.1937    0.4163 N   0  0  0  0  0  0  0  0  0  0  0  0
    1.0935   -1.0082   -0.8071 C   0  0  2  0  0  0  0  0  0  0  0  0
    2.1761   -0.9403   -1.9149 C   0  0  0  0  0  0  0  0  0  0  0  0
    3.2175   -1.5591   -1.7199 O   0  0  0  0  0  0  0  0  0  0  0  0
   -0.2898   -0.6423   -1.3642 C   0  0  0  0  0  0  0  0  0  0  0  0
   -0.3039    0.7194   -1.8082 O   0  0  0  0  0  0  0  0  0  0  0  0
    0.8176   -0.5771    1.2411 H   0  0  0  0  0  0  0  0  0  0  0  0
    1.0631   -2.0588   -0.5031 H   0  0  0  0  0  0  0  0  0  0  0  0
   -1.0473   -0.7803   -0.5851 H   0  0  0  0  0  0  0  0  0  0  0  0
   -0.5504   -1.3066   -2.1953 H   0  0  0  0  0  0  0  0  0  0  0  0
    0.0128    1.3027   -1.0909 H   0  0  0  0  0  0  0  0  0  0  0  0
    1.8767   -0.5072   -3.1974 N   0  0  0  0  0  0  0  0  0  0  0  0
    2.8129   -0.3632   -4.3311 C   0  0  2  0  0  0  0  0  0  0  0  0
    3.2628   -1.6881   -4.9888 C   0  0  0  0  0  0  0  0  0  0  0  0
    3.2765   -1.7808   -6.2099 O   0  0  0  0  0  0  0  0  0  0  0  0
    4.0266    0.4894   -3.9342 C   0  0  0  0  0  0  0  0  0  0  0  0
    1.0026    0.0193   -3.2512 H   0  0  0  0  0  0  0  0  0  0  0  0
    2.2767    0.1888   -5.1097 H   0  0  0  0  0  0  0  0  0  0  0  0
    4.6764   -0.0468   -3.2363 H   0  0  0  0  0  0  0  0  0  0  0  0
    4.6145    0.7417   -4.8221 H   0  0  0  0  0  0  0  0  0  0  0  0
    3.7000    1.4194   -3.4587 H   0  0  0  0  0  0  0  0  0  0  0  0
    3.6703   -2.7673   -4.2307 N   0  0  0  0  0  0  0  0  0  0  0  0
    4.1773   -4.0131   -4.7881 C   0  0  0  0  0  0  0  0  0  0  0  0
    3.7070   -2.6126   -3.2195 H   0  0  0  0  0  0  0  0  0  0  0  0
    4.4151   -4.7162   -3.9843 H   0  0  0  0  0  0  0  0  0  0  0  0
    3.4282   -4.4740   -5.4400 H   0  0  0  0  0  0  0  0  0  0  0  0
    5.0866   -3.8291   -5.3694 H   0  0  0  0  0  0  0  0  0  0  0  0
  1  2  2  0  0  0  0
  1  3  1  0  0  0  0
  1  7  1  0  0  0  0
  3  4  1  0  0  0  0
  3  5  1  0  0  0  0
  3  6  1  0  0  0  0
  7  8  1  0  0  0  0
  7 12  1  0  0  0  0
  8  9  1  0  0  0  0
  8 11  1  0  0  0  0
  8 13  1  0  0  0  0
  9 10  2  0  0  0  0
  9 17  1  0  0  0  0
 11 14  1  0  0  0  0
 11 15  1  0  0  0  0
 11 16  1  0  0  0  0
 17 18  1  0  0  0  0
 17 23  1  0  0  0  0
 18 19  1  0  0  0  0
 18 21  1  0  0  0  0
 18 24  1  0  0  0  0
 19 20  2  0  0  0  0
 19 28  1  0  0  0  0
 21 22  1  0  0  0  0
 21 25  1  0  0  0  0
 21 26  1  0  0  0  0
 22 27  1  0  0  0  0
 28 29  1  0  0  0  0
 28 33  1  0  0  0  0
 29 30  1  0  0  0  0
 29 32  1  0  0  0  0
 29 34  1  0  0  0  0
 30 31  2  0  0  0  0
 30 38  1  0  0  0  0
 32 35  1  0  0  0  0
 32 36  1  0  0  0  0
 32 37  1  0  0  0  0
 38 39  1  0  0  0  0
 38 40  1  0  0  0  0
 39 41  1  0  0  0  0
 39 42  1  0  0  0  0
 39 43  1  0  0  0  0
M  END
$$$$

  -OEChem-05262217303D

 43 42  0     1  0  0  0  0  0999 V2000
    3.6686   -1.7749    3.9246 C   0  0  0  0  0  0  0  0  0  0  0  0
    2.6342   -2.0372    4.5179 O   0  0  0  0  0  0  0  0  0  0  0  0
    4.9392   -2.5430    4.2355 C   0  0  0  0  0  0  0  0  0  0  0  0
    5.7182   -1.8551    4.5733 H   0  0  0  0  0  0  0  0  0  0  0  0
    4.7525   -3.2775    5.0239 H   0  0  0  0  0  0  0  0  0  0  0  0
    5.2871   -3.0667    3.3417 H   0  0  0  0  0  0  0  0  0  0  0  0
    3.6843   -0.7837    2.9653 N   0  0  0  0  0  0  0  0  0  0  0  0
    2.4806   -0.1238    2.4417 C   0  0  2  0  0  0  0  0  0  0  0  0
    2.3823   -0.2603    0.9086 C   0  0  0  0  0  0  0  0  0  0  0  0
    3.4095   -0.2499    0.2461 O   0  0  0  0  0  0  0  0  0  0  0  0
    2.5412    1.3501    2.8485 C   0  0  0  0  0  0  0  0  0  0  0  0
    4.5234   -0.7221    2.3902 H   0  0  0  0  0  0  0  0  0  0  0  0
    1.5786   -0.5710    2.8719 H   0  0  0  0  0  0  0  0  0  0  0  0
    3.4289    1.8290    2.4223 H   0  0  0  0  0  0  0  0  0  0  0  0
    1.6537    1.8833    2.4947 H   0  0  0  0  0  0  0  0  0  0  0  0
    2.5866    1.4392    3.9387 H   0  0  0  0  0  0  0  0  0  0  0  0
    1.1367   -0.2487    0.2978 N   0  0  0  0  0  0  0  0  0  0  0  0
    0.8125   -0.7521   -1.0625 C   0  0  2  0  0  0  0  0  0  0  0  0
    1.9644   -1.0393   -2.0613 C   0  0  0  0  0  0  0  0  0  0  0  0
    2.4829   -2.1493   -2.0293 O   0  0  0  0  0  0  0  0  0  0  0  0
   -0.2087    0.2234   -1.6690 C   0  0  0  0  0  0  0  0  0  0  0  0
    0.3730    1.5174   -1.8803 O   0  0  0  0  0  0  0  0  0  0  0  0
    0.3645   -0.2487    0.9589 H   0  0  0  0  0  0  0  0  0  0  0  0
    0.3124   -1.7179   -0.9387 H   0  0  0  0  0  0  0  0  0  0  0  0
   -1.0723    0.3154   -1.0022 H   0  0  0  0  0  0  0  0  0  0  0  0
   -0.5733   -0.1717   -2.6235 H   0  0  0  0  0  0  0  0  0  0  0  0
    0.7147    1.8781   -1.0409 H   0  0  0  0  0  0  0  0  0  0  0  0
    2.2389   -0.1875   -3.1199 N   0  0  0  0  0  0  0  0  0  0  0  0
    3.3253   -0.3048   -4.1136 C   0  0  2  0  0  0  0  0  0  0  0  0
    3.1493   -1.4341   -5.1545 C   0  0  0  0  0  0  0  0  0  0  0  0
    3.3206   -1.1914   -6.3425 O   0  0  0  0  0  0  0  0  0  0  0  0
    4.6891   -0.4130   -3.4181 C   0  0  0  0  0  0  0  0  0  0  0  0
    1.7254    0.6952   -3.0873 H   0  0  0  0  0  0  0  0  0  0  0  0
    3.3307    0.6296   -4.6840 H   0  0  0  0  0  0  0  0  0  0  0  0
    4.7969   -1.3739   -2.9064 H   0  0  0  0  0  0  0  0  0  0  0  0
    5.4938   -0.3262   -4.1547 H   0  0  0  0  0  0  0  0  0  0  0  0
    4.8048    0.3872   -2.6807 H   0  0  0  0  0  0  0  0  0  0  0  0
    2.8231   -2.7194   -4.7722 N   0  0  0  0  0  0  0  0  0  0  0  0
    2.6958   -3.8403   -5.6919 C   0  0  0  0  0  0  0  0  0  0  0  0
    2.7287   -2.8769   -3.7651 H   0  0  0  0  0  0  0  0  0  0  0  0
    2.4549   -4.7540   -5.1404 H   0  0  0  0  0  0  0  0  0  0  0  0
    1.8969   -3.6516   -6.4165 H   0  0  0  0  0  0  0  0  0  0  0  0
    3.6341   -3.9993   -6.2333 H   0  0  0  0  0  0  0  0  0  0  0  0
  1  2  2  0  0  0  0
  1  3  1  0  0  0  0
  1  7  1  0  0  0  0
  3  4  1  0  0  0  0
  3  5  1  0  0  0  0
  3  6  1  0  0  0  0
  7  8  1  0  0  0  0
  7 12  1  0  0  0  0
  8  9  1  0  0  0  0
  8 11  1  0  0  0  0
  8 13  1  0  0  0  0
  9 10  2  0  0  0  0
  9 17  1  0  0  0  0
 11 14  1  0  0  0  0
 11 15  1  0  0  0  0
 11 16  1  0  0  0  0
 17 18  1  0  0  0  0
 17 23  1  0  0  0  0
 18 19  1  0  0  0  0
 18 21  1  0  0  0  0
 18 24  1  0  0  0  0
 19 20  2  0  0  0  0
 19 28  1  0  0  0  0
 21 22  1  0  0  0  0
 21 25  1  0  0  0  0
 21 26  1  0  0  0  0
 22 27  1  0  0  0  0
 28 29  1  0  0  0  0
 28 33  1  0  0  0  0
 29 30  1  0  0  0  0
 29 32  1  0  0  0  0
 29 34  1  0  0  0  0
 30 31  2  0  0  0  0
 30 38  1  0  0  0  0
 32 35  1  0  0  0  0
 32 36  1  0  0  0  0
 32 37  1  0  0  0  0
 38 39  1  0  0  0  0
 38 40  1  0  0  0  0
 39 41  1  0  0  0  0
 39 42  1  0  0  0  0
 39 43  1  0  0  0  0
M  END
$$$$

  -OEChem-05262217303D

 43 42  0     1  0  0  0  0  0999 V2000
    3.6549   -1.3239    4.4575 C   0  0  0  0  0  0  0  0  0  0  0  0
    2.7376   -0.9834    5.1882 O   0  0  0  0  0  0  0  0  0  0  0  0
    4.8280   -2.1048    5.0194 C   0  0  0  0  0  0  0  0  0  0  0  0
    5.7534   -1.5416    4.8766 H   0  0  0  0  0  0  0  0  0  0  0  0
    4.6849   -2.2823    6.0890 H   0  0  0  0  0  0  0  0  0  0  0  0
    4.9137   -3.0684    4.5109 H   0  0  0  0  0  0  0  0  0  0  0  0
    3.6182   -1.0086    3.1158 N   0  0  0  0  0  0  0  0  0  0  0  0
    2.4613   -0.4079    2.4392 C   0  0  2  0  0  0  0  0  0  0  0  0
    2.3340   -0.8956    0.9805 C   0  0  0  0  0  0  0  0  0  0  0  0
    3.2911   -1.4414    0.4493 O   0  0  0  0  0  0  0  0  0  0  0  0
    2.6132    1.1157    2.4847 C   0  0  0  0  0  0  0  0  0  0  0  0
    4.3351   -1.4197    2.5179 H   0  0  0  0  0  0  0  0  0  0  0  0
    1.5415   -0.6954    2.9597 H   0  0  0  0  0  0  0  0  0  0  0  0
    3.5268    1.4243    1.9665 H   0  0  0  0  0  0  0  0  0  0  0  0
    1.7591    1.6034    2.0056 H   0  0  0  0  0  0  0  0  0  0  0  0
    2.6683    1.4598    3.5225 H   0  0  0  0  0  0  0  0  0  0  0  0
    1.1405   -0.7001    0.3026 N   0  0  0  0  0  0  0  0  0  0  0  0
    0.8451   -0.9889   -1.1209 C   0  0  2  0  0  0  0  0  0  0  0  0
    2.0278   -1.2413   -2.0864 C   0  0  0  0  0  0  0  0  0  0  0  0
    2.2794   -2.3933   -2.4206 O   0  0  0  0  0  0  0  0  0  0  0  0
   -0.0897    0.1119   -1.6516 C   0  0  0  0  0  0  0  0  0  0  0  0
    0.5511    1.3969   -1.6835 O   0  0  0  0  0  0  0  0  0  0  0  0
    0.4414   -0.1695    0.8134 H   0  0  0  0  0  0  0  0  0  0  0  0
    0.2773   -1.9248   -1.1342 H   0  0  0  0  0  0  0  0  0  0  0  0
   -0.9817    0.1668   -1.0190 H   0  0  0  0  0  0  0  0  0  0  0  0
   -0.4189   -0.1524   -2.6626 H   0  0  0  0  0  0  0  0  0  0  0  0
   -0.0601    2.0795   -2.0195 H   0  0  0  0  0  0  0  0  0  0  0  0
    2.6143   -0.1882   -2.7676 N   0  0  0  0  0  0  0  0  0  0  0  0
    3.7756   -0.2377   -3.6776 C   0  0  2  0  0  0  0  0  0  0  0  0
    3.5036   -0.8869   -5.0537 C   0  0  0  0  0  0  0  0  0  0  0  0
    3.8482   -0.3034   -6.0739 O   0  0  0  0  0  0  0  0  0  0  0  0
    4.9771   -0.8978   -2.9877 C   0  0  0  0  0  0  0  0  0  0  0  0
    2.2837    0.7295   -2.4675 H   0  0  0  0  0  0  0  0  0  0  0  0
    4.0578    0.7993   -3.8855 H   0  0  0  0  0  0  0  0  0  0  0  0
    4.8054   -1.9666   -2.8290 H   0  0  0  0  0  0  0  0  0  0  0  0
    5.8732   -0.7838   -3.6054 H   0  0  0  0  0  0  0  0  0  0  0  0
    5.1621   -0.4293   -2.0163 H   0  0  0  0  0  0  0  0  0  0  0  0
    2.8867   -2.1169   -5.1590 N   0  0  0  0  0  0  0  0  0  0  0  0
    2.6420   -2.8076   -6.4166 C   0  0  0  0  0  0  0  0  0  0  0  0
    2.6408   -2.5712   -4.2748 H   0  0  0  0  0  0  0  0  0  0  0  0
    2.1085   -3.7451   -6.2333 H   0  0  0  0  0  0  0  0  0  0  0  0
    2.0327   -2.1872   -7.0821 H   0  0  0  0  0  0  0  0  0  0  0  0
    3.5885   -3.0383   -6.9163 H   0  0  0  0  0  0  0  0  0  0  0  0
  1  2  2  0  0  0  0
  1  3  1  0  0  0  0
  1  7  1  0  0  0  0
  3  4  1  0  0  0  0
  3  5  1  0  0  0  0
  3  6  1  0  0  0  0
  7  8  1  0  0  0  0
  7 12  1  0  0  0  0
  8  9  1  0  0  0  0
  8 11  1  0  0  0  0
  8 13  1  0  0  0  0
  9 10  2  0  0  0  0
  9 17  1  0  0  0  0
 11 14  1  0  0  0  0
 11 15  1  0  0  0  0
 11 16  1  0  0  0  0
 17 18  1  0  0  0  0
 17 23  1  0  0  0  0
 18 19  1  0  0  0  0
 18 21  1  0  0  0  0
 18 24  1  0  0  0  0
 19 20  2  0  0  0  0
 19 28  1  0  0  0  0
 21 22  1  0  0  0  0
 21 25  1  0  0  0  0
 21 26  1  0  0  0  0
 22 27  1  0  0  0  0
 28 29  1  0  0  0  0
 28 33  1  0  0  0  0
 29 30  1  0  0  0  0
 29 32  1  0  0  0  0
 29 34  1  0  0  0  0
 30 31  2  0  0  0  0
 30 38  1  0  0  0  0
 32 35  1  0  0  0  0
 32 36  1  0  0  0  0
 32 37  1  0  0  0  0
 38 39  1  0  0  0  0
 38 40  1  0  0  0  0
 39 41  1  0  0  0  0
 39 42  1  0  0  0  0
 39 43  1  0  0  0  0
M  END
$$$$

  -OEChem-05262217303D

 43 42  0     1  0  0  0  0  0999 V2000
    3.5600   -1.2912    4.5146 C   0  0  0  0  0  0  0  0  0  0  0  0
    2.6505   -0.8759    5.2156 O   0  0  0  0  0  0  0  0  0  0  0  0
    4.6828   -2.1088    5.1246 C   0  0  0  0  0  0  0  0  0  0  0  0
    5.6372   -1.5964    4.9814 H   0  0  0  0  0  0  0  0  0  0  0  0
    4.5118   -2.2438    6.1962 H   0  0  0  0  0  0  0  0  0  0  0  0
    4.7294   -3.0916    4.6491 H   0  0  0  0  0  0  0  0  0  0  0  0
    3.5622   -1.0254    3.1619 N   0  0  0  0  0  0  0  0  0  0  0  0
    2.4462   -0.3999    2.4406 C   0  0  2  0  0  0  0  0  0  0  0  0
    2.2985   -0.9711    1.0147 C   0  0  0  0  0  0  0  0  0  0  0  0
    3.2260   -1.6012    0.5248 O   0  0  0  0  0  0  0  0  0  0  0  0
    2.6920    1.1111    2.3906 C   0  0  0  0  0  0  0  0  0  0  0  0
    4.2634   -1.5015    2.5945 H   0  0  0  0  0  0  0  0  0  0  0  0
    1.5077   -0.5960    2.9701 H   0  0  0  0  0  0  0  0  0  0  0  0
    3.6177    1.3308    1.8488 H   0  0  0  0  0  0  0  0  0  0  0  0
    1.8645    1.6199    1.8872 H   0  0  0  0  0  0  0  0  0  0  0  0
    2.7784    1.5139    3.4049 H   0  0  0  0  0  0  0  0  0  0  0  0
    1.1182   -0.7674    0.3174 N   0  0  0  0  0  0  0  0  0  0  0  0
    0.8600   -1.0532   -1.1138 C   0  0  2  0  0  0  0  0  0  0  0  0
    2.0646   -1.3047   -2.0501 C   0  0  0  0  0  0  0  0  0  0  0  0
    2.1994   -2.4113   -2.5597 O   0  0  0  0  0  0  0  0  0  0  0  0
   -0.0364    0.0648   -1.6685 C   0  0  0  0  0  0  0  0  0  0  0  0
    0.6376    1.3329   -1.6764 O   0  0  0  0  0  0  0  0  0  0  0  0
    0.4414   -0.1753    0.7896 H   0  0  0  0  0  0  0  0  0  0  0  0
    0.2813   -1.9815   -1.1469 H   0  0  0  0  0  0  0  0  0  0  0  0
   -0.9471    0.1374   -1.0648 H   0  0  0  0  0  0  0  0  0  0  0  0
   -0.3369   -0.1906   -2.6906 H   0  0  0  0  0  0  0  0  0  0  0  0
    0.0729    2.0214   -2.0755 H   0  0  0  0  0  0  0  0  0  0  0  0
    2.8556   -0.2475   -2.4665 N   0  0  0  0  0  0  0  0  0  0  0  0
    4.0641   -0.2991   -3.3116 C   0  0  2  0  0  0  0  0  0  0  0  0
    3.8035   -0.6352   -4.7972 C   0  0  0  0  0  0  0  0  0  0  0  0
    4.2510    0.0978   -5.6705 O   0  0  0  0  0  0  0  0  0  0  0  0
    5.1084   -1.2486   -2.7085 C   0  0  0  0  0  0  0  0  0  0  0  0
    2.5775    0.6555   -2.0829 H   0  0  0  0  0  0  0  0  0  0  0  0
    4.5022    0.7038   -3.3006 H   0  0  0  0  0  0  0  0  0  0  0  0
    4.7782   -2.2898   -2.7674 H   0  0  0  0  0  0  0  0  0  0  0  0
    6.0547   -1.1593   -3.2506 H   0  0  0  0  0  0  0  0  0  0  0  0
    5.2850   -1.0007   -1.6573 H   0  0  0  0  0  0  0  0  0  0  0  0
    3.0767   -1.7501   -5.1628 N   0  0  0  0  0  0  0  0  0  0  0  0
    2.8054   -2.1370   -6.5396 C   0  0  0  0  0  0  0  0  0  0  0  0
    2.7148   -2.3220   -4.3942 H   0  0  0  0  0  0  0  0  0  0  0  0
    2.2270   -3.0655   -6.5631 H   0  0  0  0  0  0  0  0  0  0  0  0
    2.2310   -1.3570   -7.0501 H   0  0  0  0  0  0  0  0  0  0  0  0
    3.7423   -2.2992   -7.0825 H   0  0  0  0  0  0  0  0  0  0  0  0
  1  2  2  0  0  0  0
  1  3  1  0  0  0  0
  1  7  1  0  0  0  0
  3  4  1  0  0  0  0
  3  5  1  0  0  0  0
  3  6  1  0  0  0  0
  7  8  1  0  0  0  0
  7 12  1  0  0  0  0
  8  9  1  0  0  0  0
  8 11  1  0  0  0  0
  8 13  1  0  0  0  0
  9 10  2  0  0  0  0
  9 17  1  0  0  0  0
 11 14  1  0  0  0  0
 11 15  1  0  0  0  0
 11 16  1  0  0  0  0
 17 18  1  0  0  0  0
 17 23  1  0  0  0  0
 18 19  1  0  0  0  0
 18 21  1  0  0  0  0
 18 24  1  0  0  0  0
 19 20  2  0  0  0  0
 19 28  1  0  0  0  0
 21 22  1  0  0  0  0
 21 25  1  0  0  0  0
 21 26  1  0  0  0  0
 22 27  1  0  0  0  0
 28 29  1  0  0  0  0
 28 33  1  0  0  0  0
 29 30  1  0  0  0  0
 29 32  1  0  0  0  0
 29 34  1  0  0  0  0
 30 31  2  0  0  0  0
 30 38  1  0  0  0  0
 32 35  1  0  0  0  0
 32 36  1  0  0  0  0
 32 37  1  0  0  0  0
 38 39  1  0  0  0  0
 38 40  1  0  0  0  0
 39 41  1  0  0  0  0
 39 42  1  0  0  0  0
 39 43  1  0  0  0  0
M  END
$$$$

  -OEChem-05262217303D

 43 42  0     1  0  0  0  0  0999 V2000
    3.3855   -1.2425    4.6564 C   0  0  0  0  0  0  0  0  0  0  0  0
    2.4295   -0.8462    5.3039 O   0  0  0  0  0  0  0  0  0  0  0  0
    4.4875   -2.0375    5.3313 C   0  0  0  0  0  0  0  0  0  0  0  0
    5.4434   -1.5204    5.2190 H   0  0  0  0  0  0  0  0  0  0  0  0
    4.2714   -2.1510    6.3974 H   0  0  0  0  0  0  0  0  0  0  0  0
    4.5624   -3.0298    4.8799 H   0  0  0  0  0  0  0  0  0  0  0  0
    3.4560   -0.9800    3.3044 N   0  0  0  0  0  0  0  0  0  0  0  0
    2.3720   -0.3679    2.5247 C   0  0  2  0  0  0  0  0  0  0  0  0
    2.3190   -0.9201    1.0846 C   0  0  0  0  0  0  0  0  0  0  0  0
    3.2892   -1.5093    0.6271 O   0  0  0  0  0  0  0  0  0  0  0  0
    2.5847    1.1490    2.5118 C   0  0  0  0  0  0  0  0  0  0  0  0
    4.2042   -1.4313    2.7791 H   0  0  0  0  0  0  0  0  0  0  0  0
    1.4081   -0.5920    2.9949 H   0  0  0  0  0  0  0  0  0  0  0  0
    3.5432    1.3976    2.0451 H   0  0  0  0  0  0  0  0  0  0  0  0
    1.7853    1.6464    1.9542 H   0  0  0  0  0  0  0  0  0  0  0  0
    2.5843    1.5395    3.5347 H   0  0  0  0  0  0  0  0  0  0  0  0
    1.1777   -0.7332    0.3224 N   0  0  0  0  0  0  0  0  0  0  0  0
    0.9593   -1.0783   -1.1027 C   0  0  2  0  0  0  0  0  0  0  0  0
    2.1754   -1.3989   -1.9981 C   0  0  0  0  0  0  0  0  0  0  0  0
    2.1070   -2.3636   -2.7496 O   0  0  0  0  0  0  0  0  0  0  0  0
    0.1122    0.0268   -1.7495 C   0  0  0  0  0  0  0  0  0  0  0  0
    0.8117    1.2771   -1.8023 O   0  0  0  0  0  0  0  0  0  0  0  0
    0.4579   -0.1646    0.7616 H   0  0  0  0  0  0  0  0  0  0  0  0
    0.3591   -1.9939   -1.1076 H   0  0  0  0  0  0  0  0  0  0  0  0
   -0.8083    0.1569   -1.1709 H   0  0  0  0  0  0  0  0  0  0  0  0
   -0.1770   -0.2730   -2.7627 H   0  0  0  0  0  0  0  0  0  0  0  0
    1.4212    1.3010   -2.5645 H   0  0  0  0  0  0  0  0  0  0  0  0
    3.1664   -0.4470   -2.1840 N   0  0  0  0  0  0  0  0  0  0  0  0
    4.3571   -0.5634   -3.0491 C   0  0  2  0  0  0  0  0  0  0  0  0
    4.0516   -0.5024   -4.5629 C   0  0  0  0  0  0  0  0  0  0  0  0
    4.5105    0.4137   -5.2327 O   0  0  0  0  0  0  0  0  0  0  0  0
    5.1815   -1.8090   -2.6928 C   0  0  0  0  0  0  0  0  0  0  0  0
    3.2056    0.2470   -1.4414 H   0  0  0  0  0  0  0  0  0  0  0  0
    4.9897    0.3043   -2.8354 H   0  0  0  0  0  0  0  0  0  0  0  0
    4.6531   -2.7283   -2.9614 H   0  0  0  0  0  0  0  0  0  0  0  0
    6.1342   -1.7947   -3.2310 H   0  0  0  0  0  0  0  0  0  0  0  0
    5.3900   -1.8305   -1.6186 H   0  0  0  0  0  0  0  0  0  0  0  0
    3.2264   -1.4304   -5.1652 N   0  0  0  0  0  0  0  0  0  0  0  0
    2.8093   -1.3674   -6.5589 C   0  0  0  0  0  0  0  0  0  0  0  0
    2.7692   -2.0945   -4.5339 H   0  0  0  0  0  0  0  0  0  0  0  0
    2.2042   -2.2438   -6.8104 H   0  0  0  0  0  0  0  0  0  0  0  0
    2.2120   -0.4680   -6.7399 H   0  0  0  0  0  0  0  0  0  0  0  0
    3.6820   -1.3504   -7.2200 H   0  0  0  0  0  0  0  0  0  0  0  0
  1  2  2  0  0  0  0
  1  3  1  0  0  0  0
  1  7  1  0  0  0  0
  3  4  1  0  0  0  0
  3  5  1  0  0  0  0
  3  6  1  0  0  0  0
  7  8  1  0  0  0  0
  7 12  1  0  0  0  0
  8  9  1  0  0  0  0
  8 11  1  0  0  0  0
  8 13  1  0  0  0  0
  9 10  2  0  0  0  0
  9 17  1  0  0  0  0
 11 14  1  0  0  0  0
 11 15  1  0  0  0  0
 11 16  1  0  0  0  0
 17 18  1  0  0  0  0
 17 23  1  0  0  0  0
 18 19  1  0  0  0  0
 18 21  1  0  0  0  0
 18 24  1  0  0  0  0
 19 20  2  0  0  0  0
 19 28  1  0  0  0  0
 21 22  1  0  0  0  0
 21 25  1  0  0  0  0
 21 26  1  0  0  0  0
 22 27  1  0  0  0  0
 28 29  1  0  0  0  0
 28 33  1  0  0  0  0
 29 30  1  0  0  0  0
 29 32  1  0  0  0  0
 29 34  1  0  0  0  0
 30 31  2  0  0  0  0
 30 38  1  0  0  0  0
 32 35  1  0  0  0  0
 32 36  1  0  0  0  0
 32 37  1  0  0  0  0
 38 39  1  0  0  0  0
 38 40  1  0  0  0  0
 39 41  1  0  0  0  0
 39 42  1  0  0  0  0
 39 43  1  0  0  0  0
M  END
$$$$

  -OEChem-05262217303D

 43 42  0     1  0  0  0  0  0999 V2000
    3.2515   -1.1357    4.7604 C   0  0  0  0  0  0  0  0  0  0  0  0
    2.3017   -0.6568    5.3592 O   0  0  0  0  0  0  0  0  0  0  0  0
    4.2985   -1.9392    5.5083 C   0  0  0  0  0  0  0  0  0  0  0  0
    5.2818   -1.4791    5.3848 H   0  0  0  0  0  0  0  0  0  0  0  0
    4.0568   -1.9721    6.5743 H   0  0  0  0  0  0  0  0  0  0  0  0
    4.3310   -2.9612    5.1231 H   0  0  0  0  0  0  0  0  0  0  0  0
    3.3649   -0.9567    3.3978 N   0  0  0  0  0  0  0  0  0  0  0  0
    2.3376   -0.3237    2.5597 C   0  0  2  0  0  0  0  0  0  0  0  0
    2.2896   -0.9400    1.1463 C   0  0  0  0  0  0  0  0  0  0  0  0
    3.2321   -1.6098    0.7452 O   0  0  0  0  0  0  0  0  0  0  0  0
    2.6362    1.1771    2.4798 C   0  0  0  0  0  0  0  0  0  0  0  0
    4.1011   -1.4730    2.9178 H   0  0  0  0  0  0  0  0  0  0  0  0
    1.3508   -0.4709    3.0124 H   0  0  0  0  0  0  0  0  0  0  0  0
    3.6179    1.3495    2.0269 H   0  0  0  0  0  0  0  0  0  0  0  0
    1.8799    1.6906    1.8779 H   0  0  0  0  0  0  0  0  0  0  0  0
    2.6338    1.6170    3.4825 H   0  0  0  0  0  0  0  0  0  0  0  0
    1.1920   -0.7082    0.3360 N   0  0  0  0  0  0  0  0  0  0  0  0
    0.9907   -1.0767   -1.0871 C   0  0  2  0  0  0  0  0  0  0  0  0
    2.1805   -1.5039   -1.9763 C   0  0  0  0  0  0  0  0  0  0  0  0
    1.9511   -2.2716   -2.9023 O   0  0  0  0  0  0  0  0  0  0  0  0
    0.2690    0.0924   -1.7712 C   0  0  0  0  0  0  0  0  0  0  0  0
    1.0964    1.2626   -1.8134 O   0  0  0  0  0  0  0  0  0  0  0  0
    0.5048   -0.0688    0.7284 H   0  0  0  0  0  0  0  0  0  0  0  0
    0.3145   -1.9374   -1.0914 H   0  0  0  0  0  0  0  0  0  0  0  0
   -0.6516    0.3211   -1.2241 H   0  0  0  0  0  0  0  0  0  0  0  0
   -0.0174   -0.1903   -2.7903 H   0  0  0  0  0  0  0  0  0  0  0  0
    1.8224    1.1548   -2.4573 H   0  0  0  0  0  0  0  0  0  0  0  0
    3.3705   -0.7938   -1.9551 N   0  0  0  0  0  0  0  0  0  0  0  0
    4.5553   -1.0218   -2.8075 C   0  0  2  0  0  0  0  0  0  0  0  0
    4.3793   -0.5994   -4.2842 C   0  0  0  0  0  0  0  0  0  0  0  0
    5.1585    0.2052   -4.7774 O   0  0  0  0  0  0  0  0  0  0  0  0
    5.0489   -2.4715   -2.6975 C   0  0  0  0  0  0  0  0  0  0  0  0
    3.5493   -0.3686   -1.0464 H   0  0  0  0  0  0  0  0  0  0  0  0
    5.3538   -0.3870   -2.4096 H   0  0  0  0  0  0  0  0  0  0  0  0
    4.3525   -3.1673   -3.1744 H   0  0  0  0  0  0  0  0  0  0  0  0
    6.0218   -2.5740   -3.1884 H   0  0  0  0  0  0  0  0  0  0  0  0
    5.1593   -2.7558   -1.6463 H   0  0  0  0  0  0  0  0  0  0  0  0
    3.3373   -1.0816   -5.0502 N   0  0  0  0  0  0  0  0  0  0  0  0
    3.0903   -0.6981   -6.4331 C   0  0  0  0  0  0  0  0  0  0  0  0
    2.6904   -1.7198   -4.5790 H   0  0  0  0  0  0  0  0  0  0  0  0
    2.2266   -1.2428   -6.8262 H   0  0  0  0  0  0  0  0  0  0  0  0
    2.8850    0.3751   -6.5021 H   0  0  0  0  0  0  0  0  0  0  0  0
    3.9592   -0.9323   -7.0570 H   0  0  0  0  0  0  0  0  0  0  0  0
  1  2  2  0  0  0  0
  1  3  1  0  0  0  0
  1  7  1  0  0  0  0
  3  4  1  0  0  0  0
  3  5  1  0  0  0  0
  3  6  1  0  0  0  0
  7  8  1  0  0  0  0
  7 12  1  0  0  0  0
  8  9  1  0  0  0  0
  8 11  1  0  0  0  0
  8 13  1  0  0  0  0
  9 10  2  0  0  0  0
  9 17  1  0  0  0  0
 11 14  1  0  0  0  0
 11 15  1  0  0  0  0
 11 16  1  0  0  0  0
 17 18  1  0  0  0  0
 17 23  1  0  0  0  0
 18 19  1  0  0  0  0
 18 21  1  0  0  0  0
 18 24  1  0  0  0  0
 19 20  2  0  0  0  0
 19 28  1  0  0  0  0
 21 22  1  0  0  0  0
 21 25  1  0  0  0  0
 21 26  1  0  0  0  0
 22 27  1  0  0  0  0
 28 29  1  0  0  0  0
 28 33  1  0  0  0  0
 29 30  1  0  0  0  0
 29 32  1  0  0  0  0
 29 34  1  0  0  0  0
 30 31  2  0  0  0  0
 30 38  1  0  0  0  0
 32 35  1  0  0  0  0
 32 36  1  0  0  0  0
 32 37  1  0  0  0  0
 38 39  1  0  0  0  0
 38 40  1  0  0  0  0
 39 41  1  0  0  0  0
 39 42  1  0  0  0  0
 39 43  1  0  0  0  0
M  END
$$$$

  -OEChem-05262217303D

 43 42  0     1  0  0  0  0  0999 V2000
    3.1760   -0.8644    4.9529 C   0  0  0  0  0  0  0  0  0  0  0  0
    2.4040   -0.0658    5.4589 O   0  0  0  0  0  0  0  0  0  0  0  0
    4.0280   -1.7623    5.8304 C   0  0  0  0  0  0  0  0  0  0  0  0
    5.0873   -1.5630    5.6505 H   0  0  0  0  0  0  0  0  0  0  0  0
    3.8086   -1.5769    6.8857 H   0  0  0  0  0  0  0  0  0  0  0  0
    3.8185   -2.8111    5.6072 H   0  0  0  0  0  0  0  0  0  0  0  0
    3.2690   -0.9575    3.5803 N   0  0  0  0  0  0  0  0  0  0  0  0
    2.3969   -0.2396    2.6405 C   0  0  2  0  0  0  0  0  0  0  0  0
    2.1791   -1.0342    1.3358 C   0  0  0  0  0  0  0  0  0  0  0  0
    2.8938   -1.9967    1.0885 O   0  0  0  0  0  0  0  0  0  0  0  0
    3.0276    1.1236    2.3348 C   0  0  0  0  0  0  0  0  0  0  0  0
    3.8273   -1.7212    3.2007 H   0  0  0  0  0  0  0  0  0  0  0  0
    1.4125   -0.0877    3.0966 H   0  0  0  0  0  0  0  0  0  0  0  0
    4.0138    0.9962    1.8766 H   0  0  0  0  0  0  0  0  0  0  0  0
    2.3966    1.6962    1.6476 H   0  0  0  0  0  0  0  0  0  0  0  0
    3.1441    1.7027    3.2567 H   0  0  0  0  0  0  0  0  0  0  0  0
    1.1743   -0.6513    0.4664 N   0  0  0  0  0  0  0  0  0  0  0  0
    0.9356   -1.0743   -0.9366 C   0  0  2  0  0  0  0  0  0  0  0  0
    2.0028   -1.7962   -1.7919 C   0  0  0  0  0  0  0  0  0  0  0  0
    1.6284   -2.3371   -2.8258 O   0  0  0  0  0  0  0  0  0  0  0  0
    0.5140    0.1972   -1.6908 C   0  0  0  0  0  0  0  0  0  0  0  0
    1.5886    1.1465   -1.7526 O   0  0  0  0  0  0  0  0  0  0  0  0
    0.7215    0.2217    0.7268 H   0  0  0  0  0  0  0  0  0  0  0  0
    0.0846   -1.7613   -0.9174 H   0  0  0  0  0  0  0  0  0  0  0  0
   -0.3403    0.6548   -1.1814 H   0  0  0  0  0  0  0  0  0  0  0  0
    0.1902   -0.0541   -2.7068 H   0  0  0  0  0  0  0  0  0  0  0  0
    2.2519    0.9007   -2.4491 H   0  0  0  0  0  0  0  0  0  0  0  0
    3.3572   -1.5834   -1.6084 N   0  0  0  0  0  0  0  0  0  0  0  0
    4.3649   -1.5991   -2.6794 C   0  0  2  0  0  0  0  0  0  0  0  0
    3.9804   -0.6443   -3.8386 C   0  0  0  0  0  0  0  0  0  0  0  0
    3.4813    0.4483   -3.5767 O   0  0  0  0  0  0  0  0  0  0  0  0
    4.6418   -3.0431   -3.1279 C   0  0  0  0  0  0  0  0  0  0  0  0
    3.6112   -1.1993   -0.7000 H   0  0  0  0  0  0  0  0  0  0  0  0
    5.2979   -1.2077   -2.2635 H   0  0  0  0  0  0  0  0  0  0  0  0
    3.7817   -3.4661   -3.6556 H   0  0  0  0  0  0  0  0  0  0  0  0
    5.5090   -3.0766   -3.7940 H   0  0  0  0  0  0  0  0  0  0  0  0
    4.8539   -3.6716   -2.2573 H   0  0  0  0  0  0  0  0  0  0  0  0
    4.2032   -0.9800   -5.1619 N   0  0  0  0  0  0  0  0  0  0  0  0
    3.7365   -0.1629   -6.2752 C   0  0  0  0  0  0  0  0  0  0  0  0
    4.4608   -1.9451   -5.3456 H   0  0  0  0  0  0  0  0  0  0  0  0
    4.0516   -0.6049   -7.2254 H   0  0  0  0  0  0  0  0  0  0  0  0
    2.6433   -0.0955   -6.2687 H   0  0  0  0  0  0  0  0  0  0  0  0
    4.1533    0.8479   -6.2117 H   0  0  0  0  0  0  0  0  0  0  0  0
  1  2  2  0  0  0  0
  1  3  1  0  0  0  0
  1  7  1  0  0  0  0
  3  4  1  0  0  0  0
  3  5  1  0  0  0  0
  3  6  1  0  0  0  0
  7  8  1  0  0  0  0
  7 12  1  0  0  0  0
  8  9  1  0  0  0  0
  8 11  1  0  0  0  0
  8 13  1  0  0  0  0
  9 10  2  0  0  0  0
  9 17  1  0  0  0  0
 11 14  1  0  0  0  0
 11 15  1  0  0  0  0
 11 16  1  0  0  0  0
 17 18  1  0  0  0  0
 17 23  1  0  0  0  0
 18 19  1  0  0  0  0
 18 21  1  0  0  0  0
 18 24  1  0  0  0  0
 19 20  2  0  0  0  0
 19 28  1  0  0  0  0
 21 22  1  0  0  0  0
 21 25  1  0  0  0  0
 21 26  1  0  0  0  0
 22 27  1  0  0  0  0
 28 29  1  0  0  0  0
 28 33  1  0  0  0  0
 29 30  1  0  0  0  0
 29 32  1  0  0  0  0
 29 34  1  0  0  0  0
 30 31  2  0  0  0  0
 30 38  1  0  0  0  0
 32 35  1  0  0  0  0
 32 36  1  0  0  0  0
 32 37  1  0  0  0  0
 38 39  1  0  0  0  0
 38 40  1  0  0  0  0
 39 41  1  0  0  0  0
 39 42  1  0  0  0  0
 39 43  1  0  0  0  0
M  END
$$$$

  -OEChem-05262217303D

 43 42  0     1  0  0  0  0  0999 V2000
    3.2145   -0.8116    4.9580 C   0  0  0  0  0  0  0  0  0  0  0  0
    2.5074    0.0605    5.4368 O   0  0  0  0  0  0  0  0  0  0  0  0
    3.9859   -1.7506    5.8662 C   0  0  0  0  0  0  0  0  0  0  0  0
    5.0568   -1.6665    5.6669 H   0  0  0  0  0  0  0  0  0  0  0  0
    3.8024   -1.4966    6.9140 H   0  0  0  0  0  0  0  0  0  0  0  0
    3.6695   -2.7822    5.6929 H   0  0  0  0  0  0  0  0  0  0  0  0
    3.3019   -0.9545    3.5892 N   0  0  0  0  0  0  0  0  0  0  0  0
    2.4775   -0.2102    2.6268 C   0  0  2  0  0  0  0  0  0  0  0  0
    2.1478   -1.0507    1.3752 C   0  0  0  0  0  0  0  0  0  0  0  0
    2.7592   -2.0910    1.1679 O   0  0  0  0  0  0  0  0  0  0  0  0
    3.2274    1.0657    2.2298 C   0  0  0  0  0  0  0  0  0  0  0  0
    3.7928   -1.7754    3.2377 H   0  0  0  0  0  0  0  0  0  0  0  0
    1.5244    0.0634    3.0928 H   0  0  0  0  0  0  0  0  0  0  0  0
    4.1850    0.8183    1.7605 H   0  0  0  0  0  0  0  0  0  0  0  0
    2.6371    1.6575    1.5229 H   0  0  0  0  0  0  0  0  0  0  0  0
    3.4211    1.6807    3.1145 H   0  0  0  0  0  0  0  0  0  0  0  0
    1.1490   -0.6243    0.5197 N   0  0  0  0  0  0  0  0  0  0  0  0
    0.8506   -1.0359   -0.8765 C   0  0  2  0  0  0  0  0  0  0  0  0
    1.8300   -1.8176   -1.7876 C   0  0  0  0  0  0  0  0  0  0  0  0
    1.4245   -2.1588   -2.8927 O   0  0  0  0  0  0  0  0  0  0  0  0
    0.5042    0.2819   -1.5923 C   0  0  0  0  0  0  0  0  0  0  0  0
    1.6469    1.1494   -1.6606 O   0  0  0  0  0  0  0  0  0  0  0  0
    0.7886    0.2961    0.7616 H   0  0  0  0  0  0  0  0  0  0  0  0
   -0.0471   -1.6597   -0.8382 H   0  0  0  0  0  0  0  0  0  0  0  0
   -0.3012    0.7905   -1.0526 H   0  0  0  0  0  0  0  0  0  0  0  0
    0.1366    0.0818   -2.6046 H   0  0  0  0  0  0  0  0  0  0  0  0
    2.3381    0.8097   -2.2861 H   0  0  0  0  0  0  0  0  0  0  0  0
    3.1787   -1.9560   -1.5195 N   0  0  0  0  0  0  0  0  0  0  0  0
    4.2283   -2.0167   -2.5492 C   0  0  2  0  0  0  0  0  0  0  0  0
    4.1125   -0.8533   -3.5706 C   0  0  0  0  0  0  0  0  0  0  0  0
    3.7125    0.2483   -3.1983 O   0  0  0  0  0  0  0  0  0  0  0  0
    4.2482   -3.4078   -3.2035 C   0  0  0  0  0  0  0  0  0  0  0  0
    3.4483   -1.7410   -0.5591 H   0  0  0  0  0  0  0  0  0  0  0  0
    5.1908   -1.8835   -2.0468 H   0  0  0  0  0  0  0  0  0  0  0  0
    3.3673   -3.5606   -3.8345 H   0  0  0  0  0  0  0  0  0  0  0  0
    5.1427   -3.5271   -3.8217 H   0  0  0  0  0  0  0  0  0  0  0  0
    4.2589   -4.1850   -2.4329 H   0  0  0  0  0  0  0  0  0  0  0  0
    4.4897   -1.0106   -4.8923 N   0  0  0  0  0  0  0  0  0  0  0  0
    4.3006    0.0258   -5.9004 C   0  0  0  0  0  0  0  0  0  0  0  0
    4.6826   -1.9583   -5.2017 H   0  0  0  0  0  0  0  0  0  0  0  0
    4.6887   -0.3109   -6.8665 H   0  0  0  0  0  0  0  0  0  0  0  0
    3.2367    0.2585   -6.0157 H   0  0  0  0  0  0  0  0  0  0  0  0
    4.8328    0.9397   -5.6164 H   0  0  0  0  0  0  0  0  0  0  0  0
  1  2  2  0  0  0  0
  1  3  1  0  0  0  0
  1  7  1  0  0  0  0
  3  4  1  0  0  0  0
  3  5  1  0  0  0  0
  3  6  1  0  0  0  0
  7  8  1  0  0  0  0
  7 12  1  0  0  0  0
  8  9  1  0  0  0  0
  8 11  1  0  0  0  0
  8 13  1  0  0  0  0
  9 10  2  0  0  0  0
  9 17  1  0  0  0  0
 11 14  1  0  0  0  0
 11 15  1  0  0  0  0
 11 16  1  0  0  0  0
 17 18  1  0  0  0  0
 17 23  1  0  0  0  0
 18 19  1  0  0  0  0
 18 21  1  0  0  0  0
 18 24  1  0  0  0  0
 19 20  2  0  0  0  0
 19 28  1  0  0  0  0
 21 22  1  0  0  0  0
 21 25  1  0  0  0  0
 21 26  1  0  0  0  0
 22 27  1  0  0  0  0
 28 29  1  0  0  0  0
 28 33  1  0  0  0  0
 29 30  1  0  0  0  0
 29 32  1  0  0  0  0
 29 34  1  0  0  0  0
 30 31  2  0  0  0  0
 30 38  1  0  0  0  0
 32 35  1  0  0  0  0
 32 36  1  0  0  0  0
 32 37  1  0  0  0  0
 38 39  1  0  0  0  0
 38 40  1  0  0  0  0
 39 41  1  0  0  0  0
 39 42  1  0  0  0  0
 39 43  1  0  0  0  0
M  END
$$$$

  -OEChem-05262217303D

 43 42  0     1  0  0  0  0  0999 V2000
    3.3974   -0.9377    4.8840 C   0  0  0  0  0  0  0  0  0  0  0  0
    2.7965    0.0028    5.3780 O   0  0  0  0  0  0  0  0  0  0  0  0
    4.1820   -1.8887    5.7681 C   0  0  0  0  0  0  0  0  0  0  0  0
    5.2370   -1.8769    5.4841 H   0  0  0  0  0  0  0  0  0  0  0  0
    4.0958   -1.5870    6.8159 H   0  0  0  0  0  0  0  0  0  0  0  0
    3.7939   -2.9045    5.6614 H   0  0  0  0  0  0  0  0  0  0  0  0
    3.3586   -1.1420    3.5208 N   0  0  0  0  0  0  0  0  0  0  0  0
    2.5260   -0.3652    2.5922 C   0  0  2  0  0  0  0  0  0  0  0  0
    2.0623   -1.2063    1.3843 C   0  0  0  0  0  0  0  0  0  0  0  0
    2.5596   -2.3076    1.1848 O   0  0  0  0  0  0  0  0  0  0  0  0
    3.3316    0.8487    2.1168 C   0  0  0  0  0  0  0  0  0  0  0  0
    3.7621   -2.0080    3.1668 H   0  0  0  0  0  0  0  0  0  0  0  0
    1.6253   -0.0180    3.1102 H   0  0  0  0  0  0  0  0  0  0  0  0
    4.2384    0.5277    1.5942 H   0  0  0  0  0  0  0  0  0  0  0  0
    2.7373    1.4638    1.4337 H   0  0  0  0  0  0  0  0  0  0  0  0
    3.6223    1.4683    2.9711 H   0  0  0  0  0  0  0  0  0  0  0  0
    1.0559   -0.7185    0.5724 N   0  0  0  0  0  0  0  0  0  0  0  0
    0.7180   -1.0561   -0.8349 C   0  0  2  0  0  0  0  0  0  0  0  0
    1.6492   -1.8141   -1.8191 C   0  0  0  0  0  0  0  0  0  0  0  0
    1.2816   -1.9216   -2.9835 O   0  0  0  0  0  0  0  0  0  0  0  0
    0.4110    0.3217   -1.4521 C   0  0  0  0  0  0  0  0  0  0  0  0
    1.5909    1.1428   -1.4844 O   0  0  0  0  0  0  0  0  0  0  0  0
    0.7837    0.2281    0.8296 H   0  0  0  0  0  0  0  0  0  0  0  0
   -0.2012   -1.6484   -0.8116 H   0  0  0  0  0  0  0  0  0  0  0  0
   -0.3634    0.8251   -0.8639 H   0  0  0  0  0  0  0  0  0  0  0  0
    0.0156    0.2093   -2.4673 H   0  0  0  0  0  0  0  0  0  0  0  0
    2.3072    0.7561   -2.0488 H   0  0  0  0  0  0  0  0  0  0  0  0
    2.9166   -2.2695   -1.5086 N   0  0  0  0  0  0  0  0  0  0  0  0
    4.0254   -2.2939   -2.4783 C   0  0  2  0  0  0  0  0  0  0  0  0
    4.1665   -0.9553   -3.2549 C   0  0  0  0  0  0  0  0  0  0  0  0
    3.8368    0.1034   -2.7223 O   0  0  0  0  0  0  0  0  0  0  0  0
    3.8954   -3.5200   -3.3969 C   0  0  0  0  0  0  0  0  0  0  0  0
    3.1540   -2.2110   -0.5174 H   0  0  0  0  0  0  0  0  0  0  0  0
    4.9533   -2.4135   -1.9116 H   0  0  0  0  0  0  0  0  0  0  0  0
    3.0613   -3.4029   -4.0955 H   0  0  0  0  0  0  0  0  0  0  0  0
    4.8131   -3.6657   -3.9742 H   0  0  0  0  0  0  0  0  0  0  0  0
    3.7212   -4.4205   -2.7996 H   0  0  0  0  0  0  0  0  0  0  0  0
    4.7033   -0.9145   -4.5294 N   0  0  0  0  0  0  0  0  0  0  0  0
    4.7733    0.3070   -5.3228 C   0  0  0  0  0  0  0  0  0  0  0  0
    4.8483   -1.8057   -4.9944 H   0  0  0  0  0  0  0  0  0  0  0  0
    3.7704    0.7147   -5.4875 H   0  0  0  0  0  0  0  0  0  0  0  0
    5.3811    1.0613   -4.8121 H   0  0  0  0  0  0  0  0  0  0  0  0
    5.2275    0.1011   -6.2967 H   0  0  0  0  0  0  0  0  0  0  0  0
  1  2  2  0  0  0  0
  1  3  1  0  0  0  0
  1  7  1  0  0  0  0
  3  4  1  0  0  0  0
  3  5  1  0  0  0  0
  3  6  1  0  0  0  0
  7  8  1  0  0  0  0
  7 12  1  0  0  0  0
  8  9  1  0  0  0  0
  8 11  1  0  0  0  0
  8 13  1  0  0  0  0
  9 10  2  0  0  0  0
  9 17  1  0  0  0  0
 11 14  1  0  0  0  0
 11 15  1  0  0  0  0
 11 16  1  0  0  0  0
 17 18  1  0  0  0  0
 17 23  1  0  0  0  0
 18 19  1  0  0  0  0
 18 21  1  0  0  0  0
 18 24  1  0  0  0  0
 19 20  2  0  0  0  0
 19 28  1  0  0  0  0
 21 22  1  0  0  0  0
 21 25  1  0  0  0  0
 21 26  1  0  0  0  0
 22 27  1  0  0  0  0
 28 29  1  0  0  0  0
 28 33  1  0  0  0  0
 29 30  1  0  0  0  0
 29 32  1  0  0  0  0
 29 34  1  0  0  0  0
 30 31  2  0  0  0  0
 30 38  1  0  0  0  0
 32 35  1  0  0  0  0
 32 36  1  0  0  0  0
 32 37  1  0  0  0  0
 38 39  1  0  0  0  0
 38 40  1  0  0  0  0
 39 41  1  0  0  0  0
 39 42  1  0  0  0  0
 39 43  1  0  0  0  0
M  END
$$$$

  -OEChem-05262217303D

 43 42  0     1  0  0  0  0  0999 V2000
    3.5914   -0.8902    4.6938 C   0  0  0  0  0  0  0  0  0  0  0  0
    3.2443    0.1986    5.1224 O   0  0  0  0  0  0  0  0  0  0  0  0
    4.2086   -1.9141    5.6278 C   0  0  0  0  0  0  0  0  0  0  0  0
    5.2144   -2.1719    5.2875 H   0  0  0  0  0  0  0  0  0  0  0  0
    4.2728   -1.5089    6.6415 H   0  0  0  0  0  0  0  0  0  0  0  0
    3.5952   -2.8180    5.6484 H   0  0  0  0  0  0  0  0  0  0  0  0
    3.4057   -1.2002    3.3631 N   0  0  0  0  0  0  0  0  0  0  0  0
    2.6767   -0.3513    2.4105 C   0  0  2  0  0  0  0  0  0  0  0  0
    1.9365   -1.1838    1.3431 C   0  0  0  0  0  0  0  0  0  0  0  0
    2.1777   -2.3799    1.2285 O   0  0  0  0  0  0  0  0  0  0  0  0
    3.6754    0.5986    1.7411 C   0  0  0  0  0  0  0  0  0  0  0  0
    3.5882   -2.1613    3.0787 H   0  0  0  0  0  0  0  0  0  0  0  0
    1.9230    0.2380    2.9442 H   0  0  0  0  0  0  0  0  0  0  0  0
    4.4331    0.0339    1.1884 H   0  0  0  0  0  0  0  0  0  0  0  0
    3.1635    1.2666    1.0411 H   0  0  0  0  0  0  0  0  0  0  0  0
    4.1785    1.2122    2.4952 H   0  0  0  0  0  0  0  0  0  0  0  0
    0.9481   -0.5897    0.5821 N   0  0  0  0  0  0  0  0  0  0  0  0
    0.5338   -0.8892   -0.8135 C   0  0  2  0  0  0  0  0  0  0  0  0
    1.3711   -1.7288   -1.8210 C   0  0  0  0  0  0  0  0  0  0  0  0
    1.1239   -1.6203   -3.0167 O   0  0  0  0  0  0  0  0  0  0  0  0
    0.3380    0.5218   -1.4014 C   0  0  0  0  0  0  0  0  0  0  0  0
    1.5947    1.2185   -1.4592 O   0  0  0  0  0  0  0  0  0  0  0  0
    0.8591    0.4008    0.8019 H   0  0  0  0  0  0  0  0  0  0  0  0
   -0.4353   -1.3934   -0.7651 H   0  0  0  0  0  0  0  0  0  0  0  0
   -0.3636    1.0898   -0.7814 H   0  0  0  0  0  0  0  0  0  0  0  0
   -0.1010    0.4659   -2.4033 H   0  0  0  0  0  0  0  0  0  0  0  0
    2.2824    0.7098   -1.9516 H   0  0  0  0  0  0  0  0  0  0  0  0
    2.4395   -2.5346   -1.4756 N   0  0  0  0  0  0  0  0  0  0  0  0
    3.6378   -2.6617   -2.3245 C   0  0  2  0  0  0  0  0  0  0  0  0
    4.1598   -1.2930   -2.8472 C   0  0  0  0  0  0  0  0  0  0  0  0
    3.9351   -0.2588   -2.2195 O   0  0  0  0  0  0  0  0  0  0  0  0
    3.3819   -3.6785   -3.4491 C   0  0  0  0  0  0  0  0  0  0  0  0
    2.5816   -2.6200   -0.4684 H   0  0  0  0  0  0  0  0  0  0  0  0
    4.4366   -3.0696   -1.6984 H   0  0  0  0  0  0  0  0  0  0  0  0
    2.6939   -3.2737   -4.1977 H   0  0  0  0  0  0  0  0  0  0  0  0
    4.3187   -3.9435   -3.9477 H   0  0  0  0  0  0  0  0  0  0  0  0
    2.9441   -4.5930   -3.0372 H   0  0  0  0  0  0  0  0  0  0  0  0
    4.9300   -1.2141   -3.9939 N   0  0  0  0  0  0  0  0  0  0  0  0
    5.3707    0.0499   -4.5723 C   0  0  0  0  0  0  0  0  0  0  0  0
    5.0050   -2.0568   -4.5554 H   0  0  0  0  0  0  0  0  0  0  0  0
    5.9822   -0.1338   -5.4611 H   0  0  0  0  0  0  0  0  0  0  0  0
    4.5082    0.6583   -4.8644 H   0  0  0  0  0  0  0  0  0  0  0  0
    5.9726    0.6134   -3.8515 H   0  0  0  0  0  0  0  0  0  0  0  0
  1  2  2  0  0  0  0
  1  3  1  0  0  0  0
  1  7  1  0  0  0  0
  3  4  1  0  0  0  0
  3  5  1  0  0  0  0
  3  6  1  0  0  0  0
  7  8  1  0  0  0  0
  7 12  1  0  0  0  0
  8  9  1  0  0  0  0
  8 11  1  0  0  0  0
  8 13  1  0  0  0  0
  9 10  2  0  0  0  0
  9 17  1  0  0  0  0
 11 14  1  0  0  0  0
 11 15  1  0  0  0  0
 11 16  1  0  0  0  0
 17 18  1  0  0  0  0
 17 23  1  0  0  0  0
 18 19  1  0  0  0  0
 18 21  1  0  0  0  0
 18 24  1  0  0  0  0
 19 20  2  0  0  0  0
 19 28  1  0  0  0  0
 21 22  1  0  0  0  0
 21 25  1  0  0  0  0
 21 26  1  0  0  0  0
 22 27  1  0  0  0  0
 28 29  1  0  0  0  0
 28 33  1  0  0  0  0
 29 30  1  0  0  0  0
 29 32  1  0  0  0  0
 29 34  1  0  0  0  0
 30 31  2  0  0  0  0
 30 38  1  0  0  0  0
 32 35  1  0  0  0  0
 32 36  1  0  0  0  0
 32 37  1  0  0  0  0
 38 39  1  0  0  0  0
 38 40  1  0  0  0  0
 39 41  1  0  0  0  0
 39 42  1  0  0  0  0
 39 43  1  0  0  0  0
M  END
$$$$

  -OEChem-05262217303D

 43 42  0     1  0  0  0  0  0999 V2000
    3.6321   -1.1457    4.1243 C   0  0  0  0  0  0  0  0  0  0  0  0
    2.8100   -0.4768    4.7311 O   0  0  0  0  0  0  0  0  0  0  0  0
    4.4504   -2.1924    4.8565 C   0  0  0  0  0  0  0  0  0  0  0  0
    5.5137   -1.9501    4.7885 H   0  0  0  0  0  0  0  0  0  0  0  0
    4.1628   -2.2265    5.9110 H   0  0  0  0  0  0  0  0  0  0  0  0
    4.2787   -3.1761    4.4128 H   0  0  0  0  0  0  0  0  0  0  0  0
    3.8170   -0.9617    2.7698 N   0  0  0  0  0  0  0  0  0  0  0  0
    2.8964   -0.1776    1.9334 C   0  0  2  0  0  0  0  0  0  0  0  0
    1.8519   -1.0572    1.2107 C   0  0  0  0  0  0  0  0  0  0  0  0
    1.9022   -2.2796    1.2760 O   0  0  0  0  0  0  0  0  0  0  0  0
    3.7528    0.5803    0.9160 C   0  0  0  0  0  0  0  0  0  0  0  0
    4.3780   -1.6702    2.3010 H   0  0  0  0  0  0  0  0  0  0  0  0
    2.3543    0.5539    2.5424 H   0  0  0  0  0  0  0  0  0  0  0  0
    4.2866   -0.1220    0.2681 H   0  0  0  0  0  0  0  0  0  0  0  0
    3.1303    1.2278    0.2914 H   0  0  0  0  0  0  0  0  0  0  0  0
    4.4881    1.2058    1.4319 H   0  0  0  0  0  0  0  0  0  0  0  0
    0.8200   -0.4814    0.4924 N   0  0  0  0  0  0  0  0  0  0  0  0
    0.4137   -0.8336   -0.8924 C   0  0  2  0  0  0  0  0  0  0  0  0
    1.3622   -1.6710   -1.8062 C   0  0  0  0  0  0  0  0  0  0  0  0
    1.6656   -1.2319   -2.9128 O   0  0  0  0  0  0  0  0  0  0  0  0
    0.0145    0.4935   -1.5583 C   0  0  0  0  0  0  0  0  0  0  0  0
    1.1611    1.3400   -1.6860 O   0  0  0  0  0  0  0  0  0  0  0  0
    0.7886    0.5256    0.6450 H   0  0  0  0  0  0  0  0  0  0  0  0
   -0.4910   -1.4423   -0.8073 H   0  0  0  0  0  0  0  0  0  0  0  0
   -0.7440    0.9977   -0.9500 H   0  0  0  0  0  0  0  0  0  0  0  0
   -0.4271    0.3094   -2.5441 H   0  0  0  0  0  0  0  0  0  0  0  0
    1.7607    0.9563   -2.3578 H   0  0  0  0  0  0  0  0  0  0  0  0
    2.0229   -2.8005   -1.3574 N   0  0  0  0  0  0  0  0  0  0  0  0
    3.2463   -3.3922   -1.9280 C   0  0  2  0  0  0  0  0  0  0  0  0
    4.4458   -2.4168   -1.9134 C   0  0  0  0  0  0  0  0  0  0  0  0
    5.2958   -2.5076   -1.0362 O   0  0  0  0  0  0  0  0  0  0  0  0
    2.9922   -3.9894   -3.3206 C   0  0  0  0  0  0  0  0  0  0  0  0
    1.8564   -3.0027   -0.3663 H   0  0  0  0  0  0  0  0  0  0  0  0
    3.5284   -4.2267   -1.2776 H   0  0  0  0  0  0  0  0  0  0  0  0
    2.7744   -3.2142   -4.0603 H   0  0  0  0  0  0  0  0  0  0  0  0
    3.8746   -4.5425   -3.6568 H   0  0  0  0  0  0  0  0  0  0  0  0
    2.1442   -4.6800   -3.2844 H   0  0  0  0  0  0  0  0  0  0  0  0
    4.5189   -1.3749   -2.8174 N   0  0  0  0  0  0  0  0  0  0  0  0
    5.5379   -0.3348   -2.7723 C   0  0  0  0  0  0  0  0  0  0  0  0
    3.6698   -1.2146   -3.3634 H   0  0  0  0  0  0  0  0  0  0  0  0
    5.4226    0.3422   -3.6241 H   0  0  0  0  0  0  0  0  0  0  0  0
    5.4525    0.2487   -1.8502 H   0  0  0  0  0  0  0  0  0  0  0  0
    6.5386   -0.7773   -2.8181 H   0  0  0  0  0  0  0  0  0  0  0  0
  1  2  2  0  0  0  0
  1  3  1  0  0  0  0
  1  7  1  0  0  0  0
  3  4  1  0  0  0  0
  3  5  1  0  0  0  0
  3  6  1  0  0  0  0
  7  8  1  0  0  0  0
  7 12  1  0  0  0  0
  8  9  1  0  0  0  0
  8 11  1  0  0  0  0
  8 13  1  0  0  0  0
  9 10  2  0  0  0  0
  9 17  1  0  0  0  0
 11 14  1  0  0  0  0
 11 15  1  0  0  0  0
 11 16  1  0  0  0  0
 17 18  1  0  0  0  0
 17 23  1  0  0  0  0
 18 19  1  0  0  0  0
 18 21  1  0  0  0  0
 18 24  1  0  0  0  0
 19 20  2  0  0  0  0
 19 28  1  0  0  0  0
 21 22  1  0  0  0  0
 21 25  1  0  0  0  0
 21 26  1  0  0  0  0
 22 27  1  0  0  0  0
 28 29  1  0  0  0  0
 28 33  1  0  0  0  0
 29 30  1  0  0  0  0
 29 32  1  0  0  0  0
 29 34  1  0  0  0  0
 30 31  2  0  0  0  0
 30 38  1  0  0  0  0
 32 35  1  0  0  0  0
 32 36  1  0  0  0  0
 32 37  1  0  0  0  0
 38 39  1  0  0  0  0
 38 40  1  0  0  0  0
 39 41  1  0  0  0  0
 39 42  1  0  0  0  0
 39 43  1  0  0  0  0
M  END
$$$$

  -OEChem-05262217303D

 43 42  0     1  0  0  0  0  0999 V2000
    4.1476   -1.5017    3.3540 C   0  0  0  0  0  0  0  0  0  0  0  0
    3.7080   -0.9491    4.3512 O   0  0  0  0  0  0  0  0  0  0  0  0
    5.1007   -2.6737    3.4907 C   0  0  0  0  0  0  0  0  0  0  0  0
    6.0811   -2.4045    3.0905 H   0  0  0  0  0  0  0  0  0  0  0  0
    5.2095   -2.9535    4.5421 H   0  0  0  0  0  0  0  0  0  0  0  0
    4.7146   -3.5323    2.9350 H   0  0  0  0  0  0  0  0  0  0  0  0
    3.7910   -1.0673    2.0959 N   0  0  0  0  0  0  0  0  0  0  0  0
    2.6586   -0.1638    1.8360 C   0  0  2  0  0  0  0  0  0  0  0  0
    1.4695   -0.9057    1.1827 C   0  0  0  0  0  0  0  0  0  0  0  0
    1.3248   -2.1152    1.3125 O   0  0  0  0  0  0  0  0  0  0  0  0
    3.1838    0.9673    0.9458 C   0  0  0  0  0  0  0  0  0  0  0  0
    4.0874   -1.6864    1.3346 H   0  0  0  0  0  0  0  0  0  0  0  0
    2.2918    0.2765    2.7693 H   0  0  0  0  0  0  0  0  0  0  0  0
    3.4678    0.5809   -0.0378 H   0  0  0  0  0  0  0  0  0  0  0  0
    2.4220    1.7410    0.8108 H   0  0  0  0  0  0  0  0  0  0  0  0
    4.0620    1.4321    1.4054 H   0  0  0  0  0  0  0  0  0  0  0  0
    0.5352   -0.2553    0.3967 N   0  0  0  0  0  0  0  0  0  0  0  0
    0.2690   -0.6307   -1.0135 C   0  0  2  0  0  0  0  0  0  0  0  0
    1.3008   -1.5400   -1.7460 C   0  0  0  0  0  0  0  0  0  0  0  0
    1.9444   -1.0888   -2.6910 O   0  0  0  0  0  0  0  0  0  0  0  0
    0.0210    0.6826   -1.7717 C   0  0  0  0  0  0  0  0  0  0  0  0
    1.2168    1.4675   -1.7991 O   0  0  0  0  0  0  0  0  0  0  0  0
    0.6140    0.7551    0.4999 H   0  0  0  0  0  0  0  0  0  0  0  0
   -0.6674   -1.1962   -1.0240 H   0  0  0  0  0  0  0  0  0  0  0  0
   -0.7787    1.2482   -1.2821 H   0  0  0  0  0  0  0  0  0  0  0  0
   -0.3049    0.4695   -2.7956 H   0  0  0  0  0  0  0  0  0  0  0  0
    1.8865    0.9936   -2.3364 H   0  0  0  0  0  0  0  0  0  0  0  0
    1.6042   -2.8082   -1.2818 N   0  0  0  0  0  0  0  0  0  0  0  0
    2.8446   -3.5442   -1.5847 C   0  0  2  0  0  0  0  0  0  0  0  0
    4.1189   -2.7518   -1.2025 C   0  0  0  0  0  0  0  0  0  0  0  0
    4.5937   -2.8593   -0.0767 O   0  0  0  0  0  0  0  0  0  0  0  0
    2.8616   -4.0338   -3.0414 C   0  0  0  0  0  0  0  0  0  0  0  0
    1.2175   -2.9838   -0.3476 H   0  0  0  0  0  0  0  0  0  0  0  0
    2.8491   -4.4396   -0.9542 H   0  0  0  0  0  0  0  0  0  0  0  0
    2.8959   -3.2011   -3.7489 H   0  0  0  0  0  0  0  0  0  0  0  0
    3.7384   -4.6655   -3.2144 H   0  0  0  0  0  0  0  0  0  0  0  0
    1.9641   -4.6243   -3.2491 H   0  0  0  0  0  0  0  0  0  0  0  0
    4.6695   -1.8282   -2.0696 N   0  0  0  0  0  0  0  0  0  0  0  0
    5.7884   -0.9621   -1.7205 C   0  0  0  0  0  0  0  0  0  0  0  0
    4.0675   -1.5592   -2.8493 H   0  0  0  0  0  0  0  0  0  0  0  0
    6.0611   -0.3372   -2.5764 H   0  0  0  0  0  0  0  0  0  0  0  0
    5.5260   -0.3087   -0.8827 H   0  0  0  0  0  0  0  0  0  0  0  0
    6.6616   -1.5605   -1.4399 H   0  0  0  0  0  0  0  0  0  0  0  0
  1  2  2  0  0  0  0
  1  3  1  0  0  0  0
  1  7  1  0  0  0  0
  3  4  1  0  0  0  0
  3  5  1  0  0  0  0
  3  6  1  0  0  0  0
  7  8  1  0  0  0  0
  7 12  1  0  0  0  0
  8  9  1  0  0  0  0
  8 11  1  0  0  0  0
  8 13  1  0  0  0  0
  9 10  2  0  0  0  0
  9 17  1  0  0  0  0
 11 14  1  0  0  0  0
 11 15  1  0  0  0  0
 11 16  1  0  0  0  0
 17 18  1  0  0  0  0
 17 23  1  0  0  0  0
 18 19  1  0  0  0  0
 18 21  1  0  0  0  0
 18 24  1  0  0  0  0
 19 20  2  0  0  0  0
 19 28  1  0  0  0  0
 21 22  1  0  0  0  0
 21 25  1  0  0  0  0
 21 26  1  0  0  0  0
 22 27  1  0  0  0  0
 28 29  1  0  0  0  0
 28 33  1  0  0  0  0
 29 30  1  0  0  0  0
 29 32  1  0  0  0  0
 29 34  1  0  0  0  0
 30 31  2  0  0  0  0
 30 38  1  0  0  0  0
 32 35  1  0  0  0  0
 32 36  1  0  0  0  0
 32 37  1  0  0  0  0
 38 39  1  0  0  0  0
 38 40  1  0  0  0  0
 39 41  1  0  0  0  0
 39 42  1  0  0  0  0
 39 43  1  0  0  0  0
M  END
$$$$

  -OEChem-05262217303D

 43 42  0     1  0  0  0  0  0999 V2000
    4.5008   -1.4154    2.9881 C   0  0  0  0  0  0  0  0  0  0  0  0
    4.5339   -0.4990    3.7955 O   0  0  0  0  0  0  0  0  0  0  0  0
    5.4802   -2.5683    3.0942 C   0  0  0  0  0  0  0  0  0  0  0  0
    6.0192   -2.6871    2.1508 H   0  0  0  0  0  0  0  0  0  0  0  0
    6.2015   -2.3803    3.8939 H   0  0  0  0  0  0  0  0  0  0  0  0
    4.9414   -3.4939    3.3116 H   0  0  0  0  0  0  0  0  0  0  0  0
    3.5804   -1.4006    1.9649 N   0  0  0  0  0  0  0  0  0  0  0  0
    2.5015   -0.4116    1.8201 C   0  0  2  0  0  0  0  0  0  0  0  0
    1.2874   -1.0210    1.0849 C   0  0  0  0  0  0  0  0  0  0  0  0
    1.0961   -2.2315    1.0881 O   0  0  0  0  0  0  0  0  0  0  0  0
    3.0668    0.8054    1.0753 C   0  0  0  0  0  0  0  0  0  0  0  0
    3.5497   -2.2400    1.3752 H   0  0  0  0  0  0  0  0  0  0  0  0
    2.1552   -0.0956    2.8102 H   0  0  0  0  0  0  0  0  0  0  0  0
    3.3624    0.5296    0.0584 H   0  0  0  0  0  0  0  0  0  0  0  0
    2.3239    1.6064    1.0195 H   0  0  0  0  0  0  0  0  0  0  0  0
    3.9456    1.1959    1.5984 H   0  0  0  0  0  0  0  0  0  0  0  0
    0.3928   -0.2725    0.3406 N   0  0  0  0  0  0  0  0  0  0  0  0
    0.1983   -0.5433   -1.1027 C   0  0  2  0  0  0  0  0  0  0  0  0
    1.2789   -1.4175   -1.8016 C   0  0  0  0  0  0  0  0  0  0  0  0
    2.1210   -0.8879   -2.5240 O   0  0  0  0  0  0  0  0  0  0  0  0
    0.0152    0.8183   -1.7896 C   0  0  0  0  0  0  0  0  0  0  0  0
    1.2212    1.5825   -1.7040 O   0  0  0  0  0  0  0  0  0  0  0  0
    0.5078    0.7238    0.5195 H   0  0  0  0  0  0  0  0  0  0  0  0
   -0.7419   -1.0921   -1.2107 H   0  0  0  0  0  0  0  0  0  0  0  0
   -0.8040    1.3687   -1.3149 H   0  0  0  0  0  0  0  0  0  0  0  0
   -0.2512    0.6698   -2.8416 H   0  0  0  0  0  0  0  0  0  0  0  0
    1.9330    1.0948   -2.1731 H   0  0  0  0  0  0  0  0  0  0  0  0
    1.3245   -2.7850   -1.5911 N   0  0  0  0  0  0  0  0  0  0  0  0
    2.5093   -3.6231   -1.8585 C   0  0  2  0  0  0  0  0  0  0  0  0
    3.7892   -3.1167   -1.1446 C   0  0  0  0  0  0  0  0  0  0  0  0
    4.0719   -3.5277   -0.0245 O   0  0  0  0  0  0  0  0  0  0  0  0
    2.7152   -3.8263   -3.3677 C   0  0  0  0  0  0  0  0  0  0  0  0
    0.7998   -3.0523   -0.7526 H   0  0  0  0  0  0  0  0  0  0  0  0
    2.3047   -4.6121   -1.4356 H   0  0  0  0  0  0  0  0  0  0  0  0
    2.9722   -2.8905   -3.8711 H   0  0  0  0  0  0  0  0  0  0  0  0
    3.5247   -4.5419   -3.5420 H   0  0  0  0  0  0  0  0  0  0  0  0
    1.8014   -4.2218   -3.8212 H   0  0  0  0  0  0  0  0  0  0  0  0
    4.5722   -2.1247   -1.7029 N   0  0  0  0  0  0  0  0  0  0  0  0
    5.7031   -1.5082   -1.0203 C   0  0  0  0  0  0  0  0  0  0  0  0
    4.1284   -1.6119   -2.4666 H   0  0  0  0  0  0  0  0  0  0  0  0
    6.2324   -0.8365   -1.7028 H   0  0  0  0  0  0  0  0  0  0  0  0
    5.3647   -0.9287   -0.1564 H   0  0  0  0  0  0  0  0  0  0  0  0
    6.4089   -2.2719   -0.6774 H   0  0  0  0  0  0  0  0  0  0  0  0
  1  2  2  0  0  0  0
  1  3  1  0  0  0  0
  1  7  1  0  0  0  0
  3  4  1  0  0  0  0
  3  5  1  0  0  0  0
  3  6  1  0  0  0  0
  7  8  1  0  0  0  0
  7 12  1  0  0  0  0
  8  9  1  0  0  0  0
  8 11  1  0  0  0  0
  8 13  1  0  0  0  0
  9 10  2  0  0  0  0
  9 17  1  0  0  0  0
 11 14  1  0  0  0  0
 11 15  1  0  0  0  0
 11 16  1  0  0  0  0
 17 18  1  0  0  0  0
 17 23  1  0  0  0  0
 18 19  1  0  0  0  0
 18 21  1  0  0  0  0
 18 24  1  0  0  0  0
 19 20  2  0  0  0  0
 19 28  1  0  0  0  0
 21 22  1  0  0  0  0
 21 25  1  0  0  0  0
 21 26  1  0  0  0  0
 22 27  1  0  0  0  0
 28 29  1  0  0  0  0
 28 33  1  0  0  0  0
 29 30  1  0  0  0  0
 29 32  1  0  0  0  0
 29 34  1  0  0  0  0
 30 31  2  0  0  0  0
 30 38  1  0  0  0  0
 32 35  1  0  0  0  0
 32 36  1  0  0  0  0
 32 37  1  0  0  0  0
 38 39  1  0  0  0  0
 38 40  1  0  0  0  0
 39 41  1  0  0  0  0
 39 42  1  0  0  0  0
 39 43  1  0  0  0  0
M  END
$$$$

  -OEChem-05262217303D

 43 42  0     1  0  0  0  0  0999 V2000
    4.4257   -1.5741    2.9470 C   0  0  0  0  0  0  0  0  0  0  0  0
    4.4861   -0.6906    3.7887 O   0  0  0  0  0  0  0  0  0  0  0  0
    5.3444   -2.7779    3.0313 C   0  0  0  0  0  0  0  0  0  0  0  0
    6.0413   -2.7729    2.1899 H   0  0  0  0  0  0  0  0  0  0  0  0
    5.9132   -2.7559    3.9648 H   0  0  0  0  0  0  0  0  0  0  0  0
    4.7557   -3.6982    2.9976 H   0  0  0  0  0  0  0  0  0  0  0  0
    3.5317   -1.4749    1.9051 N   0  0  0  0  0  0  0  0  0  0  0  0
    2.4776   -0.4532    1.8070 C   0  0  2  0  0  0  0  0  0  0  0  0
    1.2410   -1.0220    1.0786 C   0  0  0  0  0  0  0  0  0  0  0  0
    1.0500   -2.2322    1.0267 O   0  0  0  0  0  0  0  0  0  0  0  0
    3.0607    0.7673    1.0846 C   0  0  0  0  0  0  0  0  0  0  0  0
    3.4468   -2.3053    1.3066 H   0  0  0  0  0  0  0  0  0  0  0  0
    2.1529   -0.1544    2.8096 H   0  0  0  0  0  0  0  0  0  0  0  0
    3.3605    0.5033    0.0657 H   0  0  0  0  0  0  0  0  0  0  0  0
    2.3273    1.5774    1.0368 H   0  0  0  0  0  0  0  0  0  0  0  0
    3.9406    1.1382    1.6198 H   0  0  0  0  0  0  0  0  0  0  0  0
    0.3282   -0.2565    0.3730 N   0  0  0  0  0  0  0  0  0  0  0  0
    0.1540   -0.5135   -1.0745 C   0  0  2  0  0  0  0  0  0  0  0  0
    1.2764   -1.3580   -1.7404 C   0  0  0  0  0  0  0  0  0  0  0  0
    2.2103   -0.7884   -2.3019 O   0  0  0  0  0  0  0  0  0  0  0  0
   -0.0411    0.8482   -1.7574 C   0  0  0  0  0  0  0  0  0  0  0  0
    1.1514    1.6312   -1.6541 O   0  0  0  0  0  0  0  0  0  0  0  0
    0.4435    0.7367    0.5686 H   0  0  0  0  0  0  0  0  0  0  0  0
   -0.7725   -1.0804   -1.2034 H   0  0  0  0  0  0  0  0  0  0  0  0
   -0.8766    1.3837   -1.2943 H   0  0  0  0  0  0  0  0  0  0  0  0
   -0.2875    0.6972   -2.8137 H   0  0  0  0  0  0  0  0  0  0  0  0
    1.8935    1.1248   -2.0541 H   0  0  0  0  0  0  0  0  0  0  0  0
    1.1926   -2.7386   -1.7891 N   0  0  0  0  0  0  0  0  0  0  0  0
    2.3567   -3.5980   -2.0854 C   0  0  2  0  0  0  0  0  0  0  0  0
    3.6297   -3.2368   -1.2693 C   0  0  0  0  0  0  0  0  0  0  0  0
    3.7768   -3.6648   -0.1295 O   0  0  0  0  0  0  0  0  0  0  0  0
    2.6109   -3.6334   -3.6004 C   0  0  0  0  0  0  0  0  0  0  0  0
    0.5676   -3.1035   -1.0680 H   0  0  0  0  0  0  0  0  0  0  0  0
    2.0942   -4.6171   -1.7838 H   0  0  0  0  0  0  0  0  0  0  0  0
    2.8808   -2.6462   -3.9857 H   0  0  0  0  0  0  0  0  0  0  0  0
    3.4251   -4.3277   -3.8298 H   0  0  0  0  0  0  0  0  0  0  0  0
    1.7114   -3.9713   -4.1237 H   0  0  0  0  0  0  0  0  0  0  0  0
    4.5760   -2.3641   -1.7739 N   0  0  0  0  0  0  0  0  0  0  0  0
    5.6996   -1.8618   -0.9929 C   0  0  0  0  0  0  0  0  0  0  0  0
    4.2440   -1.7921   -2.5499 H   0  0  0  0  0  0  0  0  0  0  0  0
    6.3909   -1.3135   -1.6399 H   0  0  0  0  0  0  0  0  0  0  0  0
    5.3495   -1.1855   -0.2073 H   0  0  0  0  0  0  0  0  0  0  0  0
    6.2490   -2.6882   -0.5297 H   0  0  0  0  0  0  0  0  0  0  0  0
  1  2  2  0  0  0  0
  1  3  1  0  0  0  0
  1  7  1  0  0  0  0
  3  4  1  0  0  0  0
  3  5  1  0  0  0  0
  3  6  1  0  0  0  0
  7  8  1  0  0  0  0
  7 12  1  0  0  0  0
  8  9  1  0  0  0  0
  8 11  1  0  0  0  0
  8 13  1  0  0  0  0
  9 10  2  0  0  0  0
  9 17  1  0  0  0  0
 11 14  1  0  0  0  0
 11 15  1  0  0  0  0
 11 16  1  0  0  0  0
 17 18  1  0  0  0  0
 17 23  1  0  0  0  0
 18 19  1  0  0  0  0
 18 21  1  0  0  0  0
 18 24  1  0  0  0  0
 19 20  2  0  0  0  0
 19 28  1  0  0  0  0
 21 22  1  0  0  0  0
 21 25  1  0  0  0  0
 21 26  1  0  0  0  0
 22 27  1  0  0  0  0
 28 29  1  0  0  0  0
 28 33  1  0  0  0  0
 29 30  1  0  0  0  0
 29 32  1  0  0  0  0
 29 34  1  0  0  0  0
 30 31  2  0  0  0  0
 30 38  1  0  0  0  0
 32 35  1  0  0  0  0
 32 36  1  0  0  0  0
 32 37  1  0  0  0  0
 38 39  1  0  0  0  0
 38 40  1  0  0  0  0
 39 41  1  0  0  0  0
 39 42  1  0  0  0  0
 39 43  1  0  0  0  0
M  END
$$$$

  -OEChem-05262217303D

 43 42  0     1  0  0  0  0  0999 V2000
    4.0781   -1.1242    3.9695 C   0  0  0  0  0  0  0  0  0  0  0  0
    3.7214   -0.1574    4.6238 O   0  0  0  0  0  0  0  0  0  0  0  0
    4.9283   -2.2062    4.6082 C   0  0  0  0  0  0  0  0  0  0  0  0
    5.8593   -2.3283    4.0495 H   0  0  0  0  0  0  0  0  0  0  0  0
    5.1699   -1.9361    5.6400 H   0  0  0  0  0  0  0  0  0  0  0  0
    4.3857   -3.1546    4.6100 H   0  0  0  0  0  0  0  0  0  0  0  0
    3.6953   -1.2419    2.6504 N   0  0  0  0  0  0  0  0  0  0  0  0
    2.7490   -0.3408    1.9796 C   0  0  2  0  0  0  0  0  0  0  0  0
    1.9103   -1.0835    0.9200 C   0  0  0  0  0  0  0  0  0  0  0  0
    2.2119   -2.2234    0.5831 O   0  0  0  0  0  0  0  0  0  0  0  0
    3.5430    0.7948    1.3268 C   0  0  0  0  0  0  0  0  0  0  0  0
    3.9000   -2.1244    2.1825 H   0  0  0  0  0  0  0  0  0  0  0  0
    2.0526    0.0793    2.7134 H   0  0  0  0  0  0  0  0  0  0  0  0
    4.2404    0.3961    0.5829 H   0  0  0  0  0  0  0  0  0  0  0  0
    2.8704    1.5005    0.8296 H   0  0  0  0  0  0  0  0  0  0  0  0
    4.1154    1.3404    2.0839 H   0  0  0  0  0  0  0  0  0  0  0  0
    0.7725   -0.5028    0.3866 N   0  0  0  0  0  0  0  0  0  0  0  0
    0.2946   -0.7586   -0.9888 C   0  0  2  0  0  0  0  0  0  0  0  0
    1.2903   -1.4231   -1.9743 C   0  0  0  0  0  0  0  0  0  0  0  0
    2.1694   -0.7420   -2.4973 O   0  0  0  0  0  0  0  0  0  0  0  0
   -0.2184    0.5791   -1.5415 C   0  0  0  0  0  0  0  0  0  0  0  0
    0.8607    1.5082   -1.6814 O   0  0  0  0  0  0  0  0  0  0  0  0
    0.6299    0.4544    0.7037 H   0  0  0  0  0  0  0  0  0  0  0  0
   -0.5628   -1.4335   -0.9175 H   0  0  0  0  0  0  0  0  0  0  0  0
   -0.9806    0.9960   -0.8746 H   0  0  0  0  0  0  0  0  0  0  0  0
   -0.6858    0.4158   -2.5183 H   0  0  0  0  0  0  0  0  0  0  0  0
    1.5846    1.0845   -2.1962 H   0  0  0  0  0  0  0  0  0  0  0  0
    1.1453   -2.7593   -2.3118 N   0  0  0  0  0  0  0  0  0  0  0  0
    2.0340   -3.5485   -3.1916 C   0  0  2  0  0  0  0  0  0  0  0  0
    3.4664   -3.7597   -2.6456 C   0  0  0  0  0  0  0  0  0  0  0  0
    3.9263   -4.8930   -2.5917 O   0  0  0  0  0  0  0  0  0  0  0  0
    2.0677   -2.9786   -4.6170 C   0  0  0  0  0  0  0  0  0  0  0  0
    0.5729   -3.2934   -1.6622 H   0  0  0  0  0  0  0  0  0  0  0  0
    1.5923   -4.5477   -3.2656 H   0  0  0  0  0  0  0  0  0  0  0  0
    2.6010   -2.0246   -4.6541 H   0  0  0  0  0  0  0  0  0  0  0  0
    2.5789   -3.6780   -5.2860 H   0  0  0  0  0  0  0  0  0  0  0  0
    1.0503   -2.8252   -4.9889 H   0  0  0  0  0  0  0  0  0  0  0  0
    4.2423   -2.6943   -2.2347 N   0  0  0  0  0  0  0  0  0  0  0  0
    5.5479   -2.8338   -1.6070 C   0  0  0  0  0  0  0  0  0  0  0  0
    3.7833   -1.7812   -2.2389 H   0  0  0  0  0  0  0  0  0  0  0  0
    5.4525   -3.3341   -0.6380 H   0  0  0  0  0  0  0  0  0  0  0  0
    6.2202   -3.4193   -2.2430 H   0  0  0  0  0  0  0  0  0  0  0  0
    5.9958   -1.8485   -1.4479 H   0  0  0  0  0  0  0  0  0  0  0  0
  1  2  2  0  0  0  0
  1  3  1  0  0  0  0
  1  7  1  0  0  0  0
  3  4  1  0  0  0  0
  3  5  1  0  0  0  0
  3  6  1  0  0  0  0
  7  8  1  0  0  0  0
  7 12  1  0  0  0  0
  8  9  1  0  0  0  0
  8 11  1  0  0  0  0
  8 13  1  0  0  0  0
  9 10  2  0  0  0  0
  9 17  1  0  0  0  0
 11 14  1  0  0  0  0
 11 15  1  0  0  0  0
 11 16  1  0  0  0  0
 17 18  1  0  0  0  0
 17 23  1  0  0  0  0
 18 19  1  0  0  0  0
 18 21  1  0  0  0  0
 18 24  1  0  0  0  0
 19 20  2  0  0  0  0
 19 28  1  0  0  0  0
 21 22  1  0  0  0  0
 21 25  1  0  0  0  0
 21 26  1  0  0  0  0
 22 27  1  0  0  0  0
 28 29  1  0  0  0  0
 28 33  1  0  0  0  0
 29 30  1  0  0  0  0
 29 32  1  0  0  0  0
 29 34  1  0  0  0  0
 30 31  2  0  0  0  0
 30 38  1  0  0  0  0
 32 35  1  0  0  0  0
 32 36  1  0  0  0  0
 32 37  1  0  0  0  0
 38 39  1  0  0  0  0
 38 40  1  0  0  0  0
 39 41  1  0  0  0  0
 39 42  1  0  0  0  0
 39 43  1  0  0  0  0
M  END
$$$$

  -OEChem-05262217303D

 43 42  0     1  0  0  0  0  0999 V2000
    4.0716   -1.1405    3.9760 C   0  0  0  0  0  0  0  0  0  0  0  0
    3.6413   -0.2354    4.6730 O   0  0  0  0  0  0  0  0  0  0  0  0
    4.9873   -2.1934    4.5720 C   0  0  0  0  0  0  0  0  0  0  0  0
    5.9717   -2.1411    4.1003 H   0  0  0  0  0  0  0  0  0  0  0  0
    5.1017   -2.0286    5.6472 H   0  0  0  0  0  0  0  0  0  0  0  0
    4.5664   -3.1891    4.4122 H   0  0  0  0  0  0  0  0  0  0  0  0
    3.7191   -1.2133    2.6451 N   0  0  0  0  0  0  0  0  0  0  0  0
    2.7220   -0.3458    2.0033 C   0  0  2  0  0  0  0  0  0  0  0  0
    1.9265   -1.0993    0.9179 C   0  0  0  0  0  0  0  0  0  0  0  0
    2.2951   -2.2076    0.5431 O   0  0  0  0  0  0  0  0  0  0  0  0
    3.4497    0.8541    1.3897 C   0  0  0  0  0  0  0  0  0  0  0  0
    3.9857   -2.0571    2.1391 H   0  0  0  0  0  0  0  0  0  0  0  0
    2.0027    0.0104    2.7488 H   0  0  0  0  0  0  0  0  0  0  0  0
    4.1666    0.5204    0.6324 H   0  0  0  0  0  0  0  0  0  0  0  0
    2.7376    1.5374    0.9166 H   0  0  0  0  0  0  0  0  0  0  0  0
    3.9919    1.4048    2.1651 H   0  0  0  0  0  0  0  0  0  0  0  0
    0.7585   -0.5625    0.4025 N   0  0  0  0  0  0  0  0  0  0  0  0
    0.2810   -0.8150   -0.9738 C   0  0  2  0  0  0  0  0  0  0  0  0
    1.2905   -1.4144   -1.9837 C   0  0  0  0  0  0  0  0  0  0  0  0
    2.2628   -0.7451   -2.3232 O   0  0  0  0  0  0  0  0  0  0  0  0
   -0.2709    0.5115   -1.5126 C   0  0  0  0  0  0  0  0  0  0  0  0
    0.7848    1.4686   -1.6468 O   0  0  0  0  0  0  0  0  0  0  0  0
    0.5695    0.3781    0.7438 H   0  0  0  0  0  0  0  0  0  0  0  0
   -0.5508   -1.5213   -0.9052 H   0  0  0  0  0  0  0  0  0  0  0  0
   -1.0427    0.9024   -0.8415 H   0  0  0  0  0  0  0  0  0  0  0  0
   -0.7351    0.3433   -2.4905 H   0  0  0  0  0  0  0  0  0  0  0  0
    1.5480    1.0516   -2.1078 H   0  0  0  0  0  0  0  0  0  0  0  0
    1.0396   -2.6354   -2.5895 N   0  0  0  0  0  0  0  0  0  0  0  0
    1.8908   -3.3210   -3.5870 C   0  0  2  0  0  0  0  0  0  0  0  0
    3.2643   -3.8017   -3.0605 C   0  0  0  0  0  0  0  0  0  0  0  0
    3.6838   -4.8991   -3.4048 O   0  0  0  0  0  0  0  0  0  0  0  0
    2.0632   -2.4738   -4.8554 C   0  0  0  0  0  0  0  0  0  0  0  0
    0.3122   -3.1952   -2.1530 H   0  0  0  0  0  0  0  0  0  0  0  0
    1.3533   -4.2270   -3.8861 H   0  0  0  0  0  0  0  0  0  0  0  0
    2.7111   -1.6116   -4.6733 H   0  0  0  0  0  0  0  0  0  0  0  0
    2.5186   -3.0773   -5.6469 H   0  0  0  0  0  0  0  0  0  0  0  0
    1.0921   -2.1146   -5.2085 H   0  0  0  0  0  0  0  0  0  0  0  0
    4.0314   -3.0190   -2.2215 N   0  0  0  0  0  0  0  0  0  0  0  0
    5.3070   -3.4315   -1.6564 C   0  0  0  0  0  0  0  0  0  0  0  0
    3.6379   -2.1122   -1.9624 H   0  0  0  0  0  0  0  0  0  0  0  0
    5.1857   -4.3441   -1.0637 H   0  0  0  0  0  0  0  0  0  0  0  0
    6.0352   -3.6198   -2.4521 H   0  0  0  0  0  0  0  0  0  0  0  0
    5.6998   -2.6452   -1.0048 H   0  0  0  0  0  0  0  0  0  0  0  0
  1  2  2  0  0  0  0
  1  3  1  0  0  0  0
  1  7  1  0  0  0  0
  3  4  1  0  0  0  0
  3  5  1  0  0  0  0
  3  6  1  0  0  0  0
  7  8  1  0  0  0  0
  7 12  1  0  0  0  0
  8  9  1  0  0  0  0
  8 11  1  0  0  0  0
  8 13  1  0  0  0  0
  9 10  2  0  0  0  0
  9 17  1  0  0  0  0
 11 14  1  0  0  0  0
 11 15  1  0  0  0  0
 11 16  1  0  0  0  0
 17 18  1  0  0  0  0
 17 23  1  0  0  0  0
 18 19  1  0  0  0  0
 18 21  1  0  0  0  0
 18 24  1  0  0  0  0
 19 20  2  0  0  0  0
 19 28  1  0  0  0  0
 21 22  1  0  0  0  0
 21 25  1  0  0  0  0
 21 26  1  0  0  0  0
 22 27  1  0  0  0  0
 28 29  1  0  0  0  0
 28 33  1  0  0  0  0
 29 30  1  0  0  0  0
 29 32  1  0  0  0  0
 29 34  1  0  0  0  0
 30 31  2  0  0  0  0
 30 38  1  0  0  0  0
 32 35  1  0  0  0  0
 32 36  1  0  0  0  0
 32 37  1  0  0  0  0
 38 39  1  0  0  0  0
 38 40  1  0  0  0  0
 39 41  1  0  0  0  0
 39 42  1  0  0  0  0
 39 43  1  0  0  0  0
M  END
$$$$

  -OEChem-05262217303D

 43 42  0     1  0  0  0  0  0999 V2000
    4.0513   -1.1623    3.9937 C   0  0  0  0  0  0  0  0  0  0  0  0
    3.6111   -0.2585    4.6863 O   0  0  0  0  0  0  0  0  0  0  0  0
    4.9758   -2.2034    4.5960 C   0  0  0  0  0  0  0  0  0  0  0  0
    5.9359   -2.1963    4.0742 H   0  0  0  0  0  0  0  0  0  0  0  0
    5.1484   -1.9869    5.6541 H   0  0  0  0  0  0  0  0  0  0  0  0
    4.5277   -3.1962    4.5080 H   0  0  0  0  0  0  0  0  0  0  0  0
    3.6959   -1.2479    2.6644 N   0  0  0  0  0  0  0  0  0  0  0  0
    2.6877   -0.3947    2.0213 C   0  0  2  0  0  0  0  0  0  0  0  0
    1.9074   -1.1534    0.9286 C   0  0  0  0  0  0  0  0  0  0  0  0
    2.2916   -2.2548    0.5467 O   0  0  0  0  0  0  0  0  0  0  0  0
    3.3971    0.8204    1.4159 C   0  0  0  0  0  0  0  0  0  0  0  0
    3.9784   -2.0863    2.1584 H   0  0  0  0  0  0  0  0  0  0  0  0
    1.9601   -0.0553    2.7667 H   0  0  0  0  0  0  0  0  0  0  0  0
    4.1187    0.5025    0.6562 H   0  0  0  0  0  0  0  0  0  0  0  0
    2.6745    1.4958    0.9470 H   0  0  0  0  0  0  0  0  0  0  0  0
    3.9311    1.3744    2.1946 H   0  0  0  0  0  0  0  0  0  0  0  0
    0.7282   -0.6329    0.4212 N   0  0  0  0  0  0  0  0  0  0  0  0
    0.2701   -0.8606   -0.9663 C   0  0  2  0  0  0  0  0  0  0  0  0
    1.2977   -1.4025   -1.9882 C   0  0  0  0  0  0  0  0  0  0  0  0
    2.3392   -0.7777   -2.1691 O   0  0  0  0  0  0  0  0  0  0  0  0
   -0.2863    0.4733   -1.4794 C   0  0  0  0  0  0  0  0  0  0  0  0
    0.7655    1.4402   -1.5773 O   0  0  0  0  0  0  0  0  0  0  0  0
    0.5208    0.2970    0.7802 H   0  0  0  0  0  0  0  0  0  0  0  0
   -0.5484   -1.5842   -0.9244 H   0  0  0  0  0  0  0  0  0  0  0  0
   -1.0696    0.8420   -0.8092 H   0  0  0  0  0  0  0  0  0  0  0  0
   -0.7367    0.3257   -2.4667 H   0  0  0  0  0  0  0  0  0  0  0  0
    1.5523    1.0359   -2.0077 H   0  0  0  0  0  0  0  0  0  0  0  0
    0.9562   -2.4324   -2.8505 N   0  0  0  0  0  0  0  0  0  0  0  0
    1.7970   -2.9981   -3.9282 C   0  0  2  0  0  0  0  0  0  0  0  0
    3.0867   -3.7114   -3.4548 C   0  0  0  0  0  0  0  0  0  0  0  0
    3.4595   -4.7162   -4.0462 O   0  0  0  0  0  0  0  0  0  0  0  0
    2.1208   -1.9454   -4.9979 C   0  0  0  0  0  0  0  0  0  0  0  0
    0.1168   -2.9509   -2.6073 H   0  0  0  0  0  0  0  0  0  0  0  0
    1.1955   -3.7704   -4.4186 H   0  0  0  0  0  0  0  0  0  0  0  0
    2.8376   -1.2077   -4.6263 H   0  0  0  0  0  0  0  0  0  0  0  0
    2.5594   -2.4295   -5.8762 H   0  0  0  0  0  0  0  0  0  0  0  0
    1.2107   -1.4242   -5.3088 H   0  0  0  0  0  0  0  0  0  0  0  0
    3.8280   -3.2453   -2.3870 N   0  0  0  0  0  0  0  0  0  0  0  0
    5.0520   -3.8692   -1.9064 C   0  0  0  0  0  0  0  0  0  0  0  0
    3.5065   -2.3779   -1.9519 H   0  0  0  0  0  0  0  0  0  0  0  0
    4.8598   -4.9019   -1.5978 H   0  0  0  0  0  0  0  0  0  0  0  0
    5.8155   -3.8703   -2.6911 H   0  0  0  0  0  0  0  0  0  0  0  0
    5.4404   -3.3179   -1.0447 H   0  0  0  0  0  0  0  0  0  0  0  0
  1  2  2  0  0  0  0
  1  3  1  0  0  0  0
  1  7  1  0  0  0  0
  3  4  1  0  0  0  0
  3  5  1  0  0  0  0
  3  6  1  0  0  0  0
  7  8  1  0  0  0  0
  7 12  1  0  0  0  0
  8  9  1  0  0  0  0
  8 11  1  0  0  0  0
  8 13  1  0  0  0  0
  9 10  2  0  0  0  0
  9 17  1  0  0  0  0
 11 14  1  0  0  0  0
 11 15  1  0  0  0  0
 11 16  1  0  0  0  0
 17 18  1  0  0  0  0
 17 23  1  0  0  0  0
 18 19  1  0  0  0  0
 18 21  1  0  0  0  0
 18 24  1  0  0  0  0
 19 20  2  0  0  0  0
 19 28  1  0  0  0  0
 21 22  1  0  0  0  0
 21 25  1  0  0  0  0
 21 26  1  0  0  0  0
 22 27  1  0  0  0  0
 28 29  1  0  0  0  0
 28 33  1  0  0  0  0
 29 30  1  0  0  0  0
 29 32  1  0  0  0  0
 29 34  1  0  0  0  0
 30 31  2  0  0  0  0
 30 38  1  0  0  0  0
 32 35  1  0  0  0  0
 32 36  1  0  0  0  0
 32 37  1  0  0  0  0
 38 39  1  0  0  0  0
 38 40  1  0  0  0  0
 39 41  1  0  0  0  0
 39 42  1  0  0  0  0
 39 43  1  0  0  0  0
M  END
$$$$

  -OEChem-05262217303D

 43 42  0     1  0  0  0  0  0999 V2000
    3.9257   -1.1592    4.0910 C   0  0  0  0  0  0  0  0  0  0  0  0
    3.4558   -0.2357    4.7367 O   0  0  0  0  0  0  0  0  0  0  0  0
    4.7514   -2.2282    4.7820 C   0  0  0  0  0  0  0  0  0  0  0  0
    5.7553   -2.2602    4.3516 H   0  0  0  0  0  0  0  0  0  0  0  0
    4.8329   -2.0097    5.8505 H   0  0  0  0  0  0  0  0  0  0  0  0
    4.2773   -3.2049    4.6575 H   0  0  0  0  0  0  0  0  0  0  0  0
    3.6933   -1.2440    2.7345 N   0  0  0  0  0  0  0  0  0  0  0  0
    2.7535   -0.3844    2.0025 C   0  0  2  0  0  0  0  0  0  0  0  0
    1.9380   -1.1838    0.9672 C   0  0  0  0  0  0  0  0  0  0  0  0
    2.2986   -2.3054    0.6234 O   0  0  0  0  0  0  0  0  0  0  0  0
    3.5530    0.7177    1.3030 C   0  0  0  0  0  0  0  0  0  0  0  0
    3.9814   -2.1039    2.2694 H   0  0  0  0  0  0  0  0  0  0  0  0
    2.0416    0.0732    2.6976 H   0  0  0  0  0  0  0  0  0  0  0  0
    4.2576    0.2831    0.5864 H   0  0  0  0  0  0  0  0  0  0  0  0
    2.8838    1.3953    0.7637 H   0  0  0  0  0  0  0  0  0  0  0  0
    4.1167    1.3016    2.0374 H   0  0  0  0  0  0  0  0  0  0  0  0
    0.7464   -0.6814    0.4741 N   0  0  0  0  0  0  0  0  0  0  0  0
    0.2893   -0.9113   -0.9129 C   0  0  2  0  0  0  0  0  0  0  0  0
    1.3121   -1.4258   -1.9544 C   0  0  0  0  0  0  0  0  0  0  0  0
    2.3996   -0.8622   -2.0441 O   0  0  0  0  0  0  0  0  0  0  0  0
   -0.2770    0.4230   -1.4107 C   0  0  0  0  0  0  0  0  0  0  0  0
    0.7723    1.3941   -1.5006 O   0  0  0  0  0  0  0  0  0  0  0  0
    0.5455    0.2538    0.8225 H   0  0  0  0  0  0  0  0  0  0  0  0
   -0.5189   -1.6464   -0.8720 H   0  0  0  0  0  0  0  0  0  0  0  0
   -1.0590    0.7815   -0.7329 H   0  0  0  0  0  0  0  0  0  0  0  0
   -0.7315    0.2846   -2.3976 H   0  0  0  0  0  0  0  0  0  0  0  0
    1.5662    0.9970   -1.9225 H   0  0  0  0  0  0  0  0  0  0  0  0
    0.8829   -2.2218   -3.0052 N   0  0  0  0  0  0  0  0  0  0  0  0
    1.6758   -2.6495   -4.1786 C   0  0  2  0  0  0  0  0  0  0  0  0
    2.8811   -3.5631   -3.8525 C   0  0  0  0  0  0  0  0  0  0  0  0
    3.0526   -4.5807   -4.5105 O   0  0  0  0  0  0  0  0  0  0  0  0
    2.1161   -1.4510   -5.0320 C   0  0  0  0  0  0  0  0  0  0  0  0
   -0.0172   -2.6750   -2.8756 H   0  0  0  0  0  0  0  0  0  0  0  0
    1.0070   -3.2501   -4.8038 H   0  0  0  0  0  0  0  0  0  0  0  0
    2.8989   -0.8720   -4.5337 H   0  0  0  0  0  0  0  0  0  0  0  0
    2.5145   -1.8012   -5.9896 H   0  0  0  0  0  0  0  0  0  0  0  0
    1.2664   -0.7915   -5.2314 H   0  0  0  0  0  0  0  0  0  0  0  0
    3.7618   -3.2612   -2.8331 N   0  0  0  0  0  0  0  0  0  0  0  0
    4.8785   -4.1084   -2.4408 C   0  0  0  0  0  0  0  0  0  0  0  0
    3.5679   -2.4102   -2.2997 H   0  0  0  0  0  0  0  0  0  0  0  0
    4.5171   -5.0865   -2.1076 H   0  0  0  0  0  0  0  0  0  0  0  0
    5.5652   -4.2522   -3.2813 H   0  0  0  0  0  0  0  0  0  0  0  0
    5.4312   -3.6445   -1.6183 H   0  0  0  0  0  0  0  0  0  0  0  0
  1  2  2  0  0  0  0
  1  3  1  0  0  0  0
  1  7  1  0  0  0  0
  3  4  1  0  0  0  0
  3  5  1  0  0  0  0
  3  6  1  0  0  0  0
  7  8  1  0  0  0  0
  7 12  1  0  0  0  0
  8  9  1  0  0  0  0
  8 11  1  0  0  0  0
  8 13  1  0  0  0  0
  9 10  2  0  0  0  0
  9 17  1  0  0  0  0
 11 14  1  0  0  0  0
 11 15  1  0  0  0  0
 11 16  1  0  0  0  0
 17 18  1  0  0  0  0
 17 23  1  0  0  0  0
 18 19  1  0  0  0  0
 18 21  1  0  0  0  0
 18 24  1  0  0  0  0
 19 20  2  0  0  0  0
 19 28  1  0  0  0  0
 21 22  1  0  0  0  0
 21 25  1  0  0  0  0
 21 26  1  0  0  0  0
 22 27  1  0  0  0  0
 28 29  1  0  0  0  0
 28 33  1  0  0  0  0
 29 30  1  0  0  0  0
 29 32  1  0  0  0  0
 29 34  1  0  0  0  0
 30 31  2  0  0  0  0
 30 38  1  0  0  0  0
 32 35  1  0  0  0  0
 32 36  1  0  0  0  0
 32 37  1  0  0  0  0
 38 39  1  0  0  0  0
 38 40  1  0  0  0  0
 39 41  1  0  0  0  0
 39 42  1  0  0  0  0
 39 43  1  0  0  0  0
M  END
$$$$

  -OEChem-05262217303D

 43 42  0     1  0  0  0  0  0999 V2000
    3.9090   -1.2338    4.0903 C   0  0  0  0  0  0  0  0  0  0  0  0
    3.5213   -0.2750    4.7391 O   0  0  0  0  0  0  0  0  0  0  0  0
    4.7569   -2.3063    4.7478 C   0  0  0  0  0  0  0  0  0  0  0  0
    5.7155   -2.3931    4.2307 H   0  0  0  0  0  0  0  0  0  0  0  0
    4.9434   -2.0500    5.7944 H   0  0  0  0  0  0  0  0  0  0  0  0
    4.2399   -3.2681    4.7072 H   0  0  0  0  0  0  0  0  0  0  0  0
    3.5647   -1.3523    2.7608 N   0  0  0  0  0  0  0  0  0  0  0  0
    2.6167   -0.4693    2.0691 C   0  0  2  0  0  0  0  0  0  0  0  0
    1.8075   -1.2321    1.0005 C   0  0  0  0  0  0  0  0  0  0  0  0
    2.1023   -2.3859    0.7027 O   0  0  0  0  0  0  0  0  0  0  0  0
    3.4033    0.6747    1.4227 C   0  0  0  0  0  0  0  0  0  0  0  0
    3.7904   -2.2316    2.2971 H   0  0  0  0  0  0  0  0  0  0  0  0
    1.9018   -0.0555    2.7884 H   0  0  0  0  0  0  0  0  0  0  0  0
    4.1104    0.2827    0.6843 H   0  0  0  0  0  0  0  0  0  0  0  0
    2.7265    1.3723    0.9199 H   0  0  0  0  0  0  0  0  0  0  0  0
    3.9635    1.2270    2.1840 H   0  0  0  0  0  0  0  0  0  0  0  0
    0.6649   -0.6784    0.4493 N   0  0  0  0  0  0  0  0  0  0  0  0
    0.2750   -0.8853   -0.9632 C   0  0  2  0  0  0  0  0  0  0  0  0
    1.3193   -1.4355   -1.9667 C   0  0  0  0  0  0  0  0  0  0  0  0
    2.4733   -1.0219   -1.9035 O   0  0  0  0  0  0  0  0  0  0  0  0
   -0.1904    0.4831   -1.4753 C   0  0  0  0  0  0  0  0  0  0  0  0
    0.9148    1.3950   -1.4972 O   0  0  0  0  0  0  0  0  0  0  0  0
    0.4990    0.2691    0.7821 H   0  0  0  0  0  0  0  0  0  0  0  0
   -0.5690   -1.5805   -0.9716 H   0  0  0  0  0  0  0  0  0  0  0  0
   -0.9868    0.8786   -0.8365 H   0  0  0  0  0  0  0  0  0  0  0  0
   -0.5987    0.3820   -2.4864 H   0  0  0  0  0  0  0  0  0  0  0  0
    1.7096    0.9624   -1.8774 H   0  0  0  0  0  0  0  0  0  0  0  0
    0.8851   -1.9293   -3.1888 N   0  0  0  0  0  0  0  0  0  0  0  0
    1.7097   -2.2179   -4.3837 C   0  0  2  0  0  0  0  0  0  0  0  0
    2.7866   -3.3137   -4.1966 C   0  0  0  0  0  0  0  0  0  0  0  0
    2.9055   -4.1817   -5.0511 O   0  0  0  0  0  0  0  0  0  0  0  0
    2.3314   -0.9367   -4.9574 C   0  0  0  0  0  0  0  0  0  0  0  0
   -0.0866   -2.2240   -3.2257 H   0  0  0  0  0  0  0  0  0  0  0  0
    1.0260   -2.6031   -5.1473 H   0  0  0  0  0  0  0  0  0  0  0  0
    3.1286   -0.5565   -4.3124 H   0  0  0  0  0  0  0  0  0  0  0  0
    2.7633   -1.1410   -5.9424 H   0  0  0  0  0  0  0  0  0  0  0  0
    1.5694   -0.1594   -5.0679 H   0  0  0  0  0  0  0  0  0  0  0  0
    3.6193   -3.3338   -3.0954 N   0  0  0  0  0  0  0  0  0  0  0  0
    4.6588   -4.3286   -2.8742 C   0  0  0  0  0  0  0  0  0  0  0  0
    3.4988   -2.5758   -2.4184 H   0  0  0  0  0  0  0  0  0  0  0  0
    5.4083   -4.2826   -3.6712 H   0  0  0  0  0  0  0  0  0  0  0  0
    5.1575   -4.1447   -1.9176 H   0  0  0  0  0  0  0  0  0  0  0  0
    4.2277   -5.3348   -2.8514 H   0  0  0  0  0  0  0  0  0  0  0  0
  1  2  2  0  0  0  0
  1  3  1  0  0  0  0
  1  7  1  0  0  0  0
  3  4  1  0  0  0  0
  3  5  1  0  0  0  0
  3  6  1  0  0  0  0
  7  8  1  0  0  0  0
  7 12  1  0  0  0  0
  8  9  1  0  0  0  0
  8 11  1  0  0  0  0
  8 13  1  0  0  0  0
  9 10  2  0  0  0  0
  9 17  1  0  0  0  0
 11 14  1  0  0  0  0
 11 15  1  0  0  0  0
 11 16  1  0  0  0  0
 17 18  1  0  0  0  0
 17 23  1  0  0  0  0
 18 19  1  0  0  0  0
 18 21  1  0  0  0  0
 18 24  1  0  0  0  0
 19 20  2  0  0  0  0
 19 28  1  0  0  0  0
 21 22  1  0  0  0  0
 21 25  1  0  0  0  0
 21 26  1  0  0  0  0
 22 27  1  0  0  0  0
 28 29  1  0  0  0  0
 28 33  1  0  0  0  0
 29 30  1  0  0  0  0
 29 32  1  0  0  0  0
 29 34  1  0  0  0  0
 30 31  2  0  0  0  0
 30 38  1  0  0  0  0
 32 35  1  0  0  0  0
 32 36  1  0  0  0  0
 32 37  1  0  0  0  0
 38 39  1  0  0  0  0
 38 40  1  0  0  0  0
 39 41  1  0  0  0  0
 39 42  1  0  0  0  0
 39 43  1  0  0  0  0
M  END
$$$$

  -OEChem-05262217303D

 43 42  0     1  0  0  0  0  0999 V2000
    3.8996   -1.0935    4.2080 C   0  0  0  0  0  0  0  0  0  0  0  0
    3.5424   -0.0638    4.7587 O   0  0  0  0  0  0  0  0  0  0  0  0
    4.6893   -2.1350    4.9780 C   0  0  0  0  0  0  0  0  0  0  0  0
    5.6582   -2.2971    4.4994 H   0  0  0  0  0  0  0  0  0  0  0  0
    4.8551   -1.7993    6.0056 H   0  0  0  0  0  0  0  0  0  0  0  0
    4.1392   -3.0790    5.0001 H   0  0  0  0  0  0  0  0  0  0  0  0
    3.5735   -1.3211    2.8885 N   0  0  0  0  0  0  0  0  0  0  0  0
    2.6556   -0.4823    2.1078 C   0  0  2  0  0  0  0  0  0  0  0  0
    1.8261   -1.3242    1.1150 C   0  0  0  0  0  0  0  0  0  0  0  0
    2.0482   -2.5242    0.9917 O   0  0  0  0  0  0  0  0  0  0  0  0
    3.4800    0.5724    1.3650 C   0  0  0  0  0  0  0  0  0  0  0  0
    3.7581   -2.2537    2.5197 H   0  0  0  0  0  0  0  0  0  0  0  0
    1.9507    0.0194    2.7793 H   0  0  0  0  0  0  0  0  0  0  0  0
    4.1594    0.0947    0.6517 H   0  0  0  0  0  0  0  0  0  0  0  0
    2.8261    1.2584    0.8190 H   0  0  0  0  0  0  0  0  0  0  0  0
    4.0737    1.1575    2.0746 H   0  0  0  0  0  0  0  0  0  0  0  0
    0.6690   -0.8174    0.5503 N   0  0  0  0  0  0  0  0  0  0  0  0
    0.2641   -1.0214   -0.8630 C   0  0  2  0  0  0  0  0  0  0  0  0
    1.1406   -1.8358   -1.8551 C   0  0  0  0  0  0  0  0  0  0  0  0
    2.3586   -1.8391   -1.7318 O   0  0  0  0  0  0  0  0  0  0  0  0
    0.0996    0.3924   -1.4411 C   0  0  0  0  0  0  0  0  0  0  0  0
    1.3684    1.0563   -1.4772 O   0  0  0  0  0  0  0  0  0  0  0  0
    0.4956    0.1315    0.8723 H   0  0  0  0  0  0  0  0  0  0  0  0
   -0.7093   -1.5190   -0.8460 H   0  0  0  0  0  0  0  0  0  0  0  0
   -0.5996    0.9709   -0.8279 H   0  0  0  0  0  0  0  0  0  0  0  0
   -0.3187    0.3466   -2.4517 H   0  0  0  0  0  0  0  0  0  0  0  0
    2.0554    0.4736   -1.8623 H   0  0  0  0  0  0  0  0  0  0  0  0
    0.6832   -1.9894   -3.1584 N   0  0  0  0  0  0  0  0  0  0  0  0
    1.4593   -2.4019   -4.3504 C   0  0  2  0  0  0  0  0  0  0  0  0
    2.0938   -3.8120   -4.2716 C   0  0  0  0  0  0  0  0  0  0  0  0
    1.9076   -4.5991   -5.1901 O   0  0  0  0  0  0  0  0  0  0  0  0
    2.5083   -1.3476   -4.7321 C   0  0  0  0  0  0  0  0  0  0  0  0
   -0.3213   -1.9028   -3.2837 H   0  0  0  0  0  0  0  0  0  0  0  0
    0.7479   -2.4463   -5.1816 H   0  0  0  0  0  0  0  0  0  0  0  0
    3.3359   -1.3301   -4.0173 H   0  0  0  0  0  0  0  0  0  0  0  0
    2.9202   -1.5737   -5.7208 H   0  0  0  0  0  0  0  0  0  0  0  0
    2.0540   -0.3529   -4.7666 H   0  0  0  0  0  0  0  0  0  0  0  0
    2.8545   -4.2073   -3.1892 N   0  0  0  0  0  0  0  0  0  0  0  0
    3.4437   -5.5307   -3.0423 C   0  0  0  0  0  0  0  0  0  0  0  0
    2.9686   -3.5206   -2.4381 H   0  0  0  0  0  0  0  0  0  0  0  0
    4.1348   -5.7356   -3.8664 H   0  0  0  0  0  0  0  0  0  0  0  0
    3.9985   -5.5931   -2.1012 H   0  0  0  0  0  0  0  0  0  0  0  0
    2.6633   -6.2986   -3.0353 H   0  0  0  0  0  0  0  0  0  0  0  0
  1  2  2  0  0  0  0
  1  3  1  0  0  0  0
  1  7  1  0  0  0  0
  3  4  1  0  0  0  0
  3  5  1  0  0  0  0
  3  6  1  0  0  0  0
  7  8  1  0  0  0  0
  7 12  1  0  0  0  0
  8  9  1  0  0  0  0
  8 11  1  0  0  0  0
  8 13  1  0  0  0  0
  9 10  2  0  0  0  0
  9 17  1  0  0  0  0
 11 14  1  0  0  0  0
 11 15  1  0  0  0  0
 11 16  1  0  0  0  0
 17 18  1  0  0  0  0
 17 23  1  0  0  0  0
 18 19  1  0  0  0  0
 18 21  1  0  0  0  0
 18 24  1  0  0  0  0
 19 20  2  0  0  0  0
 19 28  1  0  0  0  0
 21 22  1  0  0  0  0
 21 25  1  0  0  0  0
 21 26  1  0  0  0  0
 22 27  1  0  0  0  0
 28 29  1  0  0  0  0
 28 33  1  0  0  0  0
 29 30  1  0  0  0  0
 29 32  1  0  0  0  0
 29 34  1  0  0  0  0
 30 31  2  0  0  0  0
 30 38  1  0  0  0  0
 32 35  1  0  0  0  0
 32 36  1  0  0  0  0
 32 37  1  0  0  0  0
 38 39  1  0  0  0  0
 38 40  1  0  0  0  0
 39 41  1  0  0  0  0
 39 42  1  0  0  0  0
 39 43  1  0  0  0  0
M  END
$$$$

  -OEChem-05262217303D

 43 42  0     1  0  0  0  0  0999 V2000
    1.9970   -2.2362    2.2770 C   0  0  0  0  0  0  0  0  0  0  0  0
    0.8563   -1.8675    2.5236 O   0  0  0  0  0  0  0  0  0  0  0  0
    2.2881   -3.7040    2.0307 C   0  0  0  0  0  0  0  0  0  0  0  0
    3.0982   -4.0395    2.6827 H   0  0  0  0  0  0  0  0  0  0  0  0
    1.3984   -4.3051    2.2380 H   0  0  0  0  0  0  0  0  0  0  0  0
    2.5813   -3.8554    0.9887 H   0  0  0  0  0  0  0  0  0  0  0  0
    2.9931   -1.2973    2.1055 N   0  0  0  0  0  0  0  0  0  0  0  0
    2.7348    0.1495    2.0681 C   0  0  2  0  0  0  0  0  0  0  0  0
    2.0521    0.5547    0.7419 C   0  0  0  0  0  0  0  0  0  0  0  0
    2.5476    1.3342   -0.0630 O   0  0  0  0  0  0  0  0  0  0  0  0
    4.0727    0.8654    2.2864 C   0  0  0  0  0  0  0  0  0  0  0  0
    3.8429   -1.6299    1.6553 H   0  0  0  0  0  0  0  0  0  0  0  0
    2.0644    0.4291    2.8878 H   0  0  0  0  0  0  0  0  0  0  0  0
    4.7758    0.6218    1.4832 H   0  0  0  0  0  0  0  0  0  0  0  0
    3.9252    1.9499    2.2986 H   0  0  0  0  0  0  0  0  0  0  0  0
    4.5143    0.5662    3.2418 H   0  0  0  0  0  0  0  0  0  0  0  0
    0.7891    0.1005    0.4256 N   0  0  0  0  0  0  0  0  0  0  0  0
    0.5459   -0.7556   -0.7624 C   0  0  2  0  0  0  0  0  0  0  0  0
    1.7483   -1.1619   -1.6637 C   0  0  0  0  0  0  0  0  0  0  0  0
    2.8023   -1.4923   -1.1250 O   0  0  0  0  0  0  0  0  0  0  0  0
   -0.4579    0.0357   -1.6088 C   0  0  0  0  0  0  0  0  0  0  0  0
    0.1709    1.2296   -2.0818 O   0  0  0  0  0  0  0  0  0  0  0  0
    0.3730   -0.3160    1.2632 H   0  0  0  0  0  0  0  0  0  0  0  0
    0.0794   -1.6878   -0.4305 H   0  0  0  0  0  0  0  0  0  0  0  0
   -1.3250    0.2993   -0.9937 H   0  0  0  0  0  0  0  0  0  0  0  0
   -0.8277   -0.5577   -2.4507 H   0  0  0  0  0  0  0  0  0  0  0  0
    0.7425    1.6071   -1.3765 H   0  0  0  0  0  0  0  0  0  0  0  0
    1.5089   -1.6798   -2.9297 N   0  0  0  0  0  0  0  0  0  0  0  0
    2.5030   -2.2318   -3.8765 C   0  0  2  0  0  0  0  0  0  0  0  0
    3.0329   -3.6446   -3.5372 C   0  0  0  0  0  0  0  0  0  0  0  0
    3.0862   -4.4955   -4.4153 O   0  0  0  0  0  0  0  0  0  0  0  0
    3.6629   -1.2500   -4.0964 C   0  0  0  0  0  0  0  0  0  0  0  0
    0.6232   -1.3904   -3.3361 H   0  0  0  0  0  0  0  0  0  0  0  0
    1.9912   -2.3339   -4.8391 H   0  0  0  0  0  0  0  0  0  0  0  0
    4.2917   -1.1714   -3.2048 H   0  0  0  0  0  0  0  0  0  0  0  0
    4.2902   -1.5910   -4.9260 H   0  0  0  0  0  0  0  0  0  0  0  0
    3.2784   -0.2550   -4.3402 H   0  0  0  0  0  0  0  0  0  0  0  0
    3.4712   -3.9629   -2.2680 N   0  0  0  0  0  0  0  0  0  0  0  0
    4.0913   -5.2316   -1.9130 C   0  0  0  0  0  0  0  0  0  0  0  0
    3.4723   -3.1910   -1.5972 H   0  0  0  0  0  0  0  0  0  0  0  0
    5.0400   -5.3547   -2.4456 H   0  0  0  0  0  0  0  0  0  0  0  0
    4.2885   -5.2671   -0.8376 H   0  0  0  0  0  0  0  0  0  0  0  0
    3.4315   -6.0667   -2.1704 H   0  0  0  0  0  0  0  0  0  0  0  0
  1  2  2  0  0  0  0
  1  3  1  0  0  0  0
  1  7  1  0  0  0  0
  3  4  1  0  0  0  0
  3  5  1  0  0  0  0
  3  6  1  0  0  0  0
  7  8  1  0  0  0  0
  7 12  1  0  0  0  0
  8  9  1  0  0  0  0
  8 11  1  0  0  0  0
  8 13  1  0  0  0  0
  9 10  2  0  0  0  0
  9 17  1  0  0  0  0
 11 14  1  0  0  0  0
 11 15  1  0  0  0  0
 11 16  1  0  0  0  0
 17 18  1  0  0  0  0
 17 23  1  0  0  0  0
 18 19  1  0  0  0  0
 18 21  1  0  0  0  0
 18 24  1  0  0  0  0
 19 20  2  0  0  0  0
 19 28  1  0  0  0  0
 21 22  1  0  0  0  0
 21 25  1  0  0  0  0
 21 26  1  0  0  0  0
 22 27  1  0  0  0  0
 28 29  1  0  0  0  0
 28 33  1  0  0  0  0
 29 30  1  0  0  0  0
 29 32  1  0  0  0  0
 29 34  1  0  0  0  0
 30 31  2  0  0  0  0
 30 38  1  0  0  0  0
 32 35  1  0  0  0  0
 32 36  1  0  0  0  0
 32 37  1  0  0  0  0
 38 39  1  0  0  0  0
 38 40  1  0  0  0  0
 39 41  1  0  0  0  0
 39 42  1  0  0  0  0
 39 43  1  0  0  0  0
M  END
$$$$

  -OEChem-05262217303D

 43 42  0     1  0  0  0  0  0999 V2000
    3.4196   -2.1004    3.3075 C   0  0  0  0  0  0  0  0  0  0  0  0
    2.4036   -2.4976    3.8564 O   0  0  0  0  0  0  0  0  0  0  0  0
    4.7071   -2.8937    3.4273 C   0  0  0  0  0  0  0  0  0  0  0  0
    5.4942   -2.2660    3.8521 H   0  0  0  0  0  0  0  0  0  0  0  0
    4.5572   -3.7590    4.0791 H   0  0  0  0  0  0  0  0  0  0  0  0
    5.0221   -3.2451    2.4415 H   0  0  0  0  0  0  0  0  0  0  0  0
    3.4007   -0.9301    2.5774 N   0  0  0  0  0  0  0  0  0  0  0  0
    2.1753   -0.2037    2.2208 C   0  0  2  0  0  0  0  0  0  0  0  0
    2.0789   -0.0047    0.6965 C   0  0  0  0  0  0  0  0  0  0  0  0
    3.0681    0.3335    0.0572 O   0  0  0  0  0  0  0  0  0  0  0  0
    2.1976    1.1434    2.9468 C   0  0  0  0  0  0  0  0  0  0  0  0
    4.2294   -0.7293    2.0196 H   0  0  0  0  0  0  0  0  0  0  0  0
    1.2883   -0.7620    2.5378 H   0  0  0  0  0  0  0  0  0  0  0  0
    3.0717    1.7289    2.6429 H   0  0  0  0  0  0  0  0  0  0  0  0
    1.2958    1.7187    2.7166 H   0  0  0  0  0  0  0  0  0  0  0  0
    2.2419    0.9873    4.0294 H   0  0  0  0  0  0  0  0  0  0  0  0
    0.8554    0.0743    0.0564 N   0  0  0  0  0  0  0  0  0  0  0  0
    0.5867   -0.5089   -1.2851 C   0  0  2  0  0  0  0  0  0  0  0  0
    1.7446   -1.2599   -2.0032 C   0  0  0  0  0  0  0  0  0  0  0  0
    2.3164   -2.1503   -1.3830 O   0  0  0  0  0  0  0  0  0  0  0  0
    0.1049    0.6567   -2.1582 C   0  0  0  0  0  0  0  0  0  0  0  0
    1.1739    1.5889   -2.3386 O   0  0  0  0  0  0  0  0  0  0  0  0
    0.0783   -0.0103    0.7061 H   0  0  0  0  0  0  0  0  0  0  0  0
   -0.2249   -1.2366   -1.1929 H   0  0  0  0  0  0  0  0  0  0  0  0
   -0.7334    1.1588   -1.6637 H   0  0  0  0  0  0  0  0  0  0  0  0
   -0.2588    0.3016   -3.1279 H   0  0  0  0  0  0  0  0  0  0  0  0
    1.6797    1.6873   -1.5048 H   0  0  0  0  0  0  0  0  0  0  0  0
    1.8278   -1.2807   -3.3885 N   0  0  0  0  0  0  0  0  0  0  0  0
    2.8299   -1.9968   -4.2069 C   0  0  2  0  0  0  0  0  0  0  0  0
    2.6366   -3.5277   -4.3072 C   0  0  0  0  0  0  0  0  0  0  0  0
    2.6607   -4.0654   -5.4069 O   0  0  0  0  0  0  0  0  0  0  0  0
    4.2575   -1.6530   -3.7571 C   0  0  0  0  0  0  0  0  0  0  0  0
    1.3729   -0.4882   -3.8366 H   0  0  0  0  0  0  0  0  0  0  0  0
    2.7225   -1.6190   -5.2288 H   0  0  0  0  0  0  0  0  0  0  0  0
    4.4847   -2.0936   -2.7817 H   0  0  0  0  0  0  0  0  0  0  0  0
    4.9814   -2.0392   -4.4814 H   0  0  0  0  0  0  0  0  0  0  0  0
    4.3832   -0.5684   -3.6862 H   0  0  0  0  0  0  0  0  0  0  0  0
    2.4560   -4.3082   -3.1837 N   0  0  0  0  0  0  0  0  0  0  0  0
    2.3263   -5.7582   -3.2064 C   0  0  0  0  0  0  0  0  0  0  0  0
    2.4664   -3.8136   -2.2876 H   0  0  0  0  0  0  0  0  0  0  0  0
    1.4574   -6.0561   -3.8020 H   0  0  0  0  0  0  0  0  0  0  0  0
    3.2230   -6.2151   -3.6375 H   0  0  0  0  0  0  0  0  0  0  0  0
    2.1967   -6.1410   -2.1897 H   0  0  0  0  0  0  0  0  0  0  0  0
  1  2  2  0  0  0  0
  1  3  1  0  0  0  0
  1  7  1  0  0  0  0
  3  4  1  0  0  0  0
  3  5  1  0  0  0  0
  3  6  1  0  0  0  0
  7  8  1  0  0  0  0
  7 12  1  0  0  0  0
  8  9  1  0  0  0  0
  8 11  1  0  0  0  0
  8 13  1  0  0  0  0
  9 10  2  0  0  0  0
  9 17  1  0  0  0  0
 11 14  1  0  0  0  0
 11 15  1  0  0  0  0
 11 16  1  0  0  0  0
 17 18  1  0  0  0  0
 17 23  1  0  0  0  0
 18 19  1  0  0  0  0
 18 21  1  0  0  0  0
 18 24  1  0  0  0  0
 19 20  2  0  0  0  0
 19 28  1  0  0  0  0
 21 22  1  0  0  0  0
 21 25  1  0  0  0  0
 21 26  1  0  0  0  0
 22 27  1  0  0  0  0
 28 29  1  0  0  0  0
 28 33  1  0  0  0  0
 29 30  1  0  0  0  0
 29 32  1  0  0  0  0
 29 34  1  0  0  0  0
 30 31  2  0  0  0  0
 30 38  1  0  0  0  0
 32 35  1  0  0  0  0
 32 36  1  0  0  0  0
 32 37  1  0  0  0  0
 38 39  1  0  0  0  0
 38 40  1  0  0  0  0
 39 41  1  0  0  0  0
 39 42  1  0  0  0  0
 39 43  1  0  0  0  0
M  END
$$$$

  -OEChem-05262217303D

 43 42  0     1  0  0  0  0  0999 V2000
    2.1726   -2.0866    2.4805 C   0  0  0  0  0  0  0  0  0  0  0  0
    1.0485   -1.6817    2.7463 O   0  0  0  0  0  0  0  0  0  0  0  0
    2.4450   -3.5739    2.3661 C   0  0  0  0  0  0  0  0  0  0  0  0
    3.2482   -3.8605    3.0494 H   0  0  0  0  0  0  0  0  0  0  0  0
    1.5468   -4.1436    2.6201 H   0  0  0  0  0  0  0  0  0  0  0  0
    2.7414   -3.8199    1.3430 H   0  0  0  0  0  0  0  0  0  0  0  0
    3.1654   -1.1796    2.1739 N   0  0  0  0  0  0  0  0  0  0  0  0
    2.9185    0.2620    2.0247 C   0  0  2  0  0  0  0  0  0  0  0  0
    2.1838    0.5620    0.6983 C   0  0  0  0  0  0  0  0  0  0  0  0
    2.6759    1.2334   -0.2008 O   0  0  0  0  0  0  0  0  0  0  0  0
    4.2713    0.9759    2.1280 C   0  0  0  0  0  0  0  0  0  0  0  0
    3.9872   -1.5641    1.7129 H   0  0  0  0  0  0  0  0  0  0  0  0
    2.2861    0.6188    2.8447 H   0  0  0  0  0  0  0  0  0  0  0  0
    4.9410    0.6512    1.3249 H   0  0  0  0  0  0  0  0  0  0  0  0
    4.1362    2.0594    2.0478 H   0  0  0  0  0  0  0  0  0  0  0  0
    4.7457    0.7570    3.0895 H   0  0  0  0  0  0  0  0  0  0  0  0
    0.9069    0.0843    0.4775 N   0  0  0  0  0  0  0  0  0  0  0  0
    0.6211   -0.8280   -0.6562 C   0  0  2  0  0  0  0  0  0  0  0  0
    1.8231   -1.2199   -1.5591 C   0  0  0  0  0  0  0  0  0  0  0  0
    2.7470   -1.8326   -1.0271 O   0  0  0  0  0  0  0  0  0  0  0  0
   -0.4746   -0.1494   -1.4875 C   0  0  0  0  0  0  0  0  0  0  0  0
    0.0434    1.0503   -2.0710 O   0  0  0  0  0  0  0  0  0  0  0  0
    0.5310   -0.2846    1.3564 H   0  0  0  0  0  0  0  0  0  0  0  0
    0.2219   -1.7647   -0.2563 H   0  0  0  0  0  0  0  0  0  0  0  0
   -1.3236    0.0964   -0.8407 H   0  0  0  0  0  0  0  0  0  0  0  0
   -0.8433   -0.8224   -2.2688 H   0  0  0  0  0  0  0  0  0  0  0  0
    0.5734    1.5402   -1.4062 H   0  0  0  0  0  0  0  0  0  0  0  0
    1.7270   -1.2096   -2.9422 N   0  0  0  0  0  0  0  0  0  0  0  0
    2.7994   -1.5298   -3.9081 C   0  0  2  0  0  0  0  0  0  0  0  0
    3.1540   -3.0291   -4.0403 C   0  0  0  0  0  0  0  0  0  0  0  0
    3.3037   -3.5180   -5.1525 O   0  0  0  0  0  0  0  0  0  0  0  0
    4.0564   -0.6947   -3.6260 C   0  0  0  0  0  0  0  0  0  0  0  0
    0.9866   -0.5948   -3.2825 H   0  0  0  0  0  0  0  0  0  0  0  0
    2.4310   -1.2261   -4.8936 H   0  0  0  0  0  0  0  0  0  0  0  0
    4.5497   -1.0192   -2.7052 H   0  0  0  0  0  0  0  0  0  0  0  0
    4.7690   -0.8006   -4.4501 H   0  0  0  0  0  0  0  0  0  0  0  0
    3.7963    0.3638   -3.5266 H   0  0  0  0  0  0  0  0  0  0  0  0
    3.3324   -3.8284   -2.9293 N   0  0  0  0  0  0  0  0  0  0  0  0
    3.7276   -5.2285   -2.9839 C   0  0  0  0  0  0  0  0  0  0  0  0
    3.2539   -3.3578   -2.0251 H   0  0  0  0  0  0  0  0  0  0  0  0
    3.8372   -5.6287   -1.9716 H   0  0  0  0  0  0  0  0  0  0  0  0
    2.9707   -5.8190   -3.5105 H   0  0  0  0  0  0  0  0  0  0  0  0
    4.6848   -5.3360   -3.5046 H   0  0  0  0  0  0  0  0  0  0  0  0
  1  2  2  0  0  0  0
  1  3  1  0  0  0  0
  1  7  1  0  0  0  0
  3  4  1  0  0  0  0
  3  5  1  0  0  0  0
  3  6  1  0  0  0  0
  7  8  1  0  0  0  0
  7 12  1  0  0  0  0
  8  9  1  0  0  0  0
  8 11  1  0  0  0  0
  8 13  1  0  0  0  0
  9 10  2  0  0  0  0
  9 17  1  0  0  0  0
 11 14  1  0  0  0  0
 11 15  1  0  0  0  0
 11 16  1  0  0  0  0
 17 18  1  0  0  0  0
 17 23  1  0  0  0  0
 18 19  1  0  0  0  0
 18 21  1  0  0  0  0
 18 24  1  0  0  0  0
 19 20  2  0  0  0  0
 19 28  1  0  0  0  0
 21 22  1  0  0  0  0
 21 25  1  0  0  0  0
 21 26  1  0  0  0  0
 22 27  1  0  0  0  0
 28 29  1  0  0  0  0
 28 33  1  0  0  0  0
 29 30  1  0  0  0  0
 29 32  1  0  0  0  0
 29 34  1  0  0  0  0
 30 31  2  0  0  0  0
 30 38  1  0  0  0  0
 32 35  1  0  0  0  0
 32 36  1  0  0  0  0
 32 37  1  0  0  0  0
 38 39  1  0  0  0  0
 38 40  1  0  0  0  0
 39 41  1  0  0  0  0
 39 42  1  0  0  0  0
 39 43  1  0  0  0  0
M  END
$$$$

  -OEChem-05262217303D

 43 42  0     1  0  0  0  0  0999 V2000
    3.8613   -1.8707    3.5695 C   0  0  0  0  0  0  0  0  0  0  0  0
    2.9433   -2.0813    4.3465 O   0  0  0  0  0  0  0  0  0  0  0  0
    5.1604   -2.6432    3.6974 C   0  0  0  0  0  0  0  0  0  0  0  0
    5.9841   -1.9561    3.9057 H   0  0  0  0  0  0  0  0  0  0  0  0
    5.0894   -3.3668    4.5143 H   0  0  0  0  0  0  0  0  0  0  0  0
    5.3686   -3.1808    2.7690 H   0  0  0  0  0  0  0  0  0  0  0  0
    3.7147   -0.9316    2.5703 N   0  0  0  0  0  0  0  0  0  0  0  0
    2.4488   -0.2602    2.2511 C   0  0  2  0  0  0  0  0  0  0  0  0
    2.2513   -0.1383    0.7277 C   0  0  0  0  0  0  0  0  0  0  0  0
    3.2232    0.0092   -0.0031 O   0  0  0  0  0  0  0  0  0  0  0  0
    2.4583    1.1205    2.9122 C   0  0  0  0  0  0  0  0  0  0  0  0
    4.4555   -0.8757    1.8721 H   0  0  0  0  0  0  0  0  0  0  0  0
    1.6074   -0.8412    2.6439 H   0  0  0  0  0  0  0  0  0  0  0  0
    3.2892    1.7224    2.5302 H   0  0  0  0  0  0  0  0  0  0  0  0
    1.5223    1.6501    2.7111 H   0  0  0  0  0  0  0  0  0  0  0  0
    2.5718    1.0186    3.9963 H   0  0  0  0  0  0  0  0  0  0  0  0
    0.9818   -0.0092    0.1884 N   0  0  0  0  0  0  0  0  0  0  0  0
    0.5745   -0.5610   -1.1297 C   0  0  2  0  0  0  0  0  0  0  0  0
    1.6425   -1.3371   -1.9455 C   0  0  0  0  0  0  0  0  0  0  0  0
    1.9793   -2.4383   -1.5250 O   0  0  0  0  0  0  0  0  0  0  0  0
    0.0040    0.6084   -1.9444 C   0  0  0  0  0  0  0  0  0  0  0  0
    1.0338    1.5606   -2.2341 O   0  0  0  0  0  0  0  0  0  0  0  0
    0.2516   -0.0195    0.8958 H   0  0  0  0  0  0  0  0  0  0  0  0
   -0.2332   -1.2799   -0.9620 H   0  0  0  0  0  0  0  0  0  0  0  0
   -0.7937    1.0965   -1.3745 H   0  0  0  0  0  0  0  0  0  0  0  0
   -0.4373    0.2414   -2.8774 H   0  0  0  0  0  0  0  0  0  0  0  0
    1.5426    1.7623   -1.4235 H   0  0  0  0  0  0  0  0  0  0  0  0
    2.0418   -0.9280   -3.2084 N   0  0  0  0  0  0  0  0  0  0  0  0
    3.1190   -1.5138   -4.0329 C   0  0  2  0  0  0  0  0  0  0  0  0
    2.8067   -2.8938   -4.6568 C   0  0  0  0  0  0  0  0  0  0  0  0
    3.0629   -3.0926   -5.8376 O   0  0  0  0  0  0  0  0  0  0  0  0
    4.4407   -1.5560   -3.2529 C   0  0  0  0  0  0  0  0  0  0  0  0
    1.7745    0.0345   -3.4226 H   0  0  0  0  0  0  0  0  0  0  0  0
    3.2694   -0.8340   -4.8778 H   0  0  0  0  0  0  0  0  0  0  0  0
    4.4012   -2.2943   -2.4465 H   0  0  0  0  0  0  0  0  0  0  0  0
    5.2628   -1.8262   -3.9232 H   0  0  0  0  0  0  0  0  0  0  0  0
    4.6569   -0.5760   -2.8163 H   0  0  0  0  0  0  0  0  0  0  0  0
    2.2735   -3.9210   -3.9048 N   0  0  0  0  0  0  0  0  0  0  0  0
    2.0318   -5.2649   -4.4094 C   0  0  0  0  0  0  0  0  0  0  0  0
    2.1275   -3.7198   -2.9121 H   0  0  0  0  0  0  0  0  0  0  0  0
    2.9691   -5.7229   -4.7419 H   0  0  0  0  0  0  0  0  0  0  0  0
    1.5998   -5.8903   -3.6225 H   0  0  0  0  0  0  0  0  0  0  0  0
    1.3332   -5.2375   -5.2518 H   0  0  0  0  0  0  0  0  0  0  0  0
  1  2  2  0  0  0  0
  1  3  1  0  0  0  0
  1  7  1  0  0  0  0
  3  4  1  0  0  0  0
  3  5  1  0  0  0  0
  3  6  1  0  0  0  0
  7  8  1  0  0  0  0
  7 12  1  0  0  0  0
  8  9  1  0  0  0  0
  8 11  1  0  0  0  0
  8 13  1  0  0  0  0
  9 10  2  0  0  0  0
  9 17  1  0  0  0  0
 11 14  1  0  0  0  0
 11 15  1  0  0  0  0
 11 16  1  0  0  0  0
 17 18  1  0  0  0  0
 17 23  1  0  0  0  0
 18 19  1  0  0  0  0
 18 21  1  0  0  0  0
 18 24  1  0  0  0  0
 19 20  2  0  0  0  0
 19 28  1  0  0  0  0
 21 22  1  0  0  0  0
 21 25  1  0  0  0  0
 21 26  1  0  0  0  0
 22 27  1  0  0  0  0
 28 29  1  0  0  0  0
 28 33  1  0  0  0  0
 29 30  1  0  0  0  0
 29 32  1  0  0  0  0
 29 34  1  0  0  0  0
 30 31  2  0  0  0  0
 30 38  1  0  0  0  0
 32 35  1  0  0  0  0
 32 36  1  0  0  0  0
 32 37  1  0  0  0  0
 38 39  1  0  0  0  0
 38 40  1  0  0  0  0
 39 41  1  0  0  0  0
 39 42  1  0  0  0  0
 39 43  1  0  0  0  0
M  END
$$$$

  -OEChem-05262217303D

 43 42  0     1  0  0  0  0  0999 V2000
    2.4211   -1.9830    2.6537 C   0  0  0  0  0  0  0  0  0  0  0  0
    1.2998   -1.5810    2.9350 O   0  0  0  0  0  0  0  0  0  0  0  0
    2.7268   -3.4681    2.6550 C   0  0  0  0  0  0  0  0  0  0  0  0
    3.5765   -3.6745    3.3102 H   0  0  0  0  0  0  0  0  0  0  0  0
    1.8616   -4.0323    3.0142 H   0  0  0  0  0  0  0  0  0  0  0  0
    2.9680   -3.7986    1.6411 H   0  0  0  0  0  0  0  0  0  0  0  0
    3.3779   -1.0805    2.2369 N   0  0  0  0  0  0  0  0  0  0  0  0
    3.1009    0.3464    2.0097 C   0  0  2  0  0  0  0  0  0  0  0  0
    2.3034    0.5551    0.7019 C   0  0  0  0  0  0  0  0  0  0  0  0
    2.7518    1.1707   -0.2568 O   0  0  0  0  0  0  0  0  0  0  0  0
    4.4435    1.0872    2.0147 C   0  0  0  0  0  0  0  0  0  0  0  0
    4.2103   -1.4775    1.8069 H   0  0  0  0  0  0  0  0  0  0  0  0
    2.4971    0.7424    2.8332 H   0  0  0  0  0  0  0  0  0  0  0  0
    5.0888    0.7250    1.2077 H   0  0  0  0  0  0  0  0  0  0  0  0
    4.2846    2.1612    1.8742 H   0  0  0  0  0  0  0  0  0  0  0  0
    4.9579    0.9372    2.9688 H   0  0  0  0  0  0  0  0  0  0  0  0
    1.0344    0.0242    0.5730 N   0  0  0  0  0  0  0  0  0  0  0  0
    0.7286   -0.9468   -0.5028 C   0  0  2  0  0  0  0  0  0  0  0  0
    1.8880   -1.3381   -1.4556 C   0  0  0  0  0  0  0  0  0  0  0  0
    2.7156   -2.1382   -1.0267 O   0  0  0  0  0  0  0  0  0  0  0  0
   -0.4622   -0.3649   -1.2779 C   0  0  0  0  0  0  0  0  0  0  0  0
   -0.0807    0.8455   -1.9446 O   0  0  0  0  0  0  0  0  0  0  0  0
    0.7128   -0.3119    1.4863 H   0  0  0  0  0  0  0  0  0  0  0  0
    0.4019   -1.8808   -0.0352 H   0  0  0  0  0  0  0  0  0  0  0  0
   -1.2861   -0.1584   -0.5864 H   0  0  0  0  0  0  0  0  0  0  0  0
   -0.8222   -1.0924   -2.0131 H   0  0  0  0  0  0  0  0  0  0  0  0
    0.3798    1.4360   -1.3125 H   0  0  0  0  0  0  0  0  0  0  0  0
    1.9807   -0.8603   -2.7523 N   0  0  0  0  0  0  0  0  0  0  0  0
    3.1153   -1.0048   -3.6869 C   0  0  2  0  0  0  0  0  0  0  0  0
    3.3418   -2.4301   -4.2415 C   0  0  0  0  0  0  0  0  0  0  0  0
    3.5883   -2.5839   -5.4308 O   0  0  0  0  0  0  0  0  0  0  0  0
    4.4048   -0.4497   -3.0671 C   0  0  0  0  0  0  0  0  0  0  0  0
    1.2964   -0.1304   -2.9645 H   0  0  0  0  0  0  0  0  0  0  0  0
    2.8847   -0.3809   -4.5567 H   0  0  0  0  0  0  0  0  0  0  0  0
    4.7518   -1.0800   -2.2434 H   0  0  0  0  0  0  0  0  0  0  0  0
    5.1957   -0.4078   -3.8225 H   0  0  0  0  0  0  0  0  0  0  0  0
    4.2376    0.5620   -2.6846 H   0  0  0  0  0  0  0  0  0  0  0  0
    3.3068   -3.5369   -3.4171 N   0  0  0  0  0  0  0  0  0  0  0  0
    3.5825   -4.8957   -3.8610 C   0  0  0  0  0  0  0  0  0  0  0  0
    3.1674   -3.3480   -2.4220 H   0  0  0  0  0  0  0  0  0  0  0  0
    3.5043   -5.5898   -3.0190 H   0  0  0  0  0  0  0  0  0  0  0  0
    2.8640   -5.2006   -4.6289 H   0  0  0  0  0  0  0  0  0  0  0  0
    4.5936   -4.9650   -4.2755 H   0  0  0  0  0  0  0  0  0  0  0  0
  1  2  2  0  0  0  0
  1  3  1  0  0  0  0
  1  7  1  0  0  0  0
  3  4  1  0  0  0  0
  3  5  1  0  0  0  0
  3  6  1  0  0  0  0
  7  8  1  0  0  0  0
  7 12  1  0  0  0  0
  8  9  1  0  0  0  0
  8 11  1  0  0  0  0
  8 13  1  0  0  0  0
  9 10  2  0  0  0  0
  9 17  1  0  0  0  0
 11 14  1  0  0  0  0
 11 15  1  0  0  0  0
 11 16  1  0  0  0  0
 17 18  1  0  0  0  0
 17 23  1  0  0  0  0
 18 19  1  0  0  0  0
 18 21  1  0  0  0  0
 18 24  1  0  0  0  0
 19 20  2  0  0  0  0
 19 28  1  0  0  0  0
 21 22  1  0  0  0  0
 21 25  1  0  0  0  0
 21 26  1  0  0  0  0
 22 27  1  0  0  0  0
 28 29  1  0  0  0  0
 28 33  1  0  0  0  0
 29 30  1  0  0  0  0
 29 32  1  0  0  0  0
 29 34  1  0  0  0  0
 30 31  2  0  0  0  0
 30 38  1  0  0  0  0
 32 35  1  0  0  0  0
 32 36  1  0  0  0  0
 32 37  1  0  0  0  0
 38 39  1  0  0  0  0
 38 40  1  0  0  0  0
 39 41  1  0  0  0  0
 39 42  1  0  0  0  0
 39 43  1  0  0  0  0
M  END
$$$$

  -OEChem-05262217303D

 43 42  0     1  0  0  0  0  0999 V2000
    3.7458   -1.3218    4.4117 C   0  0  0  0  0  0  0  0  0  0  0  0
    2.8370   -1.0410    5.1774 O   0  0  0  0  0  0  0  0  0  0  0  0
    4.9626   -2.0762    4.9133 C   0  0  0  0  0  0  0  0  0  0  0  0
    5.8654   -1.4857    4.7391 H   0  0  0  0  0  0  0  0  0  0  0  0
    4.8704   -2.2714    5.9854 H   0  0  0  0  0  0  0  0  0  0  0  0
    5.0526   -3.0302    4.3879 H   0  0  0  0  0  0  0  0  0  0  0  0
    3.6599   -0.9659    3.0830 N   0  0  0  0  0  0  0  0  0  0  0  0
    2.4663   -0.3845    2.4557 C   0  0  2  0  0  0  0  0  0  0  0  0
    2.3301   -0.8174    0.9803 C   0  0  0  0  0  0  0  0  0  0  0  0
    3.3098   -1.2717    0.4045 O   0  0  0  0  0  0  0  0  0  0  0  0
    2.5603    1.1409    2.5604 C   0  0  0  0  0  0  0  0  0  0  0  0
    4.3791   -1.3231    2.4542 H   0  0  0  0  0  0  0  0  0  0  0  0
    1.5698   -0.7292    2.9824 H   0  0  0  0  0  0  0  0  0  0  0  0
    3.4470    1.5058    2.0323 H   0  0  0  0  0  0  0  0  0  0  0  0
    1.6753    1.6128    2.1234 H   0  0  0  0  0  0  0  0  0  0  0  0
    2.6298    1.4450    3.6098 H   0  0  0  0  0  0  0  0  0  0  0  0
    1.1118   -0.6565    0.3366 N   0  0  0  0  0  0  0  0  0  0  0  0
    0.7551   -1.0181   -1.0573 C   0  0  2  0  0  0  0  0  0  0  0  0
    1.8336   -1.6619   -1.9615 C   0  0  0  0  0  0  0  0  0  0  0  0
    1.8217   -2.8792   -2.1067 O   0  0  0  0  0  0  0  0  0  0  0  0
    0.1297    0.2161   -1.7324 C   0  0  0  0  0  0  0  0  0  0  0  0
    1.0721    1.2889   -1.8856 O   0  0  0  0  0  0  0  0  0  0  0  0
    0.3805   -0.2380    0.9029 H   0  0  0  0  0  0  0  0  0  0  0  0
   -0.0291   -1.7783   -0.9892 H   0  0  0  0  0  0  0  0  0  0  0  0
   -0.7187    0.5641   -1.1343 H   0  0  0  0  0  0  0  0  0  0  0  0
   -0.2564   -0.0689   -2.7173 H   0  0  0  0  0  0  0  0  0  0  0  0
    0.6475    2.0687   -2.2892 H   0  0  0  0  0  0  0  0  0  0  0  0
    2.6670   -0.8772   -2.7406 N   0  0  0  0  0  0  0  0  0  0  0  0
    3.8097   -1.3188   -3.5650 C   0  0  2  0  0  0  0  0  0  0  0  0
    3.4371   -2.0943   -4.8490 C   0  0  0  0  0  0  0  0  0  0  0  0
    3.9705   -1.7957   -5.9104 O   0  0  0  0  0  0  0  0  0  0  0  0
    4.8143   -2.1137   -2.7202 C   0  0  0  0  0  0  0  0  0  0  0  0
    2.5932    0.1192   -2.5317 H   0  0  0  0  0  0  0  0  0  0  0  0
    4.3226   -0.4125   -3.9019 H   0  0  0  0  0  0  0  0  0  0  0  0
    4.3971   -3.0763   -2.4101 H   0  0  0  0  0  0  0  0  0  0  0  0
    5.7233   -2.3049   -3.2987 H   0  0  0  0  0  0  0  0  0  0  0  0
    5.0866   -1.5489   -1.8235 H   0  0  0  0  0  0  0  0  0  0  0  0
    2.5311   -3.1351   -4.8233 N   0  0  0  0  0  0  0  0  0  0  0  0
    2.2068   -3.9668   -5.9729 C   0  0  0  0  0  0  0  0  0  0  0  0
    2.1596   -3.3796   -3.9011 H   0  0  0  0  0  0  0  0  0  0  0  0
    1.4329   -4.6927   -5.7061 H   0  0  0  0  0  0  0  0  0  0  0  0
    1.8340   -3.3516   -6.7982 H   0  0  0  0  0  0  0  0  0  0  0  0
    3.0936   -4.5126   -6.3109 H   0  0  0  0  0  0  0  0  0  0  0  0
  1  2  2  0  0  0  0
  1  3  1  0  0  0  0
  1  7  1  0  0  0  0
  3  4  1  0  0  0  0
  3  5  1  0  0  0  0
  3  6  1  0  0  0  0
  7  8  1  0  0  0  0
  7 12  1  0  0  0  0
  8  9  1  0  0  0  0
  8 11  1  0  0  0  0
  8 13  1  0  0  0  0
  9 10  2  0  0  0  0
  9 17  1  0  0  0  0
 11 14  1  0  0  0  0
 11 15  1  0  0  0  0
 11 16  1  0  0  0  0
 17 18  1  0  0  0  0
 17 23  1  0  0  0  0
 18 19  1  0  0  0  0
 18 21  1  0  0  0  0
 18 24  1  0  0  0  0
 19 20  2  0  0  0  0
 19 28  1  0  0  0  0
 21 22  1  0  0  0  0
 21 25  1  0  0  0  0
 21 26  1  0  0  0  0
 22 27  1  0  0  0  0
 28 29  1  0  0  0  0
 28 33  1  0  0  0  0
 29 30  1  0  0  0  0
 29 32  1  0  0  0  0
 29 34  1  0  0  0  0
 30 31  2  0  0  0  0
 30 38  1  0  0  0  0
 32 35  1  0  0  0  0
 32 36  1  0  0  0  0
 32 37  1  0  0  0  0
 38 39  1  0  0  0  0
 38 40  1  0  0  0  0
 39 41  1  0  0  0  0
 39 42  1  0  0  0  0
 39 43  1  0  0  0  0
M  END
$$$$

  -OEChem-05262217303D

 43 42  0     1  0  0  0  0  0999 V2000
    3.6326   -1.1589    4.5624 C   0  0  0  0  0  0  0  0  0  0  0  0
    2.7296   -0.7434    5.2717 O   0  0  0  0  0  0  0  0  0  0  0  0
    4.8018   -1.9074    5.1742 C   0  0  0  0  0  0  0  0  0  0  0  0
    5.7366   -1.3879    4.9500 H   0  0  0  0  0  0  0  0  0  0  0  0
    4.6842   -1.9684    6.2598 H   0  0  0  0  0  0  0  0  0  0  0  0
    4.8493   -2.9207    4.7680 H   0  0  0  0  0  0  0  0  0  0  0  0
    3.5827   -0.9586    3.1994 N   0  0  0  0  0  0  0  0  0  0  0  0
    2.4327   -0.3871    2.4868 C   0  0  2  0  0  0  0  0  0  0  0  0
    2.2985   -0.9642    1.0615 C   0  0  0  0  0  0  0  0  0  0  0  0
    3.2521   -1.5481    0.5655 O   0  0  0  0  0  0  0  0  0  0  0  0
    2.6052    1.1342    2.4350 C   0  0  0  0  0  0  0  0  0  0  0  0
    4.2921   -1.4198    2.6301 H   0  0  0  0  0  0  0  0  0  0  0  0
    1.5101   -0.6291    3.0257 H   0  0  0  0  0  0  0  0  0  0  0  0
    3.5220    1.3963    1.8973 H   0  0  0  0  0  0  0  0  0  0  0  0
    1.7573    1.6018    1.9261 H   0  0  0  0  0  0  0  0  0  0  0  0
    2.6669    1.5431    3.4487 H   0  0  0  0  0  0  0  0  0  0  0  0
    1.1023   -0.8106    0.3775 N   0  0  0  0  0  0  0  0  0  0  0  0
    0.7989   -1.1633   -1.0315 C   0  0  2  0  0  0  0  0  0  0  0  0
    1.9011   -1.7859   -1.9213 C   0  0  0  0  0  0  0  0  0  0  0  0
    1.7661   -2.9438   -2.3011 O   0  0  0  0  0  0  0  0  0  0  0  0
    0.2036    0.0789   -1.7144 C   0  0  0  0  0  0  0  0  0  0  0  0
    1.1623    1.1431   -1.8145 O   0  0  0  0  0  0  0  0  0  0  0  0
    0.3967   -0.2742    0.8728 H   0  0  0  0  0  0  0  0  0  0  0  0
    0.0128   -1.9241   -0.9957 H   0  0  0  0  0  0  0  0  0  0  0  0
   -0.6680    0.4252   -1.1495 H   0  0  0  0  0  0  0  0  0  0  0  0
   -0.1401   -0.1927   -2.7184 H   0  0  0  0  0  0  0  0  0  0  0  0
    0.7845    1.9064   -2.2896 H   0  0  0  0  0  0  0  0  0  0  0  0
    2.9270   -1.0034   -2.4232 N   0  0  0  0  0  0  0  0  0  0  0  0
    4.0949   -1.4365   -3.2145 C   0  0  2  0  0  0  0  0  0  0  0  0
    3.7783   -1.8643   -4.6652 C   0  0  0  0  0  0  0  0  0  0  0  0
    4.4493   -1.4182   -5.5875 O   0  0  0  0  0  0  0  0  0  0  0  0
    4.8762   -2.5338   -2.4794 C   0  0  0  0  0  0  0  0  0  0  0  0
    2.9131   -0.0423   -2.0834 H   0  0  0  0  0  0  0  0  0  0  0  0
    4.7601   -0.5707   -3.2937 H   0  0  0  0  0  0  0  0  0  0  0  0
    4.3033   -3.4643   -2.4318 H   0  0  0  0  0  0  0  0  0  0  0  0
    5.8173   -2.7377   -2.9993 H   0  0  0  0  0  0  0  0  0  0  0  0
    5.1063   -2.2154   -1.4582 H   0  0  0  0  0  0  0  0  0  0  0  0
    2.7620   -2.7559   -4.9436 N   0  0  0  0  0  0  0  0  0  0  0  0
    2.4600   -3.2641   -6.2739 C   0  0  0  0  0  0  0  0  0  0  0  0
    2.2623   -3.1307   -4.1325 H   0  0  0  0  0  0  0  0  0  0  0  0
    1.5702   -3.9000   -6.2414 H   0  0  0  0  0  0  0  0  0  0  0  0
    2.2675   -2.4376   -6.9660 H   0  0  0  0  0  0  0  0  0  0  0  0
    3.2979   -3.8570   -6.6548 H   0  0  0  0  0  0  0  0  0  0  0  0
  1  2  2  0  0  0  0
  1  3  1  0  0  0  0
  1  7  1  0  0  0  0
  3  4  1  0  0  0  0
  3  5  1  0  0  0  0
  3  6  1  0  0  0  0
  7  8  1  0  0  0  0
  7 12  1  0  0  0  0
  8  9  1  0  0  0  0
  8 11  1  0  0  0  0
  8 13  1  0  0  0  0
  9 10  2  0  0  0  0
  9 17  1  0  0  0  0
 11 14  1  0  0  0  0
 11 15  1  0  0  0  0
 11 16  1  0  0  0  0
 17 18  1  0  0  0  0
 17 23  1  0  0  0  0
 18 19  1  0  0  0  0
 18 21  1  0  0  0  0
 18 24  1  0  0  0  0
 19 20  2  0  0  0  0
 19 28  1  0  0  0  0
 21 22  1  0  0  0  0
 21 25  1  0  0  0  0
 21 26  1  0  0  0  0
 22 27  1  0  0  0  0
 28 29  1  0  0  0  0
 28 33  1  0  0  0  0
 29 30  1  0  0  0  0
 29 32  1  0  0  0  0
 29 34  1  0  0  0  0
 30 31  2  0  0  0  0
 30 38  1  0  0  0  0
 32 35  1  0  0  0  0
 32 36  1  0  0  0  0
 32 37  1  0  0  0  0
 38 39  1  0  0  0  0
 38 40  1  0  0  0  0
 39 41  1  0  0  0  0
 39 42  1  0  0  0  0
 39 43  1  0  0  0  0
M  END
$$$$

  -OEChem-05262217303D

 43 42  0     1  0  0  0  0  0999 V2000
    3.2661   -1.2965    4.5968 C   0  0  0  0  0  0  0  0  0  0  0  0
    2.1542   -1.2846    5.1003 O   0  0  0  0  0  0  0  0  0  0  0  0
    4.3995   -2.0419    5.2757 C   0  0  0  0  0  0  0  0  0  0  0  0
    5.2267   -1.3577    5.4798 H   0  0  0  0  0  0  0  0  0  0  0  0
    4.0558   -2.4699    6.2216 H   0  0  0  0  0  0  0  0  0  0  0  0
    4.7544   -2.8497    4.6310 H   0  0  0  0  0  0  0  0  0  0  0  0
    3.4981   -0.6391    3.4062 N   0  0  0  0  0  0  0  0  0  0  0  0
    2.4404   -0.0629    2.5627 C   0  0  2  0  0  0  0  0  0  0  0  0
    2.4042   -0.7086    1.1619 C   0  0  0  0  0  0  0  0  0  0  0  0
    3.4324   -1.1780    0.6925 O   0  0  0  0  0  0  0  0  0  0  0  0
    2.7013    1.4410    2.4515 C   0  0  0  0  0  0  0  0  0  0  0  0
    4.3880   -0.8351    2.9520 H   0  0  0  0  0  0  0  0  0  0  0  0
    1.4573   -0.2147    3.0207 H   0  0  0  0  0  0  0  0  0  0  0  0
    3.6750    1.6291    1.9876 H   0  0  0  0  0  0  0  0  0  0  0  0
    1.9280    1.9213    1.8441 H   0  0  0  0  0  0  0  0  0  0  0  0
    2.6944    1.8998    3.4453 H   0  0  0  0  0  0  0  0  0  0  0  0
    1.2286   -0.6800    0.4300 N   0  0  0  0  0  0  0  0  0  0  0  0
    0.9530   -1.1966   -0.9344 C   0  0  2  0  0  0  0  0  0  0  0  0
    2.0602   -1.8896   -1.7617 C   0  0  0  0  0  0  0  0  0  0  0  0
    1.7643   -2.9155   -2.3613 O   0  0  0  0  0  0  0  0  0  0  0  0
    0.3441   -0.0596   -1.7694 C   0  0  0  0  0  0  0  0  0  0  0  0
    1.2784    1.0060   -1.9851 O   0  0  0  0  0  0  0  0  0  0  0  0
    0.4600   -0.1969    0.8874 H   0  0  0  0  0  0  0  0  0  0  0  0
    0.1808   -1.9635   -0.8154 H   0  0  0  0  0  0  0  0  0  0  0  0
   -0.5356    0.3367   -1.2518 H   0  0  0  0  0  0  0  0  0  0  0  0
    0.0076   -0.4496   -2.7364 H   0  0  0  0  0  0  0  0  0  0  0  0
    1.9726    0.7360   -2.6160 H   0  0  0  0  0  0  0  0  0  0  0  0
    3.2247   -1.2127   -2.0892 N   0  0  0  0  0  0  0  0  0  0  0  0
    4.3260   -1.7116   -2.9376 C   0  0  2  0  0  0  0  0  0  0  0  0
    3.9933   -1.8111   -4.4443 C   0  0  0  0  0  0  0  0  0  0  0  0
    4.6693   -1.1880   -5.2526 O   0  0  0  0  0  0  0  0  0  0  0  0
    4.8792   -3.0395   -2.4018 C   0  0  0  0  0  0  0  0  0  0  0  0
    3.4958   -0.5623   -1.3499 H   0  0  0  0  0  0  0  0  0  0  0  0
    5.1358   -0.9788   -2.8602 H   0  0  0  0  0  0  0  0  0  0  0  0
    4.1627   -3.8549   -2.5377 H   0  0  0  0  0  0  0  0  0  0  0  0
    5.7992   -3.3027   -2.9329 H   0  0  0  0  0  0  0  0  0  0  0  0
    5.1074   -2.9520   -1.3351 H   0  0  0  0  0  0  0  0  0  0  0  0
    2.9340   -2.5704   -4.8982 N   0  0  0  0  0  0  0  0  0  0  0  0
    2.5316   -2.6617   -6.2947 C   0  0  0  0  0  0  0  0  0  0  0  0
    2.3533   -3.0054   -4.1760 H   0  0  0  0  0  0  0  0  0  0  0  0
    1.7061   -3.3717   -6.4031 H   0  0  0  0  0  0  0  0  0  0  0  0
    2.2014   -1.6851   -6.6627 H   0  0  0  0  0  0  0  0  0  0  0  0
    3.3669   -3.0076   -6.9123 H   0  0  0  0  0  0  0  0  0  0  0  0
  1  2  2  0  0  0  0
  1  3  1  0  0  0  0
  1  7  1  0  0  0  0
  3  4  1  0  0  0  0
  3  5  1  0  0  0  0
  3  6  1  0  0  0  0
  7  8  1  0  0  0  0
  7 12  1  0  0  0  0
  8  9  1  0  0  0  0
  8 11  1  0  0  0  0
  8 13  1  0  0  0  0
  9 10  2  0  0  0  0
  9 17  1  0  0  0  0
 11 14  1  0  0  0  0
 11 15  1  0  0  0  0
 11 16  1  0  0  0  0
 17 18  1  0  0  0  0
 17 23  1  0  0  0  0
 18 19  1  0  0  0  0
 18 21  1  0  0  0  0
 18 24  1  0  0  0  0
 19 20  2  0  0  0  0
 19 28  1  0  0  0  0
 21 22  1  0  0  0  0
 21 25  1  0  0  0  0
 21 26  1  0  0  0  0
 22 27  1  0  0  0  0
 28 29  1  0  0  0  0
 28 33  1  0  0  0  0
 29 30  1  0  0  0  0
 29 32  1  0  0  0  0
 29 34  1  0  0  0  0
 30 31  2  0  0  0  0
 30 38  1  0  0  0  0
 32 35  1  0  0  0  0
 32 36  1  0  0  0  0
 32 37  1  0  0  0  0
 38 39  1  0  0  0  0
 38 40  1  0  0  0  0
 39 41  1  0  0  0  0
 39 42  1  0  0  0  0
 39 43  1  0  0  0  0
M  END
$$$$

  -OEChem-05262217303D

 43 42  0     1  0  0  0  0  0999 V2000
    2.9613   -0.8558    4.8887 C   0  0  0  0  0  0  0  0  0  0  0  0
    1.8247   -0.5865    5.2431 O   0  0  0  0  0  0  0  0  0  0  0  0
    3.8661   -1.6663    5.7977 C   0  0  0  0  0  0  0  0  0  0  0  0
    4.7562   -1.0859    6.0529 H   0  0  0  0  0  0  0  0  0  0  0  0
    3.3387   -1.9262    6.7198 H   0  0  0  0  0  0  0  0  0  0  0  0
    4.1711   -2.5878    5.2956 H   0  0  0  0  0  0  0  0  0  0  0  0
    3.4254   -0.4430    3.6567 N   0  0  0  0  0  0  0  0  0  0  0  0
    2.5609    0.1091    2.6026 C   0  0  2  0  0  0  0  0  0  0  0  0
    2.4349   -0.8493    1.4000 C   0  0  0  0  0  0  0  0  0  0  0  0
    3.3414   -1.6384    1.1715 O   0  0  0  0  0  0  0  0  0  0  0  0
    3.1610    1.4439    2.1558 C   0  0  0  0  0  0  0  0  0  0  0  0
    4.2947   -0.8730    3.3476 H   0  0  0  0  0  0  0  0  0  0  0  0
    1.5525    0.2945    2.9870 H   0  0  0  0  0  0  0  0  0  0  0  0
    4.1675    1.2973    1.7508 H   0  0  0  0  0  0  0  0  0  0  0  0
    2.5388    1.9038    1.3813 H   0  0  0  0  0  0  0  0  0  0  0  0
    3.2229    2.1335    3.0036 H   0  0  0  0  0  0  0  0  0  0  0  0
    1.3223   -0.7602    0.5816 N   0  0  0  0  0  0  0  0  0  0  0  0
    1.0472   -1.3897   -0.7362 C   0  0  2  0  0  0  0  0  0  0  0  0
    2.0541   -2.3198   -1.4526 C   0  0  0  0  0  0  0  0  0  0  0  0
    1.5958   -3.1402   -2.2393 O   0  0  0  0  0  0  0  0  0  0  0  0
    0.6690   -0.2618   -1.7108 C   0  0  0  0  0  0  0  0  0  0  0  0
    1.7709    0.6218   -1.9569 O   0  0  0  0  0  0  0  0  0  0  0  0
    0.6849   -0.0124    0.8408 H   0  0  0  0  0  0  0  0  0  0  0  0
    0.1616   -2.0158   -0.5918 H   0  0  0  0  0  0  0  0  0  0  0  0
   -0.1609    0.3134   -1.2879 H   0  0  0  0  0  0  0  0  0  0  0  0
    0.3228   -0.6843   -2.6607 H   0  0  0  0  0  0  0  0  0  0  0  0
    2.3426    0.2708   -2.6880 H   0  0  0  0  0  0  0  0  0  0  0  0
    3.3967   -2.0009   -1.5401 N   0  0  0  0  0  0  0  0  0  0  0  0
    4.2672   -2.2728   -2.6922 C   0  0  2  0  0  0  0  0  0  0  0  0
    3.6968   -1.6323   -3.9811 C   0  0  0  0  0  0  0  0  0  0  0  0
    3.2789   -0.4770   -3.9364 O   0  0  0  0  0  0  0  0  0  0  0  0
    4.5613   -3.7772   -2.8122 C   0  0  0  0  0  0  0  0  0  0  0  0
    3.7216   -1.3519   -0.8234 H   0  0  0  0  0  0  0  0  0  0  0  0
    5.2247   -1.7770   -2.5068 H   0  0  0  0  0  0  0  0  0  0  0  0
    3.6700   -4.3355   -3.1125 H   0  0  0  0  0  0  0  0  0  0  0  0
    5.3464   -3.9531   -3.5538 H   0  0  0  0  0  0  0  0  0  0  0  0
    4.9039   -4.1696   -1.8496 H   0  0  0  0  0  0  0  0  0  0  0  0
    3.6377   -2.3229   -5.1777 N   0  0  0  0  0  0  0  0  0  0  0  0
    2.9616   -1.7987   -6.3579 C   0  0  0  0  0  0  0  0  0  0  0  0
    3.8190   -3.3213   -5.1288 H   0  0  0  0  0  0  0  0  0  0  0  0
    3.0600   -2.5002   -7.1919 H   0  0  0  0  0  0  0  0  0  0  0  0
    1.8963   -1.6488   -6.1530 H   0  0  0  0  0  0  0  0  0  0  0  0
    3.4002   -0.8420   -6.6604 H   0  0  0  0  0  0  0  0  0  0  0  0
  1  2  2  0  0  0  0
  1  3  1  0  0  0  0
  1  7  1  0  0  0  0
  3  4  1  0  0  0  0
  3  5  1  0  0  0  0
  3  6  1  0  0  0  0
  7  8  1  0  0  0  0
  7 12  1  0  0  0  0
  8  9  1  0  0  0  0
  8 11  1  0  0  0  0
  8 13  1  0  0  0  0
  9 10  2  0  0  0  0
  9 17  1  0  0  0  0
 11 14  1  0  0  0  0
 11 15  1  0  0  0  0
 11 16  1  0  0  0  0
 17 18  1  0  0  0  0
 17 23  1  0  0  0  0
 18 19  1  0  0  0  0
 18 21  1  0  0  0  0
 18 24  1  0  0  0  0
 19 20  2  0  0  0  0
 19 28  1  0  0  0  0
 21 22  1  0  0  0  0
 21 25  1  0  0  0  0
 21 26  1  0  0  0  0
 22 27  1  0  0  0  0
 28 29  1  0  0  0  0
 28 33  1  0  0  0  0
 29 30  1  0  0  0  0
 29 32  1  0  0  0  0
 29 34  1  0  0  0  0
 30 31  2  0  0  0  0
 30 38  1  0  0  0  0
 32 35  1  0  0  0  0
 32 36  1  0  0  0  0
 32 37  1  0  0  0  0
 38 39  1  0  0  0  0
 38 40  1  0  0  0  0
 39 41  1  0  0  0  0
 39 42  1  0  0  0  0
 39 43  1  0  0  0  0
M  END
$$$$

  -OEChem-05262217303D

 43 42  0     1  0  0  0  0  0999 V2000
    2.9416   -0.7791    4.9098 C   0  0  0  0  0  0  0  0  0  0  0  0
    1.8102   -0.4404    5.2183 O   0  0  0  0  0  0  0  0  0  0  0  0
    3.7733   -1.6073    5.8709 C   0  0  0  0  0  0  0  0  0  0  0  0
    4.7041   -1.0854    6.1051 H   0  0  0  0  0  0  0  0  0  0  0  0
    3.2210   -1.7746    6.7998 H   0  0  0  0  0  0  0  0  0  0  0  0
    4.0088   -2.5752    5.4218 H   0  0  0  0  0  0  0  0  0  0  0  0
    3.4657   -0.4291    3.6822 N   0  0  0  0  0  0  0  0  0  0  0  0
    2.6613    0.1370    2.5888 C   0  0  2  0  0  0  0  0  0  0  0  0
    2.3854   -0.8918    1.4724 C   0  0  0  0  0  0  0  0  0  0  0  0
    3.1748   -1.8105    1.3005 O   0  0  0  0  0  0  0  0  0  0  0  0
    3.4218    1.3367    2.0190 C   0  0  0  0  0  0  0  0  0  0  0  0
    4.3158   -0.9187    3.4131 H   0  0  0  0  0  0  0  0  0  0  0  0
    1.6953    0.4898    2.9651 H   0  0  0  0  0  0  0  0  0  0  0  0
    4.3914    1.0234    1.6188 H   0  0  0  0  0  0  0  0  0  0  0  0
    2.8494    1.8046    1.2115 H   0  0  0  0  0  0  0  0  0  0  0  0
    3.5911    2.0838    2.8006 H   0  0  0  0  0  0  0  0  0  0  0  0
    1.2793   -0.7122    0.6609 N   0  0  0  0  0  0  0  0  0  0  0  0
    0.9330   -1.3064   -0.6575 C   0  0  2  0  0  0  0  0  0  0  0  0
    1.8142   -2.3165   -1.4331 C   0  0  0  0  0  0  0  0  0  0  0  0
    1.2802   -2.9314   -2.3490 O   0  0  0  0  0  0  0  0  0  0  0  0
    0.6846   -0.1100   -1.5925 C   0  0  0  0  0  0  0  0  0  0  0  0
    1.8869    0.6428   -1.8111 O   0  0  0  0  0  0  0  0  0  0  0  0
    0.7565    0.1292    0.8881 H   0  0  0  0  0  0  0  0  0  0  0  0
   -0.0151   -1.8336   -0.5151 H   0  0  0  0  0  0  0  0  0  0  0  0
   -0.0717    0.5448   -1.1476 H   0  0  0  0  0  0  0  0  0  0  0  0
    0.2899   -0.4543   -2.5548 H   0  0  0  0  0  0  0  0  0  0  0  0
    2.4788    0.1946   -2.4700 H   0  0  0  0  0  0  0  0  0  0  0  0
    3.1932   -2.3412   -1.3484 N   0  0  0  0  0  0  0  0  0  0  0  0
    4.1035   -2.6798   -2.4530 C   0  0  2  0  0  0  0  0  0  0  0  0
    3.8406   -1.8021   -3.7038 C   0  0  0  0  0  0  0  0  0  0  0  0
    3.5310   -0.6209   -3.5605 O   0  0  0  0  0  0  0  0  0  0  0  0
    4.0674   -4.1905   -2.7387 C   0  0  0  0  0  0  0  0  0  0  0  0
    3.5754   -1.8603   -0.5323 H   0  0  0  0  0  0  0  0  0  0  0  0
    5.1194   -2.4415   -2.1245 H   0  0  0  0  0  0  0  0  0  0  0  0
    3.1209   -4.4845   -3.2021 H   0  0  0  0  0  0  0  0  0  0  0  0
    4.8839   -4.4713   -3.4104 H   0  0  0  0  0  0  0  0  0  0  0  0
    4.1830   -4.7514   -1.8061 H   0  0  0  0  0  0  0  0  0  0  0  0
    3.9858   -2.3028   -4.9850 N   0  0  0  0  0  0  0  0  0  0  0  0
    3.6454   -1.5391   -6.1789 C   0  0  0  0  0  0  0  0  0  0  0  0
    4.1040   -3.3079   -5.0697 H   0  0  0  0  0  0  0  0  0  0  0  0
    3.8508   -2.1300   -7.0765 H   0  0  0  0  0  0  0  0  0  0  0  0
    2.5830   -1.2737   -6.1733 H   0  0  0  0  0  0  0  0  0  0  0  0
    4.2382   -0.6199   -6.2295 H   0  0  0  0  0  0  0  0  0  0  0  0
  1  2  2  0  0  0  0
  1  3  1  0  0  0  0
  1  7  1  0  0  0  0
  3  4  1  0  0  0  0
  3  5  1  0  0  0  0
  3  6  1  0  0  0  0
  7  8  1  0  0  0  0
  7 12  1  0  0  0  0
  8  9  1  0  0  0  0
  8 11  1  0  0  0  0
  8 13  1  0  0  0  0
  9 10  2  0  0  0  0
  9 17  1  0  0  0  0
 11 14  1  0  0  0  0
 11 15  1  0  0  0  0
 11 16  1  0  0  0  0
 17 18  1  0  0  0  0
 17 23  1  0  0  0  0
 18 19  1  0  0  0  0
 18 21  1  0  0  0  0
 18 24  1  0  0  0  0
 19 20  2  0  0  0  0
 19 28  1  0  0  0  0
 21 22  1  0  0  0  0
 21 25  1  0  0  0  0
 21 26  1  0  0  0  0
 22 27  1  0  0  0  0
 28 29  1  0  0  0  0
 28 33  1  0  0  0  0
 29 30  1  0  0  0  0
 29 32  1  0  0  0  0
 29 34  1  0  0  0  0
 30 31  2  0  0  0  0
 30 38  1  0  0  0  0
 32 35  1  0  0  0  0
 32 36  1  0  0  0  0
 32 37  1  0  0  0  0
 38 39  1  0  0  0  0
 38 40  1  0  0  0  0
 39 41  1  0  0  0  0
 39 42  1  0  0  0  0
 39 43  1  0  0  0  0
M  END
$$$$

  -OEChem-05262217303D

 43 42  0     1  0  0  0  0  0999 V2000
    3.4106   -0.9980    4.9889 C   0  0  0  0  0  0  0  0  0  0  0  0
    2.7267   -0.1355    5.5164 O   0  0  0  0  0  0  0  0  0  0  0  0
    4.1728   -1.9950    5.8413 C   0  0  0  0  0  0  0  0  0  0  0  0
    5.2342   -1.9741    5.5826 H   0  0  0  0  0  0  0  0  0  0  0  0
    4.0641   -1.7458    6.9007 H   0  0  0  0  0  0  0  0  0  0  0  0
    3.7839   -3.0026    5.6746 H   0  0  0  0  0  0  0  0  0  0  0  0
    3.4757   -1.0781    3.6138 N   0  0  0  0  0  0  0  0  0  0  0  0
    2.6629   -0.2649    2.6989 C   0  0  2  0  0  0  0  0  0  0  0  0
    2.3111   -1.0257    1.4022 C   0  0  0  0  0  0  0  0  0  0  0  0
    2.8898   -2.0726    1.1473 O   0  0  0  0  0  0  0  0  0  0  0  0
    3.4374    1.0164    2.3725 C   0  0  0  0  0  0  0  0  0  0  0  0
    3.9540   -1.8852    3.2157 H   0  0  0  0  0  0  0  0  0  0  0  0
    1.7181    0.0003    3.1860 H   0  0  0  0  0  0  0  0  0  0  0  0
    4.3869    0.7770    1.8831 H   0  0  0  0  0  0  0  0  0  0  0  0
    2.8558    1.6605    1.7059 H   0  0  0  0  0  0  0  0  0  0  0  0
    3.6500    1.5746    3.2898 H   0  0  0  0  0  0  0  0  0  0  0  0
    1.3052   -0.5368    0.5865 N   0  0  0  0  0  0  0  0  0  0  0  0
    0.9761   -0.8083   -0.8405 C   0  0  2  0  0  0  0  0  0  0  0  0
    1.7542   -1.7671   -1.7839 C   0  0  0  0  0  0  0  0  0  0  0  0
    1.2539   -1.9818   -2.8815 O   0  0  0  0  0  0  0  0  0  0  0  0
    0.9480    0.5753   -1.5124 C   0  0  0  0  0  0  0  0  0  0  0  0
    2.2531    1.1698   -1.5136 O   0  0  0  0  0  0  0  0  0  0  0  0
    0.9273    0.3421    0.9318 H   0  0  0  0  0  0  0  0  0  0  0  0
   -0.0414   -1.2109   -0.8425 H   0  0  0  0  0  0  0  0  0  0  0  0
    0.2573    1.2286   -0.9691 H   0  0  0  0  0  0  0  0  0  0  0  0
    0.5761    0.4987   -2.5399 H   0  0  0  0  0  0  0  0  0  0  0  0
    2.8400    0.7278   -2.1554 H   0  0  0  0  0  0  0  0  0  0  0  0
    3.0169   -2.2737   -1.5364 N   0  0  0  0  0  0  0  0  0  0  0  0
    3.8206   -3.1777   -2.3853 C   0  0  2  0  0  0  0  0  0  0  0  0
    4.3561   -2.5454   -3.6907 C   0  0  0  0  0  0  0  0  0  0  0  0
    5.5396   -2.6650   -3.9790 O   0  0  0  0  0  0  0  0  0  0  0  0
    3.0699   -4.4848   -2.6751 C   0  0  0  0  0  0  0  0  0  0  0  0
    3.3216   -2.1723   -0.5662 H   0  0  0  0  0  0  0  0  0  0  0  0
    4.7059   -3.4460   -1.7993 H   0  0  0  0  0  0  0  0  0  0  0  0
    2.2220   -4.3179   -3.3454 H   0  0  0  0  0  0  0  0  0  0  0  0
    3.7431   -5.2043   -3.1515 H   0  0  0  0  0  0  0  0  0  0  0  0
    2.6979   -4.9229   -1.7441 H   0  0  0  0  0  0  0  0  0  0  0  0
    3.5240   -1.8530   -4.5479 N   0  0  0  0  0  0  0  0  0  0  0  0
    3.9422   -1.3208   -5.8375 C   0  0  0  0  0  0  0  0  0  0  0  0
    2.5315   -1.8486   -4.2984 H   0  0  0  0  0  0  0  0  0  0  0  0
    4.7680   -0.6129   -5.7113 H   0  0  0  0  0  0  0  0  0  0  0  0
    4.2696   -2.1308   -6.4975 H   0  0  0  0  0  0  0  0  0  0  0  0
    3.1094   -0.7975   -6.3170 H   0  0  0  0  0  0  0  0  0  0  0  0
  1  2  2  0  0  0  0
  1  3  1  0  0  0  0
  1  7  1  0  0  0  0
  3  4  1  0  0  0  0
  3  5  1  0  0  0  0
  3  6  1  0  0  0  0
  7  8  1  0  0  0  0
  7 12  1  0  0  0  0
  8  9  1  0  0  0  0
  8 11  1  0  0  0  0
  8 13  1  0  0  0  0
  9 10  2  0  0  0  0
  9 17  1  0  0  0  0
 11 14  1  0  0  0  0
 11 15  1  0  0  0  0
 11 16  1  0  0  0  0
 17 18  1  0  0  0  0
 17 23  1  0  0  0  0
 18 19  1  0  0  0  0
 18 21  1  0  0  0  0
 18 24  1  0  0  0  0
 19 20  2  0  0  0  0
 19 28  1  0  0  0  0
 21 22  1  0  0  0  0
 21 25  1  0  0  0  0
 21 26  1  0  0  0  0
 22 27  1  0  0  0  0
 28 29  1  0  0  0  0
 28 33  1  0  0  0  0
 29 30  1  0  0  0  0
 29 32  1  0  0  0  0
 29 34  1  0  0  0  0
 30 31  2  0  0  0  0
 30 38  1  0  0  0  0
 32 35  1  0  0  0  0
 32 36  1  0  0  0  0
 32 37  1  0  0  0  0
 38 39  1  0  0  0  0
 38 40  1  0  0  0  0
 39 41  1  0  0  0  0
 39 42  1  0  0  0  0
 39 43  1  0  0  0  0
M  END
$$$$

  -OEChem-05262217303D

 43 42  0     1  0  0  0  0  0999 V2000
    3.3786   -0.6632    4.9419 C   0  0  0  0  0  0  0  0  0  0  0  0
    2.8614    0.3754    5.3210 O   0  0  0  0  0  0  0  0  0  0  0  0
    4.0491   -1.5885    5.9396 C   0  0  0  0  0  0  0  0  0  0  0  0
    5.0844   -1.7717    5.6415 H   0  0  0  0  0  0  0  0  0  0  0  0
    4.0445   -1.1357    6.9352 H   0  0  0  0  0  0  0  0  0  0  0  0
    3.5150   -2.5409    5.9827 H   0  0  0  0  0  0  0  0  0  0  0  0
    3.3427   -1.0056    3.6069 N   0  0  0  0  0  0  0  0  0  0  0  0
    2.6008   -0.2604    2.5807 C   0  0  2  0  0  0  0  0  0  0  0  0
    2.0392   -1.1874    1.4819 C   0  0  0  0  0  0  0  0  0  0  0  0
    2.4407   -2.3415    1.4090 O   0  0  0  0  0  0  0  0  0  0  0  0
    3.5406    0.7807    1.9642 C   0  0  0  0  0  0  0  0  0  0  0  0
    3.6724   -1.9358    3.3541 H   0  0  0  0  0  0  0  0  0  0  0  0
    1.7494    0.2521    3.0417 H   0  0  0  0  0  0  0  0  0  0  0  0
    4.3969    0.2913    1.4891 H   0  0  0  0  0  0  0  0  0  0  0  0
    3.0169    1.3732    1.2073 H   0  0  0  0  0  0  0  0  0  0  0  0
    3.9123    1.4614    2.7367 H   0  0  0  0  0  0  0  0  0  0  0  0
    1.0370   -0.7152    0.6535 N   0  0  0  0  0  0  0  0  0  0  0  0
    0.6772   -1.0961   -0.7401 C   0  0  2  0  0  0  0  0  0  0  0  0
    1.3893   -2.1627   -1.6176 C   0  0  0  0  0  0  0  0  0  0  0  0
    0.9998   -2.2933   -2.7728 O   0  0  0  0  0  0  0  0  0  0  0  0
    0.7661    0.2448   -1.4964 C   0  0  0  0  0  0  0  0  0  0  0  0
    2.1189    0.7297   -1.5283 O   0  0  0  0  0  0  0  0  0  0  0  0
    0.8150    0.2554    0.8618 H   0  0  0  0  0  0  0  0  0  0  0  0
   -0.3667   -1.4208   -0.7170 H   0  0  0  0  0  0  0  0  0  0  0  0
    0.1305    0.9876   -1.0031 H   0  0  0  0  0  0  0  0  0  0  0  0
    0.3918    0.1382   -2.5201 H   0  0  0  0  0  0  0  0  0  0  0  0
    2.7264    0.1216   -2.0217 H   0  0  0  0  0  0  0  0  0  0  0  0
    2.4771   -2.9227   -1.2320 N   0  0  0  0  0  0  0  0  0  0  0  0
    3.5469   -3.3082   -2.1690 C   0  0  2  0  0  0  0  0  0  0  0  0
    4.0215   -2.1210   -3.0532 C   0  0  0  0  0  0  0  0  0  0  0  0
    3.9953   -0.9738   -2.6097 O   0  0  0  0  0  0  0  0  0  0  0  0
    3.1183   -4.5417   -2.9804 C   0  0  0  0  0  0  0  0  0  0  0  0
    2.7467   -2.7935   -0.2561 H   0  0  0  0  0  0  0  0  0  0  0  0
    4.4142   -3.6031   -1.5707 H   0  0  0  0  0  0  0  0  0  0  0  0
    2.3319   -4.2887   -3.6980 H   0  0  0  0  0  0  0  0  0  0  0  0
    3.9699   -4.9540   -3.5295 H   0  0  0  0  0  0  0  0  0  0  0  0
    2.7366   -5.3175   -2.3095 H   0  0  0  0  0  0  0  0  0  0  0  0
    4.5064   -2.3234   -4.3331 N   0  0  0  0  0  0  0  0  0  0  0  0
    4.8453   -1.2291   -5.2355 C   0  0  0  0  0  0  0  0  0  0  0  0
    4.3865   -3.2531   -4.7237 H   0  0  0  0  0  0  0  0  0  0  0  0
    5.2411   -1.6234   -6.1764 H   0  0  0  0  0  0  0  0  0  0  0  0
    3.9578   -0.6269   -5.4574 H   0  0  0  0  0  0  0  0  0  0  0  0
    5.6069   -0.5821   -4.7875 H   0  0  0  0  0  0  0  0  0  0  0  0
  1  2  2  0  0  0  0
  1  3  1  0  0  0  0
  1  7  1  0  0  0  0
  3  4  1  0  0  0  0
  3  5  1  0  0  0  0
  3  6  1  0  0  0  0
  7  8  1  0  0  0  0
  7 12  1  0  0  0  0
  8  9  1  0  0  0  0
  8 11  1  0  0  0  0
  8 13  1  0  0  0  0
  9 10  2  0  0  0  0
  9 17  1  0  0  0  0
 11 14  1  0  0  0  0
 11 15  1  0  0  0  0
 11 16  1  0  0  0  0
 17 18  1  0  0  0  0
 17 23  1  0  0  0  0
 18 19  1  0  0  0  0
 18 21  1  0  0  0  0
 18 24  1  0  0  0  0
 19 20  2  0  0  0  0
 19 28  1  0  0  0  0
 21 22  1  0  0  0  0
 21 25  1  0  0  0  0
 21 26  1  0  0  0  0
 22 27  1  0  0  0  0
 28 29  1  0  0  0  0
 28 33  1  0  0  0  0
 29 30  1  0  0  0  0
 29 32  1  0  0  0  0
 29 34  1  0  0  0  0
 30 31  2  0  0  0  0
 30 38  1  0  0  0  0
 32 35  1  0  0  0  0
 32 36  1  0  0  0  0
 32 37  1  0  0  0  0
 38 39  1  0  0  0  0
 38 40  1  0  0  0  0
 39 41  1  0  0  0  0
 39 42  1  0  0  0  0
 39 43  1  0  0  0  0
M  END
$$$$

  -OEChem-05262217303D

 43 42  0     1  0  0  0  0  0999 V2000
    4.3076   -0.8779    4.1356 C   0  0  0  0  0  0  0  0  0  0  0  0
    4.0852    0.2513    4.5415 O   0  0  0  0  0  0  0  0  0  0  0  0
    4.9060   -1.9184    5.0631 C   0  0  0  0  0  0  0  0  0  0  0  0
    5.8865   -2.2273    4.6930 H   0  0  0  0  0  0  0  0  0  0  0  0
    5.0230   -1.5045    6.0687 H   0  0  0  0  0  0  0  0  0  0  0  0
    4.2522   -2.7923    5.1167 H   0  0  0  0  0  0  0  0  0  0  0  0
    4.0036   -1.2133    2.8329 N   0  0  0  0  0  0  0  0  0  0  0  0
    3.2819   -0.3345    1.9026 C   0  0  2  0  0  0  0  0  0  0  0  0
    2.4358   -1.1326    0.8874 C   0  0  0  0  0  0  0  0  0  0  0  0
    2.7011   -2.3106    0.7014 O   0  0  0  0  0  0  0  0  0  0  0  0
    4.3011    0.5498    1.1785 C   0  0  0  0  0  0  0  0  0  0  0  0
    4.0808   -2.1954    2.5737 H   0  0  0  0  0  0  0  0  0  0  0  0
    2.5922    0.3033    2.4662 H   0  0  0  0  0  0  0  0  0  0  0  0
    5.0441   -0.0656    0.6633 H   0  0  0  0  0  0  0  0  0  0  0  0
    3.8039    1.1886    0.4417 H   0  0  0  0  0  0  0  0  0  0  0  0
    4.8214    1.1920    1.8963 H   0  0  0  0  0  0  0  0  0  0  0  0
    1.3684   -0.4921    0.2855 N   0  0  0  0  0  0  0  0  0  0  0  0
    0.4593   -0.8766   -0.8264 C   0  0  2  0  0  0  0  0  0  0  0  0
    0.4614   -2.1842   -1.6710 C   0  0  0  0  0  0  0  0  0  0  0  0
   -0.5317   -2.3907   -2.3515 O   0  0  0  0  0  0  0  0  0  0  0  0
    0.4929    0.3271   -1.7869 C   0  0  0  0  0  0  0  0  0  0  0  0
    1.7862    0.5058   -2.3804 O   0  0  0  0  0  0  0  0  0  0  0  0
    1.3302    0.4965    0.5185 H   0  0  0  0  0  0  0  0  0  0  0  0
   -0.5347   -0.9011   -0.3700 H   0  0  0  0  0  0  0  0  0  0  0  0
    0.2242    1.2373   -1.2407 H   0  0  0  0  0  0  0  0  0  0  0  0
   -0.2521    0.1972   -2.5793 H   0  0  0  0  0  0  0  0  0  0  0  0
    2.0600   -0.2796   -2.9185 H   0  0  0  0  0  0  0  0  0  0  0  0
    1.0883   -3.3855   -1.4452 N   0  0  0  0  0  0  0  0  0  0  0  0
    2.4632   -3.6231   -1.9231 C   0  0  2  0  0  0  0  0  0  0  0  0
    3.2489   -2.3848   -2.4223 C   0  0  0  0  0  0  0  0  0  0  0  0
    2.8617   -1.7371   -3.3907 O   0  0  0  0  0  0  0  0  0  0  0  0
    2.3713   -4.6567   -3.0506 C   0  0  0  0  0  0  0  0  0  0  0  0
    0.4488   -4.1183   -1.7392 H   0  0  0  0  0  0  0  0  0  0  0  0
    3.0370   -4.0675   -1.1046 H   0  0  0  0  0  0  0  0  0  0  0  0
    1.7775   -4.2649   -3.8838 H   0  0  0  0  0  0  0  0  0  0  0  0
    3.3704   -4.9034   -3.4235 H   0  0  0  0  0  0  0  0  0  0  0  0
    1.9013   -5.5764   -2.6894 H   0  0  0  0  0  0  0  0  0  0  0  0
    4.4091   -1.9950   -1.7835 N   0  0  0  0  0  0  0  0  0  0  0  0
    5.1648   -0.8061   -2.1603 C   0  0  0  0  0  0  0  0  0  0  0  0
    4.5670   -2.4072   -0.8658 H   0  0  0  0  0  0  0  0  0  0  0  0
    5.4389   -0.8447   -3.2200 H   0  0  0  0  0  0  0  0  0  0  0  0
    4.5732    0.0981   -1.9828 H   0  0  0  0  0  0  0  0  0  0  0  0
    6.0852   -0.7420   -1.5722 H   0  0  0  0  0  0  0  0  0  0  0  0
  1  2  2  0  0  0  0
  1  3  1  0  0  0  0
  1  7  1  0  0  0  0
  3  4  1  0  0  0  0
  3  5  1  0  0  0  0
  3  6  1  0  0  0  0
  7  8  1  0  0  0  0
  7 12  1  0  0  0  0
  8  9  1  0  0  0  0
  8 11  1  0  0  0  0
  8 13  1  0  0  0  0
  9 10  2  0  0  0  0
  9 17  1  0  0  0  0
 11 14  1  0  0  0  0
 11 15  1  0  0  0  0
 11 16  1  0  0  0  0
 17 18  1  0  0  0  0
 17 23  1  0  0  0  0
 18 19  1  0  0  0  0
 18 21  1  0  0  0  0
 18 24  1  0  0  0  0
 19 20  2  0  0  0  0
 19 28  1  0  0  0  0
 21 22  1  0  0  0  0
 21 25  1  0  0  0  0
 21 26  1  0  0  0  0
 22 27  1  0  0  0  0
 28 29  1  0  0  0  0
 28 33  1  0  0  0  0
 29 30  1  0  0  0  0
 29 32  1  0  0  0  0
 29 34  1  0  0  0  0
 30 31  2  0  0  0  0
 30 38  1  0  0  0  0
 32 35  1  0  0  0  0
 32 36  1  0  0  0  0
 32 37  1  0  0  0  0
 38 39  1  0  0  0  0
 38 40  1  0  0  0  0
 39 41  1  0  0  0  0
 39 42  1  0  0  0  0
 39 43  1  0  0  0  0
M  END
$$$$

  -OEChem-05262217303D

 43 42  0     1  0  0  0  0  0999 V2000
    3.1949   -0.4794    4.3565 C   0  0  0  0  0  0  0  0  0  0  0  0
    2.2715    0.3196    4.3897 O   0  0  0  0  0  0  0  0  0  0  0  0
    3.6910   -1.1284    5.6347 C   0  0  0  0  0  0  0  0  0  0  0  0
    4.7476   -0.8939    5.7862 H   0  0  0  0  0  0  0  0  0  0  0  0
    3.1213   -0.7574    6.4913 H   0  0  0  0  0  0  0  0  0  0  0  0
    3.5698   -2.2128    5.5740 H   0  0  0  0  0  0  0  0  0  0  0  0
    3.7703   -0.8135    3.1482 N   0  0  0  0  0  0  0  0  0  0  0  0
    3.1918   -0.4019    1.8632 C   0  0  2  0  0  0  0  0  0  0  0  0
    2.0739   -1.3546    1.3926 C   0  0  0  0  0  0  0  0  0  0  0  0
    2.1851   -2.5647    1.5465 O   0  0  0  0  0  0  0  0  0  0  0  0
    4.3184   -0.3669    0.8267 C   0  0  0  0  0  0  0  0  0  0  0  0
    4.3774   -1.6291    3.1500 H   0  0  0  0  0  0  0  0  0  0  0  0
    2.7753    0.6077    1.9475 H   0  0  0  0  0  0  0  0  0  0  0  0
    4.7571   -1.3623    0.6978 H   0  0  0  0  0  0  0  0  0  0  0  0
    3.9355   -0.0307   -0.1418 H   0  0  0  0  0  0  0  0  0  0  0  0
    5.1060    0.3232    1.1448 H   0  0  0  0  0  0  0  0  0  0  0  0
    0.9391   -0.8593    0.7806 N   0  0  0  0  0  0  0  0  0  0  0  0
    0.4752   -1.1725   -0.5965 C   0  0  2  0  0  0  0  0  0  0  0  0
    1.2649   -2.1363   -1.5363 C   0  0  0  0  0  0  0  0  0  0  0  0
    1.3429   -1.8612   -2.7297 O   0  0  0  0  0  0  0  0  0  0  0  0
    0.2543    0.1959   -1.2646 C   0  0  0  0  0  0  0  0  0  0  0  0
    1.5036    0.8797   -1.4087 O   0  0  0  0  0  0  0  0  0  0  0  0
    0.8469    0.1357    0.9792 H   0  0  0  0  0  0  0  0  0  0  0  0
   -0.5035   -1.6493   -0.4906 H   0  0  0  0  0  0  0  0  0  0  0  0
   -0.4183    0.7993   -0.6457 H   0  0  0  0  0  0  0  0  0  0  0  0
   -0.2271    0.0799   -2.2419 H   0  0  0  0  0  0  0  0  0  0  0  0
    2.0177    0.4656   -2.1286 H   0  0  0  0  0  0  0  0  0  0  0  0
    2.0289   -3.1932   -1.0751 N   0  0  0  0  0  0  0  0  0  0  0  0
    3.0748   -3.9390   -1.8005 C   0  0  2  0  0  0  0  0  0  0  0  0
    4.2834   -3.0627   -2.2017 C   0  0  0  0  0  0  0  0  0  0  0  0
    5.3653   -3.2244   -1.6528 O   0  0  0  0  0  0  0  0  0  0  0  0
    2.4988   -4.7054   -3.0002 C   0  0  0  0  0  0  0  0  0  0  0  0
    2.0180   -3.3078   -0.0573 H   0  0  0  0  0  0  0  0  0  0  0  0
    3.4636   -4.6914   -1.1062 H   0  0  0  0  0  0  0  0  0  0  0  0
    2.1666   -4.0259   -3.7898 H   0  0  0  0  0  0  0  0  0  0  0  0
    3.2611   -5.3686   -3.4206 H   0  0  0  0  0  0  0  0  0  0  0  0
    1.6466   -5.3150   -2.6846 H   0  0  0  0  0  0  0  0  0  0  0  0
    4.1447   -2.0452   -3.1250 N   0  0  0  0  0  0  0  0  0  0  0  0
    5.2077   -1.1140   -3.4772 C   0  0  0  0  0  0  0  0  0  0  0  0
    3.1913   -1.8710   -3.4516 H   0  0  0  0  0  0  0  0  0  0  0  0
    5.5444   -0.5628   -2.5930 H   0  0  0  0  0  0  0  0  0  0  0  0
    6.0606   -1.6521   -3.9037 H   0  0  0  0  0  0  0  0  0  0  0  0
    4.8480   -0.3942   -4.2187 H   0  0  0  0  0  0  0  0  0  0  0  0
  1  2  2  0  0  0  0
  1  3  1  0  0  0  0
  1  7  1  0  0  0  0
  3  4  1  0  0  0  0
  3  5  1  0  0  0  0
  3  6  1  0  0  0  0
  7  8  1  0  0  0  0
  7 12  1  0  0  0  0
  8  9  1  0  0  0  0
  8 11  1  0  0  0  0
  8 13  1  0  0  0  0
  9 10  2  0  0  0  0
  9 17  1  0  0  0  0
 11 14  1  0  0  0  0
 11 15  1  0  0  0  0
 11 16  1  0  0  0  0
 17 18  1  0  0  0  0
 17 23  1  0  0  0  0
 18 19  1  0  0  0  0
 18 21  1  0  0  0  0
 18 24  1  0  0  0  0
 19 20  2  0  0  0  0
 19 28  1  0  0  0  0
 21 22  1  0  0  0  0
 21 25  1  0  0  0  0
 21 26  1  0  0  0  0
 22 27  1  0  0  0  0
 28 29  1  0  0  0  0
 28 33  1  0  0  0  0
 29 30  1  0  0  0  0
 29 32  1  0  0  0  0
 29 34  1  0  0  0  0
 30 31  2  0  0  0  0
 30 38  1  0  0  0  0
 32 35  1  0  0  0  0
 32 36  1  0  0  0  0
 32 37  1  0  0  0  0
 38 39  1  0  0  0  0
 38 40  1  0  0  0  0
 39 41  1  0  0  0  0
 39 42  1  0  0  0  0
 39 43  1  0  0  0  0
M  END
$$$$

  -OEChem-05262217303D

 43 42  0     1  0  0  0  0  0999 V2000
    4.4759   -1.1941    3.2130 C   0  0  0  0  0  0  0  0  0  0  0  0
    4.4567   -0.2266    3.9591 O   0  0  0  0  0  0  0  0  0  0  0  0
    5.4531   -2.3286    3.4538 C   0  0  0  0  0  0  0  0  0  0  0  0
    6.0635   -2.1218    4.3371 H   0  0  0  0  0  0  0  0  0  0  0  0
    4.9070   -3.2623    3.6105 H   0  0  0  0  0  0  0  0  0  0  0  0
    6.1094   -2.4443    2.5877 H   0  0  0  0  0  0  0  0  0  0  0  0
    3.6174   -1.2548    2.1382 N   0  0  0  0  0  0  0  0  0  0  0  0
    2.5334   -0.2936    1.8828 C   0  0  2  0  0  0  0  0  0  0  0  0
    1.3412   -0.9724    1.1703 C   0  0  0  0  0  0  0  0  0  0  0  0
    1.0345   -2.1221    1.4551 O   0  0  0  0  0  0  0  0  0  0  0  0
    3.1213    0.8724    1.0790 C   0  0  0  0  0  0  0  0  0  0  0  0
    3.6240   -2.1341    1.6096 H   0  0  0  0  0  0  0  0  0  0  0  0
    2.1513    0.0926    2.8343 H   0  0  0  0  0  0  0  0  0  0  0  0
    3.5104    0.5191    0.1199 H   0  0  0  0  0  0  0  0  0  0  0  0
    2.3647    1.6401    0.8923 H   0  0  0  0  0  0  0  0  0  0  0  0
    3.9432    1.3362    1.6342 H   0  0  0  0  0  0  0  0  0  0  0  0
    0.5045   -0.3148    0.2849 N   0  0  0  0  0  0  0  0  0  0  0  0
    0.2996   -0.7251   -1.1304 C   0  0  2  0  0  0  0  0  0  0  0  0
    1.0565   -1.9618   -1.7056 C   0  0  0  0  0  0  0  0  0  0  0  0
    1.7502   -1.8186   -2.7093 O   0  0  0  0  0  0  0  0  0  0  0  0
    0.4989    0.5266   -2.0008 C   0  0  0  0  0  0  0  0  0  0  0  0
    1.8556    0.9688   -1.9339 O   0  0  0  0  0  0  0  0  0  0  0  0
    0.6586    0.6898    0.3463 H   0  0  0  0  0  0  0  0  0  0  0  0
   -0.7552   -1.0019   -1.2144 H   0  0  0  0  0  0  0  0  0  0  0  0
   -0.1608    1.3263   -1.6479 H   0  0  0  0  0  0  0  0  0  0  0  0
    0.2269    0.3145   -3.0407 H   0  0  0  0  0  0  0  0  0  0  0  0
    2.4217    0.3152   -2.3926 H   0  0  0  0  0  0  0  0  0  0  0  0
    1.1519   -3.1559   -1.0122 N   0  0  0  0  0  0  0  0  0  0  0  0
    2.2624   -4.1204   -1.1191 C   0  0  2  0  0  0  0  0  0  0  0  0
    3.6242   -3.4827   -0.7547 C   0  0  0  0  0  0  0  0  0  0  0  0
    4.0572   -3.5709    0.3893 O   0  0  0  0  0  0  0  0  0  0  0  0
    2.2827   -4.8315   -2.4815 C   0  0  0  0  0  0  0  0  0  0  0  0
    0.7331   -3.0979   -0.0776 H   0  0  0  0  0  0  0  0  0  0  0  0
    2.0823   -4.8965   -0.3678 H   0  0  0  0  0  0  0  0  0  0  0  0
    2.5406   -4.1476   -3.2944 H   0  0  0  0  0  0  0  0  0  0  0  0
    3.0209   -5.6394   -2.4703 H   0  0  0  0  0  0  0  0  0  0  0  0
    1.3003   -5.2643   -2.6932 H   0  0  0  0  0  0  0  0  0  0  0  0
    4.2883   -2.6724   -1.6544 N   0  0  0  0  0  0  0  0  0  0  0  0
    5.4604   -1.8780   -1.3090 C   0  0  0  0  0  0  0  0  0  0  0  0
    3.7509   -2.4215   -2.4866 H   0  0  0  0  0  0  0  0  0  0  0  0
    5.2145   -1.1444   -0.5346 H   0  0  0  0  0  0  0  0  0  0  0  0
    6.2651   -2.5229   -0.9403 H   0  0  0  0  0  0  0  0  0  0  0  0
    5.8261   -1.3436   -2.1911 H   0  0  0  0  0  0  0  0  0  0  0  0
  1  2  2  0  0  0  0
  1  3  1  0  0  0  0
  1  7  1  0  0  0  0
  3  4  1  0  0  0  0
  3  5  1  0  0  0  0
  3  6  1  0  0  0  0
  7  8  1  0  0  0  0
  7 12  1  0  0  0  0
  8  9  1  0  0  0  0
  8 11  1  0  0  0  0
  8 13  1  0  0  0  0
  9 10  2  0  0  0  0
  9 17  1  0  0  0  0
 11 14  1  0  0  0  0
 11 15  1  0  0  0  0
 11 16  1  0  0  0  0
 17 18  1  0  0  0  0
 17 23  1  0  0  0  0
 18 19  1  0  0  0  0
 18 21  1  0  0  0  0
 18 24  1  0  0  0  0
 19 20  2  0  0  0  0
 19 28  1  0  0  0  0
 21 22  1  0  0  0  0
 21 25  1  0  0  0  0
 21 26  1  0  0  0  0
 22 27  1  0  0  0  0
 28 29  1  0  0  0  0
 28 33  1  0  0  0  0
 29 30  1  0  0  0  0
 29 32  1  0  0  0  0
 29 34  1  0  0  0  0
 30 31  2  0  0  0  0
 30 38  1  0  0  0  0
 32 35  1  0  0  0  0
 32 36  1  0  0  0  0
 32 37  1  0  0  0  0
 38 39  1  0  0  0  0
 38 40  1  0  0  0  0
 39 41  1  0  0  0  0
 39 42  1  0  0  0  0
 39 43  1  0  0  0  0
M  END
$$$$

  -OEChem-05262217303D

 43 42  0     1  0  0  0  0  0999 V2000
    4.4485   -1.3890    3.1297 C   0  0  0  0  0  0  0  0  0  0  0  0
    4.5416   -0.3962    3.8356 O   0  0  0  0  0  0  0  0  0  0  0  0
    5.3354   -2.5942    3.3776 C   0  0  0  0  0  0  0  0  0  0  0  0
    5.9709   -2.7733    2.5068 H   0  0  0  0  0  0  0  0  0  0  0  0
    5.9689   -2.4257    4.2526 H   0  0  0  0  0  0  0  0  0  0  0  0
    4.7185   -3.4792    3.5521 H   0  0  0  0  0  0  0  0  0  0  0  0
    3.5438   -1.4170    2.0926 N   0  0  0  0  0  0  0  0  0  0  0  0
    2.5222   -0.3871    1.8464 C   0  0  2  0  0  0  0  0  0  0  0  0
    1.2870   -1.0039    1.1530 C   0  0  0  0  0  0  0  0  0  0  0  0
    0.9839   -2.1708    1.3658 O   0  0  0  0  0  0  0  0  0  0  0  0
    3.1631    0.7312    1.0170 C   0  0  0  0  0  0  0  0  0  0  0  0
    3.4379   -2.3213    1.6184 H   0  0  0  0  0  0  0  0  0  0  0  0
    2.1800    0.0296    2.8001 H   0  0  0  0  0  0  0  0  0  0  0  0
    3.4972    0.3460    0.0491 H   0  0  0  0  0  0  0  0  0  0  0  0
    2.4531    1.5460    0.8477 H   0  0  0  0  0  0  0  0  0  0  0  0
    4.0303    1.1431    1.5427 H   0  0  0  0  0  0  0  0  0  0  0  0
    0.4142   -0.3111    0.3318 N   0  0  0  0  0  0  0  0  0  0  0  0
    0.2479   -0.6582   -1.1034 C   0  0  2  0  0  0  0  0  0  0  0  0
    1.0976   -1.8285   -1.6791 C   0  0  0  0  0  0  0  0  0  0  0  0
    1.9339   -1.5929   -2.5481 O   0  0  0  0  0  0  0  0  0  0  0  0
    0.3969    0.6302   -1.9279 C   0  0  0  0  0  0  0  0  0  0  0  0
    1.7283    1.1377   -1.8319 O   0  0  0  0  0  0  0  0  0  0  0  0
    0.5461    0.6920    0.4470 H   0  0  0  0  0  0  0  0  0  0  0  0
   -0.7878   -0.9888   -1.2235 H   0  0  0  0  0  0  0  0  0  0  0  0
   -0.3072    1.3846   -1.5615 H   0  0  0  0  0  0  0  0  0  0  0  0
    0.1524    0.4336   -2.9776 H   0  0  0  0  0  0  0  0  0  0  0  0
    2.3369    0.5022   -2.2638 H   0  0  0  0  0  0  0  0  0  0  0  0
    0.9988   -3.1123   -1.1706 N   0  0  0  0  0  0  0  0  0  0  0  0
    2.0604   -4.1321   -1.2822 C   0  0  2  0  0  0  0  0  0  0  0  0
    3.4252   -3.6480   -0.7280 C   0  0  0  0  0  0  0  0  0  0  0  0
    3.7301   -3.8645    0.4398 O   0  0  0  0  0  0  0  0  0  0  0  0
    2.1635   -4.6794   -2.7143 C   0  0  0  0  0  0  0  0  0  0  0  0
    0.5035   -3.1237   -0.2728 H   0  0  0  0  0  0  0  0  0  0  0  0
    1.7624   -4.9736   -0.6479 H   0  0  0  0  0  0  0  0  0  0  0  0
    2.5135   -3.9175   -3.4157 H   0  0  0  0  0  0  0  0  0  0  0  0
    2.8651   -5.5186   -2.7442 H   0  0  0  0  0  0  0  0  0  0  0  0
    1.1853   -5.0352   -3.0517 H   0  0  0  0  0  0  0  0  0  0  0  0
    4.2638   -2.8606   -1.4931 N   0  0  0  0  0  0  0  0  0  0  0  0
    5.4700   -2.2266   -0.9756 C   0  0  0  0  0  0  0  0  0  0  0  0
    3.8311   -2.4695   -2.3320 H   0  0  0  0  0  0  0  0  0  0  0  0
    5.2161   -1.4547   -0.2429 H   0  0  0  0  0  0  0  0  0  0  0  0
    6.1190   -2.9673   -0.4968 H   0  0  0  0  0  0  0  0  0  0  0  0
    6.0290   -1.7602   -1.7926 H   0  0  0  0  0  0  0  0  0  0  0  0
  1  2  2  0  0  0  0
  1  3  1  0  0  0  0
  1  7  1  0  0  0  0
  3  4  1  0  0  0  0
  3  5  1  0  0  0  0
  3  6  1  0  0  0  0
  7  8  1  0  0  0  0
  7 12  1  0  0  0  0
  8  9  1  0  0  0  0
  8 11  1  0  0  0  0
  8 13  1  0  0  0  0
  9 10  2  0  0  0  0
  9 17  1  0  0  0  0
 11 14  1  0  0  0  0
 11 15  1  0  0  0  0
 11 16  1  0  0  0  0
 17 18  1  0  0  0  0
 17 23  1  0  0  0  0
 18 19  1  0  0  0  0
 18 21  1  0  0  0  0
 18 24  1  0  0  0  0
 19 20  2  0  0  0  0
 19 28  1  0  0  0  0
 21 22  1  0  0  0  0
 21 25  1  0  0  0  0
 21 26  1  0  0  0  0
 22 27  1  0  0  0  0
 28 29  1  0  0  0  0
 28 33  1  0  0  0  0
 29 30  1  0  0  0  0
 29 32  1  0  0  0  0
 29 34  1  0  0  0  0
 30 31  2  0  0  0  0
 30 38  1  0  0  0  0
 32 35  1  0  0  0  0
 32 36  1  0  0  0  0
 32 37  1  0  0  0  0
 38 39  1  0  0  0  0
 38 40  1  0  0  0  0
 39 41  1  0  0  0  0
 39 42  1  0  0  0  0
 39 43  1  0  0  0  0
M  END
$$$$

  -OEChem-05262217303D

 43 42  0     1  0  0  0  0  0999 V2000
    4.0186   -0.9181    4.1863 C   0  0  0  0  0  0  0  0  0  0  0  0
    3.6491    0.0859    4.7744 O   0  0  0  0  0  0  0  0  0  0  0  0
    4.8972   -1.9354    4.8895 C   0  0  0  0  0  0  0  0  0  0  0  0
    5.7842   -2.1445    4.2864 H   0  0  0  0  0  0  0  0  0  0  0  0
    5.2161   -1.5496    5.8620 H   0  0  0  0  0  0  0  0  0  0  0  0
    4.3425   -2.8642    5.0424 H   0  0  0  0  0  0  0  0  0  0  0  0
    3.6258   -1.1348    2.8829 N   0  0  0  0  0  0  0  0  0  0  0  0
    2.6703   -0.2909    2.1530 C   0  0  2  0  0  0  0  0  0  0  0  0
    1.8845   -1.0985    1.0984 C   0  0  0  0  0  0  0  0  0  0  0  0
    2.1650   -2.2729    0.8949 O   0  0  0  0  0  0  0  0  0  0  0  0
    3.4460    0.8493    1.4837 C   0  0  0  0  0  0  0  0  0  0  0  0
    3.8485   -2.0413    2.4724 H   0  0  0  0  0  0  0  0  0  0  0  0
    1.9408    0.1302    2.8536 H   0  0  0  0  0  0  0  0  0  0  0  0
    4.1762    0.4502    0.7723 H   0  0  0  0  0  0  0  0  0  0  0  0
    2.7665    1.5178    0.9461 H   0  0  0  0  0  0  0  0  0  0  0  0
    3.9798    1.4378    2.2367 H   0  0  0  0  0  0  0  0  0  0  0  0
    0.8050   -0.5296    0.4442 N   0  0  0  0  0  0  0  0  0  0  0  0
    0.3802   -0.8292   -0.9446 C   0  0  2  0  0  0  0  0  0  0  0  0
    1.1897   -1.8614   -1.7776 C   0  0  0  0  0  0  0  0  0  0  0  0
    1.9171   -1.4818   -2.6920 O   0  0  0  0  0  0  0  0  0  0  0  0
    0.2742    0.5221   -1.6712 C   0  0  0  0  0  0  0  0  0  0  0  0
    1.5651    1.1265   -1.7875 O   0  0  0  0  0  0  0  0  0  0  0  0
    0.6675    0.4433    0.7096 H   0  0  0  0  0  0  0  0  0  0  0  0
   -0.6296   -1.2450   -0.8884 H   0  0  0  0  0  0  0  0  0  0  0  0
   -0.3955    1.1908   -1.1208 H   0  0  0  0  0  0  0  0  0  0  0  0
   -0.1536    0.3758   -2.6688 H   0  0  0  0  0  0  0  0  0  0  0  0
    2.1353    0.5395   -2.3296 H   0  0  0  0  0  0  0  0  0  0  0  0
    1.0589   -3.2150   -1.5141 N   0  0  0  0  0  0  0  0  0  0  0  0
    1.7660   -4.3238   -2.1904 C   0  0  2  0  0  0  0  0  0  0  0  0
    3.2922   -4.3735   -1.9418 C   0  0  0  0  0  0  0  0  0  0  0  0
    3.8222   -5.4390   -1.6536 O   0  0  0  0  0  0  0  0  0  0  0  0
    1.4583   -4.3570   -3.6941 C   0  0  0  0  0  0  0  0  0  0  0  0
    0.7777   -3.3972   -0.5503 H   0  0  0  0  0  0  0  0  0  0  0  0
    1.3636   -5.2505   -1.7684 H   0  0  0  0  0  0  0  0  0  0  0  0
    1.9334   -3.5221   -4.2168 H   0  0  0  0  0  0  0  0  0  0  0  0
    1.8344   -5.2873   -4.1313 H   0  0  0  0  0  0  0  0  0  0  0  0
    0.3785   -4.3072   -3.8628 H   0  0  0  0  0  0  0  0  0  0  0  0
    4.0786   -3.2478   -2.0833 N   0  0  0  0  0  0  0  0  0  0  0  0
    5.5228   -3.2303   -1.9030 C   0  0  0  0  0  0  0  0  0  0  0  0
    3.5946   -2.3964   -2.3744 H   0  0  0  0  0  0  0  0  0  0  0  0
    5.7869   -3.5785   -0.8991 H   0  0  0  0  0  0  0  0  0  0  0  0
    6.0079   -3.8776   -2.6407 H   0  0  0  0  0  0  0  0  0  0  0  0
    5.9060   -2.2131   -2.0277 H   0  0  0  0  0  0  0  0  0  0  0  0
  1  2  2  0  0  0  0
  1  3  1  0  0  0  0
  1  7  1  0  0  0  0
  3  4  1  0  0  0  0
  3  5  1  0  0  0  0
  3  6  1  0  0  0  0
  7  8  1  0  0  0  0
  7 12  1  0  0  0  0
  8  9  1  0  0  0  0
  8 11  1  0  0  0  0
  8 13  1  0  0  0  0
  9 10  2  0  0  0  0
  9 17  1  0  0  0  0
 11 14  1  0  0  0  0
 11 15  1  0  0  0  0
 11 16  1  0  0  0  0
 17 18  1  0  0  0  0
 17 23  1  0  0  0  0
 18 19  1  0  0  0  0
 18 21  1  0  0  0  0
 18 24  1  0  0  0  0
 19 20  2  0  0  0  0
 19 28  1  0  0  0  0
 21 22  1  0  0  0  0
 21 25  1  0  0  0  0
 21 26  1  0  0  0  0
 22 27  1  0  0  0  0
 28 29  1  0  0  0  0
 28 33  1  0  0  0  0
 29 30  1  0  0  0  0
 29 32  1  0  0  0  0
 29 34  1  0  0  0  0
 30 31  2  0  0  0  0
 30 38  1  0  0  0  0
 32 35  1  0  0  0  0
 32 36  1  0  0  0  0
 32 37  1  0  0  0  0
 38 39  1  0  0  0  0
 38 40  1  0  0  0  0
 39 41  1  0  0  0  0
 39 42  1  0  0  0  0
 39 43  1  0  0  0  0
M  END
$$$$

  -OEChem-05262217303D

 43 42  0     1  0  0  0  0  0999 V2000
    4.0088   -1.0218    4.1476 C   0  0  0  0  0  0  0  0  0  0  0  0
    3.5909   -0.0581    4.7699 O   0  0  0  0  0  0  0  0  0  0  0  0
    4.8770   -2.0573    4.8369 C   0  0  0  0  0  0  0  0  0  0  0  0
    5.8511   -2.1145    4.3451 H   0  0  0  0  0  0  0  0  0  0  0  0
    5.0271   -1.7853    5.8854 H   0  0  0  0  0  0  0  0  0  0  0  0
    4.3961   -3.0375    4.7924 H   0  0  0  0  0  0  0  0  0  0  0  0
    3.6835   -1.1750    2.8167 N   0  0  0  0  0  0  0  0  0  0  0  0
    2.7407   -0.3142    2.0900 C   0  0  2  0  0  0  0  0  0  0  0  0
    1.9682   -1.0976    1.0088 C   0  0  0  0  0  0  0  0  0  0  0  0
    2.3172   -2.2340    0.7135 O   0  0  0  0  0  0  0  0  0  0  0  0
    3.5279    0.8352    1.4527 C   0  0  0  0  0  0  0  0  0  0  0  0
    3.9405   -2.0555    2.3711 H   0  0  0  0  0  0  0  0  0  0  0  0
    2.0020    0.0962    2.7868 H   0  0  0  0  0  0  0  0  0  0  0  0
    4.2678    0.4465    0.7455 H   0  0  0  0  0  0  0  0  0  0  0  0
    2.8566    1.5126    0.9159 H   0  0  0  0  0  0  0  0  0  0  0  0
    4.0513    1.4097    2.2236 H   0  0  0  0  0  0  0  0  0  0  0  0
    0.8319   -0.5524    0.4338 N   0  0  0  0  0  0  0  0  0  0  0  0
    0.3402   -0.8454   -0.9325 C   0  0  2  0  0  0  0  0  0  0  0  0
    1.1480   -1.8362   -1.8125 C   0  0  0  0  0  0  0  0  0  0  0  0
    2.0002   -1.4157   -2.5914 O   0  0  0  0  0  0  0  0  0  0  0  0
    0.1614    0.5078   -1.6397 C   0  0  0  0  0  0  0  0  0  0  0  0
    1.4270    1.1487   -1.8207 O   0  0  0  0  0  0  0  0  0  0  0  0
    0.6578    0.4014    0.7430 H   0  0  0  0  0  0  0  0  0  0  0  0
   -0.6540   -1.2895   -0.8305 H   0  0  0  0  0  0  0  0  0  0  0  0
   -0.4973    1.1549   -1.0513 H   0  0  0  0  0  0  0  0  0  0  0  0
   -0.3118    0.3526   -2.6153 H   0  0  0  0  0  0  0  0  0  0  0  0
    2.0152    0.5432   -2.3250 H   0  0  0  0  0  0  0  0  0  0  0  0
    0.8513   -3.1892   -1.7671 N   0  0  0  0  0  0  0  0  0  0  0  0
    1.5313   -4.2699   -2.5126 C   0  0  2  0  0  0  0  0  0  0  0  0
    3.0053   -4.5113   -2.1091 C   0  0  0  0  0  0  0  0  0  0  0  0
    3.3754   -5.6478   -1.8429 O   0  0  0  0  0  0  0  0  0  0  0  0
    1.4027   -4.0759   -4.0301 C   0  0  0  0  0  0  0  0  0  0  0  0
    0.3545   -3.4731   -0.9259 H   0  0  0  0  0  0  0  0  0  0  0  0
    1.0000   -5.1960   -2.2704 H   0  0  0  0  0  0  0  0  0  0  0  0
    2.0084   -3.2345   -4.3780 H   0  0  0  0  0  0  0  0  0  0  0  0
    1.7431   -4.9763   -4.5509 H   0  0  0  0  0  0  0  0  0  0  0  0
    0.3593   -3.8920   -4.3027 H   0  0  0  0  0  0  0  0  0  0  0  0
    3.9150   -3.4743   -2.0582 N   0  0  0  0  0  0  0  0  0  0  0  0
    5.2719   -3.6111   -1.5504 C   0  0  0  0  0  0  0  0  0  0  0  0
    3.5318   -2.5401   -2.2160 H   0  0  0  0  0  0  0  0  0  0  0  0
    5.2552   -3.8914   -0.4924 H   0  0  0  0  0  0  0  0  0  0  0  0
    5.8168   -4.3773   -2.1116 H   0  0  0  0  0  0  0  0  0  0  0  0
    5.8086   -2.6630   -1.6509 H   0  0  0  0  0  0  0  0  0  0  0  0
  1  2  2  0  0  0  0
  1  3  1  0  0  0  0
  1  7  1  0  0  0  0
  3  4  1  0  0  0  0
  3  5  1  0  0  0  0
  3  6  1  0  0  0  0
  7  8  1  0  0  0  0
  7 12  1  0  0  0  0
  8  9  1  0  0  0  0
  8 11  1  0  0  0  0
  8 13  1  0  0  0  0
  9 10  2  0  0  0  0
  9 17  1  0  0  0  0
 11 14  1  0  0  0  0
 11 15  1  0  0  0  0
 11 16  1  0  0  0  0
 17 18  1  0  0  0  0
 17 23  1  0  0  0  0
 18 19  1  0  0  0  0
 18 21  1  0  0  0  0
 18 24  1  0  0  0  0
 19 20  2  0  0  0  0
 19 28  1  0  0  0  0
 21 22  1  0  0  0  0
 21 25  1  0  0  0  0
 21 26  1  0  0  0  0
 22 27  1  0  0  0  0
 28 29  1  0  0  0  0
 28 33  1  0  0  0  0
 29 30  1  0  0  0  0
 29 32  1  0  0  0  0
 29 34  1  0  0  0  0
 30 31  2  0  0  0  0
 30 38  1  0  0  0  0
 32 35  1  0  0  0  0
 32 36  1  0  0  0  0
 32 37  1  0  0  0  0
 38 39  1  0  0  0  0
 38 40  1  0  0  0  0
 39 41  1  0  0  0  0
 39 42  1  0  0  0  0
 39 43  1  0  0  0  0
M  END
$$$$

  -OEChem-05262217303D

 43 42  0     1  0  0  0  0  0999 V2000
    3.9925   -1.0571    4.1424 C   0  0  0  0  0  0  0  0  0  0  0  0
    3.4890   -0.1579    4.7967 O   0  0  0  0  0  0  0  0  0  0  0  0
    4.8625   -2.0980    4.8213 C   0  0  0  0  0  0  0  0  0  0  0  0
    5.8870   -2.0280    4.4477 H   0  0  0  0  0  0  0  0  0  0  0  0
    4.8693   -1.9368    5.9030 H   0  0  0  0  0  0  0  0  0  0  0  0
    4.4754   -3.0994    4.6178 H   0  0  0  0  0  0  0  0  0  0  0  0
    3.7615   -1.1368    2.7854 N   0  0  0  0  0  0  0  0  0  0  0  0
    2.7996   -0.2953    2.0610 C   0  0  2  0  0  0  0  0  0  0  0  0
    2.0242   -1.0972    0.9963 C   0  0  0  0  0  0  0  0  0  0  0  0
    2.4198   -2.2074    0.6598 O   0  0  0  0  0  0  0  0  0  0  0  0
    3.5671    0.8548    1.4035 C   0  0  0  0  0  0  0  0  0  0  0  0
    4.0771   -1.9825    2.3120 H   0  0  0  0  0  0  0  0  0  0  0  0
    2.0623    0.1169    2.7584 H   0  0  0  0  0  0  0  0  0  0  0  0
    4.3012    0.4672    0.6897 H   0  0  0  0  0  0  0  0  0  0  0  0
    2.8815    1.5201    0.8696 H   0  0  0  0  0  0  0  0  0  0  0  0
    4.0943    1.4405    2.1632 H   0  0  0  0  0  0  0  0  0  0  0  0
    0.8448   -0.5897    0.4760 N   0  0  0  0  0  0  0  0  0  0  0  0
    0.3179   -0.8784   -0.8769 C   0  0  2  0  0  0  0  0  0  0  0  0
    1.1343   -1.8149   -1.8036 C   0  0  0  0  0  0  0  0  0  0  0  0
    2.1026   -1.3735   -2.4166 O   0  0  0  0  0  0  0  0  0  0  0  0
    0.0731    0.4756   -1.5607 C   0  0  0  0  0  0  0  0  0  0  0  0
    1.3116    1.1586   -1.7739 O   0  0  0  0  0  0  0  0  0  0  0  0
    0.6421    0.3489    0.8126 H   0  0  0  0  0  0  0  0  0  0  0  0
   -0.6554   -1.3589   -0.7480 H   0  0  0  0  0  0  0  0  0  0  0  0
   -0.5883    1.0952   -0.9462 H   0  0  0  0  0  0  0  0  0  0  0  0
   -0.4229    0.3148   -2.5238 H   0  0  0  0  0  0  0  0  0  0  0  0
    1.9350    0.5516   -2.2345 H   0  0  0  0  0  0  0  0  0  0  0  0
    0.7097   -3.1167   -2.0187 N   0  0  0  0  0  0  0  0  0  0  0  0
    1.3389   -4.1229   -2.9018 C   0  0  2  0  0  0  0  0  0  0  0  0
    2.7361   -4.6161   -2.4557 C   0  0  0  0  0  0  0  0  0  0  0  0
    3.0167   -5.8013   -2.5826 O   0  0  0  0  0  0  0  0  0  0  0  0
    1.3743   -3.6446   -4.3601 C   0  0  0  0  0  0  0  0  0  0  0  0
    0.0253   -3.4626   -1.3518 H   0  0  0  0  0  0  0  0  0  0  0  0
    0.6918   -5.0057   -2.8768 H   0  0  0  0  0  0  0  0  0  0  0  0
    2.1093   -2.8466   -4.4986 H   0  0  0  0  0  0  0  0  0  0  0  0
    1.6490   -4.4750   -5.0179 H   0  0  0  0  0  0  0  0  0  0  0  0
    0.3917   -3.2727   -4.6645 H   0  0  0  0  0  0  0  0  0  0  0  0
    3.6775   -3.7531   -1.9326 N   0  0  0  0  0  0  0  0  0  0  0  0
    4.9831   -4.1681   -1.4422 C   0  0  0  0  0  0  0  0  0  0  0  0
    3.3878   -2.7791   -1.8240 H   0  0  0  0  0  0  0  0  0  0  0  0
    4.8724   -4.8718   -0.6109 H   0  0  0  0  0  0  0  0  0  0  0  0
    5.5571   -4.6497   -2.2406 H   0  0  0  0  0  0  0  0  0  0  0  0
    5.5448   -3.2985   -1.0881 H   0  0  0  0  0  0  0  0  0  0  0  0
  1  2  2  0  0  0  0
  1  3  1  0  0  0  0
  1  7  1  0  0  0  0
  3  4  1  0  0  0  0
  3  5  1  0  0  0  0
  3  6  1  0  0  0  0
  7  8  1  0  0  0  0
  7 12  1  0  0  0  0
  8  9  1  0  0  0  0
  8 11  1  0  0  0  0
  8 13  1  0  0  0  0
  9 10  2  0  0  0  0
  9 17  1  0  0  0  0
 11 14  1  0  0  0  0
 11 15  1  0  0  0  0
 11 16  1  0  0  0  0
 17 18  1  0  0  0  0
 17 23  1  0  0  0  0
 18 19  1  0  0  0  0
 18 21  1  0  0  0  0
 18 24  1  0  0  0  0
 19 20  2  0  0  0  0
 19 28  1  0  0  0  0
 21 22  1  0  0  0  0
 21 25  1  0  0  0  0
 21 26  1  0  0  0  0
 22 27  1  0  0  0  0
 28 29  1  0  0  0  0
 28 33  1  0  0  0  0
 29 30  1  0  0  0  0
 29 32  1  0  0  0  0
 29 34  1  0  0  0  0
 30 31  2  0  0  0  0
 30 38  1  0  0  0  0
 32 35  1  0  0  0  0
 32 36  1  0  0  0  0
 32 37  1  0  0  0  0
 38 39  1  0  0  0  0
 38 40  1  0  0  0  0
 39 41  1  0  0  0  0
 39 42  1  0  0  0  0
 39 43  1  0  0  0  0
M  END
$$$$

  -OEChem-05262217303D

 43 42  0     1  0  0  0  0  0999 V2000
    4.0774   -1.1433    4.0019 C   0  0  0  0  0  0  0  0  0  0  0  0
    3.5399   -0.3201    4.7254 O   0  0  0  0  0  0  0  0  0  0  0  0
    5.0186   -2.1769    4.5919 C   0  0  0  0  0  0  0  0  0  0  0  0
    5.9951   -2.1135    4.1057 H   0  0  0  0  0  0  0  0  0  0  0  0
    5.1471   -2.0020    5.6639 H   0  0  0  0  0  0  0  0  0  0  0  0
    4.6107   -3.1801    4.4452 H   0  0  0  0  0  0  0  0  0  0  0  0
    3.8180   -1.1502    2.6476 N   0  0  0  0  0  0  0  0  0  0  0  0
    2.7788   -0.3374    2.0000 C   0  0  2  0  0  0  0  0  0  0  0  0
    1.9727   -1.1531    0.9681 C   0  0  0  0  0  0  0  0  0  0  0  0
    2.3592   -2.2679    0.6284 O   0  0  0  0  0  0  0  0  0  0  0  0
    3.4609    0.8535    1.3210 C   0  0  0  0  0  0  0  0  0  0  0  0
    4.1685   -1.9471    2.1187 H   0  0  0  0  0  0  0  0  0  0  0  0
    2.0692    0.0339    2.7472 H   0  0  0  0  0  0  0  0  0  0  0  0
    4.1580    0.5081    0.5505 H   0  0  0  0  0  0  0  0  0  0  0  0
    2.7195    1.5066    0.8501 H   0  0  0  0  0  0  0  0  0  0  0  0
    4.0182    1.4406    2.0580 H   0  0  0  0  0  0  0  0  0  0  0  0
    0.7628   -0.6735    0.4915 N   0  0  0  0  0  0  0  0  0  0  0  0
    0.2524   -0.9183   -0.8771 C   0  0  2  0  0  0  0  0  0  0  0  0
    1.1222   -1.7567   -1.8450 C   0  0  0  0  0  0  0  0  0  0  0  0
    2.1848   -1.2956   -2.2485 O   0  0  0  0  0  0  0  0  0  0  0  0
   -0.0417    0.4522   -1.5036 C   0  0  0  0  0  0  0  0  0  0  0  0
    1.1727    1.1883   -1.6785 O   0  0  0  0  0  0  0  0  0  0  0  0
    0.5455    0.2524    0.8535 H   0  0  0  0  0  0  0  0  0  0  0  0
   -0.6973   -1.4501   -0.7766 H   0  0  0  0  0  0  0  0  0  0  0  0
   -0.7309    1.0201   -0.8701 H   0  0  0  0  0  0  0  0  0  0  0  0
   -0.5244    0.3134   -2.4771 H   0  0  0  0  0  0  0  0  0  0  0  0
    1.8449    0.6103   -2.1078 H   0  0  0  0  0  0  0  0  0  0  0  0
    0.6383   -2.9396   -2.3793 N   0  0  0  0  0  0  0  0  0  0  0  0
    1.3491   -3.8191   -3.3326 C   0  0  2  0  0  0  0  0  0  0  0  0
    2.6366   -4.4921   -2.7918 C   0  0  0  0  0  0  0  0  0  0  0  0
    3.1280   -5.4156   -3.4287 O   0  0  0  0  0  0  0  0  0  0  0  0
    1.6232   -3.0905   -4.6578 C   0  0  0  0  0  0  0  0  0  0  0  0
   -0.1999   -3.3137   -1.9437 H   0  0  0  0  0  0  0  0  0  0  0  0
    0.6668   -4.6432   -3.5631 H   0  0  0  0  0  0  0  0  0  0  0  0
    2.4212   -2.3510   -4.5454 H   0  0  0  0  0  0  0  0  0  0  0  0
    1.9356   -3.8089   -5.4224 H   0  0  0  0  0  0  0  0  0  0  0  0
    0.7205   -2.5825   -5.0099 H   0  0  0  0  0  0  0  0  0  0  0  0
    3.2213   -4.1274   -1.5921 N   0  0  0  0  0  0  0  0  0  0  0  0
    4.4526   -4.7156   -1.0848 C   0  0  0  0  0  0  0  0  0  0  0  0
    2.8492   -3.2999   -1.1200 H   0  0  0  0  0  0  0  0  0  0  0  0
    4.3398   -5.7978   -0.9627 H   0  0  0  0  0  0  0  0  0  0  0  0
    5.2817   -4.5213   -1.7730 H   0  0  0  0  0  0  0  0  0  0  0  0
    4.7003   -4.2827   -0.1108 H   0  0  0  0  0  0  0  0  0  0  0  0
  1  2  2  0  0  0  0
  1  3  1  0  0  0  0
  1  7  1  0  0  0  0
  3  4  1  0  0  0  0
  3  5  1  0  0  0  0
  3  6  1  0  0  0  0
  7  8  1  0  0  0  0
  7 12  1  0  0  0  0
  8  9  1  0  0  0  0
  8 11  1  0  0  0  0
  8 13  1  0  0  0  0
  9 10  2  0  0  0  0
  9 17  1  0  0  0  0
 11 14  1  0  0  0  0
 11 15  1  0  0  0  0
 11 16  1  0  0  0  0
 17 18  1  0  0  0  0
 17 23  1  0  0  0  0
 18 19  1  0  0  0  0
 18 21  1  0  0  0  0
 18 24  1  0  0  0  0
 19 20  2  0  0  0  0
 19 28  1  0  0  0  0
 21 22  1  0  0  0  0
 21 25  1  0  0  0  0
 21 26  1  0  0  0  0
 22 27  1  0  0  0  0
 28 29  1  0  0  0  0
 28 33  1  0  0  0  0
 29 30  1  0  0  0  0
 29 32  1  0  0  0  0
 29 34  1  0  0  0  0
 30 31  2  0  0  0  0
 30 38  1  0  0  0  0
 32 35  1  0  0  0  0
 32 36  1  0  0  0  0
 32 37  1  0  0  0  0
 38 39  1  0  0  0  0
 38 40  1  0  0  0  0
 39 41  1  0  0  0  0
 39 42  1  0  0  0  0
 39 43  1  0  0  0  0
M  END
$$$$

  -OEChem-05262217303D

 43 42  0     1  0  0  0  0  0999 V2000
    3.9645   -1.1472    4.1220 C   0  0  0  0  0  0  0  0  0  0  0  0
    3.4582   -0.2504    4.7778 O   0  0  0  0  0  0  0  0  0  0  0  0
    4.8211   -2.1976    4.8035 C   0  0  0  0  0  0  0  0  0  0  0  0
    5.8380   -2.1659    4.4052 H   0  0  0  0  0  0  0  0  0  0  0  0
    4.8585   -2.0124    5.8807 H   0  0  0  0  0  0  0  0  0  0  0  0
    4.4010   -3.1917    4.6322 H   0  0  0  0  0  0  0  0  0  0  0  0
    3.7466   -1.2178    2.7624 N   0  0  0  0  0  0  0  0  0  0  0  0
    2.7810   -0.3810    2.0366 C   0  0  2  0  0  0  0  0  0  0  0  0
    1.9741   -1.1988    1.0076 C   0  0  0  0  0  0  0  0  0  0  0  0
    2.3495   -2.3223    0.6873 O   0  0  0  0  0  0  0  0  0  0  0  0
    3.5513    0.7411    1.3358 C   0  0  0  0  0  0  0  0  0  0  0  0
    4.0628   -2.0629    2.2887 H   0  0  0  0  0  0  0  0  0  0  0  0
    2.0639    0.0603    2.7369 H   0  0  0  0  0  0  0  0  0  0  0  0
    4.2572    0.3256    0.6090 H   0  0  0  0  0  0  0  0  0  0  0  0
    2.8637    1.4099    0.8084 H   0  0  0  0  0  0  0  0  0  0  0  0
    4.1111    1.3304    2.0692 H   0  0  0  0  0  0  0  0  0  0  0  0
    0.7622   -0.7209    0.5353 N   0  0  0  0  0  0  0  0  0  0  0  0
    0.2521   -0.9554   -0.8352 C   0  0  2  0  0  0  0  0  0  0  0  0
    1.1150   -1.7781   -1.8230 C   0  0  0  0  0  0  0  0  0  0  0  0
    2.2332   -1.3663   -2.1201 O   0  0  0  0  0  0  0  0  0  0  0  0
   -0.0304    0.4227   -1.4498 C   0  0  0  0  0  0  0  0  0  0  0  0
    1.1919    1.1488   -1.6159 O   0  0  0  0  0  0  0  0  0  0  0  0
    0.5480    0.2043    0.9000 H   0  0  0  0  0  0  0  0  0  0  0  0
   -0.6979   -1.4868   -0.7368 H   0  0  0  0  0  0  0  0  0  0  0  0
   -0.7156    0.9911   -0.8122 H   0  0  0  0  0  0  0  0  0  0  0  0
   -0.5125    0.2969   -2.4252 H   0  0  0  0  0  0  0  0  0  0  0  0
    1.8700    0.5634   -2.0237 H   0  0  0  0  0  0  0  0  0  0  0  0
    0.5362   -2.7692   -2.6005 N   0  0  0  0  0  0  0  0  0  0  0  0
    1.2102   -3.5780   -3.6409 C   0  0  2  0  0  0  0  0  0  0  0  0
    2.3662   -4.4771   -3.1369 C   0  0  0  0  0  0  0  0  0  0  0  0
    2.5153   -5.5838   -3.6386 O   0  0  0  0  0  0  0  0  0  0  0  0
    1.6735   -2.7081   -4.8180 C   0  0  0  0  0  0  0  0  0  0  0  0
   -0.3754   -3.0946   -2.2916 H   0  0  0  0  0  0  0  0  0  0  0  0
    0.4550   -4.2644   -4.0375 H   0  0  0  0  0  0  0  0  0  0  0  0
    2.5225   -2.0780   -4.5378 H   0  0  0  0  0  0  0  0  0  0  0  0
    1.9866   -3.3455   -5.6511 H   0  0  0  0  0  0  0  0  0  0  0  0
    0.8579   -2.0650   -5.1619 H   0  0  0  0  0  0  0  0  0  0  0  0
    3.2279   -4.0717   -2.1363 N   0  0  0  0  0  0  0  0  0  0  0  0
    4.3282   -4.8778   -1.6289 C   0  0  0  0  0  0  0  0  0  0  0  0
    3.1022   -3.1218   -1.7777 H   0  0  0  0  0  0  0  0  0  0  0  0
    3.9547   -5.8247   -1.2256 H   0  0  0  0  0  0  0  0  0  0  0  0
    5.0465   -5.0908   -2.4273 H   0  0  0  0  0  0  0  0  0  0  0  0
    4.8473   -4.3424   -0.8281 H   0  0  0  0  0  0  0  0  0  0  0  0
  1  2  2  0  0  0  0
  1  3  1  0  0  0  0
  1  7  1  0  0  0  0
  3  4  1  0  0  0  0
  3  5  1  0  0  0  0
  3  6  1  0  0  0  0
  7  8  1  0  0  0  0
  7 12  1  0  0  0  0
  8  9  1  0  0  0  0
  8 11  1  0  0  0  0
  8 13  1  0  0  0  0
  9 10  2  0  0  0  0
  9 17  1  0  0  0  0
 11 14  1  0  0  0  0
 11 15  1  0  0  0  0
 11 16  1  0  0  0  0
 17 18  1  0  0  0  0
 17 23  1  0  0  0  0
 18 19  1  0  0  0  0
 18 21  1  0  0  0  0
 18 24  1  0  0  0  0
 19 20  2  0  0  0  0
 19 28  1  0  0  0  0
 21 22  1  0  0  0  0
 21 25  1  0  0  0  0
 21 26  1  0  0  0  0
 22 27  1  0  0  0  0
 28 29  1  0  0  0  0
 28 33  1  0  0  0  0
 29 30  1  0  0  0  0
 29 32  1  0  0  0  0
 29 34  1  0  0  0  0
 30 31  2  0  0  0  0
 30 38  1  0  0  0  0
 32 35  1  0  0  0  0
 32 36  1  0  0  0  0
 32 37  1  0  0  0  0
 38 39  1  0  0  0  0
 38 40  1  0  0  0  0
 39 41  1  0  0  0  0
 39 42  1  0  0  0  0
 39 43  1  0  0  0  0
M  END
$$$$

  -OEChem-05262217303D

 43 42  0     1  0  0  0  0  0999 V2000
    3.9129   -1.1535    4.1762 C   0  0  0  0  0  0  0  0  0  0  0  0
    3.4368   -0.2273    4.8135 O   0  0  0  0  0  0  0  0  0  0  0  0
    4.7349   -2.2173    4.8788 C   0  0  0  0  0  0  0  0  0  0  0  0
    5.7366   -2.2616    4.4448 H   0  0  0  0  0  0  0  0  0  0  0  0
    4.8224   -1.9844    5.9438 H   0  0  0  0  0  0  0  0  0  0  0  0
    4.2543   -3.1926    4.7694 H   0  0  0  0  0  0  0  0  0  0  0  0
    3.6919   -1.2473    2.8187 N   0  0  0  0  0  0  0  0  0  0  0  0
    2.7444   -0.4044    2.0775 C   0  0  2  0  0  0  0  0  0  0  0  0
    1.9238   -1.2269    1.0627 C   0  0  0  0  0  0  0  0  0  0  0  0
    2.2422   -2.3838    0.8060 O   0  0  0  0  0  0  0  0  0  0  0  0
    3.5378    0.6904    1.3598 C   0  0  0  0  0  0  0  0  0  0  0  0
    3.9716   -2.1174    2.3675 H   0  0  0  0  0  0  0  0  0  0  0  0
    2.0346    0.0622    2.7687 H   0  0  0  0  0  0  0  0  0  0  0  0
    4.2363    0.2487    0.6415 H   0  0  0  0  0  0  0  0  0  0  0  0
    2.8640    1.3638    0.8211 H   0  0  0  0  0  0  0  0  0  0  0  0
    4.1082    1.2807    2.0840 H   0  0  0  0  0  0  0  0  0  0  0  0
    0.7394   -0.7250    0.5498 N   0  0  0  0  0  0  0  0  0  0  0  0
    0.2781   -0.9507   -0.8396 C   0  0  2  0  0  0  0  0  0  0  0  0
    1.1478   -1.7854   -1.8117 C   0  0  0  0  0  0  0  0  0  0  0  0
    2.3269   -1.4782   -1.9648 O   0  0  0  0  0  0  0  0  0  0  0  0
    0.0658    0.4346   -1.4636 C   0  0  0  0  0  0  0  0  0  0  0  0
    1.3197    1.1165   -1.5776 O   0  0  0  0  0  0  0  0  0  0  0  0
    0.5479    0.2132    0.8932 H   0  0  0  0  0  0  0  0  0  0  0  0
   -0.6880   -1.4583   -0.7751 H   0  0  0  0  0  0  0  0  0  0  0  0
   -0.6247    1.0262   -0.8533 H   0  0  0  0  0  0  0  0  0  0  0  0
   -0.3806    0.3263   -2.4580 H   0  0  0  0  0  0  0  0  0  0  0  0
    2.0011    0.5048   -1.9368 H   0  0  0  0  0  0  0  0  0  0  0  0
    0.5340   -2.5218   -2.8141 N   0  0  0  0  0  0  0  0  0  0  0  0
    1.1974   -3.2114   -3.9434 C   0  0  2  0  0  0  0  0  0  0  0  0
    2.1733   -4.3421   -3.5364 C   0  0  0  0  0  0  0  0  0  0  0  0
    2.1143   -5.4158   -4.1211 O   0  0  0  0  0  0  0  0  0  0  0  0
    1.8802   -2.2158   -4.8926 C   0  0  0  0  0  0  0  0  0  0  0  0
   -0.4464   -2.7408   -2.6623 H   0  0  0  0  0  0  0  0  0  0  0  0
    0.4037   -3.6978   -4.5202 H   0  0  0  0  0  0  0  0  0  0  0  0
    2.7764   -1.7833   -4.4390 H   0  0  0  0  0  0  0  0  0  0  0  0
    2.1802   -2.7246   -5.8143 H   0  0  0  0  0  0  0  0  0  0  0  0
    1.1938   -1.4049   -5.1535 H   0  0  0  0  0  0  0  0  0  0  0  0
    3.0956   -4.1758   -2.5220 N   0  0  0  0  0  0  0  0  0  0  0  0
    3.9968   -5.2198   -2.0562 C   0  0  0  0  0  0  0  0  0  0  0  0
    3.1042   -3.2646   -2.0560 H   0  0  0  0  0  0  0  0  0  0  0  0
    4.6617   -4.8237   -1.2823 H   0  0  0  0  0  0  0  0  0  0  0  0
    3.4284   -6.0540   -1.6321 H   0  0  0  0  0  0  0  0  0  0  0  0
    4.6116   -5.5936   -2.8816 H   0  0  0  0  0  0  0  0  0  0  0  0
  1  2  2  0  0  0  0
  1  3  1  0  0  0  0
  1  7  1  0  0  0  0
  3  4  1  0  0  0  0
  3  5  1  0  0  0  0
  3  6  1  0  0  0  0
  7  8  1  0  0  0  0
  7 12  1  0  0  0  0
  8  9  1  0  0  0  0
  8 11  1  0  0  0  0
  8 13  1  0  0  0  0
  9 10  2  0  0  0  0
  9 17  1  0  0  0  0
 11 14  1  0  0  0  0
 11 15  1  0  0  0  0
 11 16  1  0  0  0  0
 17 18  1  0  0  0  0
 17 23  1  0  0  0  0
 18 19  1  0  0  0  0
 18 21  1  0  0  0  0
 18 24  1  0  0  0  0
 19 20  2  0  0  0  0
 19 28  1  0  0  0  0
 21 22  1  0  0  0  0
 21 25  1  0  0  0  0
 21 26  1  0  0  0  0
 22 27  1  0  0  0  0
 28 29  1  0  0  0  0
 28 33  1  0  0  0  0
 29 30  1  0  0  0  0
 29 32  1  0  0  0  0
 29 34  1  0  0  0  0
 30 31  2  0  0  0  0
 30 38  1  0  0  0  0
 32 35  1  0  0  0  0
 32 36  1  0  0  0  0
 32 37  1  0  0  0  0
 38 39  1  0  0  0  0
 38 40  1  0  0  0  0
 39 41  1  0  0  0  0
 39 42  1  0  0  0  0
 39 43  1  0  0  0  0
M  END
$$$$

  -OEChem-05262217303D

 43 42  0     1  0  0  0  0  0999 V2000
    3.8832   -1.1326    4.2180 C   0  0  0  0  0  0  0  0  0  0  0  0
    3.4676   -0.1498    4.8114 O   0  0  0  0  0  0  0  0  0  0  0  0
    4.6837   -2.1874    4.9585 C   0  0  0  0  0  0  0  0  0  0  0  0
    5.6560   -2.3235    4.4791 H   0  0  0  0  0  0  0  0  0  0  0  0
    4.8424   -1.8812    5.9965 H   0  0  0  0  0  0  0  0  0  0  0  0
    4.1453   -3.1382    4.9492 H   0  0  0  0  0  0  0  0  0  0  0  0
    3.6097   -1.2984    2.8771 N   0  0  0  0  0  0  0  0  0  0  0  0
    2.6801   -0.4554    2.1135 C   0  0  2  0  0  0  0  0  0  0  0  0
    1.8583   -1.2840    1.1039 C   0  0  0  0  0  0  0  0  0  0  0  0
    2.1278   -2.4651    0.9109 O   0  0  0  0  0  0  0  0  0  0  0  0
    3.4922    0.6201    1.3879 C   0  0  0  0  0  0  0  0  0  0  0  0
    3.8442   -2.2014    2.4662 H   0  0  0  0  0  0  0  0  0  0  0  0
    1.9703    0.0282    2.7930 H   0  0  0  0  0  0  0  0  0  0  0  0
    4.1784    0.1610    0.6690 H   0  0  0  0  0  0  0  0  0  0  0  0
    2.8303    1.3049    0.8496 H   0  0  0  0  0  0  0  0  0  0  0  0
    4.0774    1.2023    2.1067 H   0  0  0  0  0  0  0  0  0  0  0  0
    0.6938   -0.7741    0.5564 N   0  0  0  0  0  0  0  0  0  0  0  0
    0.2719   -0.9931   -0.8479 C   0  0  2  0  0  0  0  0  0  0  0  0
    1.1490   -1.8264   -1.8173 C   0  0  0  0  0  0  0  0  0  0  0  0
    2.3616   -1.6396   -1.8305 O   0  0  0  0  0  0  0  0  0  0  0  0
    0.1081    0.4032   -1.4630 C   0  0  0  0  0  0  0  0  0  0  0  0
    1.3806    1.0571   -1.5296 O   0  0  0  0  0  0  0  0  0  0  0  0
    0.5152    0.1724    0.8827 H   0  0  0  0  0  0  0  0  0  0  0  0
   -0.7031   -1.4865   -0.8158 H   0  0  0  0  0  0  0  0  0  0  0  0
   -0.5856    1.0033   -0.8647 H   0  0  0  0  0  0  0  0  0  0  0  0
   -0.3133    0.3209   -2.4706 H   0  0  0  0  0  0  0  0  0  0  0  0
    2.0638    0.4364   -1.8657 H   0  0  0  0  0  0  0  0  0  0  0  0
    0.5815   -2.2786   -3.0010 N   0  0  0  0  0  0  0  0  0  0  0  0
    1.2858   -2.8105   -4.1897 C   0  0  2  0  0  0  0  0  0  0  0  0
    2.1113   -4.0963   -3.9431 C   0  0  0  0  0  0  0  0  0  0  0  0
    1.9666   -5.0493   -4.6971 O   0  0  0  0  0  0  0  0  0  0  0  0
    2.1408   -1.7300   -4.8675 C   0  0  0  0  0  0  0  0  0  0  0  0
   -0.4306   -2.3679   -2.9976 H   0  0  0  0  0  0  0  0  0  0  0  0
    0.5103   -3.0905   -4.9102 H   0  0  0  0  0  0  0  0  0  0  0  0
    3.0253   -1.4877   -4.2717 H   0  0  0  0  0  0  0  0  0  0  0  0
    2.4798   -2.0829   -5.8465 H   0  0  0  0  0  0  0  0  0  0  0  0
    1.5562   -0.8167   -5.0126 H   0  0  0  0  0  0  0  0  0  0  0  0
    2.9965   -4.1999   -2.8883 N   0  0  0  0  0  0  0  0  0  0  0  0
    3.7594   -5.3997   -2.5758 C   0  0  0  0  0  0  0  0  0  0  0  0
    3.0698   -3.3853   -2.2726 H   0  0  0  0  0  0  0  0  0  0  0  0
    4.3926   -5.6831   -3.4231 H   0  0  0  0  0  0  0  0  0  0  0  0
    4.4018   -5.2207   -1.7083 H   0  0  0  0  0  0  0  0  0  0  0  0
    3.0861   -6.2312   -2.3427 H   0  0  0  0  0  0  0  0  0  0  0  0
  1  2  2  0  0  0  0
  1  3  1  0  0  0  0
  1  7  1  0  0  0  0
  3  4  1  0  0  0  0
  3  5  1  0  0  0  0
  3  6  1  0  0  0  0
  7  8  1  0  0  0  0
  7 12  1  0  0  0  0
  8  9  1  0  0  0  0
  8 11  1  0  0  0  0
  8 13  1  0  0  0  0
  9 10  2  0  0  0  0
  9 17  1  0  0  0  0
 11 14  1  0  0  0  0
 11 15  1  0  0  0  0
 11 16  1  0  0  0  0
 17 18  1  0  0  0  0
 17 23  1  0  0  0  0
 18 19  1  0  0  0  0
 18 21  1  0  0  0  0
 18 24  1  0  0  0  0
 19 20  2  0  0  0  0
 19 28  1  0  0  0  0
 21 22  1  0  0  0  0
 21 25  1  0  0  0  0
 21 26  1  0  0  0  0
 22 27  1  0  0  0  0
 28 29  1  0  0  0  0
 28 33  1  0  0  0  0
 29 30  1  0  0  0  0
 29 32  1  0  0  0  0
 29 34  1  0  0  0  0
 30 31  2  0  0  0  0
 30 38  1  0  0  0  0
 32 35  1  0  0  0  0
 32 36  1  0  0  0  0
 32 37  1  0  0  0  0
 38 39  1  0  0  0  0
 38 40  1  0  0  0  0
 39 41  1  0  0  0  0
 39 42  1  0  0  0  0
 39 43  1  0  0  0  0
M  END
$$$$

  -OEChem-05262217303D

 43 42  0     1  0  0  0  0  0999 V2000
    1.8153   -2.2348    2.4445 C   0  0  0  0  0  0  0  0  0  0  0  0
    0.7368   -1.7221    2.7117 O   0  0  0  0  0  0  0  0  0  0  0  0
    1.9336   -3.7412    2.3199 C   0  0  0  0  0  0  0  0  0  0  0  0
    2.8118   -4.0951    2.8655 H   0  0  0  0  0  0  0  0  0  0  0  0
    1.0448   -4.2256    2.7338 H   0  0  0  0  0  0  0  0  0  0  0  0
    2.0301   -4.0188    1.2675 H   0  0  0  0  0  0  0  0  0  0  0  0
    2.8939   -1.4308    2.1389 N   0  0  0  0  0  0  0  0  0  0  0  0
    2.7943    0.0291    1.9924 C   0  0  2  0  0  0  0  0  0  0  0  0
    2.0865    0.4082    0.6715 C   0  0  0  0  0  0  0  0  0  0  0  0
    2.6170    1.0716   -0.2130 O   0  0  0  0  0  0  0  0  0  0  0  0
    4.2137    0.5995    2.0869 C   0  0  0  0  0  0  0  0  0  0  0  0
    3.6694   -1.8925    1.6692 H   0  0  0  0  0  0  0  0  0  0  0  0
    2.2064    0.4472    2.8164 H   0  0  0  0  0  0  0  0  0  0  0  0
    4.8390    0.2108    1.2765 H   0  0  0  0  0  0  0  0  0  0  0  0
    4.1898    1.6914    2.0117 H   0  0  0  0  0  0  0  0  0  0  0  0
    4.6708    0.3289    3.0435 H   0  0  0  0  0  0  0  0  0  0  0  0
    0.7746    0.0448    0.4462 N   0  0  0  0  0  0  0  0  0  0  0  0
    0.3759   -0.7665   -0.7314 C   0  0  2  0  0  0  0  0  0  0  0  0
    1.4670   -1.5294   -1.5385 C   0  0  0  0  0  0  0  0  0  0  0  0
    2.5221   -1.8564   -1.0011 O   0  0  0  0  0  0  0  0  0  0  0  0
   -0.3213    0.2089   -1.6900 C   0  0  0  0  0  0  0  0  0  0  0  0
    0.6199    1.1701   -2.1755 O   0  0  0  0  0  0  0  0  0  0  0  0
    0.3772   -0.3267    1.3145 H   0  0  0  0  0  0  0  0  0  0  0  0
   -0.3464   -1.5170   -0.3984 H   0  0  0  0  0  0  0  0  0  0  0  0
   -1.1243    0.7281   -1.1559 H   0  0  0  0  0  0  0  0  0  0  0  0
   -0.7795   -0.3212   -2.5306 H   0  0  0  0  0  0  0  0  0  0  0  0
    1.2827    1.3822   -1.4734 H   0  0  0  0  0  0  0  0  0  0  0  0
    1.0729   -2.2777   -2.6400 N   0  0  0  0  0  0  0  0  0  0  0  0
    1.9167   -3.1601   -3.4756 C   0  0  2  0  0  0  0  0  0  0  0  0
    2.3175   -4.5047   -2.8242 C   0  0  0  0  0  0  0  0  0  0  0  0
    2.0648   -5.5540   -3.4012 O   0  0  0  0  0  0  0  0  0  0  0  0
    3.1516   -2.4107   -3.9972 C   0  0  0  0  0  0  0  0  0  0  0  0
    0.1724   -2.0183   -3.0324 H   0  0  0  0  0  0  0  0  0  0  0  0
    1.3174   -3.4252   -4.3530 H   0  0  0  0  0  0  0  0  0  0  0  0
    3.8538   -2.1878   -3.1886 H   0  0  0  0  0  0  0  0  0  0  0  0
    3.6726   -3.0205   -4.7419 H   0  0  0  0  0  0  0  0  0  0  0  0
    2.8539   -1.4690   -4.4684 H   0  0  0  0  0  0  0  0  0  0  0  0
    2.9683   -4.5493   -1.6081 N   0  0  0  0  0  0  0  0  0  0  0  0
    3.4054   -5.7758   -0.9561 C   0  0  0  0  0  0  0  0  0  0  0  0
    3.1352   -3.6443   -1.1616 H   0  0  0  0  0  0  0  0  0  0  0  0
    4.1193   -6.3116   -1.5901 H   0  0  0  0  0  0  0  0  0  0  0  0
    3.8937   -5.5447   -0.0048 H   0  0  0  0  0  0  0  0  0  0  0  0
    2.5499   -6.4296   -0.7575 H   0  0  0  0  0  0  0  0  0  0  0  0
  1  2  2  0  0  0  0
  1  3  1  0  0  0  0
  1  7  1  0  0  0  0
  3  4  1  0  0  0  0
  3  5  1  0  0  0  0
  3  6  1  0  0  0  0
  7  8  1  0  0  0  0
  7 12  1  0  0  0  0
  8  9  1  0  0  0  0
  8 11  1  0  0  0  0
  8 13  1  0  0  0  0
  9 10  2  0  0  0  0
  9 17  1  0  0  0  0
 11 14  1  0  0  0  0
 11 15  1  0  0  0  0
 11 16  1  0  0  0  0
 17 18  1  0  0  0  0
 17 23  1  0  0  0  0
 18 19  1  0  0  0  0
 18 21  1  0  0  0  0
 18 24  1  0  0  0  0
 19 20  2  0  0  0  0
 19 28  1  0  0  0  0
 21 22  1  0  0  0  0
 21 25  1  0  0  0  0
 21 26  1  0  0  0  0
 22 27  1  0  0  0  0
 28 29  1  0  0  0  0
 28 33  1  0  0  0  0
 29 30  1  0  0  0  0
 29 32  1  0  0  0  0
 29 34  1  0  0  0  0
 30 31  2  0  0  0  0
 30 38  1  0  0  0  0
 32 35  1  0  0  0  0
 32 36  1  0  0  0  0
 32 37  1  0  0  0  0
 38 39  1  0  0  0  0
 38 40  1  0  0  0  0
 39 41  1  0  0  0  0
 39 42  1  0  0  0  0
 39 43  1  0  0  0  0
M  END
$$$$

  -OEChem-05262217303D

 43 42  0     1  0  0  0  0  0999 V2000
    3.8272   -2.1352    3.1333 C   0  0  0  0  0  0  0  0  0  0  0  0
    2.9322   -2.4497    3.9021 O   0  0  0  0  0  0  0  0  0  0  0  0
    5.0984   -2.9602    3.0680 C   0  0  0  0  0  0  0  0  0  0  0  0
    5.9615   -2.3350    3.3084 H   0  0  0  0  0  0  0  0  0  0  0  0
    5.0501   -3.7847    3.7847 H   0  0  0  0  0  0  0  0  0  0  0  0
    5.2242   -3.3736    2.0643 H   0  0  0  0  0  0  0  0  0  0  0  0
    3.6858   -1.0297    2.3209 N   0  0  0  0  0  0  0  0  0  0  0  0
    2.4274   -0.2940    2.1463 C   0  0  2  0  0  0  0  0  0  0  0  0
    2.1225   -0.0822    0.6519 C   0  0  0  0  0  0  0  0  0  0  0  0
    3.0179    0.2086   -0.1356 O   0  0  0  0  0  0  0  0  0  0  0  0
    2.5521    1.0461    2.8743 C   0  0  0  0  0  0  0  0  0  0  0  0
    4.3972   -0.8961    1.6036 H   0  0  0  0  0  0  0  0  0  0  0  0
    1.5922   -0.8571    2.5757 H   0  0  0  0  0  0  0  0  0  0  0  0
    3.3772    1.6335    2.4587 H   0  0  0  0  0  0  0  0  0  0  0  0
    1.6285    1.6241    2.7754 H   0  0  0  0  0  0  0  0  0  0  0  0
    2.7442    0.8801    3.9391 H   0  0  0  0  0  0  0  0  0  0  0  0
    0.8280    0.0105    0.1754 N   0  0  0  0  0  0  0  0  0  0  0  0
    0.4035   -0.5749   -1.1241 C   0  0  2  0  0  0  0  0  0  0  0  0
    1.3400   -1.6203   -1.7960 C   0  0  0  0  0  0  0  0  0  0  0  0
    1.9366   -2.4199   -1.0827 O   0  0  0  0  0  0  0  0  0  0  0  0
    0.2296    0.6147   -2.0788 C   0  0  0  0  0  0  0  0  0  0  0  0
    1.4971    1.2321   -2.3218 O   0  0  0  0  0  0  0  0  0  0  0  0
    0.1377   -0.0724    0.9168 H   0  0  0  0  0  0  0  0  0  0  0  0
   -0.5630   -1.0685   -0.9908 H   0  0  0  0  0  0  0  0  0  0  0  0
   -0.4457    1.3467   -1.6232 H   0  0  0  0  0  0  0  0  0  0  0  0
   -0.2244    0.3020   -3.0243 H   0  0  0  0  0  0  0  0  0  0  0  0
    2.0824    1.1376   -1.5331 H   0  0  0  0  0  0  0  0  0  0  0  0
    1.1639   -1.9590   -3.1305 N   0  0  0  0  0  0  0  0  0  0  0  0
    1.9120   -2.9803   -3.8964 C   0  0  2  0  0  0  0  0  0  0  0  0
    1.5460   -4.4503   -3.5838 C   0  0  0  0  0  0  0  0  0  0  0  0
    1.3287   -5.2229   -4.5081 O   0  0  0  0  0  0  0  0  0  0  0  0
    3.4273   -2.7604   -3.7823 C   0  0  0  0  0  0  0  0  0  0  0  0
    0.6757   -1.2587   -3.6818 H   0  0  0  0  0  0  0  0  0  0  0  0
    1.6513   -2.8299   -4.9491 H   0  0  0  0  0  0  0  0  0  0  0  0
    3.7895   -3.0036   -2.7791 H   0  0  0  0  0  0  0  0  0  0  0  0
    3.9527   -3.4007   -4.4979 H   0  0  0  0  0  0  0  0  0  0  0  0
    3.6792   -1.7182   -4.0009 H   0  0  0  0  0  0  0  0  0  0  0  0
    1.4742   -4.9184   -2.2875 N   0  0  0  0  0  0  0  0  0  0  0  0
    1.1988   -6.3032   -1.9309 C   0  0  0  0  0  0  0  0  0  0  0  0
    1.7039   -4.2431   -1.5535 H   0  0  0  0  0  0  0  0  0  0  0  0
    1.9931   -6.9591   -2.3021 H   0  0  0  0  0  0  0  0  0  0  0  0
    1.1419   -6.4083   -0.8432 H   0  0  0  0  0  0  0  0  0  0  0  0
    0.2445   -6.6263   -2.3597 H   0  0  0  0  0  0  0  0  0  0  0  0
  1  2  2  0  0  0  0
  1  3  1  0  0  0  0
  1  7  1  0  0  0  0
  3  4  1  0  0  0  0
  3  5  1  0  0  0  0
  3  6  1  0  0  0  0
  7  8  1  0  0  0  0
  7 12  1  0  0  0  0
  8  9  1  0  0  0  0
  8 11  1  0  0  0  0
  8 13  1  0  0  0  0
  9 10  2  0  0  0  0
  9 17  1  0  0  0  0
 11 14  1  0  0  0  0
 11 15  1  0  0  0  0
 11 16  1  0  0  0  0
 17 18  1  0  0  0  0
 17 23  1  0  0  0  0
 18 19  1  0  0  0  0
 18 21  1  0  0  0  0
 18 24  1  0  0  0  0
 19 20  2  0  0  0  0
 19 28  1  0  0  0  0
 21 22  1  0  0  0  0
 21 25  1  0  0  0  0
 21 26  1  0  0  0  0
 22 27  1  0  0  0  0
 28 29  1  0  0  0  0
 28 33  1  0  0  0  0
 29 30  1  0  0  0  0
 29 32  1  0  0  0  0
 29 34  1  0  0  0  0
 30 31  2  0  0  0  0
 30 38  1  0  0  0  0
 32 35  1  0  0  0  0
 32 36  1  0  0  0  0
 32 37  1  0  0  0  0
 38 39  1  0  0  0  0
 38 40  1  0  0  0  0
 39 41  1  0  0  0  0
 39 42  1  0  0  0  0
 39 43  1  0  0  0  0
M  END
$$$$

  -OEChem-05262217303D

 43 42  0     1  0  0  0  0  0999 V2000
    3.8293   -2.0862    3.2126 C   0  0  0  0  0  0  0  0  0  0  0  0
    2.9375   -2.3550    4.0022 O   0  0  0  0  0  0  0  0  0  0  0  0
    5.0930   -2.9245    3.1769 C   0  0  0  0  0  0  0  0  0  0  0  0
    5.9625   -2.2981    3.3902 H   0  0  0  0  0  0  0  0  0  0  0  0
    5.0394   -3.7203    3.9253 H   0  0  0  0  0  0  0  0  0  0  0  0
    5.2115   -3.3778    2.1895 H   0  0  0  0  0  0  0  0  0  0  0  0
    3.6888   -1.0226    2.3458 N   0  0  0  0  0  0  0  0  0  0  0  0
    2.4341   -0.2875    2.1447 C   0  0  2  0  0  0  0  0  0  0  0  0
    2.1360   -0.1072    0.6445 C   0  0  0  0  0  0  0  0  0  0  0  0
    3.0416    0.1269   -0.1503 O   0  0  0  0  0  0  0  0  0  0  0  0
    2.5576    1.0683    2.8433 C   0  0  0  0  0  0  0  0  0  0  0  0
    4.3990   -0.9250    1.6216 H   0  0  0  0  0  0  0  0  0  0  0  0
    1.5954   -0.8398    2.5815 H   0  0  0  0  0  0  0  0  0  0  0  0
    3.3884    1.6439    2.4219 H   0  0  0  0  0  0  0  0  0  0  0  0
    1.6367    1.6468    2.7235 H   0  0  0  0  0  0  0  0  0  0  0  0
    2.7403    0.9251    3.9131 H   0  0  0  0  0  0  0  0  0  0  0  0
    0.8432    0.0091    0.1670 N   0  0  0  0  0  0  0  0  0  0  0  0
    0.4135   -0.5663   -1.1343 C   0  0  2  0  0  0  0  0  0  0  0  0
    1.3570   -1.6208   -1.7796 C   0  0  0  0  0  0  0  0  0  0  0  0
    1.7739   -2.5262   -1.0650 O   0  0  0  0  0  0  0  0  0  0  0  0
    0.2386    0.6206   -2.0919 C   0  0  0  0  0  0  0  0  0  0  0  0
    1.5072    1.2343   -2.3403 O   0  0  0  0  0  0  0  0  0  0  0  0
    0.1478   -0.0549    0.9058 H   0  0  0  0  0  0  0  0  0  0  0  0
   -0.5543   -1.0586   -1.0042 H   0  0  0  0  0  0  0  0  0  0  0  0
   -0.4340    1.3550   -1.6362 H   0  0  0  0  0  0  0  0  0  0  0  0
   -0.2199    0.3037   -3.0341 H   0  0  0  0  0  0  0  0  0  0  0  0
    2.0861    1.1564   -1.5467 H   0  0  0  0  0  0  0  0  0  0  0  0
    1.4395   -1.7694   -3.1566 N   0  0  0  0  0  0  0  0  0  0  0  0
    2.2698   -2.7446   -3.8960 C   0  0  2  0  0  0  0  0  0  0  0  0
    1.7820   -4.2117   -3.8472 C   0  0  0  0  0  0  0  0  0  0  0  0
    1.7357   -4.8632   -4.8826 O   0  0  0  0  0  0  0  0  0  0  0  0
    3.7427   -2.6453   -3.4736 C   0  0  0  0  0  0  0  0  0  0  0  0
    1.1540   -0.9424   -3.6768 H   0  0  0  0  0  0  0  0  0  0  0  0
    2.2239   -2.4539   -4.9506 H   0  0  0  0  0  0  0  0  0  0  0  0
    3.8908   -3.0217   -2.4571 H   0  0  0  0  0  0  0  0  0  0  0  0
    4.3664   -3.2380   -4.1501 H   0  0  0  0  0  0  0  0  0  0  0  0
    4.0811   -1.6052   -3.5123 H   0  0  0  0  0  0  0  0  0  0  0  0
    1.4237   -4.8155   -2.6590 N   0  0  0  0  0  0  0  0  0  0  0  0
    1.0472   -6.2162   -2.5344 C   0  0  0  0  0  0  0  0  0  0  0  0
    1.5372   -4.2469   -1.8158 H   0  0  0  0  0  0  0  0  0  0  0  0
    1.8705   -6.8633   -2.8538 H   0  0  0  0  0  0  0  0  0  0  0  0
    0.8066   -6.4502   -1.4931 H   0  0  0  0  0  0  0  0  0  0  0  0
    0.1680   -6.4332   -3.1497 H   0  0  0  0  0  0  0  0  0  0  0  0
  1  2  2  0  0  0  0
  1  3  1  0  0  0  0
  1  7  1  0  0  0  0
  3  4  1  0  0  0  0
  3  5  1  0  0  0  0
  3  6  1  0  0  0  0
  7  8  1  0  0  0  0
  7 12  1  0  0  0  0
  8  9  1  0  0  0  0
  8 11  1  0  0  0  0
  8 13  1  0  0  0  0
  9 10  2  0  0  0  0
  9 17  1  0  0  0  0
 11 14  1  0  0  0  0
 11 15  1  0  0  0  0
 11 16  1  0  0  0  0
 17 18  1  0  0  0  0
 17 23  1  0  0  0  0
 18 19  1  0  0  0  0
 18 21  1  0  0  0  0
 18 24  1  0  0  0  0
 19 20  2  0  0  0  0
 19 28  1  0  0  0  0
 21 22  1  0  0  0  0
 21 25  1  0  0  0  0
 21 26  1  0  0  0  0
 22 27  1  0  0  0  0
 28 29  1  0  0  0  0
 28 33  1  0  0  0  0
 29 30  1  0  0  0  0
 29 32  1  0  0  0  0
 29 34  1  0  0  0  0
 30 31  2  0  0  0  0
 30 38  1  0  0  0  0
 32 35  1  0  0  0  0
 32 36  1  0  0  0  0
 32 37  1  0  0  0  0
 38 39  1  0  0  0  0
 38 40  1  0  0  0  0
 39 41  1  0  0  0  0
 39 42  1  0  0  0  0
 39 43  1  0  0  0  0
M  END
$$$$

  -OEChem-05262217303D

 43 42  0     1  0  0  0  0  0999 V2000
    3.9357   -2.0115    3.3344 C   0  0  0  0  0  0  0  0  0  0  0  0
    3.0648   -2.2537    4.1551 O   0  0  0  0  0  0  0  0  0  0  0  0
    5.2343   -2.7956    3.3488 C   0  0  0  0  0  0  0  0  0  0  0  0
    6.0773   -2.1201    3.5140 H   0  0  0  0  0  0  0  0  0  0  0  0
    5.2159   -3.5395    4.1504 H   0  0  0  0  0  0  0  0  0  0  0  0
    5.3695   -3.3107    2.3944 H   0  0  0  0  0  0  0  0  0  0  0  0
    3.7358   -1.0299    2.3861 N   0  0  0  0  0  0  0  0  0  0  0  0
    2.4498   -0.3593    2.1564 C   0  0  2  0  0  0  0  0  0  0  0  0
    2.1725   -0.1827    0.6511 C   0  0  0  0  0  0  0  0  0  0  0  0
    3.0947   -0.0122   -0.1405 O   0  0  0  0  0  0  0  0  0  0  0  0
    2.4816    0.9968    2.8656 C   0  0  0  0  0  0  0  0  0  0  0  0
    4.4394   -0.9430    1.6540 H   0  0  0  0  0  0  0  0  0  0  0  0
    1.6334   -0.9623    2.5685 H   0  0  0  0  0  0  0  0  0  0  0  0
    3.2884    1.6196    2.4656 H   0  0  0  0  0  0  0  0  0  0  0  0
    1.5329    1.5247    2.7291 H   0  0  0  0  0  0  0  0  0  0  0  0
    2.6478    0.8575    3.9386 H   0  0  0  0  0  0  0  0  0  0  0  0
    0.8872   -0.0091    0.1700 N   0  0  0  0  0  0  0  0  0  0  0  0
    0.4377   -0.5503   -1.1379 C   0  0  2  0  0  0  0  0  0  0  0  0
    1.3479   -1.6318   -1.7822 C   0  0  0  0  0  0  0  0  0  0  0  0
    1.5811   -2.6377   -1.1210 O   0  0  0  0  0  0  0  0  0  0  0  0
    0.2904    0.6495   -2.0839 C   0  0  0  0  0  0  0  0  0  0  0  0
    1.5735    1.2347   -2.3330 O   0  0  0  0  0  0  0  0  0  0  0  0
    0.1856   -0.0407    0.9052 H   0  0  0  0  0  0  0  0  0  0  0  0
   -0.5443   -1.0146   -1.0107 H   0  0  0  0  0  0  0  0  0  0  0  0
   -0.3653    1.3955   -1.6226 H   0  0  0  0  0  0  0  0  0  0  0  0
   -0.1750    0.3453   -3.0274 H   0  0  0  0  0  0  0  0  0  0  0  0
    2.1404    1.1668   -1.5314 H   0  0  0  0  0  0  0  0  0  0  0  0
    1.6884   -1.5987   -3.1261 N   0  0  0  0  0  0  0  0  0  0  0  0
    2.5854   -2.5342   -3.8367 C   0  0  2  0  0  0  0  0  0  0  0  0
    2.0180   -3.9541   -4.0706 C   0  0  0  0  0  0  0  0  0  0  0  0
    2.0645   -4.4429   -5.1920 O   0  0  0  0  0  0  0  0  0  0  0  0
    3.9580   -2.5981   -3.1522 C   0  0  0  0  0  0  0  0  0  0  0  0
    1.5765   -0.6759   -3.5469 H   0  0  0  0  0  0  0  0  0  0  0  0
    2.7471   -2.1126   -4.8342 H   0  0  0  0  0  0  0  0  0  0  0  0
    3.8951   -3.1016   -2.1833 H   0  0  0  0  0  0  0  0  0  0  0  0
    4.6635   -3.1524   -3.7789 H   0  0  0  0  0  0  0  0  0  0  0  0
    4.3521   -1.5893   -2.9948 H   0  0  0  0  0  0  0  0  0  0  0  0
    1.4793   -4.6954   -3.0384 N   0  0  0  0  0  0  0  0  0  0  0  0
    0.9527   -6.0450   -3.1836 C   0  0  0  0  0  0  0  0  0  0  0  0
    1.4678   -4.2445   -2.1199 H   0  0  0  0  0  0  0  0  0  0  0  0
    0.6037   -6.4176   -2.2157 H   0  0  0  0  0  0  0  0  0  0  0  0
    0.1106   -6.0543   -3.8833 H   0  0  0  0  0  0  0  0  0  0  0  0
    1.7286   -6.7223   -3.5552 H   0  0  0  0  0  0  0  0  0  0  0  0
  1  2  2  0  0  0  0
  1  3  1  0  0  0  0
  1  7  1  0  0  0  0
  3  4  1  0  0  0  0
  3  5  1  0  0  0  0
  3  6  1  0  0  0  0
  7  8  1  0  0  0  0
  7 12  1  0  0  0  0
  8  9  1  0  0  0  0
  8 11  1  0  0  0  0
  8 13  1  0  0  0  0
  9 10  2  0  0  0  0
  9 17  1  0  0  0  0
 11 14  1  0  0  0  0
 11 15  1  0  0  0  0
 11 16  1  0  0  0  0
 17 18  1  0  0  0  0
 17 23  1  0  0  0  0
 18 19  1  0  0  0  0
 18 21  1  0  0  0  0
 18 24  1  0  0  0  0
 19 20  2  0  0  0  0
 19 28  1  0  0  0  0
 21 22  1  0  0  0  0
 21 25  1  0  0  0  0
 21 26  1  0  0  0  0
 22 27  1  0  0  0  0
 28 29  1  0  0  0  0
 28 33  1  0  0  0  0
 29 30  1  0  0  0  0
 29 32  1  0  0  0  0
 29 34  1  0  0  0  0
 30 31  2  0  0  0  0
 30 38  1  0  0  0  0
 32 35  1  0  0  0  0
 32 36  1  0  0  0  0
 32 37  1  0  0  0  0
 38 39  1  0  0  0  0
 38 40  1  0  0  0  0
 39 41  1  0  0  0  0
 39 42  1  0  0  0  0
 39 43  1  0  0  0  0
M  END
$$$$

  -OEChem-05262217303D

 43 42  0     1  0  0  0  0  0999 V2000
    3.9803   -1.9367    3.4497 C   0  0  0  0  0  0  0  0  0  0  0  0
    3.1316   -2.1142    4.3091 O   0  0  0  0  0  0  0  0  0  0  0  0
    5.3034   -2.6756    3.5189 C   0  0  0  0  0  0  0  0  0  0  0  0
    6.1285   -1.9608    3.5669 H   0  0  0  0  0  0  0  0  0  0  0  0
    5.3346   -3.3108    4.4088 H   0  0  0  0  0  0  0  0  0  0  0  0
    5.4267   -3.3047    2.6339 H   0  0  0  0  0  0  0  0  0  0  0  0
    3.7314   -1.0683    2.4079 N   0  0  0  0  0  0  0  0  0  0  0  0
    2.4352   -0.4246    2.1618 C   0  0  2  0  0  0  0  0  0  0  0  0
    2.1760   -0.2475    0.6528 C   0  0  0  0  0  0  0  0  0  0  0  0
    3.1124   -0.1328   -0.1316 O   0  0  0  0  0  0  0  0  0  0  0  0
    2.4254    0.9304    2.8759 C   0  0  0  0  0  0  0  0  0  0  0  0
    4.4215   -1.0243    1.6592 H   0  0  0  0  0  0  0  0  0  0  0  0
    1.6295   -1.0509    2.5606 H   0  0  0  0  0  0  0  0  0  0  0  0
    3.2246    1.5721    2.4906 H   0  0  0  0  0  0  0  0  0  0  0  0
    1.4680    1.4387    2.7271 H   0  0  0  0  0  0  0  0  0  0  0  0
    2.5780    0.7921    3.9512 H   0  0  0  0  0  0  0  0  0  0  0  0
    0.9018   -0.0267    0.1606 N   0  0  0  0  0  0  0  0  0  0  0  0
    0.4459   -0.5392   -1.1562 C   0  0  2  0  0  0  0  0  0  0  0  0
    1.3242   -1.6430   -1.8040 C   0  0  0  0  0  0  0  0  0  0  0  0
    1.3776   -2.7238   -1.2288 O   0  0  0  0  0  0  0  0  0  0  0  0
    0.3293    0.6800   -2.0837 C   0  0  0  0  0  0  0  0  0  0  0  0
    1.6241    1.2473   -2.3213 O   0  0  0  0  0  0  0  0  0  0  0  0
    0.1911   -0.0267    0.8879 H   0  0  0  0  0  0  0  0  0  0  0  0
   -0.5494   -0.9778   -1.0387 H   0  0  0  0  0  0  0  0  0  0  0  0
   -0.3166    1.4316   -1.6173 H   0  0  0  0  0  0  0  0  0  0  0  0
   -0.1331    0.3946   -3.0346 H   0  0  0  0  0  0  0  0  0  0  0  0
    2.1708    1.1962   -1.5059 H   0  0  0  0  0  0  0  0  0  0  0  0
    1.9330   -1.4808   -3.0385 N   0  0  0  0  0  0  0  0  0  0  0  0
    2.9253   -2.3808   -3.6622 C   0  0  2  0  0  0  0  0  0  0  0  0
    2.3788   -3.7351   -4.1724 C   0  0  0  0  0  0  0  0  0  0  0  0
    2.7345   -4.1508   -5.2678 O   0  0  0  0  0  0  0  0  0  0  0  0
    4.1259   -2.5937   -2.7291 C   0  0  0  0  0  0  0  0  0  0  0  0
    1.9385   -0.5100   -3.3576 H   0  0  0  0  0  0  0  0  0  0  0  0
    3.2999   -1.8616   -4.5504 H   0  0  0  0  0  0  0  0  0  0  0  0
    3.8509   -3.2006   -1.8615 H   0  0  0  0  0  0  0  0  0  0  0  0
    4.9301   -3.1082   -3.2643 H   0  0  0  0  0  0  0  0  0  0  0  0
    4.5073   -1.6312   -2.3741 H   0  0  0  0  0  0  0  0  0  0  0  0
    1.5253   -4.5070   -3.4096 N   0  0  0  0  0  0  0  0  0  0  0  0
    1.0626   -5.8333   -3.7936 C   0  0  0  0  0  0  0  0  0  0  0  0
    1.3248   -4.1560   -2.4697 H   0  0  0  0  0  0  0  0  0  0  0  0
    0.3633   -6.2199   -3.0463 H   0  0  0  0  0  0  0  0  0  0  0  0
    0.5485   -5.7946   -4.7595 H   0  0  0  0  0  0  0  0  0  0  0  0
    1.9071   -6.5259   -3.8706 H   0  0  0  0  0  0  0  0  0  0  0  0
  1  2  2  0  0  0  0
  1  3  1  0  0  0  0
  1  7  1  0  0  0  0
  3  4  1  0  0  0  0
  3  5  1  0  0  0  0
  3  6  1  0  0  0  0
  7  8  1  0  0  0  0
  7 12  1  0  0  0  0
  8  9  1  0  0  0  0
  8 11  1  0  0  0  0
  8 13  1  0  0  0  0
  9 10  2  0  0  0  0
  9 17  1  0  0  0  0
 11 14  1  0  0  0  0
 11 15  1  0  0  0  0
 11 16  1  0  0  0  0
 17 18  1  0  0  0  0
 17 23  1  0  0  0  0
 18 19  1  0  0  0  0
 18 21  1  0  0  0  0
 18 24  1  0  0  0  0
 19 20  2  0  0  0  0
 19 28  1  0  0  0  0
 21 22  1  0  0  0  0
 21 25  1  0  0  0  0
 21 26  1  0  0  0  0
 22 27  1  0  0  0  0
 28 29  1  0  0  0  0
 28 33  1  0  0  0  0
 29 30  1  0  0  0  0
 29 32  1  0  0  0  0
 29 34  1  0  0  0  0
 30 31  2  0  0  0  0
 30 38  1  0  0  0  0
 32 35  1  0  0  0  0
 32 36  1  0  0  0  0
 32 37  1  0  0  0  0
 38 39  1  0  0  0  0
 38 40  1  0  0  0  0
 39 41  1  0  0  0  0
 39 42  1  0  0  0  0
 39 43  1  0  0  0  0
M  END
$$$$

  -OEChem-05262217303D

 43 42  0     1  0  0  0  0  0999 V2000
    3.8339   -1.9021    3.5660 C   0  0  0  0  0  0  0  0  0  0  0  0
    2.9356   -2.0470    4.3799 O   0  0  0  0  0  0  0  0  0  0  0  0
    5.1223   -2.6910    3.7034 C   0  0  0  0  0  0  0  0  0  0  0  0
    5.9676   -2.0087    3.8197 H   0  0  0  0  0  0  0  0  0  0  0  0
    5.0725   -3.3429    4.5800 H   0  0  0  0  0  0  0  0  0  0  0  0
    5.2793   -3.3078    2.8152 H   0  0  0  0  0  0  0  0  0  0  0  0
    3.6713   -1.0258    2.5135 N   0  0  0  0  0  0  0  0  0  0  0  0
    2.4109   -0.3417    2.1993 C   0  0  2  0  0  0  0  0  0  0  0  0
    2.1983   -0.2238    0.6777 C   0  0  0  0  0  0  0  0  0  0  0  0
    3.1586   -0.1393   -0.0792 O   0  0  0  0  0  0  0  0  0  0  0  0
    2.4387    1.0423    2.8531 C   0  0  0  0  0  0  0  0  0  0  0  0
    4.4024   -1.0049    1.8038 H   0  0  0  0  0  0  0  0  0  0  0  0
    1.5679   -0.9138    2.6021 H   0  0  0  0  0  0  0  0  0  0  0  0
    3.2736    1.6339    2.4636 H   0  0  0  0  0  0  0  0  0  0  0  0
    1.5070    1.5804    2.6546 H   0  0  0  0  0  0  0  0  0  0  0  0
    2.5566    0.9450    3.9372 H   0  0  0  0  0  0  0  0  0  0  0  0
    0.9354   -0.0375    0.1451 N   0  0  0  0  0  0  0  0  0  0  0  0
    0.5201   -0.5738   -1.1749 C   0  0  2  0  0  0  0  0  0  0  0  0
    1.4182   -1.6694   -1.8090 C   0  0  0  0  0  0  0  0  0  0  0  0
    1.3336   -2.7982   -1.3405 O   0  0  0  0  0  0  0  0  0  0  0  0
    0.3873    0.6407   -2.1078 C   0  0  0  0  0  0  0  0  0  0  0  0
    1.6660    1.2528   -2.3261 O   0  0  0  0  0  0  0  0  0  0  0  0
    0.2037   -0.0271    0.8515 H   0  0  0  0  0  0  0  0  0  0  0  0
   -0.4690   -1.0293   -1.0687 H   0  0  0  0  0  0  0  0  0  0  0  0
   -0.2944    1.3719   -1.6606 H   0  0  0  0  0  0  0  0  0  0  0  0
   -0.0426    0.3337   -3.0672 H   0  0  0  0  0  0  0  0  0  0  0  0
    2.1734    1.2800   -1.4863 H   0  0  0  0  0  0  0  0  0  0  0  0
    2.2747   -1.4173   -2.8687 N   0  0  0  0  0  0  0  0  0  0  0  0
    3.3009   -2.3179   -3.4317 C   0  0  2  0  0  0  0  0  0  0  0  0
    2.7594   -3.5546   -4.1860 C   0  0  0  0  0  0  0  0  0  0  0  0
    3.1973   -3.8220   -5.2978 O   0  0  0  0  0  0  0  0  0  0  0  0
    4.3095   -2.7361   -2.3533 C   0  0  0  0  0  0  0  0  0  0  0  0
    2.3441   -0.4268   -3.1119 H   0  0  0  0  0  0  0  0  0  0  0  0
    3.8530   -1.7347   -4.1759 H   0  0  0  0  0  0  0  0  0  0  0  0
    3.8476   -3.3952   -1.6127 H   0  0  0  0  0  0  0  0  0  0  0  0
    5.1468   -3.2711   -2.8121 H   0  0  0  0  0  0  0  0  0  0  0  0
    4.7022   -1.8539   -1.8386 H   0  0  0  0  0  0  0  0  0  0  0  0
    1.8125   -4.3856   -3.6217 N   0  0  0  0  0  0  0  0  0  0  0  0
    1.2789   -5.5769   -4.2660 C   0  0  0  0  0  0  0  0  0  0  0  0
    1.4865   -4.1268   -2.6870 H   0  0  0  0  0  0  0  0  0  0  0  0
    2.0856   -6.2777   -4.5045 H   0  0  0  0  0  0  0  0  0  0  0  0
    0.5697   -6.0789   -3.6009 H   0  0  0  0  0  0  0  0  0  0  0  0
    0.7585   -5.3094   -5.1912 H   0  0  0  0  0  0  0  0  0  0  0  0
  1  2  2  0  0  0  0
  1  3  1  0  0  0  0
  1  7  1  0  0  0  0
  3  4  1  0  0  0  0
  3  5  1  0  0  0  0
  3  6  1  0  0  0  0
  7  8  1  0  0  0  0
  7 12  1  0  0  0  0
  8  9  1  0  0  0  0
  8 11  1  0  0  0  0
  8 13  1  0  0  0  0
  9 10  2  0  0  0  0
  9 17  1  0  0  0  0
 11 14  1  0  0  0  0
 11 15  1  0  0  0  0
 11 16  1  0  0  0  0
 17 18  1  0  0  0  0
 17 23  1  0  0  0  0
 18 19  1  0  0  0  0
 18 21  1  0  0  0  0
 18 24  1  0  0  0  0
 19 20  2  0  0  0  0
 19 28  1  0  0  0  0
 21 22  1  0  0  0  0
 21 25  1  0  0  0  0
 21 26  1  0  0  0  0
 22 27  1  0  0  0  0
 28 29  1  0  0  0  0
 28 33  1  0  0  0  0
 29 30  1  0  0  0  0
 29 32  1  0  0  0  0
 29 34  1  0  0  0  0
 30 31  2  0  0  0  0
 30 38  1  0  0  0  0
 32 35  1  0  0  0  0
 32 36  1  0  0  0  0
 32 37  1  0  0  0  0
 38 39  1  0  0  0  0
 38 40  1  0  0  0  0
 39 41  1  0  0  0  0
 39 42  1  0  0  0  0
 39 43  1  0  0  0  0
M  END
$$$$

  -OEChem-05262217303D

 43 42  0     1  0  0  0  0  0999 V2000
    3.6524   -1.4850    4.2650 C   0  0  0  0  0  0  0  0  0  0  0  0
    2.6621   -1.3860    4.9724 O   0  0  0  0  0  0  0  0  0  0  0  0
    4.8202   -2.3453    4.7093 C   0  0  0  0  0  0  0  0  0  0  0  0
    5.7227   -1.7350    4.7929 H   0  0  0  0  0  0  0  0  0  0  0  0
    4.6075   -2.7955    5.6830 H   0  0  0  0  0  0  0  0  0  0  0  0
    4.9935   -3.1432    3.9829 H   0  0  0  0  0  0  0  0  0  0  0  0
    3.7083   -0.8273    3.0539 N   0  0  0  0  0  0  0  0  0  0  0  0
    2.5562   -0.1721    2.4195 C   0  0  2  0  0  0  0  0  0  0  0  0
    2.3564   -0.6582    0.9697 C   0  0  0  0  0  0  0  0  0  0  0  0
    3.3302   -1.0400    0.3338 O   0  0  0  0  0  0  0  0  0  0  0  0
    2.7950    1.3389    2.4483 C   0  0  0  0  0  0  0  0  0  0  0  0
    4.4819   -1.0743    2.4381 H   0  0  0  0  0  0  0  0  0  0  0  0
    1.6370   -0.3965    2.9705 H   0  0  0  0  0  0  0  0  0  0  0  0
    3.7045    1.5937    1.8944 H   0  0  0  0  0  0  0  0  0  0  0  0
    1.9518    1.8691    1.9954 H   0  0  0  0  0  0  0  0  0  0  0  0
    2.9069    1.6840    3.4809 H   0  0  0  0  0  0  0  0  0  0  0  0
    1.0909   -0.6045    0.4062 N   0  0  0  0  0  0  0  0  0  0  0  0
    0.6717   -1.0824   -0.9332 C   0  0  2  0  0  0  0  0  0  0  0  0
    1.6138   -2.0318   -1.7121 C   0  0  0  0  0  0  0  0  0  0  0  0
    1.4023   -3.2376   -1.6490 O   0  0  0  0  0  0  0  0  0  0  0  0
    0.2852    0.1393   -1.7867 C   0  0  0  0  0  0  0  0  0  0  0  0
    1.4085    0.9899   -2.0635 O   0  0  0  0  0  0  0  0  0  0  0  0
    0.3597   -0.2677    1.0249 H   0  0  0  0  0  0  0  0  0  0  0  0
   -0.2399   -1.6691   -0.7834 H   0  0  0  0  0  0  0  0  0  0  0  0
   -0.4837    0.7164   -1.2630 H   0  0  0  0  0  0  0  0  0  0  0  0
   -0.1473   -0.2047   -2.7326 H   0  0  0  0  0  0  0  0  0  0  0  0
    1.1324    1.7786   -2.5654 H   0  0  0  0  0  0  0  0  0  0  0  0
    2.5794   -1.5361   -2.5713 N   0  0  0  0  0  0  0  0  0  0  0  0
    3.6037   -2.2939   -3.3173 C   0  0  2  0  0  0  0  0  0  0  0  0
    3.0633   -3.1742   -4.4680 C   0  0  0  0  0  0  0  0  0  0  0  0
    3.5636   -3.0864   -5.5827 O   0  0  0  0  0  0  0  0  0  0  0  0
    4.4758   -3.1187   -2.3616 C   0  0  0  0  0  0  0  0  0  0  0  0
    2.7136   -0.5280   -2.4794 H   0  0  0  0  0  0  0  0  0  0  0  0
    4.2590   -1.5547   -3.7893 H   0  0  0  0  0  0  0  0  0  0  0  0
    3.9032   -3.9297   -1.9027 H   0  0  0  0  0  0  0  0  0  0  0  0
    5.3171   -3.5581   -2.9064 H   0  0  0  0  0  0  0  0  0  0  0  0
    4.8735   -2.4809   -1.5664 H   0  0  0  0  0  0  0  0  0  0  0  0
    2.0368   -4.0744   -4.2639 N   0  0  0  0  0  0  0  0  0  0  0  0
    1.4916   -4.9470   -5.2938 C   0  0  0  0  0  0  0  0  0  0  0  0
    1.6499   -4.1051   -3.3165 H   0  0  0  0  0  0  0  0  0  0  0  0
    0.6934   -5.5682   -4.8766 H   0  0  0  0  0  0  0  0  0  0  0  0
    1.0767   -4.3552   -6.1161 H   0  0  0  0  0  0  0  0  0  0  0  0
    2.2711   -5.6058   -5.6906 H   0  0  0  0  0  0  0  0  0  0  0  0
  1  2  2  0  0  0  0
  1  3  1  0  0  0  0
  1  7  1  0  0  0  0
  3  4  1  0  0  0  0
  3  5  1  0  0  0  0
  3  6  1  0  0  0  0
  7  8  1  0  0  0  0
  7 12  1  0  0  0  0
  8  9  1  0  0  0  0
  8 11  1  0  0  0  0
  8 13  1  0  0  0  0
  9 10  2  0  0  0  0
  9 17  1  0  0  0  0
 11 14  1  0  0  0  0
 11 15  1  0  0  0  0
 11 16  1  0  0  0  0
 17 18  1  0  0  0  0
 17 23  1  0  0  0  0
 18 19  1  0  0  0  0
 18 21  1  0  0  0  0
 18 24  1  0  0  0  0
 19 20  2  0  0  0  0
 19 28  1  0  0  0  0
 21 22  1  0  0  0  0
 21 25  1  0  0  0  0
 21 26  1  0  0  0  0
 22 27  1  0  0  0  0
 28 29  1  0  0  0  0
 28 33  1  0  0  0  0
 29 30  1  0  0  0  0
 29 32  1  0  0  0  0
 29 34  1  0  0  0  0
 30 31  2  0  0  0  0
 30 38  1  0  0  0  0
 32 35  1  0  0  0  0
 32 36  1  0  0  0  0
 32 37  1  0  0  0  0
 38 39  1  0  0  0  0
 38 40  1  0  0  0  0
 39 41  1  0  0  0  0
 39 42  1  0  0  0  0
 39 43  1  0  0  0  0
M  END
$$$$

  -OEChem-05262217303D

 43 42  0     1  0  0  0  0  0999 V2000
    3.4157   -1.5146    4.1906 C   0  0  0  0  0  0  0  0  0  0  0  0
    2.2794   -1.8188    4.5175 O   0  0  0  0  0  0  0  0  0  0  0  0
    4.6005   -2.2648    4.7692 C   0  0  0  0  0  0  0  0  0  0  0  0
    5.2994   -1.5626    5.2303 H   0  0  0  0  0  0  0  0  0  0  0  0
    4.2618   -2.9746    5.5292 H   0  0  0  0  0  0  0  0  0  0  0  0
    5.1155   -2.8151    3.9781 H   0  0  0  0  0  0  0  0  0  0  0  0
    3.6243   -0.5045    3.2738 N   0  0  0  0  0  0  0  0  0  0  0  0
    2.5382    0.1019    2.4904 C   0  0  2  0  0  0  0  0  0  0  0  0
    2.3951   -0.5494    1.0990 C   0  0  0  0  0  0  0  0  0  0  0  0
    3.4044   -0.8699    0.4830 O   0  0  0  0  0  0  0  0  0  0  0  0
    2.8360    1.5967    2.3527 C   0  0  0  0  0  0  0  0  0  0  0  0
    4.5626   -0.4449    2.8857 H   0  0  0  0  0  0  0  0  0  0  0  0
    1.5840   -0.0061    3.0170 H   0  0  0  0  0  0  0  0  0  0  0  0
    3.7811    1.7544    1.8229 H   0  0  0  0  0  0  0  0  0  0  0  0
    2.0381    2.0946    1.7929 H   0  0  0  0  0  0  0  0  0  0  0  0
    2.9071    2.0614    3.3411 H   0  0  0  0  0  0  0  0  0  0  0  0
    1.1428   -0.6384    0.5131 N   0  0  0  0  0  0  0  0  0  0  0  0
    0.7732   -1.2516   -0.7860 C   0  0  2  0  0  0  0  0  0  0  0  0
    1.7729   -2.1964   -1.4956 C   0  0  0  0  0  0  0  0  0  0  0  0
    1.4069   -3.3423   -1.7261 O   0  0  0  0  0  0  0  0  0  0  0  0
    0.2935   -0.1483   -1.7441 C   0  0  0  0  0  0  0  0  0  0  0  0
    1.3350    0.7696   -2.0995 O   0  0  0  0  0  0  0  0  0  0  0  0
    0.3778   -0.2989    1.0894 H   0  0  0  0  0  0  0  0  0  0  0  0
   -0.0951   -1.8861   -0.5796 H   0  0  0  0  0  0  0  0  0  0  0  0
   -0.5188    0.4083   -1.2656 H   0  0  0  0  0  0  0  0  0  0  0  0
   -0.1122   -0.6033   -2.6542 H   0  0  0  0  0  0  0  0  0  0  0  0
    1.9440    0.3656   -2.7450 H   0  0  0  0  0  0  0  0  0  0  0  0
    2.8908   -1.6900   -2.1400 N   0  0  0  0  0  0  0  0  0  0  0  0
    3.8798   -2.4593   -2.9232 C   0  0  2  0  0  0  0  0  0  0  0  0
    3.3752   -2.9817   -4.2890 C   0  0  0  0  0  0  0  0  0  0  0  0
    4.0102   -2.7222   -5.3031 O   0  0  0  0  0  0  0  0  0  0  0  0
    4.4864   -3.5942   -2.0856 C   0  0  0  0  0  0  0  0  0  0  0  0
    3.2666   -0.8899   -1.6257 H   0  0  0  0  0  0  0  0  0  0  0  0
    4.6966   -1.7678   -3.1552 H   0  0  0  0  0  0  0  0  0  0  0  0
    3.7554   -4.3857   -1.8973 H   0  0  0  0  0  0  0  0  0  0  0  0
    5.3371   -4.0356   -2.6141 H   0  0  0  0  0  0  0  0  0  0  0  0
    4.8379   -3.2089   -1.1234 H   0  0  0  0  0  0  0  0  0  0  0  0
    2.2194   -3.7291   -4.3950 N   0  0  0  0  0  0  0  0  0  0  0  0
    1.6899   -4.2478   -5.6485 C   0  0  0  0  0  0  0  0  0  0  0  0
    1.7143   -3.9029   -3.5219 H   0  0  0  0  0  0  0  0  0  0  0  0
    0.7839   -4.8320   -5.4615 H   0  0  0  0  0  0  0  0  0  0  0  0
    1.4392   -3.4264   -6.3276 H   0  0  0  0  0  0  0  0  0  0  0  0
    2.4255   -4.8970   -6.1348 H   0  0  0  0  0  0  0  0  0  0  0  0
  1  2  2  0  0  0  0
  1  3  1  0  0  0  0
  1  7  1  0  0  0  0
  3  4  1  0  0  0  0
  3  5  1  0  0  0  0
  3  6  1  0  0  0  0
  7  8  1  0  0  0  0
  7 12  1  0  0  0  0
  8  9  1  0  0  0  0
  8 11  1  0  0  0  0
  8 13  1  0  0  0  0
  9 10  2  0  0  0  0
  9 17  1  0  0  0  0
 11 14  1  0  0  0  0
 11 15  1  0  0  0  0
 11 16  1  0  0  0  0
 17 18  1  0  0  0  0
 17 23  1  0  0  0  0
 18 19  1  0  0  0  0
 18 21  1  0  0  0  0
 18 24  1  0  0  0  0
 19 20  2  0  0  0  0
 19 28  1  0  0  0  0
 21 22  1  0  0  0  0
 21 25  1  0  0  0  0
 21 26  1  0  0  0  0
 22 27  1  0  0  0  0
 28 29  1  0  0  0  0
 28 33  1  0  0  0  0
 29 30  1  0  0  0  0
 29 32  1  0  0  0  0
 29 34  1  0  0  0  0
 30 31  2  0  0  0  0
 30 38  1  0  0  0  0
 32 35  1  0  0  0  0
 32 36  1  0  0  0  0
 32 37  1  0  0  0  0
 38 39  1  0  0  0  0
 38 40  1  0  0  0  0
 39 41  1  0  0  0  0
 39 42  1  0  0  0  0
 39 43  1  0  0  0  0
M  END
$$$$

  -OEChem-05262217303D

 43 42  0     1  0  0  0  0  0999 V2000
    3.2036   -1.3932    4.2816 C   0  0  0  0  0  0  0  0  0  0  0  0
    2.0295   -1.6939    4.4311 O   0  0  0  0  0  0  0  0  0  0  0  0
    4.2891   -2.1630    5.0102 C   0  0  0  0  0  0  0  0  0  0  0  0
    4.8839   -1.4810    5.6229 H   0  0  0  0  0  0  0  0  0  0  0  0
    3.8427   -2.9215    5.6596 H   0  0  0  0  0  0  0  0  0  0  0  0
    4.9432   -2.6587    4.2885 H   0  0  0  0  0  0  0  0  0  0  0  0
    3.5459   -0.3725    3.4186 N   0  0  0  0  0  0  0  0  0  0  0  0
    2.5761    0.2399    2.5009 C   0  0  2  0  0  0  0  0  0  0  0  0
    2.4622   -0.5437    1.1762 C   0  0  0  0  0  0  0  0  0  0  0  0
    3.4863   -0.9153    0.6186 O   0  0  0  0  0  0  0  0  0  0  0  0
    3.0201    1.6800    2.2338 C   0  0  0  0  0  0  0  0  0  0  0  0
    4.5292   -0.3138    3.1667 H   0  0  0  0  0  0  0  0  0  0  0  0
    1.5868    0.2724    2.9701 H   0  0  0  0  0  0  0  0  0  0  0  0
    4.0067    1.6979    1.7597 H   0  0  0  0  0  0  0  0  0  0  0  0
    2.3084    2.1805    1.5696 H   0  0  0  0  0  0  0  0  0  0  0  0
    3.0725    2.2415    3.1717 H   0  0  0  0  0  0  0  0  0  0  0  0
    1.2171   -0.7181    0.5950 N   0  0  0  0  0  0  0  0  0  0  0  0
    0.8430   -1.3927   -0.6747 C   0  0  2  0  0  0  0  0  0  0  0  0
    1.8221   -2.3341   -1.4175 C   0  0  0  0  0  0  0  0  0  0  0  0
    1.3712   -3.3910   -1.8409 O   0  0  0  0  0  0  0  0  0  0  0  0
    0.3447   -0.3249   -1.6610 C   0  0  0  0  0  0  0  0  0  0  0  0
    1.3869    0.5809   -2.0463 O   0  0  0  0  0  0  0  0  0  0  0  0
    0.4472   -0.3452    1.1440 H   0  0  0  0  0  0  0  0  0  0  0  0
   -0.0115   -2.0319   -0.4295 H   0  0  0  0  0  0  0  0  0  0  0  0
   -0.4666    0.2444   -1.1956 H   0  0  0  0  0  0  0  0  0  0  0  0
   -0.0649   -0.8097   -2.5541 H   0  0  0  0  0  0  0  0  0  0  0  0
    2.0503    0.1313   -2.6026 H   0  0  0  0  0  0  0  0  0  0  0  0
    3.0520   -1.8912   -1.8768 N   0  0  0  0  0  0  0  0  0  0  0  0
    4.0476   -2.6701   -2.6427 C   0  0  2  0  0  0  0  0  0  0  0  0
    3.6710   -2.9558   -4.1147 C   0  0  0  0  0  0  0  0  0  0  0  0
    4.4995   -2.7637   -4.9950 O   0  0  0  0  0  0  0  0  0  0  0  0
    4.4221   -3.9659   -1.9097 C   0  0  0  0  0  0  0  0  0  0  0  0
    3.4358   -1.1640   -1.2655 H   0  0  0  0  0  0  0  0  0  0  0  0
    4.9540   -2.0572   -2.6832 H   0  0  0  0  0  0  0  0  0  0  0  0
    3.5960   -4.6826   -1.9211 H   0  0  0  0  0  0  0  0  0  0  0  0
    5.2846   -4.4340   -2.3941 H   0  0  0  0  0  0  0  0  0  0  0  0
    4.6836   -3.7505   -0.8691 H   0  0  0  0  0  0  0  0  0  0  0  0
    2.4200   -3.4252   -4.4617 N   0  0  0  0  0  0  0  0  0  0  0  0
    2.0316   -3.7873   -5.8176 C   0  0  0  0  0  0  0  0  0  0  0  0
    1.7919   -3.6407   -3.6829 H   0  0  0  0  0  0  0  0  0  0  0  0
    0.9763   -4.0756   -5.8421 H   0  0  0  0  0  0  0  0  0  0  0  0
    2.1731   -2.9406   -6.4973 H   0  0  0  0  0  0  0  0  0  0  0  0
    2.6316   -4.6307   -6.1745 H   0  0  0  0  0  0  0  0  0  0  0  0
  1  2  2  0  0  0  0
  1  3  1  0  0  0  0
  1  7  1  0  0  0  0
  3  4  1  0  0  0  0
  3  5  1  0  0  0  0
  3  6  1  0  0  0  0
  7  8  1  0  0  0  0
  7 12  1  0  0  0  0
  8  9  1  0  0  0  0
  8 11  1  0  0  0  0
  8 13  1  0  0  0  0
  9 10  2  0  0  0  0
  9 17  1  0  0  0  0
 11 14  1  0  0  0  0
 11 15  1  0  0  0  0
 11 16  1  0  0  0  0
 17 18  1  0  0  0  0
 17 23  1  0  0  0  0
 18 19  1  0  0  0  0
 18 21  1  0  0  0  0
 18 24  1  0  0  0  0
 19 20  2  0  0  0  0
 19 28  1  0  0  0  0
 21 22  1  0  0  0  0
 21 25  1  0  0  0  0
 21 26  1  0  0  0  0
 22 27  1  0  0  0  0
 28 29  1  0  0  0  0
 28 33  1  0  0  0  0
 29 30  1  0  0  0  0
 29 32  1  0  0  0  0
 29 34  1  0  0  0  0
 30 31  2  0  0  0  0
 30 38  1  0  0  0  0
 32 35  1  0  0  0  0
 32 36  1  0  0  0  0
 32 37  1  0  0  0  0
 38 39  1  0  0  0  0
 38 40  1  0  0  0  0
 39 41  1  0  0  0  0
 39 42  1  0  0  0  0
 39 43  1  0  0  0  0
M  END
$$$$

  -OEChem-05262217303D

 43 42  0     1  0  0  0  0  0999 V2000
    3.0219   -0.8228    4.7269 C   0  0  0  0  0  0  0  0  0  0  0  0
    1.8191   -0.8423    4.9356 O   0  0  0  0  0  0  0  0  0  0  0  0
    3.9674   -1.5511    5.6633 C   0  0  0  0  0  0  0  0  0  0  0  0
    4.7036   -0.8528    6.0683 H   0  0  0  0  0  0  0  0  0  0  0  0
    3.4093   -1.9942    6.4928 H   0  0  0  0  0  0  0  0  0  0  0  0
    4.4867   -2.3470    5.1238 H   0  0  0  0  0  0  0  0  0  0  0  0
    3.5234   -0.1647    3.6228 N   0  0  0  0  0  0  0  0  0  0  0  0
    2.6672    0.3255    2.5333 C   0  0  2  0  0  0  0  0  0  0  0  0
    2.5295   -0.7071    1.3946 C   0  0  0  0  0  0  0  0  0  0  0  0
    3.5027   -1.3860    1.0983 O   0  0  0  0  0  0  0  0  0  0  0  0
    3.2764    1.6243    2.0008 C   0  0  0  0  0  0  0  0  0  0  0  0
    4.4898   -0.3755    3.3867 H   0  0  0  0  0  0  0  0  0  0  0  0
    1.6656    0.5522    2.9131 H   0  0  0  0  0  0  0  0  0  0  0  0
    4.2798    1.4439    1.6014 H   0  0  0  0  0  0  0  0  0  0  0  0
    2.6544    2.0364    1.1998 H   0  0  0  0  0  0  0  0  0  0  0  0
    3.3463    2.3669    2.8018 H   0  0  0  0  0  0  0  0  0  0  0  0
    1.3323   -0.7797    0.7022 N   0  0  0  0  0  0  0  0  0  0  0  0
    0.9445   -1.5425   -0.5146 C   0  0  2  0  0  0  0  0  0  0  0  0
    1.7691   -2.7160   -1.0972 C   0  0  0  0  0  0  0  0  0  0  0  0
    1.1509   -3.5655   -1.7286 O   0  0  0  0  0  0  0  0  0  0  0  0
    0.7294   -0.5251   -1.6488 C   0  0  0  0  0  0  0  0  0  0  0  0
    1.9464    0.1361   -2.0192 O   0  0  0  0  0  0  0  0  0  0  0  0
    0.6335   -0.1236    1.0383 H   0  0  0  0  0  0  0  0  0  0  0  0
   -0.0260   -1.9927   -0.2848 H   0  0  0  0  0  0  0  0  0  0  0  0
    0.0056    0.2270   -1.3191 H   0  0  0  0  0  0  0  0  0  0  0  0
    0.3049   -1.0236   -2.5273 H   0  0  0  0  0  0  0  0  0  0  0  0
    2.4408   -0.3999   -2.6910 H   0  0  0  0  0  0  0  0  0  0  0  0
    3.1425   -2.6660   -1.2418 N   0  0  0  0  0  0  0  0  0  0  0  0
    3.8973   -3.2368   -2.3663 C   0  0  2  0  0  0  0  0  0  0  0  0
    3.3753   -2.6973   -3.7205 C   0  0  0  0  0  0  0  0  0  0  0  0
    3.1638   -1.4922   -3.8393 O   0  0  0  0  0  0  0  0  0  0  0  0
    3.9403   -4.7711   -2.2743 C   0  0  0  0  0  0  0  0  0  0  0  0
    3.5909   -1.9361   -0.6822 H   0  0  0  0  0  0  0  0  0  0  0  0
    4.9301   -2.8859   -2.2806 H   0  0  0  0  0  0  0  0  0  0  0  0
    2.9539   -5.2098   -2.4500 H   0  0  0  0  0  0  0  0  0  0  0  0
    4.6362   -5.1767   -3.0147 H   0  0  0  0  0  0  0  0  0  0  0  0
    4.2803   -5.0766   -1.2798 H   0  0  0  0  0  0  0  0  0  0  0  0
    3.1319   -3.5323   -4.7959 N   0  0  0  0  0  0  0  0  0  0  0  0
    2.4976   -3.0721   -6.0249 C   0  0  0  0  0  0  0  0  0  0  0  0
    3.1351   -4.5290   -4.5988 H   0  0  0  0  0  0  0  0  0  0  0  0
    2.4424   -3.8893   -6.7505 H   0  0  0  0  0  0  0  0  0  0  0  0
    1.4813   -2.7184   -5.8210 H   0  0  0  0  0  0  0  0  0  0  0  0
    3.0732   -2.2549   -6.4725 H   0  0  0  0  0  0  0  0  0  0  0  0
  1  2  2  0  0  0  0
  1  3  1  0  0  0  0
  1  7  1  0  0  0  0
  3  4  1  0  0  0  0
  3  5  1  0  0  0  0
  3  6  1  0  0  0  0
  7  8  1  0  0  0  0
  7 12  1  0  0  0  0
  8  9  1  0  0  0  0
  8 11  1  0  0  0  0
  8 13  1  0  0  0  0
  9 10  2  0  0  0  0
  9 17  1  0  0  0  0
 11 14  1  0  0  0  0
 11 15  1  0  0  0  0
 11 16  1  0  0  0  0
 17 18  1  0  0  0  0
 17 23  1  0  0  0  0
 18 19  1  0  0  0  0
 18 21  1  0  0  0  0
 18 24  1  0  0  0  0
 19 20  2  0  0  0  0
 19 28  1  0  0  0  0
 21 22  1  0  0  0  0
 21 25  1  0  0  0  0
 21 26  1  0  0  0  0
 22 27  1  0  0  0  0
 28 29  1  0  0  0  0
 28 33  1  0  0  0  0
 29 30  1  0  0  0  0
 29 32  1  0  0  0  0
 29 34  1  0  0  0  0
 30 31  2  0  0  0  0
 30 38  1  0  0  0  0
 32 35  1  0  0  0  0
 32 36  1  0  0  0  0
 32 37  1  0  0  0  0
 38 39  1  0  0  0  0
 38 40  1  0  0  0  0
 39 41  1  0  0  0  0
 39 42  1  0  0  0  0
 39 43  1  0  0  0  0
M  END
$$$$

  -OEChem-05262217303D

 43 42  0     1  0  0  0  0  0999 V2000
    2.8681   -2.1230    2.6547 C   0  0  0  0  0  0  0  0  0  0  0  0
    1.8683   -1.4875    2.9617 O   0  0  0  0  0  0  0  0  0  0  0  0
    3.0069   -3.5825    3.0431 C   0  0  0  0  0  0  0  0  0  0  0  0
    2.1412   -3.9011    3.6306 H   0  0  0  0  0  0  0  0  0  0  0  0
    3.0753   -4.2054    2.1479 H   0  0  0  0  0  0  0  0  0  0  0  0
    3.9100   -3.7235    3.6420 H   0  0  0  0  0  0  0  0  0  0  0  0
    3.8256   -1.5211    1.8673 N   0  0  0  0  0  0  0  0  0  0  0  0
    3.6877   -0.1570    1.3455 C   0  0  2  0  0  0  0  0  0  0  0  0
    2.6515   -0.0982    0.2001 C   0  0  0  0  0  0  0  0  0  0  0  0
    2.9731    0.0728   -0.9691 O   0  0  0  0  0  0  0  0  0  0  0  0
    5.0810    0.3210    0.9240 C   0  0  0  0  0  0  0  0  0  0  0  0
    4.5075   -2.1393    1.4162 H   0  0  0  0  0  0  0  0  0  0  0  0
    3.3398    0.5094    2.1421 H   0  0  0  0  0  0  0  0  0  0  0  0
    5.5026   -0.3424    0.1640 H   0  0  0  0  0  0  0  0  0  0  0  0
    5.0278    1.3335    0.5117 H   0  0  0  0  0  0  0  0  0  0  0  0
    5.7554    0.3333    1.7856 H   0  0  0  0  0  0  0  0  0  0  0  0
    1.3076    0.0310    0.4719 N   0  0  0  0  0  0  0  0  0  0  0  0
    0.2254   -0.7201   -0.2152 C   0  0  2  0  0  0  0  0  0  0  0  0
    0.4782   -1.9911   -1.0732 C   0  0  0  0  0  0  0  0  0  0  0  0
   -0.4693   -2.7198   -1.3213 O   0  0  0  0  0  0  0  0  0  0  0  0
   -0.4339    0.3019   -1.1519 C   0  0  0  0  0  0  0  0  0  0  0  0
    0.4939    0.6970   -2.1713 O   0  0  0  0  0  0  0  0  0  0  0  0
    1.1668    0.0516    1.4843 H   0  0  0  0  0  0  0  0  0  0  0  0
   -0.5004   -1.0211    0.5464 H   0  0  0  0  0  0  0  0  0  0  0  0
   -0.7393    1.1819   -0.5761 H   0  0  0  0  0  0  0  0  0  0  0  0
   -1.3343   -0.1194   -1.6120 H   0  0  0  0  0  0  0  0  0  0  0  0
    1.4070    0.7135   -1.8008 H   0  0  0  0  0  0  0  0  0  0  0  0
    1.5871   -2.3431   -1.8080 N   0  0  0  0  0  0  0  0  0  0  0  0
    2.5563   -3.2064   -1.1093 C   0  0  2  0  0  0  0  0  0  0  0  0
    4.0349   -2.8072   -1.2857 C   0  0  0  0  0  0  0  0  0  0  0  0
    4.8339   -3.0838   -0.3950 O   0  0  0  0  0  0  0  0  0  0  0  0
    2.3526   -4.6386   -1.6130 C   0  0  0  0  0  0  0  0  0  0  0  0
    1.2619   -2.7636   -2.6749 H   0  0  0  0  0  0  0  0  0  0  0  0
    2.3520   -3.1921   -0.0341 H   0  0  0  0  0  0  0  0  0  0  0  0
    2.5636   -4.7050   -2.6852 H   0  0  0  0  0  0  0  0  0  0  0  0
    3.0220   -5.3253   -1.0849 H   0  0  0  0  0  0  0  0  0  0  0  0
    1.3215   -4.9632   -1.4391 H   0  0  0  0  0  0  0  0  0  0  0  0
    4.4546   -2.1692   -2.4359 N   0  0  0  0  0  0  0  0  0  0  0  0
    5.8137   -1.6830   -2.6331 C   0  0  0  0  0  0  0  0  0  0  0  0
    3.7095   -1.7255   -2.9694 H   0  0  0  0  0  0  0  0  0  0  0  0
    5.9786   -0.7648   -2.0622 H   0  0  0  0  0  0  0  0  0  0  0  0
    6.5467   -2.4328   -2.3171 H   0  0  0  0  0  0  0  0  0  0  0  0
    5.9837   -1.4678   -3.6924 H   0  0  0  0  0  0  0  0  0  0  0  0
  1  2  2  0  0  0  0
  1  3  1  0  0  0  0
  1  7  1  0  0  0  0
  3  4  1  0  0  0  0
  3  5  1  0  0  0  0
  3  6  1  0  0  0  0
  7  8  1  0  0  0  0
  7 12  1  0  0  0  0
  8  9  1  0  0  0  0
  8 11  1  0  0  0  0
  8 13  1  0  0  0  0
  9 10  2  0  0  0  0
  9 17  1  0  0  0  0
 11 14  1  0  0  0  0
 11 15  1  0  0  0  0
 11 16  1  0  0  0  0
 17 18  1  0  0  0  0
 17 23  1  0  0  0  0
 18 19  1  0  0  0  0
 18 21  1  0  0  0  0
 18 24  1  0  0  0  0
 19 20  2  0  0  0  0
 19 28  1  0  0  0  0
 21 22  1  0  0  0  0
 21 25  1  0  0  0  0
 21 26  1  0  0  0  0
 22 27  1  0  0  0  0
 28 29  1  0  0  0  0
 28 33  1  0  0  0  0
 29 30  1  0  0  0  0
 29 32  1  0  0  0  0
 29 34  1  0  0  0  0
 30 31  2  0  0  0  0
 30 38  1  0  0  0  0
 32 35  1  0  0  0  0
 32 36  1  0  0  0  0
 32 37  1  0  0  0  0
 38 39  1  0  0  0  0
 38 40  1  0  0  0  0
 39 41  1  0  0  0  0
 39 42  1  0  0  0  0
 39 43  1  0  0  0  0
M  END
$$$$

  -OEChem-05262217303D

 43 42  0     1  0  0  0  0  0999 V2000
    3.2954   -0.1042    3.6491 C   0  0  0  0  0  0  0  0  0  0  0  0
    2.5659    0.6277    2.9974 O   0  0  0  0  0  0  0  0  0  0  0  0
    3.1412   -0.1989    5.1551 C   0  0  0  0  0  0  0  0  0  0  0  0
    4.0748    0.0876    5.6455 H   0  0  0  0  0  0  0  0  0  0  0  0
    2.3459    0.4706    5.4951 H   0  0  0  0  0  0  0  0  0  0  0  0
    2.8855   -1.2217    5.4421 H   0  0  0  0  0  0  0  0  0  0  0  0
    4.2266   -0.8848    2.9949 N   0  0  0  0  0  0  0  0  0  0  0  0
    4.4442   -0.8608    1.5394 C   0  0  2  0  0  0  0  0  0  0  0  0
    3.3681   -1.6619    0.7631 C   0  0  0  0  0  0  0  0  0  0  0  0
    3.6866   -2.6611    0.1392 O   0  0  0  0  0  0  0  0  0  0  0  0
    5.8733   -1.3582    1.2835 C   0  0  0  0  0  0  0  0  0  0  0  0
    4.7615   -1.5418    3.5561 H   0  0  0  0  0  0  0  0  0  0  0  0
    4.3890    0.1733    1.1811 H   0  0  0  0  0  0  0  0  0  0  0  0
    5.9896   -2.3926    1.6229 H   0  0  0  0  0  0  0  0  0  0  0  0
    6.1032   -1.3167    0.2140 H   0  0  0  0  0  0  0  0  0  0  0  0
    6.5962   -0.7314    1.8148 H   0  0  0  0  0  0  0  0  0  0  0  0
    2.0699   -1.1916    0.8223 N   0  0  0  0  0  0  0  0  0  0  0  0
    0.8051   -1.5840    0.1495 C   0  0  2  0  0  0  0  0  0  0  0  0
    0.5140   -2.9005   -0.6286 C   0  0  0  0  0  0  0  0  0  0  0  0
   -0.6535   -3.2594   -0.6667 O   0  0  0  0  0  0  0  0  0  0  0  0
    0.3402   -0.3733   -0.6801 C   0  0  0  0  0  0  0  0  0  0  0  0
    1.2258   -0.0557   -1.7590 O   0  0  0  0  0  0  0  0  0  0  0  0
    1.9989   -0.3518    1.4049 H   0  0  0  0  0  0  0  0  0  0  0  0
    0.0980   -1.6653    0.9803 H   0  0  0  0  0  0  0  0  0  0  0  0
    0.2647    0.4995   -0.0237 H   0  0  0  0  0  0  0  0  0  0  0  0
   -0.6606   -0.5630   -1.0826 H   0  0  0  0  0  0  0  0  0  0  0  0
    1.2504   -0.7780   -2.4363 H   0  0  0  0  0  0  0  0  0  0  0  0
    1.3109   -3.9914   -0.8864 N   0  0  0  0  0  0  0  0  0  0  0  0
    2.2551   -4.0381   -2.0180 C   0  0  2  0  0  0  0  0  0  0  0  0
    2.5508   -2.7053   -2.7467 C   0  0  0  0  0  0  0  0  0  0  0  0
    1.6731   -2.1222   -3.3766 O   0  0  0  0  0  0  0  0  0  0  0  0
    1.6951   -5.0542   -3.0193 C   0  0  0  0  0  0  0  0  0  0  0  0
    0.7119   -4.8110   -0.8544 H   0  0  0  0  0  0  0  0  0  0  0  0
    3.2096   -4.4225   -1.6459 H   0  0  0  0  0  0  0  0  0  0  0  0
    0.7198   -4.7261   -3.3952 H   0  0  0  0  0  0  0  0  0  0  0  0
    2.3749   -5.1642   -3.8700 H   0  0  0  0  0  0  0  0  0  0  0  0
    1.5746   -6.0329   -2.5451 H   0  0  0  0  0  0  0  0  0  0  0  0
    3.8228   -2.1692   -2.7080 N   0  0  0  0  0  0  0  0  0  0  0  0
    4.1569   -0.8645   -3.2677 C   0  0  0  0  0  0  0  0  0  0  0  0
    4.3989   -2.5220   -1.9435 H   0  0  0  0  0  0  0  0  0  0  0  0
    3.7673   -0.7673   -4.2867 H   0  0  0  0  0  0  0  0  0  0  0  0
    3.7367   -0.0629   -2.6521 H   0  0  0  0  0  0  0  0  0  0  0  0
    5.2432   -0.7399   -3.3066 H   0  0  0  0  0  0  0  0  0  0  0  0
  1  2  2  0  0  0  0
  1  3  1  0  0  0  0
  1  7  1  0  0  0  0
  3  4  1  0  0  0  0
  3  5  1  0  0  0  0
  3  6  1  0  0  0  0
  7  8  1  0  0  0  0
  7 12  1  0  0  0  0
  8  9  1  0  0  0  0
  8 11  1  0  0  0  0
  8 13  1  0  0  0  0
  9 10  2  0  0  0  0
  9 17  1  0  0  0  0
 11 14  1  0  0  0  0
 11 15  1  0  0  0  0
 11 16  1  0  0  0  0
 17 18  1  0  0  0  0
 17 23  1  0  0  0  0
 18 19  1  0  0  0  0
 18 21  1  0  0  0  0
 18 24  1  0  0  0  0
 19 20  2  0  0  0  0
 19 28  1  0  0  0  0
 21 22  1  0  0  0  0
 21 25  1  0  0  0  0
 21 26  1  0  0  0  0
 22 27  1  0  0  0  0
 28 29  1  0  0  0  0
 28 33  1  0  0  0  0
 29 30  1  0  0  0  0
 29 32  1  0  0  0  0
 29 34  1  0  0  0  0
 30 31  2  0  0  0  0
 30 38  1  0  0  0  0
 32 35  1  0  0  0  0
 32 36  1  0  0  0  0
 32 37  1  0  0  0  0
 38 39  1  0  0  0  0
 38 40  1  0  0  0  0
 39 41  1  0  0  0  0
 39 42  1  0  0  0  0
 39 43  1  0  0  0  0
M  END
$$$$

  -OEChem-05262217303D

 43 42  0     1  0  0  0  0  0999 V2000
    3.2387   -0.6878    4.7418 C   0  0  0  0  0  0  0  0  0  0  0  0
    2.1774   -0.1870    5.0795 O   0  0  0  0  0  0  0  0  0  0  0  0
    4.0187   -1.5457    5.7198 C   0  0  0  0  0  0  0  0  0  0  0  0
    5.0069   -1.1120    5.8905 H   0  0  0  0  0  0  0  0  0  0  0  0
    3.4902   -1.6047    6.6753 H   0  0  0  0  0  0  0  0  0  0  0  0
    4.1354   -2.5556    5.3193 H   0  0  0  0  0  0  0  0  0  0  0  0
    3.7243   -0.4958    3.4649 N   0  0  0  0  0  0  0  0  0  0  0  0
    2.9234    0.0981    2.3845 C   0  0  2  0  0  0  0  0  0  0  0  0
    2.2470   -0.9665    1.4945 C   0  0  0  0  0  0  0  0  0  0  0  0
    2.7678   -2.0680    1.3896 O   0  0  0  0  0  0  0  0  0  0  0  0
    3.8522    0.9716    1.5383 C   0  0  0  0  0  0  0  0  0  0  0  0
    4.4837   -1.1116    3.1850 H   0  0  0  0  0  0  0  0  0  0  0  0
    2.1406    0.7393    2.8027 H   0  0  0  0  0  0  0  0  0  0  0  0
    4.6363    0.3640    1.0751 H   0  0  0  0  0  0  0  0  0  0  0  0
    3.2889    1.4703    0.7431 H   0  0  0  0  0  0  0  0  0  0  0  0
    4.3242    1.7381    2.1604 H   0  0  0  0  0  0  0  0  0  0  0  0
    1.0737   -0.6301    0.8383 N   0  0  0  0  0  0  0  0  0  0  0  0
    0.4820   -1.1435   -0.4298 C   0  0  2  0  0  0  0  0  0  0  0  0
    0.9006   -2.4400   -1.1763 C   0  0  0  0  0  0  0  0  0  0  0  0
    0.4623   -2.6180   -2.3079 O   0  0  0  0  0  0  0  0  0  0  0  0
    0.7406    0.0222   -1.4101 C   0  0  0  0  0  0  0  0  0  0  0  0
    2.1510    0.1983   -1.6374 O   0  0  0  0  0  0  0  0  0  0  0  0
    0.7765    0.3140    1.0674 H   0  0  0  0  0  0  0  0  0  0  0  0
   -0.5936   -1.2514   -0.2671 H   0  0  0  0  0  0  0  0  0  0  0  0
    0.3265    0.9482   -0.9979 H   0  0  0  0  0  0  0  0  0  0  0  0
    0.2325   -0.1500   -2.3650 H   0  0  0  0  0  0  0  0  0  0  0  0
    2.5790   -0.6244   -1.9800 H   0  0  0  0  0  0  0  0  0  0  0  0
    1.6715   -3.4517   -0.6391 N   0  0  0  0  0  0  0  0  0  0  0  0
    2.5892   -4.2368   -1.4855 C   0  0  2  0  0  0  0  0  0  0  0  0
    3.4249   -3.3665   -2.4708 C   0  0  0  0  0  0  0  0  0  0  0  0
    3.6287   -2.1727   -2.2495 O   0  0  0  0  0  0  0  0  0  0  0  0
    1.8200   -5.3680   -2.1885 C   0  0  0  0  0  0  0  0  0  0  0  0
    2.0430   -3.2043    0.2800 H   0  0  0  0  0  0  0  0  0  0  0  0
    3.3145   -4.7087   -0.8161 H   0  0  0  0  0  0  0  0  0  0  0  0
    1.1875   -4.9754   -2.9905 H   0  0  0  0  0  0  0  0  0  0  0  0
    2.5146   -6.0941   -2.6204 H   0  0  0  0  0  0  0  0  0  0  0  0
    1.1812   -5.8916   -1.4703 H   0  0  0  0  0  0  0  0  0  0  0  0
    4.0113   -3.9334   -3.5888 N   0  0  0  0  0  0  0  0  0  0  0  0
    4.7539   -3.1625   -4.5790 C   0  0  0  0  0  0  0  0  0  0  0  0
    3.7502   -4.8890   -3.8111 H   0  0  0  0  0  0  0  0  0  0  0  0
    4.0999   -2.4281   -5.0610 H   0  0  0  0  0  0  0  0  0  0  0  0
    5.5898   -2.6352   -4.1070 H   0  0  0  0  0  0  0  0  0  0  0  0
    5.1581   -3.8262   -5.3494 H   0  0  0  0  0  0  0  0  0  0  0  0
  1  2  2  0  0  0  0
  1  3  1  0  0  0  0
  1  7  1  0  0  0  0
  3  4  1  0  0  0  0
  3  5  1  0  0  0  0
  3  6  1  0  0  0  0
  7  8  1  0  0  0  0
  7 12  1  0  0  0  0
  8  9  1  0  0  0  0
  8 11  1  0  0  0  0
  8 13  1  0  0  0  0
  9 10  2  0  0  0  0
  9 17  1  0  0  0  0
 11 14  1  0  0  0  0
 11 15  1  0  0  0  0
 11 16  1  0  0  0  0
 17 18  1  0  0  0  0
 17 23  1  0  0  0  0
 18 19  1  0  0  0  0
 18 21  1  0  0  0  0
 18 24  1  0  0  0  0
 19 20  2  0  0  0  0
 19 28  1  0  0  0  0
 21 22  1  0  0  0  0
 21 25  1  0  0  0  0
 21 26  1  0  0  0  0
 22 27  1  0  0  0  0
 28 29  1  0  0  0  0
 28 33  1  0  0  0  0
 29 30  1  0  0  0  0
 29 32  1  0  0  0  0
 29 34  1  0  0  0  0
 30 31  2  0  0  0  0
 30 38  1  0  0  0  0
 32 35  1  0  0  0  0
 32 36  1  0  0  0  0
 32 37  1  0  0  0  0
 38 39  1  0  0  0  0
 38 40  1  0  0  0  0
 39 41  1  0  0  0  0
 39 42  1  0  0  0  0
 39 43  1  0  0  0  0
M  END
$$$$

  -OEChem-05262217303D

 43 42  0     1  0  0  0  0  0999 V2000
    2.1873   -0.1997    4.1648 C   0  0  0  0  0  0  0  0  0  0  0  0
    1.2591    0.2735    3.5261 O   0  0  0  0  0  0  0  0  0  0  0  0
    1.9762   -0.6779    5.5888 C   0  0  0  0  0  0  0  0  0  0  0  0
    2.5966   -0.0959    6.2748 H   0  0  0  0  0  0  0  0  0  0  0  0
    0.9275   -0.5572    5.8754 H   0  0  0  0  0  0  0  0  0  0  0  0
    2.2446   -1.7339    5.6731 H   0  0  0  0  0  0  0  0  0  0  0  0
    3.4196   -0.3435    3.5606 N   0  0  0  0  0  0  0  0  0  0  0  0
    3.7382    0.1430    2.2085 C   0  0  2  0  0  0  0  0  0  0  0  0
    3.1811   -0.7748    1.0910 C   0  0  0  0  0  0  0  0  0  0  0  0
    3.9366   -1.3674    0.3360 O   0  0  0  0  0  0  0  0  0  0  0  0
    5.2607    0.3179    2.1375 C   0  0  0  0  0  0  0  0  0  0  0  0
    4.1620   -0.7679    4.1100 H   0  0  0  0  0  0  0  0  0  0  0  0
    3.2864    1.1307    2.0622 H   0  0  0  0  0  0  0  0  0  0  0  0
    5.7677   -0.6428    2.2748 H   0  0  0  0  0  0  0  0  0  0  0  0
    5.5500    0.7253    1.1633 H   0  0  0  0  0  0  0  0  0  0  0  0
    5.6023    1.0096    2.9136 H   0  0  0  0  0  0  0  0  0  0  0  0
    1.8079   -0.8902    0.9676 N   0  0  0  0  0  0  0  0  0  0  0  0
    0.9567   -1.5772   -0.0397 C   0  0  2  0  0  0  0  0  0  0  0  0
    1.5180   -2.6334   -1.0363 C   0  0  0  0  0  0  0  0  0  0  0  0
    0.9261   -2.8319   -2.0917 O   0  0  0  0  0  0  0  0  0  0  0  0
    0.2329   -0.4536   -0.8083 C   0  0  0  0  0  0  0  0  0  0  0  0
    1.1562    0.3391   -1.5654 O   0  0  0  0  0  0  0  0  0  0  0  0
    1.3063   -0.3412    1.6734 H   0  0  0  0  0  0  0  0  0  0  0  0
    0.2016   -2.1304    0.5251 H   0  0  0  0  0  0  0  0  0  0  0  0
   -0.2853    0.1940   -0.0933 H   0  0  0  0  0  0  0  0  0  0  0  0
   -0.5311   -0.8705   -1.4729 H   0  0  0  0  0  0  0  0  0  0  0  0
    1.5662   -0.1971   -2.2685 H   0  0  0  0  0  0  0  0  0  0  0  0
    2.5934   -3.4485   -0.7296 N   0  0  0  0  0  0  0  0  0  0  0  0
    3.1452   -4.5680   -1.5225 C   0  0  2  0  0  0  0  0  0  0  0  0
    3.7987   -4.1759   -2.8681 C   0  0  0  0  0  0  0  0  0  0  0  0
    4.8679   -4.6805   -3.1868 O   0  0  0  0  0  0  0  0  0  0  0  0
    2.0978   -5.6706   -1.7304 C   0  0  0  0  0  0  0  0  0  0  0  0
    3.2239   -3.0273   -0.0428 H   0  0  0  0  0  0  0  0  0  0  0  0
    3.9473   -5.0050   -0.9191 H   0  0  0  0  0  0  0  0  0  0  0  0
    1.3115   -5.3469   -2.4183 H   0  0  0  0  0  0  0  0  0  0  0  0
    2.5731   -6.5616   -2.1526 H   0  0  0  0  0  0  0  0  0  0  0  0
    1.6378   -5.9430   -0.7760 H   0  0  0  0  0  0  0  0  0  0  0  0
    3.1728   -3.3163   -3.7487 N   0  0  0  0  0  0  0  0  0  0  0  0
    3.6825   -2.9942   -5.0740 C   0  0  0  0  0  0  0  0  0  0  0  0
    2.2318   -3.0170   -3.4834 H   0  0  0  0  0  0  0  0  0  0  0  0
    4.7040   -2.6050   -5.0077 H   0  0  0  0  0  0  0  0  0  0  0  0
    3.6849   -3.8857   -5.7095 H   0  0  0  0  0  0  0  0  0  0  0  0
    3.0543   -2.2323   -5.5451 H   0  0  0  0  0  0  0  0  0  0  0  0
  1  2  2  0  0  0  0
  1  3  1  0  0  0  0
  1  7  1  0  0  0  0
  3  4  1  0  0  0  0
  3  5  1  0  0  0  0
  3  6  1  0  0  0  0
  7  8  1  0  0  0  0
  7 12  1  0  0  0  0
  8  9  1  0  0  0  0
  8 11  1  0  0  0  0
  8 13  1  0  0  0  0
  9 10  2  0  0  0  0
  9 17  1  0  0  0  0
 11 14  1  0  0  0  0
 11 15  1  0  0  0  0
 11 16  1  0  0  0  0
 17 18  1  0  0  0  0
 17 23  1  0  0  0  0
 18 19  1  0  0  0  0
 18 21  1  0  0  0  0
 18 24  1  0  0  0  0
 19 20  2  0  0  0  0
 19 28  1  0  0  0  0
 21 22  1  0  0  0  0
 21 25  1  0  0  0  0
 21 26  1  0  0  0  0
 22 27  1  0  0  0  0
 28 29  1  0  0  0  0
 28 33  1  0  0  0  0
 29 30  1  0  0  0  0
 29 32  1  0  0  0  0
 29 34  1  0  0  0  0
 30 31  2  0  0  0  0
 30 38  1  0  0  0  0
 32 35  1  0  0  0  0
 32 36  1  0  0  0  0
 32 37  1  0  0  0  0
 38 39  1  0  0  0  0
 38 40  1  0  0  0  0
 39 41  1  0  0  0  0
 39 42  1  0  0  0  0
 39 43  1  0  0  0  0
M  END
$$$$

  -OEChem-05262217303D

 43 42  0     1  0  0  0  0  0999 V2000
    3.6270   -0.6639    4.6163 C   0  0  0  0  0  0  0  0  0  0  0  0
    2.9116    0.1519    5.1759 O   0  0  0  0  0  0  0  0  0  0  0  0
    4.5370   -1.5654    5.4294 C   0  0  0  0  0  0  0  0  0  0  0  0
    5.5799   -1.3884    5.1552 H   0  0  0  0  0  0  0  0  0  0  0  0
    4.4137   -1.3611    6.4967 H   0  0  0  0  0  0  0  0  0  0  0  0
    4.2912   -2.6133    5.2411 H   0  0  0  0  0  0  0  0  0  0  0  0
    3.5989   -0.7770    3.2423 N   0  0  0  0  0  0  0  0  0  0  0  0
    2.6479   -0.0724    2.3712 C   0  0  2  0  0  0  0  0  0  0  0  0
    2.1360   -0.9730    1.2274 C   0  0  0  0  0  0  0  0  0  0  0  0
    2.7239   -2.0151    0.9771 O   0  0  0  0  0  0  0  0  0  0  0  0
    3.3507    1.1634    1.8025 C   0  0  0  0  0  0  0  0  0  0  0  0
    4.1101   -1.5570    2.8305 H   0  0  0  0  0  0  0  0  0  0  0  0
    1.7747    0.2459    2.9507 H   0  0  0  0  0  0  0  0  0  0  0  0
    4.2257    0.8696    1.2135 H   0  0  0  0  0  0  0  0  0  0  0  0
    2.6734    1.7311    1.1569 H   0  0  0  0  0  0  0  0  0  0  0  0
    3.6813    1.8174    2.6158 H   0  0  0  0  0  0  0  0  0  0  0  0
    1.0010   -0.6004    0.5254 N   0  0  0  0  0  0  0  0  0  0  0  0
    0.5338   -1.0506   -0.8130 C   0  0  2  0  0  0  0  0  0  0  0  0
    1.1248   -2.3136   -1.5050 C   0  0  0  0  0  0  0  0  0  0  0  0
    1.3569   -2.2943   -2.7097 O   0  0  0  0  0  0  0  0  0  0  0  0
    0.6321    0.1814   -1.7324 C   0  0  0  0  0  0  0  0  0  0  0  0
    1.9973    0.5706   -1.9128 O   0  0  0  0  0  0  0  0  0  0  0  0
    0.6434    0.3068    0.8135 H   0  0  0  0  0  0  0  0  0  0  0  0
   -0.5274   -1.2910   -0.7041 H   0  0  0  0  0  0  0  0  0  0  0  0
    0.0785    1.0141   -1.2866 H   0  0  0  0  0  0  0  0  0  0  0  0
    0.1716   -0.0265   -2.7045 H   0  0  0  0  0  0  0  0  0  0  0  0
    2.4650   -0.1107   -2.4338 H   0  0  0  0  0  0  0  0  0  0  0  0
    1.3156   -3.4928   -0.8049 N   0  0  0  0  0  0  0  0  0  0  0  0
    1.8016   -4.7854   -1.3323 C   0  0  2  0  0  0  0  0  0  0  0  0
    3.2707   -4.7903   -1.8156 C   0  0  0  0  0  0  0  0  0  0  0  0
    4.0214   -5.6878   -1.4552 O   0  0  0  0  0  0  0  0  0  0  0  0
    0.8657   -5.3315   -2.4196 C   0  0  0  0  0  0  0  0  0  0  0  0
    1.4885   -3.3266    0.1891 H   0  0  0  0  0  0  0  0  0  0  0  0
    1.7609   -5.4936   -0.4986 H   0  0  0  0  0  0  0  0  0  0  0  0
    0.9316   -4.7392   -3.3366 H   0  0  0  0  0  0  0  0  0  0  0  0
    1.1370   -6.3637   -2.6623 H   0  0  0  0  0  0  0  0  0  0  0  0
   -0.1705   -5.3194   -2.0689 H   0  0  0  0  0  0  0  0  0  0  0  0
    3.7431   -3.8283   -2.6857 N   0  0  0  0  0  0  0  0  0  0  0  0
    5.0987   -3.7993   -3.2162 C   0  0  0  0  0  0  0  0  0  0  0  0
    3.0618   -3.1324   -2.9959 H   0  0  0  0  0  0  0  0  0  0  0  0
    5.8268   -3.7328   -2.4010 H   0  0  0  0  0  0  0  0  0  0  0  0
    5.3013   -4.7044   -3.7980 H   0  0  0  0  0  0  0  0  0  0  0  0
    5.2294   -2.9309   -3.8691 H   0  0  0  0  0  0  0  0  0  0  0  0
  1  2  2  0  0  0  0
  1  3  1  0  0  0  0
  1  7  1  0  0  0  0
  3  4  1  0  0  0  0
  3  5  1  0  0  0  0
  3  6  1  0  0  0  0
  7  8  1  0  0  0  0
  7 12  1  0  0  0  0
  8  9  1  0  0  0  0
  8 11  1  0  0  0  0
  8 13  1  0  0  0  0
  9 10  2  0  0  0  0
  9 17  1  0  0  0  0
 11 14  1  0  0  0  0
 11 15  1  0  0  0  0
 11 16  1  0  0  0  0
 17 18  1  0  0  0  0
 17 23  1  0  0  0  0
 18 19  1  0  0  0  0
 18 21  1  0  0  0  0
 18 24  1  0  0  0  0
 19 20  2  0  0  0  0
 19 28  1  0  0  0  0
 21 22  1  0  0  0  0
 21 25  1  0  0  0  0
 21 26  1  0  0  0  0
 22 27  1  0  0  0  0
 28 29  1  0  0  0  0
 28 33  1  0  0  0  0
 29 30  1  0  0  0  0
 29 32  1  0  0  0  0
 29 34  1  0  0  0  0
 30 31  2  0  0  0  0
 30 38  1  0  0  0  0
 32 35  1  0  0  0  0
 32 36  1  0  0  0  0
 32 37  1  0  0  0  0
 38 39  1  0  0  0  0
 38 40  1  0  0  0  0
 39 41  1  0  0  0  0
 39 42  1  0  0  0  0
 39 43  1  0  0  0  0
M  END
$$$$

  -OEChem-05262217303D

 43 42  0     1  0  0  0  0  0999 V2000
    3.7927   -0.8056    4.4229 C   0  0  0  0  0  0  0  0  0  0  0  0
    3.2077    0.0972    5.0003 O   0  0  0  0  0  0  0  0  0  0  0  0
    4.6559   -1.7781    5.2047 C   0  0  0  0  0  0  0  0  0  0  0  0
    5.6908   -1.7214    4.8583 H   0  0  0  0  0  0  0  0  0  0  0  0
    4.6273   -1.5346    6.2706 H   0  0  0  0  0  0  0  0  0  0  0  0
    4.2884   -2.7981    5.0669 H   0  0  0  0  0  0  0  0  0  0  0  0
    3.6565   -0.9524    3.0588 N   0  0  0  0  0  0  0  0  0  0  0  0
    2.7318   -0.1686    2.2289 C   0  0  2  0  0  0  0  0  0  0  0  0
    2.0754   -1.0293    1.1303 C   0  0  0  0  0  0  0  0  0  0  0  0
    2.5566   -2.1181    0.8493 O   0  0  0  0  0  0  0  0  0  0  0  0
    3.5165    0.9864    1.6002 C   0  0  0  0  0  0  0  0  0  0  0  0
    4.0536   -1.7924    2.6388 H   0  0  0  0  0  0  0  0  0  0  0  0
    1.9262    0.2388    2.8492 H   0  0  0  0  0  0  0  0  0  0  0  0
    4.3229    0.6017    0.9674 H   0  0  0  0  0  0  0  0  0  0  0  0
    2.8608    1.6098    0.9846 H   0  0  0  0  0  0  0  0  0  0  0  0
    3.9561    1.6146    2.3814 H   0  0  0  0  0  0  0  0  0  0  0  0
    0.9257   -0.5754    0.5044 N   0  0  0  0  0  0  0  0  0  0  0  0
    0.4096   -0.9686   -0.8311 C   0  0  2  0  0  0  0  0  0  0  0  0
    0.9728   -2.2335   -1.5371 C   0  0  0  0  0  0  0  0  0  0  0  0
    1.4634   -2.1532   -2.6599 O   0  0  0  0  0  0  0  0  0  0  0  0
    0.5372    0.2753   -1.7285 C   0  0  0  0  0  0  0  0  0  0  0  0
    1.9134    0.6075   -1.9332 O   0  0  0  0  0  0  0  0  0  0  0  0
    0.6575    0.3583    0.8053 H   0  0  0  0  0  0  0  0  0  0  0  0
   -0.6576   -1.1763   -0.7121 H   0  0  0  0  0  0  0  0  0  0  0  0
    0.0261    1.1230   -1.2606 H   0  0  0  0  0  0  0  0  0  0  0  0
    0.0529    0.0945   -2.6944 H   0  0  0  0  0  0  0  0  0  0  0  0
    2.3428   -0.1162   -2.4339 H   0  0  0  0  0  0  0  0  0  0  0  0
    0.8516   -3.4706   -0.9252 N   0  0  0  0  0  0  0  0  0  0  0  0
    1.3143   -4.7730   -1.4494 C   0  0  2  0  0  0  0  0  0  0  0  0
    2.8494   -4.9211   -1.5683 C   0  0  0  0  0  0  0  0  0  0  0  0
    3.4001   -5.9002   -1.0805 O   0  0  0  0  0  0  0  0  0  0  0  0
    0.6269   -5.1224   -2.7768 C   0  0  0  0  0  0  0  0  0  0  0  0
    0.7994   -3.3979    0.0902 H   0  0  0  0  0  0  0  0  0  0  0  0
    0.9961   -5.5293   -0.7245 H   0  0  0  0  0  0  0  0  0  0  0  0
    0.9785   -4.4807   -3.5896 H   0  0  0  0  0  0  0  0  0  0  0  0
    0.8440   -6.1607   -3.0466 H   0  0  0  0  0  0  0  0  0  0  0  0
   -0.4572   -5.0083   -2.6850 H   0  0  0  0  0  0  0  0  0  0  0  0
    3.6070   -3.9901   -2.2498 N   0  0  0  0  0  0  0  0  0  0  0  0
    5.0574   -4.0392   -2.3603 C   0  0  0  0  0  0  0  0  0  0  0  0
    3.0997   -3.1809   -2.6131 H   0  0  0  0  0  0  0  0  0  0  0  0
    5.5182   -3.9650   -1.3698 H   0  0  0  0  0  0  0  0  0  0  0  0
    5.3745   -4.9765   -2.8292 H   0  0  0  0  0  0  0  0  0  0  0  0
    5.4166   -3.2074   -2.9740 H   0  0  0  0  0  0  0  0  0  0  0  0
  1  2  2  0  0  0  0
  1  3  1  0  0  0  0
  1  7  1  0  0  0  0
  3  4  1  0  0  0  0
  3  5  1  0  0  0  0
  3  6  1  0  0  0  0
  7  8  1  0  0  0  0
  7 12  1  0  0  0  0
  8  9  1  0  0  0  0
  8 11  1  0  0  0  0
  8 13  1  0  0  0  0
  9 10  2  0  0  0  0
  9 17  1  0  0  0  0
 11 14  1  0  0  0  0
 11 15  1  0  0  0  0
 11 16  1  0  0  0  0
 17 18  1  0  0  0  0
 17 23  1  0  0  0  0
 18 19  1  0  0  0  0
 18 21  1  0  0  0  0
 18 24  1  0  0  0  0
 19 20  2  0  0  0  0
 19 28  1  0  0  0  0
 21 22  1  0  0  0  0
 21 25  1  0  0  0  0
 21 26  1  0  0  0  0
 22 27  1  0  0  0  0
 28 29  1  0  0  0  0
 28 33  1  0  0  0  0
 29 30  1  0  0  0  0
 29 32  1  0  0  0  0
 29 34  1  0  0  0  0
 30 31  2  0  0  0  0
 30 38  1  0  0  0  0
 32 35  1  0  0  0  0
 32 36  1  0  0  0  0
 32 37  1  0  0  0  0
 38 39  1  0  0  0  0
 38 40  1  0  0  0  0
 39 41  1  0  0  0  0
 39 42  1  0  0  0  0
 39 43  1  0  0  0  0
M  END
$$$$

  -OEChem-05262217303D

 43 42  0     1  0  0  0  0  0999 V2000
    3.9230   -0.9522    4.2866 C   0  0  0  0  0  0  0  0  0  0  0  0
    3.4169   -0.0269    4.9017 O   0  0  0  0  0  0  0  0  0  0  0  0
    4.7972   -1.9606    5.0082 C   0  0  0  0  0  0  0  0  0  0  0  0
    5.7903   -1.9874    4.5534 H   0  0  0  0  0  0  0  0  0  0  0  0
    4.9004   -1.6851    6.0615 H   0  0  0  0  0  0  0  0  0  0  0  0
    4.3487   -2.9552    4.9463 H   0  0  0  0  0  0  0  0  0  0  0  0
    3.6858   -1.0906    2.9355 N   0  0  0  0  0  0  0  0  0  0  0  0
    2.7449   -0.2616    2.1705 C   0  0  2  0  0  0  0  0  0  0  0  0
    2.0479   -1.0647    1.0530 C   0  0  0  0  0  0  0  0  0  0  0  0
    2.5010   -2.1511    0.7182 O   0  0  0  0  0  0  0  0  0  0  0  0
    3.5166    0.9187    1.5728 C   0  0  0  0  0  0  0  0  0  0  0  0
    4.0212   -1.9418    2.4854 H   0  0  0  0  0  0  0  0  0  0  0  0
    1.9619    0.1194    2.8350 H   0  0  0  0  0  0  0  0  0  0  0  0
    4.3111    0.5603    0.9103 H   0  0  0  0  0  0  0  0  0  0  0  0
    2.8483    1.5648    0.9949 H   0  0  0  0  0  0  0  0  0  0  0  0
    3.9703    1.5168    2.3695 H   0  0  0  0  0  0  0  0  0  0  0  0
    0.8861   -0.5712    0.4799 N   0  0  0  0  0  0  0  0  0  0  0  0
    0.3463   -0.9151   -0.8579 C   0  0  2  0  0  0  0  0  0  0  0  0
    0.9083   -2.1605   -1.5937 C   0  0  0  0  0  0  0  0  0  0  0  0
    1.6259   -2.0336   -2.5825 O   0  0  0  0  0  0  0  0  0  0  0  0
    0.4675    0.3495   -1.7259 C   0  0  0  0  0  0  0  0  0  0  0  0
    1.8415    0.6783   -1.9470 O   0  0  0  0  0  0  0  0  0  0  0  0
    0.6469    0.3597    0.8120 H   0  0  0  0  0  0  0  0  0  0  0  0
   -0.7205   -1.1200   -0.7330 H   0  0  0  0  0  0  0  0  0  0  0  0
   -0.0337    1.1893   -1.2336 H   0  0  0  0  0  0  0  0  0  0  0  0
   -0.0294    0.1869   -2.6885 H   0  0  0  0  0  0  0  0  0  0  0  0
    2.2716   -0.0734   -2.4090 H   0  0  0  0  0  0  0  0  0  0  0  0
    0.5252   -3.4227   -1.1684 N   0  0  0  0  0  0  0  0  0  0  0  0
    0.9451   -4.7198   -1.7403 C   0  0  2  0  0  0  0  0  0  0  0  0
    2.4419   -5.0596   -1.5526 C   0  0  0  0  0  0  0  0  0  0  0  0
    2.7561   -6.1533   -1.0999 O   0  0  0  0  0  0  0  0  0  0  0  0
    0.5393   -4.8442   -3.2159 C   0  0  0  0  0  0  0  0  0  0  0  0
    0.1741   -3.4462   -0.2143 H   0  0  0  0  0  0  0  0  0  0  0  0
    0.3917   -5.4928   -1.1971 H   0  0  0  0  0  0  0  0  0  0  0  0
    1.1444   -4.1921   -3.8522 H   0  0  0  0  0  0  0  0  0  0  0  0
    0.6812   -5.8749   -3.5560 H   0  0  0  0  0  0  0  0  0  0  0  0
   -0.5140   -4.5787   -3.3452 H   0  0  0  0  0  0  0  0  0  0  0  0
    3.4294   -4.1634   -1.9075 N   0  0  0  0  0  0  0  0  0  0  0  0
    4.8459   -4.3728   -1.6491 C   0  0  0  0  0  0  0  0  0  0  0  0
    3.1059   -3.2419   -2.2082 H   0  0  0  0  0  0  0  0  0  0  0  0
    5.0265   -4.4739   -0.5741 H   0  0  0  0  0  0  0  0  0  0  0  0
    5.1976   -5.2781   -2.1541 H   0  0  0  0  0  0  0  0  0  0  0  0
    5.4257   -3.5228   -2.0205 H   0  0  0  0  0  0  0  0  0  0  0  0
  1  2  2  0  0  0  0
  1  3  1  0  0  0  0
  1  7  1  0  0  0  0
  3  4  1  0  0  0  0
  3  5  1  0  0  0  0
  3  6  1  0  0  0  0
  7  8  1  0  0  0  0
  7 12  1  0  0  0  0
  8  9  1  0  0  0  0
  8 11  1  0  0  0  0
  8 13  1  0  0  0  0
  9 10  2  0  0  0  0
  9 17  1  0  0  0  0
 11 14  1  0  0  0  0
 11 15  1  0  0  0  0
 11 16  1  0  0  0  0
 17 18  1  0  0  0  0
 17 23  1  0  0  0  0
 18 19  1  0  0  0  0
 18 21  1  0  0  0  0
 18 24  1  0  0  0  0
 19 20  2  0  0  0  0
 19 28  1  0  0  0  0
 21 22  1  0  0  0  0
 21 25  1  0  0  0  0
 21 26  1  0  0  0  0
 22 27  1  0  0  0  0
 28 29  1  0  0  0  0
 28 33  1  0  0  0  0
 29 30  1  0  0  0  0
 29 32  1  0  0  0  0
 29 34  1  0  0  0  0
 30 31  2  0  0  0  0
 30 38  1  0  0  0  0
 32 35  1  0  0  0  0
 32 36  1  0  0  0  0
 32 37  1  0  0  0  0
 38 39  1  0  0  0  0
 38 40  1  0  0  0  0
 39 41  1  0  0  0  0
 39 42  1  0  0  0  0
 39 43  1  0  0  0  0
M  END
$$$$

  -OEChem-05262217303D

 43 42  0     1  0  0  0  0  0999 V2000
    3.2676   -1.8206    4.1122 C   0  0  0  0  0  0  0  0  0  0  0  0
    2.1202   -1.6515    4.4956 O   0  0  0  0  0  0  0  0  0  0  0  0
    4.1522   -2.8558    4.7810 C   0  0  0  0  0  0  0  0  0  0  0  0
    5.0290   -2.3711    5.2172 H   0  0  0  0  0  0  0  0  0  0  0  0
    3.6008   -3.3674    5.5749 H   0  0  0  0  0  0  0  0  0  0  0  0
    4.4808   -3.5967    4.0480 H   0  0  0  0  0  0  0  0  0  0  0  0
    3.7519   -1.0887    3.0478 N   0  0  0  0  0  0  0  0  0  0  0  0
    2.8788   -0.2588    2.2067 C   0  0  2  0  0  0  0  0  0  0  0  0
    2.1729   -1.0755    1.1037 C   0  0  0  0  0  0  0  0  0  0  0  0
    2.7592   -2.0120    0.5738 O   0  0  0  0  0  0  0  0  0  0  0  0
    3.7337    0.8433    1.5778 C   0  0  0  0  0  0  0  0  0  0  0  0
    4.6153   -1.4282    2.6323 H   0  0  0  0  0  0  0  0  0  0  0  0
    2.1122    0.2172    2.8272 H   0  0  0  0  0  0  0  0  0  0  0  0
    4.5140    0.4103    0.9433 H   0  0  0  0  0  0  0  0  0  0  0  0
    3.1133    1.5021    0.9613 H   0  0  0  0  0  0  0  0  0  0  0  0
    4.2104    1.4461    2.3569 H   0  0  0  0  0  0  0  0  0  0  0  0
    0.8836   -0.7376    0.7232 N   0  0  0  0  0  0  0  0  0  0  0  0
    0.2561   -1.0076   -0.5916 C   0  0  2  0  0  0  0  0  0  0  0  0
    0.9377   -2.0265   -1.5407 C   0  0  0  0  0  0  0  0  0  0  0  0
    1.6951   -1.6465   -2.4274 O   0  0  0  0  0  0  0  0  0  0  0  0
    0.0764    0.3524   -1.2882 C   0  0  0  0  0  0  0  0  0  0  0  0
    1.3478    0.9351   -1.5892 O   0  0  0  0  0  0  0  0  0  0  0  0
    0.5190    0.0709    1.2199 H   0  0  0  0  0  0  0  0  0  0  0  0
   -0.7424   -1.4093   -0.4007 H   0  0  0  0  0  0  0  0  0  0  0  0
   -0.4958    1.0300   -0.6467 H   0  0  0  0  0  0  0  0  0  0  0  0
   -0.4901    0.2173   -2.2158 H   0  0  0  0  0  0  0  0  0  0  0  0
    1.8653    0.2907   -2.1244 H   0  0  0  0  0  0  0  0  0  0  0  0
    0.5896   -3.3651   -1.4612 N   0  0  0  0  0  0  0  0  0  0  0  0
    1.0683   -4.4465   -2.3478 C   0  0  2  0  0  0  0  0  0  0  0  0
    2.5866   -4.7517   -2.2785 C   0  0  0  0  0  0  0  0  0  0  0  0
    3.0417   -5.6639   -2.9584 O   0  0  0  0  0  0  0  0  0  0  0  0
    0.6124   -4.1954   -3.7945 C   0  0  0  0  0  0  0  0  0  0  0  0
    0.0810   -3.6384   -0.6253 H   0  0  0  0  0  0  0  0  0  0  0  0
    0.5762   -5.3652   -2.0152 H   0  0  0  0  0  0  0  0  0  0  0  0
    1.1722   -3.3715   -4.2467 H   0  0  0  0  0  0  0  0  0  0  0  0
    0.7786   -5.0901   -4.4027 H   0  0  0  0  0  0  0  0  0  0  0  0
   -0.4537   -3.9529   -3.8236 H   0  0  0  0  0  0  0  0  0  0  0  0
    3.4348   -4.0850   -1.4137 N   0  0  0  0  0  0  0  0  0  0  0  0
    4.8712   -4.3132   -1.3616 C   0  0  0  0  0  0  0  0  0  0  0  0
    3.0518   -3.2823   -0.9080 H   0  0  0  0  0  0  0  0  0  0  0  0
    5.0849   -5.3478   -1.0742 H   0  0  0  0  0  0  0  0  0  0  0  0
    5.3259   -4.1152   -2.3378 H   0  0  0  0  0  0  0  0  0  0  0  0
    5.3298   -3.6474   -0.6246 H   0  0  0  0  0  0  0  0  0  0  0  0
  1  2  2  0  0  0  0
  1  3  1  0  0  0  0
  1  7  1  0  0  0  0
  3  4  1  0  0  0  0
  3  5  1  0  0  0  0
  3  6  1  0  0  0  0
  7  8  1  0  0  0  0
  7 12  1  0  0  0  0
  8  9  1  0  0  0  0
  8 11  1  0  0  0  0
  8 13  1  0  0  0  0
  9 10  2  0  0  0  0
  9 17  1  0  0  0  0
 11 14  1  0  0  0  0
 11 15  1  0  0  0  0
 11 16  1  0  0  0  0
 17 18  1  0  0  0  0
 17 23  1  0  0  0  0
 18 19  1  0  0  0  0
 18 21  1  0  0  0  0
 18 24  1  0  0  0  0
 19 20  2  0  0  0  0
 19 28  1  0  0  0  0
 21 22  1  0  0  0  0
 21 25  1  0  0  0  0
 21 26  1  0  0  0  0
 22 27  1  0  0  0  0
 28 29  1  0  0  0  0
 28 33  1  0  0  0  0
 29 30  1  0  0  0  0
 29 32  1  0  0  0  0
 29 34  1  0  0  0  0
 30 31  2  0  0  0  0
 30 38  1  0  0  0  0
 32 35  1  0  0  0  0
 32 36  1  0  0  0  0
 32 37  1  0  0  0  0
 38 39  1  0  0  0  0
 38 40  1  0  0  0  0
 39 41  1  0  0  0  0
 39 42  1  0  0  0  0
 39 43  1  0  0  0  0
M  END
$$$$

  -OEChem-05262217303D

 43 42  0     1  0  0  0  0  0999 V2000
    3.5584   -1.4083    3.9911 C   0  0  0  0  0  0  0  0  0  0  0  0
    2.5045   -1.0380    4.4852 O   0  0  0  0  0  0  0  0  0  0  0  0
    4.4006   -2.4588    4.6900 C   0  0  0  0  0  0  0  0  0  0  0  0
    5.3923   -2.0565    4.9102 H   0  0  0  0  0  0  0  0  0  0  0  0
    3.9261   -2.7602    5.6281 H   0  0  0  0  0  0  0  0  0  0  0  0
    4.5052   -3.3386    4.0504 H   0  0  0  0  0  0  0  0  0  0  0  0
    3.9687   -0.8988    2.7764 N   0  0  0  0  0  0  0  0  0  0  0  0
    3.0746   -0.1131    1.9144 C   0  0  2  0  0  0  0  0  0  0  0  0
    2.2215   -1.0062    0.9890 C   0  0  0  0  0  0  0  0  0  0  0  0
    2.6695   -2.0783    0.5985 O   0  0  0  0  0  0  0  0  0  0  0  0
    3.9366    0.8357    1.0789 C   0  0  0  0  0  0  0  0  0  0  0  0
    4.7187   -1.4096    2.3179 H   0  0  0  0  0  0  0  0  0  0  0  0
    2.3990    0.4918    2.5287 H   0  0  0  0  0  0  0  0  0  0  0  0
    4.6195    0.2703    0.4365 H   0  0  0  0  0  0  0  0  0  0  0  0
    3.3057    1.4643    0.4421 H   0  0  0  0  0  0  0  0  0  0  0  0
    4.5274    1.4864    1.7312 H   0  0  0  0  0  0  0  0  0  0  0  0
    0.9456   -0.6018    0.6279 N   0  0  0  0  0  0  0  0  0  0  0  0
    0.2645   -0.9312   -0.6460 C   0  0  2  0  0  0  0  0  0  0  0  0
    0.8480   -2.0653   -1.5263 C   0  0  0  0  0  0  0  0  0  0  0  0
    1.7767   -1.8342   -2.2938 O   0  0  0  0  0  0  0  0  0  0  0  0
    0.1671    0.3727   -1.4553 C   0  0  0  0  0  0  0  0  0  0  0  0
    1.4704    0.8279   -1.8312 O   0  0  0  0  0  0  0  0  0  0  0  0
    0.6926    0.2984    1.0265 H   0  0  0  0  0  0  0  0  0  0  0  0
   -0.7546   -1.2389   -0.3979 H   0  0  0  0  0  0  0  0  0  0  0  0
   -0.3376    1.1459   -0.8671 H   0  0  0  0  0  0  0  0  0  0  0  0
   -0.4300    0.1990   -2.3570 H   0  0  0  0  0  0  0  0  0  0  0  0
    1.9510    0.0833   -2.2622 H   0  0  0  0  0  0  0  0  0  0  0  0
    0.2187   -3.2987   -1.5682 N   0  0  0  0  0  0  0  0  0  0  0  0
    0.6249   -4.4573   -2.3923 C   0  0  2  0  0  0  0  0  0  0  0  0
    2.0044   -5.0760   -2.0514 C   0  0  0  0  0  0  0  0  0  0  0  0
    2.2970   -6.1611   -2.5389 O   0  0  0  0  0  0  0  0  0  0  0  0
    0.5206   -4.1292   -3.8901 C   0  0  0  0  0  0  0  0  0  0  0  0
   -0.4712   -3.4673   -0.8418 H   0  0  0  0  0  0  0  0  0  0  0  0
   -0.1022   -5.2502   -2.1924 H   0  0  0  0  0  0  0  0  0  0  0  0
    1.3190   -3.4504   -4.2037 H   0  0  0  0  0  0  0  0  0  0  0  0
    0.6065   -5.0462   -4.4817 H   0  0  0  0  0  0  0  0  0  0  0  0
   -0.4436   -3.6633   -4.1135 H   0  0  0  0  0  0  0  0  0  0  0  0
    2.8893   -4.4851   -1.1675 N   0  0  0  0  0  0  0  0  0  0  0  0
    4.2029   -5.0298   -0.8585 C   0  0  0  0  0  0  0  0  0  0  0  0
    2.6693   -3.5400   -0.8423 H   0  0  0  0  0  0  0  0  0  0  0  0
    4.1130   -6.0474   -0.4649 H   0  0  0  0  0  0  0  0  0  0  0  0
    4.8294   -5.0503   -1.7560 H   0  0  0  0  0  0  0  0  0  0  0  0
    4.6964   -4.4098   -0.1040 H   0  0  0  0  0  0  0  0  0  0  0  0
  1  2  2  0  0  0  0
  1  3  1  0  0  0  0
  1  7  1  0  0  0  0
  3  4  1  0  0  0  0
  3  5  1  0  0  0  0
  3  6  1  0  0  0  0
  7  8  1  0  0  0  0
  7 12  1  0  0  0  0
  8  9  1  0  0  0  0
  8 11  1  0  0  0  0
  8 13  1  0  0  0  0
  9 10  2  0  0  0  0
  9 17  1  0  0  0  0
 11 14  1  0  0  0  0
 11 15  1  0  0  0  0
 11 16  1  0  0  0  0
 17 18  1  0  0  0  0
 17 23  1  0  0  0  0
 18 19  1  0  0  0  0
 18 21  1  0  0  0  0
 18 24  1  0  0  0  0
 19 20  2  0  0  0  0
 19 28  1  0  0  0  0
 21 22  1  0  0  0  0
 21 25  1  0  0  0  0
 21 26  1  0  0  0  0
 22 27  1  0  0  0  0
 28 29  1  0  0  0  0
 28 33  1  0  0  0  0
 29 30  1  0  0  0  0
 29 32  1  0  0  0  0
 29 34  1  0  0  0  0
 30 31  2  0  0  0  0
 30 38  1  0  0  0  0
 32 35  1  0  0  0  0
 32 36  1  0  0  0  0
 32 37  1  0  0  0  0
 38 39  1  0  0  0  0
 38 40  1  0  0  0  0
 39 41  1  0  0  0  0
 39 42  1  0  0  0  0
 39 43  1  0  0  0  0
M  END
$$$$

  -OEChem-05262217303D

 43 42  0     1  0  0  0  0  0999 V2000
    3.7378   -1.3968    4.1291 C   0  0  0  0  0  0  0  0  0  0  0  0
    2.9104   -0.8230    4.8198 O   0  0  0  0  0  0  0  0  0  0  0  0
    4.6212   -2.4691    4.7385 C   0  0  0  0  0  0  0  0  0  0  0  0
    5.6735   -2.2236    4.5764 H   0  0  0  0  0  0  0  0  0  0  0  0
    4.4385   -2.5418    5.8142 H   0  0  0  0  0  0  0  0  0  0  0  0
    4.4044   -3.4362    4.2780 H   0  0  0  0  0  0  0  0  0  0  0  0
    3.8618   -1.0930    2.7892 N   0  0  0  0  0  0  0  0  0  0  0  0
    2.8837   -0.2861    2.0445 C   0  0  2  0  0  0  0  0  0  0  0  0
    2.0622   -1.1393    1.0553 C   0  0  0  0  0  0  0  0  0  0  0  0
    2.4872   -2.2309    0.6934 O   0  0  0  0  0  0  0  0  0  0  0  0
    3.6516    0.8020    1.2908 C   0  0  0  0  0  0  0  0  0  0  0  0
    4.4138   -1.7491    2.2407 H   0  0  0  0  0  0  0  0  0  0  0  0
    2.1811    0.1987    2.7301 H   0  0  0  0  0  0  0  0  0  0  0  0
    4.3509    0.3544    0.5770 H   0  0  0  0  0  0  0  0  0  0  0  0
    2.9610    1.4483    0.7398 H   0  0  0  0  0  0  0  0  0  0  0  0
    4.2174    1.4215    1.9936 H   0  0  0  0  0  0  0  0  0  0  0  0
    0.8172   -0.6953    0.6361 N   0  0  0  0  0  0  0  0  0  0  0  0
    0.2269   -0.9397   -0.7014 C   0  0  2  0  0  0  0  0  0  0  0  0
    0.8558   -2.0219   -1.6141 C   0  0  0  0  0  0  0  0  0  0  0  0
    1.9405   -1.8102   -2.1486 O   0  0  0  0  0  0  0  0  0  0  0  0
    0.2091    0.4064   -1.4432 C   0  0  0  0  0  0  0  0  0  0  0  0
    1.5439    0.8550   -1.6978 O   0  0  0  0  0  0  0  0  0  0  0  0
    0.5728    0.2034    1.0435 H   0  0  0  0  0  0  0  0  0  0  0  0
   -0.8104   -1.2442   -0.5410 H   0  0  0  0  0  0  0  0  0  0  0  0
   -0.3257    1.1578   -0.8531 H   0  0  0  0  0  0  0  0  0  0  0  0
   -0.3216    0.2917   -2.3946 H   0  0  0  0  0  0  0  0  0  0  0  0
    2.0619    0.1133   -2.0883 H   0  0  0  0  0  0  0  0  0  0  0  0
    0.0993   -3.1048   -2.0335 N   0  0  0  0  0  0  0  0  0  0  0  0
    0.5537   -4.1980   -2.9214 C   0  0  2  0  0  0  0  0  0  0  0  0
    1.6928   -5.0804   -2.3539 C   0  0  0  0  0  0  0  0  0  0  0  0
    1.7352   -6.2617   -2.6732 O   0  0  0  0  0  0  0  0  0  0  0  0
    0.9165   -3.6783   -4.3200 C   0  0  0  0  0  0  0  0  0  0  0  0
   -0.7631   -3.2636   -1.5205 H   0  0  0  0  0  0  0  0  0  0  0  0
   -0.3020   -4.8686   -3.0494 H   0  0  0  0  0  0  0  0  0  0  0  0
    1.8586   -3.1229   -4.3060 H   0  0  0  0  0  0  0  0  0  0  0  0
    1.0321   -4.5185   -5.0118 H   0  0  0  0  0  0  0  0  0  0  0  0
    0.1277   -3.0229   -4.7005 H   0  0  0  0  0  0  0  0  0  0  0  0
    2.6486   -4.5860   -1.4867 N   0  0  0  0  0  0  0  0  0  0  0  0
    3.7412   -5.3785   -0.9434 C   0  0  0  0  0  0  0  0  0  0  0  0
    2.6213   -3.5828   -1.2856 H   0  0  0  0  0  0  0  0  0  0  0  0
    4.3898   -5.7401   -1.7480 H   0  0  0  0  0  0  0  0  0  0  0  0
    4.3409   -4.7694   -0.2604 H   0  0  0  0  0  0  0  0  0  0  0  0
    3.3520   -6.2383   -0.3886 H   0  0  0  0  0  0  0  0  0  0  0  0
  1  2  2  0  0  0  0
  1  3  1  0  0  0  0
  1  7  1  0  0  0  0
  3  4  1  0  0  0  0
  3  5  1  0  0  0  0
  3  6  1  0  0  0  0
  7  8  1  0  0  0  0
  7 12  1  0  0  0  0
  8  9  1  0  0  0  0
  8 11  1  0  0  0  0
  8 13  1  0  0  0  0
  9 10  2  0  0  0  0
  9 17  1  0  0  0  0
 11 14  1  0  0  0  0
 11 15  1  0  0  0  0
 11 16  1  0  0  0  0
 17 18  1  0  0  0  0
 17 23  1  0  0  0  0
 18 19  1  0  0  0  0
 18 21  1  0  0  0  0
 18 24  1  0  0  0  0
 19 20  2  0  0  0  0
 19 28  1  0  0  0  0
 21 22  1  0  0  0  0
 21 25  1  0  0  0  0
 21 26  1  0  0  0  0
 22 27  1  0  0  0  0
 28 29  1  0  0  0  0
 28 33  1  0  0  0  0
 29 30  1  0  0  0  0
 29 32  1  0  0  0  0
 29 34  1  0  0  0  0
 30 31  2  0  0  0  0
 30 38  1  0  0  0  0
 32 35  1  0  0  0  0
 32 36  1  0  0  0  0
 32 37  1  0  0  0  0
 38 39  1  0  0  0  0
 38 40  1  0  0  0  0
 39 41  1  0  0  0  0
 39 42  1  0  0  0  0
 39 43  1  0  0  0  0
M  END
$$$$

  -OEChem-05262217303D

 43 42  0     1  0  0  0  0  0999 V2000
    3.8321   -1.2584    4.2194 C   0  0  0  0  0  0  0  0  0  0  0  0
    3.1948   -0.4729    4.9031 O   0  0  0  0  0  0  0  0  0  0  0  0
    4.6849   -2.3237    4.8828 C   0  0  0  0  0  0  0  0  0  0  0  0
    5.7311   -2.1977    4.5936 H   0  0  0  0  0  0  0  0  0  0  0  0
    4.6082   -2.2448    5.9709 H   0  0  0  0  0  0  0  0  0  0  0  0
    4.3465   -3.3169    4.5769 H   0  0  0  0  0  0  0  0  0  0  0  0
    3.7710   -1.1929    2.8432 N   0  0  0  0  0  0  0  0  0  0  0  0
    2.8061   -0.3692    2.1006 C   0  0  2  0  0  0  0  0  0  0  0  0
    1.9956   -1.2052    1.0882 C   0  0  0  0  0  0  0  0  0  0  0  0
    2.3687   -2.3357    0.7951 O   0  0  0  0  0  0  0  0  0  0  0  0
    3.5844    0.7323    1.3782 C   0  0  0  0  0  0  0  0  0  0  0  0
    4.1672   -1.9847    2.3392 H   0  0  0  0  0  0  0  0  0  0  0  0
    2.0904    0.0955    2.7866 H   0  0  0  0  0  0  0  0  0  0  0  0
    4.2944    0.2971    0.6673 H   0  0  0  0  0  0  0  0  0  0  0  0
    2.9022    1.3888    0.8294 H   0  0  0  0  0  0  0  0  0  0  0  0
    4.1403    1.3389    2.1001 H   0  0  0  0  0  0  0  0  0  0  0  0
    0.7766   -0.7356    0.6248 N   0  0  0  0  0  0  0  0  0  0  0  0
    0.2389   -0.9573   -0.7390 C   0  0  2  0  0  0  0  0  0  0  0  0
    0.8773   -2.0357   -1.6498 C   0  0  0  0  0  0  0  0  0  0  0  0
    2.0377   -1.8951   -2.0259 O   0  0  0  0  0  0  0  0  0  0  0  0
    0.2868    0.3944   -1.4675 C   0  0  0  0  0  0  0  0  0  0  0  0
    1.6434    0.8089   -1.6576 O   0  0  0  0  0  0  0  0  0  0  0  0
    0.5515    0.1769    1.0120 H   0  0  0  0  0  0  0  0  0  0  0  0
   -0.8099   -1.2419   -0.6215 H   0  0  0  0  0  0  0  0  0  0  0  0
   -0.2540    1.1541   -0.8939 H   0  0  0  0  0  0  0  0  0  0  0  0
   -0.2042    0.3028   -2.4425 H   0  0  0  0  0  0  0  0  0  0  0  0
    2.1698    0.0518   -2.0033 H   0  0  0  0  0  0  0  0  0  0  0  0
    0.0644   -2.9081   -2.3578 N   0  0  0  0  0  0  0  0  0  0  0  0
    0.5104   -3.9356   -3.3259 C   0  0  2  0  0  0  0  0  0  0  0  0
    1.4300   -5.0333   -2.7365 C   0  0  0  0  0  0  0  0  0  0  0  0
    1.2477   -6.1984   -3.0650 O   0  0  0  0  0  0  0  0  0  0  0  0
    1.1462   -3.3059   -4.5733 C   0  0  0  0  0  0  0  0  0  0  0  0
   -0.8882   -2.9938   -2.0158 H   0  0  0  0  0  0  0  0  0  0  0  0
   -0.3922   -4.4550   -3.6645 H   0  0  0  0  0  0  0  0  0  0  0  0
    2.1332   -2.8905   -4.3516 H   0  0  0  0  0  0  0  0  0  0  0  0
    1.2674   -4.0649   -5.3526 H   0  0  0  0  0  0  0  0  0  0  0  0
    0.5095   -2.5070   -4.9640 H   0  0  0  0  0  0  0  0  0  0  0  0
    2.4364   -4.7367   -1.8378 N   0  0  0  0  0  0  0  0  0  0  0  0
    3.3142   -5.7288   -1.2352 C   0  0  0  0  0  0  0  0  0  0  0  0
    2.5758   -3.7479   -1.6114 H   0  0  0  0  0  0  0  0  0  0  0  0
    3.9022   -6.2384   -2.0054 H   0  0  0  0  0  0  0  0  0  0  0  0
    4.0024   -5.2440   -0.5360 H   0  0  0  0  0  0  0  0  0  0  0  0
    2.7303   -6.4734   -0.6844 H   0  0  0  0  0  0  0  0  0  0  0  0
  1  2  2  0  0  0  0
  1  3  1  0  0  0  0
  1  7  1  0  0  0  0
  3  4  1  0  0  0  0
  3  5  1  0  0  0  0
  3  6  1  0  0  0  0
  7  8  1  0  0  0  0
  7 12  1  0  0  0  0
  8  9  1  0  0  0  0
  8 11  1  0  0  0  0
  8 13  1  0  0  0  0
  9 10  2  0  0  0  0
  9 17  1  0  0  0  0
 11 14  1  0  0  0  0
 11 15  1  0  0  0  0
 11 16  1  0  0  0  0
 17 18  1  0  0  0  0
 17 23  1  0  0  0  0
 18 19  1  0  0  0  0
 18 21  1  0  0  0  0
 18 24  1  0  0  0  0
 19 20  2  0  0  0  0
 19 28  1  0  0  0  0
 21 22  1  0  0  0  0
 21 25  1  0  0  0  0
 21 26  1  0  0  0  0
 22 27  1  0  0  0  0
 28 29  1  0  0  0  0
 28 33  1  0  0  0  0
 29 30  1  0  0  0  0
 29 32  1  0  0  0  0
 29 34  1  0  0  0  0
 30 31  2  0  0  0  0
 30 38  1  0  0  0  0
 32 35  1  0  0  0  0
 32 36  1  0  0  0  0
 32 37  1  0  0  0  0
 38 39  1  0  0  0  0
 38 40  1  0  0  0  0
 39 41  1  0  0  0  0
 39 42  1  0  0  0  0
 39 43  1  0  0  0  0
M  END
$$$$

  -OEChem-05262217303D

 43 42  0     1  0  0  0  0  0999 V2000
    3.9240   -1.0666    4.2912 C   0  0  0  0  0  0  0  0  0  0  0  0
    3.5167   -0.0695    4.8664 O   0  0  0  0  0  0  0  0  0  0  0  0
    4.7339   -2.1044    5.0448 C   0  0  0  0  0  0  0  0  0  0  0  0
    5.7129   -2.2267    4.5751 H   0  0  0  0  0  0  0  0  0  0  0  0
    4.8770   -1.7906    6.0827 H   0  0  0  0  0  0  0  0  0  0  0  0
    4.2108   -3.0639    5.0354 H   0  0  0  0  0  0  0  0  0  0  0  0
    3.6318   -1.2638    2.9589 N   0  0  0  0  0  0  0  0  0  0  0  0
    2.6995   -0.4327    2.1868 C   0  0  2  0  0  0  0  0  0  0  0  0
    1.8932   -1.2723    1.1735 C   0  0  0  0  0  0  0  0  0  0  0  0
    2.1870   -2.4474    0.9860 O   0  0  0  0  0  0  0  0  0  0  0  0
    3.5044    0.6516    1.4655 C   0  0  0  0  0  0  0  0  0  0  0  0
    3.8620   -2.1750    2.5634 H   0  0  0  0  0  0  0  0  0  0  0  0
    1.9804    0.0427    2.8623 H   0  0  0  0  0  0  0  0  0  0  0  0
    4.2145    0.1995    0.7652 H   0  0  0  0  0  0  0  0  0  0  0  0
    2.8401    1.3176    0.9063 H   0  0  0  0  0  0  0  0  0  0  0  0
    4.0630    1.2528    2.1901 H   0  0  0  0  0  0  0  0  0  0  0  0
    0.7156   -0.7746    0.6406 N   0  0  0  0  0  0  0  0  0  0  0  0
    0.2458   -1.0012   -0.7482 C   0  0  2  0  0  0  0  0  0  0  0  0
    0.8841   -2.1036   -1.6319 C   0  0  0  0  0  0  0  0  0  0  0  0
    2.0945   -2.0832   -1.8354 O   0  0  0  0  0  0  0  0  0  0  0  0
    0.3913    0.3349   -1.4914 C   0  0  0  0  0  0  0  0  0  0  0  0
    1.7739    0.6856   -1.6077 O   0  0  0  0  0  0  0  0  0  0  0  0
    0.5194    0.1610    0.9863 H   0  0  0  0  0  0  0  0  0  0  0  0
   -0.8171   -1.2465   -0.6813 H   0  0  0  0  0  0  0  0  0  0  0  0
   -0.1473    1.1263   -0.9603 H   0  0  0  0  0  0  0  0  0  0  0  0
   -0.0469    0.2502   -2.4918 H   0  0  0  0  0  0  0  0  0  0  0  0
    2.2912   -0.1019   -1.8916 H   0  0  0  0  0  0  0  0  0  0  0  0
    0.0979   -2.7243   -2.5928 N   0  0  0  0  0  0  0  0  0  0  0  0
    0.5562   -3.6183   -3.6800 C   0  0  2  0  0  0  0  0  0  0  0  0
    1.2592   -4.9135   -3.2073 C   0  0  0  0  0  0  0  0  0  0  0  0
    0.8731   -5.9913   -3.6402 O   0  0  0  0  0  0  0  0  0  0  0  0
    1.4217   -2.8702   -4.7040 C   0  0  0  0  0  0  0  0  0  0  0  0
   -0.9042   -2.6895   -2.4298 H   0  0  0  0  0  0  0  0  0  0  0  0
   -0.3429   -3.9450   -4.2128 H   0  0  0  0  0  0  0  0  0  0  0  0
    2.4060   -2.6280   -4.2935 H   0  0  0  0  0  0  0  0  0  0  0  0
    1.5701   -3.4934   -5.5917 H   0  0  0  0  0  0  0  0  0  0  0  0
    0.9321   -1.9414   -5.0113 H   0  0  0  0  0  0  0  0  0  0  0  0
    2.3008   -4.8826   -2.3012 N   0  0  0  0  0  0  0  0  0  0  0  0
    2.9652   -6.0676   -1.7784 C   0  0  0  0  0  0  0  0  0  0  0  0
    2.5577   -3.9623   -1.9329 H   0  0  0  0  0  0  0  0  0  0  0  0
    3.3978   -6.6562   -2.5941 H   0  0  0  0  0  0  0  0  0  0  0  0
    3.7709   -5.7766   -1.0974 H   0  0  0  0  0  0  0  0  0  0  0  0
    2.2551   -6.6935   -1.2285 H   0  0  0  0  0  0  0  0  0  0  0  0
  1  2  2  0  0  0  0
  1  3  1  0  0  0  0
  1  7  1  0  0  0  0
  3  4  1  0  0  0  0
  3  5  1  0  0  0  0
  3  6  1  0  0  0  0
  7  8  1  0  0  0  0
  7 12  1  0  0  0  0
  8  9  1  0  0  0  0
  8 11  1  0  0  0  0
  8 13  1  0  0  0  0
  9 10  2  0  0  0  0
  9 17  1  0  0  0  0
 11 14  1  0  0  0  0
 11 15  1  0  0  0  0
 11 16  1  0  0  0  0
 17 18  1  0  0  0  0
 17 23  1  0  0  0  0
 18 19  1  0  0  0  0
 18 21  1  0  0  0  0
 18 24  1  0  0  0  0
 19 20  2  0  0  0  0
 19 28  1  0  0  0  0
 21 22  1  0  0  0  0
 21 25  1  0  0  0  0
 21 26  1  0  0  0  0
 22 27  1  0  0  0  0
 28 29  1  0  0  0  0
 28 33  1  0  0  0  0
 29 30  1  0  0  0  0
 29 32  1  0  0  0  0
 29 34  1  0  0  0  0
 30 31  2  0  0  0  0
 30 38  1  0  0  0  0
 32 35  1  0  0  0  0
 32 36  1  0  0  0  0
 32 37  1  0  0  0  0
 38 39  1  0  0  0  0
 38 40  1  0  0  0  0
 39 41  1  0  0  0  0
 39 42  1  0  0  0  0
 39 43  1  0  0  0  0
M  END
$$$$

  -OEChem-05262217303D

 43 42  0     1  0  0  0  0  0999 V2000
    3.0235   -2.5599    1.8868 C   0  0  0  0  0  0  0  0  0  0  0  0
    1.8372   -2.8630    1.8836 O   0  0  0  0  0  0  0  0  0  0  0  0
    4.0810   -3.5931    1.5476 C   0  0  0  0  0  0  0  0  0  0  0  0
    4.9801   -3.4231    2.1447 H   0  0  0  0  0  0  0  0  0  0  0  0
    3.7092   -4.5985    1.7594 H   0  0  0  0  0  0  0  0  0  0  0  0
    4.3391   -3.5232    0.4872 H   0  0  0  0  0  0  0  0  0  0  0  0
    3.4009   -1.2600    2.1549 N   0  0  0  0  0  0  0  0  0  0  0  0
    2.4253   -0.1665    2.1858 C   0  0  2  0  0  0  0  0  0  0  0  0
    2.0088    0.2134    0.7504 C   0  0  0  0  0  0  0  0  0  0  0  0
    2.7488    0.8588    0.0158 O   0  0  0  0  0  0  0  0  0  0  0  0
    3.0522    1.0150    2.9324 C   0  0  0  0  0  0  0  0  0  0  0  0
    4.3550   -1.0227    1.8947 H   0  0  0  0  0  0  0  0  0  0  0  0
    1.5319   -0.4771    2.7375 H   0  0  0  0  0  0  0  0  0  0  0  0
    3.9617    1.3545    2.4258 H   0  0  0  0  0  0  0  0  0  0  0  0
    2.3487    1.8523    2.9777 H   0  0  0  0  0  0  0  0  0  0  0  0
    3.3108    0.7235    3.9550 H   0  0  0  0  0  0  0  0  0  0  0  0
    0.7244    0.0191    0.2849 N   0  0  0  0  0  0  0  0  0  0  0  0
    0.4400   -0.6605   -1.0066 C   0  0  2  0  0  0  0  0  0  0  0  0
    1.5309   -1.5043   -1.7299 C   0  0  0  0  0  0  0  0  0  0  0  0
    2.5621   -1.8377   -1.1598 O   0  0  0  0  0  0  0  0  0  0  0  0
    0.0269    0.4532   -1.9773 C   0  0  0  0  0  0  0  0  0  0  0  0
    1.1376    1.3204   -2.2242 O   0  0  0  0  0  0  0  0  0  0  0  0
    0.1233   -0.3118    1.0348 H   0  0  0  0  0  0  0  0  0  0  0  0
   -0.4090   -1.3309   -0.8480 H   0  0  0  0  0  0  0  0  0  0  0  0
   -0.7937    1.0314   -1.5392 H   0  0  0  0  0  0  0  0  0  0  0  0
   -0.3335    0.0352   -2.9228 H   0  0  0  0  0  0  0  0  0  0  0  0
    1.7197    1.3671   -1.4259 H   0  0  0  0  0  0  0  0  0  0  0  0
    1.1042   -2.3485   -2.7468 N   0  0  0  0  0  0  0  0  0  0  0  0
    1.8263   -3.5008   -3.3321 C   0  0  2  0  0  0  0  0  0  0  0  0
    1.8560   -4.7572   -2.4320 C   0  0  0  0  0  0  0  0  0  0  0  0
    1.8364   -5.8639   -2.9545 O   0  0  0  0  0  0  0  0  0  0  0  0
    3.2382   -3.1253   -3.8063 C   0  0  0  0  0  0  0  0  0  0  0  0
    0.2006   -2.1252   -3.1527 H   0  0  0  0  0  0  0  0  0  0  0  0
    1.2679   -3.7923   -4.2275 H   0  0  0  0  0  0  0  0  0  0  0  0
    3.9156   -2.9728   -2.9613 H   0  0  0  0  0  0  0  0  0  0  0  0
    3.6487   -3.9284   -4.4263 H   0  0  0  0  0  0  0  0  0  0  0  0
    3.2096   -2.2078   -4.4018 H   0  0  0  0  0  0  0  0  0  0  0  0
    1.8323   -4.6628   -1.0538 N   0  0  0  0  0  0  0  0  0  0  0  0
    1.7931   -5.8142   -0.1624 C   0  0  0  0  0  0  0  0  0  0  0  0
    1.9748   -3.7301   -0.6598 H   0  0  0  0  0  0  0  0  0  0  0  0
    2.7523   -6.3415   -0.1773 H   0  0  0  0  0  0  0  0  0  0  0  0
    1.5848   -5.4917    0.8622 H   0  0  0  0  0  0  0  0  0  0  0  0
    1.0034   -6.5098   -0.4655 H   0  0  0  0  0  0  0  0  0  0  0  0
  1  2  2  0  0  0  0
  1  3  1  0  0  0  0
  1  7  1  0  0  0  0
  3  4  1  0  0  0  0
  3  5  1  0  0  0  0
  3  6  1  0  0  0  0
  7  8  1  0  0  0  0
  7 12  1  0  0  0  0
  8  9  1  0  0  0  0
  8 11  1  0  0  0  0
  8 13  1  0  0  0  0
  9 10  2  0  0  0  0
  9 17  1  0  0  0  0
 11 14  1  0  0  0  0
 11 15  1  0  0  0  0
 11 16  1  0  0  0  0
 17 18  1  0  0  0  0
 17 23  1  0  0  0  0
 18 19  1  0  0  0  0
 18 21  1  0  0  0  0
 18 24  1  0  0  0  0
 19 20  2  0  0  0  0
 19 28  1  0  0  0  0
 21 22  1  0  0  0  0
 21 25  1  0  0  0  0
 21 26  1  0  0  0  0
 22 27  1  0  0  0  0
 28 29  1  0  0  0  0
 28 33  1  0  0  0  0
 29 30  1  0  0  0  0
 29 32  1  0  0  0  0
 29 34  1  0  0  0  0
 30 31  2  0  0  0  0
 30 38  1  0  0  0  0
 32 35  1  0  0  0  0
 32 36  1  0  0  0  0
 32 37  1  0  0  0  0
 38 39  1  0  0  0  0
 38 40  1  0  0  0  0
 39 41  1  0  0  0  0
 39 42  1  0  0  0  0
 39 43  1  0  0  0  0
M  END
$$$$

  -OEChem-05262217303D

 43 42  0     1  0  0  0  0  0999 V2000
    3.9072   -2.1254    3.3579 C   0  0  0  0  0  0  0  0  0  0  0  0
    3.0638   -2.2575    4.2311 O   0  0  0  0  0  0  0  0  0  0  0  0
    5.1604   -2.9804    3.3743 C   0  0  0  0  0  0  0  0  0  0  0  0
    6.0440   -2.3462    3.4792 H   0  0  0  0  0  0  0  0  0  0  0  0
    5.1279   -3.6812    4.2133 H   0  0  0  0  0  0  0  0  0  0  0  0
    5.2366   -3.5491    2.4442 H   0  0  0  0  0  0  0  0  0  0  0  0
    3.7181   -1.2020    2.3513 N   0  0  0  0  0  0  0  0  0  0  0  0
    2.4698   -0.4585    2.1407 C   0  0  2  0  0  0  0  0  0  0  0  0
    2.1608   -0.2995    0.6393 C   0  0  0  0  0  0  0  0  0  0  0  0
    3.0728   -0.2030   -0.1765 O   0  0  0  0  0  0  0  0  0  0  0  0
    2.6030    0.9085    2.8174 C   0  0  0  0  0  0  0  0  0  0  0  0
    4.3854   -1.2107    1.5807 H   0  0  0  0  0  0  0  0  0  0  0  0
    1.6321   -1.0028    2.5896 H   0  0  0  0  0  0  0  0  0  0  0  0
    3.4379    1.4700    2.3856 H   0  0  0  0  0  0  0  0  0  0  0  0
    1.6871    1.4928    2.6890 H   0  0  0  0  0  0  0  0  0  0  0  0
    2.7846    0.7828    3.8898 H   0  0  0  0  0  0  0  0  0  0  0  0
    0.8647   -0.1035    0.1920 N   0  0  0  0  0  0  0  0  0  0  0  0
    0.3574   -0.5921   -1.1178 C   0  0  2  0  0  0  0  0  0  0  0  0
    0.9858   -1.8935   -1.6899 C   0  0  0  0  0  0  0  0  0  0  0  0
    1.5571   -2.6766   -0.9394 O   0  0  0  0  0  0  0  0  0  0  0  0
    0.5297    0.5326   -2.1515 C   0  0  0  0  0  0  0  0  0  0  0  0
    1.9117    0.8056   -2.3918 O   0  0  0  0  0  0  0  0  0  0  0  0
    0.1840   -0.1161    0.9465 H   0  0  0  0  0  0  0  0  0  0  0  0
   -0.7115   -0.7952   -1.0104 H   0  0  0  0  0  0  0  0  0  0  0  0
    0.0499    1.4405   -1.7707 H   0  0  0  0  0  0  0  0  0  0  0  0
    0.0363    0.2752   -3.0939 H   0  0  0  0  0  0  0  0  0  0  0  0
    2.4502    0.5998   -1.5863 H   0  0  0  0  0  0  0  0  0  0  0  0
    0.5432   -2.3805   -2.9124 N   0  0  0  0  0  0  0  0  0  0  0  0
    0.9470   -3.6421   -3.5710 C   0  0  2  0  0  0  0  0  0  0  0  0
    0.3814   -4.9312   -2.9299 C   0  0  0  0  0  0  0  0  0  0  0  0
   -0.2708   -5.7068   -3.6167 O   0  0  0  0  0  0  0  0  0  0  0  0
    2.4731   -3.7246   -3.7215 C   0  0  0  0  0  0  0  0  0  0  0  0
    0.0501   -1.7086   -3.4929 H   0  0  0  0  0  0  0  0  0  0  0  0
    0.5346   -3.6119   -4.5849 H   0  0  0  0  0  0  0  0  0  0  0  0
    2.9639   -3.8443   -2.7512 H   0  0  0  0  0  0  0  0  0  0  0  0
    2.7413   -4.5823   -4.3464 H   0  0  0  0  0  0  0  0  0  0  0  0
    2.8577   -2.8168   -4.1964 H   0  0  0  0  0  0  0  0  0  0  0  0
    0.5975   -5.2287   -1.5997 N   0  0  0  0  0  0  0  0  0  0  0  0
    0.0755   -6.4105   -0.9287 C   0  0  0  0  0  0  0  0  0  0  0  0
    1.0915   -4.5160   -1.0558 H   0  0  0  0  0  0  0  0  0  0  0  0
    0.4261   -6.4403    0.1073 H   0  0  0  0  0  0  0  0  0  0  0  0
   -1.0191   -6.3968   -0.9254 H   0  0  0  0  0  0  0  0  0  0  0  0
    0.4162   -7.3200   -1.4343 H   0  0  0  0  0  0  0  0  0  0  0  0
  1  2  2  0  0  0  0
  1  3  1  0  0  0  0
  1  7  1  0  0  0  0
  3  4  1  0  0  0  0
  3  5  1  0  0  0  0
  3  6  1  0  0  0  0
  7  8  1  0  0  0  0
  7 12  1  0  0  0  0
  8  9  1  0  0  0  0
  8 11  1  0  0  0  0
  8 13  1  0  0  0  0
  9 10  2  0  0  0  0
  9 17  1  0  0  0  0
 11 14  1  0  0  0  0
 11 15  1  0  0  0  0
 11 16  1  0  0  0  0
 17 18  1  0  0  0  0
 17 23  1  0  0  0  0
 18 19  1  0  0  0  0
 18 21  1  0  0  0  0
 18 24  1  0  0  0  0
 19 20  2  0  0  0  0
 19 28  1  0  0  0  0
 21 22  1  0  0  0  0
 21 25  1  0  0  0  0
 21 26  1  0  0  0  0
 22 27  1  0  0  0  0
 28 29  1  0  0  0  0
 28 33  1  0  0  0  0
 29 30  1  0  0  0  0
 29 32  1  0  0  0  0
 29 34  1  0  0  0  0
 30 31  2  0  0  0  0
 30 38  1  0  0  0  0
 32 35  1  0  0  0  0
 32 36  1  0  0  0  0
 32 37  1  0  0  0  0
 38 39  1  0  0  0  0
 38 40  1  0  0  0  0
 39 41  1  0  0  0  0
 39 42  1  0  0  0  0
 39 43  1  0  0  0  0
M  END
$$$$

  -OEChem-05262217303D

 43 42  0     1  0  0  0  0  0999 V2000
    3.8966   -2.0629    3.3668 C   0  0  0  0  0  0  0  0  0  0  0  0
    3.0500   -2.2171    4.2331 O   0  0  0  0  0  0  0  0  0  0  0  0
    5.1613   -2.9002    3.3791 C   0  0  0  0  0  0  0  0  0  0  0  0
    6.0386   -2.2509    3.4326 H   0  0  0  0  0  0  0  0  0  0  0  0
    5.1631   -3.5679    4.2454 H   0  0  0  0  0  0  0  0  0  0  0  0
    5.2175   -3.5035    2.4695 H   0  0  0  0  0  0  0  0  0  0  0  0
    3.6994   -1.1337    2.3674 N   0  0  0  0  0  0  0  0  0  0  0  0
    2.4290   -0.4347    2.1371 C   0  0  2  0  0  0  0  0  0  0  0  0
    2.1345   -0.2965    0.6308 C   0  0  0  0  0  0  0  0  0  0  0  0
    3.0544   -0.2479   -0.1813 O   0  0  0  0  0  0  0  0  0  0  0  0
    2.5069    0.9409    2.8039 C   0  0  0  0  0  0  0  0  0  0  0  0
    4.3703   -1.1312    1.5999 H   0  0  0  0  0  0  0  0  0  0  0  0
    1.6044   -1.0046    2.5792 H   0  0  0  0  0  0  0  0  0  0  0  0
    3.3198    1.5318    2.3694 H   0  0  0  0  0  0  0  0  0  0  0  0
    1.5683    1.4869    2.6698 H   0  0  0  0  0  0  0  0  0  0  0  0
    2.6914    0.8302    3.8773 H   0  0  0  0  0  0  0  0  0  0  0  0
    0.8464   -0.0880    0.1658 N   0  0  0  0  0  0  0  0  0  0  0  0
    0.3638   -0.5841   -1.1495 C   0  0  2  0  0  0  0  0  0  0  0  0
    1.0201   -1.8960   -1.6608 C   0  0  0  0  0  0  0  0  0  0  0  0
    1.3497   -2.7458   -0.8400 O   0  0  0  0  0  0  0  0  0  0  0  0
    0.5496    0.5296   -2.1927 C   0  0  0  0  0  0  0  0  0  0  0  0
    1.9350    0.8020   -2.4129 O   0  0  0  0  0  0  0  0  0  0  0  0
    0.1524   -0.0890    0.9084 H   0  0  0  0  0  0  0  0  0  0  0  0
   -0.7064   -0.7928   -1.0663 H   0  0  0  0  0  0  0  0  0  0  0  0
    0.0621    1.4402   -1.8286 H   0  0  0  0  0  0  0  0  0  0  0  0
    0.0688    0.2627   -3.1390 H   0  0  0  0  0  0  0  0  0  0  0  0
    2.4590    0.6058   -1.5965 H   0  0  0  0  0  0  0  0  0  0  0  0
    0.8881   -2.2796   -2.9877 N   0  0  0  0  0  0  0  0  0  0  0  0
    1.4286   -3.5052   -3.6152 C   0  0  2  0  0  0  0  0  0  0  0  0
    0.6912   -4.8176   -3.2602 C   0  0  0  0  0  0  0  0  0  0  0  0
    0.3819   -5.5917   -4.1568 O   0  0  0  0  0  0  0  0  0  0  0  0
    2.9365   -3.6399   -3.3572 C   0  0  0  0  0  0  0  0  0  0  0  0
    0.6477   -1.5229   -3.6227 H   0  0  0  0  0  0  0  0  0  0  0  0
    1.3046   -3.3809   -4.6960 H   0  0  0  0  0  0  0  0  0  0  0  0
    3.1415   -3.8796   -2.3097 H   0  0  0  0  0  0  0  0  0  0  0  0
    3.3511   -4.4415   -3.9766 H   0  0  0  0  0  0  0  0  0  0  0  0
    3.4507   -2.7071   -3.6079 H   0  0  0  0  0  0  0  0  0  0  0  0
    0.3958   -5.1506   -1.9538 N   0  0  0  0  0  0  0  0  0  0  0  0
   -0.2023   -6.4149   -1.5490 C   0  0  0  0  0  0  0  0  0  0  0  0
    0.7256   -4.4961   -1.2394 H   0  0  0  0  0  0  0  0  0  0  0  0
    0.4503   -7.2507   -1.8221 H   0  0  0  0  0  0  0  0  0  0  0  0
   -0.3515   -6.4306   -0.4653 H   0  0  0  0  0  0  0  0  0  0  0  0
   -1.1742   -6.5521   -2.0343 H   0  0  0  0  0  0  0  0  0  0  0  0
  1  2  2  0  0  0  0
  1  3  1  0  0  0  0
  1  7  1  0  0  0  0
  3  4  1  0  0  0  0
  3  5  1  0  0  0  0
  3  6  1  0  0  0  0
  7  8  1  0  0  0  0
  7 12  1  0  0  0  0
  8  9  1  0  0  0  0
  8 11  1  0  0  0  0
  8 13  1  0  0  0  0
  9 10  2  0  0  0  0
  9 17  1  0  0  0  0
 11 14  1  0  0  0  0
 11 15  1  0  0  0  0
 11 16  1  0  0  0  0
 17 18  1  0  0  0  0
 17 23  1  0  0  0  0
 18 19  1  0  0  0  0
 18 21  1  0  0  0  0
 18 24  1  0  0  0  0
 19 20  2  0  0  0  0
 19 28  1  0  0  0  0
 21 22  1  0  0  0  0
 21 25  1  0  0  0  0
 21 26  1  0  0  0  0
 22 27  1  0  0  0  0
 28 29  1  0  0  0  0
 28 33  1  0  0  0  0
 29 30  1  0  0  0  0
 29 32  1  0  0  0  0
 29 34  1  0  0  0  0
 30 31  2  0  0  0  0
 30 38  1  0  0  0  0
 32 35  1  0  0  0  0
 32 36  1  0  0  0  0
 32 37  1  0  0  0  0
 38 39  1  0  0  0  0
 38 40  1  0  0  0  0
 39 41  1  0  0  0  0
 39 42  1  0  0  0  0
 39 43  1  0  0  0  0
M  END
$$$$

  -OEChem-05262217303D

 43 42  0     1  0  0  0  0  0999 V2000
    3.9291   -2.0095    3.4668 C   0  0  0  0  0  0  0  0  0  0  0  0
    3.0949   -2.0915    4.3546 O   0  0  0  0  0  0  0  0  0  0  0  0
    5.2067   -2.8236    3.5438 C   0  0  0  0  0  0  0  0  0  0  0  0
    6.0727   -2.1575    3.5602 H   0  0  0  0  0  0  0  0  0  0  0  0
    5.2115   -3.4317    4.4529 H   0  0  0  0  0  0  0  0  0  0  0  0
    5.2802   -3.4856    2.6776 H   0  0  0  0  0  0  0  0  0  0  0  0
    3.7074   -1.1778    2.3893 N   0  0  0  0  0  0  0  0  0  0  0  0
    2.4445   -0.4717    2.1412 C   0  0  2  0  0  0  0  0  0  0  0  0
    2.1458   -0.3584    0.6338 C   0  0  0  0  0  0  0  0  0  0  0  0
    3.0606   -0.3408   -0.1851 O   0  0  0  0  0  0  0  0  0  0  0  0
    2.5331    0.9172    2.7792 C   0  0  0  0  0  0  0  0  0  0  0  0
    4.3760   -1.2188    1.6212 H   0  0  0  0  0  0  0  0  0  0  0  0
    1.6168   -1.0266    2.5958 H   0  0  0  0  0  0  0  0  0  0  0  0
    3.3560    1.4892    2.3385 H   0  0  0  0  0  0  0  0  0  0  0  0
    1.6019    1.4710    2.6265 H   0  0  0  0  0  0  0  0  0  0  0  0
    2.7081    0.8284    3.8563 H   0  0  0  0  0  0  0  0  0  0  0  0
    0.8581   -0.1327    0.1771 N   0  0  0  0  0  0  0  0  0  0  0  0
    0.3663   -0.5978   -1.1447 C   0  0  2  0  0  0  0  0  0  0  0  0
    1.0258   -1.9033   -1.6645 C   0  0  0  0  0  0  0  0  0  0  0  0
    1.1787   -2.8248   -0.8699 O   0  0  0  0  0  0  0  0  0  0  0  0
    0.5475    0.5361   -2.1668 C   0  0  0  0  0  0  0  0  0  0  0  0
    1.9333    0.8081   -2.3902 O   0  0  0  0  0  0  0  0  0  0  0  0
    0.1652   -0.1290    0.9212 H   0  0  0  0  0  0  0  0  0  0  0  0
   -0.7034   -0.8098   -1.0631 H   0  0  0  0  0  0  0  0  0  0  0  0
    0.0661    1.4404   -1.7803 H   0  0  0  0  0  0  0  0  0  0  0  0
    0.0582    0.2884   -3.1142 H   0  0  0  0  0  0  0  0  0  0  0  0
    2.4599    0.6022   -1.5790 H   0  0  0  0  0  0  0  0  0  0  0  0
    1.1788   -2.1425   -3.0221 N   0  0  0  0  0  0  0  0  0  0  0  0
    1.7871   -3.3344   -3.6501 C   0  0  2  0  0  0  0  0  0  0  0  0
    0.9551   -4.6351   -3.5550 C   0  0  0  0  0  0  0  0  0  0  0  0
    0.6989   -5.2608   -4.5755 O   0  0  0  0  0  0  0  0  0  0  0  0
    3.2153   -3.5546   -3.1317 C   0  0  0  0  0  0  0  0  0  0  0  0
    1.1498   -1.3006   -3.5942 H   0  0  0  0  0  0  0  0  0  0  0  0
    1.8696   -3.1156   -4.7199 H   0  0  0  0  0  0  0  0  0  0  0  0
    3.2143   -3.8679   -2.0836 H   0  0  0  0  0  0  0  0  0  0  0  0
    3.7114   -4.3329   -3.7201 H   0  0  0  0  0  0  0  0  0  0  0  0
    3.7969   -2.6315   -3.2177 H   0  0  0  0  0  0  0  0  0  0  0  0
    0.5052   -5.1175   -2.3426 N   0  0  0  0  0  0  0  0  0  0  0  0
   -0.2800   -6.3331   -2.1835 C   0  0  0  0  0  0  0  0  0  0  0  0
    0.7157   -4.5411   -1.5235 H   0  0  0  0  0  0  0  0  0  0  0  0
   -0.4801   -6.5158   -1.1233 H   0  0  0  0  0  0  0  0  0  0  0  0
   -1.2371   -6.2420   -2.7072 H   0  0  0  0  0  0  0  0  0  0  0  0
    0.2627   -7.1948   -2.5860 H   0  0  0  0  0  0  0  0  0  0  0  0
  1  2  2  0  0  0  0
  1  3  1  0  0  0  0
  1  7  1  0  0  0  0
  3  4  1  0  0  0  0
  3  5  1  0  0  0  0
  3  6  1  0  0  0  0
  7  8  1  0  0  0  0
  7 12  1  0  0  0  0
  8  9  1  0  0  0  0
  8 11  1  0  0  0  0
  8 13  1  0  0  0  0
  9 10  2  0  0  0  0
  9 17  1  0  0  0  0
 11 14  1  0  0  0  0
 11 15  1  0  0  0  0
 11 16  1  0  0  0  0
 17 18  1  0  0  0  0
 17 23  1  0  0  0  0
 18 19  1  0  0  0  0
 18 21  1  0  0  0  0
 18 24  1  0  0  0  0
 19 20  2  0  0  0  0
 19 28  1  0  0  0  0
 21 22  1  0  0  0  0
 21 25  1  0  0  0  0
 21 26  1  0  0  0  0
 22 27  1  0  0  0  0
 28 29  1  0  0  0  0
 28 33  1  0  0  0  0
 29 30  1  0  0  0  0
 29 32  1  0  0  0  0
 29 34  1  0  0  0  0
 30 31  2  0  0  0  0
 30 38  1  0  0  0  0
 32 35  1  0  0  0  0
 32 36  1  0  0  0  0
 32 37  1  0  0  0  0
 38 39  1  0  0  0  0
 38 40  1  0  0  0  0
 39 41  1  0  0  0  0
 39 42  1  0  0  0  0
 39 43  1  0  0  0  0
M  END
$$$$

  -OEChem-05262217303D

 43 42  0     1  0  0  0  0  0999 V2000
    3.9108   -1.9674    3.5023 C   0  0  0  0  0  0  0  0  0  0  0  0
    3.0652   -2.0515    4.3788 O   0  0  0  0  0  0  0  0  0  0  0  0
    5.2017   -2.7568    3.6096 C   0  0  0  0  0  0  0  0  0  0  0  0
    6.0573   -2.0777    3.5893 H   0  0  0  0  0  0  0  0  0  0  0  0
    5.2215   -3.3209    4.5463 H   0  0  0  0  0  0  0  0  0  0  0  0
    5.2811   -3.4577    2.7752 H   0  0  0  0  0  0  0  0  0  0  0  0
    3.6897   -1.1553    2.4099 N   0  0  0  0  0  0  0  0  0  0  0  0
    2.4165   -0.4792    2.1309 C   0  0  2  0  0  0  0  0  0  0  0  0
    2.1514   -0.3748    0.6159 C   0  0  0  0  0  0  0  0  0  0  0  0
    3.0804   -0.4198   -0.1861 O   0  0  0  0  0  0  0  0  0  0  0  0
    2.4569    0.9119    2.7700 C   0  0  0  0  0  0  0  0  0  0  0  0
    4.3715   -1.1924    1.6533 H   0  0  0  0  0  0  0  0  0  0  0  0
    1.5914   -1.0537    2.5663 H   0  0  0  0  0  0  0  0  0  0  0  0
    3.2747    1.5044    2.3471 H   0  0  0  0  0  0  0  0  0  0  0  0
    1.5160    1.4429    2.5977 H   0  0  0  0  0  0  0  0  0  0  0  0
    2.6109    0.8271    3.8506 H   0  0  0  0  0  0  0  0  0  0  0  0
    0.8852   -0.0966    0.1292 N   0  0  0  0  0  0  0  0  0  0  0  0
    0.4039   -0.5565   -1.1974 C   0  0  2  0  0  0  0  0  0  0  0  0
    1.0242   -1.8959   -1.6727 C   0  0  0  0  0  0  0  0  0  0  0  0
    0.9499   -2.8553   -0.9134 O   0  0  0  0  0  0  0  0  0  0  0  0
    0.6498    0.5555   -2.2305 C   0  0  0  0  0  0  0  0  0  0  0  0
    2.0508    0.7716   -2.4287 O   0  0  0  0  0  0  0  0  0  0  0  0
    0.1764   -0.0474    0.8566 H   0  0  0  0  0  0  0  0  0  0  0  0
   -0.6749   -0.7259   -1.1372 H   0  0  0  0  0  0  0  0  0  0  0  0
    0.1929    1.4833   -1.8705 H   0  0  0  0  0  0  0  0  0  0  0  0
    0.1731    0.3057   -3.1843 H   0  0  0  0  0  0  0  0  0  0  0  0
    2.5496    0.5717   -1.5989 H   0  0  0  0  0  0  0  0  0  0  0  0
    1.4917   -2.0698   -2.9661 N   0  0  0  0  0  0  0  0  0  0  0  0
    2.2094   -3.2492   -3.4940 C   0  0  2  0  0  0  0  0  0  0  0  0
    1.3544   -4.5236   -3.6896 C   0  0  0  0  0  0  0  0  0  0  0  0
    1.4575   -5.1602   -4.7302 O   0  0  0  0  0  0  0  0  0  0  0  0
    3.4542   -3.5516   -2.6476 C   0  0  0  0  0  0  0  0  0  0  0  0
    1.6503   -1.1900   -3.4587 H   0  0  0  0  0  0  0  0  0  0  0  0
    2.5638   -2.9755   -4.4933 H   0  0  0  0  0  0  0  0  0  0  0  0
    3.1792   -3.9384   -1.6621 H   0  0  0  0  0  0  0  0  0  0  0  0
    4.0732   -4.3028   -3.1479 H   0  0  0  0  0  0  0  0  0  0  0  0
    4.0518   -2.6449   -2.5114 H   0  0  0  0  0  0  0  0  0  0  0  0
    0.5018   -4.9821   -2.7052 N   0  0  0  0  0  0  0  0  0  0  0  0
   -0.2512   -6.2258   -2.7890 C   0  0  0  0  0  0  0  0  0  0  0  0
    0.5062   -4.4545   -1.8287 H   0  0  0  0  0  0  0  0  0  0  0  0
    0.4287   -7.0838   -2.8022 H   0  0  0  0  0  0  0  0  0  0  0  0
   -0.9166   -6.3225   -1.9257 H   0  0  0  0  0  0  0  0  0  0  0  0
   -0.8614   -6.2450   -3.6979 H   0  0  0  0  0  0  0  0  0  0  0  0
  1  2  2  0  0  0  0
  1  3  1  0  0  0  0
  1  7  1  0  0  0  0
  3  4  1  0  0  0  0
  3  5  1  0  0  0  0
  3  6  1  0  0  0  0
  7  8  1  0  0  0  0
  7 12  1  0  0  0  0
  8  9  1  0  0  0  0
  8 11  1  0  0  0  0
  8 13  1  0  0  0  0
  9 10  2  0  0  0  0
  9 17  1  0  0  0  0
 11 14  1  0  0  0  0
 11 15  1  0  0  0  0
 11 16  1  0  0  0  0
 17 18  1  0  0  0  0
 17 23  1  0  0  0  0
 18 19  1  0  0  0  0
 18 21  1  0  0  0  0
 18 24  1  0  0  0  0
 19 20  2  0  0  0  0
 19 28  1  0  0  0  0
 21 22  1  0  0  0  0
 21 25  1  0  0  0  0
 21 26  1  0  0  0  0
 22 27  1  0  0  0  0
 28 29  1  0  0  0  0
 28 33  1  0  0  0  0
 29 30  1  0  0  0  0
 29 32  1  0  0  0  0
 29 34  1  0  0  0  0
 30 31  2  0  0  0  0
 30 38  1  0  0  0  0
 32 35  1  0  0  0  0
 32 36  1  0  0  0  0
 32 37  1  0  0  0  0
 38 39  1  0  0  0  0
 38 40  1  0  0  0  0
 39 41  1  0  0  0  0
 39 42  1  0  0  0  0
 39 43  1  0  0  0  0
M  END
$$$$

  -OEChem-05262217303D

 43 42  0     1  0  0  0  0  0999 V2000
    3.8948   -1.9295    3.5682 C   0  0  0  0  0  0  0  0  0  0  0  0
    3.0411   -1.9967    4.4382 O   0  0  0  0  0  0  0  0  0  0  0  0
    5.1898   -2.7072    3.7075 C   0  0  0  0  0  0  0  0  0  0  0  0
    6.0429   -2.0274    3.6455 H   0  0  0  0  0  0  0  0  0  0  0  0
    5.2187   -3.2207    4.6727 H   0  0  0  0  0  0  0  0  0  0  0  0
    5.2656   -3.4507    2.9101 H   0  0  0  0  0  0  0  0  0  0  0  0
    3.6771   -1.1512    2.4507 N   0  0  0  0  0  0  0  0  0  0  0  0
    2.4042   -0.4861    2.1446 C   0  0  2  0  0  0  0  0  0  0  0  0
    2.1585   -0.4042    0.6248 C   0  0  0  0  0  0  0  0  0  0  0  0
    3.0961   -0.4842   -0.1636 O   0  0  0  0  0  0  0  0  0  0  0  0
    2.4279    0.9146    2.7639 C   0  0  0  0  0  0  0  0  0  0  0  0
    4.3673   -1.2022    1.7024 H   0  0  0  0  0  0  0  0  0  0  0  0
    1.5771   -1.0593    2.5777 H   0  0  0  0  0  0  0  0  0  0  0  0
    3.2411    1.5092    2.3354 H   0  0  0  0  0  0  0  0  0  0  0  0
    1.4820    1.4331    2.5806 H   0  0  0  0  0  0  0  0  0  0  0  0
    2.5785    0.8474    3.8463 H   0  0  0  0  0  0  0  0  0  0  0  0
    0.9060   -0.1027    0.1182 N   0  0  0  0  0  0  0  0  0  0  0  0
    0.4341   -0.5498   -1.2154 C   0  0  2  0  0  0  0  0  0  0  0  0
    1.0303   -1.8989   -1.6936 C   0  0  0  0  0  0  0  0  0  0  0  0
    0.7760   -2.8951   -1.0273 O   0  0  0  0  0  0  0  0  0  0  0  0
    0.7112    0.5724   -2.2314 C   0  0  0  0  0  0  0  0  0  0  0  0
    2.1187    0.7756   -2.4085 O   0  0  0  0  0  0  0  0  0  0  0  0
    0.1870   -0.0282    0.8337 H   0  0  0  0  0  0  0  0  0  0  0  0
   -0.6486   -0.6976   -1.1695 H   0  0  0  0  0  0  0  0  0  0  0  0
    0.2577    1.5018   -1.8713 H   0  0  0  0  0  0  0  0  0  0  0  0
    0.2492    0.3338   -3.1953 H   0  0  0  0  0  0  0  0  0  0  0  0
    2.5997    0.5842   -1.5672 H   0  0  0  0  0  0  0  0  0  0  0  0
    1.7767   -2.0078   -2.8563 N   0  0  0  0  0  0  0  0  0  0  0  0
    2.5681   -3.1745   -3.2983 C   0  0  2  0  0  0  0  0  0  0  0  0
    1.7512   -4.4045   -3.7589 C   0  0  0  0  0  0  0  0  0  0  0  0
    2.0469   -4.9640   -4.8071 O   0  0  0  0  0  0  0  0  0  0  0  0
    3.5947   -3.5699   -2.2278 C   0  0  0  0  0  0  0  0  0  0  0  0
    2.0452   -1.1032   -3.2489 H   0  0  0  0  0  0  0  0  0  0  0  0
    3.1343   -2.8512   -4.1779 H   0  0  0  0  0  0  0  0  0  0  0  0
    3.1056   -3.9958   -1.3469 H   0  0  0  0  0  0  0  0  0  0  0  0
    4.2855   -4.3176   -2.6299 H   0  0  0  0  0  0  0  0  0  0  0  0
    4.1739   -2.6954   -1.9159 H   0  0  0  0  0  0  0  0  0  0  0  0
    0.7150   -4.9107   -3.0002 N   0  0  0  0  0  0  0  0  0  0  0  0
   -0.0454   -6.1027   -3.3474 C   0  0  0  0  0  0  0  0  0  0  0  0
    0.5317   -4.4342   -2.1136 H   0  0  0  0  0  0  0  0  0  0  0  0
    0.6175   -6.9712   -3.4197 H   0  0  0  0  0  0  0  0  0  0  0  0
   -0.7997   -6.3054   -2.5811 H   0  0  0  0  0  0  0  0  0  0  0  0
   -0.5545   -5.9658   -4.3070 H   0  0  0  0  0  0  0  0  0  0  0  0
  1  2  2  0  0  0  0
  1  3  1  0  0  0  0
  1  7  1  0  0  0  0
  3  4  1  0  0  0  0
  3  5  1  0  0  0  0
  3  6  1  0  0  0  0
  7  8  1  0  0  0  0
  7 12  1  0  0  0  0
  8  9  1  0  0  0  0
  8 11  1  0  0  0  0
  8 13  1  0  0  0  0
  9 10  2  0  0  0  0
  9 17  1  0  0  0  0
 11 14  1  0  0  0  0
 11 15  1  0  0  0  0
 11 16  1  0  0  0  0
 17 18  1  0  0  0  0
 17 23  1  0  0  0  0
 18 19  1  0  0  0  0
 18 21  1  0  0  0  0
 18 24  1  0  0  0  0
 19 20  2  0  0  0  0
 19 28  1  0  0  0  0
 21 22  1  0  0  0  0
 21 25  1  0  0  0  0
 21 26  1  0  0  0  0
 22 27  1  0  0  0  0
 28 29  1  0  0  0  0
 28 33  1  0  0  0  0
 29 30  1  0  0  0  0
 29 32  1  0  0  0  0
 29 34  1  0  0  0  0
 30 31  2  0  0  0  0
 30 38  1  0  0  0  0
 32 35  1  0  0  0  0
 32 36  1  0  0  0  0
 32 37  1  0  0  0  0
 38 39  1  0  0  0  0
 38 40  1  0  0  0  0
 39 41  1  0  0  0  0
 39 42  1  0  0  0  0
 39 43  1  0  0  0  0
M  END
$$$$

  -OEChem-05262217303D

 43 42  0     1  0  0  0  0  0999 V2000
    3.8654   -1.8795    3.6478 C   0  0  0  0  0  0  0  0  0  0  0  0
    3.0008   -1.9181    4.5086 O   0  0  0  0  0  0  0  0  0  0  0  0
    5.1564   -2.6562    3.8252 C   0  0  0  0  0  0  0  0  0  0  0  0
    6.0089   -1.9729    3.8075 H   0  0  0  0  0  0  0  0  0  0  0  0
    5.1493   -3.1861    4.7819 H   0  0  0  0  0  0  0  0  0  0  0  0
    5.2662   -3.3864    3.0198 H   0  0  0  0  0  0  0  0  0  0  0  0
    3.6647   -1.1312    2.5071 N   0  0  0  0  0  0  0  0  0  0  0  0
    2.4080   -0.4475    2.1764 C   0  0  2  0  0  0  0  0  0  0  0  0
    2.1758   -0.3967    0.6530 C   0  0  0  0  0  0  0  0  0  0  0  0
    3.1227   -0.4688   -0.1237 O   0  0  0  0  0  0  0  0  0  0  0  0
    2.4573    0.9666    2.7629 C   0  0  0  0  0  0  0  0  0  0  0  0
    4.3685   -1.1957    1.7729 H   0  0  0  0  0  0  0  0  0  0  0  0
    1.5657   -0.9920    2.6176 H   0  0  0  0  0  0  0  0  0  0  0  0
    3.2936    1.5298    2.3363 H   0  0  0  0  0  0  0  0  0  0  0  0
    1.5290    1.5051    2.5498 H   0  0  0  0  0  0  0  0  0  0  0  0
    2.5862    0.9214    3.8492 H   0  0  0  0  0  0  0  0  0  0  0  0
    0.9230   -0.1287    0.1306 N   0  0  0  0  0  0  0  0  0  0  0  0
    0.4672   -0.5910   -1.2033 C   0  0  2  0  0  0  0  0  0  0  0  0
    1.0802   -1.9273   -1.6953 C   0  0  0  0  0  0  0  0  0  0  0  0
    0.6862   -2.9538   -1.1562 O   0  0  0  0  0  0  0  0  0  0  0  0
    0.7234    0.5476   -2.2072 C   0  0  0  0  0  0  0  0  0  0  0  0
    2.1265    0.7939   -2.3746 O   0  0  0  0  0  0  0  0  0  0  0  0
    0.1959   -0.0500    0.8376 H   0  0  0  0  0  0  0  0  0  0  0  0
   -0.6131   -0.7582   -1.1596 H   0  0  0  0  0  0  0  0  0  0  0  0
    0.2392    1.4608   -1.8453 H   0  0  0  0  0  0  0  0  0  0  0  0
    0.2780    0.3002   -3.1766 H   0  0  0  0  0  0  0  0  0  0  0  0
    2.6008    0.6499   -1.5213 H   0  0  0  0  0  0  0  0  0  0  0  0
    2.0596   -1.9877   -2.6735 N   0  0  0  0  0  0  0  0  0  0  0  0
    2.8825   -3.1540   -3.0541 C   0  0  2  0  0  0  0  0  0  0  0  0
    2.1314   -4.3045   -3.7643 C   0  0  0  0  0  0  0  0  0  0  0  0
    2.6235   -4.8179   -4.7609 O   0  0  0  0  0  0  0  0  0  0  0  0
    3.6660   -3.6833   -1.8456 C   0  0  0  0  0  0  0  0  0  0  0  0
    2.3907   -1.0697   -2.9789 H   0  0  0  0  0  0  0  0  0  0  0  0
    3.6194   -2.7914   -3.7783 H   0  0  0  0  0  0  0  0  0  0  0  0
    2.9993   -4.1492   -1.1142 H   0  0  0  0  0  0  0  0  0  0  0  0
    4.3933   -4.4335   -2.1714 H   0  0  0  0  0  0  0  0  0  0  0  0
    4.2061   -2.8671   -1.3565 H   0  0  0  0  0  0  0  0  0  0  0  0
    0.9415   -4.8028   -3.2731 N   0  0  0  0  0  0  0  0  0  0  0  0
    0.2441   -5.9520   -3.8325 C   0  0  0  0  0  0  0  0  0  0  0  0
    0.6054   -4.3835   -2.4025 H   0  0  0  0  0  0  0  0  0  0  0  0
    0.8814   -6.8416   -3.7951 H   0  0  0  0  0  0  0  0  0  0  0  0
   -0.6667   -6.1541   -3.2611 H   0  0  0  0  0  0  0  0  0  0  0  0
   -0.0356   -5.7610   -4.8736 H   0  0  0  0  0  0  0  0  0  0  0  0
  1  2  2  0  0  0  0
  1  3  1  0  0  0  0
  1  7  1  0  0  0  0
  3  4  1  0  0  0  0
  3  5  1  0  0  0  0
  3  6  1  0  0  0  0
  7  8  1  0  0  0  0
  7 12  1  0  0  0  0
  8  9  1  0  0  0  0
  8 11  1  0  0  0  0
  8 13  1  0  0  0  0
  9 10  2  0  0  0  0
  9 17  1  0  0  0  0
 11 14  1  0  0  0  0
 11 15  1  0  0  0  0
 11 16  1  0  0  0  0
 17 18  1  0  0  0  0
 17 23  1  0  0  0  0
 18 19  1  0  0  0  0
 18 21  1  0  0  0  0
 18 24  1  0  0  0  0
 19 20  2  0  0  0  0
 19 28  1  0  0  0  0
 21 22  1  0  0  0  0
 21 25  1  0  0  0  0
 21 26  1  0  0  0  0
 22 27  1  0  0  0  0
 28 29  1  0  0  0  0
 28 33  1  0  0  0  0
 29 30  1  0  0  0  0
 29 32  1  0  0  0  0
 29 34  1  0  0  0  0
 30 31  2  0  0  0  0
 30 38  1  0  0  0  0
 32 35  1  0  0  0  0
 32 36  1  0  0  0  0
 32 37  1  0  0  0  0
 38 39  1  0  0  0  0
 38 40  1  0  0  0  0
 39 41  1  0  0  0  0
 39 42  1  0  0  0  0
 39 43  1  0  0  0  0
M  END
$$$$

  -OEChem-05262217303D

 43 42  0     1  0  0  0  0  0999 V2000
    3.7701   -1.5039    4.1709 C   0  0  0  0  0  0  0  0  0  0  0  0
    2.8387   -1.3560    4.9464 O   0  0  0  0  0  0  0  0  0  0  0  0
    4.9600   -2.3579    4.5653 C   0  0  0  0  0  0  0  0  0  0  0  0
    5.8781   -1.7681    4.5093 H   0  0  0  0  0  0  0  0  0  0  0  0
    4.8387   -2.7238    5.5887 H   0  0  0  0  0  0  0  0  0  0  0  0
    5.0435   -3.2149    3.8923 H   0  0  0  0  0  0  0  0  0  0  0  0
    3.7417   -0.9005    2.9312 N   0  0  0  0  0  0  0  0  0  0  0  0
    2.5665   -0.2208    2.3700 C   0  0  2  0  0  0  0  0  0  0  0  0
    2.2782   -0.6812    0.9264 C   0  0  0  0  0  0  0  0  0  0  0  0
    3.2028   -1.0962    0.2390 O   0  0  0  0  0  0  0  0  0  0  0  0
    2.8312    1.2856    2.4075 C   0  0  0  0  0  0  0  0  0  0  0  0
    4.4672   -1.1748    2.2701 H   0  0  0  0  0  0  0  0  0  0  0  0
    1.6771   -0.4427    2.9691 H   0  0  0  0  0  0  0  0  0  0  0  0
    3.7111    1.5341    1.8051 H   0  0  0  0  0  0  0  0  0  0  0  0
    1.9724    1.8367    2.0129 H   0  0  0  0  0  0  0  0  0  0  0  0
    3.0091    1.6120    3.4370 H   0  0  0  0  0  0  0  0  0  0  0  0
    0.9906   -0.5790    0.4229 N   0  0  0  0  0  0  0  0  0  0  0  0
    0.5059   -1.0510   -0.8959 C   0  0  2  0  0  0  0  0  0  0  0  0
    1.2049   -2.2860   -1.5134 C   0  0  0  0  0  0  0  0  0  0  0  0
    0.6963   -3.3872   -1.3357 O   0  0  0  0  0  0  0  0  0  0  0  0
    0.4729    0.1315   -1.8823 C   0  0  0  0  0  0  0  0  0  0  0  0
    1.7811    0.6405   -2.1792 O   0  0  0  0  0  0  0  0  0  0  0  0
    0.2941   -0.2416    1.0804 H   0  0  0  0  0  0  0  0  0  0  0  0
   -0.5313   -1.3688   -0.7531 H   0  0  0  0  0  0  0  0  0  0  0  0
   -0.1364    0.9356   -1.4571 H   0  0  0  0  0  0  0  0  0  0  0  0
   -0.0074   -0.1898   -2.8130 H   0  0  0  0  0  0  0  0  0  0  0  0
    1.7291    1.4128   -2.7709 H   0  0  0  0  0  0  0  0  0  0  0  0
    2.3067   -2.1507   -2.3392 N   0  0  0  0  0  0  0  0  0  0  0  0
    3.1649   -3.2235   -2.8802 C   0  0  2  0  0  0  0  0  0  0  0  0
    2.5157   -4.1012   -3.9743 C   0  0  0  0  0  0  0  0  0  0  0  0
    3.1463   -4.3659   -4.9904 O   0  0  0  0  0  0  0  0  0  0  0  0
    3.7300   -4.0937   -1.7495 C   0  0  0  0  0  0  0  0  0  0  0  0
    2.7071   -1.2108   -2.2979 H   0  0  0  0  0  0  0  0  0  0  0  0
    4.0161   -2.7302   -3.3599 H   0  0  0  0  0  0  0  0  0  0  0  0
    2.9447   -4.6965   -1.2841 H   0  0  0  0  0  0  0  0  0  0  0  0
    4.4929   -4.7723   -2.1436 H   0  0  0  0  0  0  0  0  0  0  0  0
    4.1892   -3.4650   -0.9806 H   0  0  0  0  0  0  0  0  0  0  0  0
    1.2488   -4.6261   -3.8167 N   0  0  0  0  0  0  0  0  0  0  0  0
    0.6174   -5.5362   -4.7611 C   0  0  0  0  0  0  0  0  0  0  0  0
    0.7911   -4.4266   -2.9234 H   0  0  0  0  0  0  0  0  0  0  0  0
   -0.3816   -5.8109   -4.4097 H   0  0  0  0  0  0  0  0  0  0  0  0
    0.5205   -5.0618   -5.7430 H   0  0  0  0  0  0  0  0  0  0  0  0
    1.2112   -6.4500   -4.8663 H   0  0  0  0  0  0  0  0  0  0  0  0
  1  2  2  0  0  0  0
  1  3  1  0  0  0  0
  1  7  1  0  0  0  0
  3  4  1  0  0  0  0
  3  5  1  0  0  0  0
  3  6  1  0  0  0  0
  7  8  1  0  0  0  0
  7 12  1  0  0  0  0
  8  9  1  0  0  0  0
  8 11  1  0  0  0  0
  8 13  1  0  0  0  0
  9 10  2  0  0  0  0
  9 17  1  0  0  0  0
 11 14  1  0  0  0  0
 11 15  1  0  0  0  0
 11 16  1  0  0  0  0
 17 18  1  0  0  0  0
 17 23  1  0  0  0  0
 18 19  1  0  0  0  0
 18 21  1  0  0  0  0
 18 24  1  0  0  0  0
 19 20  2  0  0  0  0
 19 28  1  0  0  0  0
 21 22  1  0  0  0  0
 21 25  1  0  0  0  0
 21 26  1  0  0  0  0
 22 27  1  0  0  0  0
 28 29  1  0  0  0  0
 28 33  1  0  0  0  0
 29 30  1  0  0  0  0
 29 32  1  0  0  0  0
 29 34  1  0  0  0  0
 30 31  2  0  0  0  0
 30 38  1  0  0  0  0
 32 35  1  0  0  0  0
 32 36  1  0  0  0  0
 32 37  1  0  0  0  0
 38 39  1  0  0  0  0
 38 40  1  0  0  0  0
 39 41  1  0  0  0  0
 39 42  1  0  0  0  0
 39 43  1  0  0  0  0
M  END
$$$$

  -OEChem-05262217303D

 43 42  0     1  0  0  0  0  0999 V2000
    3.4450   -1.5208    4.0403 C   0  0  0  0  0  0  0  0  0  0  0  0
    2.2955   -1.7947    4.3480 O   0  0  0  0  0  0  0  0  0  0  0  0
    4.5972   -2.3428    4.5868 C   0  0  0  0  0  0  0  0  0  0  0  0
    5.2965   -1.6971    5.1233 H   0  0  0  0  0  0  0  0  0  0  0  0
    4.2228   -3.1047    5.2764 H   0  0  0  0  0  0  0  0  0  0  0  0
    5.1239   -2.8383    3.7674 H   0  0  0  0  0  0  0  0  0  0  0  0
    3.6941   -0.4832    3.1654 N   0  0  0  0  0  0  0  0  0  0  0  0
    2.6282    0.1791    2.4005 C   0  0  2  0  0  0  0  0  0  0  0  0
    2.3638   -0.5204    1.0500 C   0  0  0  0  0  0  0  0  0  0  0  0
    3.3130   -0.9386    0.3966 O   0  0  0  0  0  0  0  0  0  0  0  0
    3.0436    1.6354    2.1775 C   0  0  0  0  0  0  0  0  0  0  0  0
    4.6351   -0.4417    2.7824 H   0  0  0  0  0  0  0  0  0  0  0  0
    1.6965    0.1772    2.9762 H   0  0  0  0  0  0  0  0  0  0  0  0
    3.9700    1.6871    1.5960 H   0  0  0  0  0  0  0  0  0  0  0  0
    2.2628    2.1759    1.6332 H   0  0  0  0  0  0  0  0  0  0  0  0
    3.2048    2.1354    3.1378 H   0  0  0  0  0  0  0  0  0  0  0  0
    1.0750   -0.5646    0.5422 N   0  0  0  0  0  0  0  0  0  0  0  0
    0.6082   -1.2022   -0.7129 C   0  0  2  0  0  0  0  0  0  0  0  0
    1.3528   -2.4521   -1.2408 C   0  0  0  0  0  0  0  0  0  0  0  0
    0.7110   -3.4889   -1.3526 O   0  0  0  0  0  0  0  0  0  0  0  0
    0.4715   -0.1390   -1.8169 C   0  0  0  0  0  0  0  0  0  0  0  0
    1.7264    0.4349   -2.2017 O   0  0  0  0  0  0  0  0  0  0  0  0
    0.3602   -0.1814    1.1546 H   0  0  0  0  0  0  0  0  0  0  0  0
   -0.4050   -1.5610   -0.5052 H   0  0  0  0  0  0  0  0  0  0  0  0
   -0.1849    0.6609   -1.4591 H   0  0  0  0  0  0  0  0  0  0  0  0
   -0.0048   -0.5850   -2.6967 H   0  0  0  0  0  0  0  0  0  0  0  0
    2.2586   -0.2036   -2.7105 H   0  0  0  0  0  0  0  0  0  0  0  0
    2.5944   -2.3488   -1.8468 N   0  0  0  0  0  0  0  0  0  0  0  0
    3.3861   -3.4492   -2.4364 C   0  0  2  0  0  0  0  0  0  0  0  0
    2.8398   -4.0211   -3.7654 C   0  0  0  0  0  0  0  0  0  0  0  0
    3.6025   -4.1783   -4.7101 O   0  0  0  0  0  0  0  0  0  0  0  0
    3.6257   -4.5699   -1.4152 C   0  0  0  0  0  0  0  0  0  0  0  0
    3.1399   -1.5915   -1.4231 H   0  0  0  0  0  0  0  0  0  0  0  0
    4.3672   -3.0277   -2.6787 H   0  0  0  0  0  0  0  0  0  0  0  0
    2.7039   -5.1202   -1.2051 H   0  0  0  0  0  0  0  0  0  0  0  0
    4.3636   -5.2785   -1.8046 H   0  0  0  0  0  0  0  0  0  0  0  0
    4.0061   -4.1538   -0.4774 H   0  0  0  0  0  0  0  0  0  0  0  0
    1.5119   -4.3689   -3.9114 N   0  0  0  0  0  0  0  0  0  0  0  0
    0.9525   -4.9726   -5.1127 C   0  0  0  0  0  0  0  0  0  0  0  0
    0.9277   -4.2688   -3.0771 H   0  0  0  0  0  0  0  0  0  0  0  0
    1.4157   -5.9464   -5.3023 H   0  0  0  0  0  0  0  0  0  0  0  0
   -0.1254   -5.1180   -4.9945 H   0  0  0  0  0  0  0  0  0  0  0  0
    1.1207   -4.3264   -5.9804 H   0  0  0  0  0  0  0  0  0  0  0  0
  1  2  2  0  0  0  0
  1  3  1  0  0  0  0
  1  7  1  0  0  0  0
  3  4  1  0  0  0  0
  3  5  1  0  0  0  0
  3  6  1  0  0  0  0
  7  8  1  0  0  0  0
  7 12  1  0  0  0  0
  8  9  1  0  0  0  0
  8 11  1  0  0  0  0
  8 13  1  0  0  0  0
  9 10  2  0  0  0  0
  9 17  1  0  0  0  0
 11 14  1  0  0  0  0
 11 15  1  0  0  0  0
 11 16  1  0  0  0  0
 17 18  1  0  0  0  0
 17 23  1  0  0  0  0
 18 19  1  0  0  0  0
 18 21  1  0  0  0  0
 18 24  1  0  0  0  0
 19 20  2  0  0  0  0
 19 28  1  0  0  0  0
 21 22  1  0  0  0  0
 21 25  1  0  0  0  0
 21 26  1  0  0  0  0
 22 27  1  0  0  0  0
 28 29  1  0  0  0  0
 28 33  1  0  0  0  0
 29 30  1  0  0  0  0
 29 32  1  0  0  0  0
 29 34  1  0  0  0  0
 30 31  2  0  0  0  0
 30 38  1  0  0  0  0
 32 35  1  0  0  0  0
 32 36  1  0  0  0  0
 32 37  1  0  0  0  0
 38 39  1  0  0  0  0
 38 40  1  0  0  0  0
 39 41  1  0  0  0  0
 39 42  1  0  0  0  0
 39 43  1  0  0  0  0
M  END
$$$$

  -OEChem-05262217303D

 43 42  0     1  0  0  0  0  0999 V2000
    3.3190   -1.3976    4.1324 C   0  0  0  0  0  0  0  0  0  0  0  0
    2.1437   -1.6658    4.3283 O   0  0  0  0  0  0  0  0  0  0  0  0
    4.4120   -2.2161    4.7931 C   0  0  0  0  0  0  0  0  0  0  0  0
    5.0737   -1.5628    5.3670 H   0  0  0  0  0  0  0  0  0  0  0  0
    3.9739   -2.9547    5.4701 H   0  0  0  0  0  0  0  0  0  0  0  0
    4.9968   -2.7392    4.0324 H   0  0  0  0  0  0  0  0  0  0  0  0
    3.6529   -0.3727    3.2714 N   0  0  0  0  0  0  0  0  0  0  0  0
    2.6588    0.2856    2.4141 C   0  0  2  0  0  0  0  0  0  0  0  0
    2.4192   -0.4965    1.1050 C   0  0  0  0  0  0  0  0  0  0  0  0
    3.3847   -0.9080    0.4745 O   0  0  0  0  0  0  0  0  0  0  0  0
    3.1548    1.7015    2.1124 C   0  0  0  0  0  0  0  0  0  0  0  0
    4.6243   -0.3385    2.9735 H   0  0  0  0  0  0  0  0  0  0  0  0
    1.7055    0.3690    2.9472 H   0  0  0  0  0  0  0  0  0  0  0  0
    4.1076    1.6698    1.5743 H   0  0  0  0  0  0  0  0  0  0  0  0
    2.4264    2.2365    1.4948 H   0  0  0  0  0  0  0  0  0  0  0  0
    3.2973    2.2603    3.0426 H   0  0  0  0  0  0  0  0  0  0  0  0
    1.1273   -0.6341    0.6235 N   0  0  0  0  0  0  0  0  0  0  0  0
    0.6379   -1.3268   -0.5960 C   0  0  2  0  0  0  0  0  0  0  0  0
    1.3765   -2.5601   -1.1718 C   0  0  0  0  0  0  0  0  0  0  0  0
    0.6945   -3.5337   -1.4654 O   0  0  0  0  0  0  0  0  0  0  0  0
    0.4462   -0.2919   -1.7160 C   0  0  0  0  0  0  0  0  0  0  0  0
    1.6841    0.2923   -2.1403 O   0  0  0  0  0  0  0  0  0  0  0  0
    0.4129   -0.2520    1.2372 H   0  0  0  0  0  0  0  0  0  0  0  0
   -0.3570   -1.7055   -0.3398 H   0  0  0  0  0  0  0  0  0  0  0  0
   -0.2162    0.5037   -1.3594 H   0  0  0  0  0  0  0  0  0  0  0  0
   -0.0428   -0.7663   -2.5737 H   0  0  0  0  0  0  0  0  0  0  0  0
    2.2545   -0.3682   -2.5745 H   0  0  0  0  0  0  0  0  0  0  0  0
    2.6949   -2.5124   -1.5931 N   0  0  0  0  0  0  0  0  0  0  0  0
    3.4954   -3.6197   -2.1569 C   0  0  2  0  0  0  0  0  0  0  0  0
    3.1167   -4.0455   -3.5939 C   0  0  0  0  0  0  0  0  0  0  0  0
    4.0023   -4.2313   -4.4184 O   0  0  0  0  0  0  0  0  0  0  0  0
    3.5082   -4.8308   -1.2142 C   0  0  0  0  0  0  0  0  0  0  0  0
    3.2240   -1.7704   -1.1236 H   0  0  0  0  0  0  0  0  0  0  0  0
    4.5261   -3.2550   -2.2187 H   0  0  0  0  0  0  0  0  0  0  0  0
    2.5309   -5.3212   -1.1846 H   0  0  0  0  0  0  0  0  0  0  0  0
    4.2456   -5.5637   -1.5565 H   0  0  0  0  0  0  0  0  0  0  0  0
    3.7745   -4.5190   -0.1998 H   0  0  0  0  0  0  0  0  0  0  0  0
    1.8011   -4.2318   -3.9682 N   0  0  0  0  0  0  0  0  0  0  0  0
    1.3870   -4.7117   -5.2788 C   0  0  0  0  0  0  0  0  0  0  0  0
    1.1075   -4.1472   -3.2207 H   0  0  0  0  0  0  0  0  0  0  0  0
    0.2952   -4.7159   -5.3495 H   0  0  0  0  0  0  0  0  0  0  0  0
    1.7817   -4.0628   -6.0677 H   0  0  0  0  0  0  0  0  0  0  0  0
    1.7508   -5.7308   -5.4455 H   0  0  0  0  0  0  0  0  0  0  0  0
  1  2  2  0  0  0  0
  1  3  1  0  0  0  0
  1  7  1  0  0  0  0
  3  4  1  0  0  0  0
  3  5  1  0  0  0  0
  3  6  1  0  0  0  0
  7  8  1  0  0  0  0
  7 12  1  0  0  0  0
  8  9  1  0  0  0  0
  8 11  1  0  0  0  0
  8 13  1  0  0  0  0
  9 10  2  0  0  0  0
  9 17  1  0  0  0  0
 11 14  1  0  0  0  0
 11 15  1  0  0  0  0
 11 16  1  0  0  0  0
 17 18  1  0  0  0  0
 17 23  1  0  0  0  0
 18 19  1  0  0  0  0
 18 21  1  0  0  0  0
 18 24  1  0  0  0  0
 19 20  2  0  0  0  0
 19 28  1  0  0  0  0
 21 22  1  0  0  0  0
 21 25  1  0  0  0  0
 21 26  1  0  0  0  0
 22 27  1  0  0  0  0
 28 29  1  0  0  0  0
 28 33  1  0  0  0  0
 29 30  1  0  0  0  0
 29 32  1  0  0  0  0
 29 34  1  0  0  0  0
 30 31  2  0  0  0  0
 30 38  1  0  0  0  0
 32 35  1  0  0  0  0
 32 36  1  0  0  0  0
 32 37  1  0  0  0  0
 38 39  1  0  0  0  0
 38 40  1  0  0  0  0
 39 41  1  0  0  0  0
 39 42  1  0  0  0  0
 39 43  1  0  0  0  0
M  END
$$$$

  -OEChem-05262217303D

 43 42  0     1  0  0  0  0  0999 V2000
    3.3126   -0.7464    4.5804 C   0  0  0  0  0  0  0  0  0  0  0  0
    2.1365   -0.6848    4.9031 O   0  0  0  0  0  0  0  0  0  0  0  0
    4.2917   -1.5460    5.4193 C   0  0  0  0  0  0  0  0  0  0  0  0
    5.1101   -0.9038    5.7531 H   0  0  0  0  0  0  0  0  0  0  0  0
    3.7870   -1.9586    6.2974 H   0  0  0  0  0  0  0  0  0  0  0  0
    4.7013   -2.3697    4.8293 H   0  0  0  0  0  0  0  0  0  0  0  0
    3.7488   -0.1244    3.4287 N   0  0  0  0  0  0  0  0  0  0  0  0
    2.8242    0.4017    2.4146 C   0  0  2  0  0  0  0  0  0  0  0  0
    2.5026   -0.6468    1.3285 C   0  0  0  0  0  0  0  0  0  0  0  0
    3.3966   -1.3977    0.9635 O   0  0  0  0  0  0  0  0  0  0  0  0
    3.4710    1.6361    1.7819 C   0  0  0  0  0  0  0  0  0  0  0  0
    4.6717   -0.4016    3.1034 H   0  0  0  0  0  0  0  0  0  0  0  0
    1.8846    0.7119    2.8837 H   0  0  0  0  0  0  0  0  0  0  0  0
    4.4139    1.3687    1.2935 H   0  0  0  0  0  0  0  0  0  0  0  0
    2.8052    2.0728    1.0306 H   0  0  0  0  0  0  0  0  0  0  0  0
    3.6750    2.3923    2.5464 H   0  0  0  0  0  0  0  0  0  0  0  0
    1.2429   -0.6451    0.7497 N   0  0  0  0  0  0  0  0  0  0  0  0
    0.6879   -1.4250   -0.3899 C   0  0  2  0  0  0  0  0  0  0  0  0
    1.1675   -2.8508   -0.7566 C   0  0  0  0  0  0  0  0  0  0  0  0
    0.3414   -3.5950   -1.2717 O   0  0  0  0  0  0  0  0  0  0  0  0
    0.7863   -0.5627   -1.6607 C   0  0  0  0  0  0  0  0  0  0  0  0
    2.1431   -0.3141   -2.0490 O   0  0  0  0  0  0  0  0  0  0  0  0
    0.6220    0.0600    1.1355 H   0  0  0  0  0  0  0  0  0  0  0  0
   -0.3752   -1.5559   -0.1661 H   0  0  0  0  0  0  0  0  0  0  0  0
    0.2926    0.3968   -1.4764 H   0  0  0  0  0  0  0  0  0  0  0  0
    0.2563   -1.0497   -2.4867 H   0  0  0  0  0  0  0  0  0  0  0  0
    2.4927   -1.0675   -2.5898 H   0  0  0  0  0  0  0  0  0  0  0  0
    2.5001   -3.2128   -0.8083 N   0  0  0  0  0  0  0  0  0  0  0  0
    3.0796   -4.1460   -1.7855 C   0  0  2  0  0  0  0  0  0  0  0  0
    2.8066   -3.6823   -3.2377 C   0  0  0  0  0  0  0  0  0  0  0  0
    2.9014   -2.4881   -3.5134 O   0  0  0  0  0  0  0  0  0  0  0  0
    2.6463   -5.5934   -1.4974 C   0  0  0  0  0  0  0  0  0  0  0  0
    3.1258   -2.5021   -0.4188 H   0  0  0  0  0  0  0  0  0  0  0  0
    4.1658   -4.1129   -1.6587 H   0  0  0  0  0  0  0  0  0  0  0  0
    1.5904   -5.7496   -1.7372 H   0  0  0  0  0  0  0  0  0  0  0  0
    3.2424   -6.2935   -2.0903 H   0  0  0  0  0  0  0  0  0  0  0  0
    2.7973   -5.8256   -0.4387 H   0  0  0  0  0  0  0  0  0  0  0  0
    2.4800   -4.5780   -4.2397 N   0  0  0  0  0  0  0  0  0  0  0  0
    2.1013   -4.1600   -5.5838 C   0  0  0  0  0  0  0  0  0  0  0  0
    2.2580   -5.5245   -3.9453 H   0  0  0  0  0  0  0  0  0  0  0  0
    1.9190   -5.0356   -6.2140 H   0  0  0  0  0  0  0  0  0  0  0  0
    1.1878   -3.5568   -5.5529 H   0  0  0  0  0  0  0  0  0  0  0  0
    2.9004   -3.5674   -6.0419 H   0  0  0  0  0  0  0  0  0  0  0  0
  1  2  2  0  0  0  0
  1  3  1  0  0  0  0
  1  7  1  0  0  0  0
  3  4  1  0  0  0  0
  3  5  1  0  0  0  0
  3  6  1  0  0  0  0
  7  8  1  0  0  0  0
  7 12  1  0  0  0  0
  8  9  1  0  0  0  0
  8 11  1  0  0  0  0
  8 13  1  0  0  0  0
  9 10  2  0  0  0  0
  9 17  1  0  0  0  0
 11 14  1  0  0  0  0
 11 15  1  0  0  0  0
 11 16  1  0  0  0  0
 17 18  1  0  0  0  0
 17 23  1  0  0  0  0
 18 19  1  0  0  0  0
 18 21  1  0  0  0  0
 18 24  1  0  0  0  0
 19 20  2  0  0  0  0
 19 28  1  0  0  0  0
 21 22  1  0  0  0  0
 21 25  1  0  0  0  0
 21 26  1  0  0  0  0
 22 27  1  0  0  0  0
 28 29  1  0  0  0  0
 28 33  1  0  0  0  0
 29 30  1  0  0  0  0
 29 32  1  0  0  0  0
 29 34  1  0  0  0  0
 30 31  2  0  0  0  0
 30 38  1  0  0  0  0
 32 35  1  0  0  0  0
 32 36  1  0  0  0  0
 32 37  1  0  0  0  0
 38 39  1  0  0  0  0
 38 40  1  0  0  0  0
 39 41  1  0  0  0  0
 39 42  1  0  0  0  0
 39 43  1  0  0  0  0
M  END
$$$$

  -OEChem-05262217303D

 43 42  0     1  0  0  0  0  0999 V2000
    1.2845   -1.4324    3.2599 C   0  0  0  0  0  0  0  0  0  0  0  0
    0.4099   -0.6153    3.0092 O   0  0  0  0  0  0  0  0  0  0  0  0
    0.9353   -2.7652    3.8932 C   0  0  0  0  0  0  0  0  0  0  0  0
   -0.1059   -2.7621    4.2280 H   0  0  0  0  0  0  0  0  0  0  0  0
    1.0670   -3.5691    3.1639 H   0  0  0  0  0  0  0  0  0  0  0  0
    1.5803   -2.9540    4.7548 H   0  0  0  0  0  0  0  0  0  0  0  0
    2.5798   -1.1680    2.8617 N   0  0  0  0  0  0  0  0  0  0  0  0
    2.9724    0.0288    2.0988 C   0  0  2  0  0  0  0  0  0  0  0  0
    2.5482   -0.0805    0.6151 C   0  0  0  0  0  0  0  0  0  0  0  0
    3.3252    0.0851   -0.3159 O   0  0  0  0  0  0  0  0  0  0  0  0
    4.4829    0.2206    2.2764 C   0  0  0  0  0  0  0  0  0  0  0  0
    3.2556   -1.9205    2.9663 H   0  0  0  0  0  0  0  0  0  0  0  0
    2.4730    0.9099    2.5164 H   0  0  0  0  0  0  0  0  0  0  0  0
    5.0322   -0.6301    1.8625 H   0  0  0  0  0  0  0  0  0  0  0  0
    4.8135    1.1288    1.7620 H   0  0  0  0  0  0  0  0  0  0  0  0
    4.7328    0.3161    3.3376 H   0  0  0  0  0  0  0  0  0  0  0  0
    1.2239   -0.2714    0.2895 N   0  0  0  0  0  0  0  0  0  0  0  0
    0.7270   -1.4441   -0.4670 C   0  0  2  0  0  0  0  0  0  0  0  0
    1.4464   -2.8189   -0.3508 C   0  0  0  0  0  0  0  0  0  0  0  0
    0.7643   -3.7484    0.0466 O   0  0  0  0  0  0  0  0  0  0  0  0
    0.6076   -1.0475   -1.9442 C   0  0  0  0  0  0  0  0  0  0  0  0
    1.8907   -0.7774   -2.5140 O   0  0  0  0  0  0  0  0  0  0  0  0
    0.6504   -0.1059    1.1235 H   0  0  0  0  0  0  0  0  0  0  0  0
   -0.2921   -1.6263   -0.1092 H   0  0  0  0  0  0  0  0  0  0  0  0
   -0.0193   -0.1536   -2.0283 H   0  0  0  0  0  0  0  0  0  0  0  0
    0.1185   -1.8496   -2.5072 H   0  0  0  0  0  0  0  0  0  0  0  0
    2.4046   -0.2028   -1.8939 H   0  0  0  0  0  0  0  0  0  0  0  0
    2.7704   -3.1191   -0.1123 N   0  0  0  0  0  0  0  0  0  0  0  0
    3.7963   -2.9208   -1.1472 C   0  0  2  0  0  0  0  0  0  0  0  0
    3.5652   -3.8405   -2.3673 C   0  0  0  0  0  0  0  0  0  0  0  0
    3.9236   -5.0113   -2.3477 O   0  0  0  0  0  0  0  0  0  0  0  0
    5.1579   -3.1800   -0.4945 C   0  0  0  0  0  0  0  0  0  0  0  0
    2.8038   -4.0577    0.2822 H   0  0  0  0  0  0  0  0  0  0  0  0
    3.8090   -1.8995   -1.5178 H   0  0  0  0  0  0  0  0  0  0  0  0
    5.2106   -4.1983   -0.0960 H   0  0  0  0  0  0  0  0  0  0  0  0
    5.9591   -3.0541   -1.2296 H   0  0  0  0  0  0  0  0  0  0  0  0
    5.3268   -2.4751    0.3240 H   0  0  0  0  0  0  0  0  0  0  0  0
    2.9038   -3.3468   -3.4751 N   0  0  0  0  0  0  0  0  0  0  0  0
    2.5372   -4.1647   -4.6233 C   0  0  0  0  0  0  0  0  0  0  0  0
    2.5454   -2.3904   -3.4126 H   0  0  0  0  0  0  0  0  0  0  0  0
    3.4258   -4.6290   -5.0637 H   0  0  0  0  0  0  0  0  0  0  0  0
    1.8385   -4.9530   -4.3242 H   0  0  0  0  0  0  0  0  0  0  0  0
    2.0570   -3.5463   -5.3877 H   0  0  0  0  0  0  0  0  0  0  0  0
  1  2  2  0  0  0  0
  1  3  1  0  0  0  0
  1  7  1  0  0  0  0
  3  4  1  0  0  0  0
  3  5  1  0  0  0  0
  3  6  1  0  0  0  0
  7  8  1  0  0  0  0
  7 12  1  0  0  0  0
  8  9  1  0  0  0  0
  8 11  1  0  0  0  0
  8 13  1  0  0  0  0
  9 10  2  0  0  0  0
  9 17  1  0  0  0  0
 11 14  1  0  0  0  0
 11 15  1  0  0  0  0
 11 16  1  0  0  0  0
 17 18  1  0  0  0  0
 17 23  1  0  0  0  0
 18 19  1  0  0  0  0
 18 21  1  0  0  0  0
 18 24  1  0  0  0  0
 19 20  2  0  0  0  0
 19 28  1  0  0  0  0
 21 22  1  0  0  0  0
 21 25  1  0  0  0  0
 21 26  1  0  0  0  0
 22 27  1  0  0  0  0
 28 29  1  0  0  0  0
 28 33  1  0  0  0  0
 29 30  1  0  0  0  0
 29 32  1  0  0  0  0
 29 34  1  0  0  0  0
 30 31  2  0  0  0  0
 30 38  1  0  0  0  0
 32 35  1  0  0  0  0
 32 36  1  0  0  0  0
 32 37  1  0  0  0  0
 38 39  1  0  0  0  0
 38 40  1  0  0  0  0
 39 41  1  0  0  0  0
 39 42  1  0  0  0  0
 39 43  1  0  0  0  0
M  END
$$$$

  -OEChem-05262217303D

 43 42  0     1  0  0  0  0  0999 V2000
    3.3063   -0.1894    3.6879 C   0  0  0  0  0  0  0  0  0  0  0  0
    2.6688    0.6304    3.0446 O   0  0  0  0  0  0  0  0  0  0  0  0
    3.1438   -0.2794    5.1932 C   0  0  0  0  0  0  0  0  0  0  0  0
    4.1155   -0.1728    5.6819 H   0  0  0  0  0  0  0  0  0  0  0  0
    2.4832    0.5163    5.5491 H   0  0  0  0  0  0  0  0  0  0  0  0
    2.7100   -1.2448    5.4655 H   0  0  0  0  0  0  0  0  0  0  0  0
    4.1396   -1.0673    3.0253 N   0  0  0  0  0  0  0  0  0  0  0  0
    4.3914   -1.0311    1.5750 C   0  0  2  0  0  0  0  0  0  0  0  0
    3.2454   -1.6691    0.7482 C   0  0  0  0  0  0  0  0  0  0  0  0
    3.4720   -2.6246    0.0256 O   0  0  0  0  0  0  0  0  0  0  0  0
    5.7540   -1.6960    1.3368 C   0  0  0  0  0  0  0  0  0  0  0  0
    4.6102   -1.7746    3.5831 H   0  0  0  0  0  0  0  0  0  0  0  0
    4.4730    0.0113    1.2471 H   0  0  0  0  0  0  0  0  0  0  0  0
    5.7293   -2.7478    1.6395 H   0  0  0  0  0  0  0  0  0  0  0  0
    6.0193   -1.6466    0.2758 H   0  0  0  0  0  0  0  0  0  0  0  0
    6.5335   -1.1840    1.9092 H   0  0  0  0  0  0  0  0  0  0  0  0
    1.9974   -1.0846    0.8369 N   0  0  0  0  0  0  0  0  0  0  0  0
    0.6856   -1.3877    0.2116 C   0  0  2  0  0  0  0  0  0  0  0  0
    0.1641   -2.7916   -0.2231 C   0  0  0  0  0  0  0  0  0  0  0  0
   -1.0257   -2.9998   -0.0364 O   0  0  0  0  0  0  0  0  0  0  0  0
    0.3986   -0.3359   -0.8741 C   0  0  0  0  0  0  0  0  0  0  0  0
    1.3010   -0.3912   -1.9799 O   0  0  0  0  0  0  0  0  0  0  0  0
    1.9982   -0.2781    1.4686 H   0  0  0  0  0  0  0  0  0  0  0  0
   -0.0149   -1.1493    1.0182 H   0  0  0  0  0  0  0  0  0  0  0  0
    0.4655    0.6597   -0.4238 H   0  0  0  0  0  0  0  0  0  0  0  0
   -0.6260   -0.4581   -1.2418 H   0  0  0  0  0  0  0  0  0  0  0  0
    1.1429   -1.2045   -2.5218 H   0  0  0  0  0  0  0  0  0  0  0  0
    0.7722   -4.0141   -0.4164 N   0  0  0  0  0  0  0  0  0  0  0  0
    1.7167   -4.3592   -1.4941 C   0  0  2  0  0  0  0  0  0  0  0  0
    1.9992   -3.2861   -2.5709 C   0  0  0  0  0  0  0  0  0  0  0  0
    1.0827   -2.7587   -3.1944 O   0  0  0  0  0  0  0  0  0  0  0  0
    1.1449   -5.6024   -2.1831 C   0  0  0  0  0  0  0  0  0  0  0  0
    0.0586   -4.7238   -0.2777 H   0  0  0  0  0  0  0  0  0  0  0  0
    2.6701   -4.6455   -1.0429 H   0  0  0  0  0  0  0  0  0  0  0  0
    0.1753   -5.3770   -2.6401 H   0  0  0  0  0  0  0  0  0  0  0  0
    1.8251   -5.9491   -2.9676 H   0  0  0  0  0  0  0  0  0  0  0  0
    1.0107   -6.4136   -1.4610 H   0  0  0  0  0  0  0  0  0  0  0  0
    3.3026   -2.9414   -2.8703 N   0  0  0  0  0  0  0  0  0  0  0  0
    3.6556   -1.8989   -3.8277 C   0  0  0  0  0  0  0  0  0  0  0  0
    3.9636   -3.1354   -2.1183 H   0  0  0  0  0  0  0  0  0  0  0  0
    3.0917   -2.0186   -4.7589 H   0  0  0  0  0  0  0  0  0  0  0  0
    3.4462   -0.9076   -3.4143 H   0  0  0  0  0  0  0  0  0  0  0  0
    4.7218   -1.9560   -4.0670 H   0  0  0  0  0  0  0  0  0  0  0  0
  1  2  2  0  0  0  0
  1  3  1  0  0  0  0
  1  7  1  0  0  0  0
  3  4  1  0  0  0  0
  3  5  1  0  0  0  0
  3  6  1  0  0  0  0
  7  8  1  0  0  0  0
  7 12  1  0  0  0  0
  8  9  1  0  0  0  0
  8 11  1  0  0  0  0
  8 13  1  0  0  0  0
  9 10  2  0  0  0  0
  9 17  1  0  0  0  0
 11 14  1  0  0  0  0
 11 15  1  0  0  0  0
 11 16  1  0  0  0  0
 17 18  1  0  0  0  0
 17 23  1  0  0  0  0
 18 19  1  0  0  0  0
 18 21  1  0  0  0  0
 18 24  1  0  0  0  0
 19 20  2  0  0  0  0
 19 28  1  0  0  0  0
 21 22  1  0  0  0  0
 21 25  1  0  0  0  0
 21 26  1  0  0  0  0
 22 27  1  0  0  0  0
 28 29  1  0  0  0  0
 28 33  1  0  0  0  0
 29 30  1  0  0  0  0
 29 32  1  0  0  0  0
 29 34  1  0  0  0  0
 30 31  2  0  0  0  0
 30 38  1  0  0  0  0
 32 35  1  0  0  0  0
 32 36  1  0  0  0  0
 32 37  1  0  0  0  0
 38 39  1  0  0  0  0
 38 40  1  0  0  0  0
 39 41  1  0  0  0  0
 39 42  1  0  0  0  0
 39 43  1  0  0  0  0
M  END
$$$$

  -OEChem-05262217303D

 43 42  0     1  0  0  0  0  0999 V2000
    3.3854   -0.7524    4.6314 C   0  0  0  0  0  0  0  0  0  0  0  0
    2.2736   -0.4195    5.0116 O   0  0  0  0  0  0  0  0  0  0  0  0
    4.2641   -1.6177    5.5154 C   0  0  0  0  0  0  0  0  0  0  0  0
    5.1858   -1.0848    5.7612 H   0  0  0  0  0  0  0  0  0  0  0  0
    3.7403   -1.8624    6.4439 H   0  0  0  0  0  0  0  0  0  0  0  0
    4.5156   -2.5468    4.9977 H   0  0  0  0  0  0  0  0  0  0  0  0
    3.8382   -0.3639    3.3874 N   0  0  0  0  0  0  0  0  0  0  0  0
    2.9624    0.2436    2.3754 C   0  0  2  0  0  0  0  0  0  0  0  0
    2.3361   -0.8021    1.4277 C   0  0  0  0  0  0  0  0  0  0  0  0
    2.9575   -1.8286    1.1913 O   0  0  0  0  0  0  0  0  0  0  0  0
    3.8018    1.2389    1.5713 C   0  0  0  0  0  0  0  0  0  0  0  0
    4.6629   -0.8510    3.0459 H   0  0  0  0  0  0  0  0  0  0  0  0
    2.1507    0.7946    2.8619 H   0  0  0  0  0  0  0  0  0  0  0  0
    4.6223    0.7246    1.0601 H   0  0  0  0  0  0  0  0  0  0  0  0
    3.1855    1.7374    0.8165 H   0  0  0  0  0  0  0  0  0  0  0  0
    4.2243    2.0017    2.2326 H   0  0  0  0  0  0  0  0  0  0  0  0
    1.1200   -0.5090    0.8288 N   0  0  0  0  0  0  0  0  0  0  0  0
    0.4603   -1.0954   -0.3711 C   0  0  2  0  0  0  0  0  0  0  0  0
    0.6256   -2.5562   -0.8623 C   0  0  0  0  0  0  0  0  0  0  0  0
   -0.0255   -2.8940   -1.8450 O   0  0  0  0  0  0  0  0  0  0  0  0
    0.9159   -0.1940   -1.5383 C   0  0  0  0  0  0  0  0  0  0  0  0
    2.3304   -0.3000   -1.7729 O   0  0  0  0  0  0  0  0  0  0  0  0
    0.7496    0.3922    1.1158 H   0  0  0  0  0  0  0  0  0  0  0  0
   -0.6178   -0.9768   -0.2317 H   0  0  0  0  0  0  0  0  0  0  0  0
    0.6714    0.8480   -1.3088 H   0  0  0  0  0  0  0  0  0  0  0  0
    0.3762   -0.4538   -2.4554 H   0  0  0  0  0  0  0  0  0  0  0  0
    2.6004   -1.2200   -2.0222 H   0  0  0  0  0  0  0  0  0  0  0  0
    1.4134   -3.5127   -0.2513 N   0  0  0  0  0  0  0  0  0  0  0  0
    2.0638   -4.5829   -1.0289 C   0  0  2  0  0  0  0  0  0  0  0  0
    2.8001   -4.0549   -2.2940 C   0  0  0  0  0  0  0  0  0  0  0  0
    3.1872   -2.8886   -2.3566 O   0  0  0  0  0  0  0  0  0  0  0  0
    1.0604   -5.7069   -1.3383 C   0  0  0  0  0  0  0  0  0  0  0  0
    1.9926   -3.1107    0.4882 H   0  0  0  0  0  0  0  0  0  0  0  0
    2.8394   -5.0147   -0.3895 H   0  0  0  0  0  0  0  0  0  0  0  0
    0.3492   -5.4007   -2.1113 H   0  0  0  0  0  0  0  0  0  0  0  0
    1.5831   -6.6023   -1.6864 H   0  0  0  0  0  0  0  0  0  0  0  0
    0.4986   -5.9677   -0.4361 H   0  0  0  0  0  0  0  0  0  0  0  0
    3.0945   -4.9000   -3.3497 N   0  0  0  0  0  0  0  0  0  0  0  0
    3.7251   -4.4437   -4.5829 C   0  0  0  0  0  0  0  0  0  0  0  0
    2.6845   -5.8284   -3.3255 H   0  0  0  0  0  0  0  0  0  0  0  0
    3.8763   -5.2859   -5.2650 H   0  0  0  0  0  0  0  0  0  0  0  0
    3.0941   -3.7009   -5.0824 H   0  0  0  0  0  0  0  0  0  0  0  0
    4.7006   -3.9928   -4.3718 H   0  0  0  0  0  0  0  0  0  0  0  0
  1  2  2  0  0  0  0
  1  3  1  0  0  0  0
  1  7  1  0  0  0  0
  3  4  1  0  0  0  0
  3  5  1  0  0  0  0
  3  6  1  0  0  0  0
  7  8  1  0  0  0  0
  7 12  1  0  0  0  0
  8  9  1  0  0  0  0
  8 11  1  0  0  0  0
  8 13  1  0  0  0  0
  9 10  2  0  0  0  0
  9 17  1  0  0  0  0
 11 14  1  0  0  0  0
 11 15  1  0  0  0  0
 11 16  1  0  0  0  0
 17 18  1  0  0  0  0
 17 23  1  0  0  0  0
 18 19  1  0  0  0  0
 18 21  1  0  0  0  0
 18 24  1  0  0  0  0
 19 20  2  0  0  0  0
 19 28  1  0  0  0  0
 21 22  1  0  0  0  0
 21 25  1  0  0  0  0
 21 26  1  0  0  0  0
 22 27  1  0  0  0  0
 28 29  1  0  0  0  0
 28 33  1  0  0  0  0
 29 30  1  0  0  0  0
 29 32  1  0  0  0  0
 29 34  1  0  0  0  0
 30 31  2  0  0  0  0
 30 38  1  0  0  0  0
 32 35  1  0  0  0  0
 32 36  1  0  0  0  0
 32 37  1  0  0  0  0
 38 39  1  0  0  0  0
 38 40  1  0  0  0  0
 39 41  1  0  0  0  0
 39 42  1  0  0  0  0
 39 43  1  0  0  0  0
M  END
$$$$

  -OEChem-05262217303D

 43 42  0     1  0  0  0  0  0999 V2000
    3.4202   -0.7424    4.5953 C   0  0  0  0  0  0  0  0  0  0  0  0
    2.3896   -0.2575    5.0355 O   0  0  0  0  0  0  0  0  0  0  0  0
    4.2578   -1.6622    5.4639 C   0  0  0  0  0  0  0  0  0  0  0  0
    5.2758   -1.2739    5.5469 H   0  0  0  0  0  0  0  0  0  0  0  0
    3.8250   -1.7318    6.4659 H   0  0  0  0  0  0  0  0  0  0  0  0
    4.2907   -2.6621    5.0240 H   0  0  0  0  0  0  0  0  0  0  0  0
    3.8124   -0.4834    3.2984 N   0  0  0  0  0  0  0  0  0  0  0  0
    2.9304    0.1539    2.3096 C   0  0  2  0  0  0  0  0  0  0  0  0
    2.1857   -0.8770    1.4344 C   0  0  0  0  0  0  0  0  0  0  0  0
    2.6806   -1.9831    1.2707 O   0  0  0  0  0  0  0  0  0  0  0  0
    3.7950    1.0586    1.4288 C   0  0  0  0  0  0  0  0  0  0  0  0
    4.5420   -1.0895    2.9312 H   0  0  0  0  0  0  0  0  0  0  0  0
    2.1839    0.7775    2.8125 H   0  0  0  0  0  0  0  0  0  0  0  0
    4.5457    0.4684    0.8926 H   0  0  0  0  0  0  0  0  0  0  0  0
    3.1765    1.5793    0.6908 H   0  0  0  0  0  0  0  0  0  0  0  0
    4.3088    1.8070    2.0404 H   0  0  0  0  0  0  0  0  0  0  0  0
    0.9836   -0.5129    0.8463 N   0  0  0  0  0  0  0  0  0  0  0  0
    0.3421   -1.0262   -0.3966 C   0  0  2  0  0  0  0  0  0  0  0  0
    0.5113   -2.4680   -0.9391 C   0  0  0  0  0  0  0  0  0  0  0  0
    0.0430   -2.7262   -2.0431 O   0  0  0  0  0  0  0  0  0  0  0  0
    0.8837   -0.0899   -1.4993 C   0  0  0  0  0  0  0  0  0  0  0  0
    2.3030   -0.2553   -1.6729 O   0  0  0  0  0  0  0  0  0  0  0  0
    0.7000    0.4283    1.1025 H   0  0  0  0  0  0  0  0  0  0  0  0
   -0.7376   -0.8847   -0.2960 H   0  0  0  0  0  0  0  0  0  0  0  0
    0.6760    0.9508   -1.2303 H   0  0  0  0  0  0  0  0  0  0  0  0
    0.3751   -0.2780   -2.4509 H   0  0  0  0  0  0  0  0  0  0  0  0
    2.5462   -1.1903   -1.8813 H   0  0  0  0  0  0  0  0  0  0  0  0
    1.0254   -3.5164   -0.2017 N   0  0  0  0  0  0  0  0  0  0  0  0
    1.7371   -4.6208   -0.8727 C   0  0  2  0  0  0  0  0  0  0  0  0
    2.7394   -4.1514   -1.9709 C   0  0  0  0  0  0  0  0  0  0  0  0
    3.1988   -3.0093   -1.9750 O   0  0  0  0  0  0  0  0  0  0  0  0
    0.7251   -5.6563   -1.3903 C   0  0  0  0  0  0  0  0  0  0  0  0
    1.4867   -3.1749    0.6445 H   0  0  0  0  0  0  0  0  0  0  0  0
    2.3443   -5.1175   -0.1101 H   0  0  0  0  0  0  0  0  0  0  0  0
    0.1828   -5.2753   -2.2609 H   0  0  0  0  0  0  0  0  0  0  0  0
    1.2341   -6.5807   -1.6771 H   0  0  0  0  0  0  0  0  0  0  0  0
   -0.0020   -5.8956   -0.6082 H   0  0  0  0  0  0  0  0  0  0  0  0
    3.1817   -5.0352   -2.9399 N   0  0  0  0  0  0  0  0  0  0  0  0
    4.0542   -4.6424   -4.0401 C   0  0  0  0  0  0  0  0  0  0  0  0
    2.7177   -5.9367   -2.9851 H   0  0  0  0  0  0  0  0  0  0  0  0
    3.5595   -3.8985   -4.6735 H   0  0  0  0  0  0  0  0  0  0  0  0
    4.9873   -4.2152   -3.6574 H   0  0  0  0  0  0  0  0  0  0  0  0
    4.3021   -5.5127   -4.6552 H   0  0  0  0  0  0  0  0  0  0  0  0
  1  2  2  0  0  0  0
  1  3  1  0  0  0  0
  1  7  1  0  0  0  0
  3  4  1  0  0  0  0
  3  5  1  0  0  0  0
  3  6  1  0  0  0  0
  7  8  1  0  0  0  0
  7 12  1  0  0  0  0
  8  9  1  0  0  0  0
  8 11  1  0  0  0  0
  8 13  1  0  0  0  0
  9 10  2  0  0  0  0
  9 17  1  0  0  0  0
 11 14  1  0  0  0  0
 11 15  1  0  0  0  0
 11 16  1  0  0  0  0
 17 18  1  0  0  0  0
 17 23  1  0  0  0  0
 18 19  1  0  0  0  0
 18 21  1  0  0  0  0
 18 24  1  0  0  0  0
 19 20  2  0  0  0  0
 19 28  1  0  0  0  0
 21 22  1  0  0  0  0
 21 25  1  0  0  0  0
 21 26  1  0  0  0  0
 22 27  1  0  0  0  0
 28 29  1  0  0  0  0
 28 33  1  0  0  0  0
 29 30  1  0  0  0  0
 29 32  1  0  0  0  0
 29 34  1  0  0  0  0
 30 31  2  0  0  0  0
 30 38  1  0  0  0  0
 32 35  1  0  0  0  0
 32 36  1  0  0  0  0
 32 37  1  0  0  0  0
 38 39  1  0  0  0  0
 38 40  1  0  0  0  0
 39 41  1  0  0  0  0
 39 42  1  0  0  0  0
 39 43  1  0  0  0  0
M  END
$$$$

  -OEChem-05262217303D

 43 42  0     1  0  0  0  0  0999 V2000
    3.0235   -1.2338    3.9754 C   0  0  0  0  0  0  0  0  0  0  0  0
    1.8046   -1.1537    4.0175 O   0  0  0  0  0  0  0  0  0  0  0  0
    3.7602   -2.2203    4.8609 C   0  0  0  0  0  0  0  0  0  0  0  0
    4.5083   -1.6974    5.4617 H   0  0  0  0  0  0  0  0  0  0  0  0
    3.0580   -2.7219    5.5328 H   0  0  0  0  0  0  0  0  0  0  0  0
    4.2585   -2.9739    4.2460 H   0  0  0  0  0  0  0  0  0  0  0  0
    3.7223   -0.4567    3.0753 N   0  0  0  0  0  0  0  0  0  0  0  0
    3.0406    0.3456    2.0521 C   0  0  2  0  0  0  0  0  0  0  0  0
    2.4482   -0.5376    0.9335 C   0  0  0  0  0  0  0  0  0  0  0  0
    3.1670   -1.3497    0.3681 O   0  0  0  0  0  0  0  0  0  0  0  0
    4.0473    1.3441    1.4756 C   0  0  0  0  0  0  0  0  0  0  0  0
    4.6907   -0.7180    2.9087 H   0  0  0  0  0  0  0  0  0  0  0  0
    2.2265    0.9122    2.5166 H   0  0  0  0  0  0  0  0  0  0  0  0
    4.8815    0.8191    0.9989 H   0  0  0  0  0  0  0  0  0  0  0  0
    3.5652    1.9783    0.7248 H   0  0  0  0  0  0  0  0  0  0  0  0
    4.4449    1.9855    2.2682 H   0  0  0  0  0  0  0  0  0  0  0  0
    1.1181   -0.3968    0.5724 N   0  0  0  0  0  0  0  0  0  0  0  0
    0.3812   -1.0936   -0.5124 C   0  0  2  0  0  0  0  0  0  0  0  0
    0.7935   -2.5317   -0.9308 C   0  0  0  0  0  0  0  0  0  0  0  0
    0.5488   -2.9285   -2.0645 O   0  0  0  0  0  0  0  0  0  0  0  0
    0.3697   -0.1450   -1.7268 C   0  0  0  0  0  0  0  0  0  0  0  0
    1.6884    0.0562   -2.2486 O   0  0  0  0  0  0  0  0  0  0  0  0
    0.6008    0.2926    1.1112 H   0  0  0  0  0  0  0  0  0  0  0  0
   -0.6520   -1.2035   -0.1721 H   0  0  0  0  0  0  0  0  0  0  0  0
   -0.0473    0.8224   -1.4291 H   0  0  0  0  0  0  0  0  0  0  0  0
   -0.2781   -0.5460   -2.5136 H   0  0  0  0  0  0  0  0  0  0  0  0
    2.0896   -0.7966   -2.4999 H   0  0  0  0  0  0  0  0  0  0  0  0
    1.3508   -3.4072   -0.0139 N   0  0  0  0  0  0  0  0  0  0  0  0
    1.7592   -4.8085   -0.2415 C   0  0  2  0  0  0  0  0  0  0  0  0
    2.9458   -4.9876   -1.2163 C   0  0  0  0  0  0  0  0  0  0  0  0
    3.9182   -5.6456   -0.8682 O   0  0  0  0  0  0  0  0  0  0  0  0
    0.5653   -5.6782   -0.6607 C   0  0  0  0  0  0  0  0  0  0  0  0
    1.8124   -2.9247    0.7572 H   0  0  0  0  0  0  0  0  0  0  0  0
    2.1028   -5.1926    0.7244 H   0  0  0  0  0  0  0  0  0  0  0  0
    0.2267   -5.4323   -1.6711 H   0  0  0  0  0  0  0  0  0  0  0  0
    0.8500   -6.7348   -0.6466 H   0  0  0  0  0  0  0  0  0  0  0  0
   -0.2698   -5.5353    0.0316 H   0  0  0  0  0  0  0  0  0  0  0  0
    2.9172   -4.4440   -2.4850 N   0  0  0  0  0  0  0  0  0  0  0  0
    4.0122   -4.5380   -3.4399 C   0  0  0  0  0  0  0  0  0  0  0  0
    2.0862   -3.8959   -2.7189 H   0  0  0  0  0  0  0  0  0  0  0  0
    4.9065   -4.0445   -3.0454 H   0  0  0  0  0  0  0  0  0  0  0  0
    4.2501   -5.5861   -3.6489 H   0  0  0  0  0  0  0  0  0  0  0  0
    3.7342   -4.0530   -4.3805 H   0  0  0  0  0  0  0  0  0  0  0  0
  1  2  2  0  0  0  0
  1  3  1  0  0  0  0
  1  7  1  0  0  0  0
  3  4  1  0  0  0  0
  3  5  1  0  0  0  0
  3  6  1  0  0  0  0
  7  8  1  0  0  0  0
  7 12  1  0  0  0  0
  8  9  1  0  0  0  0
  8 11  1  0  0  0  0
  8 13  1  0  0  0  0
  9 10  2  0  0  0  0
  9 17  1  0  0  0  0
 11 14  1  0  0  0  0
 11 15  1  0  0  0  0
 11 16  1  0  0  0  0
 17 18  1  0  0  0  0
 17 23  1  0  0  0  0
 18 19  1  0  0  0  0
 18 21  1  0  0  0  0
 18 24  1  0  0  0  0
 19 20  2  0  0  0  0
 19 28  1  0  0  0  0
 21 22  1  0  0  0  0
 21 25  1  0  0  0  0
 21 26  1  0  0  0  0
 22 27  1  0  0  0  0
 28 29  1  0  0  0  0
 28 33  1  0  0  0  0
 29 30  1  0  0  0  0
 29 32  1  0  0  0  0
 29 34  1  0  0  0  0
 30 31  2  0  0  0  0
 30 38  1  0  0  0  0
 32 35  1  0  0  0  0
 32 36  1  0  0  0  0
 32 37  1  0  0  0  0
 38 39  1  0  0  0  0
 38 40  1  0  0  0  0
 39 41  1  0  0  0  0
 39 42  1  0  0  0  0
 39 43  1  0  0  0  0
M  END
$$$$

  -OEChem-05262217303D

 43 42  0     1  0  0  0  0  0999 V2000
    2.8088   -2.0419    2.9611 C   0  0  0  0  0  0  0  0  0  0  0  0
    1.6016   -1.8404    2.8869 O   0  0  0  0  0  0  0  0  0  0  0  0
    3.3392   -3.2880    3.6437 C   0  0  0  0  0  0  0  0  0  0  0  0
    3.7267   -3.0346    4.6332 H   0  0  0  0  0  0  0  0  0  0  0  0
    2.5422   -4.0282    3.7533 H   0  0  0  0  0  0  0  0  0  0  0  0
    4.1446   -3.7288    3.0506 H   0  0  0  0  0  0  0  0  0  0  0  0
    3.6808   -1.1293    2.4043 N   0  0  0  0  0  0  0  0  0  0  0  0
    3.2209    0.0362    1.6356 C   0  0  2  0  0  0  0  0  0  0  0  0
    2.4679   -0.3828    0.3550 C   0  0  0  0  0  0  0  0  0  0  0  0
    3.0393   -1.0660   -0.4851 O   0  0  0  0  0  0  0  0  0  0  0  0
    4.4408    0.8954    1.2937 C   0  0  0  0  0  0  0  0  0  0  0  0
    4.6309   -1.4591    2.2508 H   0  0  0  0  0  0  0  0  0  0  0  0
    2.5445    0.6320    2.2565 H   0  0  0  0  0  0  0  0  0  0  0  0
    5.1475    0.3334    0.6737 H   0  0  0  0  0  0  0  0  0  0  0  0
    4.1328    1.7889    0.7415 H   0  0  0  0  0  0  0  0  0  0  0  0
    4.9524    1.2119    2.2079 H   0  0  0  0  0  0  0  0  0  0  0  0
    1.1266   -0.0584    0.2016 N   0  0  0  0  0  0  0  0  0  0  0  0
    0.1810   -0.8179   -0.6517 C   0  0  2  0  0  0  0  0  0  0  0  0
    0.4762   -2.3330   -0.7985 C   0  0  0  0  0  0  0  0  0  0  0  0
    0.5163   -2.8735   -1.8987 O   0  0  0  0  0  0  0  0  0  0  0  0
    0.0399   -0.1042   -2.0100 C   0  0  0  0  0  0  0  0  0  0  0  0
    1.2590   -0.1275   -2.7572 O   0  0  0  0  0  0  0  0  0  0  0  0
    0.7260    0.4545    0.9818 H   0  0  0  0  0  0  0  0  0  0  0  0
   -0.7996   -0.7725   -0.1710 H   0  0  0  0  0  0  0  0  0  0  0  0
   -0.2648    0.9352   -1.8516 H   0  0  0  0  0  0  0  0  0  0  0  0
   -0.7471   -0.5923   -2.5949 H   0  0  0  0  0  0  0  0  0  0  0  0
    1.6522   -1.0221   -2.7208 H   0  0  0  0  0  0  0  0  0  0  0  0
    0.7959   -3.0561    0.3417 N   0  0  0  0  0  0  0  0  0  0  0  0
    1.3599   -4.4163    0.4036 C   0  0  2  0  0  0  0  0  0  0  0  0
    2.7996   -4.4951   -0.1483 C   0  0  0  0  0  0  0  0  0  0  0  0
    3.7232   -4.7496    0.6175 O   0  0  0  0  0  0  0  0  0  0  0  0
    0.4402   -5.4574   -0.2499 C   0  0  0  0  0  0  0  0  0  0  0  0
    0.8835   -2.4970    1.1949 H   0  0  0  0  0  0  0  0  0  0  0  0
    1.4220   -4.6816    1.4636 H   0  0  0  0  0  0  0  0  0  0  0  0
    0.4180   -5.3472   -1.3375 H   0  0  0  0  0  0  0  0  0  0  0  0
    0.7965   -6.4660   -0.0188 H   0  0  0  0  0  0  0  0  0  0  0  0
   -0.5799   -5.3540    0.1318 H   0  0  0  0  0  0  0  0  0  0  0  0
    3.0570   -4.2186   -1.4757 N   0  0  0  0  0  0  0  0  0  0  0  0
    4.4002   -3.9933   -1.9892 C   0  0  0  0  0  0  0  0  0  0  0  0
    2.2690   -3.8108   -1.9846 H   0  0  0  0  0  0  0  0  0  0  0  0
    4.8507   -3.1190   -1.5080 H   0  0  0  0  0  0  0  0  0  0  0  0
    5.0344   -4.8662   -1.8036 H   0  0  0  0  0  0  0  0  0  0  0  0
    4.3647   -3.8162   -3.0682 H   0  0  0  0  0  0  0  0  0  0  0  0
  1  2  2  0  0  0  0
  1  3  1  0  0  0  0
  1  7  1  0  0  0  0
  3  4  1  0  0  0  0
  3  5  1  0  0  0  0
  3  6  1  0  0  0  0
  7  8  1  0  0  0  0
  7 12  1  0  0  0  0
  8  9  1  0  0  0  0
  8 11  1  0  0  0  0
  8 13  1  0  0  0  0
  9 10  2  0  0  0  0
  9 17  1  0  0  0  0
 11 14  1  0  0  0  0
 11 15  1  0  0  0  0
 11 16  1  0  0  0  0
 17 18  1  0  0  0  0
 17 23  1  0  0  0  0
 18 19  1  0  0  0  0
 18 21  1  0  0  0  0
 18 24  1  0  0  0  0
 19 20  2  0  0  0  0
 19 28  1  0  0  0  0
 21 22  1  0  0  0  0
 21 25  1  0  0  0  0
 21 26  1  0  0  0  0
 22 27  1  0  0  0  0
 28 29  1  0  0  0  0
 28 33  1  0  0  0  0
 29 30  1  0  0  0  0
 29 32  1  0  0  0  0
 29 34  1  0  0  0  0
 30 31  2  0  0  0  0
 30 38  1  0  0  0  0
 32 35  1  0  0  0  0
 32 36  1  0  0  0  0
 32 37  1  0  0  0  0
 38 39  1  0  0  0  0
 38 40  1  0  0  0  0
 39 41  1  0  0  0  0
 39 42  1  0  0  0  0
 39 43  1  0  0  0  0
M  END
$$$$

  -OEChem-05262217303D

 43 42  0     1  0  0  0  0  0999 V2000
    2.5630   -2.1432    2.8834 C   0  0  0  0  0  0  0  0  0  0  0  0
    1.3998   -1.7718    2.7682 O   0  0  0  0  0  0  0  0  0  0  0  0
    2.8810   -3.4162    3.6442 C   0  0  0  0  0  0  0  0  0  0  0  0
    3.0239   -3.1906    4.7036 H   0  0  0  0  0  0  0  0  0  0  0  0
    2.0618   -4.1320    3.5382 H   0  0  0  0  0  0  0  0  0  0  0  0
    3.7937   -3.8745    3.2547 H   0  0  0  0  0  0  0  0  0  0  0  0
    3.5759   -1.3898    2.3256 N   0  0  0  0  0  0  0  0  0  0  0  0
    3.3443   -0.1501    1.5689 C   0  0  2  0  0  0  0  0  0  0  0  0
    2.5266   -0.3962    0.2817 C   0  0  0  0  0  0  0  0  0  0  0  0
    3.0353   -0.9882   -0.6609 O   0  0  0  0  0  0  0  0  0  0  0  0
    4.7071    0.4732    1.2517 C   0  0  0  0  0  0  0  0  0  0  0  0
    4.4819   -1.8451    2.2414 H   0  0  0  0  0  0  0  0  0  0  0  0
    2.7887    0.5545    2.1960 H   0  0  0  0  0  0  0  0  0  0  0  0
    5.3135   -0.2086    0.6460 H   0  0  0  0  0  0  0  0  0  0  0  0
    4.5757    1.4059    0.6942 H   0  0  0  0  0  0  0  0  0  0  0  0
    5.2488    0.6953    2.1762 H   0  0  0  0  0  0  0  0  0  0  0  0
    1.1832   -0.0472    0.2603 N   0  0  0  0  0  0  0  0  0  0  0  0
    0.1636   -0.7257   -0.5728 C   0  0  2  0  0  0  0  0  0  0  0  0
    0.4516   -2.2209   -0.8451 C   0  0  0  0  0  0  0  0  0  0  0  0
    0.6139   -2.6579   -1.9800 O   0  0  0  0  0  0  0  0  0  0  0  0
   -0.0731    0.0795   -1.8646 C   0  0  0  0  0  0  0  0  0  0  0  0
    1.0811    0.0949   -2.7080 O   0  0  0  0  0  0  0  0  0  0  0  0
    0.8527    0.3317    1.1442 H   0  0  0  0  0  0  0  0  0  0  0  0
   -0.7783   -0.7110   -0.0184 H   0  0  0  0  0  0  0  0  0  0  0  0
   -0.3495    1.1084   -1.6137 H   0  0  0  0  0  0  0  0  0  0  0  0
   -0.9103   -0.3628   -2.4148 H   0  0  0  0  0  0  0  0  0  0  0  0
    1.4671   -0.8047   -2.7491 H   0  0  0  0  0  0  0  0  0  0  0  0
    0.5463   -3.0619    0.2530 N   0  0  0  0  0  0  0  0  0  0  0  0
    1.0606   -4.4435    0.2525 C   0  0  2  0  0  0  0  0  0  0  0  0
    2.5649   -4.5226   -0.0904 C   0  0  0  0  0  0  0  0  0  0  0  0
    3.3629   -4.8415    0.7845 O   0  0  0  0  0  0  0  0  0  0  0  0
    0.2217   -5.3751   -0.6347 C   0  0  0  0  0  0  0  0  0  0  0  0
    0.5760   -2.5733    1.1525 H   0  0  0  0  0  0  0  0  0  0  0  0
    0.9577   -4.8184    1.2756 H   0  0  0  0  0  0  0  0  0  0  0  0
    0.3633   -5.1560   -1.6966 H   0  0  0  0  0  0  0  0  0  0  0  0
    0.5132   -6.4156   -0.4629 H   0  0  0  0  0  0  0  0  0  0  0  0
   -0.8407   -5.2687   -0.3961 H   0  0  0  0  0  0  0  0  0  0  0  0
    3.0254   -4.1521   -1.3370 N   0  0  0  0  0  0  0  0  0  0  0  0
    4.4363   -3.9440   -1.6290 C   0  0  0  0  0  0  0  0  0  0  0  0
    2.3383   -3.6620   -1.9156 H   0  0  0  0  0  0  0  0  0  0  0  0
    4.8448   -3.1485   -0.9972 H   0  0  0  0  0  0  0  0  0  0  0  0
    5.0047   -4.8630   -1.4535 H   0  0  0  0  0  0  0  0  0  0  0  0
    4.5631   -3.6543   -2.6763 H   0  0  0  0  0  0  0  0  0  0  0  0
  1  2  2  0  0  0  0
  1  3  1  0  0  0  0
  1  7  1  0  0  0  0
  3  4  1  0  0  0  0
  3  5  1  0  0  0  0
  3  6  1  0  0  0  0
  7  8  1  0  0  0  0
  7 12  1  0  0  0  0
  8  9  1  0  0  0  0
  8 11  1  0  0  0  0
  8 13  1  0  0  0  0
  9 10  2  0  0  0  0
  9 17  1  0  0  0  0
 11 14  1  0  0  0  0
 11 15  1  0  0  0  0
 11 16  1  0  0  0  0
 17 18  1  0  0  0  0
 17 23  1  0  0  0  0
 18 19  1  0  0  0  0
 18 21  1  0  0  0  0
 18 24  1  0  0  0  0
 19 20  2  0  0  0  0
 19 28  1  0  0  0  0
 21 22  1  0  0  0  0
 21 25  1  0  0  0  0
 21 26  1  0  0  0  0
 22 27  1  0  0  0  0
 28 29  1  0  0  0  0
 28 33  1  0  0  0  0
 29 30  1  0  0  0  0
 29 32  1  0  0  0  0
 29 34  1  0  0  0  0
 30 31  2  0  0  0  0
 30 38  1  0  0  0  0
 32 35  1  0  0  0  0
 32 36  1  0  0  0  0
 32 37  1  0  0  0  0
 38 39  1  0  0  0  0
 38 40  1  0  0  0  0
 39 41  1  0  0  0  0
 39 42  1  0  0  0  0
 39 43  1  0  0  0  0
M  END
$$$$

  -OEChem-05262217303D

 43 42  0     1  0  0  0  0  0999 V2000
    2.3142   -2.2476    2.7888 C   0  0  0  0  0  0  0  0  0  0  0  0
    1.2154   -1.7207    2.6547 O   0  0  0  0  0  0  0  0  0  0  0  0
    2.4383   -3.5336    3.5834 C   0  0  0  0  0  0  0  0  0  0  0  0
    2.4835   -3.3079    4.6514 H   0  0  0  0  0  0  0  0  0  0  0  0
    1.5779   -4.1794    3.3898 H   0  0  0  0  0  0  0  0  0  0  0  0
    3.3458   -4.0721    3.2987 H   0  0  0  0  0  0  0  0  0  0  0  0
    3.4333   -1.6565    2.2369 N   0  0  0  0  0  0  0  0  0  0  0  0
    3.4382   -0.3622    1.5345 C   0  0  2  0  0  0  0  0  0  0  0  0
    2.6025   -0.3845    0.2339 C   0  0  0  0  0  0  0  0  0  0  0  0
    3.0730   -0.8512   -0.7948 O   0  0  0  0  0  0  0  0  0  0  0  0
    4.8995    0.0102    1.2589 C   0  0  0  0  0  0  0  0  0  0  0  0
    4.2805   -2.2194    2.2201 H   0  0  0  0  0  0  0  0  0  0  0  0
    3.0145    0.4045    2.1910 H   0  0  0  0  0  0  0  0  0  0  0  0
    5.3813   -0.7485    0.6332 H   0  0  0  0  0  0  0  0  0  0  0  0
    4.9538    0.9714    0.7377 H   0  0  0  0  0  0  0  0  0  0  0  0
    5.4561    0.0938    2.1973 H   0  0  0  0  0  0  0  0  0  0  0  0
    1.2678   -0.0144    0.3104 N   0  0  0  0  0  0  0  0  0  0  0  0
    0.1971   -0.6134   -0.5159 C   0  0  2  0  0  0  0  0  0  0  0  0
    0.4632   -2.0847   -0.9045 C   0  0  0  0  0  0  0  0  0  0  0  0
    0.7444   -2.4187   -2.0511 O   0  0  0  0  0  0  0  0  0  0  0  0
   -0.0929    0.2822   -1.7352 C   0  0  0  0  0  0  0  0  0  0  0  0
    1.0145    0.3432   -2.6370 O   0  0  0  0  0  0  0  0  0  0  0  0
    0.9913    0.2109    1.2643 H   0  0  0  0  0  0  0  0  0  0  0  0
   -0.7174   -0.6258    0.0831 H   0  0  0  0  0  0  0  0  0  0  0  0
   -0.3442    1.2943   -1.4018 H   0  0  0  0  0  0  0  0  0  0  0  0
   -0.9617   -0.1163   -2.2694 H   0  0  0  0  0  0  0  0  0  0  0  0
    1.4175   -0.5481   -2.7172 H   0  0  0  0  0  0  0  0  0  0  0  0
    0.2949   -3.0411    0.0845 N   0  0  0  0  0  0  0  0  0  0  0  0
    0.7567   -4.4405    0.0066 C   0  0  2  0  0  0  0  0  0  0  0  0
    2.2932   -4.5622   -0.1269 C   0  0  0  0  0  0  0  0  0  0  0  0
    2.9427   -5.0077    0.8125 O   0  0  0  0  0  0  0  0  0  0  0  0
    0.0257   -5.2307   -1.0889 C   0  0  0  0  0  0  0  0  0  0  0  0
    0.2318   -2.6451    1.0255 H   0  0  0  0  0  0  0  0  0  0  0  0
    0.4924   -4.9141    0.9576 H   0  0  0  0  0  0  0  0  0  0  0  0
    0.3291   -4.9073   -2.0885 H   0  0  0  0  0  0  0  0  0  0  0  0
    0.2531   -6.2969   -0.9949 H   0  0  0  0  0  0  0  0  0  0  0  0
   -1.0562   -5.0982   -0.9944 H   0  0  0  0  0  0  0  0  0  0  0  0
    2.9553   -4.0688   -1.2325 N   0  0  0  0  0  0  0  0  0  0  0  0
    4.4006   -3.9030   -1.2891 C   0  0  0  0  0  0  0  0  0  0  0  0
    2.3838   -3.4879   -1.8530 H   0  0  0  0  0  0  0  0  0  0  0  0
    4.7402   -3.2291   -0.4959 H   0  0  0  0  0  0  0  0  0  0  0  0
    4.9038   -4.8686   -1.1754 H   0  0  0  0  0  0  0  0  0  0  0  0
    4.6897   -3.4740   -2.2532 H   0  0  0  0  0  0  0  0  0  0  0  0
  1  2  2  0  0  0  0
  1  3  1  0  0  0  0
  1  7  1  0  0  0  0
  3  4  1  0  0  0  0
  3  5  1  0  0  0  0
  3  6  1  0  0  0  0
  7  8  1  0  0  0  0
  7 12  1  0  0  0  0
  8  9  1  0  0  0  0
  8 11  1  0  0  0  0
  8 13  1  0  0  0  0
  9 10  2  0  0  0  0
  9 17  1  0  0  0  0
 11 14  1  0  0  0  0
 11 15  1  0  0  0  0
 11 16  1  0  0  0  0
 17 18  1  0  0  0  0
 17 23  1  0  0  0  0
 18 19  1  0  0  0  0
 18 21  1  0  0  0  0
 18 24  1  0  0  0  0
 19 20  2  0  0  0  0
 19 28  1  0  0  0  0
 21 22  1  0  0  0  0
 21 25  1  0  0  0  0
 21 26  1  0  0  0  0
 22 27  1  0  0  0  0
 28 29  1  0  0  0  0
 28 33  1  0  0  0  0
 29 30  1  0  0  0  0
 29 32  1  0  0  0  0
 29 34  1  0  0  0  0
 30 31  2  0  0  0  0
 30 38  1  0  0  0  0
 32 35  1  0  0  0  0
 32 36  1  0  0  0  0
 32 37  1  0  0  0  0
 38 39  1  0  0  0  0
 38 40  1  0  0  0  0
 39 41  1  0  0  0  0
 39 42  1  0  0  0  0
 39 43  1  0  0  0  0
M  END
$$$$

  -OEChem-05262217303D

 43 42  0     1  0  0  0  0  0999 V2000
    2.4976   -0.4984    3.9886 C   0  0  0  0  0  0  0  0  0  0  0  0
    1.5481    0.1297    3.5434 O   0  0  0  0  0  0  0  0  0  0  0  0
    2.5361   -0.8937    5.4526 C   0  0  0  0  0  0  0  0  0  0  0  0
    3.4352   -0.4902    5.9248 H   0  0  0  0  0  0  0  0  0  0  0  0
    1.6590   -0.4984    5.9731 H   0  0  0  0  0  0  0  0  0  0  0  0
    2.5403   -1.9825    5.5474 H   0  0  0  0  0  0  0  0  0  0  0  0
    3.5131   -0.8879    3.1393 N   0  0  0  0  0  0  0  0  0  0  0  0
    3.6062   -0.4903    1.7249 C   0  0  2  0  0  0  0  0  0  0  0  0
    2.6487   -1.2882    0.8046 C   0  0  0  0  0  0  0  0  0  0  0  0
    3.0815   -2.0257   -0.0714 O   0  0  0  0  0  0  0  0  0  0  0  0
    5.0780   -0.6188    1.3113 C   0  0  0  0  0  0  0  0  0  0  0  0
    4.2696   -1.4373    3.5378 H   0  0  0  0  0  0  0  0  0  0  0  0
    3.3285    0.5650    1.6263 H   0  0  0  0  0  0  0  0  0  0  0  0
    5.4111   -1.6591    1.3843 H   0  0  0  0  0  0  0  0  0  0  0  0
    5.2103   -0.2856    0.2767 H   0  0  0  0  0  0  0  0  0  0  0  0
    5.7116   -0.0009    1.9548 H   0  0  0  0  0  0  0  0  0  0  0  0
    1.2846   -1.1655    1.0117 N   0  0  0  0  0  0  0  0  0  0  0  0
    0.2088   -1.4231    0.0286 C   0  0  2  0  0  0  0  0  0  0  0  0
    0.4804   -2.4923   -1.0594 C   0  0  0  0  0  0  0  0  0  0  0  0
    0.8790   -2.1757   -2.1753 O   0  0  0  0  0  0  0  0  0  0  0  0
   -0.1590   -0.0717   -0.6115 C   0  0  0  0  0  0  0  0  0  0  0  0
    0.9302    0.4433   -1.3838 O   0  0  0  0  0  0  0  0  0  0  0  0
    1.0598   -0.5237    1.7788 H   0  0  0  0  0  0  0  0  0  0  0  0
   -0.6685   -1.7704    0.5804 H   0  0  0  0  0  0  0  0  0  0  0  0
   -0.4278    0.6500    0.1667 H   0  0  0  0  0  0  0  0  0  0  0  0
   -1.0317   -0.2008   -1.2603 H   0  0  0  0  0  0  0  0  0  0  0  0
    1.2302   -0.2575   -2.0064 H   0  0  0  0  0  0  0  0  0  0  0  0
    0.1445   -3.8125   -0.8075 N   0  0  0  0  0  0  0  0  0  0  0  0
    0.3222   -4.9548   -1.7300 C   0  0  2  0  0  0  0  0  0  0  0  0
    1.7888   -5.3228   -2.0690 C   0  0  0  0  0  0  0  0  0  0  0  0
    2.0227   -6.4354   -2.5259 O   0  0  0  0  0  0  0  0  0  0  0  0
   -0.5036   -4.7675   -3.0120 C   0  0  0  0  0  0  0  0  0  0  0  0
   -0.0757   -4.0295    0.1598 H   0  0  0  0  0  0  0  0  0  0  0  0
   -0.0862   -5.8321   -1.2189 H   0  0  0  0  0  0  0  0  0  0  0  0
   -0.0539   -4.0144   -3.6654 H   0  0  0  0  0  0  0  0  0  0  0  0
   -0.5518   -5.7096   -3.5673 H   0  0  0  0  0  0  0  0  0  0  0  0
   -1.5238   -4.4573   -2.7690 H   0  0  0  0  0  0  0  0  0  0  0  0
    2.8464   -4.4625   -1.8387 N   0  0  0  0  0  0  0  0  0  0  0  0
    4.2228   -4.7573   -2.2084 C   0  0  0  0  0  0  0  0  0  0  0  0
    2.6206   -3.5132   -1.5288 H   0  0  0  0  0  0  0  0  0  0  0  0
    4.3058   -4.9024   -3.2904 H   0  0  0  0  0  0  0  0  0  0  0  0
    4.8737   -3.9266   -1.9186 H   0  0  0  0  0  0  0  0  0  0  0  0
    4.5712   -5.6629   -1.7013 H   0  0  0  0  0  0  0  0  0  0  0  0
  1  2  2  0  0  0  0
  1  3  1  0  0  0  0
  1  7  1  0  0  0  0
  3  4  1  0  0  0  0
  3  5  1  0  0  0  0
  3  6  1  0  0  0  0
  7  8  1  0  0  0  0
  7 12  1  0  0  0  0
  8  9  1  0  0  0  0
  8 11  1  0  0  0  0
  8 13  1  0  0  0  0
  9 10  2  0  0  0  0
  9 17  1  0  0  0  0
 11 14  1  0  0  0  0
 11 15  1  0  0  0  0
 11 16  1  0  0  0  0
 17 18  1  0  0  0  0
 17 23  1  0  0  0  0
 18 19  1  0  0  0  0
 18 21  1  0  0  0  0
 18 24  1  0  0  0  0
 19 20  2  0  0  0  0
 19 28  1  0  0  0  0
 21 22  1  0  0  0  0
 21 25  1  0  0  0  0
 21 26  1  0  0  0  0
 22 27  1  0  0  0  0
 28 29  1  0  0  0  0
 28 33  1  0  0  0  0
 29 30  1  0  0  0  0
 29 32  1  0  0  0  0
 29 34  1  0  0  0  0
 30 31  2  0  0  0  0
 30 38  1  0  0  0  0
 32 35  1  0  0  0  0
 32 36  1  0  0  0  0
 32 37  1  0  0  0  0
 38 39  1  0  0  0  0
 38 40  1  0  0  0  0
 39 41  1  0  0  0  0
 39 42  1  0  0  0  0
 39 43  1  0  0  0  0
M  END
$$$$

  -OEChem-05262217303D

 43 42  0     1  0  0  0  0  0999 V2000
    2.5435   -0.4934    3.9602 C   0  0  0  0  0  0  0  0  0  0  0  0
    1.5918    0.1317    3.5155 O   0  0  0  0  0  0  0  0  0  0  0  0
    2.5981   -0.8637    5.4302 C   0  0  0  0  0  0  0  0  0  0  0  0
    3.5172   -0.4788    5.8789 H   0  0  0  0  0  0  0  0  0  0  0  0
    1.7432   -0.4334    5.9596 H   0  0  0  0  0  0  0  0  0  0  0  0
    2.5724   -1.9503    5.5435 H   0  0  0  0  0  0  0  0  0  0  0  0
    3.5479   -0.8997    3.1056 N   0  0  0  0  0  0  0  0  0  0  0  0
    3.6240   -0.5290    1.6830 C   0  0  2  0  0  0  0  0  0  0  0  0
    2.6579   -1.3466    0.7901 C   0  0  0  0  0  0  0  0  0  0  0  0
    3.0848   -2.1161   -0.0603 O   0  0  0  0  0  0  0  0  0  0  0  0
    5.0911   -0.6649    1.2548 C   0  0  0  0  0  0  0  0  0  0  0  0
    4.2996   -1.4583    3.5000 H   0  0  0  0  0  0  0  0  0  0  0  0
    3.3435    0.5240    1.5669 H   0  0  0  0  0  0  0  0  0  0  0  0
    5.4270   -1.7025    1.3493 H   0  0  0  0  0  0  0  0  0  0  0  0
    5.2098   -0.3571    0.2108 H   0  0  0  0  0  0  0  0  0  0  0  0
    5.7313   -0.0302    1.8750 H   0  0  0  0  0  0  0  0  0  0  0  0
    1.2961   -1.2251    1.0127 N   0  0  0  0  0  0  0  0  0  0  0  0
    0.2132   -1.4371    0.0260 C   0  0  2  0  0  0  0  0  0  0  0  0
    0.4587   -2.4579   -1.1137 C   0  0  0  0  0  0  0  0  0  0  0  0
    1.0285   -2.1208   -2.1471 O   0  0  0  0  0  0  0  0  0  0  0  0
   -0.1502   -0.0609   -0.5603 C   0  0  0  0  0  0  0  0  0  0  0  0
    0.9389    0.4755   -1.3182 O   0  0  0  0  0  0  0  0  0  0  0  0
    1.0879   -0.5745    1.7768 H   0  0  0  0  0  0  0  0  0  0  0  0
   -0.6601   -1.7980    0.5749 H   0  0  0  0  0  0  0  0  0  0  0  0
   -0.4128    0.6331    0.2449 H   0  0  0  0  0  0  0  0  0  0  0  0
   -1.0260   -0.1623   -1.2100 H   0  0  0  0  0  0  0  0  0  0  0  0
    1.2677   -0.2212   -1.9319 H   0  0  0  0  0  0  0  0  0  0  0  0
   -0.1542   -3.7000   -1.0621 N   0  0  0  0  0  0  0  0  0  0  0  0
    0.0052   -4.7945   -2.0449 C   0  0  2  0  0  0  0  0  0  0  0  0
    1.4335   -5.3845   -2.1456 C   0  0  0  0  0  0  0  0  0  0  0  0
    1.5599   -6.5775   -2.3923 O   0  0  0  0  0  0  0  0  0  0  0  0
   -0.5152   -4.3956   -3.4337 C   0  0  0  0  0  0  0  0  0  0  0  0
   -0.5480   -3.9521   -0.1606 H   0  0  0  0  0  0  0  0  0  0  0  0
   -0.6299   -5.6160   -1.6984 H   0  0  0  0  0  0  0  0  0  0  0  0
    0.1602   -3.6886   -3.9238 H   0  0  0  0  0  0  0  0  0  0  0  0
   -0.5937   -5.2820   -4.0711 H   0  0  0  0  0  0  0  0  0  0  0  0
   -1.5050   -3.9371   -3.3536 H   0  0  0  0  0  0  0  0  0  0  0  0
    2.5656   -4.6183   -1.9429 N   0  0  0  0  0  0  0  0  0  0  0  0
    3.9242   -5.1270   -2.0528 C   0  0  0  0  0  0  0  0  0  0  0  0
    2.4294   -3.6145   -1.7910 H   0  0  0  0  0  0  0  0  0  0  0  0
    4.1252   -5.4605   -3.0759 H   0  0  0  0  0  0  0  0  0  0  0  0
    4.6392   -4.3396   -1.7953 H   0  0  0  0  0  0  0  0  0  0  0  0
    4.0767   -5.9680   -1.3691 H   0  0  0  0  0  0  0  0  0  0  0  0
  1  2  2  0  0  0  0
  1  3  1  0  0  0  0
  1  7  1  0  0  0  0
  3  4  1  0  0  0  0
  3  5  1  0  0  0  0
  3  6  1  0  0  0  0
  7  8  1  0  0  0  0
  7 12  1  0  0  0  0
  8  9  1  0  0  0  0
  8 11  1  0  0  0  0
  8 13  1  0  0  0  0
  9 10  2  0  0  0  0
  9 17  1  0  0  0  0
 11 14  1  0  0  0  0
 11 15  1  0  0  0  0
 11 16  1  0  0  0  0
 17 18  1  0  0  0  0
 17 23  1  0  0  0  0
 18 19  1  0  0  0  0
 18 21  1  0  0  0  0
 18 24  1  0  0  0  0
 19 20  2  0  0  0  0
 19 28  1  0  0  0  0
 21 22  1  0  0  0  0
 21 25  1  0  0  0  0
 21 26  1  0  0  0  0
 22 27  1  0  0  0  0
 28 29  1  0  0  0  0
 28 33  1  0  0  0  0
 29 30  1  0  0  0  0
 29 32  1  0  0  0  0
 29 34  1  0  0  0  0
 30 31  2  0  0  0  0
 30 38  1  0  0  0  0
 32 35  1  0  0  0  0
 32 36  1  0  0  0  0
 32 37  1  0  0  0  0
 38 39  1  0  0  0  0
 38 40  1  0  0  0  0
 39 41  1  0  0  0  0
 39 42  1  0  0  0  0
 39 43  1  0  0  0  0
M  END
$$$$

  -OEChem-05262217303D

 43 42  0     1  0  0  0  0  0999 V2000
    3.8266   -1.3556    4.2009 C   0  0  0  0  0  0  0  0  0  0  0  0
    3.1223   -0.6829    4.9374 O   0  0  0  0  0  0  0  0  0  0  0  0
    4.7220   -2.4338    4.7823 C   0  0  0  0  0  0  0  0  0  0  0  0
    5.7667   -2.2211    4.5424 H   0  0  0  0  0  0  0  0  0  0  0  0
    4.6111   -2.4710    5.8696 H   0  0  0  0  0  0  0  0  0  0  0  0
    4.4514   -3.4077    4.3671 H   0  0  0  0  0  0  0  0  0  0  0  0
    3.8053   -1.1507    2.8372 N   0  0  0  0  0  0  0  0  0  0  0  0
    2.8072   -0.3217    2.1453 C   0  0  2  0  0  0  0  0  0  0  0  0
    2.0067   -1.1329    1.1044 C   0  0  0  0  0  0  0  0  0  0  0  0
    2.4209   -2.2277    0.7453 O   0  0  0  0  0  0  0  0  0  0  0  0
    3.5478    0.8309    1.4631 C   0  0  0  0  0  0  0  0  0  0  0  0
    4.2586   -1.8681    2.2737 H   0  0  0  0  0  0  0  0  0  0  0  0
    2.0895    0.0945    2.8598 H   0  0  0  0  0  0  0  0  0  0  0  0
    4.2617    0.4456    0.7281 H   0  0  0  0  0  0  0  0  0  0  0  0
    2.8433    1.4906    0.9471 H   0  0  0  0  0  0  0  0  0  0  0  0
    4.0944    1.4210    2.2054 H   0  0  0  0  0  0  0  0  0  0  0  0
    0.7900   -0.6482    0.6477 N   0  0  0  0  0  0  0  0  0  0  0  0
    0.2088   -0.8885   -0.6957 C   0  0  2  0  0  0  0  0  0  0  0  0
    0.5413   -2.2064   -1.4430 C   0  0  0  0  0  0  0  0  0  0  0  0
    1.6254   -2.3408   -2.0030 O   0  0  0  0  0  0  0  0  0  0  0  0
    0.5880    0.3133   -1.5780 C   0  0  0  0  0  0  0  0  0  0  0  0
    2.0025    0.3596   -1.7858 O   0  0  0  0  0  0  0  0  0  0  0  0
    0.5558    0.2520    1.0568 H   0  0  0  0  0  0  0  0  0  0  0  0
   -0.8777   -0.8787   -0.5776 H   0  0  0  0  0  0  0  0  0  0  0  0
    0.2544    1.2460   -1.1112 H   0  0  0  0  0  0  0  0  0  0  0  0
    0.0841    0.2285   -2.5467 H   0  0  0  0  0  0  0  0  0  0  0  0
    2.3150   -0.5374   -2.0484 H   0  0  0  0  0  0  0  0  0  0  0  0
   -0.4836   -3.0739   -1.7904 N   0  0  0  0  0  0  0  0  0  0  0  0
   -0.3445   -4.3380   -2.5484 C   0  0  2  0  0  0  0  0  0  0  0  0
    0.5157   -5.4208   -1.8531 C   0  0  0  0  0  0  0  0  0  0  0  0
    0.1252   -6.5811   -1.8597 O   0  0  0  0  0  0  0  0  0  0  0  0
    0.1437   -4.0945   -3.9837 C   0  0  0  0  0  0  0  0  0  0  0  0
   -1.3563   -2.9432   -1.2873 H   0  0  0  0  0  0  0  0  0  0  0  0
   -1.3502   -4.7634   -2.6299 H   0  0  0  0  0  0  0  0  0  0  0  0
    1.2018   -3.8184   -4.0037 H   0  0  0  0  0  0  0  0  0  0  0  0
    0.0222   -5.0057   -4.5778 H   0  0  0  0  0  0  0  0  0  0  0  0
   -0.4360   -3.2946   -4.4535 H   0  0  0  0  0  0  0  0  0  0  0  0
    1.6943   -5.1104   -1.2028 N   0  0  0  0  0  0  0  0  0  0  0  0
    2.5190   -6.0816   -0.4994 C   0  0  0  0  0  0  0  0  0  0  0  0
    1.9977   -4.1328   -1.2375 H   0  0  0  0  0  0  0  0  0  0  0  0
    2.8743   -6.8537   -1.1894 H   0  0  0  0  0  0  0  0  0  0  0  0
    3.3876   -5.5846   -0.0568 H   0  0  0  0  0  0  0  0  0  0  0  0
    1.9474   -6.5591    0.3029 H   0  0  0  0  0  0  0  0  0  0  0  0
  1  2  2  0  0  0  0
  1  3  1  0  0  0  0
  1  7  1  0  0  0  0
  3  4  1  0  0  0  0
  3  5  1  0  0  0  0
  3  6  1  0  0  0  0
  7  8  1  0  0  0  0
  7 12  1  0  0  0  0
  8  9  1  0  0  0  0
  8 11  1  0  0  0  0
  8 13  1  0  0  0  0
  9 10  2  0  0  0  0
  9 17  1  0  0  0  0
 11 14  1  0  0  0  0
 11 15  1  0  0  0  0
 11 16  1  0  0  0  0
 17 18  1  0  0  0  0
 17 23  1  0  0  0  0
 18 19  1  0  0  0  0
 18 21  1  0  0  0  0
 18 24  1  0  0  0  0
 19 20  2  0  0  0  0
 19 28  1  0  0  0  0
 21 22  1  0  0  0  0
 21 25  1  0  0  0  0
 21 26  1  0  0  0  0
 22 27  1  0  0  0  0
 28 29  1  0  0  0  0
 28 33  1  0  0  0  0
 29 30  1  0  0  0  0
 29 32  1  0  0  0  0
 29 34  1  0  0  0  0
 30 31  2  0  0  0  0
 30 38  1  0  0  0  0
 32 35  1  0  0  0  0
 32 36  1  0  0  0  0
 32 37  1  0  0  0  0
 38 39  1  0  0  0  0
 38 40  1  0  0  0  0
 39 41  1  0  0  0  0
 39 42  1  0  0  0  0
 39 43  1  0  0  0  0
M  END
$$$$

  -OEChem-05262217303D

 43 42  0     1  0  0  0  0  0999 V2000
    3.8045   -1.2147    4.2913 C   0  0  0  0  0  0  0  0  0  0  0  0
    3.1583   -0.4229    4.9595 O   0  0  0  0  0  0  0  0  0  0  0  0
    4.6291   -2.2892    4.9752 C   0  0  0  0  0  0  0  0  0  0  0  0
    5.6837   -2.1748    4.7129 H   0  0  0  0  0  0  0  0  0  0  0  0
    4.5256   -2.2099    6.0608 H   0  0  0  0  0  0  0  0  0  0  0  0
    4.2881   -3.2786    4.6607 H   0  0  0  0  0  0  0  0  0  0  0  0
    3.7762   -1.1495    2.9141 N   0  0  0  0  0  0  0  0  0  0  0  0
    2.8278   -0.3272    2.1488 C   0  0  2  0  0  0  0  0  0  0  0  0
    2.0183   -1.1738    1.1438 C   0  0  0  0  0  0  0  0  0  0  0  0
    2.4143   -2.2926    0.8454 O   0  0  0  0  0  0  0  0  0  0  0  0
    3.6263    0.7510    1.4127 C   0  0  0  0  0  0  0  0  0  0  0  0
    4.1760   -1.9459    2.4199 H   0  0  0  0  0  0  0  0  0  0  0  0
    2.1125    0.1588    2.8201 H   0  0  0  0  0  0  0  0  0  0  0  0
    4.3345    0.2934    0.7144 H   0  0  0  0  0  0  0  0  0  0  0  0
    2.9572    1.4066    0.8468 H   0  0  0  0  0  0  0  0  0  0  0  0
    4.1861    1.3620    2.1279 H   0  0  0  0  0  0  0  0  0  0  0  0
    0.7903   -0.7154    0.6924 N   0  0  0  0  0  0  0  0  0  0  0  0
    0.2068   -0.9562   -0.6505 C   0  0  2  0  0  0  0  0  0  0  0  0
    0.5488   -2.2506   -1.4341 C   0  0  0  0  0  0  0  0  0  0  0  0
    1.6821   -2.4186   -1.8739 O   0  0  0  0  0  0  0  0  0  0  0  0
    0.5720    0.2546   -1.5255 C   0  0  0  0  0  0  0  0  0  0  0  0
    1.9862    0.3131   -1.7347 O   0  0  0  0  0  0  0  0  0  0  0  0
    0.5523    0.1867    1.0946 H   0  0  0  0  0  0  0  0  0  0  0  0
   -0.8786   -0.9626   -0.5229 H   0  0  0  0  0  0  0  0  0  0  0  0
    0.2319    1.1814   -1.0519 H   0  0  0  0  0  0  0  0  0  0  0  0
    0.0666    0.1723   -2.4938 H   0  0  0  0  0  0  0  0  0  0  0  0
    2.3139   -0.5851   -1.9736 H   0  0  0  0  0  0  0  0  0  0  0  0
   -0.4761   -2.9537   -2.0519 N   0  0  0  0  0  0  0  0  0  0  0  0
   -0.3292   -4.1278   -2.9418 C   0  0  2  0  0  0  0  0  0  0  0  0
    0.3410   -5.3570   -2.2814 C   0  0  0  0  0  0  0  0  0  0  0  0
   -0.2203   -6.4431   -2.3415 O   0  0  0  0  0  0  0  0  0  0  0  0
    0.3677   -3.7616   -4.2601 C   0  0  0  0  0  0  0  0  0  0  0  0
   -1.4079   -2.7796   -1.6874 H   0  0  0  0  0  0  0  0  0  0  0  0
   -1.3426   -4.4472   -3.2057 H   0  0  0  0  0  0  0  0  0  0  0  0
    1.4322   -3.5615   -4.1085 H   0  0  0  0  0  0  0  0  0  0  0  0
    0.2783   -4.5889   -4.9712 H   0  0  0  0  0  0  0  0  0  0  0  0
   -0.0952   -2.8740   -4.7015 H   0  0  0  0  0  0  0  0  0  0  0  0
    1.5324   -5.2493   -1.5910 N   0  0  0  0  0  0  0  0  0  0  0  0
    2.1496   -6.3407   -0.8521 C   0  0  0  0  0  0  0  0  0  0  0  0
    1.9383   -4.3111   -1.5243 H   0  0  0  0  0  0  0  0  0  0  0  0
    2.3659   -7.1818   -1.5187 H   0  0  0  0  0  0  0  0  0  0  0  0
    3.0888   -6.0048   -0.4023 H   0  0  0  0  0  0  0  0  0  0  0  0
    1.4856   -6.6838   -0.0522 H   0  0  0  0  0  0  0  0  0  0  0  0
  1  2  2  0  0  0  0
  1  3  1  0  0  0  0
  1  7  1  0  0  0  0
  3  4  1  0  0  0  0
  3  5  1  0  0  0  0
  3  6  1  0  0  0  0
  7  8  1  0  0  0  0
  7 12  1  0  0  0  0
  8  9  1  0  0  0  0
  8 11  1  0  0  0  0
  8 13  1  0  0  0  0
  9 10  2  0  0  0  0
  9 17  1  0  0  0  0
 11 14  1  0  0  0  0
 11 15  1  0  0  0  0
 11 16  1  0  0  0  0
 17 18  1  0  0  0  0
 17 23  1  0  0  0  0
 18 19  1  0  0  0  0
 18 21  1  0  0  0  0
 18 24  1  0  0  0  0
 19 20  2  0  0  0  0
 19 28  1  0  0  0  0
 21 22  1  0  0  0  0
 21 25  1  0  0  0  0
 21 26  1  0  0  0  0
 22 27  1  0  0  0  0
 28 29  1  0  0  0  0
 28 33  1  0  0  0  0
 29 30  1  0  0  0  0
 29 32  1  0  0  0  0
 29 34  1  0  0  0  0
 30 31  2  0  0  0  0
 30 38  1  0  0  0  0
 32 35  1  0  0  0  0
 32 36  1  0  0  0  0
 32 37  1  0  0  0  0
 38 39  1  0  0  0  0
 38 40  1  0  0  0  0
 39 41  1  0  0  0  0
 39 42  1  0  0  0  0
 39 43  1  0  0  0  0
M  END
$$$$

  -OEChem-05262217303D

 43 42  0     1  0  0  0  0  0999 V2000
    3.9547   -2.3020    3.1627 C   0  0  0  0  0  0  0  0  0  0  0  0
    3.0732   -2.6275    3.9427 O   0  0  0  0  0  0  0  0  0  0  0  0
    5.2713   -3.0556    3.1417 C   0  0  0  0  0  0  0  0  0  0  0  0
    6.0981   -2.3656    3.3277 H   0  0  0  0  0  0  0  0  0  0  0  0
    5.2760   -3.8285    3.9155 H   0  0  0  0  0  0  0  0  0  0  0  0
    5.4142   -3.5308    2.1679 H   0  0  0  0  0  0  0  0  0  0  0  0
    3.7562   -1.2477    2.2970 N   0  0  0  0  0  0  0  0  0  0  0  0
    2.4660   -0.5764    2.0972 C   0  0  2  0  0  0  0  0  0  0  0  0
    2.2151   -0.3003    0.6022 C   0  0  0  0  0  0  0  0  0  0  0  0
    3.1598   -0.1349   -0.1630 O   0  0  0  0  0  0  0  0  0  0  0  0
    2.4754    0.7276    2.8989 C   0  0  0  0  0  0  0  0  0  0  0  0
    4.4585   -1.1103    1.5703 H   0  0  0  0  0  0  0  0  0  0  0  0
    1.6500   -1.2142    2.4536 H   0  0  0  0  0  0  0  0  0  0  0  0
    3.2797    1.3846    2.5520 H   0  0  0  0  0  0  0  0  0  0  0  0
    1.5230    1.2542    2.7882 H   0  0  0  0  0  0  0  0  0  0  0  0
    2.6319    0.5164    3.9617 H   0  0  0  0  0  0  0  0  0  0  0  0
    0.9450   -0.0331    0.1210 N   0  0  0  0  0  0  0  0  0  0  0  0
    0.4214   -0.5321   -1.1796 C   0  0  2  0  0  0  0  0  0  0  0  0
    0.9271   -1.8912   -1.7414 C   0  0  0  0  0  0  0  0  0  0  0  0
    1.8654   -2.4973   -1.2418 O   0  0  0  0  0  0  0  0  0  0  0  0
    0.6894    0.5296   -2.2559 C   0  0  0  0  0  0  0  0  0  0  0  0
    2.0900    0.6912   -2.4863 O   0  0  0  0  0  0  0  0  0  0  0  0
    0.2541   -0.0077    0.8657 H   0  0  0  0  0  0  0  0  0  0  0  0
   -0.6615   -0.6330   -1.0685 H   0  0  0  0  0  0  0  0  0  0  0  0
    0.2702    1.4859   -1.9271 H   0  0  0  0  0  0  0  0  0  0  0  0
    0.1951    0.2581   -3.1943 H   0  0  0  0  0  0  0  0  0  0  0  0
    2.6010    0.4980   -1.6586 H   0  0  0  0  0  0  0  0  0  0  0  0
    0.0529   -2.6216   -2.5361 N   0  0  0  0  0  0  0  0  0  0  0  0
    0.2364   -3.9994   -3.0432 C   0  0  2  0  0  0  0  0  0  0  0  0
    0.1043   -5.1060   -1.9707 C   0  0  0  0  0  0  0  0  0  0  0  0
   -0.7260   -5.9922   -2.1237 O   0  0  0  0  0  0  0  0  0  0  0  0
    1.5496   -4.1402   -3.8274 C   0  0  0  0  0  0  0  0  0  0  0  0
   -0.7665   -2.1226   -2.8689 H   0  0  0  0  0  0  0  0  0  0  0  0
   -0.5728   -4.1803   -3.7585 H   0  0  0  0  0  0  0  0  0  0  0  0
    2.4185   -4.0879   -3.1648 H   0  0  0  0  0  0  0  0  0  0  0  0
    1.5748   -5.1050   -4.3437 H   0  0  0  0  0  0  0  0  0  0  0  0
    1.6336   -3.3454   -4.5747 H   0  0  0  0  0  0  0  0  0  0  0  0
    0.8821   -5.0994   -0.8306 N   0  0  0  0  0  0  0  0  0  0  0  0
    0.7799   -6.0829    0.2385 C   0  0  0  0  0  0  0  0  0  0  0  0
    1.5184   -4.3041   -0.7261 H   0  0  0  0  0  0  0  0  0  0  0  0
    1.5072   -5.8604    1.0254 H   0  0  0  0  0  0  0  0  0  0  0  0
   -0.2226   -6.0690    0.6786 H   0  0  0  0  0  0  0  0  0  0  0  0
    0.9829   -7.0880   -0.1457 H   0  0  0  0  0  0  0  0  0  0  0  0
  1  2  2  0  0  0  0
  1  3  1  0  0  0  0
  1  7  1  0  0  0  0
  3  4  1  0  0  0  0
  3  5  1  0  0  0  0
  3  6  1  0  0  0  0
  7  8  1  0  0  0  0
  7 12  1  0  0  0  0
  8  9  1  0  0  0  0
  8 11  1  0  0  0  0
  8 13  1  0  0  0  0
  9 10  2  0  0  0  0
  9 17  1  0  0  0  0
 11 14  1  0  0  0  0
 11 15  1  0  0  0  0
 11 16  1  0  0  0  0
 17 18  1  0  0  0  0
 17 23  1  0  0  0  0
 18 19  1  0  0  0  0
 18 21  1  0  0  0  0
 18 24  1  0  0  0  0
 19 20  2  0  0  0  0
 19 28  1  0  0  0  0
 21 22  1  0  0  0  0
 21 25  1  0  0  0  0
 21 26  1  0  0  0  0
 22 27  1  0  0  0  0
 28 29  1  0  0  0  0
 28 33  1  0  0  0  0
 29 30  1  0  0  0  0
 29 32  1  0  0  0  0
 29 34  1  0  0  0  0
 30 31  2  0  0  0  0
 30 38  1  0  0  0  0
 32 35  1  0  0  0  0
 32 36  1  0  0  0  0
 32 37  1  0  0  0  0
 38 39  1  0  0  0  0
 38 40  1  0  0  0  0
 39 41  1  0  0  0  0
 39 42  1  0  0  0  0
 39 43  1  0  0  0  0
M  END
$$$$

  -OEChem-05262217303D

 43 42  0     1  0  0  0  0  0999 V2000
    3.8984   -2.1705    3.3118 C   0  0  0  0  0  0  0  0  0  0  0  0
    3.0269   -2.4026    4.1352 O   0  0  0  0  0  0  0  0  0  0  0  0
    5.1845   -2.9751    3.3155 C   0  0  0  0  0  0  0  0  0  0  0  0
    6.0386   -2.3117    3.4719 H   0  0  0  0  0  0  0  0  0  0  0  0
    5.1632   -3.7176    4.1182 H   0  0  0  0  0  0  0  0  0  0  0  0
    5.3037   -3.4926    2.3603 H   0  0  0  0  0  0  0  0  0  0  0  0
    3.7124   -1.1800    2.3710 N   0  0  0  0  0  0  0  0  0  0  0  0
    2.4381   -0.4856    2.1487 C   0  0  2  0  0  0  0  0  0  0  0  0
    2.1627   -0.3007    0.6442 C   0  0  0  0  0  0  0  0  0  0  0  0
    3.0938   -0.1632   -0.1434 O   0  0  0  0  0  0  0  0  0  0  0  0
    2.4977    0.8689    2.8591 C   0  0  0  0  0  0  0  0  0  0  0  0
    4.4038   -1.1174    1.6243 H   0  0  0  0  0  0  0  0  0  0  0  0
    1.6122   -1.0745    2.5621 H   0  0  0  0  0  0  0  0  0  0  0  0
    3.3084    1.4806    2.4498 H   0  0  0  0  0  0  0  0  0  0  0  0
    1.5552    1.4105    2.7347 H   0  0  0  0  0  0  0  0  0  0  0  0
    2.6755    0.7258    3.9298 H   0  0  0  0  0  0  0  0  0  0  0  0
    0.8783   -0.0940    0.1705 N   0  0  0  0  0  0  0  0  0  0  0  0
    0.3809   -0.5919   -1.1402 C   0  0  2  0  0  0  0  0  0  0  0  0
    0.9731   -1.9085   -1.7166 C   0  0  0  0  0  0  0  0  0  0  0  0
    1.7363   -2.6031   -1.0568 O   0  0  0  0  0  0  0  0  0  0  0  0
    0.5918    0.5095   -2.1901 C   0  0  0  0  0  0  0  0  0  0  0  0
    1.9823    0.7497   -2.4142 O   0  0  0  0  0  0  0  0  0  0  0  0
    0.1866   -0.0957    0.9149 H   0  0  0  0  0  0  0  0  0  0  0  0
   -0.6939   -0.7637   -1.0370 H   0  0  0  0  0  0  0  0  0  0  0  0
    0.1239    1.4341   -1.8358 H   0  0  0  0  0  0  0  0  0  0  0  0
    0.1107    0.2397   -3.1356 H   0  0  0  0  0  0  0  0  0  0  0  0
    2.5043    0.5515   -1.5951 H   0  0  0  0  0  0  0  0  0  0  0  0
    0.2997   -2.5253   -2.7627 N   0  0  0  0  0  0  0  0  0  0  0  0
    0.6113   -3.8321   -3.3828 C   0  0  2  0  0  0  0  0  0  0  0  0
    0.2466   -5.0676   -2.5263 C   0  0  0  0  0  0  0  0  0  0  0  0
   -0.4737   -5.9355   -3.0021 O   0  0  0  0  0  0  0  0  0  0  0  0
    2.0739   -3.8954   -3.8477 C   0  0  0  0  0  0  0  0  0  0  0  0
   -0.3803   -1.9473   -3.2473 H   0  0  0  0  0  0  0  0  0  0  0  0
   -0.0052   -3.9048   -4.2847 H   0  0  0  0  0  0  0  0  0  0  0  0
    2.7617   -3.9346   -2.9979 H   0  0  0  0  0  0  0  0  0  0  0  0
    2.2346   -4.7914   -4.4555 H   0  0  0  0  0  0  0  0  0  0  0  0
    2.3192   -3.0179   -4.4536 H   0  0  0  0  0  0  0  0  0  0  0  0
    0.7062   -5.2081   -1.2327 N   0  0  0  0  0  0  0  0  0  0  0  0
    0.3971   -6.3379   -0.3679 C   0  0  0  0  0  0  0  0  0  0  0  0
    1.2769   -4.4379   -0.8736 H   0  0  0  0  0  0  0  0  0  0  0  0
    0.7571   -7.2706   -0.8142 H   0  0  0  0  0  0  0  0  0  0  0  0
    0.8816   -6.2097    0.6049 H   0  0  0  0  0  0  0  0  0  0  0  0
   -0.6834   -6.4156   -0.2097 H   0  0  0  0  0  0  0  0  0  0  0  0
  1  2  2  0  0  0  0
  1  3  1  0  0  0  0
  1  7  1  0  0  0  0
  3  4  1  0  0  0  0
  3  5  1  0  0  0  0
  3  6  1  0  0  0  0
  7  8  1  0  0  0  0
  7 12  1  0  0  0  0
  8  9  1  0  0  0  0
  8 11  1  0  0  0  0
  8 13  1  0  0  0  0
  9 10  2  0  0  0  0
  9 17  1  0  0  0  0
 11 14  1  0  0  0  0
 11 15  1  0  0  0  0
 11 16  1  0  0  0  0
 17 18  1  0  0  0  0
 17 23  1  0  0  0  0
 18 19  1  0  0  0  0
 18 21  1  0  0  0  0
 18 24  1  0  0  0  0
 19 20  2  0  0  0  0
 19 28  1  0  0  0  0
 21 22  1  0  0  0  0
 21 25  1  0  0  0  0
 21 26  1  0  0  0  0
 22 27  1  0  0  0  0
 28 29  1  0  0  0  0
 28 33  1  0  0  0  0
 29 30  1  0  0  0  0
 29 32  1  0  0  0  0
 29 34  1  0  0  0  0
 30 31  2  0  0  0  0
 30 38  1  0  0  0  0
 32 35  1  0  0  0  0
 32 36  1  0  0  0  0
 32 37  1  0  0  0  0
 38 39  1  0  0  0  0
 38 40  1  0  0  0  0
 39 41  1  0  0  0  0
 39 42  1  0  0  0  0
 39 43  1  0  0  0  0
M  END
$$$$

  -OEChem-05262217303D

 43 42  0     1  0  0  0  0  0999 V2000
    3.9067   -2.0878    3.5320 C   0  0  0  0  0  0  0  0  0  0  0  0
    3.0851   -2.1174    4.4349 O   0  0  0  0  0  0  0  0  0  0  0  0
    5.1576   -2.9425    3.6109 C   0  0  0  0  0  0  0  0  0  0  0  0
    6.0469   -2.3119    3.5381 H   0  0  0  0  0  0  0  0  0  0  0  0
    5.1856   -3.4827    4.5613 H   0  0  0  0  0  0  0  0  0  0  0  0
    5.1652   -3.6676    2.7934 H   0  0  0  0  0  0  0  0  0  0  0  0
    3.6918   -1.2854    2.4315 N   0  0  0  0  0  0  0  0  0  0  0  0
    2.4361   -0.5716    2.1671 C   0  0  2  0  0  0  0  0  0  0  0  0
    2.1467   -0.4768    0.6554 C   0  0  0  0  0  0  0  0  0  0  0  0
    3.0614   -0.5956   -0.1541 O   0  0  0  0  0  0  0  0  0  0  0  0
    2.5307    0.8239    2.7906 C   0  0  0  0  0  0  0  0  0  0  0  0
    4.3378   -1.3847    1.6490 H   0  0  0  0  0  0  0  0  0  0  0  0
    1.6022   -1.1160    2.6232 H   0  0  0  0  0  0  0  0  0  0  0  0
    3.3505    1.3908    2.3379 H   0  0  0  0  0  0  0  0  0  0  0  0
    1.5988    1.3769    2.6404 H   0  0  0  0  0  0  0  0  0  0  0  0
    2.7147    0.7453    3.8670 H   0  0  0  0  0  0  0  0  0  0  0  0
    0.8678   -0.1942    0.2001 N   0  0  0  0  0  0  0  0  0  0  0  0
    0.3370   -0.5926   -1.1305 C   0  0  2  0  0  0  0  0  0  0  0  0
    0.6414   -2.0568   -1.5437 C   0  0  0  0  0  0  0  0  0  0  0  0
    0.9776   -2.8700   -0.6896 O   0  0  0  0  0  0  0  0  0  0  0  0
    0.7971    0.3716   -2.2400 C   0  0  0  0  0  0  0  0  0  0  0  0
    2.2060    0.3184   -2.4598 O   0  0  0  0  0  0  0  0  0  0  0  0
    0.1808   -0.1356    0.9470 H   0  0  0  0  0  0  0  0  0  0  0  0
   -0.7529   -0.5211   -1.0788 H   0  0  0  0  0  0  0  0  0  0  0  0
    0.5278    1.3918   -1.9472 H   0  0  0  0  0  0  0  0  0  0  0  0
    0.2756    0.1558   -3.1778 H   0  0  0  0  0  0  0  0  0  0  0  0
    2.6772    0.0857   -1.6177 H   0  0  0  0  0  0  0  0  0  0  0  0
    0.1961   -2.5342   -2.7682 N   0  0  0  0  0  0  0  0  0  0  0  0
    0.3347   -3.9102   -3.2922 C   0  0  2  0  0  0  0  0  0  0  0  0
   -0.5640   -4.9689   -2.6109 C   0  0  0  0  0  0  0  0  0  0  0  0
   -1.3241   -5.6406   -3.2962 O   0  0  0  0  0  0  0  0  0  0  0  0
    1.8038   -4.3571   -3.2945 C   0  0  0  0  0  0  0  0  0  0  0  0
   -0.0686   -1.8203   -3.4408 H   0  0  0  0  0  0  0  0  0  0  0  0
    0.0150   -3.8800   -4.3391 H   0  0  0  0  0  0  0  0  0  0  0  0
    2.1770   -4.5050   -2.2770 H   0  0  0  0  0  0  0  0  0  0  0  0
    1.9055   -5.3035   -3.8348 H   0  0  0  0  0  0  0  0  0  0  0  0
    2.4289   -3.6073   -3.7890 H   0  0  0  0  0  0  0  0  0  0  0  0
   -0.5240   -5.1789   -1.2471 N   0  0  0  0  0  0  0  0  0  0  0  0
   -1.3457   -6.1536   -0.5436 C   0  0  0  0  0  0  0  0  0  0  0  0
    0.0906   -4.5570   -0.7145 H   0  0  0  0  0  0  0  0  0  0  0  0
   -1.0801   -6.1736    0.5177 H   0  0  0  0  0  0  0  0  0  0  0  0
   -2.4059   -5.8956   -0.6324 H   0  0  0  0  0  0  0  0  0  0  0  0
   -1.1897   -7.1557   -0.9567 H   0  0  0  0  0  0  0  0  0  0  0  0
  1  2  2  0  0  0  0
  1  3  1  0  0  0  0
  1  7  1  0  0  0  0
  3  4  1  0  0  0  0
  3  5  1  0  0  0  0
  3  6  1  0  0  0  0
  7  8  1  0  0  0  0
  7 12  1  0  0  0  0
  8  9  1  0  0  0  0
  8 11  1  0  0  0  0
  8 13  1  0  0  0  0
  9 10  2  0  0  0  0
  9 17  1  0  0  0  0
 11 14  1  0  0  0  0
 11 15  1  0  0  0  0
 11 16  1  0  0  0  0
 17 18  1  0  0  0  0
 17 23  1  0  0  0  0
 18 19  1  0  0  0  0
 18 21  1  0  0  0  0
 18 24  1  0  0  0  0
 19 20  2  0  0  0  0
 19 28  1  0  0  0  0
 21 22  1  0  0  0  0
 21 25  1  0  0  0  0
 21 26  1  0  0  0  0
 22 27  1  0  0  0  0
 28 29  1  0  0  0  0
 28 33  1  0  0  0  0
 29 30  1  0  0  0  0
 29 32  1  0  0  0  0
 29 34  1  0  0  0  0
 30 31  2  0  0  0  0
 30 38  1  0  0  0  0
 32 35  1  0  0  0  0
 32 36  1  0  0  0  0
 32 37  1  0  0  0  0
 38 39  1  0  0  0  0
 38 40  1  0  0  0  0
 39 41  1  0  0  0  0
 39 42  1  0  0  0  0
 39 43  1  0  0  0  0
M  END
$$$$

  -OEChem-05262217303D

 43 42  0     1  0  0  0  0  0999 V2000
    3.8711   -2.0037    3.5858 C   0  0  0  0  0  0  0  0  0  0  0  0
    3.0464   -1.9970    4.4860 O   0  0  0  0  0  0  0  0  0  0  0  0
    5.1274   -2.8447    3.7082 C   0  0  0  0  0  0  0  0  0  0  0  0
    6.0115   -2.2057    3.6485 H   0  0  0  0  0  0  0  0  0  0  0  0
    5.1370   -3.3706    4.6669 H   0  0  0  0  0  0  0  0  0  0  0  0
    5.1629   -3.5813    2.9019 H   0  0  0  0  0  0  0  0  0  0  0  0
    3.6597   -1.2472    2.4526 N   0  0  0  0  0  0  0  0  0  0  0  0
    2.4133   -0.5273    2.1618 C   0  0  2  0  0  0  0  0  0  0  0  0
    2.1195   -0.4911    0.6484 C   0  0  0  0  0  0  0  0  0  0  0  0
    3.0295   -0.6543   -0.1591 O   0  0  0  0  0  0  0  0  0  0  0  0
    2.5333    0.8924    2.7235 C   0  0  0  0  0  0  0  0  0  0  0  0
    4.3136   -1.3696    1.6802 H   0  0  0  0  0  0  0  0  0  0  0  0
    1.5725   -1.0383    2.6438 H   0  0  0  0  0  0  0  0  0  0  0  0
    3.3717    1.4193    2.2565 H   0  0  0  0  0  0  0  0  0  0  0  0
    1.6167    1.4593    2.5362 H   0  0  0  0  0  0  0  0  0  0  0  0
    2.7027    0.8584    3.8047 H   0  0  0  0  0  0  0  0  0  0  0  0
    0.8430   -0.2131    0.1842 N   0  0  0  0  0  0  0  0  0  0  0  0
    0.3288   -0.6150   -1.1504 C   0  0  2  0  0  0  0  0  0  0  0  0
    0.6621   -2.0810   -1.5295 C   0  0  0  0  0  0  0  0  0  0  0  0
    0.7665   -2.9103   -0.6319 O   0  0  0  0  0  0  0  0  0  0  0  0
    0.7890    0.3533   -2.2562 C   0  0  0  0  0  0  0  0  0  0  0  0
    2.2005    0.3116   -2.4628 O   0  0  0  0  0  0  0  0  0  0  0  0
    0.1484   -0.1455    0.9234 H   0  0  0  0  0  0  0  0  0  0  0  0
   -0.7626   -0.5595   -1.1147 H   0  0  0  0  0  0  0  0  0  0  0  0
    0.5093    1.3709   -1.9637 H   0  0  0  0  0  0  0  0  0  0  0  0
    0.2745    0.1359   -3.1975 H   0  0  0  0  0  0  0  0  0  0  0  0
    2.6646    0.0768   -1.6182 H   0  0  0  0  0  0  0  0  0  0  0  0
    0.5388   -2.5218   -2.8390 N   0  0  0  0  0  0  0  0  0  0  0  0
    0.8177   -3.8830   -3.3460 C   0  0  2  0  0  0  0  0  0  0  0  0
   -0.2159   -4.9653   -2.9536 C   0  0  0  0  0  0  0  0  0  0  0  0
   -0.6644   -5.7067   -3.8182 O   0  0  0  0  0  0  0  0  0  0  0  0
    2.2406   -4.3270   -2.9777 C   0  0  0  0  0  0  0  0  0  0  0  0
    0.5213   -1.7799   -3.5342 H   0  0  0  0  0  0  0  0  0  0  0  0
    0.7795   -3.8220   -4.4386 H   0  0  0  0  0  0  0  0  0  0  0  0
    2.3314   -4.5186   -1.9046 H   0  0  0  0  0  0  0  0  0  0  0  0
    2.4944   -5.2489   -3.5103 H   0  0  0  0  0  0  0  0  0  0  0  0
    2.9649   -3.5556   -3.2564 H   0  0  0  0  0  0  0  0  0  0  0  0
   -0.6320   -5.1291   -1.6476 N   0  0  0  0  0  0  0  0  0  0  0  0
   -1.5392   -6.1774   -1.2024 C   0  0  0  0  0  0  0  0  0  0  0  0
   -0.1928   -4.5151   -0.9566 H   0  0  0  0  0  0  0  0  0  0  0  0
   -1.0902   -7.1636   -1.3591 H   0  0  0  0  0  0  0  0  0  0  0  0
   -1.7559   -6.0597   -0.1363 H   0  0  0  0  0  0  0  0  0  0  0  0
   -2.4838   -6.1274   -1.7539 H   0  0  0  0  0  0  0  0  0  0  0  0
  1  2  2  0  0  0  0
  1  3  1  0  0  0  0
  1  7  1  0  0  0  0
  3  4  1  0  0  0  0
  3  5  1  0  0  0  0
  3  6  1  0  0  0  0
  7  8  1  0  0  0  0
  7 12  1  0  0  0  0
  8  9  1  0  0  0  0
  8 11  1  0  0  0  0
  8 13  1  0  0  0  0
  9 10  2  0  0  0  0
  9 17  1  0  0  0  0
 11 14  1  0  0  0  0
 11 15  1  0  0  0  0
 11 16  1  0  0  0  0
 17 18  1  0  0  0  0
 17 23  1  0  0  0  0
 18 19  1  0  0  0  0
 18 21  1  0  0  0  0
 18 24  1  0  0  0  0
 19 20  2  0  0  0  0
 19 28  1  0  0  0  0
 21 22  1  0  0  0  0
 21 25  1  0  0  0  0
 21 26  1  0  0  0  0
 22 27  1  0  0  0  0
 28 29  1  0  0  0  0
 28 33  1  0  0  0  0
 29 30  1  0  0  0  0
 29 32  1  0  0  0  0
 29 34  1  0  0  0  0
 30 31  2  0  0  0  0
 30 38  1  0  0  0  0
 32 35  1  0  0  0  0
 32 36  1  0  0  0  0
 32 37  1  0  0  0  0
 38 39  1  0  0  0  0
 38 40  1  0  0  0  0
 39 41  1  0  0  0  0
 39 42  1  0  0  0  0
 39 43  1  0  0  0  0
M  END
$$$$

  -OEChem-05262217303D

 43 42  0     1  0  0  0  0  0999 V2000
    3.8949   -1.9420    3.6158 C   0  0  0  0  0  0  0  0  0  0  0  0
    3.0867   -1.8936    4.5294 O   0  0  0  0  0  0  0  0  0  0  0  0
    5.1399   -2.7995    3.7420 C   0  0  0  0  0  0  0  0  0  0  0  0
    6.0324   -2.1879    3.5890 H   0  0  0  0  0  0  0  0  0  0  0  0
    5.1877   -3.2500    4.7374 H   0  0  0  0  0  0  0  0  0  0  0  0
    5.1204   -3.5970    2.9951 H   0  0  0  0  0  0  0  0  0  0  0  0
    3.6700   -1.2243    2.4604 N   0  0  0  0  0  0  0  0  0  0  0  0
    2.4226   -0.5082    2.1647 C   0  0  2  0  0  0  0  0  0  0  0  0
    2.1194   -0.5064    0.6527 C   0  0  0  0  0  0  0  0  0  0  0  0
    3.0213   -0.7037   -0.1565 O   0  0  0  0  0  0  0  0  0  0  0  0
    2.5465    0.9244    2.6927 C   0  0  0  0  0  0  0  0  0  0  0  0
    4.3080   -1.3823    1.6813 H   0  0  0  0  0  0  0  0  0  0  0  0
    1.5853   -1.0072    2.6650 H   0  0  0  0  0  0  0  0  0  0  0  0
    3.3730    1.4450    2.1982 H   0  0  0  0  0  0  0  0  0  0  0  0
    1.6236    1.4830    2.5107 H   0  0  0  0  0  0  0  0  0  0  0  0
    2.7361    0.9154    3.7711 H   0  0  0  0  0  0  0  0  0  0  0  0
    0.8447   -0.2277    0.1861 N   0  0  0  0  0  0  0  0  0  0  0  0
    0.3371   -0.6312   -1.1494 C   0  0  2  0  0  0  0  0  0  0  0  0
    0.6847   -2.0991   -1.5029 C   0  0  0  0  0  0  0  0  0  0  0  0
    0.5691   -2.9464   -0.6239 O   0  0  0  0  0  0  0  0  0  0  0  0
    0.7957    0.3328   -2.2594 C   0  0  0  0  0  0  0  0  0  0  0  0
    2.2087    0.2920   -2.4628 O   0  0  0  0  0  0  0  0  0  0  0  0
    0.1475   -0.1473    0.9218 H   0  0  0  0  0  0  0  0  0  0  0  0
   -0.7550   -0.5829   -1.1205 H   0  0  0  0  0  0  0  0  0  0  0  0
    0.5130    1.3512   -1.9732 H   0  0  0  0  0  0  0  0  0  0  0  0
    0.2813    0.1074   -3.1992 H   0  0  0  0  0  0  0  0  0  0  0  0
    2.6711    0.0620   -1.6164 H   0  0  0  0  0  0  0  0  0  0  0  0
    0.8811   -2.4972   -2.8164 N   0  0  0  0  0  0  0  0  0  0  0  0
    1.2624   -3.8467   -3.2846 C   0  0  2  0  0  0  0  0  0  0  0  0
    0.1497   -4.9167   -3.1980 C   0  0  0  0  0  0  0  0  0  0  0  0
   -0.0731   -5.6317   -4.1664 O   0  0  0  0  0  0  0  0  0  0  0  0
    2.5422   -4.3306   -2.5874 C   0  0  0  0  0  0  0  0  0  0  0  0
    1.0858   -1.7283   -3.4524 H   0  0  0  0  0  0  0  0  0  0  0  0
    1.4990   -3.7517   -4.3495 H   0  0  0  0  0  0  0  0  0  0  0  0
    2.3585   -4.5616   -1.5340 H   0  0  0  0  0  0  0  0  0  0  0  0
    2.9128   -5.2383   -3.0738 H   0  0  0  0  0  0  0  0  0  0  0  0
    3.3207   -3.5635   -2.6457 H   0  0  0  0  0  0  0  0  0  0  0  0
   -0.5902   -5.0954   -2.0466 N   0  0  0  0  0  0  0  0  0  0  0  0
   -1.6110   -6.1205   -1.8814 C   0  0  0  0  0  0  0  0  0  0  0  0
   -0.3336   -4.5044   -1.2517 H   0  0  0  0  0  0  0  0  0  0  0  0
   -1.1696   -7.1181   -1.9747 H   0  0  0  0  0  0  0  0  0  0  0  0
   -2.0727   -6.0363   -0.8931 H   0  0  0  0  0  0  0  0  0  0  0  0
   -2.3932   -6.0076   -2.6392 H   0  0  0  0  0  0  0  0  0  0  0  0
  1  2  2  0  0  0  0
  1  3  1  0  0  0  0
  1  7  1  0  0  0  0
  3  4  1  0  0  0  0
  3  5  1  0  0  0  0
  3  6  1  0  0  0  0
  7  8  1  0  0  0  0
  7 12  1  0  0  0  0
  8  9  1  0  0  0  0
  8 11  1  0  0  0  0
  8 13  1  0  0  0  0
  9 10  2  0  0  0  0
  9 17  1  0  0  0  0
 11 14  1  0  0  0  0
 11 15  1  0  0  0  0
 11 16  1  0  0  0  0
 17 18  1  0  0  0  0
 17 23  1  0  0  0  0
 18 19  1  0  0  0  0
 18 21  1  0  0  0  0
 18 24  1  0  0  0  0
 19 20  2  0  0  0  0
 19 28  1  0  0  0  0
 21 22  1  0  0  0  0
 21 25  1  0  0  0  0
 21 26  1  0  0  0  0
 22 27  1  0  0  0  0
 28 29  1  0  0  0  0
 28 33  1  0  0  0  0
 29 30  1  0  0  0  0
 29 32  1  0  0  0  0
 29 34  1  0  0  0  0
 30 31  2  0  0  0  0
 30 38  1  0  0  0  0
 32 35  1  0  0  0  0
 32 36  1  0  0  0  0
 32 37  1  0  0  0  0
 38 39  1  0  0  0  0
 38 40  1  0  0  0  0
 39 41  1  0  0  0  0
 39 42  1  0  0  0  0
 39 43  1  0  0  0  0
M  END
$$$$

  -OEChem-05262217303D

 43 42  0     1  0  0  0  0  0999 V2000
    3.8918   -1.9087    3.6770 C   0  0  0  0  0  0  0  0  0  0  0  0
    3.0635   -1.8590    4.5723 O   0  0  0  0  0  0  0  0  0  0  0  0
    5.1601   -2.7218    3.8547 C   0  0  0  0  0  0  0  0  0  0  0  0
    6.0355   -2.0791    3.7336 H   0  0  0  0  0  0  0  0  0  0  0  0
    5.1857   -3.1669    4.8535 H   0  0  0  0  0  0  0  0  0  0  0  0
    5.1979   -3.5222    3.1116 H   0  0  0  0  0  0  0  0  0  0  0  0
    3.6721   -1.2266    2.4988 N   0  0  0  0  0  0  0  0  0  0  0  0
    2.4214   -0.5310    2.1695 C   0  0  2  0  0  0  0  0  0  0  0  0
    2.1335   -0.5576    0.6545 C   0  0  0  0  0  0  0  0  0  0  0  0
    3.0341   -0.8033   -0.1428 O   0  0  0  0  0  0  0  0  0  0  0  0
    2.5237    0.9124    2.6721 C   0  0  0  0  0  0  0  0  0  0  0  0
    4.3329   -1.3806    1.7383 H   0  0  0  0  0  0  0  0  0  0  0  0
    1.5828   -1.0292    2.6682 H   0  0  0  0  0  0  0  0  0  0  0  0
    3.3519    1.4321    2.1795 H   0  0  0  0  0  0  0  0  0  0  0  0
    1.5978    1.4584    2.4676 H   0  0  0  0  0  0  0  0  0  0  0  0
    2.6985    0.9255    3.7528 H   0  0  0  0  0  0  0  0  0  0  0  0
    0.8749   -0.2392    0.1711 N   0  0  0  0  0  0  0  0  0  0  0  0
    0.3680   -0.6216   -1.1694 C   0  0  2  0  0  0  0  0  0  0  0  0
    0.6740   -2.0983   -1.5185 C   0  0  0  0  0  0  0  0  0  0  0  0
    0.3528   -2.9575   -0.7055 O   0  0  0  0  0  0  0  0  0  0  0  0
    0.8690    0.3362   -2.2676 C   0  0  0  0  0  0  0  0  0  0  0  0
    2.2840    0.2536   -2.4550 O   0  0  0  0  0  0  0  0  0  0  0  0
    0.1724   -0.1161    0.8961 H   0  0  0  0  0  0  0  0  0  0  0  0
   -0.7224   -0.5399   -1.1525 H   0  0  0  0  0  0  0  0  0  0  0  0
    0.6110    1.3611   -1.9810 H   0  0  0  0  0  0  0  0  0  0  0  0
    0.3613    0.1259   -3.2147 H   0  0  0  0  0  0  0  0  0  0  0  0
    2.7296    0.0151   -1.6025 H   0  0  0  0  0  0  0  0  0  0  0  0
    1.1692   -2.4634   -2.7602 N   0  0  0  0  0  0  0  0  0  0  0  0
    1.6279   -3.8071   -3.1707 C   0  0  2  0  0  0  0  0  0  0  0  0
    0.5195   -4.8715   -3.3492 C   0  0  0  0  0  0  0  0  0  0  0  0
    0.5465   -5.6048   -4.3292 O   0  0  0  0  0  0  0  0  0  0  0  0
    2.7276   -4.3185   -2.2298 C   0  0  0  0  0  0  0  0  0  0  0  0
    1.5436   -1.6771   -3.2928 H   0  0  0  0  0  0  0  0  0  0  0  0
    2.0846   -3.6899   -4.1591 H   0  0  0  0  0  0  0  0  0  0  0  0
    2.3244   -4.5566   -1.2413 H   0  0  0  0  0  0  0  0  0  0  0  0
    3.1796   -5.2262   -2.6418 H   0  0  0  0  0  0  0  0  0  0  0  0
    3.5108   -3.5631   -2.1142 H   0  0  0  0  0  0  0  0  0  0  0  0
   -0.4824   -5.0404   -2.4144 N   0  0  0  0  0  0  0  0  0  0  0  0
   -1.4846   -6.0954   -2.4758 C   0  0  0  0  0  0  0  0  0  0  0  0
   -0.4089   -4.4645   -1.5719 H   0  0  0  0  0  0  0  0  0  0  0  0
   -1.0129   -7.0771   -2.3633 H   0  0  0  0  0  0  0  0  0  0  0  0
   -2.2170   -5.9673   -1.6731 H   0  0  0  0  0  0  0  0  0  0  0  0
   -2.0154   -6.0662   -3.4332 H   0  0  0  0  0  0  0  0  0  0  0  0
  1  2  2  0  0  0  0
  1  3  1  0  0  0  0
  1  7  1  0  0  0  0
  3  4  1  0  0  0  0
  3  5  1  0  0  0  0
  3  6  1  0  0  0  0
  7  8  1  0  0  0  0
  7 12  1  0  0  0  0
  8  9  1  0  0  0  0
  8 11  1  0  0  0  0
  8 13  1  0  0  0  0
  9 10  2  0  0  0  0
  9 17  1  0  0  0  0
 11 14  1  0  0  0  0
 11 15  1  0  0  0  0
 11 16  1  0  0  0  0
 17 18  1  0  0  0  0
 17 23  1  0  0  0  0
 18 19  1  0  0  0  0
 18 21  1  0  0  0  0
 18 24  1  0  0  0  0
 19 20  2  0  0  0  0
 19 28  1  0  0  0  0
 21 22  1  0  0  0  0
 21 25  1  0  0  0  0
 21 26  1  0  0  0  0
 22 27  1  0  0  0  0
 28 29  1  0  0  0  0
 28 33  1  0  0  0  0
 29 30  1  0  0  0  0
 29 32  1  0  0  0  0
 29 34  1  0  0  0  0
 30 31  2  0  0  0  0
 30 38  1  0  0  0  0
 32 35  1  0  0  0  0
 32 36  1  0  0  0  0
 32 37  1  0  0  0  0
 38 39  1  0  0  0  0
 38 40  1  0  0  0  0
 39 41  1  0  0  0  0
 39 42  1  0  0  0  0
 39 43  1  0  0  0  0
M  END
$$$$

  -OEChem-05262217303D

 43 42  0     1  0  0  0  0  0999 V2000
    3.8953   -1.8704    3.7191 C   0  0  0  0  0  0  0  0  0  0  0  0
    3.0686   -1.7986    4.6142 O   0  0  0  0  0  0  0  0  0  0  0  0
    5.1756   -2.6581    3.9241 C   0  0  0  0  0  0  0  0  0  0  0  0
    6.0418   -2.0081    3.7791 H   0  0  0  0  0  0  0  0  0  0  0  0
    5.2076   -3.0659    4.9384 H   0  0  0  0  0  0  0  0  0  0  0  0
    5.2247   -3.4842    3.2107 H   0  0  0  0  0  0  0  0  0  0  0  0
    3.6626   -1.2345    2.5176 N   0  0  0  0  0  0  0  0  0  0  0  0
    2.4120   -0.5440    2.1751 C   0  0  2  0  0  0  0  0  0  0  0  0
    2.1422   -0.5661    0.6562 C   0  0  0  0  0  0  0  0  0  0  0  0
    3.0489   -0.8249   -0.1295 O   0  0  0  0  0  0  0  0  0  0  0  0
    2.4989    0.8978    2.6860 C   0  0  0  0  0  0  0  0  0  0  0  0
    4.3285   -1.3962    1.7633 H   0  0  0  0  0  0  0  0  0  0  0  0
    1.5713   -1.0501    2.6624 H   0  0  0  0  0  0  0  0  0  0  0  0
    3.3368    1.4216    2.2148 H   0  0  0  0  0  0  0  0  0  0  0  0
    1.5768    1.4427    2.4636 H   0  0  0  0  0  0  0  0  0  0  0  0
    2.6490    0.9067    3.7703 H   0  0  0  0  0  0  0  0  0  0  0  0
    0.8921   -0.2417    0.1553 N   0  0  0  0  0  0  0  0  0  0  0  0
    0.3962   -0.6290   -1.1878 C   0  0  2  0  0  0  0  0  0  0  0  0
    0.6897   -2.1085   -1.5307 C   0  0  0  0  0  0  0  0  0  0  0  0
    0.1852   -2.9675   -0.8178 O   0  0  0  0  0  0  0  0  0  0  0  0
    0.9131    0.3270   -2.2812 C   0  0  0  0  0  0  0  0  0  0  0  0
    2.3317    0.2438   -2.4537 O   0  0  0  0  0  0  0  0  0  0  0  0
    0.1819   -0.1031    0.8703 H   0  0  0  0  0  0  0  0  0  0  0  0
   -0.6938   -0.5377   -1.1803 H   0  0  0  0  0  0  0  0  0  0  0  0
    0.6501    1.3530   -2.0047 H   0  0  0  0  0  0  0  0  0  0  0  0
    0.4187    0.1077   -3.2336 H   0  0  0  0  0  0  0  0  0  0  0  0
    2.7684    0.0344   -1.5896 H   0  0  0  0  0  0  0  0  0  0  0  0
    1.4622   -2.4682   -2.6232 N   0  0  0  0  0  0  0  0  0  0  0  0
    1.9923   -3.8115   -2.9358 C   0  0  2  0  0  0  0  0  0  0  0  0
    0.9454   -4.8574   -3.3854 C   0  0  0  0  0  0  0  0  0  0  0  0
    1.2011   -5.5947   -4.3286 O   0  0  0  0  0  0  0  0  0  0  0  0
    2.8329   -4.3472   -1.7690 C   0  0  0  0  0  0  0  0  0  0  0  0
    1.9377   -1.6768   -3.0625 H   0  0  0  0  0  0  0  0  0  0  0  0
    2.6706   -3.6881   -3.7862 H   0  0  0  0  0  0  0  0  0  0  0  0
    2.2037   -4.5950   -0.9093 H   0  0  0  0  0  0  0  0  0  0  0  0
    3.3638   -5.2538   -2.0758 H   0  0  0  0  0  0  0  0  0  0  0  0
    3.5713   -3.6016   -1.4580 H   0  0  0  0  0  0  0  0  0  0  0  0
   -0.2605   -5.0024   -2.7290 N   0  0  0  0  0  0  0  0  0  0  0  0
   -1.2445   -6.0276   -3.0472 C   0  0  0  0  0  0  0  0  0  0  0  0
   -0.3848   -4.4282   -1.8914 H   0  0  0  0  0  0  0  0  0  0  0  0
   -0.8300   -7.0247   -2.8662 H   0  0  0  0  0  0  0  0  0  0  0  0
   -2.1344   -5.9021   -2.4231 H   0  0  0  0  0  0  0  0  0  0  0  0
   -1.5470   -5.9559   -4.0972 H   0  0  0  0  0  0  0  0  0  0  0  0
  1  2  2  0  0  0  0
  1  3  1  0  0  0  0
  1  7  1  0  0  0  0
  3  4  1  0  0  0  0
  3  5  1  0  0  0  0
  3  6  1  0  0  0  0
  7  8  1  0  0  0  0
  7 12  1  0  0  0  0
  8  9  1  0  0  0  0
  8 11  1  0  0  0  0
  8 13  1  0  0  0  0
  9 10  2  0  0  0  0
  9 17  1  0  0  0  0
 11 14  1  0  0  0  0
 11 15  1  0  0  0  0
 11 16  1  0  0  0  0
 17 18  1  0  0  0  0
 17 23  1  0  0  0  0
 18 19  1  0  0  0  0
 18 21  1  0  0  0  0
 18 24  1  0  0  0  0
 19 20  2  0  0  0  0
 19 28  1  0  0  0  0
 21 22  1  0  0  0  0
 21 25  1  0  0  0  0
 21 26  1  0  0  0  0
 22 27  1  0  0  0  0
 28 29  1  0  0  0  0
 28 33  1  0  0  0  0
 29 30  1  0  0  0  0
 29 32  1  0  0  0  0
 29 34  1  0  0  0  0
 30 31  2  0  0  0  0
 30 38  1  0  0  0  0
 32 35  1  0  0  0  0
 32 36  1  0  0  0  0
 32 37  1  0  0  0  0
 38 39  1  0  0  0  0
 38 40  1  0  0  0  0
 39 41  1  0  0  0  0
 39 42  1  0  0  0  0
 39 43  1  0  0  0  0
M  END
$$$$

  -OEChem-05262217303D

 43 42  0     1  0  0  0  0  0999 V2000
    3.8612   -1.8037    3.7996 C   0  0  0  0  0  0  0  0  0  0  0  0
    3.0175   -1.7024    4.6757 O   0  0  0  0  0  0  0  0  0  0  0  0
    5.1200   -2.6154    4.0419 C   0  0  0  0  0  0  0  0  0  0  0  0
    6.0021   -1.9815    3.9226 H   0  0  0  0  0  0  0  0  0  0  0  0
    5.1152   -3.0247    5.0562 H   0  0  0  0  0  0  0  0  0  0  0  0
    5.1747   -3.4422    3.3295 H   0  0  0  0  0  0  0  0  0  0  0  0
    3.6663   -1.1807    2.5846 N   0  0  0  0  0  0  0  0  0  0  0  0
    2.4364   -0.4725    2.2052 C   0  0  2  0  0  0  0  0  0  0  0  0
    2.1617   -0.5707    0.6906 C   0  0  0  0  0  0  0  0  0  0  0  0
    3.0741   -0.8352   -0.0855 O   0  0  0  0  0  0  0  0  0  0  0  0
    2.5722    0.9927    2.6318 C   0  0  0  0  0  0  0  0  0  0  0  0
    4.3485   -1.3606    1.8494 H   0  0  0  0  0  0  0  0  0  0  0  0
    1.5804   -0.9217    2.7214 H   0  0  0  0  0  0  0  0  0  0  0  0
    3.4181    1.4641    2.1208 H   0  0  0  0  0  0  0  0  0  0  0  0
    1.6631    1.5506    2.3885 H   0  0  0  0  0  0  0  0  0  0  0  0
    2.7373    1.0593    3.7121 H   0  0  0  0  0  0  0  0  0  0  0  0
    0.9070   -0.2819    0.1810 N   0  0  0  0  0  0  0  0  0  0  0  0
    0.4142   -0.6861   -1.1582 C   0  0  2  0  0  0  0  0  0  0  0  0
    0.7247   -2.1580   -1.5197 C   0  0  0  0  0  0  0  0  0  0  0  0
    0.0807   -3.0287   -0.9481 O   0  0  0  0  0  0  0  0  0  0  0  0
    0.9139    0.2913   -2.2412 C   0  0  0  0  0  0  0  0  0  0  0  0
    2.3360    0.2443   -2.4091 O   0  0  0  0  0  0  0  0  0  0  0  0
    0.1949   -0.1214    0.8896 H   0  0  0  0  0  0  0  0  0  0  0  0
   -0.6775   -0.6122   -1.1475 H   0  0  0  0  0  0  0  0  0  0  0  0
    0.6230    1.3087   -1.9598 H   0  0  0  0  0  0  0  0  0  0  0  0
    0.4306    0.0647   -3.1976 H   0  0  0  0  0  0  0  0  0  0  0  0
    2.7762    0.0706   -1.5400 H   0  0  0  0  0  0  0  0  0  0  0  0
    1.7191   -2.5034   -2.4197 N   0  0  0  0  0  0  0  0  0  0  0  0
    2.2819   -3.8461   -2.6690 C   0  0  2  0  0  0  0  0  0  0  0  0
    1.3377   -4.8494   -3.3714 C   0  0  0  0  0  0  0  0  0  0  0  0
    1.7738   -5.5541   -4.2726 O   0  0  0  0  0  0  0  0  0  0  0  0
    2.8461   -4.4456   -1.3742 C   0  0  0  0  0  0  0  0  0  0  0  0
    2.2528   -1.7047   -2.7705 H   0  0  0  0  0  0  0  0  0  0  0  0
    3.1266   -3.7078   -3.3515 H   0  0  0  0  0  0  0  0  0  0  0  0
    2.0452   -4.6979   -0.6732 H   0  0  0  0  0  0  0  0  0  0  0  0
    3.4042   -5.3602   -1.5978 H   0  0  0  0  0  0  0  0  0  0  0  0
    3.5238   -3.7353   -0.8909 H   0  0  0  0  0  0  0  0  0  0  0  0
    0.0230   -5.0020   -2.9787 N   0  0  0  0  0  0  0  0  0  0  0  0
   -0.8822   -5.9985   -3.5334 C   0  0  0  0  0  0  0  0  0  0  0  0
   -0.2681   -4.4548   -2.1649 H   0  0  0  0  0  0  0  0  0  0  0  0
   -0.4949   -7.0072   -3.3572 H   0  0  0  0  0  0  0  0  0  0  0  0
   -1.8661   -5.9169   -3.0617 H   0  0  0  0  0  0  0  0  0  0  0  0
   -1.0018   -5.8494   -4.6116 H   0  0  0  0  0  0  0  0  0  0  0  0
  1  2  2  0  0  0  0
  1  3  1  0  0  0  0
  1  7  1  0  0  0  0
  3  4  1  0  0  0  0
  3  5  1  0  0  0  0
  3  6  1  0  0  0  0
  7  8  1  0  0  0  0
  7 12  1  0  0  0  0
  8  9  1  0  0  0  0
  8 11  1  0  0  0  0
  8 13  1  0  0  0  0
  9 10  2  0  0  0  0
  9 17  1  0  0  0  0
 11 14  1  0  0  0  0
 11 15  1  0  0  0  0
 11 16  1  0  0  0  0
 17 18  1  0  0  0  0
 17 23  1  0  0  0  0
 18 19  1  0  0  0  0
 18 21  1  0  0  0  0
 18 24  1  0  0  0  0
 19 20  2  0  0  0  0
 19 28  1  0  0  0  0
 21 22  1  0  0  0  0
 21 25  1  0  0  0  0
 21 26  1  0  0  0  0
 22 27  1  0  0  0  0
 28 29  1  0  0  0  0
 28 33  1  0  0  0  0
 29 30  1  0  0  0  0
 29 32  1  0  0  0  0
 29 34  1  0  0  0  0
 30 31  2  0  0  0  0
 30 38  1  0  0  0  0
 32 35  1  0  0  0  0
 32 36  1  0  0  0  0
 32 37  1  0  0  0  0
 38 39  1  0  0  0  0
 38 40  1  0  0  0  0
 39 41  1  0  0  0  0
 39 42  1  0  0  0  0
 39 43  1  0  0  0  0
M  END
$$$$

  -OEChem-05262217303D

 43 42  0     1  0  0  0  0  0999 V2000
    3.6433   -1.5726    3.9999 C   0  0  0  0  0  0  0  0  0  0  0  0
    2.5724   -1.6815    4.5756 O   0  0  0  0  0  0  0  0  0  0  0  0
    4.8220   -2.4314    4.4183 C   0  0  0  0  0  0  0  0  0  0  0  0
    5.6733   -1.7969    4.6774 H   0  0  0  0  0  0  0  0  0  0  0  0
    4.5570   -3.0371    5.2897 H   0  0  0  0  0  0  0  0  0  0  0  0
    5.1076   -3.0972    3.6001 H   0  0  0  0  0  0  0  0  0  0  0  0
    3.7833   -0.6841    2.9538 N   0  0  0  0  0  0  0  0  0  0  0  0
    2.6486    0.0032    2.3204 C   0  0  2  0  0  0  0  0  0  0  0  0
    2.2401   -0.6624    0.9896 C   0  0  0  0  0  0  0  0  0  0  0  0
    3.0963   -1.2075    0.2985 O   0  0  0  0  0  0  0  0  0  0  0  0
    3.0601    1.4577    2.0823 C   0  0  0  0  0  0  0  0  0  0  0  0
    4.6219   -0.7964    2.3889 H   0  0  0  0  0  0  0  0  0  0  0  0
    1.7774   -0.0024    2.9839 H   0  0  0  0  0  0  0  0  0  0  0  0
    3.9206    1.5084    1.4072 H   0  0  0  0  0  0  0  0  0  0  0  0
    2.2349    2.0202    1.6345 H   0  0  0  0  0  0  0  0  0  0  0  0
    3.3303    1.9347    3.0296 H   0  0  0  0  0  0  0  0  0  0  0  0
    0.9280   -0.5776    0.5484 N   0  0  0  0  0  0  0  0  0  0  0  0
    0.4074   -1.1078   -0.7308 C   0  0  2  0  0  0  0  0  0  0  0  0
    0.8683   -2.5373   -1.0945 C   0  0  0  0  0  0  0  0  0  0  0  0
    0.0697   -3.4538   -0.9458 O   0  0  0  0  0  0  0  0  0  0  0  0
    0.5837   -0.0971   -1.8814 C   0  0  0  0  0  0  0  0  0  0  0  0
    1.9466    0.1711   -2.2297 O   0  0  0  0  0  0  0  0  0  0  0  0
    0.2724   -0.1217    1.1770 H   0  0  0  0  0  0  0  0  0  0  0  0
   -0.6744   -1.2043   -0.5946 H   0  0  0  0  0  0  0  0  0  0  0  0
    0.1118    0.8458   -1.5872 H   0  0  0  0  0  0  0  0  0  0  0  0
    0.0557   -0.4637   -2.7681 H   0  0  0  0  0  0  0  0  0  0  0  0
    2.3051   -0.5306   -2.8015 H   0  0  0  0  0  0  0  0  0  0  0  0
    2.0270   -2.7386   -1.8257 N   0  0  0  0  0  0  0  0  0  0  0  0
    2.5591   -4.0353   -2.2936 C   0  0  2  0  0  0  0  0  0  0  0  0
    1.7609   -4.6982   -3.4405 C   0  0  0  0  0  0  0  0  0  0  0  0
    2.3507   -5.0668   -4.4480 O   0  0  0  0  0  0  0  0  0  0  0  0
    2.7535   -5.0085   -1.1223 C   0  0  0  0  0  0  0  0  0  0  0  0
    2.7304   -2.0393   -1.5717 H   0  0  0  0  0  0  0  0  0  0  0  0
    3.5537   -3.8324   -2.7043 H   0  0  0  0  0  0  0  0  0  0  0  0
    1.7933   -5.3518   -0.7267 H   0  0  0  0  0  0  0  0  0  0  0  0
    3.3176   -5.8856   -1.4541 H   0  0  0  0  0  0  0  0  0  0  0  0
    3.3103   -4.5236   -0.3146 H   0  0  0  0  0  0  0  0  0  0  0  0
    0.3966   -4.8894   -3.3539 N   0  0  0  0  0  0  0  0  0  0  0  0
   -0.4063   -5.5396   -4.3800 C   0  0  0  0  0  0  0  0  0  0  0  0
   -0.0480   -4.5743   -2.4876 H   0  0  0  0  0  0  0  0  0  0  0  0
   -0.0760   -6.5730   -4.5264 H   0  0  0  0  0  0  0  0  0  0  0  0
   -1.4595   -5.5510   -4.0836 H   0  0  0  0  0  0  0  0  0  0  0  0
   -0.3206   -5.0036   -5.3307 H   0  0  0  0  0  0  0  0  0  0  0  0
  1  2  2  0  0  0  0
  1  3  1  0  0  0  0
  1  7  1  0  0  0  0
  3  4  1  0  0  0  0
  3  5  1  0  0  0  0
  3  6  1  0  0  0  0
  7  8  1  0  0  0  0
  7 12  1  0  0  0  0
  8  9  1  0  0  0  0
  8 11  1  0  0  0  0
  8 13  1  0  0  0  0
  9 10  2  0  0  0  0
  9 17  1  0  0  0  0
 11 14  1  0  0  0  0
 11 15  1  0  0  0  0
 11 16  1  0  0  0  0
 17 18  1  0  0  0  0
 17 23  1  0  0  0  0
 18 19  1  0  0  0  0
 18 21  1  0  0  0  0
 18 24  1  0  0  0  0
 19 20  2  0  0  0  0
 19 28  1  0  0  0  0
 21 22  1  0  0  0  0
 21 25  1  0  0  0  0
 21 26  1  0  0  0  0
 22 27  1  0  0  0  0
 28 29  1  0  0  0  0
 28 33  1  0  0  0  0
 29 30  1  0  0  0  0
 29 32  1  0  0  0  0
 29 34  1  0  0  0  0
 30 31  2  0  0  0  0
 30 38  1  0  0  0  0
 32 35  1  0  0  0  0
 32 36  1  0  0  0  0
 32 37  1  0  0  0  0
 38 39  1  0  0  0  0
 38 40  1  0  0  0  0
 39 41  1  0  0  0  0
 39 42  1  0  0  0  0
 39 43  1  0  0  0  0
M  END
$$$$

  -OEChem-05262217303D

 43 42  0     1  0  0  0  0  0999 V2000
    3.5513   -1.5217    3.9955 C   0  0  0  0  0  0  0  0  0  0  0  0
    2.4161   -1.7342    4.3917 O   0  0  0  0  0  0  0  0  0  0  0  0
    4.7104   -2.3497    4.5178 C   0  0  0  0  0  0  0  0  0  0  0  0
    5.4698   -1.6963    4.9544 H   0  0  0  0  0  0  0  0  0  0  0  0
    4.3616   -3.0452    5.2864 H   0  0  0  0  0  0  0  0  0  0  0  0
    5.1573   -2.9224    3.7014 H   0  0  0  0  0  0  0  0  0  0  0  0
    3.7778   -0.5437    3.0489 N   0  0  0  0  0  0  0  0  0  0  0  0
    2.6875    0.1288    2.3287 C   0  0  2  0  0  0  0  0  0  0  0  0
    2.2896   -0.6198    1.0394 C   0  0  0  0  0  0  0  0  0  0  0  0
    3.1613   -1.1509    0.3595 O   0  0  0  0  0  0  0  0  0  0  0  0
    3.1486    1.5496    1.9964 C   0  0  0  0  0  0  0  0  0  0  0  0
    4.6902   -0.5612    2.6006 H   0  0  0  0  0  0  0  0  0  0  0  0
    1.8028    0.1999    2.9703 H   0  0  0  0  0  0  0  0  0  0  0  0
    4.0283    1.5267    1.3450 H   0  0  0  0  0  0  0  0  0  0  0  0
    2.3529    2.0985    1.4830 H   0  0  0  0  0  0  0  0  0  0  0  0
    3.4057    2.0895    2.9130 H   0  0  0  0  0  0  0  0  0  0  0  0
    0.9661   -0.6162    0.6266 N   0  0  0  0  0  0  0  0  0  0  0  0
    0.4076   -1.2052   -0.6128 C   0  0  2  0  0  0  0  0  0  0  0  0
    0.8732   -2.6270   -1.0028 C   0  0  0  0  0  0  0  0  0  0  0  0
    0.0289   -3.5129   -1.0461 O   0  0  0  0  0  0  0  0  0  0  0  0
    0.5254   -0.2261   -1.7954 C   0  0  0  0  0  0  0  0  0  0  0  0
    1.8756    0.0465   -2.1869 O   0  0  0  0  0  0  0  0  0  0  0  0
    0.3140   -0.1643    1.2617 H   0  0  0  0  0  0  0  0  0  0  0  0
   -0.6655   -1.3170   -0.4278 H   0  0  0  0  0  0  0  0  0  0  0  0
    0.0460    0.7185   -1.5192 H   0  0  0  0  0  0  0  0  0  0  0  0
   -0.0200   -0.6315   -2.6545 H   0  0  0  0  0  0  0  0  0  0  0  0
    2.2898   -0.7371   -2.5910 H   0  0  0  0  0  0  0  0  0  0  0  0
    2.1325   -2.8523   -1.5336 N   0  0  0  0  0  0  0  0  0  0  0  0
    2.6951   -4.1480   -1.9672 C   0  0  2  0  0  0  0  0  0  0  0  0
    2.0879   -4.7240   -3.2672 C   0  0  0  0  0  0  0  0  0  0  0  0
    2.8295   -5.0546   -4.1834 O   0  0  0  0  0  0  0  0  0  0  0  0
    2.6474   -5.1815   -0.8330 C   0  0  0  0  0  0  0  0  0  0  0  0
    2.8100   -2.1627   -1.1911 H   0  0  0  0  0  0  0  0  0  0  0  0
    3.7527   -3.9694   -2.1876 H   0  0  0  0  0  0  0  0  0  0  0  0
    1.6203   -5.4923   -0.6205 H   0  0  0  0  0  0  0  0  0  0  0  0
    3.2200   -6.0711   -1.1134 H   0  0  0  0  0  0  0  0  0  0  0  0
    3.0817   -4.7633    0.0803 H   0  0  0  0  0  0  0  0  0  0  0  0
    0.7242   -4.8757   -3.4184 N   0  0  0  0  0  0  0  0  0  0  0  0
    0.0869   -5.4046   -4.6159 C   0  0  0  0  0  0  0  0  0  0  0  0
    0.1469   -4.5741   -2.6288 H   0  0  0  0  0  0  0  0  0  0  0  0
   -0.9963   -5.4596   -4.4725 H   0  0  0  0  0  0  0  0  0  0  0  0
    0.2911   -4.7580   -5.4753 H   0  0  0  0  0  0  0  0  0  0  0  0
    0.4576   -6.4113   -4.8349 H   0  0  0  0  0  0  0  0  0  0  0  0
  1  2  2  0  0  0  0
  1  3  1  0  0  0  0
  1  7  1  0  0  0  0
  3  4  1  0  0  0  0
  3  5  1  0  0  0  0
  3  6  1  0  0  0  0
  7  8  1  0  0  0  0
  7 12  1  0  0  0  0
  8  9  1  0  0  0  0
  8 11  1  0  0  0  0
  8 13  1  0  0  0  0
  9 10  2  0  0  0  0
  9 17  1  0  0  0  0
 11 14  1  0  0  0  0
 11 15  1  0  0  0  0
 11 16  1  0  0  0  0
 17 18  1  0  0  0  0
 17 23  1  0  0  0  0
 18 19  1  0  0  0  0
 18 21  1  0  0  0  0
 18 24  1  0  0  0  0
 19 20  2  0  0  0  0
 19 28  1  0  0  0  0
 21 22  1  0  0  0  0
 21 25  1  0  0  0  0
 21 26  1  0  0  0  0
 22 27  1  0  0  0  0
 28 29  1  0  0  0  0
 28 33  1  0  0  0  0
 29 30  1  0  0  0  0
 29 32  1  0  0  0  0
 29 34  1  0  0  0  0
 30 31  2  0  0  0  0
 30 38  1  0  0  0  0
 32 35  1  0  0  0  0
 32 36  1  0  0  0  0
 32 37  1  0  0  0  0
 38 39  1  0  0  0  0
 38 40  1  0  0  0  0
 39 41  1  0  0  0  0
 39 42  1  0  0  0  0
 39 43  1  0  0  0  0
M  END
$$$$

  -OEChem-05262217303D

 43 42  0     1  0  0  0  0  0999 V2000
    2.3105   -0.7888    4.1013 C   0  0  0  0  0  0  0  0  0  0  0  0
    1.1814   -0.4674    3.7622 O   0  0  0  0  0  0  0  0  0  0  0  0
    2.5371   -1.5533    5.3914 C   0  0  0  0  0  0  0  0  0  0  0  0
    3.2495   -1.0178    6.0238 H   0  0  0  0  0  0  0  0  0  0  0  0
    1.5948   -1.6599    5.9365 H   0  0  0  0  0  0  0  0  0  0  0  0
    2.9316   -2.5485    5.1720 H   0  0  0  0  0  0  0  0  0  0  0  0
    3.3739   -0.4982    3.2712 N   0  0  0  0  0  0  0  0  0  0  0  0
    3.2642    0.2848    2.0292 C   0  0  2  0  0  0  0  0  0  0  0  0
    2.6921   -0.5377    0.8465 C   0  0  0  0  0  0  0  0  0  0  0  0
    3.3404   -0.6979   -0.1798 O   0  0  0  0  0  0  0  0  0  0  0  0
    4.6537    0.8676    1.7379 C   0  0  0  0  0  0  0  0  0  0  0  0
    4.2932   -0.8185    3.5630 H   0  0  0  0  0  0  0  0  0  0  0  0
    2.5810    1.1263    2.1901 H   0  0  0  0  0  0  0  0  0  0  0  0
    5.3803    0.0671    1.5646 H   0  0  0  0  0  0  0  0  0  0  0  0
    4.6196    1.5021    0.8461 H   0  0  0  0  0  0  0  0  0  0  0  0
    4.9969    1.4774    2.5793 H   0  0  0  0  0  0  0  0  0  0  0  0
    1.4248   -1.0796    0.9774 N   0  0  0  0  0  0  0  0  0  0  0  0
    0.6204   -1.8568    0.0047 C   0  0  2  0  0  0  0  0  0  0  0  0
    1.2904   -2.9961   -0.7976 C   0  0  0  0  0  0  0  0  0  0  0  0
    0.7428   -4.0914   -0.7974 O   0  0  0  0  0  0  0  0  0  0  0  0
   -0.1269   -0.9117   -0.9515 C   0  0  0  0  0  0  0  0  0  0  0  0
    0.7473   -0.1647   -1.8061 O   0  0  0  0  0  0  0  0  0  0  0  0
    0.9871   -0.8745    1.8815 H   0  0  0  0  0  0  0  0  0  0  0  0
   -0.1483   -2.3597    0.6001 H   0  0  0  0  0  0  0  0  0  0  0  0
   -0.7259   -0.2105   -0.3614 H   0  0  0  0  0  0  0  0  0  0  0  0
   -0.8188   -1.4943   -1.5693 H   0  0  0  0  0  0  0  0  0  0  0  0
    1.2563   -0.7504   -2.3943 H   0  0  0  0  0  0  0  0  0  0  0  0
    2.3655   -2.7780   -1.6421 N   0  0  0  0  0  0  0  0  0  0  0  0
    3.1158   -3.7838   -2.4228 C   0  0  2  0  0  0  0  0  0  0  0  0
    2.3582   -4.4006   -3.6216 C   0  0  0  0  0  0  0  0  0  0  0  0
    2.9389   -4.5433   -4.6898 O   0  0  0  0  0  0  0  0  0  0  0  0
    3.6750   -4.8833   -1.5103 C   0  0  0  0  0  0  0  0  0  0  0  0
    2.8584   -1.9024   -1.4374 H   0  0  0  0  0  0  0  0  0  0  0  0
    3.9750   -3.2602   -2.8544 H   0  0  0  0  0  0  0  0  0  0  0  0
    2.8754   -5.5209   -1.1220 H   0  0  0  0  0  0  0  0  0  0  0  0
    4.3723   -5.5143   -2.0702 H   0  0  0  0  0  0  0  0  0  0  0  0
    4.2107   -4.4399   -0.6656 H   0  0  0  0  0  0  0  0  0  0  0  0
    1.0496   -4.8250   -3.5078 N   0  0  0  0  0  0  0  0  0  0  0  0
    0.3199   -5.5089   -4.5659 C   0  0  0  0  0  0  0  0  0  0  0  0
    0.6429   -4.7711   -2.5705 H   0  0  0  0  0  0  0  0  0  0  0  0
   -0.7085   -5.7049   -4.2481 H   0  0  0  0  0  0  0  0  0  0  0  0
    0.2898   -4.8930   -5.4707 H   0  0  0  0  0  0  0  0  0  0  0  0
    0.7988   -6.4643   -4.8042 H   0  0  0  0  0  0  0  0  0  0  0  0
  1  2  2  0  0  0  0
  1  3  1  0  0  0  0
  1  7  1  0  0  0  0
  3  4  1  0  0  0  0
  3  5  1  0  0  0  0
  3  6  1  0  0  0  0
  7  8  1  0  0  0  0
  7 12  1  0  0  0  0
  8  9  1  0  0  0  0
  8 11  1  0  0  0  0
  8 13  1  0  0  0  0
  9 10  2  0  0  0  0
  9 17  1  0  0  0  0
 11 14  1  0  0  0  0
 11 15  1  0  0  0  0
 11 16  1  0  0  0  0
 17 18  1  0  0  0  0
 17 23  1  0  0  0  0
 18 19  1  0  0  0  0
 18 21  1  0  0  0  0
 18 24  1  0  0  0  0
 19 20  2  0  0  0  0
 19 28  1  0  0  0  0
 21 22  1  0  0  0  0
 21 25  1  0  0  0  0
 21 26  1  0  0  0  0
 22 27  1  0  0  0  0
 28 29  1  0  0  0  0
 28 33  1  0  0  0  0
 29 30  1  0  0  0  0
 29 32  1  0  0  0  0
 29 34  1  0  0  0  0
 30 31  2  0  0  0  0
 30 38  1  0  0  0  0
 32 35  1  0  0  0  0
 32 36  1  0  0  0  0
 32 37  1  0  0  0  0
 38 39  1  0  0  0  0
 38 40  1  0  0  0  0
 39 41  1  0  0  0  0
 39 42  1  0  0  0  0
 39 43  1  0  0  0  0
M  END
$$$$

  -OEChem-05262217303D

 43 42  0     1  0  0  0  0  0999 V2000
    2.1531   -1.4330    3.6680 C   0  0  0  0  0  0  0  0  0  0  0  0
    1.0124   -1.0140    3.5389 O   0  0  0  0  0  0  0  0  0  0  0  0
    2.4446   -2.6060    4.5840 C   0  0  0  0  0  0  0  0  0  0  0  0
    3.2059   -2.3286    5.3173 H   0  0  0  0  0  0  0  0  0  0  0  0
    1.5364   -2.9033    5.1161 H   0  0  0  0  0  0  0  0  0  0  0  0
    2.8040   -3.4569    3.9997 H   0  0  0  0  0  0  0  0  0  0  0  0
    3.1651   -0.8617    2.9233 N   0  0  0  0  0  0  0  0  0  0  0  0
    2.9792    0.2890    2.0246 C   0  0  2  0  0  0  0  0  0  0  0  0
    2.2874   -0.1094    0.6975 C   0  0  0  0  0  0  0  0  0  0  0  0
    2.8526    0.0098   -0.3837 O   0  0  0  0  0  0  0  0  0  0  0  0
    4.3580    0.9267    1.8097 C   0  0  0  0  0  0  0  0  0  0  0  0
    4.0971   -1.2551    3.0248 H   0  0  0  0  0  0  0  0  0  0  0  0
    2.3405    1.0336    2.5125 H   0  0  0  0  0  0  0  0  0  0  0  0
    5.0395    0.2208    1.3241 H   0  0  0  0  0  0  0  0  0  0  0  0
    4.2712    1.8147    1.1751 H   0  0  0  0  0  0  0  0  0  0  0  0
    4.7921    1.2306    2.7673 H   0  0  0  0  0  0  0  0  0  0  0  0
    0.9881   -0.5820    0.7244 N   0  0  0  0  0  0  0  0  0  0  0  0
    0.3083   -1.4480   -0.2738 C   0  0  2  0  0  0  0  0  0  0  0  0
    1.0874   -2.6775   -0.8001 C   0  0  0  0  0  0  0  0  0  0  0  0
    0.5117   -3.7581   -0.8031 O   0  0  0  0  0  0  0  0  0  0  0  0
   -0.1792   -0.6171   -1.4712 C   0  0  0  0  0  0  0  0  0  0  0  0
    0.9037   -0.0650   -2.2255 O   0  0  0  0  0  0  0  0  0  0  0  0
    0.6304   -0.6623    1.6832 H   0  0  0  0  0  0  0  0  0  0  0  0
   -0.5835   -1.8517    0.2162 H   0  0  0  0  0  0  0  0  0  0  0  0
   -0.8097    0.1988   -1.1033 H   0  0  0  0  0  0  0  0  0  0  0  0
   -0.7954   -1.2394   -2.1286 H   0  0  0  0  0  0  0  0  0  0  0  0
    1.6181    0.2472   -1.6227 H   0  0  0  0  0  0  0  0  0  0  0  0
    2.4151   -2.6198   -1.1885 N   0  0  0  0  0  0  0  0  0  0  0  0
    3.3250   -3.7402   -1.5024 C   0  0  2  0  0  0  0  0  0  0  0  0
    3.0014   -4.5358   -2.7886 C   0  0  0  0  0  0  0  0  0  0  0  0
    3.9228   -4.9532   -3.4790 O   0  0  0  0  0  0  0  0  0  0  0  0
    3.4520   -4.6860   -0.3009 C   0  0  0  0  0  0  0  0  0  0  0  0
    2.8082   -1.6756   -1.2102 H   0  0  0  0  0  0  0  0  0  0  0  0
    4.3127   -3.2989   -1.6705 H   0  0  0  0  0  0  0  0  0  0  0  0
    2.5259   -5.2461   -0.1410 H   0  0  0  0  0  0  0  0  0  0  0  0
    4.2590   -5.4049   -0.4746 H   0  0  0  0  0  0  0  0  0  0  0  0
    3.6806   -4.1200    0.6066 H   0  0  0  0  0  0  0  0  0  0  0  0
    1.7033   -4.8420   -3.1437 N   0  0  0  0  0  0  0  0  0  0  0  0
    1.3456   -5.6771   -4.2813 C   0  0  0  0  0  0  0  0  0  0  0  0
    0.9822   -4.5767   -2.4687 H   0  0  0  0  0  0  0  0  0  0  0  0
    1.7492   -5.2547   -5.2075 H   0  0  0  0  0  0  0  0  0  0  0  0
    1.7422   -6.6894   -4.1523 H   0  0  0  0  0  0  0  0  0  0  0  0
    0.2573   -5.7389   -4.3753 H   0  0  0  0  0  0  0  0  0  0  0  0
  1  2  2  0  0  0  0
  1  3  1  0  0  0  0
  1  7  1  0  0  0  0
  3  4  1  0  0  0  0
  3  5  1  0  0  0  0
  3  6  1  0  0  0  0
  7  8  1  0  0  0  0
  7 12  1  0  0  0  0
  8  9  1  0  0  0  0
  8 11  1  0  0  0  0
  8 13  1  0  0  0  0
  9 10  2  0  0  0  0
  9 17  1  0  0  0  0
 11 14  1  0  0  0  0
 11 15  1  0  0  0  0
 11 16  1  0  0  0  0
 17 18  1  0  0  0  0
 17 23  1  0  0  0  0
 18 19  1  0  0  0  0
 18 21  1  0  0  0  0
 18 24  1  0  0  0  0
 19 20  2  0  0  0  0
 19 28  1  0  0  0  0
 21 22  1  0  0  0  0
 21 25  1  0  0  0  0
 21 26  1  0  0  0  0
 22 27  1  0  0  0  0
 28 29  1  0  0  0  0
 28 33  1  0  0  0  0
 29 30  1  0  0  0  0
 29 32  1  0  0  0  0
 29 34  1  0  0  0  0
 30 31  2  0  0  0  0
 30 38  1  0  0  0  0
 32 35  1  0  0  0  0
 32 36  1  0  0  0  0
 32 37  1  0  0  0  0
 38 39  1  0  0  0  0
 38 40  1  0  0  0  0
 39 41  1  0  0  0  0
 39 42  1  0  0  0  0
 39 43  1  0  0  0  0
M  END
$$$$

  -OEChem-05262217303D

 43 42  0     1  0  0  0  0  0999 V2000
    2.8246   -1.9167    3.6313 C   0  0  0  0  0  0  0  0  0  0  0  0
    1.6053   -1.9516    3.6715 O   0  0  0  0  0  0  0  0  0  0  0  0
    3.6432   -3.0118    4.2886 C   0  0  0  0  0  0  0  0  0  0  0  0
    4.2147   -2.5991    5.1235 H   0  0  0  0  0  0  0  0  0  0  0  0
    2.9845   -3.7995    4.6657 H   0  0  0  0  0  0  0  0  0  0  0  0
    4.3342   -3.4500    3.5644 H   0  0  0  0  0  0  0  0  0  0  0  0
    3.4589   -0.8922    2.9591 N   0  0  0  0  0  0  0  0  0  0  0  0
    2.7286    0.0585    2.1101 C   0  0  2  0  0  0  0  0  0  0  0  0
    2.4897   -0.4986    0.6908 C   0  0  0  0  0  0  0  0  0  0  0  0
    3.3733   -1.1317    0.1274 O   0  0  0  0  0  0  0  0  0  0  0  0
    3.5387    1.3560    2.0513 C   0  0  0  0  0  0  0  0  0  0  0  0
    4.4485   -1.0287    2.7709 H   0  0  0  0  0  0  0  0  0  0  0  0
    1.7545    0.2828    2.5589 H   0  0  0  0  0  0  0  0  0  0  0  0
    4.5196    1.1773    1.5987 H   0  0  0  0  0  0  0  0  0  0  0  0
    3.0129    2.1072    1.4539 H   0  0  0  0  0  0  0  0  0  0  0  0
    3.6867    1.7582    3.0585 H   0  0  0  0  0  0  0  0  0  0  0  0
    1.4123   -0.0660   -0.0589 N   0  0  0  0  0  0  0  0  0  0  0  0
    0.6670   -0.8447   -1.0827 C   0  0  2  0  0  0  0  0  0  0  0  0
    0.2533   -2.3080   -0.7702 C   0  0  0  0  0  0  0  0  0  0  0  0
   -0.9270   -2.5785   -0.9128 O   0  0  0  0  0  0  0  0  0  0  0  0
    1.3901   -0.8091   -2.4392 C   0  0  0  0  0  0  0  0  0  0  0  0
    2.6499   -1.4827   -2.4004 O   0  0  0  0  0  0  0  0  0  0  0  0
    0.8232    0.5768    0.4645 H   0  0  0  0  0  0  0  0  0  0  0  0
   -0.2787   -0.3137   -1.2318 H   0  0  0  0  0  0  0  0  0  0  0  0
    1.5546    0.2347   -2.7258 H   0  0  0  0  0  0  0  0  0  0  0  0
    0.7585   -1.2665   -3.2086 H   0  0  0  0  0  0  0  0  0  0  0  0
    3.1172   -1.2540   -1.5559 H   0  0  0  0  0  0  0  0  0  0  0  0
    0.8747   -3.2373    0.0332 N   0  0  0  0  0  0  0  0  0  0  0  0
    2.0643   -3.9668   -0.4299 C   0  0  2  0  0  0  0  0  0  0  0  0
    1.7781   -4.8288   -1.6812 C   0  0  0  0  0  0  0  0  0  0  0  0
    1.3561   -5.9742   -1.5819 O   0  0  0  0  0  0  0  0  0  0  0  0
    2.5510   -4.8148    0.7494 C   0  0  0  0  0  0  0  0  0  0  0  0
    0.1608   -3.8628    0.4035 H   0  0  0  0  0  0  0  0  0  0  0  0
    2.8722   -3.2905   -0.6956 H   0  0  0  0  0  0  0  0  0  0  0  0
    1.7756   -5.5201    1.0666 H   0  0  0  0  0  0  0  0  0  0  0  0
    3.4417   -5.3836    0.4652 H   0  0  0  0  0  0  0  0  0  0  0  0
    2.8038   -4.1718    1.5966 H   0  0  0  0  0  0  0  0  0  0  0  0
    1.9998   -4.2931   -2.9357 N   0  0  0  0  0  0  0  0  0  0  0  0
    1.6825   -4.9893   -4.1749 C   0  0  0  0  0  0  0  0  0  0  0  0
    2.3073   -3.3186   -2.9780 H   0  0  0  0  0  0  0  0  0  0  0  0
    2.2177   -5.9432   -4.2275 H   0  0  0  0  0  0  0  0  0  0  0  0
    0.6068   -5.1835   -4.2384 H   0  0  0  0  0  0  0  0  0  0  0  0
    1.9770   -4.3808   -5.0352 H   0  0  0  0  0  0  0  0  0  0  0  0
  1  2  2  0  0  0  0
  1  3  1  0  0  0  0
  1  7  1  0  0  0  0
  3  4  1  0  0  0  0
  3  5  1  0  0  0  0
  3  6  1  0  0  0  0
  7  8  1  0  0  0  0
  7 12  1  0  0  0  0
  8  9  1  0  0  0  0
  8 11  1  0  0  0  0
  8 13  1  0  0  0  0
  9 10  2  0  0  0  0
  9 17  1  0  0  0  0
 11 14  1  0  0  0  0
 11 15  1  0  0  0  0
 11 16  1  0  0  0  0
 17 18  1  0  0  0  0
 17 23  1  0  0  0  0
 18 19  1  0  0  0  0
 18 21  1  0  0  0  0
 18 24  1  0  0  0  0
 19 20  2  0  0  0  0
 19 28  1  0  0  0  0
 21 22  1  0  0  0  0
 21 25  1  0  0  0  0
 21 26  1  0  0  0  0
 22 27  1  0  0  0  0
 28 29  1  0  0  0  0
 28 33  1  0  0  0  0
 29 30  1  0  0  0  0
 29 32  1  0  0  0  0
 29 34  1  0  0  0  0
 30 31  2  0  0  0  0
 30 38  1  0  0  0  0
 32 35  1  0  0  0  0
 32 36  1  0  0  0  0
 32 37  1  0  0  0  0
 38 39  1  0  0  0  0
 38 40  1  0  0  0  0
 39 41  1  0  0  0  0
 39 42  1  0  0  0  0
 39 43  1  0  0  0  0
M  END
$$$$

  -OEChem-05262217303D

 43 42  0     1  0  0  0  0  0999 V2000
    3.5931   -0.8258    4.4550 C   0  0  0  0  0  0  0  0  0  0  0  0
    2.5156   -0.5008    4.9289 O   0  0  0  0  0  0  0  0  0  0  0  0
    4.5191   -1.7430    5.2313 C   0  0  0  0  0  0  0  0  0  0  0  0
    5.4845   -1.2554    5.3872 H   0  0  0  0  0  0  0  0  0  0  0  0
    4.0835   -1.9814    6.2057 H   0  0  0  0  0  0  0  0  0  0  0  0
    4.6728   -2.6725    4.6774 H   0  0  0  0  0  0  0  0  0  0  0  0
    3.9596   -0.3877    3.1994 N   0  0  0  0  0  0  0  0  0  0  0  0
    3.0131    0.2564    2.2772 C   0  0  2  0  0  0  0  0  0  0  0  0
    2.3224   -0.7586    1.3415 C   0  0  0  0  0  0  0  0  0  0  0  0
    2.9129   -1.7905    1.0514 O   0  0  0  0  0  0  0  0  0  0  0  0
    3.7912    1.2830    1.4512 C   0  0  0  0  0  0  0  0  0  0  0  0
    4.7455   -0.8761    2.7772 H   0  0  0  0  0  0  0  0  0  0  0  0
    2.2375    0.7860    2.8407 H   0  0  0  0  0  0  0  0  0  0  0  0
    4.5663    0.7885    0.8564 H   0  0  0  0  0  0  0  0  0  0  0  0
    3.1194    1.8132    0.7689 H   0  0  0  0  0  0  0  0  0  0  0  0
    4.2680    2.0171    2.1080 H   0  0  0  0  0  0  0  0  0  0  0  0
    1.0748   -0.4484    0.8200 N   0  0  0  0  0  0  0  0  0  0  0  0
    0.3543   -1.0469   -0.3368 C   0  0  2  0  0  0  0  0  0  0  0  0
    0.2587   -2.5729   -0.5749 C   0  0  0  0  0  0  0  0  0  0  0  0
   -0.5556   -2.9592   -1.4055 O   0  0  0  0  0  0  0  0  0  0  0  0
    0.9300   -0.4146   -1.6204 C   0  0  0  0  0  0  0  0  0  0  0  0
    2.3024   -0.7683   -1.8442 O   0  0  0  0  0  0  0  0  0  0  0  0
    0.7163    0.4468    1.1387 H   0  0  0  0  0  0  0  0  0  0  0  0
   -0.6879   -0.7274   -0.2476 H   0  0  0  0  0  0  0  0  0  0  0  0
    0.8545    0.6749   -1.5477 H   0  0  0  0  0  0  0  0  0  0  0  0
    0.3355   -0.7227   -2.4873 H   0  0  0  0  0  0  0  0  0  0  0  0
    2.4140   -1.7390   -2.0097 H   0  0  0  0  0  0  0  0  0  0  0  0
    1.0543   -3.5096    0.0574 N   0  0  0  0  0  0  0  0  0  0  0  0
    1.4530   -4.7667   -0.5992 C   0  0  2  0  0  0  0  0  0  0  0  0
    2.0543   -4.5369   -2.0134 C   0  0  0  0  0  0  0  0  0  0  0  0
    2.6098   -3.4747   -2.2883 O   0  0  0  0  0  0  0  0  0  0  0  0
    0.2963   -5.7806   -0.5879 C   0  0  0  0  0  0  0  0  0  0  0  0
    1.7866   -3.0674    0.6168 H   0  0  0  0  0  0  0  0  0  0  0  0
    2.2586   -5.1984    0.0019 H   0  0  0  0  0  0  0  0  0  0  0  0
   -0.4860   -5.4977   -1.2984 H   0  0  0  0  0  0  0  0  0  0  0  0
    0.6594   -6.7774   -0.8543 H   0  0  0  0  0  0  0  0  0  0  0  0
   -0.1469   -5.8342    0.4112 H   0  0  0  0  0  0  0  0  0  0  0  0
    2.0391   -5.5391   -2.9673 N   0  0  0  0  0  0  0  0  0  0  0  0
    2.5376   -5.3539   -4.3249 C   0  0  0  0  0  0  0  0  0  0  0  0
    1.4833   -6.3631   -2.7596 H   0  0  0  0  0  0  0  0  0  0  0  0
    2.4566   -6.2881   -4.8887 H   0  0  0  0  0  0  0  0  0  0  0  0
    1.9575   -4.5834   -4.8434 H   0  0  0  0  0  0  0  0  0  0  0  0
    3.5903   -5.0521   -4.3094 H   0  0  0  0  0  0  0  0  0  0  0  0
  1  2  2  0  0  0  0
  1  3  1  0  0  0  0
  1  7  1  0  0  0  0
  3  4  1  0  0  0  0
  3  5  1  0  0  0  0
  3  6  1  0  0  0  0
  7  8  1  0  0  0  0
  7 12  1  0  0  0  0
  8  9  1  0  0  0  0
  8 11  1  0  0  0  0
  8 13  1  0  0  0  0
  9 10  2  0  0  0  0
  9 17  1  0  0  0  0
 11 14  1  0  0  0  0
 11 15  1  0  0  0  0
 11 16  1  0  0  0  0
 17 18  1  0  0  0  0
 17 23  1  0  0  0  0
 18 19  1  0  0  0  0
 18 21  1  0  0  0  0
 18 24  1  0  0  0  0
 19 20  2  0  0  0  0
 19 28  1  0  0  0  0
 21 22  1  0  0  0  0
 21 25  1  0  0  0  0
 21 26  1  0  0  0  0
 22 27  1  0  0  0  0
 28 29  1  0  0  0  0
 28 33  1  0  0  0  0
 29 30  1  0  0  0  0
 29 32  1  0  0  0  0
 29 34  1  0  0  0  0
 30 31  2  0  0  0  0
 30 38  1  0  0  0  0
 32 35  1  0  0  0  0
 32 36  1  0  0  0  0
 32 37  1  0  0  0  0
 38 39  1  0  0  0  0
 38 40  1  0  0  0  0
 39 41  1  0  0  0  0
 39 42  1  0  0  0  0
 39 43  1  0  0  0  0
M  END
$$$$

  -OEChem-05262217303D

 43 42  0     1  0  0  0  0  0999 V2000
    3.5548   -0.8877    4.4360 C   0  0  0  0  0  0  0  0  0  0  0  0
    2.4910   -0.5173    4.9080 O   0  0  0  0  0  0  0  0  0  0  0  0
    4.4502   -1.8259    5.2230 C   0  0  0  0  0  0  0  0  0  0  0  0
    5.4371   -1.3764    5.3569 H   0  0  0  0  0  0  0  0  0  0  0  0
    4.0167   -2.0235    6.2074 H   0  0  0  0  0  0  0  0  0  0  0  0
    4.5582   -2.7734    4.6893 H   0  0  0  0  0  0  0  0  0  0  0  0
    3.9334   -0.4788    3.1739 N   0  0  0  0  0  0  0  0  0  0  0  0
    3.0070    0.1913    2.2504 C   0  0  2  0  0  0  0  0  0  0  0  0
    2.2280   -0.8054    1.3655 C   0  0  0  0  0  0  0  0  0  0  0  0
    2.7155   -1.9025    1.1292 O   0  0  0  0  0  0  0  0  0  0  0  0
    3.8259    1.1393    1.3710 C   0  0  0  0  0  0  0  0  0  0  0  0
    4.6985   -1.0015    2.7547 H   0  0  0  0  0  0  0  0  0  0  0  0
    2.2812    0.7866    2.8142 H   0  0  0  0  0  0  0  0  0  0  0  0
    4.5511    0.5773    0.7729 H   0  0  0  0  0  0  0  0  0  0  0  0
    3.1707    1.6898    0.6886 H   0  0  0  0  0  0  0  0  0  0  0  0
    4.3668    1.8617    1.9900 H   0  0  0  0  0  0  0  0  0  0  0  0
    1.0006   -0.4244    0.8434 N   0  0  0  0  0  0  0  0  0  0  0  0
    0.2927   -0.9527   -0.3545 C   0  0  2  0  0  0  0  0  0  0  0  0
    0.1680   -2.4648   -0.6510 C   0  0  0  0  0  0  0  0  0  0  0  0
   -0.5004   -2.8022   -1.6220 O   0  0  0  0  0  0  0  0  0  0  0  0
    0.9677   -0.3095   -1.5847 C   0  0  0  0  0  0  0  0  0  0  0  0
    2.3296   -0.7389   -1.7482 O   0  0  0  0  0  0  0  0  0  0  0  0
    0.7145    0.5052    1.1360 H   0  0  0  0  0  0  0  0  0  0  0  0
   -0.7396   -0.5959   -0.3002 H   0  0  0  0  0  0  0  0  0  0  0  0
    0.9505    0.7798   -1.4781 H   0  0  0  0  0  0  0  0  0  0  0  0
    0.4039   -0.5515   -2.4919 H   0  0  0  0  0  0  0  0  0  0  0  0
    2.4053   -1.7216   -1.8391 H   0  0  0  0  0  0  0  0  0  0  0  0
    0.7010   -3.4498    0.1582 N   0  0  0  0  0  0  0  0  0  0  0  0
    1.1311   -4.7401   -0.4095 C   0  0  2  0  0  0  0  0  0  0  0  0
    1.9931   -4.5878   -1.6969 C   0  0  0  0  0  0  0  0  0  0  0  0
    2.6279   -3.5566   -1.9152 O   0  0  0  0  0  0  0  0  0  0  0  0
   -0.0800   -5.6689   -0.5988 C   0  0  0  0  0  0  0  0  0  0  0  0
    1.3537   -3.0511    0.8372 H   0  0  0  0  0  0  0  0  0  0  0  0
    1.7832   -5.2120    0.3312 H   0  0  0  0  0  0  0  0  0  0  0  0
   -0.6990   -5.3451   -1.4408 H   0  0  0  0  0  0  0  0  0  0  0  0
    0.2502   -6.6943   -0.7871 H   0  0  0  0  0  0  0  0  0  0  0  0
   -0.6984   -5.6693    0.3040 H   0  0  0  0  0  0  0  0  0  0  0  0
    2.1135   -5.6337   -2.5951 N   0  0  0  0  0  0  0  0  0  0  0  0
    2.8568   -5.5291   -3.8451 C   0  0  0  0  0  0  0  0  0  0  0  0
    1.5033   -6.4328   -2.4556 H   0  0  0  0  0  0  0  0  0  0  0  0
    2.8147   -6.4767   -4.3907 H   0  0  0  0  0  0  0  0  0  0  0  0
    2.4310   -4.7443   -4.4792 H   0  0  0  0  0  0  0  0  0  0  0  0
    3.9077   -5.2920   -3.6480 H   0  0  0  0  0  0  0  0  0  0  0  0
  1  2  2  0  0  0  0
  1  3  1  0  0  0  0
  1  7  1  0  0  0  0
  3  4  1  0  0  0  0
  3  5  1  0  0  0  0
  3  6  1  0  0  0  0
  7  8  1  0  0  0  0
  7 12  1  0  0  0  0
  8  9  1  0  0  0  0
  8 11  1  0  0  0  0
  8 13  1  0  0  0  0
  9 10  2  0  0  0  0
  9 17  1  0  0  0  0
 11 14  1  0  0  0  0
 11 15  1  0  0  0  0
 11 16  1  0  0  0  0
 17 18  1  0  0  0  0
 17 23  1  0  0  0  0
 18 19  1  0  0  0  0
 18 21  1  0  0  0  0
 18 24  1  0  0  0  0
 19 20  2  0  0  0  0
 19 28  1  0  0  0  0
 21 22  1  0  0  0  0
 21 25  1  0  0  0  0
 21 26  1  0  0  0  0
 22 27  1  0  0  0  0
 28 29  1  0  0  0  0
 28 33  1  0  0  0  0
 29 30  1  0  0  0  0
 29 32  1  0  0  0  0
 29 34  1  0  0  0  0
 30 31  2  0  0  0  0
 30 38  1  0  0  0  0
 32 35  1  0  0  0  0
 32 36  1  0  0  0  0
 32 37  1  0  0  0  0
 38 39  1  0  0  0  0
 38 40  1  0  0  0  0
 39 41  1  0  0  0  0
 39 42  1  0  0  0  0
 39 43  1  0  0  0  0
M  END
$$$$

  -OEChem-05262217303D

 43 42  0     1  0  0  0  0  0999 V2000
    2.3741   -0.4675    3.9601 C   0  0  0  0  0  0  0  0  0  0  0  0
    1.3496    0.0862    3.5896 O   0  0  0  0  0  0  0  0  0  0  0  0
    2.4578   -1.0864    5.3422 C   0  0  0  0  0  0  0  0  0  0  0  0
    3.2520   -0.6064    5.9192 H   0  0  0  0  0  0  0  0  0  0  0  0
    1.5101   -0.9548    5.8722 H   0  0  0  0  0  0  0  0  0  0  0  0
    2.6698   -2.1555    5.2623 H   0  0  0  0  0  0  0  0  0  0  0  0
    3.4397   -0.5641    3.0877 N   0  0  0  0  0  0  0  0  0  0  0  0
    3.4893    0.1006    1.7750 C   0  0  2  0  0  0  0  0  0  0  0  0
    2.6354   -0.6215    0.7035 C   0  0  0  0  0  0  0  0  0  0  0  0
    3.1314   -1.1200   -0.2973 O   0  0  0  0  0  0  0  0  0  0  0  0
    4.9657    0.2177    1.3757 C   0  0  0  0  0  0  0  0  0  0  0  0
    4.2797   -1.0230    3.4311 H   0  0  0  0  0  0  0  0  0  0  0  0
    3.0910    1.1170    1.8699 H   0  0  0  0  0  0  0  0  0  0  0  0
    5.4153   -0.7737    1.2583 H   0  0  0  0  0  0  0  0  0  0  0  0
    5.0600    0.7541    0.4257 H   0  0  0  0  0  0  0  0  0  0  0  0
    5.5257    0.7691    2.1374 H   0  0  0  0  0  0  0  0  0  0  0  0
    1.2658   -0.7007    0.8597 N   0  0  0  0  0  0  0  0  0  0  0  0
    0.2710   -1.3897   -0.0030 C   0  0  2  0  0  0  0  0  0  0  0  0
    0.5959   -2.8240   -0.4911 C   0  0  0  0  0  0  0  0  0  0  0  0
   -0.1843   -3.3833   -1.2514 O   0  0  0  0  0  0  0  0  0  0  0  0
    0.0097   -0.4961   -1.2305 C   0  0  0  0  0  0  0  0  0  0  0  0
    1.1738   -0.3801   -2.0601 O   0  0  0  0  0  0  0  0  0  0  0  0
    0.9260   -0.3013    1.7419 H   0  0  0  0  0  0  0  0  0  0  0  0
   -0.6612   -1.4737    0.5630 H   0  0  0  0  0  0  0  0  0  0  0  0
   -0.2845    0.5015   -0.8883 H   0  0  0  0  0  0  0  0  0  0  0  0
   -0.8211   -0.8942   -1.8228 H   0  0  0  0  0  0  0  0  0  0  0  0
    1.9916   -0.5612   -1.5412 H   0  0  0  0  0  0  0  0  0  0  0  0
    1.6113   -3.5633    0.0942 N   0  0  0  0  0  0  0  0  0  0  0  0
    1.9649   -4.9720   -0.1825 C   0  0  2  0  0  0  0  0  0  0  0  0
    2.4819   -5.2520   -1.6132 C   0  0  0  0  0  0  0  0  0  0  0  0
    3.4844   -5.9399   -1.7608 O   0  0  0  0  0  0  0  0  0  0  0  0
    0.8134   -5.9219    0.1763 C   0  0  0  0  0  0  0  0  0  0  0  0
    2.3487   -2.9801    0.4843 H   0  0  0  0  0  0  0  0  0  0  0  0
    2.7945   -5.2202    0.4867 H   0  0  0  0  0  0  0  0  0  0  0  0
   -0.0224   -5.8173   -0.5212 H   0  0  0  0  0  0  0  0  0  0  0  0
    1.1595   -6.9594    0.1360 H   0  0  0  0  0  0  0  0  0  0  0  0
    0.4517   -5.7160    1.1880 H   0  0  0  0  0  0  0  0  0  0  0  0
    1.8296   -4.7606   -2.7260 N   0  0  0  0  0  0  0  0  0  0  0  0
    2.2693   -4.9773   -4.0966 C   0  0  0  0  0  0  0  0  0  0  0  0
    0.9829   -4.2134   -2.5494 H   0  0  0  0  0  0  0  0  0  0  0  0
    1.5985   -4.4631   -4.7915 H   0  0  0  0  0  0  0  0  0  0  0  0
    3.2821   -4.5865   -4.2401 H   0  0  0  0  0  0  0  0  0  0  0  0
    2.2646   -6.0455   -4.3362 H   0  0  0  0  0  0  0  0  0  0  0  0
  1  2  2  0  0  0  0
  1  3  1  0  0  0  0
  1  7  1  0  0  0  0
  3  4  1  0  0  0  0
  3  5  1  0  0  0  0
  3  6  1  0  0  0  0
  7  8  1  0  0  0  0
  7 12  1  0  0  0  0
  8  9  1  0  0  0  0
  8 11  1  0  0  0  0
  8 13  1  0  0  0  0
  9 10  2  0  0  0  0
  9 17  1  0  0  0  0
 11 14  1  0  0  0  0
 11 15  1  0  0  0  0
 11 16  1  0  0  0  0
 17 18  1  0  0  0  0
 17 23  1  0  0  0  0
 18 19  1  0  0  0  0
 18 21  1  0  0  0  0
 18 24  1  0  0  0  0
 19 20  2  0  0  0  0
 19 28  1  0  0  0  0
 21 22  1  0  0  0  0
 21 25  1  0  0  0  0
 21 26  1  0  0  0  0
 22 27  1  0  0  0  0
 28 29  1  0  0  0  0
 28 33  1  0  0  0  0
 29 30  1  0  0  0  0
 29 32  1  0  0  0  0
 29 34  1  0  0  0  0
 30 31  2  0  0  0  0
 30 38  1  0  0  0  0
 32 35  1  0  0  0  0
 32 36  1  0  0  0  0
 32 37  1  0  0  0  0
 38 39  1  0  0  0  0
 38 40  1  0  0  0  0
 39 41  1  0  0  0  0
 39 42  1  0  0  0  0
 39 43  1  0  0  0  0
M  END
$$$$

  -OEChem-05262217303D

 43 42  0     1  0  0  0  0  0999 V2000
    2.6926   -1.9998    3.0841 C   0  0  0  0  0  0  0  0  0  0  0  0
    1.5104   -1.6764    3.0654 O   0  0  0  0  0  0  0  0  0  0  0  0
    3.1450   -3.2353    3.8382 C   0  0  0  0  0  0  0  0  0  0  0  0
    3.7398   -2.9441    4.7074 H   0  0  0  0  0  0  0  0  0  0  0  0
    2.2795   -3.8101    4.1787 H   0  0  0  0  0  0  0  0  0  0  0  0
    3.7532   -3.8706    3.1892 H   0  0  0  0  0  0  0  0  0  0  0  0
    3.6016   -1.2404    2.3789 N   0  0  0  0  0  0  0  0  0  0  0  0
    3.2028   -0.0908    1.5564 C   0  0  2  0  0  0  0  0  0  0  0  0
    2.3415   -0.5231    0.3500 C   0  0  0  0  0  0  0  0  0  0  0  0
    2.8304   -1.2028   -0.5429 O   0  0  0  0  0  0  0  0  0  0  0  0
    4.4745    0.6308    1.0996 C   0  0  0  0  0  0  0  0  0  0  0  0
    4.5070   -1.6706    2.2021 H   0  0  0  0  0  0  0  0  0  0  0  0
    2.6174    0.6050    2.1665 H   0  0  0  0  0  0  0  0  0  0  0  0
    5.1067   -0.0386    0.5067 H   0  0  0  0  0  0  0  0  0  0  0  0
    4.2192    1.4994    0.4843 H   0  0  0  0  0  0  0  0  0  0  0  0
    5.0484    0.9768    1.9648 H   0  0  0  0  0  0  0  0  0  0  0  0
    1.0040   -0.1627    0.2667 N   0  0  0  0  0  0  0  0  0  0  0  0
    0.0016   -0.8634   -0.5783 C   0  0  2  0  0  0  0  0  0  0  0  0
    0.0486   -2.4113   -0.4986 C   0  0  0  0  0  0  0  0  0  0  0  0
   -0.2260   -3.1100   -1.4651 O   0  0  0  0  0  0  0  0  0  0  0  0
    0.0874   -0.3432   -2.0291 C   0  0  0  0  0  0  0  0  0  0  0  0
    1.3262   -0.6742   -2.6657 O   0  0  0  0  0  0  0  0  0  0  0  0
    0.6489    0.3177    1.0906 H   0  0  0  0  0  0  0  0  0  0  0  0
   -0.9899   -0.5919   -0.2071 H   0  0  0  0  0  0  0  0  0  0  0  0
   -0.0233    0.7458   -2.0201 H   0  0  0  0  0  0  0  0  0  0  0  0
   -0.7395   -0.7499   -2.6204 H   0  0  0  0  0  0  0  0  0  0  0  0
    2.0116   -0.8862   -1.9851 H   0  0  0  0  0  0  0  0  0  0  0  0
    0.4653   -3.0159    0.6786 N   0  0  0  0  0  0  0  0  0  0  0  0
    0.9119   -4.4107    0.8444 C   0  0  2  0  0  0  0  0  0  0  0  0
    2.2408   -4.6815    0.1091 C   0  0  0  0  0  0  0  0  0  0  0  0
    3.2498   -4.9198    0.7646 O   0  0  0  0  0  0  0  0  0  0  0  0
   -0.1701   -5.4337    0.4677 C   0  0  0  0  0  0  0  0  0  0  0  0
    0.7140   -2.3731    1.4341 H   0  0  0  0  0  0  0  0  0  0  0  0
    1.1103   -4.5537    1.9109 H   0  0  0  0  0  0  0  0  0  0  0  0
   -0.3294   -5.4732   -0.6135 H   0  0  0  0  0  0  0  0  0  0  0  0
    0.1301   -6.4322    0.7998 H   0  0  0  0  0  0  0  0  0  0  0  0
   -1.1179   -5.1776    0.9502 H   0  0  0  0  0  0  0  0  0  0  0  0
    2.3188   -4.5487   -1.2628 N   0  0  0  0  0  0  0  0  0  0  0  0
    3.5810   -4.4946   -1.9850 C   0  0  0  0  0  0  0  0  0  0  0  0
    1.4868   -4.1512   -1.7081 H   0  0  0  0  0  0  0  0  0  0  0  0
    4.1690   -3.6292   -1.6618 H   0  0  0  0  0  0  0  0  0  0  0  0
    4.1635   -5.4049   -1.8096 H   0  0  0  0  0  0  0  0  0  0  0  0
    3.3944   -4.4063   -3.0596 H   0  0  0  0  0  0  0  0  0  0  0  0
  1  2  2  0  0  0  0
  1  3  1  0  0  0  0
  1  7  1  0  0  0  0
  3  4  1  0  0  0  0
  3  5  1  0  0  0  0
  3  6  1  0  0  0  0
  7  8  1  0  0  0  0
  7 12  1  0  0  0  0
  8  9  1  0  0  0  0
  8 11  1  0  0  0  0
  8 13  1  0  0  0  0
  9 10  2  0  0  0  0
  9 17  1  0  0  0  0
 11 14  1  0  0  0  0
 11 15  1  0  0  0  0
 11 16  1  0  0  0  0
 17 18  1  0  0  0  0
 17 23  1  0  0  0  0
 18 19  1  0  0  0  0
 18 21  1  0  0  0  0
 18 24  1  0  0  0  0
 19 20  2  0  0  0  0
 19 28  1  0  0  0  0
 21 22  1  0  0  0  0
 21 25  1  0  0  0  0
 21 26  1  0  0  0  0
 22 27  1  0  0  0  0
 28 29  1  0  0  0  0
 28 33  1  0  0  0  0
 29 30  1  0  0  0  0
 29 32  1  0  0  0  0
 29 34  1  0  0  0  0
 30 31  2  0  0  0  0
 30 38  1  0  0  0  0
 32 35  1  0  0  0  0
 32 36  1  0  0  0  0
 32 37  1  0  0  0  0
 38 39  1  0  0  0  0
 38 40  1  0  0  0  0
 39 41  1  0  0  0  0
 39 42  1  0  0  0  0
 39 43  1  0  0  0  0
M  END
$$$$

  -OEChem-05262217303D

 43 42  0     1  0  0  0  0  0999 V2000
    2.1788   -1.9246    3.1031 C   0  0  0  0  0  0  0  0  0  0  0  0
    1.1720   -1.2356    2.9865 O   0  0  0  0  0  0  0  0  0  0  0  0
    2.1954   -3.0951    4.0688 C   0  0  0  0  0  0  0  0  0  0  0  0
    2.7699   -2.8294    4.9595 H   0  0  0  0  0  0  0  0  0  0  0  0
    1.1763   -3.3529    4.3691 H   0  0  0  0  0  0  0  0  0  0  0  0
    2.6555   -3.9698    3.6032 H   0  0  0  0  0  0  0  0  0  0  0  0
    3.2673   -1.6548    2.3030 N   0  0  0  0  0  0  0  0  0  0  0  0
    3.3597   -0.4908    1.4084 C   0  0  2  0  0  0  0  0  0  0  0  0
    2.4161   -0.5981    0.1888 C   0  0  0  0  0  0  0  0  0  0  0  0
    2.7989   -1.0910   -0.8638 O   0  0  0  0  0  0  0  0  0  0  0  0
    4.8284   -0.3513    0.9919 C   0  0  0  0  0  0  0  0  0  0  0  0
    3.9185   -2.4288    2.1598 H   0  0  0  0  0  0  0  0  0  0  0  0
    3.0832    0.4135    1.9607 H   0  0  0  0  0  0  0  0  0  0  0  0
    5.1685   -1.2504    0.4673 H   0  0  0  0  0  0  0  0  0  0  0  0
    4.9538    0.5070    0.3243 H   0  0  0  0  0  0  0  0  0  0  0  0
    5.4616   -0.2008    1.8716 H   0  0  0  0  0  0  0  0  0  0  0  0
    1.1025   -0.1630    0.2892 N   0  0  0  0  0  0  0  0  0  0  0  0
   -0.0056   -0.7357   -0.5170 C   0  0  2  0  0  0  0  0  0  0  0  0
    0.0255   -2.2822   -0.5574 C   0  0  0  0  0  0  0  0  0  0  0  0
   -0.0693   -2.9289   -1.5914 O   0  0  0  0  0  0  0  0  0  0  0  0
   -0.0717   -0.0746   -1.9105 C   0  0  0  0  0  0  0  0  0  0  0  0
    1.0676   -0.3578   -2.7279 O   0  0  0  0  0  0  0  0  0  0  0  0
    0.8590    0.1087    1.2434 H   0  0  0  0  0  0  0  0  0  0  0  0
   -0.9432   -0.4800   -0.0159 H   0  0  0  0  0  0  0  0  0  0  0  0
   -0.1503    1.0096   -1.7824 H   0  0  0  0  0  0  0  0  0  0  0  0
   -0.9738   -0.4102   -2.4329 H   0  0  0  0  0  0  0  0  0  0  0  0
    1.8261   -0.6423   -2.1603 H   0  0  0  0  0  0  0  0  0  0  0  0
    0.2465   -2.9375    0.6451 N   0  0  0  0  0  0  0  0  0  0  0  0
    0.7546   -4.3125    0.7969 C   0  0  2  0  0  0  0  0  0  0  0  0
    2.1963   -4.4478    0.2598 C   0  0  0  0  0  0  0  0  0  0  0  0
    3.1290   -4.4817    1.0581 O   0  0  0  0  0  0  0  0  0  0  0  0
   -0.1929   -5.3658    0.2017 C   0  0  0  0  0  0  0  0  0  0  0  0
    0.3846   -2.3122    1.4414 H   0  0  0  0  0  0  0  0  0  0  0  0
    0.8005   -4.5207    1.8697 H   0  0  0  0  0  0  0  0  0  0  0  0
   -0.1999   -5.3337   -0.8914 H   0  0  0  0  0  0  0  0  0  0  0  0
    0.1238   -6.3678    0.5066 H   0  0  0  0  0  0  0  0  0  0  0  0
   -1.2135   -5.2011    0.5601 H   0  0  0  0  0  0  0  0  0  0  0  0
    2.4477   -4.3790   -1.0951 N   0  0  0  0  0  0  0  0  0  0  0  0
    3.7873   -4.2381   -1.6484 C   0  0  0  0  0  0  0  0  0  0  0  0
    1.6576   -4.0589   -1.6629 H   0  0  0  0  0  0  0  0  0  0  0  0
    4.2789   -3.3455   -1.2485 H   0  0  0  0  0  0  0  0  0  0  0  0
    4.3962   -5.1151   -1.4060 H   0  0  0  0  0  0  0  0  0  0  0  0
    3.7339   -4.1438   -2.7373 H   0  0  0  0  0  0  0  0  0  0  0  0
  1  2  2  0  0  0  0
  1  3  1  0  0  0  0
  1  7  1  0  0  0  0
  3  4  1  0  0  0  0
  3  5  1  0  0  0  0
  3  6  1  0  0  0  0
  7  8  1  0  0  0  0
  7 12  1  0  0  0  0
  8  9  1  0  0  0  0
  8 11  1  0  0  0  0
  8 13  1  0  0  0  0
  9 10  2  0  0  0  0
  9 17  1  0  0  0  0
 11 14  1  0  0  0  0
 11 15  1  0  0  0  0
 11 16  1  0  0  0  0
 17 18  1  0  0  0  0
 17 23  1  0  0  0  0
 18 19  1  0  0  0  0
 18 21  1  0  0  0  0
 18 24  1  0  0  0  0
 19 20  2  0  0  0  0
 19 28  1  0  0  0  0
 21 22  1  0  0  0  0
 21 25  1  0  0  0  0
 21 26  1  0  0  0  0
 22 27  1  0  0  0  0
 28 29  1  0  0  0  0
 28 33  1  0  0  0  0
 29 30  1  0  0  0  0
 29 32  1  0  0  0  0
 29 34  1  0  0  0  0
 30 31  2  0  0  0  0
 30 38  1  0  0  0  0
 32 35  1  0  0  0  0
 32 36  1  0  0  0  0
 32 37  1  0  0  0  0
 38 39  1  0  0  0  0
 38 40  1  0  0  0  0
 39 41  1  0  0  0  0
 39 42  1  0  0  0  0
 39 43  1  0  0  0  0
M  END
$$$$

  -OEChem-05262217303D

 43 42  0     1  0  0  0  0  0999 V2000
    1.9854   -2.0074    3.0790 C   0  0  0  0  0  0  0  0  0  0  0  0
    1.0720   -1.1952    3.0010 O   0  0  0  0  0  0  0  0  0  0  0  0
    1.8437   -3.2075    3.9958 C   0  0  0  0  0  0  0  0  0  0  0  0
    1.9720   -2.8939    5.0346 H   0  0  0  0  0  0  0  0  0  0  0  0
    0.8542   -3.6557    3.8784 H   0  0  0  0  0  0  0  0  0  0  0  0
    2.5997   -3.9615    3.7628 H   0  0  0  0  0  0  0  0  0  0  0  0
    3.1050   -1.8424    2.2910 N   0  0  0  0  0  0  0  0  0  0  0  0
    3.3760   -0.6545    1.4641 C   0  0  2  0  0  0  0  0  0  0  0  0
    2.4638   -0.5683    0.2181 C   0  0  0  0  0  0  0  0  0  0  0  0
    2.8452   -0.9436   -0.8828 O   0  0  0  0  0  0  0  0  0  0  0  0
    4.8653   -0.6828    1.0997 C   0  0  0  0  0  0  0  0  0  0  0  0
    3.6581   -2.6861    2.1259 H   0  0  0  0  0  0  0  0  0  0  0  0
    3.1985    0.2471    2.0599 H   0  0  0  0  0  0  0  0  0  0  0  0
    5.1073   -1.5826    0.5252 H   0  0  0  0  0  0  0  0  0  0  0  0
    5.1252    0.1927    0.4963 H   0  0  0  0  0  0  0  0  0  0  0  0
    5.4793   -0.6729    2.0056 H   0  0  0  0  0  0  0  0  0  0  0  0
    1.1561   -0.1394    0.3767 N   0  0  0  0  0  0  0  0  0  0  0  0
    0.0308   -0.6125   -0.4624 C   0  0  2  0  0  0  0  0  0  0  0  0
    0.0696   -2.1460   -0.6473 C   0  0  0  0  0  0  0  0  0  0  0  0
    0.1507   -2.6954   -1.7372 O   0  0  0  0  0  0  0  0  0  0  0  0
   -0.0486    0.1891   -1.7789 C   0  0  0  0  0  0  0  0  0  0  0  0
    1.0719   -0.0179   -2.6434 O   0  0  0  0  0  0  0  0  0  0  0  0
    0.9287    0.0208    1.3617 H   0  0  0  0  0  0  0  0  0  0  0  0
   -0.8982   -0.4024    0.0742 H   0  0  0  0  0  0  0  0  0  0  0  0
   -0.1134    1.2547   -1.5380 H   0  0  0  0  0  0  0  0  0  0  0  0
   -0.9628   -0.0831   -2.3165 H   0  0  0  0  0  0  0  0  0  0  0  0
    1.8333   -0.3808   -2.1270 H   0  0  0  0  0  0  0  0  0  0  0  0
   -0.0028   -2.9158    0.5045 N   0  0  0  0  0  0  0  0  0  0  0  0
    0.4353   -4.3216    0.6032 C   0  0  2  0  0  0  0  0  0  0  0  0
    1.9354   -4.4936    0.2642 C   0  0  0  0  0  0  0  0  0  0  0  0
    2.7454   -4.6173    1.1786 O   0  0  0  0  0  0  0  0  0  0  0  0
   -0.4571   -5.2674   -0.2160 C   0  0  0  0  0  0  0  0  0  0  0  0
    0.0246   -2.3718    1.3673 H   0  0  0  0  0  0  0  0  0  0  0  0
    0.3188   -4.6224    1.6485 H   0  0  0  0  0  0  0  0  0  0  0  0
   -0.3181   -5.1269   -1.2915 H   0  0  0  0  0  0  0  0  0  0  0  0
   -0.2157   -6.3078    0.0220 H   0  0  0  0  0  0  0  0  0  0  0  0
   -1.5107   -5.0932    0.0217 H   0  0  0  0  0  0  0  0  0  0  0  0
    2.3885   -4.3600   -1.0324 N   0  0  0  0  0  0  0  0  0  0  0  0
    3.7989   -4.2522   -1.3777 C   0  0  0  0  0  0  0  0  0  0  0  0
    1.7060   -3.9604   -1.6844 H   0  0  0  0  0  0  0  0  0  0  0  0
    3.9122   -4.1532   -2.4616 H   0  0  0  0  0  0  0  0  0  0  0  0
    4.2447   -3.3734   -0.9022 H   0  0  0  0  0  0  0  0  0  0  0  0
    4.3433   -5.1451   -1.0540 H   0  0  0  0  0  0  0  0  0  0  0  0
  1  2  2  0  0  0  0
  1  3  1  0  0  0  0
  1  7  1  0  0  0  0
  3  4  1  0  0  0  0
  3  5  1  0  0  0  0
  3  6  1  0  0  0  0
  7  8  1  0  0  0  0
  7 12  1  0  0  0  0
  8  9  1  0  0  0  0
  8 11  1  0  0  0  0
  8 13  1  0  0  0  0
  9 10  2  0  0  0  0
  9 17  1  0  0  0  0
 11 14  1  0  0  0  0
 11 15  1  0  0  0  0
 11 16  1  0  0  0  0
 17 18  1  0  0  0  0
 17 23  1  0  0  0  0
 18 19  1  0  0  0  0
 18 21  1  0  0  0  0
 18 24  1  0  0  0  0
 19 20  2  0  0  0  0
 19 28  1  0  0  0  0
 21 22  1  0  0  0  0
 21 25  1  0  0  0  0
 21 26  1  0  0  0  0
 22 27  1  0  0  0  0
 28 29  1  0  0  0  0
 28 33  1  0  0  0  0
 29 30  1  0  0  0  0
 29 32  1  0  0  0  0
 29 34  1  0  0  0  0
 30 31  2  0  0  0  0
 30 38  1  0  0  0  0
 32 35  1  0  0  0  0
 32 36  1  0  0  0  0
 32 37  1  0  0  0  0
 38 39  1  0  0  0  0
 38 40  1  0  0  0  0
 39 41  1  0  0  0  0
 39 42  1  0  0  0  0
 39 43  1  0  0  0  0
M  END
$$$$

  -OEChem-05262217303D

 43 42  0     1  0  0  0  0  0999 V2000
    1.8995   -1.9048    3.1407 C   0  0  0  0  0  0  0  0  0  0  0  0
    1.1762   -0.9185    3.1919 O   0  0  0  0  0  0  0  0  0  0  0  0
    1.5426   -3.1411    3.9433 C   0  0  0  0  0  0  0  0  0  0  0  0
    1.1544   -2.8519    4.9234 H   0  0  0  0  0  0  0  0  0  0  0  0
    0.7843   -3.7241    3.4169 H   0  0  0  0  0  0  0  0  0  0  0  0
    2.4279   -3.7658    4.0880 H   0  0  0  0  0  0  0  0  0  0  0  0
    2.9832   -1.9041    2.2882 N   0  0  0  0  0  0  0  0  0  0  0  0
    3.4052   -0.7400    1.4902 C   0  0  2  0  0  0  0  0  0  0  0  0
    2.5052   -0.5341    0.2501 C   0  0  0  0  0  0  0  0  0  0  0  0
    2.8845   -0.8217   -0.8777 O   0  0  0  0  0  0  0  0  0  0  0  0
    4.8846   -0.9288    1.1360 C   0  0  0  0  0  0  0  0  0  0  0  0
    3.3418   -2.8281    2.0319 H   0  0  0  0  0  0  0  0  0  0  0  0
    3.3277    0.1671    2.0996 H   0  0  0  0  0  0  0  0  0  0  0  0
    5.0302   -1.8400    0.5489 H   0  0  0  0  0  0  0  0  0  0  0  0
    5.2459   -0.0779    0.5498 H   0  0  0  0  0  0  0  0  0  0  0  0
    5.4866   -1.0020    2.0468 H   0  0  0  0  0  0  0  0  0  0  0  0
    1.1941   -0.1400    0.4560 N   0  0  0  0  0  0  0  0  0  0  0  0
    0.0558   -0.5485   -0.3964 C   0  0  2  0  0  0  0  0  0  0  0  0
    0.0998   -2.0607   -0.7130 C   0  0  0  0  0  0  0  0  0  0  0  0
    0.3827   -2.5176   -1.8119 O   0  0  0  0  0  0  0  0  0  0  0  0
   -0.0459    0.3629   -1.6374 C   0  0  0  0  0  0  0  0  0  0  0  0
    1.0605    0.2354   -2.5340 O   0  0  0  0  0  0  0  0  0  0  0  0
    0.9841   -0.0227    1.4523 H   0  0  0  0  0  0  0  0  0  0  0  0
   -0.8643   -0.3847    0.1706 H   0  0  0  0  0  0  0  0  0  0  0  0
   -0.1095    1.4040   -1.3054 H   0  0  0  0  0  0  0  0  0  0  0  0
   -0.9674    0.1339   -2.1824 H   0  0  0  0  0  0  0  0  0  0  0  0
    1.8209   -0.1956   -2.0708 H   0  0  0  0  0  0  0  0  0  0  0  0
   -0.2573   -2.9320    0.3055 N   0  0  0  0  0  0  0  0  0  0  0  0
    0.1480   -4.3505    0.3496 C   0  0  2  0  0  0  0  0  0  0  0  0
    1.6803   -4.5358    0.2070 C   0  0  0  0  0  0  0  0  0  0  0  0
    2.3731   -4.6001    1.2189 O   0  0  0  0  0  0  0  0  0  0  0  0
   -0.6432   -5.1916   -0.6643 C   0  0  0  0  0  0  0  0  0  0  0  0
   -0.4251   -2.4820    1.2018 H   0  0  0  0  0  0  0  0  0  0  0  0
   -0.1144   -4.7349    1.3401 H   0  0  0  0  0  0  0  0  0  0  0  0
   -0.3937   -4.9251   -1.6951 H   0  0  0  0  0  0  0  0  0  0  0  0
   -0.4198   -6.2537   -0.5247 H   0  0  0  0  0  0  0  0  0  0  0  0
   -1.7175   -5.0416   -0.5213 H   0  0  0  0  0  0  0  0  0  0  0  0
    2.2895   -4.4826   -1.0306 N   0  0  0  0  0  0  0  0  0  0  0  0
    3.7326   -4.4068   -1.2078 C   0  0  0  0  0  0  0  0  0  0  0  0
    1.7064   -4.0629   -1.7610 H   0  0  0  0  0  0  0  0  0  0  0  0
    4.2346   -5.2051   -0.6513 H   0  0  0  0  0  0  0  0  0  0  0  0
    3.9858   -4.5168   -2.2667 H   0  0  0  0  0  0  0  0  0  0  0  0
    4.1088   -3.4405   -0.8608 H   0  0  0  0  0  0  0  0  0  0  0  0
  1  2  2  0  0  0  0
  1  3  1  0  0  0  0
  1  7  1  0  0  0  0
  3  4  1  0  0  0  0
  3  5  1  0  0  0  0
  3  6  1  0  0  0  0
  7  8  1  0  0  0  0
  7 12  1  0  0  0  0
  8  9  1  0  0  0  0
  8 11  1  0  0  0  0
  8 13  1  0  0  0  0
  9 10  2  0  0  0  0
  9 17  1  0  0  0  0
 11 14  1  0  0  0  0
 11 15  1  0  0  0  0
 11 16  1  0  0  0  0
 17 18  1  0  0  0  0
 17 23  1  0  0  0  0
 18 19  1  0  0  0  0
 18 21  1  0  0  0  0
 18 24  1  0  0  0  0
 19 20  2  0  0  0  0
 19 28  1  0  0  0  0
 21 22  1  0  0  0  0
 21 25  1  0  0  0  0
 21 26  1  0  0  0  0
 22 27  1  0  0  0  0
 28 29  1  0  0  0  0
 28 33  1  0  0  0  0
 29 30  1  0  0  0  0
 29 32  1  0  0  0  0
 29 34  1  0  0  0  0
 30 31  2  0  0  0  0
 30 38  1  0  0  0  0
 32 35  1  0  0  0  0
 32 36  1  0  0  0  0
 32 37  1  0  0  0  0
 38 39  1  0  0  0  0
 38 40  1  0  0  0  0
 39 41  1  0  0  0  0
 39 42  1  0  0  0  0
 39 43  1  0  0  0  0
M  END
$$$$

  -OEChem-05262217303D

 43 42  0     1  0  0  0  0  0999 V2000
    3.8812   -1.5039    4.1004 C   0  0  0  0  0  0  0  0  0  0  0  0
    3.2918   -0.7707    4.8787 O   0  0  0  0  0  0  0  0  0  0  0  0
    4.7384   -2.6393    4.6270 C   0  0  0  0  0  0  0  0  0  0  0  0
    5.7603   -2.5405    4.2533 H   0  0  0  0  0  0  0  0  0  0  0  0
    4.7598   -2.6194    5.7203 H   0  0  0  0  0  0  0  0  0  0  0  0
    4.3294   -3.5984    4.2996 H   0  0  0  0  0  0  0  0  0  0  0  0
    3.7564   -1.3159    2.7401 N   0  0  0  0  0  0  0  0  0  0  0  0
    2.7897   -0.4006    2.1179 C   0  0  2  0  0  0  0  0  0  0  0  0
    1.9664   -1.0984    1.0160 C   0  0  0  0  0  0  0  0  0  0  0  0
    2.3758   -2.1455    0.5287 O   0  0  0  0  0  0  0  0  0  0  0  0
    3.5673    0.7777    1.5272 C   0  0  0  0  0  0  0  0  0  0  0  0
    4.1330   -2.0506    2.1426 H   0  0  0  0  0  0  0  0  0  0  0  0
    2.0845   -0.0243    2.8662 H   0  0  0  0  0  0  0  0  0  0  0  0
    4.2592    0.4296    0.7531 H   0  0  0  0  0  0  0  0  0  0  0  0
    2.8837    1.5044    1.0781 H   0  0  0  0  0  0  0  0  0  0  0  0
    4.1426    1.2820    2.3099 H   0  0  0  0  0  0  0  0  0  0  0  0
    0.7623   -0.5443    0.6034 N   0  0  0  0  0  0  0  0  0  0  0  0
    0.1400   -0.7606   -0.7243 C   0  0  2  0  0  0  0  0  0  0  0  0
    0.1221   -2.2180   -1.2492 C   0  0  0  0  0  0  0  0  0  0  0  0
    0.9707   -2.6102   -2.0433 O   0  0  0  0  0  0  0  0  0  0  0  0
    0.7987    0.1969   -1.7366 C   0  0  0  0  0  0  0  0  0  0  0  0
    2.1763   -0.1269   -1.9387 O   0  0  0  0  0  0  0  0  0  0  0  0
    0.5510    0.3416    1.0544 H   0  0  0  0  0  0  0  0  0  0  0  0
   -0.9097   -0.4647   -0.6473 H   0  0  0  0  0  0  0  0  0  0  0  0
    0.7149    1.2302   -1.3848 H   0  0  0  0  0  0  0  0  0  0  0  0
    0.2715    0.1289   -2.6941 H   0  0  0  0  0  0  0  0  0  0  0  0
    2.2516   -1.0916   -2.1195 H   0  0  0  0  0  0  0  0  0  0  0  0
   -0.9527   -3.0391   -0.9466 N   0  0  0  0  0  0  0  0  0  0  0  0
   -1.1013   -4.4614   -1.3268 C   0  0  2  0  0  0  0  0  0  0  0  0
   -0.0619   -5.4195   -0.6943 C   0  0  0  0  0  0  0  0  0  0  0  0
   -0.4139   -6.5523   -0.3911 O   0  0  0  0  0  0  0  0  0  0  0  0
   -1.1539   -4.6415   -2.8512 C   0  0  0  0  0  0  0  0  0  0  0  0
   -1.5669   -2.6983   -0.2130 H   0  0  0  0  0  0  0  0  0  0  0  0
   -2.0733   -4.7858   -0.9420 H   0  0  0  0  0  0  0  0  0  0  0  0
   -0.1740   -4.4735   -3.3070 H   0  0  0  0  0  0  0  0  0  0  0  0
   -1.4678   -5.6615   -3.0949 H   0  0  0  0  0  0  0  0  0  0  0  0
   -1.8706   -3.9436   -3.2941 H   0  0  0  0  0  0  0  0  0  0  0  0
    1.2367   -5.0273   -0.4308 N   0  0  0  0  0  0  0  0  0  0  0  0
    2.2459   -5.8913    0.1631 C   0  0  0  0  0  0  0  0  0  0  0  0
    1.5139   -4.0964   -0.7540 H   0  0  0  0  0  0  0  0  0  0  0  0
    2.4651   -6.7357   -0.4984 H   0  0  0  0  0  0  0  0  0  0  0  0
    3.1696   -5.3279    0.3270 H   0  0  0  0  0  0  0  0  0  0  0  0
    1.9015   -6.2768    1.1282 H   0  0  0  0  0  0  0  0  0  0  0  0
  1  2  2  0  0  0  0
  1  3  1  0  0  0  0
  1  7  1  0  0  0  0
  3  4  1  0  0  0  0
  3  5  1  0  0  0  0
  3  6  1  0  0  0  0
  7  8  1  0  0  0  0
  7 12  1  0  0  0  0
  8  9  1  0  0  0  0
  8 11  1  0  0  0  0
  8 13  1  0  0  0  0
  9 10  2  0  0  0  0
  9 17  1  0  0  0  0
 11 14  1  0  0  0  0
 11 15  1  0  0  0  0
 11 16  1  0  0  0  0
 17 18  1  0  0  0  0
 17 23  1  0  0  0  0
 18 19  1  0  0  0  0
 18 21  1  0  0  0  0
 18 24  1  0  0  0  0
 19 20  2  0  0  0  0
 19 28  1  0  0  0  0
 21 22  1  0  0  0  0
 21 25  1  0  0  0  0
 21 26  1  0  0  0  0
 22 27  1  0  0  0  0
 28 29  1  0  0  0  0
 28 33  1  0  0  0  0
 29 30  1  0  0  0  0
 29 32  1  0  0  0  0
 29 34  1  0  0  0  0
 30 31  2  0  0  0  0
 30 38  1  0  0  0  0
 32 35  1  0  0  0  0
 32 36  1  0  0  0  0
 32 37  1  0  0  0  0
 38 39  1  0  0  0  0
 38 40  1  0  0  0  0
 39 41  1  0  0  0  0
 39 42  1  0  0  0  0
 39 43  1  0  0  0  0
M  END
$$$$

  -OEChem-05262217303D

 43 42  0     1  0  0  0  0  0999 V2000
    3.9287   -1.4463    4.1527 C   0  0  0  0  0  0  0  0  0  0  0  0
    3.3574   -0.7044    4.9363 O   0  0  0  0  0  0  0  0  0  0  0  0
    4.8349   -2.5477    4.6697 C   0  0  0  0  0  0  0  0  0  0  0  0
    5.8497   -2.4049    4.2905 H   0  0  0  0  0  0  0  0  0  0  0  0
    4.8616   -2.5321    5.7629 H   0  0  0  0  0  0  0  0  0  0  0  0
    4.4639   -3.5216    4.3408 H   0  0  0  0  0  0  0  0  0  0  0  0
    3.7402   -1.2955    2.7953 N   0  0  0  0  0  0  0  0  0  0  0  0
    2.7350   -0.4089    2.1937 C   0  0  2  0  0  0  0  0  0  0  0  0
    1.9730   -1.1024    1.0453 C   0  0  0  0  0  0  0  0  0  0  0  0
    2.4096   -2.1462    0.5778 O   0  0  0  0  0  0  0  0  0  0  0  0
    3.4536    0.8405    1.6774 C   0  0  0  0  0  0  0  0  0  0  0  0
    4.1117   -2.0313    2.1955 H   0  0  0  0  0  0  0  0  0  0  0  0
    1.9942   -0.1137    2.9444 H   0  0  0  0  0  0  0  0  0  0  0  0
    4.1851    0.5704    0.9086 H   0  0  0  0  0  0  0  0  0  0  0  0
    2.7390    1.5456    1.2426 H   0  0  0  0  0  0  0  0  0  0  0  0
    3.9778    1.3412    2.4976 H   0  0  0  0  0  0  0  0  0  0  0  0
    0.7783   -0.5606    0.5922 N   0  0  0  0  0  0  0  0  0  0  0  0
    0.1799   -0.7832   -0.7458 C   0  0  2  0  0  0  0  0  0  0  0  0
    0.1614   -2.2356   -1.2877 C   0  0  0  0  0  0  0  0  0  0  0  0
    1.1024   -2.6744   -1.9410 O   0  0  0  0  0  0  0  0  0  0  0  0
    0.8640    0.1663   -1.7477 C   0  0  0  0  0  0  0  0  0  0  0  0
    2.2439   -0.1658   -1.9184 O   0  0  0  0  0  0  0  0  0  0  0  0
    0.5403    0.3183    1.0431 H   0  0  0  0  0  0  0  0  0  0  0  0
   -0.8676   -0.4778   -0.6855 H   0  0  0  0  0  0  0  0  0  0  0  0
    0.7788    1.2018   -1.4028 H   0  0  0  0  0  0  0  0  0  0  0  0
    0.3570    0.0969   -2.7161 H   0  0  0  0  0  0  0  0  0  0  0  0
    2.3258   -1.1404   -2.0364 H   0  0  0  0  0  0  0  0  0  0  0  0
   -1.0287   -2.9481   -1.2869 N   0  0  0  0  0  0  0  0  0  0  0  0
   -1.2198   -4.3354   -1.7671 C   0  0  2  0  0  0  0  0  0  0  0  0
   -0.4246   -5.4066   -0.9813 C   0  0  0  0  0  0  0  0  0  0  0  0
   -0.9832   -6.4515   -0.6736 O   0  0  0  0  0  0  0  0  0  0  0  0
   -0.9636   -4.4593   -3.2759 C   0  0  0  0  0  0  0  0  0  0  0  0
   -1.7637   -2.5690   -0.6973 H   0  0  0  0  0  0  0  0  0  0  0  0
   -2.2764   -4.5760   -1.6112 H   0  0  0  0  0  0  0  0  0  0  0  0
    0.1026   -4.3855   -3.5080 H   0  0  0  0  0  0  0  0  0  0  0  0
   -1.3201   -5.4295   -3.6357 H   0  0  0  0  0  0  0  0  0  0  0  0
   -1.4952   -3.6722   -3.8184 H   0  0  0  0  0  0  0  0  0  0  0  0
    0.8837   -5.2009   -0.5882 N   0  0  0  0  0  0  0  0  0  0  0  0
    1.6720   -6.1620    0.1684 C   0  0  0  0  0  0  0  0  0  0  0  0
    1.3266   -4.3319   -0.9007 H   0  0  0  0  0  0  0  0  0  0  0  0
    1.8265   -7.0750   -0.4154 H   0  0  0  0  0  0  0  0  0  0  0  0
    2.6494   -5.7347    0.4119 H   0  0  0  0  0  0  0  0  0  0  0  0
    1.1667   -6.4215    1.1043 H   0  0  0  0  0  0  0  0  0  0  0  0
  1  2  2  0  0  0  0
  1  3  1  0  0  0  0
  1  7  1  0  0  0  0
  3  4  1  0  0  0  0
  3  5  1  0  0  0  0
  3  6  1  0  0  0  0
  7  8  1  0  0  0  0
  7 12  1  0  0  0  0
  8  9  1  0  0  0  0
  8 11  1  0  0  0  0
  8 13  1  0  0  0  0
  9 10  2  0  0  0  0
  9 17  1  0  0  0  0
 11 14  1  0  0  0  0
 11 15  1  0  0  0  0
 11 16  1  0  0  0  0
 17 18  1  0  0  0  0
 17 23  1  0  0  0  0
 18 19  1  0  0  0  0
 18 21  1  0  0  0  0
 18 24  1  0  0  0  0
 19 20  2  0  0  0  0
 19 28  1  0  0  0  0
 21 22  1  0  0  0  0
 21 25  1  0  0  0  0
 21 26  1  0  0  0  0
 22 27  1  0  0  0  0
 28 29  1  0  0  0  0
 28 33  1  0  0  0  0
 29 30  1  0  0  0  0
 29 32  1  0  0  0  0
 29 34  1  0  0  0  0
 30 31  2  0  0  0  0
 30 38  1  0  0  0  0
 32 35  1  0  0  0  0
 32 36  1  0  0  0  0
 32 37  1  0  0  0  0
 38 39  1  0  0  0  0
 38 40  1  0  0  0  0
 39 41  1  0  0  0  0
 39 42  1  0  0  0  0
 39 43  1  0  0  0  0
M  END
$$$$

  -OEChem-05262217303D

 43 42  0     1  0  0  0  0  0999 V2000
    3.1322   -2.6280    2.9234 C   0  0  0  0  0  0  0  0  0  0  0  0
    1.9716   -2.8923    3.1967 O   0  0  0  0  0  0  0  0  0  0  0  0
    4.1951   -3.7082    2.9921 C   0  0  0  0  0  0  0  0  0  0  0  0
    5.0402   -3.3648    3.5935 H   0  0  0  0  0  0  0  0  0  0  0  0
    3.7848   -4.6131    3.4490 H   0  0  0  0  0  0  0  0  0  0  0  0
    4.5466   -3.9483    1.9853 H   0  0  0  0  0  0  0  0  0  0  0  0
    3.4756   -1.3540    2.5213 N   0  0  0  0  0  0  0  0  0  0  0  0
    2.4735   -0.3459    2.1520 C   0  0  2  0  0  0  0  0  0  0  0  0
    2.1726   -0.3869    0.6401 C   0  0  0  0  0  0  0  0  0  0  0  0
    3.0989   -0.5229   -0.1493 O   0  0  0  0  0  0  0  0  0  0  0  0
    3.0147    1.0258    2.5616 C   0  0  0  0  0  0  0  0  0  0  0  0
    4.3894   -1.2689    2.0817 H   0  0  0  0  0  0  0  0  0  0  0  0
    1.5389   -0.5205    2.6950 H   0  0  0  0  0  0  0  0  0  0  0  0
    3.9486    1.2445    2.0335 H   0  0  0  0  0  0  0  0  0  0  0  0
    2.2897    1.8098    2.3230 H   0  0  0  0  0  0  0  0  0  0  0  0
    3.2088    1.0501    3.6384 H   0  0  0  0  0  0  0  0  0  0  0  0
    0.9096   -0.0712    0.1634 N   0  0  0  0  0  0  0  0  0  0  0  0
    0.3217   -0.5539   -1.1141 C   0  0  2  0  0  0  0  0  0  0  0  0
    0.4828   -2.0629   -1.4415 C   0  0  0  0  0  0  0  0  0  0  0  0
    1.5531   -2.6471   -1.3638 O   0  0  0  0  0  0  0  0  0  0  0  0
    0.8138    0.2818   -2.3093 C   0  0  0  0  0  0  0  0  0  0  0  0
    2.2117    0.1321   -2.5546 O   0  0  0  0  0  0  0  0  0  0  0  0
    0.2415    0.1037    0.9087 H   0  0  0  0  0  0  0  0  0  0  0  0
   -0.7537   -0.3741   -1.0416 H   0  0  0  0  0  0  0  0  0  0  0  0
    0.6050    1.3378   -2.1095 H   0  0  0  0  0  0  0  0  0  0  0  0
    0.2617    0.0012   -3.2122 H   0  0  0  0  0  0  0  0  0  0  0  0
    2.6796   -0.1265   -1.7182 H   0  0  0  0  0  0  0  0  0  0  0  0
   -0.6669   -2.8236   -1.6102 N   0  0  0  0  0  0  0  0  0  0  0  0
   -0.7514   -4.2858   -1.8174 C   0  0  2  0  0  0  0  0  0  0  0  0
   -0.4023   -5.1259   -0.5685 C   0  0  0  0  0  0  0  0  0  0  0  0
   -1.2339   -5.9071   -0.1246 O   0  0  0  0  0  0  0  0  0  0  0  0
    0.0650   -4.7394   -3.0368 C   0  0  0  0  0  0  0  0  0  0  0  0
   -1.5472   -2.3194   -1.5768 H   0  0  0  0  0  0  0  0  0  0  0  0
   -1.7982   -4.5103   -2.0460 H   0  0  0  0  0  0  0  0  0  0  0  0
    1.1402   -4.6655   -2.8493 H   0  0  0  0  0  0  0  0  0  0  0  0
   -0.1658   -5.7829   -3.2728 H   0  0  0  0  0  0  0  0  0  0  0  0
   -0.1793   -4.1252   -3.9085 H   0  0  0  0  0  0  0  0  0  0  0  0
    0.8084   -4.9781    0.0769 N   0  0  0  0  0  0  0  0  0  0  0  0
    1.1322   -5.6137    1.3462 C   0  0  0  0  0  0  0  0  0  0  0  0
    1.4146   -4.2330   -0.2779 H   0  0  0  0  0  0  0  0  0  0  0  0
    2.1896   -5.4650    1.5814 H   0  0  0  0  0  0  0  0  0  0  0  0
    0.5312   -5.1830    2.1536 H   0  0  0  0  0  0  0  0  0  0  0  0
    0.9405   -6.6906    1.2986 H   0  0  0  0  0  0  0  0  0  0  0  0
  1  2  2  0  0  0  0
  1  3  1  0  0  0  0
  1  7  1  0  0  0  0
  3  4  1  0  0  0  0
  3  5  1  0  0  0  0
  3  6  1  0  0  0  0
  7  8  1  0  0  0  0
  7 12  1  0  0  0  0
  8  9  1  0  0  0  0
  8 11  1  0  0  0  0
  8 13  1  0  0  0  0
  9 10  2  0  0  0  0
  9 17  1  0  0  0  0
 11 14  1  0  0  0  0
 11 15  1  0  0  0  0
 11 16  1  0  0  0  0
 17 18  1  0  0  0  0
 17 23  1  0  0  0  0
 18 19  1  0  0  0  0
 18 21  1  0  0  0  0
 18 24  1  0  0  0  0
 19 20  2  0  0  0  0
 19 28  1  0  0  0  0
 21 22  1  0  0  0  0
 21 25  1  0  0  0  0
 21 26  1  0  0  0  0
 22 27  1  0  0  0  0
 28 29  1  0  0  0  0
 28 33  1  0  0  0  0
 29 30  1  0  0  0  0
 29 32  1  0  0  0  0
 29 34  1  0  0  0  0
 30 31  2  0  0  0  0
 30 38  1  0  0  0  0
 32 35  1  0  0  0  0
 32 36  1  0  0  0  0
 32 37  1  0  0  0  0
 38 39  1  0  0  0  0
 38 40  1  0  0  0  0
 39 41  1  0  0  0  0
 39 42  1  0  0  0  0
 39 43  1  0  0  0  0
M  END
$$$$

  -OEChem-05262217303D

 43 42  0     1  0  0  0  0  0999 V2000
    3.7788   -2.2969    3.4428 C   0  0  0  0  0  0  0  0  0  0  0  0
    2.9037   -2.3896    4.2896 O   0  0  0  0  0  0  0  0  0  0  0  0
    5.0226   -3.1603    3.5328 C   0  0  0  0  0  0  0  0  0  0  0  0
    5.9084   -2.5279    3.6295 H   0  0  0  0  0  0  0  0  0  0  0  0
    4.9626   -3.8190    4.4036 H   0  0  0  0  0  0  0  0  0  0  0  0
    5.1173   -3.7732    2.6331 H   0  0  0  0  0  0  0  0  0  0  0  0
    3.6347   -1.4092    2.3981 N   0  0  0  0  0  0  0  0  0  0  0  0
    2.4120   -0.6440    2.1250 C   0  0  2  0  0  0  0  0  0  0  0  0
    2.1711   -0.4959    0.6091 C   0  0  0  0  0  0  0  0  0  0  0  0
    3.1160   -0.5746   -0.1681 O   0  0  0  0  0  0  0  0  0  0  0  0
    2.5457    0.7271    2.7941 C   0  0  0  0  0  0  0  0  0  0  0  0
    4.3233   -1.4569    1.6472 H   0  0  0  0  0  0  0  0  0  0  0  0
    1.5454   -1.1677    2.5429 H   0  0  0  0  0  0  0  0  0  0  0  0
    3.4057    1.2690    2.3873 H   0  0  0  0  0  0  0  0  0  0  0  0
    1.6457    1.3267    2.6295 H   0  0  0  0  0  0  0  0  0  0  0  0
    2.6882    0.6083    3.8732 H   0  0  0  0  0  0  0  0  0  0  0  0
    0.9203   -0.1403    0.1277 N   0  0  0  0  0  0  0  0  0  0  0  0
    0.3487   -0.5502   -1.1833 C   0  0  2  0  0  0  0  0  0  0  0  0
    0.4961   -2.0418   -1.5871 C   0  0  0  0  0  0  0  0  0  0  0  0
    1.4314   -2.7323   -1.2071 O   0  0  0  0  0  0  0  0  0  0  0  0
    0.8810    0.3165   -2.3372 C   0  0  0  0  0  0  0  0  0  0  0  0
    2.2785    0.1345   -2.5610 O   0  0  0  0  0  0  0  0  0  0  0  0
    0.2396   -0.0077    0.8706 H   0  0  0  0  0  0  0  0  0  0  0  0
   -0.7253   -0.3582   -1.1192 H   0  0  0  0  0  0  0  0  0  0  0  0
    0.6979    1.3693   -2.0990 H   0  0  0  0  0  0  0  0  0  0  0  0
    0.3375    0.0882   -3.2598 H   0  0  0  0  0  0  0  0  0  0  0  0
    2.7355   -0.0969   -1.7102 H   0  0  0  0  0  0  0  0  0  0  0  0
   -0.6125   -2.6873   -2.1186 N   0  0  0  0  0  0  0  0  0  0  0  0
   -0.7416   -4.1253   -2.4399 C   0  0  2  0  0  0  0  0  0  0  0  0
   -0.8025   -5.0550   -1.2058 C   0  0  0  0  0  0  0  0  0  0  0  0
   -1.8089   -5.7234   -1.0095 O   0  0  0  0  0  0  0  0  0  0  0  0
    0.3442   -4.5805   -3.4266 C   0  0  0  0  0  0  0  0  0  0  0  0
   -1.4073   -2.0979   -2.3465 H   0  0  0  0  0  0  0  0  0  0  0  0
   -1.7007   -4.2486   -2.9538 H   0  0  0  0  0  0  0  0  0  0  0  0
    1.3313   -4.5967   -2.9555 H   0  0  0  0  0  0  0  0  0  0  0  0
    0.1237   -5.5905   -3.7857 H   0  0  0  0  0  0  0  0  0  0  0  0
    0.3816   -3.9077   -4.2886 H   0  0  0  0  0  0  0  0  0  0  0  0
    0.2379   -5.1142   -0.3007 N   0  0  0  0  0  0  0  0  0  0  0  0
    0.2048   -5.8890    0.9319 C   0  0  0  0  0  0  0  0  0  0  0  0
    1.0001   -4.4478   -0.4548 H   0  0  0  0  0  0  0  0  0  0  0  0
    0.0532   -6.9507    0.7117 H   0  0  0  0  0  0  0  0  0  0  0  0
    1.1509   -5.7794    1.4706 H   0  0  0  0  0  0  0  0  0  0  0  0
   -0.6063   -5.5437    1.5812 H   0  0  0  0  0  0  0  0  0  0  0  0
  1  2  2  0  0  0  0
  1  3  1  0  0  0  0
  1  7  1  0  0  0  0
  3  4  1  0  0  0  0
  3  5  1  0  0  0  0
  3  6  1  0  0  0  0
  7  8  1  0  0  0  0
  7 12  1  0  0  0  0
  8  9  1  0  0  0  0
  8 11  1  0  0  0  0
  8 13  1  0  0  0  0
  9 10  2  0  0  0  0
  9 17  1  0  0  0  0
 11 14  1  0  0  0  0
 11 15  1  0  0  0  0
 11 16  1  0  0  0  0
 17 18  1  0  0  0  0
 17 23  1  0  0  0  0
 18 19  1  0  0  0  0
 18 21  1  0  0  0  0
 18 24  1  0  0  0  0
 19 20  2  0  0  0  0
 19 28  1  0  0  0  0
 21 22  1  0  0  0  0
 21 25  1  0  0  0  0
 21 26  1  0  0  0  0
 22 27  1  0  0  0  0
 28 29  1  0  0  0  0
 28 33  1  0  0  0  0
 29 30  1  0  0  0  0
 29 32  1  0  0  0  0
 29 34  1  0  0  0  0
 30 31  2  0  0  0  0
 30 38  1  0  0  0  0
 32 35  1  0  0  0  0
 32 36  1  0  0  0  0
 32 37  1  0  0  0  0
 38 39  1  0  0  0  0
 38 40  1  0  0  0  0
 39 41  1  0  0  0  0
 39 42  1  0  0  0  0
 39 43  1  0  0  0  0
M  END
$$$$

  -OEChem-05262217303D

 43 42  0     1  0  0  0  0  0999 V2000
    3.8252   -2.1955    3.4948 C   0  0  0  0  0  0  0  0  0  0  0  0
    2.9607   -2.2760    4.3535 O   0  0  0  0  0  0  0  0  0  0  0  0
    5.0711   -3.0562    3.5849 C   0  0  0  0  0  0  0  0  0  0  0  0
    5.9588   -2.4223    3.6488 H   0  0  0  0  0  0  0  0  0  0  0  0
    5.0269   -3.6912    4.4740 H   0  0  0  0  0  0  0  0  0  0  0  0
    5.1497   -3.6935    2.7008 H   0  0  0  0  0  0  0  0  0  0  0  0
    3.6657   -1.3256    2.4369 N   0  0  0  0  0  0  0  0  0  0  0  0
    2.4302   -0.5819    2.1615 C   0  0  2  0  0  0  0  0  0  0  0  0
    2.1596   -0.4820    0.6466 C   0  0  0  0  0  0  0  0  0  0  0  0
    3.0941   -0.5465   -0.1453 O   0  0  0  0  0  0  0  0  0  0  0  0
    2.5584    0.8110    2.7843 C   0  0  0  0  0  0  0  0  0  0  0  0
    4.3433   -1.3870    1.6772 H   0  0  0  0  0  0  0  0  0  0  0  0
    1.5772   -1.1013    2.6111 H   0  0  0  0  0  0  0  0  0  0  0  0
    3.4016    1.3516    2.3421 H   0  0  0  0  0  0  0  0  0  0  0  0
    1.6464    1.3923    2.6196 H   0  0  0  0  0  0  0  0  0  0  0  0
    2.7246    0.7286    3.8632 H   0  0  0  0  0  0  0  0  0  0  0  0
    0.8883   -0.1849    0.1786 N   0  0  0  0  0  0  0  0  0  0  0  0
    0.3359   -0.5922   -1.1416 C   0  0  2  0  0  0  0  0  0  0  0  0
    0.5667   -2.0616   -1.5841 C   0  0  0  0  0  0  0  0  0  0  0  0
    1.3379   -2.7980   -0.9829 O   0  0  0  0  0  0  0  0  0  0  0  0
    0.8187    0.3340   -2.2709 C   0  0  0  0  0  0  0  0  0  0  0  0
    2.2239    0.2316   -2.4969 O   0  0  0  0  0  0  0  0  0  0  0  0
    0.2049   -0.0990    0.9257 H   0  0  0  0  0  0  0  0  0  0  0  0
   -0.7481   -0.4687   -1.0715 H   0  0  0  0  0  0  0  0  0  0  0  0
    0.5803    1.3684   -2.0022 H   0  0  0  0  0  0  0  0  0  0  0  0
    0.2880    0.1057   -3.2009 H   0  0  0  0  0  0  0  0  0  0  0  0
    2.6933    0.0091   -1.6503 H   0  0  0  0  0  0  0  0  0  0  0  0
   -0.3818   -2.6540   -2.4075 N   0  0  0  0  0  0  0  0  0  0  0  0
   -0.4319   -4.0662   -2.8463 C   0  0  2  0  0  0  0  0  0  0  0  0
   -0.8278   -5.0774   -1.7449 C   0  0  0  0  0  0  0  0  0  0  0  0
   -1.7894   -5.8131   -1.9246 O   0  0  0  0  0  0  0  0  0  0  0  0
    0.8747   -4.4838   -3.5368 C   0  0  0  0  0  0  0  0  0  0  0  0
   -1.0511   -2.0229   -2.8376 H   0  0  0  0  0  0  0  0  0  0  0  0
   -1.2191   -4.1311   -3.6047 H   0  0  0  0  0  0  0  0  0  0  0  0
    1.7006   -4.5492   -2.8225 H   0  0  0  0  0  0  0  0  0  0  0  0
    0.7525   -5.4655   -4.0052 H   0  0  0  0  0  0  0  0  0  0  0  0
    1.1428   -3.7610   -4.3132 H   0  0  0  0  0  0  0  0  0  0  0  0
   -0.1305   -5.1571   -0.5567 N   0  0  0  0  0  0  0  0  0  0  0  0
   -0.4607   -6.0687    0.5295 C   0  0  0  0  0  0  0  0  0  0  0  0
    0.6348   -4.4871   -0.4393 H   0  0  0  0  0  0  0  0  0  0  0  0
   -0.4221   -7.1065    0.1826 H   0  0  0  0  0  0  0  0  0  0  0  0
    0.2546   -5.9515    1.3494 H   0  0  0  0  0  0  0  0  0  0  0  0
   -1.4652   -5.8610    0.9124 H   0  0  0  0  0  0  0  0  0  0  0  0
  1  2  2  0  0  0  0
  1  3  1  0  0  0  0
  1  7  1  0  0  0  0
  3  4  1  0  0  0  0
  3  5  1  0  0  0  0
  3  6  1  0  0  0  0
  7  8  1  0  0  0  0
  7 12  1  0  0  0  0
  8  9  1  0  0  0  0
  8 11  1  0  0  0  0
  8 13  1  0  0  0  0
  9 10  2  0  0  0  0
  9 17  1  0  0  0  0
 11 14  1  0  0  0  0
 11 15  1  0  0  0  0
 11 16  1  0  0  0  0
 17 18  1  0  0  0  0
 17 23  1  0  0  0  0
 18 19  1  0  0  0  0
 18 21  1  0  0  0  0
 18 24  1  0  0  0  0
 19 20  2  0  0  0  0
 19 28  1  0  0  0  0
 21 22  1  0  0  0  0
 21 25  1  0  0  0  0
 21 26  1  0  0  0  0
 22 27  1  0  0  0  0
 28 29  1  0  0  0  0
 28 33  1  0  0  0  0
 29 30  1  0  0  0  0
 29 32  1  0  0  0  0
 29 34  1  0  0  0  0
 30 31  2  0  0  0  0
 30 38  1  0  0  0  0
 32 35  1  0  0  0  0
 32 36  1  0  0  0  0
 32 37  1  0  0  0  0
 38 39  1  0  0  0  0
 38 40  1  0  0  0  0
 39 41  1  0  0  0  0
 39 42  1  0  0  0  0
 39 43  1  0  0  0  0
M  END
$$$$

  -OEChem-05262217303D

 43 42  0     1  0  0  0  0  0999 V2000
    3.8807   -2.1355    3.5317 C   0  0  0  0  0  0  0  0  0  0  0  0
    3.0526   -2.1502    4.4291 O   0  0  0  0  0  0  0  0  0  0  0  0
    5.1155   -3.0123    3.6179 C   0  0  0  0  0  0  0  0  0  0  0  0
    6.0158   -2.3951    3.5686 H   0  0  0  0  0  0  0  0  0  0  0  0
    5.1191   -3.5666    4.5605 H   0  0  0  0  0  0  0  0  0  0  0  0
    5.1252   -3.7256    2.7901 H   0  0  0  0  0  0  0  0  0  0  0  0
    3.6905   -1.3249    2.4329 N   0  0  0  0  0  0  0  0  0  0  0  0
    2.4568   -0.5752    2.1668 C   0  0  2  0  0  0  0  0  0  0  0  0
    2.1686   -0.4830    0.6554 C   0  0  0  0  0  0  0  0  0  0  0  0
    3.0873   -0.5824   -0.1517 O   0  0  0  0  0  0  0  0  0  0  0  0
    2.5948    0.8232    2.7748 C   0  0  0  0  0  0  0  0  0  0  0  0
    4.3385   -1.4357    1.6535 H   0  0  0  0  0  0  0  0  0  0  0  0
    1.6073   -1.0890    2.6296 H   0  0  0  0  0  0  0  0  0  0  0  0
    3.4383    1.3554    2.3232 H   0  0  0  0  0  0  0  0  0  0  0  0
    1.6847    1.4069    2.6076 H   0  0  0  0  0  0  0  0  0  0  0  0
    2.7650    0.7513    3.8538 H   0  0  0  0  0  0  0  0  0  0  0  0
    0.8909   -0.1890    0.2039 N   0  0  0  0  0  0  0  0  0  0  0  0
    0.3378   -0.5883   -1.1174 C   0  0  2  0  0  0  0  0  0  0  0  0
    0.5955   -2.0545   -1.5538 C   0  0  0  0  0  0  0  0  0  0  0  0
    1.1606   -2.8420   -0.8040 O   0  0  0  0  0  0  0  0  0  0  0  0
    0.8079    0.3543   -2.2394 C   0  0  0  0  0  0  0  0  0  0  0  0
    2.2129    0.2686   -2.4731 O   0  0  0  0  0  0  0  0  0  0  0  0
    0.2121   -0.1131    0.9566 H   0  0  0  0  0  0  0  0  0  0  0  0
   -0.7486   -0.4862   -1.0478 H   0  0  0  0  0  0  0  0  0  0  0  0
    0.5624    1.3826   -1.9559 H   0  0  0  0  0  0  0  0  0  0  0  0
    0.2746    0.1358   -3.1698 H   0  0  0  0  0  0  0  0  0  0  0  0
    2.6888    0.0404   -1.6321 H   0  0  0  0  0  0  0  0  0  0  0  0
   -0.1436   -2.5750   -2.6070 N   0  0  0  0  0  0  0  0  0  0  0  0
   -0.1130   -3.9615   -3.1210 C   0  0  2  0  0  0  0  0  0  0  0  0
   -0.7788   -5.0163   -2.2063 C   0  0  0  0  0  0  0  0  0  0  0  0
   -1.6828   -5.7108   -2.6524 O   0  0  0  0  0  0  0  0  0  0  0  0
    1.3148   -4.3812   -3.4999 C   0  0  0  0  0  0  0  0  0  0  0  0
   -0.6377   -1.8938   -3.1753 H   0  0  0  0  0  0  0  0  0  0  0  0
   -0.6958   -3.9648   -4.0480 H   0  0  0  0  0  0  0  0  0  0  0  0
    1.9476   -4.4907   -2.6142 H   0  0  0  0  0  0  0  0  0  0  0  0
    1.2959   -5.3415   -4.0248 H   0  0  0  0  0  0  0  0  0  0  0  0
    1.7674   -3.6357   -4.1605 H   0  0  0  0  0  0  0  0  0  0  0  0
   -0.3794   -5.1904   -0.8967 N   0  0  0  0  0  0  0  0  0  0  0  0
   -0.9641   -6.1618    0.0169 C   0  0  0  0  0  0  0  0  0  0  0  0
    0.3442   -4.5497   -0.5589 H   0  0  0  0  0  0  0  0  0  0  0  0
   -0.4525   -6.1254    0.9834 H   0  0  0  0  0  0  0  0  0  0  0  0
   -2.0255   -5.9464    0.1771 H   0  0  0  0  0  0  0  0  0  0  0  0
   -0.8656   -7.1746   -0.3876 H   0  0  0  0  0  0  0  0  0  0  0  0
  1  2  2  0  0  0  0
  1  3  1  0  0  0  0
  1  7  1  0  0  0  0
  3  4  1  0  0  0  0
  3  5  1  0  0  0  0
  3  6  1  0  0  0  0
  7  8  1  0  0  0  0
  7 12  1  0  0  0  0
  8  9  1  0  0  0  0
  8 11  1  0  0  0  0
  8 13  1  0  0  0  0
  9 10  2  0  0  0  0
  9 17  1  0  0  0  0
 11 14  1  0  0  0  0
 11 15  1  0  0  0  0
 11 16  1  0  0  0  0
 17 18  1  0  0  0  0
 17 23  1  0  0  0  0
 18 19  1  0  0  0  0
 18 21  1  0  0  0  0
 18 24  1  0  0  0  0
 19 20  2  0  0  0  0
 19 28  1  0  0  0  0
 21 22  1  0  0  0  0
 21 25  1  0  0  0  0
 21 26  1  0  0  0  0
 22 27  1  0  0  0  0
 28 29  1  0  0  0  0
 28 33  1  0  0  0  0
 29 30  1  0  0  0  0
 29 32  1  0  0  0  0
 29 34  1  0  0  0  0
 30 31  2  0  0  0  0
 30 38  1  0  0  0  0
 32 35  1  0  0  0  0
 32 36  1  0  0  0  0
 32 37  1  0  0  0  0
 38 39  1  0  0  0  0
 38 40  1  0  0  0  0
 39 41  1  0  0  0  0
 39 42  1  0  0  0  0
 39 43  1  0  0  0  0
M  END
$$$$

  -OEChem-05262217303D

 43 42  0     1  0  0  0  0  0999 V2000
    3.8440   -1.9926    3.7340 C   0  0  0  0  0  0  0  0  0  0  0  0
    3.0302   -1.8949    4.6389 O   0  0  0  0  0  0  0  0  0  0  0  0
    5.0767   -2.8601    3.9056 C   0  0  0  0  0  0  0  0  0  0  0  0
    5.9780   -2.2520    3.7979 H   0  0  0  0  0  0  0  0  0  0  0  0
    5.0788   -3.3208    4.8974 H   0  0  0  0  0  0  0  0  0  0  0  0
    5.0857   -3.6500    3.1506 H   0  0  0  0  0  0  0  0  0  0  0  0
    3.6421   -1.3156    2.5500 N   0  0  0  0  0  0  0  0  0  0  0  0
    2.4130   -0.5845    2.2155 C   0  0  2  0  0  0  0  0  0  0  0  0
    2.1146   -0.6344    0.7024 C   0  0  0  0  0  0  0  0  0  0  0  0
    3.0084   -0.9349   -0.0819 O   0  0  0  0  0  0  0  0  0  0  0  0
    2.5690    0.8643    2.6868 C   0  0  0  0  0  0  0  0  0  0  0  0
    4.2803   -1.5190    1.7815 H   0  0  0  0  0  0  0  0  0  0  0  0
    1.5619   -1.0429    2.7308 H   0  0  0  0  0  0  0  0  0  0  0  0
    3.4145    1.3421    2.1813 H   0  0  0  0  0  0  0  0  0  0  0  0
    1.6636    1.4398    2.4719 H   0  0  0  0  0  0  0  0  0  0  0  0
    2.7471    0.8933    3.7666 H   0  0  0  0  0  0  0  0  0  0  0  0
    0.8489   -0.3147    0.2345 N   0  0  0  0  0  0  0  0  0  0  0  0
    0.3010   -0.6336   -1.1104 C   0  0  2  0  0  0  0  0  0  0  0  0
    0.2606   -2.1542   -1.4020 C   0  0  0  0  0  0  0  0  0  0  0  0
    0.3929   -2.9482   -0.4769 O   0  0  0  0  0  0  0  0  0  0  0  0
    0.9735    0.1233   -2.2739 C   0  0  0  0  0  0  0  0  0  0  0  0
    2.3365   -0.2408   -2.4760 O   0  0  0  0  0  0  0  0  0  0  0  0
    0.1634   -0.1826    0.9736 H   0  0  0  0  0  0  0  0  0  0  0  0
   -0.7435   -0.3105   -1.1063 H   0  0  0  0  0  0  0  0  0  0  0  0
    0.9327    1.1947   -2.0530 H   0  0  0  0  0  0  0  0  0  0  0  0
    0.4176   -0.0358   -3.2030 H   0  0  0  0  0  0  0  0  0  0  0  0
    2.7653   -0.4516   -1.6045 H   0  0  0  0  0  0  0  0  0  0  0  0
   -0.2216   -2.6185   -2.6175 N   0  0  0  0  0  0  0  0  0  0  0  0
   -0.3590   -4.0292   -3.0412 C   0  0  2  0  0  0  0  0  0  0  0  0
   -1.4962   -4.8185   -2.3515 C   0  0  0  0  0  0  0  0  0  0  0  0
   -2.2977   -5.4387   -3.0377 O   0  0  0  0  0  0  0  0  0  0  0  0
    0.9776   -4.7751   -2.9202 C   0  0  0  0  0  0  0  0  0  0  0  0
   -0.2875   -1.9193   -3.3518 H   0  0  0  0  0  0  0  0  0  0  0  0
   -0.6139   -4.0129   -4.1059 H   0  0  0  0  0  0  0  0  0  0  0  0
    1.2516   -4.9336   -1.8731 H   0  0  0  0  0  0  0  0  0  0  0  0
    0.9057   -5.7543   -3.4040 H   0  0  0  0  0  0  0  0  0  0  0  0
    1.7759   -4.2065   -3.4069 H   0  0  0  0  0  0  0  0  0  0  0  0
   -1.6260   -4.8451   -0.9778 N   0  0  0  0  0  0  0  0  0  0  0  0
   -2.6394   -5.6104   -0.2652 C   0  0  0  0  0  0  0  0  0  0  0  0
   -0.9154   -4.3315   -0.4494 H   0  0  0  0  0  0  0  0  0  0  0  0
   -2.5173   -6.6807   -0.4610 H   0  0  0  0  0  0  0  0  0  0  0  0
   -2.5492   -5.4419    0.8121 H   0  0  0  0  0  0  0  0  0  0  0  0
   -3.6428   -5.3053   -0.5800 H   0  0  0  0  0  0  0  0  0  0  0  0
  1  2  2  0  0  0  0
  1  3  1  0  0  0  0
  1  7  1  0  0  0  0
  3  4  1  0  0  0  0
  3  5  1  0  0  0  0
  3  6  1  0  0  0  0
  7  8  1  0  0  0  0
  7 12  1  0  0  0  0
  8  9  1  0  0  0  0
  8 11  1  0  0  0  0
  8 13  1  0  0  0  0
  9 10  2  0  0  0  0
  9 17  1  0  0  0  0
 11 14  1  0  0  0  0
 11 15  1  0  0  0  0
 11 16  1  0  0  0  0
 17 18  1  0  0  0  0
 17 23  1  0  0  0  0
 18 19  1  0  0  0  0
 18 21  1  0  0  0  0
 18 24  1  0  0  0  0
 19 20  2  0  0  0  0
 19 28  1  0  0  0  0
 21 22  1  0  0  0  0
 21 25  1  0  0  0  0
 21 26  1  0  0  0  0
 22 27  1  0  0  0  0
 28 29  1  0  0  0  0
 28 33  1  0  0  0  0
 29 30  1  0  0  0  0
 29 32  1  0  0  0  0
 29 34  1  0  0  0  0
 30 31  2  0  0  0  0
 30 38  1  0  0  0  0
 32 35  1  0  0  0  0
 32 36  1  0  0  0  0
 32 37  1  0  0  0  0
 38 39  1  0  0  0  0
 38 40  1  0  0  0  0
 39 41  1  0  0  0  0
 39 42  1  0  0  0  0
 39 43  1  0  0  0  0
M  END
$$$$

  -OEChem-05262217303D

 43 42  0     1  0  0  0  0  0999 V2000
    3.8939   -1.9568    3.7592 C   0  0  0  0  0  0  0  0  0  0  0  0
    3.0952   -1.8321    4.6741 O   0  0  0  0  0  0  0  0  0  0  0  0
    5.1281   -2.8209    3.9374 C   0  0  0  0  0  0  0  0  0  0  0  0
    6.0292   -2.2212    3.7880 H   0  0  0  0  0  0  0  0  0  0  0  0
    5.1494   -3.2439    4.9457 H   0  0  0  0  0  0  0  0  0  0  0  0
    5.1186   -3.6391    3.2130 H   0  0  0  0  0  0  0  0  0  0  0  0
    3.6682   -1.3186    2.5579 N   0  0  0  0  0  0  0  0  0  0  0  0
    2.4284   -0.6047    2.2249 C   0  0  2  0  0  0  0  0  0  0  0  0
    2.1204   -0.6663    0.7141 C   0  0  0  0  0  0  0  0  0  0  0  0
    2.9999   -0.9964   -0.0745 O   0  0  0  0  0  0  0  0  0  0  0  0
    2.5649    0.8497    2.6869 C   0  0  0  0  0  0  0  0  0  0  0  0
    4.2938   -1.5426    1.7849 H   0  0  0  0  0  0  0  0  0  0  0  0
    1.5868   -1.0729    2.7474 H   0  0  0  0  0  0  0  0  0  0  0  0
    3.3966    1.3393    2.1702 H   0  0  0  0  0  0  0  0  0  0  0  0
    1.6472    1.4079    2.4788 H   0  0  0  0  0  0  0  0  0  0  0  0
    2.7533    0.8895    3.7647 H   0  0  0  0  0  0  0  0  0  0  0  0
    0.8568   -0.3361    0.2498 N   0  0  0  0  0  0  0  0  0  0  0  0
    0.3100   -0.6377   -1.0985 C   0  0  2  0  0  0  0  0  0  0  0  0
    0.2742   -2.1587   -1.3860 C   0  0  0  0  0  0  0  0  0  0  0  0
    0.1762   -2.9364   -0.4426 O   0  0  0  0  0  0  0  0  0  0  0  0
    0.9819    0.1353   -2.2527 C   0  0  0  0  0  0  0  0  0  0  0  0
    2.3454   -0.2270   -2.4570 O   0  0  0  0  0  0  0  0  0  0  0  0
    0.1715   -0.1986    0.9884 H   0  0  0  0  0  0  0  0  0  0  0  0
   -0.7360   -0.3192   -1.0952 H   0  0  0  0  0  0  0  0  0  0  0  0
    0.9411    1.2037   -2.0176 H   0  0  0  0  0  0  0  0  0  0  0  0
    0.4246   -0.0095   -3.1835 H   0  0  0  0  0  0  0  0  0  0  0  0
    2.7722   -0.4506   -1.5882 H   0  0  0  0  0  0  0  0  0  0  0  0
    0.0984   -2.6323   -2.6776 N   0  0  0  0  0  0  0  0  0  0  0  0
    0.0453   -4.0459   -3.1069 C   0  0  2  0  0  0  0  0  0  0  0  0
   -1.2263   -4.8183   -2.6844 C   0  0  0  0  0  0  0  0  0  0  0  0
   -1.9040   -5.3726   -3.5398 O   0  0  0  0  0  0  0  0  0  0  0  0
    1.3143   -4.7976   -2.6794 C   0  0  0  0  0  0  0  0  0  0  0  0
    0.2800   -1.9477   -3.4074 H   0  0  0  0  0  0  0  0  0  0  0  0
    0.0362   -4.0398   -4.2020 H   0  0  0  0  0  0  0  0  0  0  0  0
    1.3531   -4.9290   -1.5940 H   0  0  0  0  0  0  0  0  0  0  0  0
    1.3357   -5.7889   -3.1433 H   0  0  0  0  0  0  0  0  0  0  0  0
    2.2066   -4.2480   -2.9954 H   0  0  0  0  0  0  0  0  0  0  0  0
   -1.6112   -4.9056   -1.3618 N   0  0  0  0  0  0  0  0  0  0  0  0
   -2.7993   -5.6086   -0.8991 C   0  0  0  0  0  0  0  0  0  0  0  0
   -1.0397   -4.3836   -0.6922 H   0  0  0  0  0  0  0  0  0  0  0  0
   -2.8493   -5.5837    0.1935 H   0  0  0  0  0  0  0  0  0  0  0  0
   -3.7029   -5.1381   -1.2999 H   0  0  0  0  0  0  0  0  0  0  0  0
   -2.7746   -6.6554   -1.2192 H   0  0  0  0  0  0  0  0  0  0  0  0
  1  2  2  0  0  0  0
  1  3  1  0  0  0  0
  1  7  1  0  0  0  0
  3  4  1  0  0  0  0
  3  5  1  0  0  0  0
  3  6  1  0  0  0  0
  7  8  1  0  0  0  0
  7 12  1  0  0  0  0
  8  9  1  0  0  0  0
  8 11  1  0  0  0  0
  8 13  1  0  0  0  0
  9 10  2  0  0  0  0
  9 17  1  0  0  0  0
 11 14  1  0  0  0  0
 11 15  1  0  0  0  0
 11 16  1  0  0  0  0
 17 18  1  0  0  0  0
 17 23  1  0  0  0  0
 18 19  1  0  0  0  0
 18 21  1  0  0  0  0
 18 24  1  0  0  0  0
 19 20  2  0  0  0  0
 19 28  1  0  0  0  0
 21 22  1  0  0  0  0
 21 25  1  0  0  0  0
 21 26  1  0  0  0  0
 22 27  1  0  0  0  0
 28 29  1  0  0  0  0
 28 33  1  0  0  0  0
 29 30  1  0  0  0  0
 29 32  1  0  0  0  0
 29 34  1  0  0  0  0
 30 31  2  0  0  0  0
 30 38  1  0  0  0  0
 32 35  1  0  0  0  0
 32 36  1  0  0  0  0
 32 37  1  0  0  0  0
 38 39  1  0  0  0  0
 38 40  1  0  0  0  0
 39 41  1  0  0  0  0
 39 42  1  0  0  0  0
 39 43  1  0  0  0  0
M  END
$$$$

  -OEChem-05262217303D

 43 42  0     1  0  0  0  0  0999 V2000
    3.8749   -1.8987    3.7674 C   0  0  0  0  0  0  0  0  0  0  0  0
    3.0597   -1.7941    4.6699 O   0  0  0  0  0  0  0  0  0  0  0  0
    5.1262   -2.7347    3.9603 C   0  0  0  0  0  0  0  0  0  0  0  0
    6.0145   -2.1206    3.7936 H   0  0  0  0  0  0  0  0  0  0  0  0
    5.1603   -3.1342    4.9779 H   0  0  0  0  0  0  0  0  0  0  0  0
    5.1306   -3.5687    3.2541 H   0  0  0  0  0  0  0  0  0  0  0  0
    3.6553   -1.2620    2.5642 N   0  0  0  0  0  0  0  0  0  0  0  0
    2.4094   -0.5680    2.2121 C   0  0  2  0  0  0  0  0  0  0  0  0
    2.1137   -0.6531    0.7000 C   0  0  0  0  0  0  0  0  0  0  0  0
    2.9956   -1.0052   -0.0767 O   0  0  0  0  0  0  0  0  0  0  0  0
    2.5264    0.8932    2.6572 C   0  0  0  0  0  0  0  0  0  0  0  0
    4.2997   -1.4703    1.8025 H   0  0  0  0  0  0  0  0  0  0  0  0
    1.5685   -1.0387    2.7336 H   0  0  0  0  0  0  0  0  0  0  0  0
    3.3652    1.3821    2.1513 H   0  0  0  0  0  0  0  0  0  0  0  0
    1.6096    1.4426    2.4236 H   0  0  0  0  0  0  0  0  0  0  0  0
    2.6926    0.9468    3.7379 H   0  0  0  0  0  0  0  0  0  0  0  0
    0.8548   -0.3324    0.2188 N   0  0  0  0  0  0  0  0  0  0  0  0
    0.3270   -0.6582   -1.1298 C   0  0  2  0  0  0  0  0  0  0  0  0
    0.3095   -2.1865   -1.3672 C   0  0  0  0  0  0  0  0  0  0  0  0
   -0.0286   -2.9121   -0.4385 O   0  0  0  0  0  0  0  0  0  0  0  0
    1.0034    0.0928   -2.2956 C   0  0  0  0  0  0  0  0  0  0  0  0
    2.3711   -0.2681   -2.4821 O   0  0  0  0  0  0  0  0  0  0  0  0
    0.1600   -0.1838    0.9462 H   0  0  0  0  0  0  0  0  0  0  0  0
   -0.7223   -0.3497   -1.1464 H   0  0  0  0  0  0  0  0  0  0  0  0
    0.9549    1.1660   -2.0837 H   0  0  0  0  0  0  0  0  0  0  0  0
    0.4522   -0.0771   -3.2266 H   0  0  0  0  0  0  0  0  0  0  0  0
    2.7943   -0.4641   -1.6052 H   0  0  0  0  0  0  0  0  0  0  0  0
    0.4667   -2.7207   -2.6367 N   0  0  0  0  0  0  0  0  0  0  0  0
    0.5290   -4.1544   -2.9933 C   0  0  2  0  0  0  0  0  0  0  0  0
   -0.8066   -4.9272   -2.8869 C   0  0  0  0  0  0  0  0  0  0  0  0
   -1.1416   -5.6736   -3.7974 O   0  0  0  0  0  0  0  0  0  0  0  0
    1.6352   -4.8687   -2.2037 C   0  0  0  0  0  0  0  0  0  0  0  0
    0.8769   -2.0723   -3.3075 H   0  0  0  0  0  0  0  0  0  0  0  0
    0.8131   -4.1999   -4.0497 H   0  0  0  0  0  0  0  0  0  0  0  0
    1.3724   -4.9595   -1.1457 H   0  0  0  0  0  0  0  0  0  0  0  0
    1.7893   -5.8761   -2.6030 H   0  0  0  0  0  0  0  0  0  0  0  0
    2.5769   -4.3171   -2.2831 H   0  0  0  0  0  0  0  0  0  0  0  0
   -1.6194   -4.8171   -1.7765 N   0  0  0  0  0  0  0  0  0  0  0  0
   -2.8359   -5.5917   -1.5742 C   0  0  0  0  0  0  0  0  0  0  0  0
   -1.2575   -4.2394   -1.0135 H   0  0  0  0  0  0  0  0  0  0  0  0
   -2.6054   -6.6612   -1.5324 H   0  0  0  0  0  0  0  0  0  0  0  0
   -3.3147   -5.3027   -0.6336 H   0  0  0  0  0  0  0  0  0  0  0  0
   -3.5438   -5.4142   -2.3905 H   0  0  0  0  0  0  0  0  0  0  0  0
  1  2  2  0  0  0  0
  1  3  1  0  0  0  0
  1  7  1  0  0  0  0
  3  4  1  0  0  0  0
  3  5  1  0  0  0  0
  3  6  1  0  0  0  0
  7  8  1  0  0  0  0
  7 12  1  0  0  0  0
  8  9  1  0  0  0  0
  8 11  1  0  0  0  0
  8 13  1  0  0  0  0
  9 10  2  0  0  0  0
  9 17  1  0  0  0  0
 11 14  1  0  0  0  0
 11 15  1  0  0  0  0
 11 16  1  0  0  0  0
 17 18  1  0  0  0  0
 17 23  1  0  0  0  0
 18 19  1  0  0  0  0
 18 21  1  0  0  0  0
 18 24  1  0  0  0  0
 19 20  2  0  0  0  0
 19 28  1  0  0  0  0
 21 22  1  0  0  0  0
 21 25  1  0  0  0  0
 21 26  1  0  0  0  0
 22 27  1  0  0  0  0
 28 29  1  0  0  0  0
 28 33  1  0  0  0  0
 29 30  1  0  0  0  0
 29 32  1  0  0  0  0
 29 34  1  0  0  0  0
 30 31  2  0  0  0  0
 30 38  1  0  0  0  0
 32 35  1  0  0  0  0
 32 36  1  0  0  0  0
 32 37  1  0  0  0  0
 38 39  1  0  0  0  0
 38 40  1  0  0  0  0
 39 41  1  0  0  0  0
 39 42  1  0  0  0  0
 39 43  1  0  0  0  0
M  END
$$$$

  -OEChem-05262217303D

 43 42  0     1  0  0  0  0  0999 V2000
    3.8757   -1.8262    3.8357 C   0  0  0  0  0  0  0  0  0  0  0  0
    3.0768   -1.6373    4.7390 O   0  0  0  0  0  0  0  0  0  0  0  0
    5.1045   -2.6838    4.0694 C   0  0  0  0  0  0  0  0  0  0  0  0
    6.0080   -2.1070    3.8579 H   0  0  0  0  0  0  0  0  0  0  0  0
    5.1371   -3.0210    5.1092 H   0  0  0  0  0  0  0  0  0  0  0  0
    5.0775   -3.5590    3.4158 H   0  0  0  0  0  0  0  0  0  0  0  0
    3.6561   -1.2654    2.5952 N   0  0  0  0  0  0  0  0  0  0  0  0
    2.4338   -0.5420    2.2205 C   0  0  2  0  0  0  0  0  0  0  0  0
    2.1157   -0.6916    0.7181 C   0  0  0  0  0  0  0  0  0  0  0  0
    2.9791   -1.0975   -0.0531 O   0  0  0  0  0  0  0  0  0  0  0  0
    2.6138    0.9342    2.5890 C   0  0  0  0  0  0  0  0  0  0  0  0
    4.2873   -1.5343    1.8414 H   0  0  0  0  0  0  0  0  0  0  0  0
    1.5823   -0.9516    2.7751 H   0  0  0  0  0  0  0  0  0  0  0  0
    3.4563    1.3662    2.0396 H   0  0  0  0  0  0  0  0  0  0  0  0
    1.7113    1.5045    2.3498 H   0  0  0  0  0  0  0  0  0  0  0  0
    2.8095    1.0354    3.6615 H   0  0  0  0  0  0  0  0  0  0  0  0
    0.8602   -0.3622    0.2349 N   0  0  0  0  0  0  0  0  0  0  0  0
    0.3281   -0.6803   -1.1131 C   0  0  2  0  0  0  0  0  0  0  0  0
    0.2975   -2.2067   -1.3560 C   0  0  0  0  0  0  0  0  0  0  0  0
   -0.2319   -2.9165   -0.5087 O   0  0  0  0  0  0  0  0  0  0  0  0
    1.0163    0.0723   -2.2716 C   0  0  0  0  0  0  0  0  0  0  0  0
    2.3828   -0.3020   -2.4528 O   0  0  0  0  0  0  0  0  0  0  0  0
    0.1711   -0.1640    0.9565 H   0  0  0  0  0  0  0  0  0  0  0  0
   -0.7184   -0.3619   -1.1303 H   0  0  0  0  0  0  0  0  0  0  0  0
    0.9742    1.1455   -2.0587 H   0  0  0  0  0  0  0  0  0  0  0  0
    0.4680   -0.0945   -3.2050 H   0  0  0  0  0  0  0  0  0  0  0  0
    2.7984   -0.5083   -1.5748 H   0  0  0  0  0  0  0  0  0  0  0  0
    0.7449   -2.7561   -2.5468 N   0  0  0  0  0  0  0  0  0  0  0  0
    0.8988   -4.1920   -2.8601 C   0  0  2  0  0  0  0  0  0  0  0  0
   -0.4176   -4.9844   -3.0391 C   0  0  0  0  0  0  0  0  0  0  0  0
   -0.5363   -5.7424   -3.9931 O   0  0  0  0  0  0  0  0  0  0  0  0
    1.8119   -4.8780   -1.8348 C   0  0  0  0  0  0  0  0  0  0  0  0
    1.2991   -2.1081   -3.1090 H   0  0  0  0  0  0  0  0  0  0  0  0
    1.4093   -4.2456   -3.8272 H   0  0  0  0  0  0  0  0  0  0  0  0
    1.3190   -4.9672   -0.8623 H   0  0  0  0  0  0  0  0  0  0  0  0
    2.0708   -5.8842   -2.1791 H   0  0  0  0  0  0  0  0  0  0  0  0
    2.7367   -4.3072   -1.7060 H   0  0  0  0  0  0  0  0  0  0  0  0
   -1.4523   -4.8838   -2.1305 N   0  0  0  0  0  0  0  0  0  0  0  0
   -2.6749   -5.6728   -2.1938 C   0  0  0  0  0  0  0  0  0  0  0  0
   -1.2774   -4.2896   -1.3162 H   0  0  0  0  0  0  0  0  0  0  0  0
   -2.4495   -6.7374   -2.0734 H   0  0  0  0  0  0  0  0  0  0  0  0
   -3.3599   -5.3702   -1.3962 H   0  0  0  0  0  0  0  0  0  0  0  0
   -3.1783   -5.5251   -3.1550 H   0  0  0  0  0  0  0  0  0  0  0  0
  1  2  2  0  0  0  0
  1  3  1  0  0  0  0
  1  7  1  0  0  0  0
  3  4  1  0  0  0  0
  3  5  1  0  0  0  0
  3  6  1  0  0  0  0
  7  8  1  0  0  0  0
  7 12  1  0  0  0  0
  8  9  1  0  0  0  0
  8 11  1  0  0  0  0
  8 13  1  0  0  0  0
  9 10  2  0  0  0  0
  9 17  1  0  0  0  0
 11 14  1  0  0  0  0
 11 15  1  0  0  0  0
 11 16  1  0  0  0  0
 17 18  1  0  0  0  0
 17 23  1  0  0  0  0
 18 19  1  0  0  0  0
 18 21  1  0  0  0  0
 18 24  1  0  0  0  0
 19 20  2  0  0  0  0
 19 28  1  0  0  0  0
 21 22  1  0  0  0  0
 21 25  1  0  0  0  0
 21 26  1  0  0  0  0
 22 27  1  0  0  0  0
 28 29  1  0  0  0  0
 28 33  1  0  0  0  0
 29 30  1  0  0  0  0
 29 32  1  0  0  0  0
 29 34  1  0  0  0  0
 30 31  2  0  0  0  0
 30 38  1  0  0  0  0
 32 35  1  0  0  0  0
 32 36  1  0  0  0  0
 32 37  1  0  0  0  0
 38 39  1  0  0  0  0
 38 40  1  0  0  0  0
 39 41  1  0  0  0  0
 39 42  1  0  0  0  0
 39 43  1  0  0  0  0
M  END
$$$$

  -OEChem-05262217303D

 43 42  0     1  0  0  0  0  0999 V2000
    3.8581   -1.7868    3.8800 C   0  0  0  0  0  0  0  0  0  0  0  0
    3.0526   -1.5709    4.7712 O   0  0  0  0  0  0  0  0  0  0  0  0
    5.0851   -2.6375    4.1485 C   0  0  0  0  0  0  0  0  0  0  0  0
    5.9905   -2.0655    3.9316 H   0  0  0  0  0  0  0  0  0  0  0  0
    5.1073   -2.9471    5.1974 H   0  0  0  0  0  0  0  0  0  0  0  0
    5.0661   -3.5300    3.5182 H   0  0  0  0  0  0  0  0  0  0  0  0
    3.6502   -1.2576    2.6237 N   0  0  0  0  0  0  0  0  0  0  0  0
    2.4432   -0.5214    2.2254 C   0  0  2  0  0  0  0  0  0  0  0  0
    2.1212   -0.7108    0.7284 C   0  0  0  0  0  0  0  0  0  0  0  0
    2.9810   -1.1388   -0.0346 O   0  0  0  0  0  0  0  0  0  0  0  0
    2.6565    0.9619    2.5441 C   0  0  0  0  0  0  0  0  0  0  0  0
    4.2888   -1.5430    1.8826 H   0  0  0  0  0  0  0  0  0  0  0  0
    1.5831   -0.8929    2.7935 H   0  0  0  0  0  0  0  0  0  0  0  0
    3.5107    1.3553    1.9834 H   0  0  0  0  0  0  0  0  0  0  0  0
    1.7683    1.5446    2.2821 H   0  0  0  0  0  0  0  0  0  0  0  0
    2.8510    1.0952    3.6132 H   0  0  0  0  0  0  0  0  0  0  0  0
    0.8684   -0.3832    0.2375 N   0  0  0  0  0  0  0  0  0  0  0  0
    0.3378   -0.7056   -1.1094 C   0  0  2  0  0  0  0  0  0  0  0  0
    0.3012   -2.2300   -1.3544 C   0  0  0  0  0  0  0  0  0  0  0  0
   -0.3979   -2.9152   -0.6179 O   0  0  0  0  0  0  0  0  0  0  0  0
    1.0334    0.0532   -2.2599 C   0  0  0  0  0  0  0  0  0  0  0  0
    2.4045   -0.3145   -2.4353 O   0  0  0  0  0  0  0  0  0  0  0  0
    0.1816   -0.1496    0.9507 H   0  0  0  0  0  0  0  0  0  0  0  0
   -0.7078   -0.3845   -1.1299 H   0  0  0  0  0  0  0  0  0  0  0  0
    0.9846    1.1257   -2.0461 H   0  0  0  0  0  0  0  0  0  0  0  0
    0.4924   -0.1186   -3.1966 H   0  0  0  0  0  0  0  0  0  0  0  0
    2.8203   -0.5069   -1.5548 H   0  0  0  0  0  0  0  0  0  0  0  0
    1.0111   -2.8134   -2.3909 N   0  0  0  0  0  0  0  0  0  0  0  0
    1.2406   -4.2554   -2.6164 C   0  0  2  0  0  0  0  0  0  0  0  0
    0.0019   -5.0681   -3.0605 C   0  0  0  0  0  0  0  0  0  0  0  0
    0.1096   -5.8765   -3.9735 O   0  0  0  0  0  0  0  0  0  0  0  0
    1.9034   -4.8971   -1.3896 C   0  0  0  0  0  0  0  0  0  0  0  0
    1.6474   -2.1675   -2.8643 H   0  0  0  0  0  0  0  0  0  0  0  0
    1.9563   -4.3313   -3.4416 H   0  0  0  0  0  0  0  0  0  0  0  0
    1.2067   -4.9557   -0.5484 H   0  0  0  0  0  0  0  0  0  0  0  0
    2.2328   -5.9125   -1.6307 H   0  0  0  0  0  0  0  0  0  0  0  0
    2.7763   -4.3139   -1.0801 H   0  0  0  0  0  0  0  0  0  0  0  0
   -1.2175   -4.9304   -2.4281 N   0  0  0  0  0  0  0  0  0  0  0  0
   -2.3911   -5.7358   -2.7357 C   0  0  0  0  0  0  0  0  0  0  0  0
   -1.2355   -4.3015   -1.6215 H   0  0  0  0  0  0  0  0  0  0  0  0
   -2.1950   -6.7928   -2.5277 H   0  0  0  0  0  0  0  0  0  0  0  0
   -3.2398   -5.4134   -2.1248 H   0  0  0  0  0  0  0  0  0  0  0  0
   -2.6644   -5.6283   -3.7908 H   0  0  0  0  0  0  0  0  0  0  0  0
  1  2  2  0  0  0  0
  1  3  1  0  0  0  0
  1  7  1  0  0  0  0
  3  4  1  0  0  0  0
  3  5  1  0  0  0  0
  3  6  1  0  0  0  0
  7  8  1  0  0  0  0
  7 12  1  0  0  0  0
  8  9  1  0  0  0  0
  8 11  1  0  0  0  0
  8 13  1  0  0  0  0
  9 10  2  0  0  0  0
  9 17  1  0  0  0  0
 11 14  1  0  0  0  0
 11 15  1  0  0  0  0
 11 16  1  0  0  0  0
 17 18  1  0  0  0  0
 17 23  1  0  0  0  0
 18 19  1  0  0  0  0
 18 21  1  0  0  0  0
 18 24  1  0  0  0  0
 19 20  2  0  0  0  0
 19 28  1  0  0  0  0
 21 22  1  0  0  0  0
 21 25  1  0  0  0  0
 21 26  1  0  0  0  0
 22 27  1  0  0  0  0
 28 29  1  0  0  0  0
 28 33  1  0  0  0  0
 29 30  1  0  0  0  0
 29 32  1  0  0  0  0
 29 34  1  0  0  0  0
 30 31  2  0  0  0  0
 30 38  1  0  0  0  0
 32 35  1  0  0  0  0
 32 36  1  0  0  0  0
 32 37  1  0  0  0  0
 38 39  1  0  0  0  0
 38 40  1  0  0  0  0
 39 41  1  0  0  0  0
 39 42  1  0  0  0  0
 39 43  1  0  0  0  0
M  END
$$$$

  -OEChem-05262217303D

 43 42  0     1  0  0  0  0  0999 V2000
    3.8598   -1.7112    3.9322 C   0  0  0  0  0  0  0  0  0  0  0  0
    3.0476   -1.4710    4.8109 O   0  0  0  0  0  0  0  0  0  0  0  0
    5.0716   -2.5745    4.2280 C   0  0  0  0  0  0  0  0  0  0  0  0
    5.9866   -1.9971    4.0750 H   0  0  0  0  0  0  0  0  0  0  0  0
    5.0431   -2.9215    5.2649 H   0  0  0  0  0  0  0  0  0  0  0  0
    5.0824   -3.4443    3.5665 H   0  0  0  0  0  0  0  0  0  0  0  0
    3.6722   -1.1986    2.6658 N   0  0  0  0  0  0  0  0  0  0  0  0
    2.4780   -0.4548    2.2440 C   0  0  2  0  0  0  0  0  0  0  0  0
    2.1387   -0.7064    0.7603 C   0  0  0  0  0  0  0  0  0  0  0  0
    3.0003   -1.1349   -0.0002 O   0  0  0  0  0  0  0  0  0  0  0  0
    2.7296    1.0359    2.4903 C   0  0  0  0  0  0  0  0  0  0  0  0
    4.3172   -1.4999    1.9368 H   0  0  0  0  0  0  0  0  0  0  0  0
    1.6150   -0.7781    2.8365 H   0  0  0  0  0  0  0  0  0  0  0  0
    3.5821    1.3839    1.8979 H   0  0  0  0  0  0  0  0  0  0  0  0
    1.8500    1.6259    2.2158 H   0  0  0  0  0  0  0  0  0  0  0  0
    2.9460    1.2138    3.5487 H   0  0  0  0  0  0  0  0  0  0  0  0
    0.8730   -0.4226    0.2749 N   0  0  0  0  0  0  0  0  0  0  0  0
    0.3356   -0.7787   -1.0611 C   0  0  2  0  0  0  0  0  0  0  0  0
    0.3293   -2.3033   -1.3028 C   0  0  0  0  0  0  0  0  0  0  0  0
   -0.5074   -2.9746   -0.7121 O   0  0  0  0  0  0  0  0  0  0  0  0
    1.0010   -0.0036   -2.2191 C   0  0  0  0  0  0  0  0  0  0  0  0
    2.3836   -0.3260   -2.4007 O   0  0  0  0  0  0  0  0  0  0  0  0
    0.1895   -0.1725    0.9861 H   0  0  0  0  0  0  0  0  0  0  0  0
   -0.7177   -0.4825   -1.0724 H   0  0  0  0  0  0  0  0  0  0  0  0
    0.9154    1.0683   -2.0142 H   0  0  0  0  0  0  0  0  0  0  0  0
    0.4627   -0.2025   -3.1519 H   0  0  0  0  0  0  0  0  0  0  0  0
    2.8147   -0.4775   -1.5205 H   0  0  0  0  0  0  0  0  0  0  0  0
    1.2554   -2.9110   -2.1331 N   0  0  0  0  0  0  0  0  0  0  0  0
    1.5156   -4.3562   -2.2908 C   0  0  2  0  0  0  0  0  0  0  0  0
    0.3982   -5.1596   -2.9962 C   0  0  0  0  0  0  0  0  0  0  0  0
    0.6983   -5.9877   -3.8466 O   0  0  0  0  0  0  0  0  0  0  0  0
    1.8798   -4.9923   -0.9422 C   0  0  0  0  0  0  0  0  0  0  0  0
    1.9427   -2.2666   -2.5308 H   0  0  0  0  0  0  0  0  0  0  0  0
    2.3970   -4.4466   -2.9342 H   0  0  0  0  0  0  0  0  0  0  0  0
    1.0171   -5.0196   -0.2703 H   0  0  0  0  0  0  0  0  0  0  0  0
    2.2262   -6.0194   -1.0940 H   0  0  0  0  0  0  0  0  0  0  0  0
    2.6805   -4.4244   -0.4588 H   0  0  0  0  0  0  0  0  0  0  0  0
   -0.9323   -4.9832   -2.6725 N   0  0  0  0  0  0  0  0  0  0  0  0
   -2.0228   -5.7515   -3.2563 C   0  0  0  0  0  0  0  0  0  0  0  0
   -1.1246   -4.3427   -1.8984 H   0  0  0  0  0  0  0  0  0  0  0  0
   -1.9244   -6.8112   -2.9998 H   0  0  0  0  0  0  0  0  0  0  0  0
   -2.9835   -5.3898   -2.8778 H   0  0  0  0  0  0  0  0  0  0  0  0
   -2.0216   -5.6506   -4.3467 H   0  0  0  0  0  0  0  0  0  0  0  0
  1  2  2  0  0  0  0
  1  3  1  0  0  0  0
  1  7  1  0  0  0  0
  3  4  1  0  0  0  0
  3  5  1  0  0  0  0
  3  6  1  0  0  0  0
  7  8  1  0  0  0  0
  7 12  1  0  0  0  0
  8  9  1  0  0  0  0
  8 11  1  0  0  0  0
  8 13  1  0  0  0  0
  9 10  2  0  0  0  0
  9 17  1  0  0  0  0
 11 14  1  0  0  0  0
 11 15  1  0  0  0  0
 11 16  1  0  0  0  0
 17 18  1  0  0  0  0
 17 23  1  0  0  0  0
 18 19  1  0  0  0  0
 18 21  1  0  0  0  0
 18 24  1  0  0  0  0
 19 20  2  0  0  0  0
 19 28  1  0  0  0  0
 21 22  1  0  0  0  0
 21 25  1  0  0  0  0
 21 26  1  0  0  0  0
 22 27  1  0  0  0  0
 28 29  1  0  0  0  0
 28 33  1  0  0  0  0
 29 30  1  0  0  0  0
 29 32  1  0  0  0  0
 29 34  1  0  0  0  0
 30 31  2  0  0  0  0
 30 38  1  0  0  0  0
 32 35  1  0  0  0  0
 32 36  1  0  0  0  0
 32 37  1  0  0  0  0
 38 39  1  0  0  0  0
 38 40  1  0  0  0  0
 39 41  1  0  0  0  0
 39 42  1  0  0  0  0
 39 43  1  0  0  0  0
M  END
$$$$

  -OEChem-05262217303D

 43 42  0     1  0  0  0  0  0999 V2000
    3.7861   -1.4380    4.1070 C   0  0  0  0  0  0  0  0  0  0  0  0
    2.8424   -1.2559    4.8594 O   0  0  0  0  0  0  0  0  0  0  0  0
    4.9182   -2.3599    4.5194 C   0  0  0  0  0  0  0  0  0  0  0  0
    5.8702   -1.8250    4.4768 H   0  0  0  0  0  0  0  0  0  0  0  0
    4.7610   -2.7171    5.5411 H   0  0  0  0  0  0  0  0  0  0  0  0
    4.9612   -3.2211    3.8480 H   0  0  0  0  0  0  0  0  0  0  0  0
    3.8251   -0.8195    2.8744 N   0  0  0  0  0  0  0  0  0  0  0  0
    2.6853   -0.1070    2.2784 C   0  0  2  0  0  0  0  0  0  0  0  0
    2.1413   -0.8316    1.0296 C   0  0  0  0  0  0  0  0  0  0  0  0
    2.8775   -1.5765    0.3872 O   0  0  0  0  0  0  0  0  0  0  0  0
    3.1586    1.3016    1.9131 C   0  0  0  0  0  0  0  0  0  0  0  0
    4.5355   -1.1588    2.2292 H   0  0  0  0  0  0  0  0  0  0  0  0
    1.8632   -0.0225    2.9968 H   0  0  0  0  0  0  0  0  0  0  0  0
    3.9695    1.2557    1.1788 H   0  0  0  0  0  0  0  0  0  0  0  0
    2.3366    1.8850    1.4868 H   0  0  0  0  0  0  0  0  0  0  0  0
    3.5241    1.8203    2.8052 H   0  0  0  0  0  0  0  0  0  0  0  0
    0.8247   -0.6438    0.6368 N   0  0  0  0  0  0  0  0  0  0  0  0
    0.2609   -1.0695   -0.6614 C   0  0  2  0  0  0  0  0  0  0  0  0
    0.3530   -2.5886   -0.9151 C   0  0  0  0  0  0  0  0  0  0  0  0
   -0.6543   -3.2683   -0.7628 O   0  0  0  0  0  0  0  0  0  0  0  0
    0.7205   -0.1973   -1.8491 C   0  0  0  0  0  0  0  0  0  0  0  0
    2.1163   -0.2763   -2.1536 O   0  0  0  0  0  0  0  0  0  0  0  0
    0.2714   -0.0162    1.2136 H   0  0  0  0  0  0  0  0  0  0  0  0
   -0.8152   -0.8837   -0.5853 H   0  0  0  0  0  0  0  0  0  0  0  0
    0.4796    0.8461   -1.6215 H   0  0  0  0  0  0  0  0  0  0  0  0
    0.1490   -0.4768   -2.7408 H   0  0  0  0  0  0  0  0  0  0  0  0
    2.3290   -1.1053   -2.6170 H   0  0  0  0  0  0  0  0  0  0  0  0
    1.4693   -3.1197   -1.5379 N   0  0  0  0  0  0  0  0  0  0  0  0
    1.7039   -4.5426   -1.8601 C   0  0  2  0  0  0  0  0  0  0  0  0
    0.8345   -5.1183   -3.0018 C   0  0  0  0  0  0  0  0  0  0  0  0
    1.3715   -5.7419   -3.9079 O   0  0  0  0  0  0  0  0  0  0  0  0
    1.6026   -5.4170   -0.6026 C   0  0  0  0  0  0  0  0  0  0  0  0
    2.3044   -2.5800   -1.2920 H   0  0  0  0  0  0  0  0  0  0  0  0
    2.7379   -4.6133   -2.2129 H   0  0  0  0  0  0  0  0  0  0  0  0
    0.5711   -5.4811   -0.2447 H   0  0  0  0  0  0  0  0  0  0  0  0
    1.9488   -6.4313   -0.8242 H   0  0  0  0  0  0  0  0  0  0  0  0
    2.2249   -5.0058    0.1980 H   0  0  0  0  0  0  0  0  0  0  0  0
   -0.5374   -4.9668   -3.0134 N   0  0  0  0  0  0  0  0  0  0  0  0
   -1.4161   -5.5542   -4.0152 C   0  0  0  0  0  0  0  0  0  0  0  0
   -0.9420   -4.4713   -2.2146 H   0  0  0  0  0  0  0  0  0  0  0  0
   -1.3809   -6.6474   -3.9604 H   0  0  0  0  0  0  0  0  0  0  0  0
   -2.4479   -5.2308   -3.8478 H   0  0  0  0  0  0  0  0  0  0  0  0
   -1.1158   -5.2407   -5.0206 H   0  0  0  0  0  0  0  0  0  0  0  0
  1  2  2  0  0  0  0
  1  3  1  0  0  0  0
  1  7  1  0  0  0  0
  3  4  1  0  0  0  0
  3  5  1  0  0  0  0
  3  6  1  0  0  0  0
  7  8  1  0  0  0  0
  7 12  1  0  0  0  0
  8  9  1  0  0  0  0
  8 11  1  0  0  0  0
  8 13  1  0  0  0  0
  9 10  2  0  0  0  0
  9 17  1  0  0  0  0
 11 14  1  0  0  0  0
 11 15  1  0  0  0  0
 11 16  1  0  0  0  0
 17 18  1  0  0  0  0
 17 23  1  0  0  0  0
 18 19  1  0  0  0  0
 18 21  1  0  0  0  0
 18 24  1  0  0  0  0
 19 20  2  0  0  0  0
 19 28  1  0  0  0  0
 21 22  1  0  0  0  0
 21 25  1  0  0  0  0
 21 26  1  0  0  0  0
 22 27  1  0  0  0  0
 28 29  1  0  0  0  0
 28 33  1  0  0  0  0
 29 30  1  0  0  0  0
 29 32  1  0  0  0  0
 29 34  1  0  0  0  0
 30 31  2  0  0  0  0
 30 38  1  0  0  0  0
 32 35  1  0  0  0  0
 32 36  1  0  0  0  0
 32 37  1  0  0  0  0
 38 39  1  0  0  0  0
 38 40  1  0  0  0  0
 39 41  1  0  0  0  0
 39 42  1  0  0  0  0
 39 43  1  0  0  0  0
M  END
$$$$

  -OEChem-05262217303D

 43 42  0     1  0  0  0  0  0999 V2000
    3.5235   -1.4571    4.0072 C   0  0  0  0  0  0  0  0  0  0  0  0
    2.3892   -1.4665    4.4593 O   0  0  0  0  0  0  0  0  0  0  0  0
    4.5724   -2.4053    4.5572 C   0  0  0  0  0  0  0  0  0  0  0  0
    5.4133   -1.8378    4.9633 H   0  0  0  0  0  0  0  0  0  0  0  0
    4.1444   -3.0198    5.3544 H   0  0  0  0  0  0  0  0  0  0  0  0
    4.9347   -3.0625    3.7628 H   0  0  0  0  0  0  0  0  0  0  0  0
    3.8416   -0.6108    2.9650 N   0  0  0  0  0  0  0  0  0  0  0  0
    2.8180    0.1236    2.2088 C   0  0  2  0  0  0  0  0  0  0  0  0
    2.2497   -0.7128    1.0430 C   0  0  0  0  0  0  0  0  0  0  0  0
    3.0002   -1.4393    0.3987 O   0  0  0  0  0  0  0  0  0  0  0  0
    3.4534    1.4104    1.6776 C   0  0  0  0  0  0  0  0  0  0  0  0
    4.7179   -0.8072    2.4883 H   0  0  0  0  0  0  0  0  0  0  0  0
    1.9904    0.4011    2.8706 H   0  0  0  0  0  0  0  0  0  0  0  0
    4.2856    1.1793    1.0046 H   0  0  0  0  0  0  0  0  0  0  0  0
    2.7153    1.9996    1.1247 H   0  0  0  0  0  0  0  0  0  0  0  0
    3.8313    2.0180    2.5056 H   0  0  0  0  0  0  0  0  0  0  0  0
    0.9050   -0.6219    0.7172 N   0  0  0  0  0  0  0  0  0  0  0  0
    0.2603   -1.1434   -0.5093 C   0  0  2  0  0  0  0  0  0  0  0  0
    0.3748   -2.6656   -0.7368 C   0  0  0  0  0  0  0  0  0  0  0  0
   -0.6546   -3.3285   -0.7517 O   0  0  0  0  0  0  0  0  0  0  0  0
    0.6110   -0.3294   -1.7708 C   0  0  0  0  0  0  0  0  0  0  0  0
    1.9868   -0.3972   -2.1576 O   0  0  0  0  0  0  0  0  0  0  0  0
    0.3442   -0.0345    1.3286 H   0  0  0  0  0  0  0  0  0  0  0  0
   -0.8119   -0.9804   -0.3602 H   0  0  0  0  0  0  0  0  0  0  0  0
    0.3536    0.7196   -1.5927 H   0  0  0  0  0  0  0  0  0  0  0  0
   -0.0062   -0.6808   -2.6046 H   0  0  0  0  0  0  0  0  0  0  0  0
    2.2376   -1.3008   -2.4202 H   0  0  0  0  0  0  0  0  0  0  0  0
    1.5668   -3.2299   -1.1579 N   0  0  0  0  0  0  0  0  0  0  0  0
    1.8253   -4.6548   -1.4521 C   0  0  2  0  0  0  0  0  0  0  0  0
    1.1521   -5.1935   -2.7354 C   0  0  0  0  0  0  0  0  0  0  0  0
    1.8236   -5.8059   -3.5554 O   0  0  0  0  0  0  0  0  0  0  0  0
    1.4877   -5.5423   -0.2461 C   0  0  0  0  0  0  0  0  0  0  0  0
    2.3779   -2.6723   -0.8686 H   0  0  0  0  0  0  0  0  0  0  0  0
    2.9032   -4.7459   -1.6220 H   0  0  0  0  0  0  0  0  0  0  0  0
    0.4082   -5.5864   -0.0743 H   0  0  0  0  0  0  0  0  0  0  0  0
    1.8458   -6.5618   -0.4215 H   0  0  0  0  0  0  0  0  0  0  0  0
    1.9692   -5.1561    0.6574 H   0  0  0  0  0  0  0  0  0  0  0  0
   -0.1947   -5.0083   -2.9749 N   0  0  0  0  0  0  0  0  0  0  0  0
   -0.8955   -5.5204   -4.1439 C   0  0  0  0  0  0  0  0  0  0  0  0
   -0.7172   -4.5089   -2.2503 H   0  0  0  0  0  0  0  0  0  0  0  0
   -0.8301   -6.6128   -4.1812 H   0  0  0  0  0  0  0  0  0  0  0  0
   -1.9519   -5.2378   -4.1038 H   0  0  0  0  0  0  0  0  0  0  0  0
   -0.4612   -5.1087   -5.0609 H   0  0  0  0  0  0  0  0  0  0  0  0
  1  2  2  0  0  0  0
  1  3  1  0  0  0  0
  1  7  1  0  0  0  0
  3  4  1  0  0  0  0
  3  5  1  0  0  0  0
  3  6  1  0  0  0  0
  7  8  1  0  0  0  0
  7 12  1  0  0  0  0
  8  9  1  0  0  0  0
  8 11  1  0  0  0  0
  8 13  1  0  0  0  0
  9 10  2  0  0  0  0
  9 17  1  0  0  0  0
 11 14  1  0  0  0  0
 11 15  1  0  0  0  0
 11 16  1  0  0  0  0
 17 18  1  0  0  0  0
 17 23  1  0  0  0  0
 18 19  1  0  0  0  0
 18 21  1  0  0  0  0
 18 24  1  0  0  0  0
 19 20  2  0  0  0  0
 19 28  1  0  0  0  0
 21 22  1  0  0  0  0
 21 25  1  0  0  0  0
 21 26  1  0  0  0  0
 22 27  1  0  0  0  0
 28 29  1  0  0  0  0
 28 33  1  0  0  0  0
 29 30  1  0  0  0  0
 29 32  1  0  0  0  0
 29 34  1  0  0  0  0
 30 31  2  0  0  0  0
 30 38  1  0  0  0  0
 32 35  1  0  0  0  0
 32 36  1  0  0  0  0
 32 37  1  0  0  0  0
 38 39  1  0  0  0  0
 38 40  1  0  0  0  0
 39 41  1  0  0  0  0
 39 42  1  0  0  0  0
 39 43  1  0  0  0  0
M  END
$$$$

  -OEChem-05262217303D

 43 42  0     1  0  0  0  0  0999 V2000
    2.4368   -0.5673    4.0750 C   0  0  0  0  0  0  0  0  0  0  0  0
    1.3436   -0.1273    3.7516 O   0  0  0  0  0  0  0  0  0  0  0  0
    2.6321   -1.2168    5.4314 C   0  0  0  0  0  0  0  0  0  0  0  0
    3.4978   -0.7804    5.9354 H   0  0  0  0  0  0  0  0  0  0  0  0
    1.7476   -1.0590    6.0552 H   0  0  0  0  0  0  0  0  0  0  0  0
    2.7919   -2.2913    5.3116 H   0  0  0  0  0  0  0  0  0  0  0  0
    3.4771   -0.5221    3.1692 N   0  0  0  0  0  0  0  0  0  0  0  0
    3.3974    0.1283    1.8504 C   0  0  2  0  0  0  0  0  0  0  0  0
    2.6465   -0.7274    0.7987 C   0  0  0  0  0  0  0  0  0  0  0  0
    3.2027   -1.0997   -0.2277 O   0  0  0  0  0  0  0  0  0  0  0  0
    4.8310    0.4740    1.4271 C   0  0  0  0  0  0  0  0  0  0  0  0
    4.3630   -0.9289    3.4564 H   0  0  0  0  0  0  0  0  0  0  0  0
    2.8450    1.0699    1.9440 H   0  0  0  0  0  0  0  0  0  0  0  0
    5.4287   -0.4352    1.3077 H   0  0  0  0  0  0  0  0  0  0  0  0
    4.8251    1.0116    0.4733 H   0  0  0  0  0  0  0  0  0  0  0  0
    5.3079    1.1121    2.1772 H   0  0  0  0  0  0  0  0  0  0  0  0
    1.3374   -1.0959    1.0598 N   0  0  0  0  0  0  0  0  0  0  0  0
    0.3509   -1.7051    0.1388 C   0  0  2  0  0  0  0  0  0  0  0  0
    0.7091   -3.0702   -0.4858 C   0  0  0  0  0  0  0  0  0  0  0  0
   -0.1087   -3.9773   -0.3995 O   0  0  0  0  0  0  0  0  0  0  0  0
   -0.1406   -0.7169   -0.9351 C   0  0  0  0  0  0  0  0  0  0  0  0
    0.8740   -0.3078   -1.8588 O   0  0  0  0  0  0  0  0  0  0  0  0
    0.9831   -0.7375    1.9526 H   0  0  0  0  0  0  0  0  0  0  0  0
   -0.5244   -1.9175    0.7608 H   0  0  0  0  0  0  0  0  0  0  0  0
   -0.5410    0.1742   -0.4405 H   0  0  0  0  0  0  0  0  0  0  0  0
   -0.9621   -1.1780   -1.4941 H   0  0  0  0  0  0  0  0  0  0  0  0
    1.2789   -1.0699   -2.3097 H   0  0  0  0  0  0  0  0  0  0  0  0
    1.8322   -3.2384   -1.2775 N   0  0  0  0  0  0  0  0  0  0  0  0
    2.3108   -4.4835   -1.9135 C   0  0  2  0  0  0  0  0  0  0  0  0
    1.4495   -5.0018   -3.0886 C   0  0  0  0  0  0  0  0  0  0  0  0
    2.0013   -5.4199   -4.0983 O   0  0  0  0  0  0  0  0  0  0  0  0
    2.5279   -5.5873   -0.8694 C   0  0  0  0  0  0  0  0  0  0  0  0
    2.5164   -2.4812   -1.1763 H   0  0  0  0  0  0  0  0  0  0  0  0
    3.2912   -4.2542   -2.3443 H   0  0  0  0  0  0  0  0  0  0  0  0
    1.5761   -5.9401   -0.4616 H   0  0  0  0  0  0  0  0  0  0  0  0
    3.0388   -6.4400   -1.3277 H   0  0  0  0  0  0  0  0  0  0  0  0
    3.1451   -5.2154   -0.0461 H   0  0  0  0  0  0  0  0  0  0  0  0
    0.0710   -5.0280   -3.0175 N   0  0  0  0  0  0  0  0  0  0  0  0
   -0.7875   -5.5922   -4.0492 C   0  0  0  0  0  0  0  0  0  0  0  0
   -0.3343   -4.7657   -2.1154 H   0  0  0  0  0  0  0  0  0  0  0  0
   -0.5925   -6.6634   -4.1652 H   0  0  0  0  0  0  0  0  0  0  0  0
   -1.8389   -5.4570   -3.7781 H   0  0  0  0  0  0  0  0  0  0  0  0
   -0.6119   -5.0948   -5.0089 H   0  0  0  0  0  0  0  0  0  0  0  0
  1  2  2  0  0  0  0
  1  3  1  0  0  0  0
  1  7  1  0  0  0  0
  3  4  1  0  0  0  0
  3  5  1  0  0  0  0
  3  6  1  0  0  0  0
  7  8  1  0  0  0  0
  7 12  1  0  0  0  0
  8  9  1  0  0  0  0
  8 11  1  0  0  0  0
  8 13  1  0  0  0  0
  9 10  2  0  0  0  0
  9 17  1  0  0  0  0
 11 14  1  0  0  0  0
 11 15  1  0  0  0  0
 11 16  1  0  0  0  0
 17 18  1  0  0  0  0
 17 23  1  0  0  0  0
 18 19  1  0  0  0  0
 18 21  1  0  0  0  0
 18 24  1  0  0  0  0
 19 20  2  0  0  0  0
 19 28  1  0  0  0  0
 21 22  1  0  0  0  0
 21 25  1  0  0  0  0
 21 26  1  0  0  0  0
 22 27  1  0  0  0  0
 28 29  1  0  0  0  0
 28 33  1  0  0  0  0
 29 30  1  0  0  0  0
 29 32  1  0  0  0  0
 29 34  1  0  0  0  0
 30 31  2  0  0  0  0
 30 38  1  0  0  0  0
 32 35  1  0  0  0  0
 32 36  1  0  0  0  0
 32 37  1  0  0  0  0
 38 39  1  0  0  0  0
 38 40  1  0  0  0  0
 39 41  1  0  0  0  0
 39 42  1  0  0  0  0
 39 43  1  0  0  0  0
M  END
$$$$

  -OEChem-05262217303D

 43 42  0     1  0  0  0  0  0999 V2000
    3.7523   -0.8066    4.3281 C   0  0  0  0  0  0  0  0  0  0  0  0
    2.7109   -0.4511    4.8578 O   0  0  0  0  0  0  0  0  0  0  0  0
    4.7148   -1.7108    5.0742 C   0  0  0  0  0  0  0  0  0  0  0  0
    5.6914   -1.2281    5.1595 H   0  0  0  0  0  0  0  0  0  0  0  0
    4.3354   -1.9179    6.0787 H   0  0  0  0  0  0  0  0  0  0  0  0
    4.8279   -2.6565    4.5385 H   0  0  0  0  0  0  0  0  0  0  0  0
    4.0448   -0.4137    3.0385 N   0  0  0  0  0  0  0  0  0  0  0  0
    3.0531    0.2175    2.1562 C   0  0  2  0  0  0  0  0  0  0  0  0
    2.3210   -0.8131    1.2708 C   0  0  0  0  0  0  0  0  0  0  0  0
    2.9228   -1.8159    0.9063 O   0  0  0  0  0  0  0  0  0  0  0  0
    3.7858    1.2366    1.2811 C   0  0  0  0  0  0  0  0  0  0  0  0
    4.7995   -0.9230    2.5847 H   0  0  0  0  0  0  0  0  0  0  0  0
    2.3043    0.7535    2.7489 H   0  0  0  0  0  0  0  0  0  0  0  0
    4.5360    0.7389    0.6580 H   0  0  0  0  0  0  0  0  0  0  0  0
    3.0795    1.7531    0.6238 H   0  0  0  0  0  0  0  0  0  0  0  0
    4.2876    1.9826    1.9053 H   0  0  0  0  0  0  0  0  0  0  0  0
    1.0080   -0.5684    0.8958 N   0  0  0  0  0  0  0  0  0  0  0  0
    0.2310   -1.1808   -0.2130 C   0  0  2  0  0  0  0  0  0  0  0  0
    0.0066   -2.7077   -0.2249 C   0  0  0  0  0  0  0  0  0  0  0  0
   -1.0478   -3.1198   -0.6927 O   0  0  0  0  0  0  0  0  0  0  0  0
    0.7471   -0.7314   -1.5944 C   0  0  0  0  0  0  0  0  0  0  0  0
    2.0685   -1.1900   -1.8957 O   0  0  0  0  0  0  0  0  0  0  0  0
    0.6178    0.2812    1.2933 H   0  0  0  0  0  0  0  0  0  0  0  0
   -0.7785   -0.7693   -0.1205 H   0  0  0  0  0  0  0  0  0  0  0  0
    0.7451    0.3626   -1.6272 H   0  0  0  0  0  0  0  0  0  0  0  0
    0.0627   -1.0832   -2.3739 H   0  0  0  0  0  0  0  0  0  0  0  0
    2.0581   -2.1418   -2.1693 H   0  0  0  0  0  0  0  0  0  0  0  0
    1.0255   -3.6035    0.0408 N   0  0  0  0  0  0  0  0  0  0  0  0
    1.1575   -4.9093   -0.6241 C   0  0  2  0  0  0  0  0  0  0  0  0
    1.2046   -4.7583   -2.1656 C   0  0  0  0  0  0  0  0  0  0  0  0
    1.8072   -3.8074   -2.6590 O   0  0  0  0  0  0  0  0  0  0  0  0
    0.0902   -5.8997   -0.1271 C   0  0  0  0  0  0  0  0  0  0  0  0
    1.9031   -3.1351    0.2858 H   0  0  0  0  0  0  0  0  0  0  0  0
    2.1281   -5.3223   -0.3333 H   0  0  0  0  0  0  0  0  0  0  0  0
   -0.9040   -5.6361   -0.4994 H   0  0  0  0  0  0  0  0  0  0  0  0
    0.3264   -6.9135   -0.4635 H   0  0  0  0  0  0  0  0  0  0  0  0
    0.0596   -5.9000    0.9667 H   0  0  0  0  0  0  0  0  0  0  0  0
    0.6112   -5.6833   -3.0058 N   0  0  0  0  0  0  0  0  0  0  0  0
    0.5407   -5.5114   -4.4519 C   0  0  0  0  0  0  0  0  0  0  0  0
   -0.0015   -6.3650   -2.5684 H   0  0  0  0  0  0  0  0  0  0  0  0
    0.1100   -6.4031   -4.9179 H   0  0  0  0  0  0  0  0  0  0  0  0
   -0.0857   -4.6490   -4.7036 H   0  0  0  0  0  0  0  0  0  0  0  0
    1.5407   -5.3554   -4.8708 H   0  0  0  0  0  0  0  0  0  0  0  0
  1  2  2  0  0  0  0
  1  3  1  0  0  0  0
  1  7  1  0  0  0  0
  3  4  1  0  0  0  0
  3  5  1  0  0  0  0
  3  6  1  0  0  0  0
  7  8  1  0  0  0  0
  7 12  1  0  0  0  0
  8  9  1  0  0  0  0
  8 11  1  0  0  0  0
  8 13  1  0  0  0  0
  9 10  2  0  0  0  0
  9 17  1  0  0  0  0
 11 14  1  0  0  0  0
 11 15  1  0  0  0  0
 11 16  1  0  0  0  0
 17 18  1  0  0  0  0
 17 23  1  0  0  0  0
 18 19  1  0  0  0  0
 18 21  1  0  0  0  0
 18 24  1  0  0  0  0
 19 20  2  0  0  0  0
 19 28  1  0  0  0  0
 21 22  1  0  0  0  0
 21 25  1  0  0  0  0
 21 26  1  0  0  0  0
 22 27  1  0  0  0  0
 28 29  1  0  0  0  0
 28 33  1  0  0  0  0
 29 30  1  0  0  0  0
 29 32  1  0  0  0  0
 29 34  1  0  0  0  0
 30 31  2  0  0  0  0
 30 38  1  0  0  0  0
 32 35  1  0  0  0  0
 32 36  1  0  0  0  0
 32 37  1  0  0  0  0
 38 39  1  0  0  0  0
 38 40  1  0  0  0  0
 39 41  1  0  0  0  0
 39 42  1  0  0  0  0
 39 43  1  0  0  0  0
M  END
$$$$

  -OEChem-05262217303D

 43 42  0     1  0  0  0  0  0999 V2000
    3.7900   -0.8750    4.3235 C   0  0  0  0  0  0  0  0  0  0  0  0
    2.7868   -0.4609    4.8833 O   0  0  0  0  0  0  0  0  0  0  0  0
    4.7270   -1.8242    5.0464 C   0  0  0  0  0  0  0  0  0  0  0  0
    5.7420   -1.4197    5.0456 H   0  0  0  0  0  0  0  0  0  0  0  0
    4.4023   -1.9588    6.0820 H   0  0  0  0  0  0  0  0  0  0  0  0
    4.7293   -2.7970    4.5486 H   0  0  0  0  0  0  0  0  0  0  0  0
    4.0629   -0.5048    3.0230 N   0  0  0  0  0  0  0  0  0  0  0  0
    3.0801    0.1740    2.1664 C   0  0  2  0  0  0  0  0  0  0  0  0
    2.2669   -0.8180    1.3076 C   0  0  0  0  0  0  0  0  0  0  0  0
    2.7668   -1.8953    1.0081 O   0  0  0  0  0  0  0  0  0  0  0  0
    3.8430    1.1461    1.2639 C   0  0  0  0  0  0  0  0  0  0  0  0
    4.7718   -1.0597    2.5495 H   0  0  0  0  0  0  0  0  0  0  0  0
    2.3791    0.7517    2.7780 H   0  0  0  0  0  0  0  0  0  0  0  0
    4.5427    0.6030    0.6198 H   0  0  0  0  0  0  0  0  0  0  0  0
    3.1486    1.7029    0.6269 H   0  0  0  0  0  0  0  0  0  0  0  0
    4.4083    1.8620    1.8687 H   0  0  0  0  0  0  0  0  0  0  0  0
    0.9909   -0.4659    0.8916 N   0  0  0  0  0  0  0  0  0  0  0  0
    0.2089   -1.0133   -0.2484 C   0  0  2  0  0  0  0  0  0  0  0  0
   -0.1445   -2.5151   -0.2969 C   0  0  0  0  0  0  0  0  0  0  0  0
   -1.1157   -2.8461   -0.9663 O   0  0  0  0  0  0  0  0  0  0  0  0
    0.8427   -0.6071   -1.5943 C   0  0  0  0  0  0  0  0  0  0  0  0
    2.1341   -1.1844   -1.8192 O   0  0  0  0  0  0  0  0  0  0  0  0
    0.6864    0.4400    1.2356 H   0  0  0  0  0  0  0  0  0  0  0  0
   -0.7653   -0.5177   -0.2034 H   0  0  0  0  0  0  0  0  0  0  0  0
    0.9406    0.4827   -1.6222 H   0  0  0  0  0  0  0  0  0  0  0  0
    0.1769   -0.8955   -2.4148 H   0  0  0  0  0  0  0  0  0  0  0  0
    2.0774   -2.1637   -1.9586 H   0  0  0  0  0  0  0  0  0  0  0  0
    0.6564   -3.4914    0.2654 N   0  0  0  0  0  0  0  0  0  0  0  0
    0.7807   -4.8441   -0.3018 C   0  0  2  0  0  0  0  0  0  0  0  0
    1.1845   -4.8138   -1.7997 C   0  0  0  0  0  0  0  0  0  0  0  0
    1.8725   -3.8910   -2.2321 O   0  0  0  0  0  0  0  0  0  0  0  0
   -0.4805   -5.6792   -0.0221 C   0  0  0  0  0  0  0  0  0  0  0  0
    1.5191   -3.1011    0.6533 H   0  0  0  0  0  0  0  0  0  0  0  0
    1.6062   -5.3351    0.2220 H   0  0  0  0  0  0  0  0  0  0  0  0
   -1.3185   -5.3556   -0.6466 H   0  0  0  0  0  0  0  0  0  0  0  0
   -0.2894   -6.7371   -0.2240 H   0  0  0  0  0  0  0  0  0  0  0  0
   -0.7722   -5.5784    1.0278 H   0  0  0  0  0  0  0  0  0  0  0  0
    0.8397   -5.8430   -2.6575 N   0  0  0  0  0  0  0  0  0  0  0  0
    1.1415   -5.8252   -4.0838 C   0  0  0  0  0  0  0  0  0  0  0  0
    0.1776   -6.5285   -2.3075 H   0  0  0  0  0  0  0  0  0  0  0  0
    0.8298   -6.7657   -4.5481 H   0  0  0  0  0  0  0  0  0  0  0  0
    0.6138   -5.0018   -4.5765 H   0  0  0  0  0  0  0  0  0  0  0  0
    2.2175   -5.7024   -4.2476 H   0  0  0  0  0  0  0  0  0  0  0  0
  1  2  2  0  0  0  0
  1  3  1  0  0  0  0
  1  7  1  0  0  0  0
  3  4  1  0  0  0  0
  3  5  1  0  0  0  0
  3  6  1  0  0  0  0
  7  8  1  0  0  0  0
  7 12  1  0  0  0  0
  8  9  1  0  0  0  0
  8 11  1  0  0  0  0
  8 13  1  0  0  0  0
  9 10  2  0  0  0  0
  9 17  1  0  0  0  0
 11 14  1  0  0  0  0
 11 15  1  0  0  0  0
 11 16  1  0  0  0  0
 17 18  1  0  0  0  0
 17 23  1  0  0  0  0
 18 19  1  0  0  0  0
 18 21  1  0  0  0  0
 18 24  1  0  0  0  0
 19 20  2  0  0  0  0
 19 28  1  0  0  0  0
 21 22  1  0  0  0  0
 21 25  1  0  0  0  0
 21 26  1  0  0  0  0
 22 27  1  0  0  0  0
 28 29  1  0  0  0  0
 28 33  1  0  0  0  0
 29 30  1  0  0  0  0
 29 32  1  0  0  0  0
 29 34  1  0  0  0  0
 30 31  2  0  0  0  0
 30 38  1  0  0  0  0
 32 35  1  0  0  0  0
 32 36  1  0  0  0  0
 32 37  1  0  0  0  0
 38 39  1  0  0  0  0
 38 40  1  0  0  0  0
 39 41  1  0  0  0  0
 39 42  1  0  0  0  0
 39 43  1  0  0  0  0
M  END
$$$$

  -OEChem-05262217303D

 43 42  0     1  0  0  0  0  0999 V2000
    3.7801   -0.9399    4.3108 C   0  0  0  0  0  0  0  0  0  0  0  0
    2.8234   -0.4531    4.8932 O   0  0  0  0  0  0  0  0  0  0  0  0
    4.6720   -1.9423    5.0189 C   0  0  0  0  0  0  0  0  0  0  0  0
    5.7091   -1.5990    4.9991 H   0  0  0  0  0  0  0  0  0  0  0  0
    4.3594   -2.0564    6.0606 H   0  0  0  0  0  0  0  0  0  0  0  0
    4.6069   -2.9141    4.5232 H   0  0  0  0  0  0  0  0  0  0  0  0
    4.0386   -0.6048    2.9978 N   0  0  0  0  0  0  0  0  0  0  0  0
    3.0725    0.1168    2.1568 C   0  0  2  0  0  0  0  0  0  0  0  0
    2.1784   -0.8385    1.3377 C   0  0  0  0  0  0  0  0  0  0  0  0
    2.5640   -1.9790    1.1136 O   0  0  0  0  0  0  0  0  0  0  0  0
    3.8651    1.0283    1.2171 C   0  0  0  0  0  0  0  0  0  0  0  0
    4.6929   -1.2152    2.5139 H   0  0  0  0  0  0  0  0  0  0  0  0
    2.4230    0.7433    2.7768 H   0  0  0  0  0  0  0  0  0  0  0  0
    4.5123    0.4348    0.5624 H   0  0  0  0  0  0  0  0  0  0  0  0
    3.1871    1.6159    0.5905 H   0  0  0  0  0  0  0  0  0  0  0  0
    4.4886    1.7186    1.7939 H   0  0  0  0  0  0  0  0  0  0  0  0
    0.9395   -0.4004    0.8925 N   0  0  0  0  0  0  0  0  0  0  0  0
    0.1792   -0.8882   -0.2894 C   0  0  2  0  0  0  0  0  0  0  0  0
   -0.2482   -2.3675   -0.3860 C   0  0  0  0  0  0  0  0  0  0  0  0
   -1.0843   -2.6673   -1.2301 O   0  0  0  0  0  0  0  0  0  0  0  0
    0.9239   -0.5096   -1.5869 C   0  0  0  0  0  0  0  0  0  0  0  0
    2.1860   -1.1751   -1.7328 O   0  0  0  0  0  0  0  0  0  0  0  0
    0.7202    0.5470    1.1861 H   0  0  0  0  0  0  0  0  0  0  0  0
   -0.7665   -0.3393   -0.2923 H   0  0  0  0  0  0  0  0  0  0  0  0
    1.0948    0.5713   -1.5974 H   0  0  0  0  0  0  0  0  0  0  0  0
    0.2962   -0.7467   -2.4528 H   0  0  0  0  0  0  0  0  0  0  0  0
    2.0871   -2.1606   -1.7609 H   0  0  0  0  0  0  0  0  0  0  0  0
    0.2889   -3.3546    0.4188 N   0  0  0  0  0  0  0  0  0  0  0  0
    0.4360   -4.7407   -0.0572 C   0  0  2  0  0  0  0  0  0  0  0  0
    1.1427   -4.8278   -1.4391 C   0  0  0  0  0  0  0  0  0  0  0  0
    1.9088   -3.9385   -1.8064 O   0  0  0  0  0  0  0  0  0  0  0  0
   -0.9151   -5.4746   -0.0167 C   0  0  0  0  0  0  0  0  0  0  0  0
    1.0875   -3.0017    0.9522 H   0  0  0  0  0  0  0  0  0  0  0  0
    1.0962   -5.2522    0.6493 H   0  0  0  0  0  0  0  0  0  0  0  0
   -1.5810   -5.1237   -0.8107 H   0  0  0  0  0  0  0  0  0  0  0  0
   -0.7695   -6.5514   -0.1410 H   0  0  0  0  0  0  0  0  0  0  0  0
   -1.4061   -5.3051    0.9467 H   0  0  0  0  0  0  0  0  0  0  0  0
    0.9820   -5.9349   -2.2531 N   0  0  0  0  0  0  0  0  0  0  0  0
    1.5792   -6.0415   -3.5789 C   0  0  0  0  0  0  0  0  0  0  0  0
    0.2717   -6.6073   -1.9816 H   0  0  0  0  0  0  0  0  0  0  0  0
    1.3319   -7.0080   -4.0283 H   0  0  0  0  0  0  0  0  0  0  0  0
    1.2029   -5.2475   -4.2325 H   0  0  0  0  0  0  0  0  0  0  0  0
    2.6696   -5.9599   -3.5164 H   0  0  0  0  0  0  0  0  0  0  0  0
  1  2  2  0  0  0  0
  1  3  1  0  0  0  0
  1  7  1  0  0  0  0
  3  4  1  0  0  0  0
  3  5  1  0  0  0  0
  3  6  1  0  0  0  0
  7  8  1  0  0  0  0
  7 12  1  0  0  0  0
  8  9  1  0  0  0  0
  8 11  1  0  0  0  0
  8 13  1  0  0  0  0
  9 10  2  0  0  0  0
  9 17  1  0  0  0  0
 11 14  1  0  0  0  0
 11 15  1  0  0  0  0
 11 16  1  0  0  0  0
 17 18  1  0  0  0  0
 17 23  1  0  0  0  0
 18 19  1  0  0  0  0
 18 21  1  0  0  0  0
 18 24  1  0  0  0  0
 19 20  2  0  0  0  0
 19 28  1  0  0  0  0
 21 22  1  0  0  0  0
 21 25  1  0  0  0  0
 21 26  1  0  0  0  0
 22 27  1  0  0  0  0
 28 29  1  0  0  0  0
 28 33  1  0  0  0  0
 29 30  1  0  0  0  0
 29 32  1  0  0  0  0
 29 34  1  0  0  0  0
 30 31  2  0  0  0  0
 30 38  1  0  0  0  0
 32 35  1  0  0  0  0
 32 36  1  0  0  0  0
 32 37  1  0  0  0  0
 38 39  1  0  0  0  0
 38 40  1  0  0  0  0
 39 41  1  0  0  0  0
 39 42  1  0  0  0  0
 39 43  1  0  0  0  0
M  END
$$$$

  -OEChem-05262217303D

 43 42  0     1  0  0  0  0  0999 V2000
    3.5769   -0.7459    4.3472 C   0  0  0  0  0  0  0  0  0  0  0  0
    2.6039   -0.1078    4.7195 O   0  0  0  0  0  0  0  0  0  0  0  0
    4.2977   -1.6697    5.3108 C   0  0  0  0  0  0  0  0  0  0  0  0
    5.3577   -1.4088    5.3557 H   0  0  0  0  0  0  0  0  0  0  0  0
    3.8698   -1.5774    6.3128 H   0  0  0  0  0  0  0  0  0  0  0  0
    4.1982   -2.7061    4.9792 H   0  0  0  0  0  0  0  0  0  0  0  0
    4.0025   -0.6516    3.0386 N   0  0  0  0  0  0  0  0  0  0  0  0
    3.2045    0.0127    1.9998 C   0  0  2  0  0  0  0  0  0  0  0  0
    2.1638   -0.9358    1.3703 C   0  0  0  0  0  0  0  0  0  0  0  0
    2.4447   -2.1154    1.2013 O   0  0  0  0  0  0  0  0  0  0  0  0
    4.1628    0.5247    0.9223 C   0  0  0  0  0  0  0  0  0  0  0  0
    4.6512   -1.3716    2.7304 H   0  0  0  0  0  0  0  0  0  0  0  0
    2.6783    0.8735    2.4253 H   0  0  0  0  0  0  0  0  0  0  0  0
    4.7068   -0.3085    0.4649 H   0  0  0  0  0  0  0  0  0  0  0  0
    3.6088    1.0457    0.1349 H   0  0  0  0  0  0  0  0  0  0  0  0
    4.8871    1.2209    1.3561 H   0  0  0  0  0  0  0  0  0  0  0  0
    0.9000   -0.4665    1.0482 N   0  0  0  0  0  0  0  0  0  0  0  0
    0.0949   -0.8607   -0.1388 C   0  0  2  0  0  0  0  0  0  0  0  0
   -0.3058   -2.3355   -0.3441 C   0  0  0  0  0  0  0  0  0  0  0  0
   -1.0429   -2.6123   -1.2839 O   0  0  0  0  0  0  0  0  0  0  0  0
    0.8242   -0.3897   -1.4161 C   0  0  0  0  0  0  0  0  0  0  0  0
    2.0750   -1.0648   -1.6264 O   0  0  0  0  0  0  0  0  0  0  0  0
    0.7477    0.4876    1.3630 H   0  0  0  0  0  0  0  0  0  0  0  0
   -0.8541   -0.3210   -0.0759 H   0  0  0  0  0  0  0  0  0  0  0  0
    1.0111    0.6864   -1.3481 H   0  0  0  0  0  0  0  0  0  0  0  0
    0.1821   -0.5507   -2.2887 H   0  0  0  0  0  0  0  0  0  0  0  0
    1.9727   -2.0493   -1.6427 H   0  0  0  0  0  0  0  0  0  0  0  0
    0.0629   -3.3308    0.5404 N   0  0  0  0  0  0  0  0  0  0  0  0
    0.2591   -4.7128    0.0650 C   0  0  2  0  0  0  0  0  0  0  0  0
    1.0930   -4.8070   -1.2478 C   0  0  0  0  0  0  0  0  0  0  0  0
    1.8697   -3.9103   -1.5745 O   0  0  0  0  0  0  0  0  0  0  0  0
   -1.0961   -5.4331   -0.0322 C   0  0  0  0  0  0  0  0  0  0  0  0
    0.7993   -2.9953    1.1671 H   0  0  0  0  0  0  0  0  0  0  0  0
    0.8457   -5.2325    0.8283 H   0  0  0  0  0  0  0  0  0  0  0  0
   -1.6773   -5.0658   -0.8834 H   0  0  0  0  0  0  0  0  0  0  0  0
   -0.9505   -6.5103   -0.1524 H   0  0  0  0  0  0  0  0  0  0  0  0
   -1.6771   -5.2666    0.8803 H   0  0  0  0  0  0  0  0  0  0  0  0
    1.0181   -5.9315   -2.0514 N   0  0  0  0  0  0  0  0  0  0  0  0
    1.7007   -6.0384   -3.3353 C   0  0  0  0  0  0  0  0  0  0  0  0
    0.2987   -6.6108   -1.8251 H   0  0  0  0  0  0  0  0  0  0  0  0
    1.5315   -7.0274   -3.7722 H   0  0  0  0  0  0  0  0  0  0  0  0
    1.3255   -5.2813   -4.0322 H   0  0  0  0  0  0  0  0  0  0  0  0
    2.7797   -5.8983   -3.2104 H   0  0  0  0  0  0  0  0  0  0  0  0
  1  2  2  0  0  0  0
  1  3  1  0  0  0  0
  1  7  1  0  0  0  0
  3  4  1  0  0  0  0
  3  5  1  0  0  0  0
  3  6  1  0  0  0  0
  7  8  1  0  0  0  0
  7 12  1  0  0  0  0
  8  9  1  0  0  0  0
  8 11  1  0  0  0  0
  8 13  1  0  0  0  0
  9 10  2  0  0  0  0
  9 17  1  0  0  0  0
 11 14  1  0  0  0  0
 11 15  1  0  0  0  0
 11 16  1  0  0  0  0
 17 18  1  0  0  0  0
 17 23  1  0  0  0  0
 18 19  1  0  0  0  0
 18 21  1  0  0  0  0
 18 24  1  0  0  0  0
 19 20  2  0  0  0  0
 19 28  1  0  0  0  0
 21 22  1  0  0  0  0
 21 25  1  0  0  0  0
 21 26  1  0  0  0  0
 22 27  1  0  0  0  0
 28 29  1  0  0  0  0
 28 33  1  0  0  0  0
 29 30  1  0  0  0  0
 29 32  1  0  0  0  0
 29 34  1  0  0  0  0
 30 31  2  0  0  0  0
 30 38  1  0  0  0  0
 32 35  1  0  0  0  0
 32 36  1  0  0  0  0
 32 37  1  0  0  0  0
 38 39  1  0  0  0  0
 38 40  1  0  0  0  0
 39 41  1  0  0  0  0
 39 42  1  0  0  0  0
 39 43  1  0  0  0  0
M  END
$$$$

  -OEChem-05262217303D

 43 42  0     1  0  0  0  0  0999 V2000
    2.5983   -2.0318    3.1706 C   0  0  0  0  0  0  0  0  0  0  0  0
    1.4178   -1.7032    3.1694 O   0  0  0  0  0  0  0  0  0  0  0  0
    3.0333   -3.3533    3.7736 C   0  0  0  0  0  0  0  0  0  0  0  0
    3.7375   -3.1790    4.5904 H   0  0  0  0  0  0  0  0  0  0  0  0
    2.1676   -3.8956    4.1635 H   0  0  0  0  0  0  0  0  0  0  0  0
    3.5168   -3.9706    3.0116 H   0  0  0  0  0  0  0  0  0  0  0  0
    3.5157   -1.2176    2.5392 N   0  0  0  0  0  0  0  0  0  0  0  0
    3.0972   -0.0734    1.7180 C   0  0  2  0  0  0  0  0  0  0  0  0
    2.3029   -0.5396    0.4788 C   0  0  0  0  0  0  0  0  0  0  0  0
    2.8128   -1.3376   -0.2957 O   0  0  0  0  0  0  0  0  0  0  0  0
    4.3479    0.7078    1.3060 C   0  0  0  0  0  0  0  0  0  0  0  0
    4.4205   -1.6391    2.3426 H   0  0  0  0  0  0  0  0  0  0  0  0
    2.4605    0.5882    2.3146 H   0  0  0  0  0  0  0  0  0  0  0  0
    5.0176    0.0795    0.7094 H   0  0  0  0  0  0  0  0  0  0  0  0
    4.0707    1.5818    0.7082 H   0  0  0  0  0  0  0  0  0  0  0  0
    4.8900    1.0524    2.1919 H   0  0  0  0  0  0  0  0  0  0  0  0
    0.9835   -0.1502    0.2971 N   0  0  0  0  0  0  0  0  0  0  0  0
    0.0179   -0.7674   -0.6522 C   0  0  2  0  0  0  0  0  0  0  0  0
   -0.2454   -2.2713   -0.3914 C   0  0  0  0  0  0  0  0  0  0  0  0
   -0.7301   -2.9769   -1.2659 O   0  0  0  0  0  0  0  0  0  0  0  0
    0.3632   -0.4842   -2.1328 C   0  0  0  0  0  0  0  0  0  0  0  0
    1.5830   -1.0905   -2.5677 O   0  0  0  0  0  0  0  0  0  0  0  0
    0.5939    0.4055    1.0554 H   0  0  0  0  0  0  0  0  0  0  0  0
   -0.9477   -0.2854   -0.4768 H   0  0  0  0  0  0  0  0  0  0  0  0
    0.4484    0.5989   -2.2656 H   0  0  0  0  0  0  0  0  0  0  0  0
   -0.4527   -0.8265   -2.7780 H   0  0  0  0  0  0  0  0  0  0  0  0
    2.1935   -1.2166   -1.7975 H   0  0  0  0  0  0  0  0  0  0  0  0
    0.1336   -2.8482    0.8119 N   0  0  0  0  0  0  0  0  0  0  0  0
    0.2521   -4.2860    1.1148 C   0  0  2  0  0  0  0  0  0  0  0  0
    1.4156   -4.9509    0.3507 C   0  0  0  0  0  0  0  0  0  0  0  0
    2.3353   -5.4591    0.9821 O   0  0  0  0  0  0  0  0  0  0  0  0
   -1.0666   -5.0473    0.9183 C   0  0  0  0  0  0  0  0  0  0  0  0
    0.5568   -2.2129    1.4917 H   0  0  0  0  0  0  0  0  0  0  0  0
    0.4960   -4.3625    2.1791 H   0  0  0  0  0  0  0  0  0  0  0  0
   -1.3165   -5.1515   -0.1412 H   0  0  0  0  0  0  0  0  0  0  0  0
   -0.9840   -6.0514    1.3455 H   0  0  0  0  0  0  0  0  0  0  0  0
   -1.8851   -4.5229    1.4203 H   0  0  0  0  0  0  0  0  0  0  0  0
    1.4757   -4.8891   -1.0274 N   0  0  0  0  0  0  0  0  0  0  0  0
    2.6619   -5.2391   -1.7942 C   0  0  0  0  0  0  0  0  0  0  0  0
    0.7493   -4.3241   -1.4758 H   0  0  0  0  0  0  0  0  0  0  0  0
    2.4621   -5.1328   -2.8648 H   0  0  0  0  0  0  0  0  0  0  0  0
    3.4946   -4.5796   -1.5289 H   0  0  0  0  0  0  0  0  0  0  0  0
    2.9542   -6.2759   -1.5989 H   0  0  0  0  0  0  0  0  0  0  0  0
  1  2  2  0  0  0  0
  1  3  1  0  0  0  0
  1  7  1  0  0  0  0
  3  4  1  0  0  0  0
  3  5  1  0  0  0  0
  3  6  1  0  0  0  0
  7  8  1  0  0  0  0
  7 12  1  0  0  0  0
  8  9  1  0  0  0  0
  8 11  1  0  0  0  0
  8 13  1  0  0  0  0
  9 10  2  0  0  0  0
  9 17  1  0  0  0  0
 11 14  1  0  0  0  0
 11 15  1  0  0  0  0
 11 16  1  0  0  0  0
 17 18  1  0  0  0  0
 17 23  1  0  0  0  0
 18 19  1  0  0  0  0
 18 21  1  0  0  0  0
 18 24  1  0  0  0  0
 19 20  2  0  0  0  0
 19 28  1  0  0  0  0
 21 22  1  0  0  0  0
 21 25  1  0  0  0  0
 21 26  1  0  0  0  0
 22 27  1  0  0  0  0
 28 29  1  0  0  0  0
 28 33  1  0  0  0  0
 29 30  1  0  0  0  0
 29 32  1  0  0  0  0
 29 34  1  0  0  0  0
 30 31  2  0  0  0  0
 30 38  1  0  0  0  0
 32 35  1  0  0  0  0
 32 36  1  0  0  0  0
 32 37  1  0  0  0  0
 38 39  1  0  0  0  0
 38 40  1  0  0  0  0
 39 41  1  0  0  0  0
 39 42  1  0  0  0  0
 39 43  1  0  0  0  0
M  END
$$$$

  -OEChem-05262217303D

 43 42  0     1  0  0  0  0  0999 V2000
    2.0506   -1.8323    3.2357 C   0  0  0  0  0  0  0  0  0  0  0  0
    1.0715   -1.1103    3.0844 O   0  0  0  0  0  0  0  0  0  0  0  0
    2.0263   -2.9579    4.2525 C   0  0  0  0  0  0  0  0  0  0  0  0
    2.6844   -2.7145    5.0902 H   0  0  0  0  0  0  0  0  0  0  0  0
    1.0112   -3.1047    4.6310 H   0  0  0  0  0  0  0  0  0  0  0  0
    2.3683   -3.8896    3.7961 H   0  0  0  0  0  0  0  0  0  0  0  0
    3.1540   -1.6329    2.4354 N   0  0  0  0  0  0  0  0  0  0  0  0
    3.2690   -0.5341    1.4656 C   0  0  2  0  0  0  0  0  0  0  0  0
    2.3339   -0.7225    0.2497 C   0  0  0  0  0  0  0  0  0  0  0  0
    2.7027   -1.3715   -0.7185 O   0  0  0  0  0  0  0  0  0  0  0  0
    4.7419   -0.4378    1.0513 C   0  0  0  0  0  0  0  0  0  0  0  0
    3.8055   -2.4142    2.3629 H   0  0  0  0  0  0  0  0  0  0  0  0
    2.9971    0.4088    1.9515 H   0  0  0  0  0  0  0  0  0  0  0  0
    5.0765   -1.3732    0.5902 H   0  0  0  0  0  0  0  0  0  0  0  0
    4.8805    0.3726    0.3289 H   0  0  0  0  0  0  0  0  0  0  0  0
    5.3710   -0.2352    1.9235 H   0  0  0  0  0  0  0  0  0  0  0  0
    1.0392   -0.2240    0.2961 N   0  0  0  0  0  0  0  0  0  0  0  0
   -0.0833   -0.6872   -0.5631 C   0  0  2  0  0  0  0  0  0  0  0  0
   -0.3795   -2.1920   -0.3618 C   0  0  0  0  0  0  0  0  0  0  0  0
   -0.7091   -2.9198   -1.2881 O   0  0  0  0  0  0  0  0  0  0  0  0
    0.0506   -0.2710   -2.0467 C   0  0  0  0  0  0  0  0  0  0  0  0
    1.1492   -0.8777   -2.7301 O   0  0  0  0  0  0  0  0  0  0  0  0
    0.7866    0.1418    1.2157 H   0  0  0  0  0  0  0  0  0  0  0  0
   -0.9819   -0.1783   -0.2047 H   0  0  0  0  0  0  0  0  0  0  0  0
    0.1753    0.8155   -2.0894 H   0  0  0  0  0  0  0  0  0  0  0  0
   -0.8741   -0.5148   -2.5805 H   0  0  0  0  0  0  0  0  0  0  0  0
    1.8675   -1.0940   -2.0824 H   0  0  0  0  0  0  0  0  0  0  0  0
   -0.1244   -2.7463    0.8842 N   0  0  0  0  0  0  0  0  0  0  0  0
    0.1858   -4.1604    1.1556 C   0  0  2  0  0  0  0  0  0  0  0  0
    1.5396   -4.5609    0.5331 C   0  0  0  0  0  0  0  0  0  0  0  0
    2.5157   -4.6893    1.2664 O   0  0  0  0  0  0  0  0  0  0  0  0
   -0.9478   -5.1175    0.7568 C   0  0  0  0  0  0  0  0  0  0  0  0
    0.1981   -2.0746    1.5835 H   0  0  0  0  0  0  0  0  0  0  0  0
    0.2960   -4.2605    2.2391 H   0  0  0  0  0  0  0  0  0  0  0  0
   -1.0369   -5.2115   -0.3290 H   0  0  0  0  0  0  0  0  0  0  0  0
   -0.7545   -6.1140    1.1654 H   0  0  0  0  0  0  0  0  0  0  0  0
   -1.9021   -4.7589    1.1539 H   0  0  0  0  0  0  0  0  0  0  0  0
    1.6872   -4.6189   -0.8382 N   0  0  0  0  0  0  0  0  0  0  0  0
    2.9840   -4.7129   -1.4940 C   0  0  0  0  0  0  0  0  0  0  0  0
    0.8998   -4.2449   -1.3757 H   0  0  0  0  0  0  0  0  0  0  0  0
    2.8586   -4.6715   -2.5802 H   0  0  0  0  0  0  0  0  0  0  0  0
    3.6319   -3.8846   -1.1896 H   0  0  0  0  0  0  0  0  0  0  0  0
    3.4743   -5.6573   -1.2375 H   0  0  0  0  0  0  0  0  0  0  0  0
  1  2  2  0  0  0  0
  1  3  1  0  0  0  0
  1  7  1  0  0  0  0
  3  4  1  0  0  0  0
  3  5  1  0  0  0  0
  3  6  1  0  0  0  0
  7  8  1  0  0  0  0
  7 12  1  0  0  0  0
  8  9  1  0  0  0  0
  8 11  1  0  0  0  0
  8 13  1  0  0  0  0
  9 10  2  0  0  0  0
  9 17  1  0  0  0  0
 11 14  1  0  0  0  0
 11 15  1  0  0  0  0
 11 16  1  0  0  0  0
 17 18  1  0  0  0  0
 17 23  1  0  0  0  0
 18 19  1  0  0  0  0
 18 21  1  0  0  0  0
 18 24  1  0  0  0  0
 19 20  2  0  0  0  0
 19 28  1  0  0  0  0
 21 22  1  0  0  0  0
 21 25  1  0  0  0  0
 21 26  1  0  0  0  0
 22 27  1  0  0  0  0
 28 29  1  0  0  0  0
 28 33  1  0  0  0  0
 29 30  1  0  0  0  0
 29 32  1  0  0  0  0
 29 34  1  0  0  0  0
 30 31  2  0  0  0  0
 30 38  1  0  0  0  0
 32 35  1  0  0  0  0
 32 36  1  0  0  0  0
 32 37  1  0  0  0  0
 38 39  1  0  0  0  0
 38 40  1  0  0  0  0
 39 41  1  0  0  0  0
 39 42  1  0  0  0  0
 39 43  1  0  0  0  0
M  END
$$$$

  -OEChem-05262217303D

 43 42  0     1  0  0  0  0  0999 V2000
    1.9387   -1.8257    3.2066 C   0  0  0  0  0  0  0  0  0  0  0  0
    1.1067   -0.9355    3.0795 O   0  0  0  0  0  0  0  0  0  0  0  0
    1.7363   -2.9027    4.2562 C   0  0  0  0  0  0  0  0  0  0  0  0
    2.2032   -2.5940    5.1947 H   0  0  0  0  0  0  0  0  0  0  0  0
    0.6694   -3.0678    4.4275 H   0  0  0  0  0  0  0  0  0  0  0  0
    2.1880   -3.8439    3.9339 H   0  0  0  0  0  0  0  0  0  0  0  0
    3.0220   -1.8613    2.3547 N   0  0  0  0  0  0  0  0  0  0  0  0
    3.3645   -0.8015    1.3911 C   0  0  2  0  0  0  0  0  0  0  0  0
    2.4031   -0.7489    0.1796 C   0  0  0  0  0  0  0  0  0  0  0  0
    2.7004   -1.2699   -0.8862 O   0  0  0  0  0  0  0  0  0  0  0  0
    4.8218   -1.0306    0.9715 C   0  0  0  0  0  0  0  0  0  0  0  0
    3.4823   -2.7686    2.2598 H   0  0  0  0  0  0  0  0  0  0  0  0
    3.3110    0.1713    1.8912 H   0  0  0  0  0  0  0  0  0  0  0  0
    4.9372   -2.0089    0.4929 H   0  0  0  0  0  0  0  0  0  0  0  0
    5.1391   -0.2593    0.2624 H   0  0  0  0  0  0  0  0  0  0  0  0
    5.4811   -0.9900    1.8441 H   0  0  0  0  0  0  0  0  0  0  0  0
    1.1400   -0.2077    0.3592 N   0  0  0  0  0  0  0  0  0  0  0  0
   -0.0555   -0.5242   -0.4608 C   0  0  2  0  0  0  0  0  0  0  0  0
   -0.3783   -2.0314   -0.3720 C   0  0  0  0  0  0  0  0  0  0  0  0
   -0.5987   -2.7233   -1.3560 O   0  0  0  0  0  0  0  0  0  0  0  0
   -0.0019    0.0422   -1.8984 C   0  0  0  0  0  0  0  0  0  0  0  0
    1.0151   -0.5322   -2.7211 O   0  0  0  0  0  0  0  0  0  0  0  0
    0.9633    0.0480    1.3347 H   0  0  0  0  0  0  0  0  0  0  0  0
   -0.9060   -0.0240    0.0102 H   0  0  0  0  0  0  0  0  0  0  0  0
    0.1701    1.1214   -1.8381 H   0  0  0  0  0  0  0  0  0  0  0  0
   -0.9714   -0.1093   -2.3843 H   0  0  0  0  0  0  0  0  0  0  0  0
    1.7690   -0.8386   -2.1558 H   0  0  0  0  0  0  0  0  0  0  0  0
   -0.3410   -2.6181    0.8853 N   0  0  0  0  0  0  0  0  0  0  0  0
   -0.0942   -4.0498    1.1405 C   0  0  2  0  0  0  0  0  0  0  0  0
    1.2958   -4.4938    0.6274 C   0  0  0  0  0  0  0  0  0  0  0  0
    2.2078   -4.6526    1.4340 O   0  0  0  0  0  0  0  0  0  0  0  0
   -1.2233   -4.9482    0.6123 C   0  0  0  0  0  0  0  0  0  0  0  0
   -0.0691   -1.9766    1.6315 H   0  0  0  0  0  0  0  0  0  0  0  0
   -0.0823   -4.1845    2.2262 H   0  0  0  0  0  0  0  0  0  0  0  0
   -1.2342   -4.9864   -0.4804 H   0  0  0  0  0  0  0  0  0  0  0  0
   -1.0922   -5.9692    0.9832 H   0  0  0  0  0  0  0  0  0  0  0  0
   -2.1932   -4.5766    0.9559 H   0  0  0  0  0  0  0  0  0  0  0  0
    1.5608   -4.5571   -0.7256 N   0  0  0  0  0  0  0  0  0  0  0  0
    2.9034   -4.7000   -1.2705 C   0  0  0  0  0  0  0  0  0  0  0  0
    0.8403   -4.1450   -1.3265 H   0  0  0  0  0  0  0  0  0  0  0  0
    2.8646   -4.7030   -2.3640 H   0  0  0  0  0  0  0  0  0  0  0  0
    3.5403   -3.8699   -0.9494 H   0  0  0  0  0  0  0  0  0  0  0  0
    3.3537   -5.6406   -0.9378 H   0  0  0  0  0  0  0  0  0  0  0  0
  1  2  2  0  0  0  0
  1  3  1  0  0  0  0
  1  7  1  0  0  0  0
  3  4  1  0  0  0  0
  3  5  1  0  0  0  0
  3  6  1  0  0  0  0
  7  8  1  0  0  0  0
  7 12  1  0  0  0  0
  8  9  1  0  0  0  0
  8 11  1  0  0  0  0
  8 13  1  0  0  0  0
  9 10  2  0  0  0  0
  9 17  1  0  0  0  0
 11 14  1  0  0  0  0
 11 15  1  0  0  0  0
 11 16  1  0  0  0  0
 17 18  1  0  0  0  0
 17 23  1  0  0  0  0
 18 19  1  0  0  0  0
 18 21  1  0  0  0  0
 18 24  1  0  0  0  0
 19 20  2  0  0  0  0
 19 28  1  0  0  0  0
 21 22  1  0  0  0  0
 21 25  1  0  0  0  0
 21 26  1  0  0  0  0
 22 27  1  0  0  0  0
 28 29  1  0  0  0  0
 28 33  1  0  0  0  0
 29 30  1  0  0  0  0
 29 32  1  0  0  0  0
 29 34  1  0  0  0  0
 30 31  2  0  0  0  0
 30 38  1  0  0  0  0
 32 35  1  0  0  0  0
 32 36  1  0  0  0  0
 32 37  1  0  0  0  0
 38 39  1  0  0  0  0
 38 40  1  0  0  0  0
 39 41  1  0  0  0  0
 39 42  1  0  0  0  0
 39 43  1  0  0  0  0
M  END
$$$$

  -OEChem-05262217303D

 43 42  0     1  0  0  0  0  0999 V2000
    3.9086   -1.4685    4.1033 C   0  0  0  0  0  0  0  0  0  0  0  0
    3.4653   -0.6023    4.8410 O   0  0  0  0  0  0  0  0  0  0  0  0
    4.7164   -2.6183    4.6753 C   0  0  0  0  0  0  0  0  0  0  0  0
    5.7389   -2.5816    4.2917 H   0  0  0  0  0  0  0  0  0  0  0  0
    4.7467   -2.5529    5.7665 H   0  0  0  0  0  0  0  0  0  0  0  0
    4.2621   -3.5712    4.3926 H   0  0  0  0  0  0  0  0  0  0  0  0
    3.6731   -1.4046    2.7462 N   0  0  0  0  0  0  0  0  0  0  0  0
    2.7837   -0.4273    2.1049 C   0  0  2  0  0  0  0  0  0  0  0  0
    1.9138   -1.0743    1.0082 C   0  0  0  0  0  0  0  0  0  0  0  0
    2.2305   -2.1610    0.5366 O   0  0  0  0  0  0  0  0  0  0  0  0
    3.6512    0.6838    1.5090 C   0  0  0  0  0  0  0  0  0  0  0  0
    3.9415   -2.2154    2.1897 H   0  0  0  0  0  0  0  0  0  0  0  0
    2.1041    0.0053    2.8465 H   0  0  0  0  0  0  0  0  0  0  0  0
    4.3297    0.2754    0.7526 H   0  0  0  0  0  0  0  0  0  0  0  0
    3.0279    1.4498    1.0382 H   0  0  0  0  0  0  0  0  0  0  0  0
    4.2485    1.1583    2.2942 H   0  0  0  0  0  0  0  0  0  0  0  0
    0.7347   -0.4629    0.6060 N   0  0  0  0  0  0  0  0  0  0  0  0
    0.1103   -0.6952   -0.7162 C   0  0  2  0  0  0  0  0  0  0  0  0
   -0.2688   -2.1704   -0.9772 C   0  0  0  0  0  0  0  0  0  0  0  0
    0.1820   -2.7727   -1.9447 O   0  0  0  0  0  0  0  0  0  0  0  0
    0.9402   -0.0630   -1.8542 C   0  0  0  0  0  0  0  0  0  0  0  0
    2.2164   -0.6837   -2.0138 O   0  0  0  0  0  0  0  0  0  0  0  0
    0.5849    0.4522    1.0224 H   0  0  0  0  0  0  0  0  0  0  0  0
   -0.8447   -0.1628   -0.7162 H   0  0  0  0  0  0  0  0  0  0  0  0
    1.0839    1.0037   -1.6553 H   0  0  0  0  0  0  0  0  0  0  0  0
    0.3844   -0.1499   -2.7941 H   0  0  0  0  0  0  0  0  0  0  0  0
    2.1021   -1.6561   -2.0615 H   0  0  0  0  0  0  0  0  0  0  0  0
   -1.1661   -2.7929   -0.1240 N   0  0  0  0  0  0  0  0  0  0  0  0
   -1.6085   -4.2031   -0.1738 C   0  0  2  0  0  0  0  0  0  0  0  0
   -0.5067   -5.2374    0.1564 C   0  0  0  0  0  0  0  0  0  0  0  0
   -0.7605   -6.1396    0.9439 O   0  0  0  0  0  0  0  0  0  0  0  0
   -2.2899   -4.5377   -1.5082 C   0  0  0  0  0  0  0  0  0  0  0  0
   -1.3569   -2.2857    0.7354 H   0  0  0  0  0  0  0  0  0  0  0  0
   -2.3712   -4.3187    0.6032 H   0  0  0  0  0  0  0  0  0  0  0  0
   -1.5643   -4.5891   -2.3251 H   0  0  0  0  0  0  0  0  0  0  0  0
   -2.7889   -5.5094   -1.4385 H   0  0  0  0  0  0  0  0  0  0  0  0
   -3.0400   -3.7802   -1.7536 H   0  0  0  0  0  0  0  0  0  0  0  0
    0.7506   -5.1450   -0.4089 N   0  0  0  0  0  0  0  0  0  0  0  0
    1.8883   -6.0007   -0.0937 C   0  0  0  0  0  0  0  0  0  0  0  0
    0.8985   -4.3462   -1.0300 H   0  0  0  0  0  0  0  0  0  0  0  0
    2.2469   -6.4944   -1.0021 H   0  0  0  0  0  0  0  0  0  0  0  0
    2.7003   -5.3979    0.3250 H   0  0  0  0  0  0  0  0  0  0  0  0
    1.6297   -6.7759    0.6349 H   0  0  0  0  0  0  0  0  0  0  0  0
  1  2  2  0  0  0  0
  1  3  1  0  0  0  0
  1  7  1  0  0  0  0
  3  4  1  0  0  0  0
  3  5  1  0  0  0  0
  3  6  1  0  0  0  0
  7  8  1  0  0  0  0
  7 12  1  0  0  0  0
  8  9  1  0  0  0  0
  8 11  1  0  0  0  0
  8 13  1  0  0  0  0
  9 10  2  0  0  0  0
  9 17  1  0  0  0  0
 11 14  1  0  0  0  0
 11 15  1  0  0  0  0
 11 16  1  0  0  0  0
 17 18  1  0  0  0  0
 17 23  1  0  0  0  0
 18 19  1  0  0  0  0
 18 21  1  0  0  0  0
 18 24  1  0  0  0  0
 19 20  2  0  0  0  0
 19 28  1  0  0  0  0
 21 22  1  0  0  0  0
 21 25  1  0  0  0  0
 21 26  1  0  0  0  0
 22 27  1  0  0  0  0
 28 29  1  0  0  0  0
 28 33  1  0  0  0  0
 29 30  1  0  0  0  0
 29 32  1  0  0  0  0
 29 34  1  0  0  0  0
 30 31  2  0  0  0  0
 30 38  1  0  0  0  0
 32 35  1  0  0  0  0
 32 36  1  0  0  0  0
 32 37  1  0  0  0  0
 38 39  1  0  0  0  0
 38 40  1  0  0  0  0
 39 41  1  0  0  0  0
 39 42  1  0  0  0  0
 39 43  1  0  0  0  0
M  END
$$$$

  -OEChem-05262217303D

 43 42  0     1  0  0  0  0  0999 V2000
    3.9771   -1.5009    4.0665 C   0  0  0  0  0  0  0  0  0  0  0  0
    3.5985   -0.6086    4.8093 O   0  0  0  0  0  0  0  0  0  0  0  0
    4.7852   -2.6611    4.6160 C   0  0  0  0  0  0  0  0  0  0  0  0
    5.7434   -2.7287    4.0950 H   0  0  0  0  0  0  0  0  0  0  0  0
    4.9740   -2.5176    5.6836 H   0  0  0  0  0  0  0  0  0  0  0  0
    4.2362   -3.5958    4.4774 H   0  0  0  0  0  0  0  0  0  0  0  0
    3.6547   -1.4643    2.7266 N   0  0  0  0  0  0  0  0  0  0  0  0
    2.7438   -0.4849    2.1206 C   0  0  2  0  0  0  0  0  0  0  0  0
    1.8802   -1.1162    1.0096 C   0  0  0  0  0  0  0  0  0  0  0  0
    2.1902   -2.2054    0.5397 O   0  0  0  0  0  0  0  0  0  0  0  0
    3.5823    0.6634    1.5526 C   0  0  0  0  0  0  0  0  0  0  0  0
    3.8796   -2.2879    2.1694 H   0  0  0  0  0  0  0  0  0  0  0  0
    2.0617   -0.0921    2.8822 H   0  0  0  0  0  0  0  0  0  0  0  0
    4.2563    0.2947    0.7722 H   0  0  0  0  0  0  0  0  0  0  0  0
    2.9382    1.4338    1.1187 H   0  0  0  0  0  0  0  0  0  0  0  0
    4.1829    1.1215    2.3448 H   0  0  0  0  0  0  0  0  0  0  0  0
    0.7125   -0.4898    0.5976 N   0  0  0  0  0  0  0  0  0  0  0  0
    0.1102   -0.6825   -0.7411 C   0  0  2  0  0  0  0  0  0  0  0  0
   -0.2757   -2.1455   -1.0570 C   0  0  0  0  0  0  0  0  0  0  0  0
    0.3461   -2.7900   -1.8944 O   0  0  0  0  0  0  0  0  0  0  0  0
    0.9758   -0.0348   -1.8419 C   0  0  0  0  0  0  0  0  0  0  0  0
    2.2452   -0.6736   -1.9838 O   0  0  0  0  0  0  0  0  0  0  0  0
    0.5650    0.4180    1.0302 H   0  0  0  0  0  0  0  0  0  0  0  0
   -0.8367   -0.1363   -0.7486 H   0  0  0  0  0  0  0  0  0  0  0  0
    1.1301    1.0248   -1.6156 H   0  0  0  0  0  0  0  0  0  0  0  0
    0.4420   -0.0946   -2.7965 H   0  0  0  0  0  0  0  0  0  0  0  0
    2.1169   -1.6472   -2.0083 H   0  0  0  0  0  0  0  0  0  0  0  0
   -1.4006   -2.6914   -0.4584 N   0  0  0  0  0  0  0  0  0  0  0  0
   -1.8677   -4.0902   -0.5740 C   0  0  2  0  0  0  0  0  0  0  0  0
   -0.9109   -5.1352    0.0475 C   0  0  0  0  0  0  0  0  0  0  0  0
   -1.3617   -5.9714    0.8198 O   0  0  0  0  0  0  0  0  0  0  0  0
   -2.2178   -4.4578   -2.0231 C   0  0  0  0  0  0  0  0  0  0  0  0
   -1.7837   -2.1480    0.3099 H   0  0  0  0  0  0  0  0  0  0  0  0
   -2.7990   -4.1574   -0.0021 H   0  0  0  0  0  0  0  0  0  0  0  0
   -1.3200   -4.5408   -2.6420 H   0  0  0  0  0  0  0  0  0  0  0  0
   -2.7356   -5.4218   -2.0486 H   0  0  0  0  0  0  0  0  0  0  0  0
   -2.8748   -3.6998   -2.4598 H   0  0  0  0  0  0  0  0  0  0  0  0
    0.4441   -5.1183   -0.2166 N   0  0  0  0  0  0  0  0  0  0  0  0
    1.4158   -5.9774    0.4430 C   0  0  0  0  0  0  0  0  0  0  0  0
    0.7804   -4.3553   -0.8101 H   0  0  0  0  0  0  0  0  0  0  0  0
    2.4100   -5.8145    0.0157 H   0  0  0  0  0  0  0  0  0  0  0  0
    1.4571   -5.7545    1.5141 H   0  0  0  0  0  0  0  0  0  0  0  0
    1.1508   -7.0315    0.3097 H   0  0  0  0  0  0  0  0  0  0  0  0
  1  2  2  0  0  0  0
  1  3  1  0  0  0  0
  1  7  1  0  0  0  0
  3  4  1  0  0  0  0
  3  5  1  0  0  0  0
  3  6  1  0  0  0  0
  7  8  1  0  0  0  0
  7 12  1  0  0  0  0
  8  9  1  0  0  0  0
  8 11  1  0  0  0  0
  8 13  1  0  0  0  0
  9 10  2  0  0  0  0
  9 17  1  0  0  0  0
 11 14  1  0  0  0  0
 11 15  1  0  0  0  0
 11 16  1  0  0  0  0
 17 18  1  0  0  0  0
 17 23  1  0  0  0  0
 18 19  1  0  0  0  0
 18 21  1  0  0  0  0
 18 24  1  0  0  0  0
 19 20  2  0  0  0  0
 19 28  1  0  0  0  0
 21 22  1  0  0  0  0
 21 25  1  0  0  0  0
 21 26  1  0  0  0  0
 22 27  1  0  0  0  0
 28 29  1  0  0  0  0
 28 33  1  0  0  0  0
 29 30  1  0  0  0  0
 29 32  1  0  0  0  0
 29 34  1  0  0  0  0
 30 31  2  0  0  0  0
 30 38  1  0  0  0  0
 32 35  1  0  0  0  0
 32 36  1  0  0  0  0
 32 37  1  0  0  0  0
 38 39  1  0  0  0  0
 38 40  1  0  0  0  0
 39 41  1  0  0  0  0
 39 42  1  0  0  0  0
 39 43  1  0  0  0  0
M  END
$$$$

  -OEChem-05262217303D

 43 42  0     1  0  0  0  0  0999 V2000
    3.9946   -1.5159    4.0865 C   0  0  0  0  0  0  0  0  0  0  0  0
    3.5798   -0.6637    4.8566 O   0  0  0  0  0  0  0  0  0  0  0  0
    4.8657   -2.6481    4.5975 C   0  0  0  0  0  0  0  0  0  0  0  0
    5.8194   -2.6566    4.0640 H   0  0  0  0  0  0  0  0  0  0  0  0
    5.0612   -2.5202    5.6659 H   0  0  0  0  0  0  0  0  0  0  0  0
    4.3612   -3.6050    4.4430 H   0  0  0  0  0  0  0  0  0  0  0  0
    3.6583   -1.4576    2.7509 N   0  0  0  0  0  0  0  0  0  0  0  0
    2.6982   -0.5045    2.1802 C   0  0  2  0  0  0  0  0  0  0  0  0
    1.8819   -1.1299    1.0301 C   0  0  0  0  0  0  0  0  0  0  0  0
    2.2234   -2.2079    0.5582 O   0  0  0  0  0  0  0  0  0  0  0  0
    3.4762    0.7156    1.6794 C   0  0  0  0  0  0  0  0  0  0  0  0
    3.9194   -2.2513    2.1664 H   0  0  0  0  0  0  0  0  0  0  0  0
    1.9874   -0.1894    2.9515 H   0  0  0  0  0  0  0  0  0  0  0  0
    4.1787    0.4237    0.8917 H   0  0  0  0  0  0  0  0  0  0  0  0
    2.7947    1.4696    1.2746 H   0  0  0  0  0  0  0  0  0  0  0  0
    4.0413    1.1670    2.5013 H   0  0  0  0  0  0  0  0  0  0  0  0
    0.7227   -0.5087    0.5875 N   0  0  0  0  0  0  0  0  0  0  0  0
    0.1429   -0.6871   -0.7639 C   0  0  2  0  0  0  0  0  0  0  0  0
   -0.2420   -2.1430   -1.1163 C   0  0  0  0  0  0  0  0  0  0  0  0
    0.4995   -2.8386   -1.8015 O   0  0  0  0  0  0  0  0  0  0  0  0
    1.0379   -0.0394   -1.8409 C   0  0  0  0  0  0  0  0  0  0  0  0
    2.3035   -0.6906   -1.9606 O   0  0  0  0  0  0  0  0  0  0  0  0
    0.5426    0.3834    1.0396 H   0  0  0  0  0  0  0  0  0  0  0  0
   -0.7969   -0.1295   -0.7843 H   0  0  0  0  0  0  0  0  0  0  0  0
    1.1983    1.0171   -1.6044 H   0  0  0  0  0  0  0  0  0  0  0  0
    0.5235   -0.0876   -2.8065 H   0  0  0  0  0  0  0  0  0  0  0  0
    2.1703   -1.6650   -1.9285 H   0  0  0  0  0  0  0  0  0  0  0  0
   -1.5161   -2.6005   -0.8162 N   0  0  0  0  0  0  0  0  0  0  0  0
   -2.0226   -3.9752   -1.0198 C   0  0  2  0  0  0  0  0  0  0  0  0
   -1.2939   -5.0518   -0.1810 C   0  0  0  0  0  0  0  0  0  0  0  0
   -1.9544   -5.8096    0.5174 O   0  0  0  0  0  0  0  0  0  0  0  0
   -2.0534   -4.3609   -2.5058 C   0  0  0  0  0  0  0  0  0  0  0  0
   -2.0490   -2.0127   -0.1820 H   0  0  0  0  0  0  0  0  0  0  0  0
   -3.0624   -3.9799   -0.6771 H   0  0  0  0  0  0  0  0  0  0  0  0
   -1.0451   -4.5110   -2.9018 H   0  0  0  0  0  0  0  0  0  0  0  0
   -2.6094   -5.2947   -2.6368 H   0  0  0  0  0  0  0  0  0  0  0  0
   -2.5461   -3.5792   -3.0916 H   0  0  0  0  0  0  0  0  0  0  0  0
    0.0837   -5.1460   -0.1654 N   0  0  0  0  0  0  0  0  0  0  0  0
    0.8299   -6.0580    0.6885 C   0  0  0  0  0  0  0  0  0  0  0  0
    0.5946   -4.4479   -0.7134 H   0  0  0  0  0  0  0  0  0  0  0  0
    1.9034   -5.9488    0.5059 H   0  0  0  0  0  0  0  0  0  0  0  0
    0.6337   -5.8408    1.7434 H   0  0  0  0  0  0  0  0  0  0  0  0
    0.5471   -7.0953    0.4817 H   0  0  0  0  0  0  0  0  0  0  0  0
  1  2  2  0  0  0  0
  1  3  1  0  0  0  0
  1  7  1  0  0  0  0
  3  4  1  0  0  0  0
  3  5  1  0  0  0  0
  3  6  1  0  0  0  0
  7  8  1  0  0  0  0
  7 12  1  0  0  0  0
  8  9  1  0  0  0  0
  8 11  1  0  0  0  0
  8 13  1  0  0  0  0
  9 10  2  0  0  0  0
  9 17  1  0  0  0  0
 11 14  1  0  0  0  0
 11 15  1  0  0  0  0
 11 16  1  0  0  0  0
 17 18  1  0  0  0  0
 17 23  1  0  0  0  0
 18 19  1  0  0  0  0
 18 21  1  0  0  0  0
 18 24  1  0  0  0  0
 19 20  2  0  0  0  0
 19 28  1  0  0  0  0
 21 22  1  0  0  0  0
 21 25  1  0  0  0  0
 21 26  1  0  0  0  0
 22 27  1  0  0  0  0
 28 29  1  0  0  0  0
 28 33  1  0  0  0  0
 29 30  1  0  0  0  0
 29 32  1  0  0  0  0
 29 34  1  0  0  0  0
 30 31  2  0  0  0  0
 30 38  1  0  0  0  0
 32 35  1  0  0  0  0
 32 36  1  0  0  0  0
 32 37  1  0  0  0  0
 38 39  1  0  0  0  0
 38 40  1  0  0  0  0
 39 41  1  0  0  0  0
 39 42  1  0  0  0  0
 39 43  1  0  0  0  0
M  END
$$$$

  -OEChem-05262217303D

 43 42  0     1  0  0  0  0  0999 V2000
    3.8264   -1.8497    3.9516 C   0  0  0  0  0  0  0  0  0  0  0  0
    3.1439   -1.3654    4.8407 O   0  0  0  0  0  0  0  0  0  0  0  0
    4.8802   -2.8912    4.2776 C   0  0  0  0  0  0  0  0  0  0  0  0
    5.8543   -2.5688    3.9017 H   0  0  0  0  0  0  0  0  0  0  0  0
    4.9502   -3.0315    5.3599 H   0  0  0  0  0  0  0  0  0  0  0  0
    4.6161   -3.8451    3.8147 H   0  0  0  0  0  0  0  0  0  0  0  0
    3.6293   -1.4571    2.6449 N   0  0  0  0  0  0  0  0  0  0  0  0
    2.5614   -0.5522    2.2017 C   0  0  2  0  0  0  0  0  0  0  0  0
    2.0968   -0.8778    0.7669 C   0  0  0  0  0  0  0  0  0  0  0  0
    2.8179   -1.5466    0.0385 O   0  0  0  0  0  0  0  0  0  0  0  0
    3.0857    0.8853    2.2810 C   0  0  0  0  0  0  0  0  0  0  0  0
    4.1429   -1.9574    1.9196 H   0  0  0  0  0  0  0  0  0  0  0  0
    1.6932   -0.6588    2.8610 H   0  0  0  0  0  0  0  0  0  0  0  0
    3.9491    1.0142    1.6199 H   0  0  0  0  0  0  0  0  0  0  0  0
    2.3103    1.5973    1.9832 H   0  0  0  0  0  0  0  0  0  0  0  0
    3.3929    1.1208    3.3051 H   0  0  0  0  0  0  0  0  0  0  0  0
    0.9010   -0.3601    0.2923 N   0  0  0  0  0  0  0  0  0  0  0  0
    0.2569   -0.6376   -1.0161 C   0  0  2  0  0  0  0  0  0  0  0  0
   -0.1038   -2.1228   -1.2724 C   0  0  0  0  0  0  0  0  0  0  0  0
    0.7417   -2.9728   -1.5067 O   0  0  0  0  0  0  0  0  0  0  0  0
    1.0424   -0.0297   -2.1957 C   0  0  0  0  0  0  0  0  0  0  0  0
    2.3280   -0.6166   -2.3953 O   0  0  0  0  0  0  0  0  0  0  0  0
    0.3790    0.1968    0.9633 H   0  0  0  0  0  0  0  0  0  0  0  0
   -0.6969   -0.1045   -1.0054 H   0  0  0  0  0  0  0  0  0  0  0  0
    1.1745    1.0416   -2.0135 H   0  0  0  0  0  0  0  0  0  0  0  0
    0.4597   -0.1370   -3.1166 H   0  0  0  0  0  0  0  0  0  0  0  0
    2.6087   -1.1077   -1.5811 H   0  0  0  0  0  0  0  0  0  0  0  0
   -1.4330   -2.5136   -1.1821 N   0  0  0  0  0  0  0  0  0  0  0  0
   -1.9773   -3.8750   -1.3798 C   0  0  2  0  0  0  0  0  0  0  0  0
   -1.5797   -4.8960   -0.2883 C   0  0  0  0  0  0  0  0  0  0  0  0
   -2.4569   -5.5287    0.2850 O   0  0  0  0  0  0  0  0  0  0  0  0
   -1.6512   -4.4158   -2.7798 C   0  0  0  0  0  0  0  0  0  0  0  0
   -2.0971   -1.7901   -0.9257 H   0  0  0  0  0  0  0  0  0  0  0  0
   -3.0674   -3.7885   -1.3258 H   0  0  0  0  0  0  0  0  0  0  0  0
   -0.5892   -4.6610   -2.8752 H   0  0  0  0  0  0  0  0  0  0  0  0
   -2.2271   -5.3268   -2.9709 H   0  0  0  0  0  0  0  0  0  0  0  0
   -1.9081   -3.6769   -3.5449 H   0  0  0  0  0  0  0  0  0  0  0  0
   -0.2603   -5.0990    0.0631 N   0  0  0  0  0  0  0  0  0  0  0  0
    0.1820   -6.0695    1.0543 C   0  0  0  0  0  0  0  0  0  0  0  0
    0.4352   -4.5503   -0.4523 H   0  0  0  0  0  0  0  0  0  0  0  0
   -0.0418   -7.0875    0.7190 H   0  0  0  0  0  0  0  0  0  0  0  0
    1.2618   -5.9838    1.2087 H   0  0  0  0  0  0  0  0  0  0  0  0
   -0.3189   -5.8953    2.0122 H   0  0  0  0  0  0  0  0  0  0  0  0
  1  2  2  0  0  0  0
  1  3  1  0  0  0  0
  1  7  1  0  0  0  0
  3  4  1  0  0  0  0
  3  5  1  0  0  0  0
  3  6  1  0  0  0  0
  7  8  1  0  0  0  0
  7 12  1  0  0  0  0
  8  9  1  0  0  0  0
  8 11  1  0  0  0  0
  8 13  1  0  0  0  0
  9 10  2  0  0  0  0
  9 17  1  0  0  0  0
 11 14  1  0  0  0  0
 11 15  1  0  0  0  0
 11 16  1  0  0  0  0
 17 18  1  0  0  0  0
 17 23  1  0  0  0  0
 18 19  1  0  0  0  0
 18 21  1  0  0  0  0
 18 24  1  0  0  0  0
 19 20  2  0  0  0  0
 19 28  1  0  0  0  0
 21 22  1  0  0  0  0
 21 25  1  0  0  0  0
 21 26  1  0  0  0  0
 22 27  1  0  0  0  0
 28 29  1  0  0  0  0
 28 33  1  0  0  0  0
 29 30  1  0  0  0  0
 29 32  1  0  0  0  0
 29 34  1  0  0  0  0
 30 31  2  0  0  0  0
 30 38  1  0  0  0  0
 32 35  1  0  0  0  0
 32 36  1  0  0  0  0
 32 37  1  0  0  0  0
 38 39  1  0  0  0  0
 38 40  1  0  0  0  0
 39 41  1  0  0  0  0
 39 42  1  0  0  0  0
 39 43  1  0  0  0  0
M  END
$$$$

  -OEChem-05262217303D

 43 42  0     1  0  0  0  0  0999 V2000
    2.6637   -2.6100    3.0047 C   0  0  0  0  0  0  0  0  0  0  0  0
    1.4667   -2.6703    3.2424 O   0  0  0  0  0  0  0  0  0  0  0  0
    3.5300   -3.8492    3.1302 C   0  0  0  0  0  0  0  0  0  0  0  0
    4.4334   -3.6193    3.7003 H   0  0  0  0  0  0  0  0  0  0  0  0
    2.9826   -4.6419    3.6478 H   0  0  0  0  0  0  0  0  0  0  0  0
    3.8149   -4.2052    2.1367 H   0  0  0  0  0  0  0  0  0  0  0  0
    3.2256   -1.4195    2.5928 N   0  0  0  0  0  0  0  0  0  0  0  0
    2.4111   -0.2705    2.1790 C   0  0  2  0  0  0  0  0  0  0  0  0
    2.0759   -0.3473    0.6761 C   0  0  0  0  0  0  0  0  0  0  0  0
    2.9847   -0.5342   -0.1227 O   0  0  0  0  0  0  0  0  0  0  0  0
    3.1905    1.0066    2.5018 C   0  0  0  0  0  0  0  0  0  0  0  0
    4.1549   -1.4933    2.1851 H   0  0  0  0  0  0  0  0  0  0  0  0
    1.4741   -0.2454    2.7448 H   0  0  0  0  0  0  0  0  0  0  0  0
    4.1392    1.0285    1.9555 H   0  0  0  0  0  0  0  0  0  0  0  0
    2.6080    1.8892    2.2201 H   0  0  0  0  0  0  0  0  0  0  0  0
    3.4037    1.0600    3.5740 H   0  0  0  0  0  0  0  0  0  0  0  0
    0.7843   -0.0953    0.2379 N   0  0  0  0  0  0  0  0  0  0  0  0
    0.1991   -0.5090   -1.0648 C   0  0  2  0  0  0  0  0  0  0  0  0
    0.1756   -2.0391   -1.3059 C   0  0  0  0  0  0  0  0  0  0  0  0
    1.1476   -2.7440   -1.0723 O   0  0  0  0  0  0  0  0  0  0  0  0
    0.7904    0.2032   -2.2971 C   0  0  0  0  0  0  0  0  0  0  0  0
    2.1583   -0.1115   -2.5433 O   0  0  0  0  0  0  0  0  0  0  0  0
    0.1225    0.0087    1.0028 H   0  0  0  0  0  0  0  0  0  0  0  0
   -0.8465   -0.1946   -1.0272 H   0  0  0  0  0  0  0  0  0  0  0  0
    0.7067    1.2839   -2.1452 H   0  0  0  0  0  0  0  0  0  0  0  0
    0.2043   -0.0495   -3.1866 H   0  0  0  0  0  0  0  0  0  0  0  0
    2.6239   -0.2905   -1.6834 H   0  0  0  0  0  0  0  0  0  0  0  0
   -1.0517   -2.6552   -1.5106 N   0  0  0  0  0  0  0  0  0  0  0  0
   -1.3211   -4.1053   -1.6152 C   0  0  2  0  0  0  0  0  0  0  0  0
   -1.1987   -4.8713   -0.2791 C   0  0  0  0  0  0  0  0  0  0  0  0
   -2.1653   -5.4943    0.1410 O   0  0  0  0  0  0  0  0  0  0  0  0
   -0.4750   -4.7661   -2.7135 C   0  0  0  0  0  0  0  0  0  0  0  0
   -1.8530   -2.0380   -1.5964 H   0  0  0  0  0  0  0  0  0  0  0  0
   -2.3661   -4.2080   -1.9254 H   0  0  0  0  0  0  0  0  0  0  0  0
    0.5789   -4.8244   -2.4260 H   0  0  0  0  0  0  0  0  0  0  0  0
   -0.8319   -5.7843   -2.8972 H   0  0  0  0  0  0  0  0  0  0  0  0
   -0.5506   -4.1988   -3.6460 H   0  0  0  0  0  0  0  0  0  0  0  0
   -0.0391   -4.8244    0.4675 N   0  0  0  0  0  0  0  0  0  0  0  0
    0.0825   -5.3761    1.8096 C   0  0  0  0  0  0  0  0  0  0  0  0
    0.6897   -4.1954    0.1188 H   0  0  0  0  0  0  0  0  0  0  0  0
   -0.2706   -6.4122    1.8350 H   0  0  0  0  0  0  0  0  0  0  0  0
    1.1288   -5.3646    2.1265 H   0  0  0  0  0  0  0  0  0  0  0  0
   -0.5040   -4.7852    2.5207 H   0  0  0  0  0  0  0  0  0  0  0  0
  1  2  2  0  0  0  0
  1  3  1  0  0  0  0
  1  7  1  0  0  0  0
  3  4  1  0  0  0  0
  3  5  1  0  0  0  0
  3  6  1  0  0  0  0
  7  8  1  0  0  0  0
  7 12  1  0  0  0  0
  8  9  1  0  0  0  0
  8 11  1  0  0  0  0
  8 13  1  0  0  0  0
  9 10  2  0  0  0  0
  9 17  1  0  0  0  0
 11 14  1  0  0  0  0
 11 15  1  0  0  0  0
 11 16  1  0  0  0  0
 17 18  1  0  0  0  0
 17 23  1  0  0  0  0
 18 19  1  0  0  0  0
 18 21  1  0  0  0  0
 18 24  1  0  0  0  0
 19 20  2  0  0  0  0
 19 28  1  0  0  0  0
 21 22  1  0  0  0  0
 21 25  1  0  0  0  0
 21 26  1  0  0  0  0
 22 27  1  0  0  0  0
 28 29  1  0  0  0  0
 28 33  1  0  0  0  0
 29 30  1  0  0  0  0
 29 32  1  0  0  0  0
 29 34  1  0  0  0  0
 30 31  2  0  0  0  0
 30 38  1  0  0  0  0
 32 35  1  0  0  0  0
 32 36  1  0  0  0  0
 32 37  1  0  0  0  0
 38 39  1  0  0  0  0
 38 40  1  0  0  0  0
 39 41  1  0  0  0  0
 39 42  1  0  0  0  0
 39 43  1  0  0  0  0
M  END
$$$$

  -OEChem-05262217303D

 43 42  0     1  0  0  0  0  0999 V2000
    3.7637   -2.1997    3.6783 C   0  0  0  0  0  0  0  0  0  0  0  0
    2.9369   -2.0865    4.5698 O   0  0  0  0  0  0  0  0  0  0  0  0
    4.9426   -3.1400    3.8445 C   0  0  0  0  0  0  0  0  0  0  0  0
    5.8789   -2.5854    3.7475 H   0  0  0  0  0  0  0  0  0  0  0  0
    4.9128   -3.6115    4.8307 H   0  0  0  0  0  0  0  0  0  0  0  0
    4.9081   -3.9198    3.0798 H   0  0  0  0  0  0  0  0  0  0  0  0
    3.6219   -1.4762    2.5133 N   0  0  0  0  0  0  0  0  0  0  0  0
    2.4429   -0.6660    2.1815 C   0  0  2  0  0  0  0  0  0  0  0  0
    2.1518   -0.6795    0.6661 C   0  0  0  0  0  0  0  0  0  0  0  0
    3.0459   -0.9843   -0.1148 O   0  0  0  0  0  0  0  0  0  0  0  0
    2.6886    0.7643    2.6719 C   0  0  0  0  0  0  0  0  0  0  0  0
    4.2609   -1.6922    1.7484 H   0  0  0  0  0  0  0  0  0  0  0  0
    1.5617   -1.0758    2.6868 H   0  0  0  0  0  0  0  0  0  0  0  0
    3.5613    1.1959    2.1709 H   0  0  0  0  0  0  0  0  0  0  0  0
    1.8199    1.3968    2.4670 H   0  0  0  0  0  0  0  0  0  0  0  0
    2.8700    0.7689    3.7516 H   0  0  0  0  0  0  0  0  0  0  0  0
    0.9140   -0.2625    0.1972 N   0  0  0  0  0  0  0  0  0  0  0  0
    0.3134   -0.5636   -1.1302 C   0  0  2  0  0  0  0  0  0  0  0  0
    0.1039   -2.0691   -1.4254 C   0  0  0  0  0  0  0  0  0  0  0  0
    0.8354   -2.9215   -0.9396 O   0  0  0  0  0  0  0  0  0  0  0  0
    1.0303    0.0855   -2.3292 C   0  0  0  0  0  0  0  0  0  0  0  0
    2.3470   -0.4161   -2.5437 O   0  0  0  0  0  0  0  0  0  0  0  0
    0.2574   -0.0393    0.9402 H   0  0  0  0  0  0  0  0  0  0  0  0
   -0.6853   -0.1205   -1.1079 H   0  0  0  0  0  0  0  0  0  0  0  0
    1.0947    1.1639   -2.1517 H   0  0  0  0  0  0  0  0  0  0  0  0
    0.4408   -0.0633   -3.2399 H   0  0  0  0  0  0  0  0  0  0  0  0
    2.7690   -0.6436   -1.6730 H   0  0  0  0  0  0  0  0  0  0  0  0
   -1.1020   -2.4750   -1.9809 N   0  0  0  0  0  0  0  0  0  0  0  0
   -1.5410   -3.8620   -2.2471 C   0  0  2  0  0  0  0  0  0  0  0  0
   -1.8729   -4.6886   -0.9833 C   0  0  0  0  0  0  0  0  0  0  0  0
   -2.9988   -5.1490   -0.8472 O   0  0  0  0  0  0  0  0  0  0  0  0
   -0.5402   -4.6024   -3.1469 C   0  0  0  0  0  0  0  0  0  0  0  0
   -1.7135   -1.7342   -2.3100 H   0  0  0  0  0  0  0  0  0  0  0  0
   -2.4764   -3.7929   -2.8122 H   0  0  0  0  0  0  0  0  0  0  0  0
    0.3929   -4.8151   -2.6168 H   0  0  0  0  0  0  0  0  0  0  0  0
   -0.9677   -5.5546   -3.4767 H   0  0  0  0  0  0  0  0  0  0  0  0
   -0.3075   -4.0027   -4.0319 H   0  0  0  0  0  0  0  0  0  0  0  0
   -0.9344   -4.8940    0.0074 N   0  0  0  0  0  0  0  0  0  0  0  0
   -1.1973   -5.6100    1.2476 C   0  0  0  0  0  0  0  0  0  0  0  0
   -0.0366   -4.4177   -0.1196 H   0  0  0  0  0  0  0  0  0  0  0  0
   -0.2841   -5.6715    1.8472 H   0  0  0  0  0  0  0  0  0  0  0  0
   -1.9641   -5.0931    1.8337 H   0  0  0  0  0  0  0  0  0  0  0  0
   -1.5408   -6.6281    1.0365 H   0  0  0  0  0  0  0  0  0  0  0  0
  1  2  2  0  0  0  0
  1  3  1  0  0  0  0
  1  7  1  0  0  0  0
  3  4  1  0  0  0  0
  3  5  1  0  0  0  0
  3  6  1  0  0  0  0
  7  8  1  0  0  0  0
  7 12  1  0  0  0  0
  8  9  1  0  0  0  0
  8 11  1  0  0  0  0
  8 13  1  0  0  0  0
  9 10  2  0  0  0  0
  9 17  1  0  0  0  0
 11 14  1  0  0  0  0
 11 15  1  0  0  0  0
 11 16  1  0  0  0  0
 17 18  1  0  0  0  0
 17 23  1  0  0  0  0
 18 19  1  0  0  0  0
 18 21  1  0  0  0  0
 18 24  1  0  0  0  0
 19 20  2  0  0  0  0
 19 28  1  0  0  0  0
 21 22  1  0  0  0  0
 21 25  1  0  0  0  0
 21 26  1  0  0  0  0
 22 27  1  0  0  0  0
 28 29  1  0  0  0  0
 28 33  1  0  0  0  0
 29 30  1  0  0  0  0
 29 32  1  0  0  0  0
 29 34  1  0  0  0  0
 30 31  2  0  0  0  0
 30 38  1  0  0  0  0
 32 35  1  0  0  0  0
 32 36  1  0  0  0  0
 32 37  1  0  0  0  0
 38 39  1  0  0  0  0
 38 40  1  0  0  0  0
 39 41  1  0  0  0  0
 39 42  1  0  0  0  0
 39 43  1  0  0  0  0
M  END
$$$$

  -OEChem-05262217303D

 43 42  0     1  0  0  0  0  0999 V2000
    3.7936   -2.1738    3.6625 C   0  0  0  0  0  0  0  0  0  0  0  0
    2.9671   -2.1011    4.5587 O   0  0  0  0  0  0  0  0  0  0  0  0
    5.0012   -3.0800    3.8091 C   0  0  0  0  0  0  0  0  0  0  0  0
    5.9194   -2.5038    3.6724 H   0  0  0  0  0  0  0  0  0  0  0  0
    5.0143   -3.5329    4.8043 H   0  0  0  0  0  0  0  0  0  0  0  0
    4.9631   -3.8749    3.0603 H   0  0  0  0  0  0  0  0  0  0  0  0
    3.6243   -1.4380    2.5088 N   0  0  0  0  0  0  0  0  0  0  0  0
    2.4135   -0.6711    2.1904 C   0  0  2  0  0  0  0  0  0  0  0  0
    2.1475   -0.6331    0.6710 C   0  0  0  0  0  0  0  0  0  0  0  0
    3.0567   -0.8956   -0.1087 O   0  0  0  0  0  0  0  0  0  0  0  0
    2.5746    0.7461    2.7491 C   0  0  0  0  0  0  0  0  0  0  0  0
    4.2647   -1.6252    1.7375 H   0  0  0  0  0  0  0  0  0  0  0  0
    1.5457   -1.1481    2.6588 H   0  0  0  0  0  0  0  0  0  0  0  0
    3.4351    1.2430    2.2899 H   0  0  0  0  0  0  0  0  0  0  0  0
    1.6797    1.3433    2.5510 H   0  0  0  0  0  0  0  0  0  0  0  0
    2.7306    0.7100    3.8322 H   0  0  0  0  0  0  0  0  0  0  0  0
    0.8965   -0.2594    0.2014 N   0  0  0  0  0  0  0  0  0  0  0  0
    0.3207   -0.5669   -1.1353 C   0  0  2  0  0  0  0  0  0  0  0  0
    0.1833   -2.0786   -1.4416 C   0  0  0  0  0  0  0  0  0  0  0  0
    0.7480   -2.9141   -0.7463 O   0  0  0  0  0  0  0  0  0  0  0  0
    1.0209    0.1248   -2.3203 C   0  0  0  0  0  0  0  0  0  0  0  0
    2.3580   -0.3227   -2.5283 O   0  0  0  0  0  0  0  0  0  0  0  0
    0.2221   -0.0994    0.9446 H   0  0  0  0  0  0  0  0  0  0  0  0
   -0.6987   -0.1728   -1.1186 H   0  0  0  0  0  0  0  0  0  0  0  0
    1.0420    1.2022   -2.1268 H   0  0  0  0  0  0  0  0  0  0  0  0
    0.4458   -0.0328   -3.2386 H   0  0  0  0  0  0  0  0  0  0  0  0
    2.7877   -0.5250   -1.6548 H   0  0  0  0  0  0  0  0  0  0  0  0
   -0.8377   -2.5004   -2.2820 N   0  0  0  0  0  0  0  0  0  0  0  0
   -1.2073   -3.8950   -2.6077 C   0  0  2  0  0  0  0  0  0  0  0  0
   -1.8623   -4.6811   -1.4479 C   0  0  0  0  0  0  0  0  0  0  0  0
   -2.9912   -5.1320   -1.5908 O   0  0  0  0  0  0  0  0  0  0  0  0
   -0.0155   -4.6664   -3.1939 C   0  0  0  0  0  0  0  0  0  0  0  0
   -1.3156   -1.7703   -2.8014 H   0  0  0  0  0  0  0  0  0  0  0  0
   -1.9647   -3.8432   -3.3968 H   0  0  0  0  0  0  0  0  0  0  0  0
    0.7558   -4.8443   -2.4388 H   0  0  0  0  0  0  0  0  0  0  0  0
   -0.3489   -5.6374   -3.5736 H   0  0  0  0  0  0  0  0  0  0  0  0
    0.4310   -4.1062   -4.0209 H   0  0  0  0  0  0  0  0  0  0  0  0
   -1.2058   -4.8721   -0.2490 N   0  0  0  0  0  0  0  0  0  0  0  0
   -1.7774   -5.5650    0.8965 C   0  0  0  0  0  0  0  0  0  0  0  0
   -0.3011   -4.4023   -0.1541 H   0  0  0  0  0  0  0  0  0  0  0  0
   -1.0536   -5.5968    1.7165 H   0  0  0  0  0  0  0  0  0  0  0  0
   -2.6767   -5.0483    1.2470 H   0  0  0  0  0  0  0  0  0  0  0  0
   -2.0412   -6.5936    0.6290 H   0  0  0  0  0  0  0  0  0  0  0  0
  1  2  2  0  0  0  0
  1  3  1  0  0  0  0
  1  7  1  0  0  0  0
  3  4  1  0  0  0  0
  3  5  1  0  0  0  0
  3  6  1  0  0  0  0
  7  8  1  0  0  0  0
  7 12  1  0  0  0  0
  8  9  1  0  0  0  0
  8 11  1  0  0  0  0
  8 13  1  0  0  0  0
  9 10  2  0  0  0  0
  9 17  1  0  0  0  0
 11 14  1  0  0  0  0
 11 15  1  0  0  0  0
 11 16  1  0  0  0  0
 17 18  1  0  0  0  0
 17 23  1  0  0  0  0
 18 19  1  0  0  0  0
 18 21  1  0  0  0  0
 18 24  1  0  0  0  0
 19 20  2  0  0  0  0
 19 28  1  0  0  0  0
 21 22  1  0  0  0  0
 21 25  1  0  0  0  0
 21 26  1  0  0  0  0
 22 27  1  0  0  0  0
 28 29  1  0  0  0  0
 28 33  1  0  0  0  0
 29 30  1  0  0  0  0
 29 32  1  0  0  0  0
 29 34  1  0  0  0  0
 30 31  2  0  0  0  0
 30 38  1  0  0  0  0
 32 35  1  0  0  0  0
 32 36  1  0  0  0  0
 32 37  1  0  0  0  0
 38 39  1  0  0  0  0
 38 40  1  0  0  0  0
 39 41  1  0  0  0  0
 39 42  1  0  0  0  0
 39 43  1  0  0  0  0
M  END
$$$$

  -OEChem-05262217303D

 43 42  0     1  0  0  0  0  0999 V2000
    3.8302   -2.0865    3.7056 C   0  0  0  0  0  0  0  0  0  0  0  0
    3.0160   -1.9885    4.6104 O   0  0  0  0  0  0  0  0  0  0  0  0
    5.0408   -2.9871    3.8633 C   0  0  0  0  0  0  0  0  0  0  0  0
    5.9575   -2.4093    3.7234 H   0  0  0  0  0  0  0  0  0  0  0  0
    5.0528   -3.4299    4.8630 H   0  0  0  0  0  0  0  0  0  0  0  0
    5.0075   -3.7900    3.1229 H   0  0  0  0  0  0  0  0  0  0  0  0
    3.6442   -1.3831    2.5343 N   0  0  0  0  0  0  0  0  0  0  0  0
    2.4264   -0.6286    2.2114 C   0  0  2  0  0  0  0  0  0  0  0  0
    2.1380   -0.6319    0.6956 C   0  0  0  0  0  0  0  0  0  0  0  0
    3.0363   -0.9103   -0.0913 O   0  0  0  0  0  0  0  0  0  0  0  0
    2.5910    0.8047    2.7255 C   0  0  0  0  0  0  0  0  0  0  0  0
    4.2757   -1.5888    1.7608 H   0  0  0  0  0  0  0  0  0  0  0  0
    1.5670   -1.0942    2.7063 H   0  0  0  0  0  0  0  0  0  0  0  0
    3.4428    1.2903    2.2388 H   0  0  0  0  0  0  0  0  0  0  0  0
    1.6910    1.3925    2.5227 H   0  0  0  0  0  0  0  0  0  0  0  0
    2.7629    0.8017    3.8067 H   0  0  0  0  0  0  0  0  0  0  0  0
    0.8765   -0.2860    0.2340 N   0  0  0  0  0  0  0  0  0  0  0  0
    0.3071   -0.5947   -1.1049 C   0  0  2  0  0  0  0  0  0  0  0  0
    0.2158   -2.1091   -1.4164 C   0  0  0  0  0  0  0  0  0  0  0  0
    0.5820   -2.9339   -0.5867 O   0  0  0  0  0  0  0  0  0  0  0  0
    0.9889    0.1357   -2.2789 C   0  0  0  0  0  0  0  0  0  0  0  0
    2.3389   -0.2688   -2.4918 O   0  0  0  0  0  0  0  0  0  0  0  0
    0.2006   -0.1437    0.9794 H   0  0  0  0  0  0  0  0  0  0  0  0
   -0.7260   -0.2371   -1.0868 H   0  0  0  0  0  0  0  0  0  0  0  0
    0.9787    1.2100   -2.0674 H   0  0  0  0  0  0  0  0  0  0  0  0
    0.4206   -0.0201   -3.2014 H   0  0  0  0  0  0  0  0  0  0  0  0
    2.7729   -0.4768   -1.6219 H   0  0  0  0  0  0  0  0  0  0  0  0
   -0.5686   -2.5376   -2.4784 N   0  0  0  0  0  0  0  0  0  0  0  0
   -0.8306   -3.9344   -2.8887 C   0  0  2  0  0  0  0  0  0  0  0  0
   -1.7465   -4.7378   -1.9356 C   0  0  0  0  0  0  0  0  0  0  0  0
   -2.7741   -5.2398   -2.3718 O   0  0  0  0  0  0  0  0  0  0  0  0
    0.4803   -4.6872   -3.1591 C   0  0  0  0  0  0  0  0  0  0  0  0
   -0.8665   -1.8129   -3.1246 H   0  0  0  0  0  0  0  0  0  0  0  0
   -1.3660   -3.8863   -3.8426 H   0  0  0  0  0  0  0  0  0  0  0  0
    1.0394   -4.8601   -2.2349 H   0  0  0  0  0  0  0  0  0  0  0  0
    0.2665   -5.6599   -3.6130 H   0  0  0  0  0  0  0  0  0  0  0  0
    1.1120   -4.1162   -3.8464 H   0  0  0  0  0  0  0  0  0  0  0  0
   -1.4335   -4.8968   -0.6009 N   0  0  0  0  0  0  0  0  0  0  0  0
   -2.2588   -5.6224    0.3544 C   0  0  0  0  0  0  0  0  0  0  0  0
   -0.5963   -4.4060   -0.2748 H   0  0  0  0  0  0  0  0  0  0  0  0
   -1.7664   -5.6512    1.3312 H   0  0  0  0  0  0  0  0  0  0  0  0
   -3.2315   -5.1335    0.4697 H   0  0  0  0  0  0  0  0  0  0  0  0
   -2.4188   -6.6523    0.0186 H   0  0  0  0  0  0  0  0  0  0  0  0
  1  2  2  0  0  0  0
  1  3  1  0  0  0  0
  1  7  1  0  0  0  0
  3  4  1  0  0  0  0
  3  5  1  0  0  0  0
  3  6  1  0  0  0  0
  7  8  1  0  0  0  0
  7 12  1  0  0  0  0
  8  9  1  0  0  0  0
  8 11  1  0  0  0  0
  8 13  1  0  0  0  0
  9 10  2  0  0  0  0
  9 17  1  0  0  0  0
 11 14  1  0  0  0  0
 11 15  1  0  0  0  0
 11 16  1  0  0  0  0
 17 18  1  0  0  0  0
 17 23  1  0  0  0  0
 18 19  1  0  0  0  0
 18 21  1  0  0  0  0
 18 24  1  0  0  0  0
 19 20  2  0  0  0  0
 19 28  1  0  0  0  0
 21 22  1  0  0  0  0
 21 25  1  0  0  0  0
 21 26  1  0  0  0  0
 22 27  1  0  0  0  0
 28 29  1  0  0  0  0
 28 33  1  0  0  0  0
 29 30  1  0  0  0  0
 29 32  1  0  0  0  0
 29 34  1  0  0  0  0
 30 31  2  0  0  0  0
 30 38  1  0  0  0  0
 32 35  1  0  0  0  0
 32 36  1  0  0  0  0
 32 37  1  0  0  0  0
 38 39  1  0  0  0  0
 38 40  1  0  0  0  0
 39 41  1  0  0  0  0
 39 42  1  0  0  0  0
 39 43  1  0  0  0  0
M  END
$$$$

  -OEChem-05262217303D

 43 42  0     1  0  0  0  0  0999 V2000
    3.8121   -2.0025    3.8470 C   0  0  0  0  0  0  0  0  0  0  0  0
    2.9955   -1.8628    4.7437 O   0  0  0  0  0  0  0  0  0  0  0  0
    5.0406   -2.8660    4.0608 C   0  0  0  0  0  0  0  0  0  0  0  0
    5.9454   -2.2742    3.9022 H   0  0  0  0  0  0  0  0  0  0  0  0
    5.0514   -3.2603    5.0808 H   0  0  0  0  0  0  0  0  0  0  0  0
    5.0332   -3.7038    3.3592 H   0  0  0  0  0  0  0  0  0  0  0  0
    3.6130   -1.3832    2.6314 N   0  0  0  0  0  0  0  0  0  0  0  0
    2.3824   -0.6724    2.2602 C   0  0  2  0  0  0  0  0  0  0  0  0
    2.1173   -0.7364    0.7407 C   0  0  0  0  0  0  0  0  0  0  0  0
    3.0107   -1.1114   -0.0101 O   0  0  0  0  0  0  0  0  0  0  0  0
    2.5001    0.7828    2.7257 C   0  0  0  0  0  0  0  0  0  0  0  0
    4.2513   -1.6247    1.8741 H   0  0  0  0  0  0  0  0  0  0  0  0
    1.5277   -1.1430    2.7587 H   0  0  0  0  0  0  0  0  0  0  0  0
    3.3411    1.2771    2.2288 H   0  0  0  0  0  0  0  0  0  0  0  0
    1.5847    1.3363    2.4968 H   0  0  0  0  0  0  0  0  0  0  0  0
    2.6625    0.8228    3.8076 H   0  0  0  0  0  0  0  0  0  0  0  0
    0.8706   -0.3766    0.2525 N   0  0  0  0  0  0  0  0  0  0  0  0
    0.3063   -0.6158   -1.1034 C   0  0  2  0  0  0  0  0  0  0  0  0
   -0.1132   -2.0936   -1.2944 C   0  0  0  0  0  0  0  0  0  0  0  0
   -0.1734   -2.8323   -0.3169 O   0  0  0  0  0  0  0  0  0  0  0  0
    1.1433   -0.1309   -2.3070 C   0  0  0  0  0  0  0  0  0  0  0  0
    2.3731   -0.8297   -2.4703 O   0  0  0  0  0  0  0  0  0  0  0  0
    0.1849   -0.2198    0.9866 H   0  0  0  0  0  0  0  0  0  0  0  0
   -0.6232   -0.0420   -1.1498 H   0  0  0  0  0  0  0  0  0  0  0  0
    1.3679    0.9307   -2.1597 H   0  0  0  0  0  0  0  0  0  0  0  0
    0.5614   -0.2117   -3.2304 H   0  0  0  0  0  0  0  0  0  0  0  0
    2.8083   -0.9483   -1.5838 H   0  0  0  0  0  0  0  0  0  0  0  0
   -0.6612   -2.5206   -2.4956 N   0  0  0  0  0  0  0  0  0  0  0  0
   -1.1369   -3.8818   -2.8229 C   0  0  2  0  0  0  0  0  0  0  0  0
   -2.4366   -4.3080   -2.1012 C   0  0  0  0  0  0  0  0  0  0  0  0
   -3.4192   -4.6125   -2.7643 O   0  0  0  0  0  0  0  0  0  0  0  0
   -0.0241   -4.9214   -2.6217 C   0  0  0  0  0  0  0  0  0  0  0  0
   -0.5549   -1.8783   -3.2759 H   0  0  0  0  0  0  0  0  0  0  0  0
   -1.3767   -3.8828   -3.8915 H   0  0  0  0  0  0  0  0  0  0  0  0
    0.2151   -5.0527   -1.5623 H   0  0  0  0  0  0  0  0  0  0  0  0
   -0.3405   -5.8901   -3.0208 H   0  0  0  0  0  0  0  0  0  0  0  0
    0.8847   -4.6112   -3.1466 H   0  0  0  0  0  0  0  0  0  0  0  0
   -2.5180   -4.3396   -0.7237 N   0  0  0  0  0  0  0  0  0  0  0  0
   -3.7273   -4.6729    0.0162 C   0  0  0  0  0  0  0  0  0  0  0  0
   -1.6991   -3.9896   -0.2193 H   0  0  0  0  0  0  0  0  0  0  0  0
   -3.5201   -4.6873    1.0907 H   0  0  0  0  0  0  0  0  0  0  0  0
   -4.5104   -3.9328   -0.1775 H   0  0  0  0  0  0  0  0  0  0  0  0
   -4.0953   -5.6619   -0.2765 H   0  0  0  0  0  0  0  0  0  0  0  0
  1  2  2  0  0  0  0
  1  3  1  0  0  0  0
  1  7  1  0  0  0  0
  3  4  1  0  0  0  0
  3  5  1  0  0  0  0
  3  6  1  0  0  0  0
  7  8  1  0  0  0  0
  7 12  1  0  0  0  0
  8  9  1  0  0  0  0
  8 11  1  0  0  0  0
  8 13  1  0  0  0  0
  9 10  2  0  0  0  0
  9 17  1  0  0  0  0
 11 14  1  0  0  0  0
 11 15  1  0  0  0  0
 11 16  1  0  0  0  0
 17 18  1  0  0  0  0
 17 23  1  0  0  0  0
 18 19  1  0  0  0  0
 18 21  1  0  0  0  0
 18 24  1  0  0  0  0
 19 20  2  0  0  0  0
 19 28  1  0  0  0  0
 21 22  1  0  0  0  0
 21 25  1  0  0  0  0
 21 26  1  0  0  0  0
 22 27  1  0  0  0  0
 28 29  1  0  0  0  0
 28 33  1  0  0  0  0
 29 30  1  0  0  0  0
 29 32  1  0  0  0  0
 29 34  1  0  0  0  0
 30 31  2  0  0  0  0
 30 38  1  0  0  0  0
 32 35  1  0  0  0  0
 32 36  1  0  0  0  0
 32 37  1  0  0  0  0
 38 39  1  0  0  0  0
 38 40  1  0  0  0  0
 39 41  1  0  0  0  0
 39 42  1  0  0  0  0
 39 43  1  0  0  0  0
M  END
$$$$

  -OEChem-05262217303D

 43 42  0     1  0  0  0  0  0999 V2000
    3.8458   -1.9398    3.8681 C   0  0  0  0  0  0  0  0  0  0  0  0
    3.0421   -1.7725    4.7717 O   0  0  0  0  0  0  0  0  0  0  0  0
    5.0833   -2.7879    4.0943 C   0  0  0  0  0  0  0  0  0  0  0  0
    5.9821   -2.1924    3.9168 H   0  0  0  0  0  0  0  0  0  0  0  0
    5.1033   -3.1582    5.1232 H   0  0  0  0  0  0  0  0  0  0  0  0
    5.0804   -3.6419    3.4127 H   0  0  0  0  0  0  0  0  0  0  0  0
    3.6252   -1.3621    2.6355 N   0  0  0  0  0  0  0  0  0  0  0  0
    2.3954   -0.6493    2.2643 C   0  0  2  0  0  0  0  0  0  0  0  0
    2.1122   -0.7428    0.7492 C   0  0  0  0  0  0  0  0  0  0  0  0
    2.9913   -1.1430   -0.0057 O   0  0  0  0  0  0  0  0  0  0  0  0
    2.5305    0.8146    2.6983 C   0  0  0  0  0  0  0  0  0  0  0  0
    4.2560   -1.6207    1.8776 H   0  0  0  0  0  0  0  0  0  0  0  0
    1.5425   -1.1025    2.7819 H   0  0  0  0  0  0  0  0  0  0  0  0
    3.3774    1.2881    2.1913 H   0  0  0  0  0  0  0  0  0  0  0  0
    1.6215    1.3737    2.4574 H   0  0  0  0  0  0  0  0  0  0  0  0
    2.6937    0.8766    3.7792 H   0  0  0  0  0  0  0  0  0  0  0  0
    0.8617   -0.3924    0.2651 N   0  0  0  0  0  0  0  0  0  0  0  0
    0.2997   -0.6337   -1.0910 C   0  0  2  0  0  0  0  0  0  0  0  0
   -0.0993   -2.1189   -1.2662 C   0  0  0  0  0  0  0  0  0  0  0  0
   -0.3870   -2.7740   -0.2697 O   0  0  0  0  0  0  0  0  0  0  0  0
    1.1261   -0.1347   -2.2967 C   0  0  0  0  0  0  0  0  0  0  0  0
    2.3642   -0.8182   -2.4654 O   0  0  0  0  0  0  0  0  0  0  0  0
    0.1759   -0.2310    0.9989 H   0  0  0  0  0  0  0  0  0  0  0  0
   -0.6389   -0.0738   -1.1374 H   0  0  0  0  0  0  0  0  0  0  0  0
    1.3384    0.9289   -2.1466 H   0  0  0  0  0  0  0  0  0  0  0  0
    0.5401   -0.2171   -3.2174 H   0  0  0  0  0  0  0  0  0  0  0  0
    2.7995   -0.9419   -1.5796 H   0  0  0  0  0  0  0  0  0  0  0  0
   -0.3501   -2.6475   -2.5238 N   0  0  0  0  0  0  0  0  0  0  0  0
   -0.7174   -4.0430   -2.8447 C   0  0  2  0  0  0  0  0  0  0  0  0
   -2.1436   -4.4638   -2.4201 C   0  0  0  0  0  0  0  0  0  0  0  0
   -2.9125   -4.9151   -3.2589 O   0  0  0  0  0  0  0  0  0  0  0  0
    0.3306   -5.0267   -2.3047 C   0  0  0  0  0  0  0  0  0  0  0  0
    0.0087   -2.0891   -3.2947 H   0  0  0  0  0  0  0  0  0  0  0  0
   -0.6963   -4.1293   -3.9361 H   0  0  0  0  0  0  0  0  0  0  0  0
    0.3097   -5.0721   -1.2119 H   0  0  0  0  0  0  0  0  0  0  0  0
    0.1339   -6.0320   -2.6904 H   0  0  0  0  0  0  0  0  0  0  0  0
    1.3337   -4.7245   -2.6210 H   0  0  0  0  0  0  0  0  0  0  0  0
   -2.5671   -4.3508   -1.1115 N   0  0  0  0  0  0  0  0  0  0  0  0
   -3.8932   -4.7293   -0.6443 C   0  0  0  0  0  0  0  0  0  0  0  0
   -1.9034   -3.9245   -0.4595 H   0  0  0  0  0  0  0  0  0  0  0  0
   -3.9639   -4.5919    0.4389 H   0  0  0  0  0  0  0  0  0  0  0  0
   -4.6590   -4.1109   -1.1237 H   0  0  0  0  0  0  0  0  0  0  0  0
   -4.0941   -5.7815   -0.8728 H   0  0  0  0  0  0  0  0  0  0  0  0
  1  2  2  0  0  0  0
  1  3  1  0  0  0  0
  1  7  1  0  0  0  0
  3  4  1  0  0  0  0
  3  5  1  0  0  0  0
  3  6  1  0  0  0  0
  7  8  1  0  0  0  0
  7 12  1  0  0  0  0
  8  9  1  0  0  0  0
  8 11  1  0  0  0  0
  8 13  1  0  0  0  0
  9 10  2  0  0  0  0
  9 17  1  0  0  0  0
 11 14  1  0  0  0  0
 11 15  1  0  0  0  0
 11 16  1  0  0  0  0
 17 18  1  0  0  0  0
 17 23  1  0  0  0  0
 18 19  1  0  0  0  0
 18 21  1  0  0  0  0
 18 24  1  0  0  0  0
 19 20  2  0  0  0  0
 19 28  1  0  0  0  0
 21 22  1  0  0  0  0
 21 25  1  0  0  0  0
 21 26  1  0  0  0  0
 22 27  1  0  0  0  0
 28 29  1  0  0  0  0
 28 33  1  0  0  0  0
 29 30  1  0  0  0  0
 29 32  1  0  0  0  0
 29 34  1  0  0  0  0
 30 31  2  0  0  0  0
 30 38  1  0  0  0  0
 32 35  1  0  0  0  0
 32 36  1  0  0  0  0
 32 37  1  0  0  0  0
 38 39  1  0  0  0  0
 38 40  1  0  0  0  0
 39 41  1  0  0  0  0
 39 42  1  0  0  0  0
 39 43  1  0  0  0  0
M  END
$$$$

  -OEChem-05262217303D

 43 42  0     1  0  0  0  0  0999 V2000
    3.8670   -1.8574    3.9146 C   0  0  0  0  0  0  0  0  0  0  0  0
    3.0786   -1.6374    4.8201 O   0  0  0  0  0  0  0  0  0  0  0  0
    5.0903   -2.7208    4.1594 C   0  0  0  0  0  0  0  0  0  0  0  0
    5.9990   -2.1392    3.9853 H   0  0  0  0  0  0  0  0  0  0  0  0
    5.0958   -3.0829    5.1915 H   0  0  0  0  0  0  0  0  0  0  0  0
    5.0816   -3.5809    3.4853 H   0  0  0  0  0  0  0  0  0  0  0  0
    3.6409   -1.3271    2.6621 N   0  0  0  0  0  0  0  0  0  0  0  0
    2.4217   -0.6040    2.2775 C   0  0  2  0  0  0  0  0  0  0  0  0
    2.1035   -0.7716    0.7765 C   0  0  0  0  0  0  0  0  0  0  0  0
    2.9636   -1.2086    0.0200 O   0  0  0  0  0  0  0  0  0  0  0  0
    2.6051    0.8776    2.6235 C   0  0  0  0  0  0  0  0  0  0  0  0
    4.2613   -1.6224    1.9094 H   0  0  0  0  0  0  0  0  0  0  0  0
    1.5687   -1.0023    2.8380 H   0  0  0  0  0  0  0  0  0  0  0  0
    3.4486    1.2997    2.0678 H   0  0  0  0  0  0  0  0  0  0  0  0
    1.7036    1.4458    2.3750 H   0  0  0  0  0  0  0  0  0  0  0  0
    2.8002    0.9957    3.6942 H   0  0  0  0  0  0  0  0  0  0  0  0
    0.8461   -0.4374    0.3014 N   0  0  0  0  0  0  0  0  0  0  0  0
    0.2816   -0.6757   -1.0522 C   0  0  2  0  0  0  0  0  0  0  0  0
   -0.0908   -2.1659   -1.2285 C   0  0  0  0  0  0  0  0  0  0  0  0
   -0.5818   -2.7618   -0.2758 O   0  0  0  0  0  0  0  0  0  0  0  0
    1.0930   -0.1498   -2.2566 C   0  0  0  0  0  0  0  0  0  0  0  0
    2.3429   -0.8108   -2.4364 O   0  0  0  0  0  0  0  0  0  0  0  0
    0.1669   -0.2483    1.0348 H   0  0  0  0  0  0  0  0  0  0  0  0
   -0.6675   -0.1338   -1.0908 H   0  0  0  0  0  0  0  0  0  0  0  0
    1.2868    0.9160   -2.0985 H   0  0  0  0  0  0  0  0  0  0  0  0
    0.5028   -0.2360   -3.1747 H   0  0  0  0  0  0  0  0  0  0  0  0
    2.7802   -0.9445   -1.5534 H   0  0  0  0  0  0  0  0  0  0  0  0
   -0.0405   -2.7755   -2.4727 N   0  0  0  0  0  0  0  0  0  0  0  0
   -0.3104   -4.1956   -2.7803 C   0  0  2  0  0  0  0  0  0  0  0  0
   -1.7888   -4.6323   -2.6553 C   0  0  0  0  0  0  0  0  0  0  0  0
   -2.3328   -5.1891   -3.6000 O   0  0  0  0  0  0  0  0  0  0  0  0
    0.6063   -5.1180   -1.9643 C   0  0  0  0  0  0  0  0  0  0  0  0
    0.5134   -2.2639   -3.1589 H   0  0  0  0  0  0  0  0  0  0  0  0
   -0.0486   -4.3414   -3.8335 H   0  0  0  0  0  0  0  0  0  0  0  0
    0.3542   -5.0906   -0.9004 H   0  0  0  0  0  0  0  0  0  0  0  0
    0.5030   -6.1506   -2.3120 H   0  0  0  0  0  0  0  0  0  0  0  0
    1.6517   -4.8167   -2.0828 H   0  0  0  0  0  0  0  0  0  0  0  0
   -2.5066   -4.4276   -1.4943 N   0  0  0  0  0  0  0  0  0  0  0  0
   -3.8921   -4.8344   -1.3072 C   0  0  0  0  0  0  0  0  0  0  0  0
   -2.0169   -3.9362   -0.7421 H   0  0  0  0  0  0  0  0  0  0  0  0
   -4.2178   -4.6066   -0.2878 H   0  0  0  0  0  0  0  0  0  0  0  0
   -4.5448   -4.3031   -2.0075 H   0  0  0  0  0  0  0  0  0  0  0  0
   -4.0004   -5.9117   -1.4713 H   0  0  0  0  0  0  0  0  0  0  0  0
  1  2  2  0  0  0  0
  1  3  1  0  0  0  0
  1  7  1  0  0  0  0
  3  4  1  0  0  0  0
  3  5  1  0  0  0  0
  3  6  1  0  0  0  0
  7  8  1  0  0  0  0
  7 12  1  0  0  0  0
  8  9  1  0  0  0  0
  8 11  1  0  0  0  0
  8 13  1  0  0  0  0
  9 10  2  0  0  0  0
  9 17  1  0  0  0  0
 11 14  1  0  0  0  0
 11 15  1  0  0  0  0
 11 16  1  0  0  0  0
 17 18  1  0  0  0  0
 17 23  1  0  0  0  0
 18 19  1  0  0  0  0
 18 21  1  0  0  0  0
 18 24  1  0  0  0  0
 19 20  2  0  0  0  0
 19 28  1  0  0  0  0
 21 22  1  0  0  0  0
 21 25  1  0  0  0  0
 21 26  1  0  0  0  0
 22 27  1  0  0  0  0
 28 29  1  0  0  0  0
 28 33  1  0  0  0  0
 29 30  1  0  0  0  0
 29 32  1  0  0  0  0
 29 34  1  0  0  0  0
 30 31  2  0  0  0  0
 30 38  1  0  0  0  0
 32 35  1  0  0  0  0
 32 36  1  0  0  0  0
 32 37  1  0  0  0  0
 38 39  1  0  0  0  0
 38 40  1  0  0  0  0
 39 41  1  0  0  0  0
 39 42  1  0  0  0  0
 39 43  1  0  0  0  0
M  END
$$$$

  -OEChem-05262217303D

 43 42  0     1  0  0  0  0  0999 V2000
    3.8770   -1.8124    3.9362 C   0  0  0  0  0  0  0  0  0  0  0  0
    3.0762   -1.5956    4.8316 O   0  0  0  0  0  0  0  0  0  0  0  0
    5.1191   -2.6403    4.2078 C   0  0  0  0  0  0  0  0  0  0  0  0
    6.0144   -2.0492    4.0004 H   0  0  0  0  0  0  0  0  0  0  0  0
    5.1402   -2.9561    5.2548 H   0  0  0  0  0  0  0  0  0  0  0  0
    5.1220   -3.5293    3.5723 H   0  0  0  0  0  0  0  0  0  0  0  0
    3.6486   -1.3070    2.6734 N   0  0  0  0  0  0  0  0  0  0  0  0
    2.4266   -0.5949    2.2756 C   0  0  2  0  0  0  0  0  0  0  0  0
    2.1151   -0.7694    0.7741 C   0  0  0  0  0  0  0  0  0  0  0  0
    2.9801   -1.2000    0.0198 O   0  0  0  0  0  0  0  0  0  0  0  0
    2.5974    0.8895    2.6161 C   0  0  0  0  0  0  0  0  0  0  0  0
    4.2852   -1.5921    1.9303 H   0  0  0  0  0  0  0  0  0  0  0  0
    1.5734   -0.9971    2.8333 H   0  0  0  0  0  0  0  0  0  0  0  0
    3.4470    1.3124    2.0701 H   0  0  0  0  0  0  0  0  0  0  0  0
    1.6973    1.4528    2.3521 H   0  0  0  0  0  0  0  0  0  0  0  0
    2.7762    1.0143    3.6891 H   0  0  0  0  0  0  0  0  0  0  0  0
    0.8525   -0.4579    0.2978 N   0  0  0  0  0  0  0  0  0  0  0  0
    0.2872   -0.7167   -1.0507 C   0  0  2  0  0  0  0  0  0  0  0  0
   -0.0631   -2.2123   -1.2052 C   0  0  0  0  0  0  0  0  0  0  0  0
   -0.7301   -2.7425   -0.3239 O   0  0  0  0  0  0  0  0  0  0  0  0
    1.0851   -0.1867   -2.2625 C   0  0  0  0  0  0  0  0  0  0  0  0
    2.3471   -0.8285   -2.4402 O   0  0  0  0  0  0  0  0  0  0  0  0
    0.1729   -0.2600    1.0289 H   0  0  0  0  0  0  0  0  0  0  0  0
   -0.6716   -0.1915   -1.0910 H   0  0  0  0  0  0  0  0  0  0  0  0
    1.2578    0.8846   -2.1180 H   0  0  0  0  0  0  0  0  0  0  0  0
    0.4921   -0.2997   -3.1765 H   0  0  0  0  0  0  0  0  0  0  0  0
    2.7938   -0.9354   -1.5582 H   0  0  0  0  0  0  0  0  0  0  0  0
    0.2741   -2.9184   -2.3488 N   0  0  0  0  0  0  0  0  0  0  0  0
    0.0722   -4.3600   -2.6018 C   0  0  2  0  0  0  0  0  0  0  0  0
   -1.4020   -4.7976   -2.7676 C   0  0  0  0  0  0  0  0  0  0  0  0
   -1.7422   -5.4036   -3.7752 O   0  0  0  0  0  0  0  0  0  0  0  0
    0.7801   -5.2072   -1.5350 C   0  0  0  0  0  0  0  0  0  0  0  0
    0.9534   -2.4385   -2.9427 H   0  0  0  0  0  0  0  0  0  0  0  0
    0.5575   -4.5817   -3.5582 H   0  0  0  0  0  0  0  0  0  0  0  0
    0.2874   -5.1154   -0.5627 H   0  0  0  0  0  0  0  0  0  0  0  0
    0.7664   -6.2625   -1.8253 H   0  0  0  0  0  0  0  0  0  0  0  0
    1.8224   -4.8912   -1.4291 H   0  0  0  0  0  0  0  0  0  0  0  0
   -2.3442   -4.5306   -1.7946 N   0  0  0  0  0  0  0  0  0  0  0  0
   -3.7501   -4.8951   -1.8947 C   0  0  0  0  0  0  0  0  0  0  0  0
   -2.0204   -3.9823   -0.9936 H   0  0  0  0  0  0  0  0  0  0  0  0
   -4.2754   -4.6232   -0.9742 H   0  0  0  0  0  0  0  0  0  0  0  0
   -4.2226   -4.3724   -2.7326 H   0  0  0  0  0  0  0  0  0  0  0  0
   -3.8559   -5.9743   -2.0465 H   0  0  0  0  0  0  0  0  0  0  0  0
  1  2  2  0  0  0  0
  1  3  1  0  0  0  0
  1  7  1  0  0  0  0
  3  4  1  0  0  0  0
  3  5  1  0  0  0  0
  3  6  1  0  0  0  0
  7  8  1  0  0  0  0
  7 12  1  0  0  0  0
  8  9  1  0  0  0  0
  8 11  1  0  0  0  0
  8 13  1  0  0  0  0
  9 10  2  0  0  0  0
  9 17  1  0  0  0  0
 11 14  1  0  0  0  0
 11 15  1  0  0  0  0
 11 16  1  0  0  0  0
 17 18  1  0  0  0  0
 17 23  1  0  0  0  0
 18 19  1  0  0  0  0
 18 21  1  0  0  0  0
 18 24  1  0  0  0  0
 19 20  2  0  0  0  0
 19 28  1  0  0  0  0
 21 22  1  0  0  0  0
 21 25  1  0  0  0  0
 21 26  1  0  0  0  0
 22 27  1  0  0  0  0
 28 29  1  0  0  0  0
 28 33  1  0  0  0  0
 29 30  1  0  0  0  0
 29 32  1  0  0  0  0
 29 34  1  0  0  0  0
 30 31  2  0  0  0  0
 30 38  1  0  0  0  0
 32 35  1  0  0  0  0
 32 36  1  0  0  0  0
 32 37  1  0  0  0  0
 38 39  1  0  0  0  0
 38 40  1  0  0  0  0
 39 41  1  0  0  0  0
 39 42  1  0  0  0  0
 39 43  1  0  0  0  0
M  END
$$$$

  -OEChem-05262217303D

 43 42  0     1  0  0  0  0  0999 V2000
    3.8968   -1.7354    3.9884 C   0  0  0  0  0  0  0  0  0  0  0  0
    3.1037   -1.4810    4.8806 O   0  0  0  0  0  0  0  0  0  0  0  0
    5.1295   -2.5709    4.2778 C   0  0  0  0  0  0  0  0  0  0  0  0
    6.0312   -2.0034    4.0352 H   0  0  0  0  0  0  0  0  0  0  0  0
    5.1593   -2.8438    5.3364 H   0  0  0  0  0  0  0  0  0  0  0  0
    5.1099   -3.4846    3.6792 H   0  0  0  0  0  0  0  0  0  0  0  0
    3.6669   -1.2664    2.7119 N   0  0  0  0  0  0  0  0  0  0  0  0
    2.4513   -0.5519    2.2990 C   0  0  2  0  0  0  0  0  0  0  0  0
    2.1125   -0.7955    0.8128 C   0  0  0  0  0  0  0  0  0  0  0  0
    2.9622   -1.2650    0.0645 O   0  0  0  0  0  0  0  0  0  0  0  0
    2.6589    0.9428    2.5640 C   0  0  0  0  0  0  0  0  0  0  0  0
    4.2971   -1.5801    1.9750 H   0  0  0  0  0  0  0  0  0  0  0  0
    1.6002   -0.9085    2.8900 H   0  0  0  0  0  0  0  0  0  0  0  0
    3.5065    1.3204    1.9831 H   0  0  0  0  0  0  0  0  0  0  0  0
    1.7658    1.5115    2.2891 H   0  0  0  0  0  0  0  0  0  0  0  0
    2.8613    1.1148    3.6261 H   0  0  0  0  0  0  0  0  0  0  0  0
    0.8461   -0.4966    0.3383 N   0  0  0  0  0  0  0  0  0  0  0  0
    0.2755   -0.7647   -1.0058 C   0  0  2  0  0  0  0  0  0  0  0  0
   -0.0695   -2.2600   -1.1661 C   0  0  0  0  0  0  0  0  0  0  0  0
   -0.8946   -2.7457   -0.4017 O   0  0  0  0  0  0  0  0  0  0  0  0
    1.0712   -0.2219   -2.2145 C   0  0  0  0  0  0  0  0  0  0  0  0
    2.3436   -0.8464   -2.3939 O   0  0  0  0  0  0  0  0  0  0  0  0
    0.1755   -0.2493    1.0626 H   0  0  0  0  0  0  0  0  0  0  0  0
   -0.6861   -0.2441   -1.0438 H   0  0  0  0  0  0  0  0  0  0  0  0
    1.2272    0.8519   -2.0702 H   0  0  0  0  0  0  0  0  0  0  0  0
    0.4811   -0.3458   -3.1288 H   0  0  0  0  0  0  0  0  0  0  0  0
    2.7892   -0.9545   -1.5118 H   0  0  0  0  0  0  0  0  0  0  0  0
    0.5166   -3.0347   -2.1535 N   0  0  0  0  0  0  0  0  0  0  0  0
    0.3887   -4.4930   -2.3516 C   0  0  2  0  0  0  0  0  0  0  0  0
   -1.0099   -4.9822   -2.7957 C   0  0  0  0  0  0  0  0  0  0  0  0
   -1.1094   -5.7336   -3.7570 O   0  0  0  0  0  0  0  0  0  0  0  0
    0.8636   -5.2557   -1.1076 C   0  0  0  0  0  0  0  0  0  0  0  0
    1.2671   -2.5596   -2.6616 H   0  0  0  0  0  0  0  0  0  0  0  0
    1.0692   -4.7586   -3.1672 H   0  0  0  0  0  0  0  0  0  0  0  0
    0.1753   -5.1166   -0.2687 H   0  0  0  0  0  0  0  0  0  0  0  0
    0.9224   -6.3267   -1.3263 H   0  0  0  0  0  0  0  0  0  0  0  0
    1.8566   -4.9090   -0.8058 H   0  0  0  0  0  0  0  0  0  0  0  0
   -2.1518   -4.6100   -2.1151 N   0  0  0  0  0  0  0  0  0  0  0  0
   -3.4947   -5.0519   -2.4635 C   0  0  0  0  0  0  0  0  0  0  0  0
   -2.0162   -3.9886   -1.3138 H   0  0  0  0  0  0  0  0  0  0  0  0
   -4.2183   -4.6588   -1.7430 H   0  0  0  0  0  0  0  0  0  0  0  0
   -3.7687   -4.6940   -3.4613 H   0  0  0  0  0  0  0  0  0  0  0  0
   -3.5539   -6.1452   -2.4518 H   0  0  0  0  0  0  0  0  0  0  0  0
  1  2  2  0  0  0  0
  1  3  1  0  0  0  0
  1  7  1  0  0  0  0
  3  4  1  0  0  0  0
  3  5  1  0  0  0  0
  3  6  1  0  0  0  0
  7  8  1  0  0  0  0
  7 12  1  0  0  0  0
  8  9  1  0  0  0  0
  8 11  1  0  0  0  0
  8 13  1  0  0  0  0
  9 10  2  0  0  0  0
  9 17  1  0  0  0  0
 11 14  1  0  0  0  0
 11 15  1  0  0  0  0
 11 16  1  0  0  0  0
 17 18  1  0  0  0  0
 17 23  1  0  0  0  0
 18 19  1  0  0  0  0
 18 21  1  0  0  0  0
 18 24  1  0  0  0  0
 19 20  2  0  0  0  0
 19 28  1  0  0  0  0
 21 22  1  0  0  0  0
 21 25  1  0  0  0  0
 21 26  1  0  0  0  0
 22 27  1  0  0  0  0
 28 29  1  0  0  0  0
 28 33  1  0  0  0  0
 29 30  1  0  0  0  0
 29 32  1  0  0  0  0
 29 34  1  0  0  0  0
 30 31  2  0  0  0  0
 30 38  1  0  0  0  0
 32 35  1  0  0  0  0
 32 36  1  0  0  0  0
 32 37  1  0  0  0  0
 38 39  1  0  0  0  0
 38 40  1  0  0  0  0
 39 41  1  0  0  0  0
 39 42  1  0  0  0  0
 39 43  1  0  0  0  0
M  END
$$$$

  -OEChem-05262217303D

 43 42  0     1  0  0  0  0  0999 V2000
    3.8920   -1.6750    4.0233 C   0  0  0  0  0  0  0  0  0  0  0  0
    3.1017   -1.3842    4.9068 O   0  0  0  0  0  0  0  0  0  0  0  0
    5.1057   -2.5297    4.3362 C   0  0  0  0  0  0  0  0  0  0  0  0
    6.0205   -1.9764    4.1101 H   0  0  0  0  0  0  0  0  0  0  0  0
    5.1119   -2.8023    5.3954 H   0  0  0  0  0  0  0  0  0  0  0  0
    5.0832   -3.4438    3.7380 H   0  0  0  0  0  0  0  0  0  0  0  0
    3.6754   -1.2307    2.7357 N   0  0  0  0  0  0  0  0  0  0  0  0
    2.4748   -0.5030    2.3026 C   0  0  2  0  0  0  0  0  0  0  0  0
    2.1147   -0.8019    0.8319 C   0  0  0  0  0  0  0  0  0  0  0  0
    2.9530   -1.3007    0.0898 O   0  0  0  0  0  0  0  0  0  0  0  0
    2.7241    0.9958    2.5003 C   0  0  0  0  0  0  0  0  0  0  0  0
    4.3012   -1.5744    2.0086 H   0  0  0  0  0  0  0  0  0  0  0  0
    1.6201   -0.8093    2.9158 H   0  0  0  0  0  0  0  0  0  0  0  0
    3.5733    1.3262    1.8933 H   0  0  0  0  0  0  0  0  0  0  0  0
    1.8420    1.5754    2.2118 H   0  0  0  0  0  0  0  0  0  0  0  0
    2.9447    1.2078    3.5517 H   0  0  0  0  0  0  0  0  0  0  0  0
    0.8426   -0.5182    0.3638 N   0  0  0  0  0  0  0  0  0  0  0  0
    0.2634   -0.8005   -0.9736 C   0  0  2  0  0  0  0  0  0  0  0  0
   -0.0744   -2.2961   -1.1343 C   0  0  0  0  0  0  0  0  0  0  0  0
   -1.0310   -2.7407   -0.5119 O   0  0  0  0  0  0  0  0  0  0  0  0
    1.0514   -0.2497   -2.1839 C   0  0  0  0  0  0  0  0  0  0  0  0
    2.3330   -0.8571   -2.3664 O   0  0  0  0  0  0  0  0  0  0  0  0
    0.1836   -0.2279    1.0829 H   0  0  0  0  0  0  0  0  0  0  0  0
   -0.7020   -0.2863   -1.0072 H   0  0  0  0  0  0  0  0  0  0  0  0
    1.1912    0.8273   -2.0465 H   0  0  0  0  0  0  0  0  0  0  0  0
    0.4613   -0.3895   -3.0960 H   0  0  0  0  0  0  0  0  0  0  0  0
    2.7870   -0.9488   -1.4873 H   0  0  0  0  0  0  0  0  0  0  0  0
    0.7121   -3.1337   -1.9064 N   0  0  0  0  0  0  0  0  0  0  0  0
    0.6415   -4.6051   -2.0086 C   0  0  2  0  0  0  0  0  0  0  0  0
   -0.6296   -5.1639   -2.6903 C   0  0  0  0  0  0  0  0  0  0  0  0
   -0.5197   -6.0145   -3.5638 O   0  0  0  0  0  0  0  0  0  0  0  0
    0.8540   -5.2522   -0.6340 C   0  0  0  0  0  0  0  0  0  0  0  0
    1.5110   -2.6697   -2.3462 H   0  0  0  0  0  0  0  0  0  0  0  0
    1.4795   -4.9154   -2.6414 H   0  0  0  0  0  0  0  0  0  0  0  0
    0.0049   -5.0629    0.0290 H   0  0  0  0  0  0  0  0  0  0  0  0
    0.9655   -6.3355   -0.7439 H   0  0  0  0  0  0  0  0  0  0  0  0
    1.7593   -4.8557   -0.1641 H   0  0  0  0  0  0  0  0  0  0  0  0
   -1.8914   -4.7457   -2.3174 N   0  0  0  0  0  0  0  0  0  0  0  0
   -3.1272   -5.2519   -2.8982 C   0  0  0  0  0  0  0  0  0  0  0  0
   -1.9330   -4.0559   -1.5631 H   0  0  0  0  0  0  0  0  0  0  0  0
   -3.9899   -4.7966   -2.4028 H   0  0  0  0  0  0  0  0  0  0  0  0
   -3.1743   -5.0125   -3.9654 H   0  0  0  0  0  0  0  0  0  0  0  0
   -3.1923   -6.3382   -2.7764 H   0  0  0  0  0  0  0  0  0  0  0  0
  1  2  2  0  0  0  0
  1  3  1  0  0  0  0
  1  7  1  0  0  0  0
  3  4  1  0  0  0  0
  3  5  1  0  0  0  0
  3  6  1  0  0  0  0
  7  8  1  0  0  0  0
  7 12  1  0  0  0  0
  8  9  1  0  0  0  0
  8 11  1  0  0  0  0
  8 13  1  0  0  0  0
  9 10  2  0  0  0  0
  9 17  1  0  0  0  0
 11 14  1  0  0  0  0
 11 15  1  0  0  0  0
 11 16  1  0  0  0  0
 17 18  1  0  0  0  0
 17 23  1  0  0  0  0
 18 19  1  0  0  0  0
 18 21  1  0  0  0  0
 18 24  1  0  0  0  0
 19 20  2  0  0  0  0
 19 28  1  0  0  0  0
 21 22  1  0  0  0  0
 21 25  1  0  0  0  0
 21 26  1  0  0  0  0
 22 27  1  0  0  0  0
 28 29  1  0  0  0  0
 28 33  1  0  0  0  0
 29 30  1  0  0  0  0
 29 32  1  0  0  0  0
 29 34  1  0  0  0  0
 30 31  2  0  0  0  0
 30 38  1  0  0  0  0
 32 35  1  0  0  0  0
 32 36  1  0  0  0  0
 32 37  1  0  0  0  0
 38 39  1  0  0  0  0
 38 40  1  0  0  0  0
 39 41  1  0  0  0  0
 39 42  1  0  0  0  0
 39 43  1  0  0  0  0
M  END
$$$$

  -OEChem-05262217303D

 43 42  0     1  0  0  0  0  0999 V2000
    3.9481   -1.3123    4.1525 C   0  0  0  0  0  0  0  0  0  0  0  0
    3.1703   -0.8603    4.9776 O   0  0  0  0  0  0  0  0  0  0  0  0
    5.0368   -2.2768    4.5832 C   0  0  0  0  0  0  0  0  0  0  0  0
    6.0165   -1.8855    4.2984 H   0  0  0  0  0  0  0  0  0  0  0  0
    5.0134   -2.4118    5.6681 H   0  0  0  0  0  0  0  0  0  0  0  0
    4.8863   -3.2473    4.1044 H   0  0  0  0  0  0  0  0  0  0  0  0
    3.8371   -0.9582    2.8239 N   0  0  0  0  0  0  0  0  0  0  0  0
    2.7009   -0.2138    2.2618 C   0  0  2  0  0  0  0  0  0  0  0  0
    2.0076   -0.9905    1.1246 C   0  0  0  0  0  0  0  0  0  0  0  0
    2.6110   -1.8775    0.5245 O   0  0  0  0  0  0  0  0  0  0  0  0
    3.2287    1.1236    1.7401 C   0  0  0  0  0  0  0  0  0  0  0  0
    4.4000   -1.4946    2.1662 H   0  0  0  0  0  0  0  0  0  0  0  0
    1.9483   -0.0198    3.0333 H   0  0  0  0  0  0  0  0  0  0  0  0
    3.9672    0.9613    0.9482 H   0  0  0  0  0  0  0  0  0  0  0  0
    2.4111    1.7267    1.3337 H   0  0  0  0  0  0  0  0  0  0  0  0
    3.7030    1.6846    2.5514 H   0  0  0  0  0  0  0  0  0  0  0  0
    0.6791   -0.7440    0.8181 N   0  0  0  0  0  0  0  0  0  0  0  0
    0.0794   -1.0509   -0.4959 C   0  0  2  0  0  0  0  0  0  0  0  0
   -0.1621   -2.5585   -0.6856 C   0  0  0  0  0  0  0  0  0  0  0  0
   -1.2931   -3.0039   -0.5365 O   0  0  0  0  0  0  0  0  0  0  0  0
    0.7046   -0.3268   -1.7100 C   0  0  0  0  0  0  0  0  0  0  0  0
    2.0546   -0.6813   -2.0211 O   0  0  0  0  0  0  0  0  0  0  0  0
    0.2292   -0.0248    1.3780 H   0  0  0  0  0  0  0  0  0  0  0  0
   -0.9327   -0.6366   -0.4454 H   0  0  0  0  0  0  0  0  0  0  0  0
    0.6756    0.7500   -1.5156 H   0  0  0  0  0  0  0  0  0  0  0  0
    0.0830   -0.5145   -2.5920 H   0  0  0  0  0  0  0  0  0  0  0  0
    2.1072   -1.5700   -2.4142 H   0  0  0  0  0  0  0  0  0  0  0  0
    0.8411   -3.3349   -1.2393 N   0  0  0  0  0  0  0  0  0  0  0  0
    0.7915   -4.7892   -1.4954 C   0  0  2  0  0  0  0  0  0  0  0  0
   -0.1513   -5.2299   -2.6396 C   0  0  0  0  0  0  0  0  0  0  0  0
    0.2714   -5.9768   -3.5126 O   0  0  0  0  0  0  0  0  0  0  0  0
    0.4855   -5.5625   -0.2055 C   0  0  0  0  0  0  0  0  0  0  0  0
    1.7642   -2.9555   -1.0075 H   0  0  0  0  0  0  0  0  0  0  0  0
    1.7974   -5.0844   -1.8121 H   0  0  0  0  0  0  0  0  0  0  0  0
   -0.5443   -5.3952    0.1233 H   0  0  0  0  0  0  0  0  0  0  0  0
    0.6195   -6.6358   -0.3720 H   0  0  0  0  0  0  0  0  0  0  0  0
    1.1627   -5.2494    0.5950 H   0  0  0  0  0  0  0  0  0  0  0  0
   -1.4664   -4.8135   -2.6917 N   0  0  0  0  0  0  0  0  0  0  0  0
   -2.4175   -5.2273   -3.7133 C   0  0  0  0  0  0  0  0  0  0  0  0
   -1.7757   -4.2017   -1.9319 H   0  0  0  0  0  0  0  0  0  0  0  0
   -3.3955   -4.7754   -3.5221 H   0  0  0  0  0  0  0  0  0  0  0  0
   -2.0767   -4.9112   -4.7044 H   0  0  0  0  0  0  0  0  0  0  0  0
   -2.5332   -6.3159   -3.7098 H   0  0  0  0  0  0  0  0  0  0  0  0
  1  2  2  0  0  0  0
  1  3  1  0  0  0  0
  1  7  1  0  0  0  0
  3  4  1  0  0  0  0
  3  5  1  0  0  0  0
  3  6  1  0  0  0  0
  7  8  1  0  0  0  0
  7 12  1  0  0  0  0
  8  9  1  0  0  0  0
  8 11  1  0  0  0  0
  8 13  1  0  0  0  0
  9 10  2  0  0  0  0
  9 17  1  0  0  0  0
 11 14  1  0  0  0  0
 11 15  1  0  0  0  0
 11 16  1  0  0  0  0
 17 18  1  0  0  0  0
 17 23  1  0  0  0  0
 18 19  1  0  0  0  0
 18 21  1  0  0  0  0
 18 24  1  0  0  0  0
 19 20  2  0  0  0  0
 19 28  1  0  0  0  0
 21 22  1  0  0  0  0
 21 25  1  0  0  0  0
 21 26  1  0  0  0  0
 22 27  1  0  0  0  0
 28 29  1  0  0  0  0
 28 33  1  0  0  0  0
 29 30  1  0  0  0  0
 29 32  1  0  0  0  0
 29 34  1  0  0  0  0
 30 31  2  0  0  0  0
 30 38  1  0  0  0  0
 32 35  1  0  0  0  0
 32 36  1  0  0  0  0
 32 37  1  0  0  0  0
 38 39  1  0  0  0  0
 38 40  1  0  0  0  0
 39 41  1  0  0  0  0
 39 42  1  0  0  0  0
 39 43  1  0  0  0  0
M  END
$$$$

  -OEChem-05262217303D

 43 42  0     1  0  0  0  0  0999 V2000
    3.7399   -1.3689    4.0762 C   0  0  0  0  0  0  0  0  0  0  0  0
    2.7189   -1.1849    4.7199 O   0  0  0  0  0  0  0  0  0  0  0  0
    4.8090   -2.3114    4.5967 C   0  0  0  0  0  0  0  0  0  0  0  0
    5.7566   -1.7781    4.7055 H   0  0  0  0  0  0  0  0  0  0  0  0
    4.5170   -2.7122    5.5716 H   0  0  0  0  0  0  0  0  0  0  0  0
    4.9442   -3.1431    3.9007 H   0  0  0  0  0  0  0  0  0  0  0  0
    3.9148   -0.7404    2.8604 N   0  0  0  0  0  0  0  0  0  0  0  0
    2.8345   -0.0204    2.1704 C   0  0  2  0  0  0  0  0  0  0  0  0
    2.0994   -0.9071    1.1436 C   0  0  0  0  0  0  0  0  0  0  0  0
    2.6927   -1.8309    0.5932 O   0  0  0  0  0  0  0  0  0  0  0  0
    3.4531    1.1906    1.4685 C   0  0  0  0  0  0  0  0  0  0  0  0
    4.6701   -1.1012    2.2827 H   0  0  0  0  0  0  0  0  0  0  0  0
    2.0983    0.3433    2.8950 H   0  0  0  0  0  0  0  0  0  0  0  0
    4.1842    0.8691    0.7194 H   0  0  0  0  0  0  0  0  0  0  0  0
    2.6784    1.7777    0.9654 H   0  0  0  0  0  0  0  0  0  0  0  0
    3.9575    1.8345    2.1958 H   0  0  0  0  0  0  0  0  0  0  0  0
    0.7630   -0.6804    0.8525 N   0  0  0  0  0  0  0  0  0  0  0  0
    0.1054   -1.0637   -0.4164 C   0  0  2  0  0  0  0  0  0  0  0  0
   -0.1750   -2.5718   -0.5472 C   0  0  0  0  0  0  0  0  0  0  0  0
   -1.3361   -2.9528   -0.6242 O   0  0  0  0  0  0  0  0  0  0  0  0
    0.7037   -0.4297   -1.6899 C   0  0  0  0  0  0  0  0  0  0  0  0
    2.0364   -0.8400   -2.0061 O   0  0  0  0  0  0  0  0  0  0  0  0
    0.3285    0.0672    1.3872 H   0  0  0  0  0  0  0  0  0  0  0  0
   -0.8952   -0.6243   -0.3523 H   0  0  0  0  0  0  0  0  0  0  0  0
    0.6990    0.6587   -1.5717 H   0  0  0  0  0  0  0  0  0  0  0  0
    0.0548   -0.6682   -2.5394 H   0  0  0  0  0  0  0  0  0  0  0  0
    2.0883   -1.8008   -2.1564 H   0  0  0  0  0  0  0  0  0  0  0  0
    0.8673   -3.4426   -0.8136 N   0  0  0  0  0  0  0  0  0  0  0  0
    0.7827   -4.9094   -0.9647 C   0  0  2  0  0  0  0  0  0  0  0  0
    0.0985   -5.3944   -2.2633 C   0  0  0  0  0  0  0  0  0  0  0  0
    0.6748   -6.2003   -2.9824 O   0  0  0  0  0  0  0  0  0  0  0  0
    0.1397   -5.5551    0.2710 C   0  0  0  0  0  0  0  0  0  0  0  0
    1.7727   -3.0686   -0.5091 H   0  0  0  0  0  0  0  0  0  0  0  0
    1.8125   -5.2781   -1.0161 H   0  0  0  0  0  0  0  0  0  0  0  0
   -0.9244   -5.3105    0.3400 H   0  0  0  0  0  0  0  0  0  0  0  0
    0.2350   -6.6441    0.2170 H   0  0  0  0  0  0  0  0  0  0  0  0
    0.6373   -5.2091    1.1823 H   0  0  0  0  0  0  0  0  0  0  0  0
   -1.1491   -4.9350   -2.6345 N   0  0  0  0  0  0  0  0  0  0  0  0
   -1.8394   -5.3385   -3.8513 C   0  0  0  0  0  0  0  0  0  0  0  0
   -1.5825   -4.2500   -2.0097 H   0  0  0  0  0  0  0  0  0  0  0  0
   -1.9782   -6.4245   -3.8705 H   0  0  0  0  0  0  0  0  0  0  0  0
   -2.8237   -4.8629   -3.9024 H   0  0  0  0  0  0  0  0  0  0  0  0
   -1.2633   -5.0403   -4.7333 H   0  0  0  0  0  0  0  0  0  0  0  0
  1  2  2  0  0  0  0
  1  3  1  0  0  0  0
  1  7  1  0  0  0  0
  3  4  1  0  0  0  0
  3  5  1  0  0  0  0
  3  6  1  0  0  0  0
  7  8  1  0  0  0  0
  7 12  1  0  0  0  0
  8  9  1  0  0  0  0
  8 11  1  0  0  0  0
  8 13  1  0  0  0  0
  9 10  2  0  0  0  0
  9 17  1  0  0  0  0
 11 14  1  0  0  0  0
 11 15  1  0  0  0  0
 11 16  1  0  0  0  0
 17 18  1  0  0  0  0
 17 23  1  0  0  0  0
 18 19  1  0  0  0  0
 18 21  1  0  0  0  0
 18 24  1  0  0  0  0
 19 20  2  0  0  0  0
 19 28  1  0  0  0  0
 21 22  1  0  0  0  0
 21 25  1  0  0  0  0
 21 26  1  0  0  0  0
 22 27  1  0  0  0  0
 28 29  1  0  0  0  0
 28 33  1  0  0  0  0
 29 30  1  0  0  0  0
 29 32  1  0  0  0  0
 29 34  1  0  0  0  0
 30 31  2  0  0  0  0
 30 38  1  0  0  0  0
 32 35  1  0  0  0  0
 32 36  1  0  0  0  0
 32 37  1  0  0  0  0
 38 39  1  0  0  0  0
 38 40  1  0  0  0  0
 39 41  1  0  0  0  0
 39 42  1  0  0  0  0
 39 43  1  0  0  0  0
M  END
$$$$

  -OEChem-05262217303D

 43 42  0     1  0  0  0  0  0999 V2000
    2.4600   -1.1705    3.7662 C   0  0  0  0  0  0  0  0  0  0  0  0
    1.4281   -0.5191    3.6997 O   0  0  0  0  0  0  0  0  0  0  0  0
    2.6527   -2.2001    4.8630 C   0  0  0  0  0  0  0  0  0  0  0  0
    3.5520   -1.9698    5.4398 H   0  0  0  0  0  0  0  0  0  0  0  0
    1.7920   -2.1978    5.5381 H   0  0  0  0  0  0  0  0  0  0  0  0
    2.7534   -3.1968    4.4264 H   0  0  0  0  0  0  0  0  0  0  0  0
    3.4266   -0.9973    2.7963 N   0  0  0  0  0  0  0  0  0  0  0  0
    3.3391   -0.0052    1.7125 C   0  0  2  0  0  0  0  0  0  0  0  0
    2.3787   -0.4451    0.5789 C   0  0  0  0  0  0  0  0  0  0  0  0
    2.7884   -0.6732   -0.5538 O   0  0  0  0  0  0  0  0  0  0  0  0
    4.7673    0.2566    1.2168 C   0  0  0  0  0  0  0  0  0  0  0  0
    4.2533   -1.5861    2.8521 H   0  0  0  0  0  0  0  0  0  0  0  0
    2.9502    0.9372    2.1143 H   0  0  0  0  0  0  0  0  0  0  0  0
    5.2079   -0.6568    0.8042 H   0  0  0  0  0  0  0  0  0  0  0  0
    4.7629    1.0221    0.4340 H   0  0  0  0  0  0  0  0  0  0  0  0
    5.3981    0.6096    2.0386 H   0  0  0  0  0  0  0  0  0  0  0  0
    1.0440   -0.6564    0.8741 N   0  0  0  0  0  0  0  0  0  0  0  0
   -0.0519   -1.1078   -0.0172 C   0  0  2  0  0  0  0  0  0  0  0  0
    0.0398   -2.6125   -0.3269 C   0  0  0  0  0  0  0  0  0  0  0  0
   -0.8695   -3.3529    0.0264 O   0  0  0  0  0  0  0  0  0  0  0  0
   -0.2592   -0.2823   -1.3024 C   0  0  0  0  0  0  0  0  0  0  0  0
    0.8276   -0.3669   -2.2258 O   0  0  0  0  0  0  0  0  0  0  0  0
    0.8161   -0.5343    1.8673 H   0  0  0  0  0  0  0  0  0  0  0  0
   -0.9764   -0.9837    0.5556 H   0  0  0  0  0  0  0  0  0  0  0  0
   -0.4007    0.7665   -1.0227 H   0  0  0  0  0  0  0  0  0  0  0  0
   -1.1745   -0.6152   -1.8031 H   0  0  0  0  0  0  0  0  0  0  0  0
    1.6876   -0.2952   -1.7429 H   0  0  0  0  0  0  0  0  0  0  0  0
    1.1614   -3.1269   -0.9547 N   0  0  0  0  0  0  0  0  0  0  0  0
    1.5059   -4.5446   -1.1828 C   0  0  2  0  0  0  0  0  0  0  0  0
    0.6011   -5.3003   -2.1833 C   0  0  0  0  0  0  0  0  0  0  0  0
    1.1101   -6.0720   -2.9864 O   0  0  0  0  0  0  0  0  0  0  0  0
    1.5908   -5.3017    0.1492 C   0  0  0  0  0  0  0  0  0  0  0  0
    1.8528   -2.4231   -1.2223 H   0  0  0  0  0  0  0  0  0  0  0  0
    2.5078   -4.5548   -1.6238 H   0  0  0  0  0  0  0  0  0  0  0  0
    0.6025   -5.4108    0.6058 H   0  0  0  0  0  0  0  0  0  0  0  0
    2.0022   -6.3025   -0.0152 H   0  0  0  0  0  0  0  0  0  0  0  0
    2.2422   -4.7694    0.8485 H   0  0  0  0  0  0  0  0  0  0  0  0
   -0.7724   -5.1656   -2.1582 N   0  0  0  0  0  0  0  0  0  0  0  0
   -1.6811   -5.8898   -3.0350 C   0  0  0  0  0  0  0  0  0  0  0  0
   -1.1524   -4.5730   -1.4161 H   0  0  0  0  0  0  0  0  0  0  0  0
   -2.7159   -5.6040   -2.8234 H   0  0  0  0  0  0  0  0  0  0  0  0
   -1.4659   -5.6582   -4.0833 H   0  0  0  0  0  0  0  0  0  0  0  0
   -1.5810   -6.9695   -2.8834 H   0  0  0  0  0  0  0  0  0  0  0  0
  1  2  2  0  0  0  0
  1  3  1  0  0  0  0
  1  7  1  0  0  0  0
  3  4  1  0  0  0  0
  3  5  1  0  0  0  0
  3  6  1  0  0  0  0
  7  8  1  0  0  0  0
  7 12  1  0  0  0  0
  8  9  1  0  0  0  0
  8 11  1  0  0  0  0
  8 13  1  0  0  0  0
  9 10  2  0  0  0  0
  9 17  1  0  0  0  0
 11 14  1  0  0  0  0
 11 15  1  0  0  0  0
 11 16  1  0  0  0  0
 17 18  1  0  0  0  0
 17 23  1  0  0  0  0
 18 19  1  0  0  0  0
 18 21  1  0  0  0  0
 18 24  1  0  0  0  0
 19 20  2  0  0  0  0
 19 28  1  0  0  0  0
 21 22  1  0  0  0  0
 21 25  1  0  0  0  0
 21 26  1  0  0  0  0
 22 27  1  0  0  0  0
 28 29  1  0  0  0  0
 28 33  1  0  0  0  0
 29 30  1  0  0  0  0
 29 32  1  0  0  0  0
 29 34  1  0  0  0  0
 30 31  2  0  0  0  0
 30 38  1  0  0  0  0
 32 35  1  0  0  0  0
 32 36  1  0  0  0  0
 32 37  1  0  0  0  0
 38 39  1  0  0  0  0
 38 40  1  0  0  0  0
 39 41  1  0  0  0  0
 39 42  1  0  0  0  0
 39 43  1  0  0  0  0
M  END
$$$$

  -OEChem-05262217303D

 43 42  0     1  0  0  0  0  0999 V2000
    3.9553   -0.9252    4.1981 C   0  0  0  0  0  0  0  0  0  0  0  0
    3.0621   -0.3914    4.8373 O   0  0  0  0  0  0  0  0  0  0  0  0
    4.8763   -1.9260    4.8705 C   0  0  0  0  0  0  0  0  0  0  0  0
    5.9118   -1.5834    4.8049 H   0  0  0  0  0  0  0  0  0  0  0  0
    4.6078   -2.0368    5.9250 H   0  0  0  0  0  0  0  0  0  0  0  0
    4.7898   -2.8996    4.3812 H   0  0  0  0  0  0  0  0  0  0  0  0
    4.1153   -0.6441    2.8570 N   0  0  0  0  0  0  0  0  0  0  0  0
    3.0988    0.0650    2.0665 C   0  0  2  0  0  0  0  0  0  0  0  0
    2.1602   -0.9052    1.3181 C   0  0  0  0  0  0  0  0  0  0  0  0
    2.5471   -2.0381    1.0547 O   0  0  0  0  0  0  0  0  0  0  0  0
    3.8281    0.9643    1.0666 C   0  0  0  0  0  0  0  0  0  0  0  0
    4.7183   -1.2853    2.3468 H   0  0  0  0  0  0  0  0  0  0  0  0
    2.4865    0.7000    2.7152 H   0  0  0  0  0  0  0  0  0  0  0  0
    4.4388    0.3635    0.3844 H   0  0  0  0  0  0  0  0  0  0  0  0
    3.1095    1.5376    0.4727 H   0  0  0  0  0  0  0  0  0  0  0  0
    4.4806    1.6671    1.5939 H   0  0  0  0  0  0  0  0  0  0  0  0
    0.8693   -0.5083    1.0040 N   0  0  0  0  0  0  0  0  0  0  0  0
    0.0556   -0.9857   -0.1428 C   0  0  2  0  0  0  0  0  0  0  0  0
   -0.5378   -2.4015   -0.0300 C   0  0  0  0  0  0  0  0  0  0  0  0
   -1.6280   -2.6150   -0.5461 O   0  0  0  0  0  0  0  0  0  0  0  0
    0.7208   -0.7869   -1.5213 C   0  0  0  0  0  0  0  0  0  0  0  0
    1.9022   -1.5653   -1.7306 O   0  0  0  0  0  0  0  0  0  0  0  0
    0.6338    0.4170    1.3509 H   0  0  0  0  0  0  0  0  0  0  0  0
   -0.8255   -0.3377   -0.1561 H   0  0  0  0  0  0  0  0  0  0  0  0
    0.9826    0.2703   -1.6301 H   0  0  0  0  0  0  0  0  0  0  0  0
   -0.0014   -1.0266   -2.3092 H   0  0  0  0  0  0  0  0  0  0  0  0
    1.6814   -2.5197   -1.8773 H   0  0  0  0  0  0  0  0  0  0  0  0
    0.2325   -3.4568    0.4227 N   0  0  0  0  0  0  0  0  0  0  0  0
    0.1019   -4.8297   -0.0887 C   0  0  2  0  0  0  0  0  0  0  0  0
    0.2715   -4.8809   -1.6286 C   0  0  0  0  0  0  0  0  0  0  0  0
    1.0960   -4.1471   -2.1697 O   0  0  0  0  0  0  0  0  0  0  0  0
   -1.1917   -5.4905    0.4176 C   0  0  0  0  0  0  0  0  0  0  0  0
    1.1820   -3.1627    0.6737 H   0  0  0  0  0  0  0  0  0  0  0  0
    0.9331   -5.4082    0.3253 H   0  0  0  0  0  0  0  0  0  0  0  0
   -2.0748   -5.0614   -0.0649 H   0  0  0  0  0  0  0  0  0  0  0  0
   -1.1750   -6.5651    0.2132 H   0  0  0  0  0  0  0  0  0  0  0  0
   -1.2866   -5.3492    1.4986 H   0  0  0  0  0  0  0  0  0  0  0  0
   -0.4617   -5.7539   -2.4120 N   0  0  0  0  0  0  0  0  0  0  0  0
   -0.3994   -5.7548   -3.8683 C   0  0  0  0  0  0  0  0  0  0  0  0
   -1.2313   -6.2365   -1.9578 H   0  0  0  0  0  0  0  0  0  0  0  0
   -1.0380   -6.5455   -4.2737 H   0  0  0  0  0  0  0  0  0  0  0  0
   -0.7409   -4.7934   -4.2666 H   0  0  0  0  0  0  0  0  0  0  0  0
    0.6263   -5.9333   -4.2082 H   0  0  0  0  0  0  0  0  0  0  0  0
  1  2  2  0  0  0  0
  1  3  1  0  0  0  0
  1  7  1  0  0  0  0
  3  4  1  0  0  0  0
  3  5  1  0  0  0  0
  3  6  1  0  0  0  0
  7  8  1  0  0  0  0
  7 12  1  0  0  0  0
  8  9  1  0  0  0  0
  8 11  1  0  0  0  0
  8 13  1  0  0  0  0
  9 10  2  0  0  0  0
  9 17  1  0  0  0  0
 11 14  1  0  0  0  0
 11 15  1  0  0  0  0
 11 16  1  0  0  0  0
 17 18  1  0  0  0  0
 17 23  1  0  0  0  0
 18 19  1  0  0  0  0
 18 21  1  0  0  0  0
 18 24  1  0  0  0  0
 19 20  2  0  0  0  0
 19 28  1  0  0  0  0
 21 22  1  0  0  0  0
 21 25  1  0  0  0  0
 21 26  1  0  0  0  0
 22 27  1  0  0  0  0
 28 29  1  0  0  0  0
 28 33  1  0  0  0  0
 29 30  1  0  0  0  0
 29 32  1  0  0  0  0
 29 34  1  0  0  0  0
 30 31  2  0  0  0  0
 30 38  1  0  0  0  0
 32 35  1  0  0  0  0
 32 36  1  0  0  0  0
 32 37  1  0  0  0  0
 38 39  1  0  0  0  0
 38 40  1  0  0  0  0
 39 41  1  0  0  0  0
 39 42  1  0  0  0  0
 39 43  1  0  0  0  0
M  END
$$$$

  -OEChem-05262217303D

 43 42  0     1  0  0  0  0  0999 V2000
    3.9491   -0.9433    4.2133 C   0  0  0  0  0  0  0  0  0  0  0  0
    3.1050   -0.3146    4.8328 O   0  0  0  0  0  0  0  0  0  0  0  0
    4.8069   -1.9705    4.9277 C   0  0  0  0  0  0  0  0  0  0  0  0
    5.8650   -1.7432    4.7778 H   0  0  0  0  0  0  0  0  0  0  0  0
    4.5930   -1.9596    6.0001 H   0  0  0  0  0  0  0  0  0  0  0  0
    4.5960   -2.9686    4.5358 H   0  0  0  0  0  0  0  0  0  0  0  0
    4.1088   -0.7448    2.8575 N   0  0  0  0  0  0  0  0  0  0  0  0
    3.1378    0.0009    2.0442 C   0  0  2  0  0  0  0  0  0  0  0  0
    2.0963   -0.9251    1.3816 C   0  0  0  0  0  0  0  0  0  0  0  0
    2.3584   -2.1095    1.2057 O   0  0  0  0  0  0  0  0  0  0  0  0
    3.9179    0.7612    0.9698 C   0  0  0  0  0  0  0  0  0  0  0  0
    4.6518   -1.4564    2.3740 H   0  0  0  0  0  0  0  0  0  0  0  0
    2.6038    0.7297    2.6628 H   0  0  0  0  0  0  0  0  0  0  0  0
    4.4448    0.0618    0.3121 H   0  0  0  0  0  0  0  0  0  0  0  0
    3.2398    1.3647    0.3587 H   0  0  0  0  0  0  0  0  0  0  0  0
    4.6523    1.4276    1.4331 H   0  0  0  0  0  0  0  0  0  0  0  0
    0.8446   -0.4322    1.0464 N   0  0  0  0  0  0  0  0  0  0  0  0
    0.0451   -0.8346   -0.1400 C   0  0  2  0  0  0  0  0  0  0  0  0
   -0.6466   -2.2098   -0.1037 C   0  0  0  0  0  0  0  0  0  0  0  0
   -1.6254   -2.3871   -0.8188 O   0  0  0  0  0  0  0  0  0  0  0  0
    0.8077   -0.6620   -1.4712 C   0  0  0  0  0  0  0  0  0  0  0  0
    1.9392   -1.5271   -1.6168 O   0  0  0  0  0  0  0  0  0  0  0  0
    0.7004    0.5253    1.3537 H   0  0  0  0  0  0  0  0  0  0  0  0
   -0.7886   -0.1278   -0.1837 H   0  0  0  0  0  0  0  0  0  0  0  0
    1.1524    0.3738   -1.5460 H   0  0  0  0  0  0  0  0  0  0  0  0
    0.1216   -0.8385   -2.3069 H   0  0  0  0  0  0  0  0  0  0  0  0
    1.6694   -2.4797   -1.6636 H   0  0  0  0  0  0  0  0  0  0  0  0
   -0.1057   -3.2643    0.6081 N   0  0  0  0  0  0  0  0  0  0  0  0
   -0.2387   -4.6633    0.1703 C   0  0  2  0  0  0  0  0  0  0  0  0
    0.2343   -4.8675   -1.2943 C   0  0  0  0  0  0  0  0  0  0  0  0
    1.1062   -4.1413   -1.7682 O   0  0  0  0  0  0  0  0  0  0  0  0
   -1.6601   -5.1878    0.4342 C   0  0  0  0  0  0  0  0  0  0  0  0
    0.8041   -3.0190    1.0103 H   0  0  0  0  0  0  0  0  0  0  0  0
    0.4385   -5.2583    0.7903 H   0  0  0  0  0  0  0  0  0  0  0  0
   -2.3797   -4.7511   -0.2644 H   0  0  0  0  0  0  0  0  0  0  0  0
   -1.6921   -6.2758    0.3271 H   0  0  0  0  0  0  0  0  0  0  0  0
   -1.9698   -4.9355    1.4529 H   0  0  0  0  0  0  0  0  0  0  0  0
   -0.2599   -5.9018   -2.0690 N   0  0  0  0  0  0  0  0  0  0  0  0
    0.1130   -6.1005   -3.4643 C   0  0  0  0  0  0  0  0  0  0  0  0
   -1.0527   -6.4161   -1.6975 H   0  0  0  0  0  0  0  0  0  0  0  0
   -0.3730   -6.9969   -3.8611 H   0  0  0  0  0  0  0  0  0  0  0  0
   -0.1949   -5.2408   -4.0690 H   0  0  0  0  0  0  0  0  0  0  0  0
    1.1968   -6.2274   -3.5578 H   0  0  0  0  0  0  0  0  0  0  0  0
  1  2  2  0  0  0  0
  1  3  1  0  0  0  0
  1  7  1  0  0  0  0
  3  4  1  0  0  0  0
  3  5  1  0  0  0  0
  3  6  1  0  0  0  0
  7  8  1  0  0  0  0
  7 12  1  0  0  0  0
  8  9  1  0  0  0  0
  8 11  1  0  0  0  0
  8 13  1  0  0  0  0
  9 10  2  0  0  0  0
  9 17  1  0  0  0  0
 11 14  1  0  0  0  0
 11 15  1  0  0  0  0
 11 16  1  0  0  0  0
 17 18  1  0  0  0  0
 17 23  1  0  0  0  0
 18 19  1  0  0  0  0
 18 21  1  0  0  0  0
 18 24  1  0  0  0  0
 19 20  2  0  0  0  0
 19 28  1  0  0  0  0
 21 22  1  0  0  0  0
 21 25  1  0  0  0  0
 21 26  1  0  0  0  0
 22 27  1  0  0  0  0
 28 29  1  0  0  0  0
 28 33  1  0  0  0  0
 29 30  1  0  0  0  0
 29 32  1  0  0  0  0
 29 34  1  0  0  0  0
 30 31  2  0  0  0  0
 30 38  1  0  0  0  0
 32 35  1  0  0  0  0
 32 36  1  0  0  0  0
 32 37  1  0  0  0  0
 38 39  1  0  0  0  0
 38 40  1  0  0  0  0
 39 41  1  0  0  0  0
 39 42  1  0  0  0  0
 39 43  1  0  0  0  0
M  END
$$$$

  -OEChem-05262217303D

 43 42  0     1  0  0  0  0  0999 V2000
    2.8916   -1.9917    3.1869 C   0  0  0  0  0  0  0  0  0  0  0  0
    1.6705   -1.9822    3.1144 O   0  0  0  0  0  0  0  0  0  0  0  0
    3.6202   -3.2120    3.7153 C   0  0  0  0  0  0  0  0  0  0  0  0
    4.3037   -2.9228    4.5173 H   0  0  0  0  0  0  0  0  0  0  0  0
    2.9040   -3.9389    4.1090 H   0  0  0  0  0  0  0  0  0  0  0  0
    4.1911   -3.6830    2.9110 H   0  0  0  0  0  0  0  0  0  0  0  0
    3.5977   -0.9110    2.6983 N   0  0  0  0  0  0  0  0  0  0  0  0
    2.9377    0.1706    1.9529 C   0  0  2  0  0  0  0  0  0  0  0  0
    2.2907   -0.3489    0.6491 C   0  0  0  0  0  0  0  0  0  0  0  0
    2.9556   -1.0386   -0.1103 O   0  0  0  0  0  0  0  0  0  0  0  0
    3.9773    1.2514    1.6483 C   0  0  0  0  0  0  0  0  0  0  0  0
    4.5948   -1.0519    2.5571 H   0  0  0  0  0  0  0  0  0  0  0  0
    2.1551    0.6111    2.5796 H   0  0  0  0  0  0  0  0  0  0  0  0
    4.7817    0.8480    1.0241 H   0  0  0  0  0  0  0  0  0  0  0  0
    3.5123    2.0872    1.1158 H   0  0  0  0  0  0  0  0  0  0  0  0
    4.4131    1.6324    2.5771 H   0  0  0  0  0  0  0  0  0  0  0  0
    0.9361   -0.1567    0.4251 N   0  0  0  0  0  0  0  0  0  0  0  0
    0.0726   -0.7731   -0.6205 C   0  0  2  0  0  0  0  0  0  0  0  0
   -0.2853   -2.2487   -0.3392 C   0  0  0  0  0  0  0  0  0  0  0  0
   -1.1940   -2.7683   -0.9748 O   0  0  0  0  0  0  0  0  0  0  0  0
    0.5533   -0.6156   -2.0799 C   0  0  0  0  0  0  0  0  0  0  0  0
    1.7689   -1.3049   -2.3722 O   0  0  0  0  0  0  0  0  0  0  0  0
    0.4488    0.3014    1.1918 H   0  0  0  0  0  0  0  0  0  0  0  0
   -0.8818   -0.2412   -0.5749 H   0  0  0  0  0  0  0  0  0  0  0  0
    0.7033    0.4502   -2.2782 H   0  0  0  0  0  0  0  0  0  0  0  0
   -0.2249   -0.9684   -2.7649 H   0  0  0  0  0  0  0  0  0  0  0  0
    2.3922   -1.2324   -1.6041 H   0  0  0  0  0  0  0  0  0  0  0  0
    0.4055   -2.9873    0.6086 N   0  0  0  0  0  0  0  0  0  0  0  0
    0.1687   -4.3853    1.0190 C   0  0  2  0  0  0  0  0  0  0  0  0
    0.5115   -5.4406   -0.0561 C   0  0  0  0  0  0  0  0  0  0  0  0
    1.1855   -6.4164    0.2515 O   0  0  0  0  0  0  0  0  0  0  0  0
   -1.2586   -4.5808    1.5463 C   0  0  0  0  0  0  0  0  0  0  0  0
    1.0902   -2.4651    1.1558 H   0  0  0  0  0  0  0  0  0  0  0  0
    0.8450   -4.5802    1.8577 H   0  0  0  0  0  0  0  0  0  0  0  0
   -1.9932   -4.5076    0.7395 H   0  0  0  0  0  0  0  0  0  0  0  0
   -1.3547   -5.5698    2.0049 H   0  0  0  0  0  0  0  0  0  0  0  0
   -1.4904   -3.8242    2.3018 H   0  0  0  0  0  0  0  0  0  0  0  0
    0.0649   -5.3076   -1.3553 N   0  0  0  0  0  0  0  0  0  0  0  0
    0.4169   -6.2130   -2.4388 C   0  0  0  0  0  0  0  0  0  0  0  0
   -0.4693   -4.4595   -1.5615 H   0  0  0  0  0  0  0  0  0  0  0  0
   -0.1077   -5.9240   -3.3545 H   0  0  0  0  0  0  0  0  0  0  0  0
    1.4945   -6.1791   -2.6297 H   0  0  0  0  0  0  0  0  0  0  0  0
    0.1337   -7.2405   -2.1878 H   0  0  0  0  0  0  0  0  0  0  0  0
  1  2  2  0  0  0  0
  1  3  1  0  0  0  0
  1  7  1  0  0  0  0
  3  4  1  0  0  0  0
  3  5  1  0  0  0  0
  3  6  1  0  0  0  0
  7  8  1  0  0  0  0
  7 12  1  0  0  0  0
  8  9  1  0  0  0  0
  8 11  1  0  0  0  0
  8 13  1  0  0  0  0
  9 10  2  0  0  0  0
  9 17  1  0  0  0  0
 11 14  1  0  0  0  0
 11 15  1  0  0  0  0
 11 16  1  0  0  0  0
 17 18  1  0  0  0  0
 17 23  1  0  0  0  0
 18 19  1  0  0  0  0
 18 21  1  0  0  0  0
 18 24  1  0  0  0  0
 19 20  2  0  0  0  0
 19 28  1  0  0  0  0
 21 22  1  0  0  0  0
 21 25  1  0  0  0  0
 21 26  1  0  0  0  0
 22 27  1  0  0  0  0
 28 29  1  0  0  0  0
 28 33  1  0  0  0  0
 29 30  1  0  0  0  0
 29 32  1  0  0  0  0
 29 34  1  0  0  0  0
 30 31  2  0  0  0  0
 30 38  1  0  0  0  0
 32 35  1  0  0  0  0
 32 36  1  0  0  0  0
 32 37  1  0  0  0  0
 38 39  1  0  0  0  0
 38 40  1  0  0  0  0
 39 41  1  0  0  0  0
 39 42  1  0  0  0  0
 39 43  1  0  0  0  0
M  END
$$$$

  -OEChem-05262217303D

 43 42  0     1  0  0  0  0  0999 V2000
    2.6044   -1.9078    3.2303 C   0  0  0  0  0  0  0  0  0  0  0  0
    1.4096   -1.6441    3.1933 O   0  0  0  0  0  0  0  0  0  0  0  0
    3.0820   -3.2252    3.8098 C   0  0  0  0  0  0  0  0  0  0  0  0
    3.9153   -3.0553    4.4958 H   0  0  0  0  0  0  0  0  0  0  0  0
    2.2706   -3.7127    4.3579 H   0  0  0  0  0  0  0  0  0  0  0  0
    3.4110   -3.8887    3.0053 H   0  0  0  0  0  0  0  0  0  0  0  0
    3.4948   -1.0374    2.6358 N   0  0  0  0  0  0  0  0  0  0  0  0
    3.0386    0.0982    1.8218 C   0  0  2  0  0  0  0  0  0  0  0  0
    2.3077   -0.3865    0.5503 C   0  0  0  0  0  0  0  0  0  0  0  0
    2.9028   -1.1085   -0.2358 O   0  0  0  0  0  0  0  0  0  0  0  0
    4.2544    0.9585    1.4665 C   0  0  0  0  0  0  0  0  0  0  0  0
    4.4317   -1.3976    2.4706 H   0  0  0  0  0  0  0  0  0  0  0  0
    2.3477    0.7115    2.4098 H   0  0  0  0  0  0  0  0  0  0  0  0
    4.9805    0.3815    0.8840 H   0  0  0  0  0  0  0  0  0  0  0  0
    3.9462    1.8254    0.8733 H   0  0  0  0  0  0  0  0  0  0  0  0
    4.7443    1.3187    2.3765 H   0  0  0  0  0  0  0  0  0  0  0  0
    0.9543   -0.1276    0.3900 N   0  0  0  0  0  0  0  0  0  0  0  0
    0.0173   -0.7123   -0.6107 C   0  0  2  0  0  0  0  0  0  0  0  0
   -0.3882   -2.1685   -0.2866 C   0  0  0  0  0  0  0  0  0  0  0  0
   -1.1525   -2.7690   -1.0311 O   0  0  0  0  0  0  0  0  0  0  0  0
    0.4357   -0.5724   -2.0930 C   0  0  0  0  0  0  0  0  0  0  0  0
    1.6098   -1.3063   -2.4416 O   0  0  0  0  0  0  0  0  0  0  0  0
    0.5259    0.3465    1.1826 H   0  0  0  0  0  0  0  0  0  0  0  0
   -0.9116   -0.1421   -0.5238 H   0  0  0  0  0  0  0  0  0  0  0  0
    0.6180    0.4871   -2.2982 H   0  0  0  0  0  0  0  0  0  0  0  0
   -0.3862   -0.8908   -2.7431 H   0  0  0  0  0  0  0  0  0  0  0  0
    2.2636   -1.2710   -1.6964 H   0  0  0  0  0  0  0  0  0  0  0  0
    0.1077   -2.8039    0.8414 N   0  0  0  0  0  0  0  0  0  0  0  0
   -0.1296   -4.1924    1.2783 C   0  0  2  0  0  0  0  0  0  0  0  0
    0.5193   -5.2549    0.3654 C   0  0  0  0  0  0  0  0  0  0  0  0
    1.2683   -6.0915    0.8558 O   0  0  0  0  0  0  0  0  0  0  0  0
   -1.6230   -4.4766    1.4898 C   0  0  0  0  0  0  0  0  0  0  0  0
    0.6814   -2.2257    1.4574 H   0  0  0  0  0  0  0  0  0  0  0  0
    0.3512   -4.2974    2.2563 H   0  0  0  0  0  0  0  0  0  0  0  0
   -2.1623   -4.5064    0.5388 H   0  0  0  0  0  0  0  0  0  0  0  0
   -1.7525   -5.4448    1.9834 H   0  0  0  0  0  0  0  0  0  0  0  0
   -2.0701   -3.7029    2.1209 H   0  0  0  0  0  0  0  0  0  0  0  0
    0.2840   -5.2611   -0.9947 N   0  0  0  0  0  0  0  0  0  0  0  0
    0.9499   -6.1533   -1.9318 C   0  0  0  0  0  0  0  0  0  0  0  0
   -0.2783   -4.4854   -1.3555 H   0  0  0  0  0  0  0  0  0  0  0  0
    0.5712   -5.9853   -2.9446 H   0  0  0  0  0  0  0  0  0  0  0  0
    2.0296   -5.9721   -1.9294 H   0  0  0  0  0  0  0  0  0  0  0  0
    0.7653   -7.1987   -1.6636 H   0  0  0  0  0  0  0  0  0  0  0  0
  1  2  2  0  0  0  0
  1  3  1  0  0  0  0
  1  7  1  0  0  0  0
  3  4  1  0  0  0  0
  3  5  1  0  0  0  0
  3  6  1  0  0  0  0
  7  8  1  0  0  0  0
  7 12  1  0  0  0  0
  8  9  1  0  0  0  0
  8 11  1  0  0  0  0
  8 13  1  0  0  0  0
  9 10  2  0  0  0  0
  9 17  1  0  0  0  0
 11 14  1  0  0  0  0
 11 15  1  0  0  0  0
 11 16  1  0  0  0  0
 17 18  1  0  0  0  0
 17 23  1  0  0  0  0
 18 19  1  0  0  0  0
 18 21  1  0  0  0  0
 18 24  1  0  0  0  0
 19 20  2  0  0  0  0
 19 28  1  0  0  0  0
 21 22  1  0  0  0  0
 21 25  1  0  0  0  0
 21 26  1  0  0  0  0
 22 27  1  0  0  0  0
 28 29  1  0  0  0  0
 28 33  1  0  0  0  0
 29 30  1  0  0  0  0
 29 32  1  0  0  0  0
 29 34  1  0  0  0  0
 30 31  2  0  0  0  0
 30 38  1  0  0  0  0
 32 35  1  0  0  0  0
 32 36  1  0  0  0  0
 32 37  1  0  0  0  0
 38 39  1  0  0  0  0
 38 40  1  0  0  0  0
 39 41  1  0  0  0  0
 39 42  1  0  0  0  0
 39 43  1  0  0  0  0
M  END
$$$$

  -OEChem-05262217303D

 43 42  0     1  0  0  0  0  0999 V2000
    2.3218   -1.9246    3.2203 C   0  0  0  0  0  0  0  0  0  0  0  0
    1.2261   -1.3768    3.1900 O   0  0  0  0  0  0  0  0  0  0  0  0
    2.5102   -3.2411    3.9474 C   0  0  0  0  0  0  0  0  0  0  0  0
    3.2184   -3.1163    4.7700 H   0  0  0  0  0  0  0  0  0  0  0  0
    1.5566   -3.5915    4.3517 H   0  0  0  0  0  0  0  0  0  0  0  0
    2.8949   -3.9971    3.2575 H   0  0  0  0  0  0  0  0  0  0  0  0
    3.3673   -1.3597    2.5202 N   0  0  0  0  0  0  0  0  0  0  0  0
    3.1774   -0.2153    1.6194 C   0  0  2  0  0  0  0  0  0  0  0  0
    2.3095   -0.6038    0.4019 C   0  0  0  0  0  0  0  0  0  0  0  0
    2.7443   -1.4071   -0.4101 O   0  0  0  0  0  0  0  0  0  0  0  0
    4.5576    0.2893    1.1878 C   0  0  0  0  0  0  0  0  0  0  0  0
    4.1822   -1.9515    2.3768 H   0  0  0  0  0  0  0  0  0  0  0  0
    2.6753    0.5941    2.1598 H   0  0  0  0  0  0  0  0  0  0  0  0
    5.1098   -0.4945    0.6593 H   0  0  0  0  0  0  0  0  0  0  0  0
    4.4552    1.1500    0.5196 H   0  0  0  0  0  0  0  0  0  0  0  0
    5.1400    0.5966    2.0618 H   0  0  0  0  0  0  0  0  0  0  0  0
    0.9991   -0.1543    0.3255 N   0  0  0  0  0  0  0  0  0  0  0  0
   -0.0711   -0.6118   -0.6043 C   0  0  2  0  0  0  0  0  0  0  0  0
   -0.6389   -1.9953   -0.2102 C   0  0  0  0  0  0  0  0  0  0  0  0
   -1.2732   -2.6654   -1.0142 O   0  0  0  0  0  0  0  0  0  0  0  0
    0.2672   -0.5320   -2.1132 C   0  0  0  0  0  0  0  0  0  0  0  0
    1.3091   -1.4149   -2.5317 O   0  0  0  0  0  0  0  0  0  0  0  0
    0.6964    0.3749    1.1415 H   0  0  0  0  0  0  0  0  0  0  0  0
   -0.9080    0.0781   -0.4666 H   0  0  0  0  0  0  0  0  0  0  0  0
    0.5748    0.4932   -2.3414 H   0  0  0  0  0  0  0  0  0  0  0  0
   -0.6306   -0.7400   -2.7048 H   0  0  0  0  0  0  0  0  0  0  0  0
    2.0014   -1.4757   -1.8236 H   0  0  0  0  0  0  0  0  0  0  0  0
   -0.3806   -2.5136    1.0502 N   0  0  0  0  0  0  0  0  0  0  0  0
   -0.5373   -3.9140    1.4827 C   0  0  2  0  0  0  0  0  0  0  0  0
    0.4721   -4.8499    0.7860 C   0  0  0  0  0  0  0  0  0  0  0  0
    1.3253   -5.4192    1.4572 O   0  0  0  0  0  0  0  0  0  0  0  0
   -1.9793   -4.4240    1.3439 C   0  0  0  0  0  0  0  0  0  0  0  0
    0.1861   -1.9195    1.6594 H   0  0  0  0  0  0  0  0  0  0  0  0
   -0.3024   -3.9418    2.5515 H   0  0  0  0  0  0  0  0  0  0  0  0
   -2.2539   -4.5753    0.2962 H   0  0  0  0  0  0  0  0  0  0  0  0
   -2.0869   -5.3822    1.8612 H   0  0  0  0  0  0  0  0  0  0  0  0
   -2.6778   -3.7089    1.7884 H   0  0  0  0  0  0  0  0  0  0  0  0
    0.4929   -4.9545   -0.5905 N   0  0  0  0  0  0  0  0  0  0  0  0
    1.5705   -5.5928   -1.3318 C   0  0  0  0  0  0  0  0  0  0  0  0
   -0.1364   -4.3191   -1.0897 H   0  0  0  0  0  0  0  0  0  0  0  0
    1.3375   -5.5989   -2.4008 H   0  0  0  0  0  0  0  0  0  0  0  0
    2.5097   -5.0499   -1.1835 H   0  0  0  0  0  0  0  0  0  0  0  0
    1.7036   -6.6285   -1.0024 H   0  0  0  0  0  0  0  0  0  0  0  0
  1  2  2  0  0  0  0
  1  3  1  0  0  0  0
  1  7  1  0  0  0  0
  3  4  1  0  0  0  0
  3  5  1  0  0  0  0
  3  6  1  0  0  0  0
  7  8  1  0  0  0  0
  7 12  1  0  0  0  0
  8  9  1  0  0  0  0
  8 11  1  0  0  0  0
  8 13  1  0  0  0  0
  9 10  2  0  0  0  0
  9 17  1  0  0  0  0
 11 14  1  0  0  0  0
 11 15  1  0  0  0  0
 11 16  1  0  0  0  0
 17 18  1  0  0  0  0
 17 23  1  0  0  0  0
 18 19  1  0  0  0  0
 18 21  1  0  0  0  0
 18 24  1  0  0  0  0
 19 20  2  0  0  0  0
 19 28  1  0  0  0  0
 21 22  1  0  0  0  0
 21 25  1  0  0  0  0
 21 26  1  0  0  0  0
 22 27  1  0  0  0  0
 28 29  1  0  0  0  0
 28 33  1  0  0  0  0
 29 30  1  0  0  0  0
 29 32  1  0  0  0  0
 29 34  1  0  0  0  0
 30 31  2  0  0  0  0
 30 38  1  0  0  0  0
 32 35  1  0  0  0  0
 32 36  1  0  0  0  0
 32 37  1  0  0  0  0
 38 39  1  0  0  0  0
 38 40  1  0  0  0  0
 39 41  1  0  0  0  0
 39 42  1  0  0  0  0
 39 43  1  0  0  0  0
M  END
$$$$

  -OEChem-05262217303D

 43 42  0     1  0  0  0  0  0999 V2000
    1.8707   -1.6988    3.2872 C   0  0  0  0  0  0  0  0  0  0  0  0
    1.0681   -0.7874    3.1203 O   0  0  0  0  0  0  0  0  0  0  0  0
    1.6637   -2.7044    4.4044 C   0  0  0  0  0  0  0  0  0  0  0  0
    2.3338   -2.4750    5.2365 H   0  0  0  0  0  0  0  0  0  0  0  0
    0.6308   -2.6671    4.7609 H   0  0  0  0  0  0  0  0  0  0  0  0
    1.8760   -3.7165    4.0517 H   0  0  0  0  0  0  0  0  0  0  0  0
    2.9417   -1.8133    2.4276 N   0  0  0  0  0  0  0  0  0  0  0  0
    3.2848   -0.8268    1.3908 C   0  0  2  0  0  0  0  0  0  0  0  0
    2.3103   -0.8570    0.1896 C   0  0  0  0  0  0  0  0  0  0  0  0
    2.5909   -1.4841   -0.8211 O   0  0  0  0  0  0  0  0  0  0  0  0
    4.7373   -1.0924    0.9756 C   0  0  0  0  0  0  0  0  0  0  0  0
    3.4120   -2.7180    2.4110 H   0  0  0  0  0  0  0  0  0  0  0  0
    3.2418    0.1796    1.8205 H   0  0  0  0  0  0  0  0  0  0  0  0
    4.8449   -2.1034    0.5686 H   0  0  0  0  0  0  0  0  0  0  0  0
    5.0503   -0.3762    0.2092 H   0  0  0  0  0  0  0  0  0  0  0  0
    5.4045   -0.9905    1.8369 H   0  0  0  0  0  0  0  0  0  0  0  0
    1.0719   -0.2492    0.3316 N   0  0  0  0  0  0  0  0  0  0  0  0
   -0.1465   -0.4611   -0.4954 C   0  0  2  0  0  0  0  0  0  0  0  0
   -0.8026   -1.8151   -0.1439 C   0  0  0  0  0  0  0  0  0  0  0  0
   -1.3248   -2.5231   -0.9934 O   0  0  0  0  0  0  0  0  0  0  0  0
    0.0046   -0.2232   -2.0180 C   0  0  0  0  0  0  0  0  0  0  0  0
    0.8670   -1.1466   -2.6831 O   0  0  0  0  0  0  0  0  0  0  0  0
    0.9193    0.1070    1.2788 H   0  0  0  0  0  0  0  0  0  0  0  0
   -0.8696    0.2919   -0.1706 H   0  0  0  0  0  0  0  0  0  0  0  0
    0.3998    0.7863   -2.1697 H   0  0  0  0  0  0  0  0  0  0  0  0
   -0.9816   -0.2622   -2.4921 H   0  0  0  0  0  0  0  0  0  0  0  0
    1.6498   -1.3410   -2.1056 H   0  0  0  0  0  0  0  0  0  0  0  0
   -0.6629   -2.2974    1.1502 N   0  0  0  0  0  0  0  0  0  0  0  0
   -0.6077   -3.7238    1.5178 C   0  0  2  0  0  0  0  0  0  0  0  0
    0.6293   -4.4093    0.8969 C   0  0  0  0  0  0  0  0  0  0  0  0
    1.5933   -4.6607    1.6136 O   0  0  0  0  0  0  0  0  0  0  0  0
   -1.9098   -4.4800    1.2124 C   0  0  0  0  0  0  0  0  0  0  0  0
   -0.1673   -1.6613    1.7771 H   0  0  0  0  0  0  0  0  0  0  0  0
   -0.4812   -3.7691    2.6035 H   0  0  0  0  0  0  0  0  0  0  0  0
   -2.0515   -4.6291    0.1385 H   0  0  0  0  0  0  0  0  0  0  0  0
   -1.8885   -5.4653    1.6877 H   0  0  0  0  0  0  0  0  0  0  0  0
   -2.7682   -3.9250    1.6025 H   0  0  0  0  0  0  0  0  0  0  0  0
    0.7255   -4.5736   -0.4704 N   0  0  0  0  0  0  0  0  0  0  0  0
    1.9638   -4.9365   -1.1448 C   0  0  0  0  0  0  0  0  0  0  0  0
   -0.0063   -4.1121   -1.0189 H   0  0  0  0  0  0  0  0  0  0  0  0
    2.2964   -5.9296   -0.8262 H   0  0  0  0  0  0  0  0  0  0  0  0
    1.8096   -4.9547   -2.2280 H   0  0  0  0  0  0  0  0  0  0  0  0
    2.7523   -4.2110   -0.9205 H   0  0  0  0  0  0  0  0  0  0  0  0
  1  2  2  0  0  0  0
  1  3  1  0  0  0  0
  1  7  1  0  0  0  0
  3  4  1  0  0  0  0
  3  5  1  0  0  0  0
  3  6  1  0  0  0  0
  7  8  1  0  0  0  0
  7 12  1  0  0  0  0
  8  9  1  0  0  0  0
  8 11  1  0  0  0  0
  8 13  1  0  0  0  0
  9 10  2  0  0  0  0
  9 17  1  0  0  0  0
 11 14  1  0  0  0  0
 11 15  1  0  0  0  0
 11 16  1  0  0  0  0
 17 18  1  0  0  0  0
 17 23  1  0  0  0  0
 18 19  1  0  0  0  0
 18 21  1  0  0  0  0
 18 24  1  0  0  0  0
 19 20  2  0  0  0  0
 19 28  1  0  0  0  0
 21 22  1  0  0  0  0
 21 25  1  0  0  0  0
 21 26  1  0  0  0  0
 22 27  1  0  0  0  0
 28 29  1  0  0  0  0
 28 33  1  0  0  0  0
 29 30  1  0  0  0  0
 29 32  1  0  0  0  0
 29 34  1  0  0  0  0
 30 31  2  0  0  0  0
 30 38  1  0  0  0  0
 32 35  1  0  0  0  0
 32 36  1  0  0  0  0
 32 37  1  0  0  0  0
 38 39  1  0  0  0  0
 38 40  1  0  0  0  0
 39 41  1  0  0  0  0
 39 42  1  0  0  0  0
 39 43  1  0  0  0  0
M  END
$$$$

  -OEChem-05262217303D

 43 42  0     1  0  0  0  0  0999 V2000
    3.8228   -1.5367    4.0897 C   0  0  0  0  0  0  0  0  0  0  0  0
    3.4005   -0.6715    4.8405 O   0  0  0  0  0  0  0  0  0  0  0  0
    4.5983   -2.7183    4.6403 C   0  0  0  0  0  0  0  0  0  0  0  0
    5.5773   -2.7797    4.1589 H   0  0  0  0  0  0  0  0  0  0  0  0
    4.7425   -2.6047    5.7183 H   0  0  0  0  0  0  0  0  0  0  0  0
    4.0498   -3.6450    4.4535 H   0  0  0  0  0  0  0  0  0  0  0  0
    3.5841   -1.4439    2.7349 N   0  0  0  0  0  0  0  0  0  0  0  0
    2.7234   -0.4287    2.1145 C   0  0  2  0  0  0  0  0  0  0  0  0
    1.9464   -1.0025    0.9126 C   0  0  0  0  0  0  0  0  0  0  0  0
    2.3268   -2.0336    0.3709 O   0  0  0  0  0  0  0  0  0  0  0  0
    3.6035    0.7447    1.6749 C   0  0  0  0  0  0  0  0  0  0  0  0
    3.8477   -2.2438    2.1601 H   0  0  0  0  0  0  0  0  0  0  0  0
    1.9868   -0.0726    2.8427 H   0  0  0  0  0  0  0  0  0  0  0  0
    4.3443    0.4140    0.9393 H   0  0  0  0  0  0  0  0  0  0  0  0
    2.9964    1.5367    1.2262 H   0  0  0  0  0  0  0  0  0  0  0  0
    4.1327    1.1634    2.5372 H   0  0  0  0  0  0  0  0  0  0  0  0
    0.7773   -0.4036    0.4727 N   0  0  0  0  0  0  0  0  0  0  0  0
    0.1077   -0.6745   -0.8258 C   0  0  2  0  0  0  0  0  0  0  0  0
   -0.6244   -2.0350   -0.8339 C   0  0  0  0  0  0  0  0  0  0  0  0
   -0.6211   -2.7605   -1.8180 O   0  0  0  0  0  0  0  0  0  0  0  0
    1.0205   -0.4426   -2.0540 C   0  0  0  0  0  0  0  0  0  0  0  0
    2.1232   -1.3484   -2.1492 O   0  0  0  0  0  0  0  0  0  0  0  0
    0.5558    0.4780    0.9298 H   0  0  0  0  0  0  0  0  0  0  0  0
   -0.6941    0.0624   -0.9253 H   0  0  0  0  0  0  0  0  0  0  0  0
    1.4144    0.5774   -2.0063 H   0  0  0  0  0  0  0  0  0  0  0  0
    0.4252   -0.5188   -2.9700 H   0  0  0  0  0  0  0  0  0  0  0  0
    2.3065   -1.7618   -1.2695 H   0  0  0  0  0  0  0  0  0  0  0  0
   -1.3988   -2.3791    0.2635 N   0  0  0  0  0  0  0  0  0  0  0  0
   -2.0837   -3.6698    0.4880 C   0  0  2  0  0  0  0  0  0  0  0  0
   -1.1229   -4.8724    0.6379 C   0  0  0  0  0  0  0  0  0  0  0  0
   -1.1709   -5.5528    1.6546 O   0  0  0  0  0  0  0  0  0  0  0  0
   -3.1538   -3.9450   -0.5786 C   0  0  0  0  0  0  0  0  0  0  0  0
   -1.2591   -1.7910    1.0795 H   0  0  0  0  0  0  0  0  0  0  0  0
   -2.6113   -3.5837    1.4435 H   0  0  0  0  0  0  0  0  0  0  0  0
   -2.7039   -4.1775   -1.5479 H   0  0  0  0  0  0  0  0  0  0  0  0
   -3.7677   -4.7997   -0.2783 H   0  0  0  0  0  0  0  0  0  0  0  0
   -3.8053   -3.0743   -0.6970 H   0  0  0  0  0  0  0  0  0  0  0  0
   -0.1793   -5.1607   -0.3278 N   0  0  0  0  0  0  0  0  0  0  0  0
    0.8446   -6.1855   -0.1857 C   0  0  0  0  0  0  0  0  0  0  0  0
   -0.1279   -4.5100   -1.1168 H   0  0  0  0  0  0  0  0  0  0  0  0
    0.3851   -7.1727   -0.0706 H   0  0  0  0  0  0  0  0  0  0  0  0
    1.4842   -6.2024   -1.0735 H   0  0  0  0  0  0  0  0  0  0  0  0
    1.4713   -5.9821    0.6888 H   0  0  0  0  0  0  0  0  0  0  0  0
  1  2  2  0  0  0  0
  1  3  1  0  0  0  0
  1  7  1  0  0  0  0
  3  4  1  0  0  0  0
  3  5  1  0  0  0  0
  3  6  1  0  0  0  0
  7  8  1  0  0  0  0
  7 12  1  0  0  0  0
  8  9  1  0  0  0  0
  8 11  1  0  0  0  0
  8 13  1  0  0  0  0
  9 10  2  0  0  0  0
  9 17  1  0  0  0  0
 11 14  1  0  0  0  0
 11 15  1  0  0  0  0
 11 16  1  0  0  0  0
 17 18  1  0  0  0  0
 17 23  1  0  0  0  0
 18 19  1  0  0  0  0
 18 21  1  0  0  0  0
 18 24  1  0  0  0  0
 19 20  2  0  0  0  0
 19 28  1  0  0  0  0
 21 22  1  0  0  0  0
 21 25  1  0  0  0  0
 21 26  1  0  0  0  0
 22 27  1  0  0  0  0
 28 29  1  0  0  0  0
 28 33  1  0  0  0  0
 29 30  1  0  0  0  0
 29 32  1  0  0  0  0
 29 34  1  0  0  0  0
 30 31  2  0  0  0  0
 30 38  1  0  0  0  0
 32 35  1  0  0  0  0
 32 36  1  0  0  0  0
 32 37  1  0  0  0  0
 38 39  1  0  0  0  0
 38 40  1  0  0  0  0
 39 41  1  0  0  0  0
 39 42  1  0  0  0  0
 39 43  1  0  0  0  0
M  END
$$$$

  -OEChem-05262217303D

 43 42  0     1  0  0  0  0  0999 V2000
    3.8207   -1.5989    4.0831 C   0  0  0  0  0  0  0  0  0  0  0  0
    3.3767   -0.7601    4.8512 O   0  0  0  0  0  0  0  0  0  0  0  0
    4.6489   -2.7553    4.6097 C   0  0  0  0  0  0  0  0  0  0  0  0
    5.6564   -2.7145    4.1887 H   0  0  0  0  0  0  0  0  0  0  0  0
    4.7199   -2.7021    5.6998 H   0  0  0  0  0  0  0  0  0  0  0  0
    4.1841   -3.7049    4.3338 H   0  0  0  0  0  0  0  0  0  0  0  0
    3.5634   -1.4928    2.7325 N   0  0  0  0  0  0  0  0  0  0  0  0
    2.6733   -0.4869    2.1393 C   0  0  2  0  0  0  0  0  0  0  0  0
    1.9294   -1.0329    0.9042 C   0  0  0  0  0  0  0  0  0  0  0  0
    2.3316   -2.0429    0.3387 O   0  0  0  0  0  0  0  0  0  0  0  0
    3.5134    0.7355    1.7595 C   0  0  0  0  0  0  0  0  0  0  0  0
    3.8542   -2.2677    2.1370 H   0  0  0  0  0  0  0  0  0  0  0  0
    1.9150   -0.1900    2.8718 H   0  0  0  0  0  0  0  0  0  0  0  0
    4.2738    0.4631    1.0203 H   0  0  0  0  0  0  0  0  0  0  0  0
    2.8812    1.5216    1.3361 H   0  0  0  0  0  0  0  0  0  0  0  0
    4.0168    1.1382    2.6445 H   0  0  0  0  0  0  0  0  0  0  0  0
    0.7702   -0.4205    0.4562 N   0  0  0  0  0  0  0  0  0  0  0  0
    0.1276   -0.6543   -0.8609 C   0  0  2  0  0  0  0  0  0  0  0  0
   -0.6054   -2.0129   -0.9190 C   0  0  0  0  0  0  0  0  0  0  0  0
   -0.3737   -2.8373   -1.7909 O   0  0  0  0  0  0  0  0  0  0  0  0
    1.0616   -0.3709   -2.0617 C   0  0  0  0  0  0  0  0  0  0  0  0
    2.1774   -1.2579   -2.1682 O   0  0  0  0  0  0  0  0  0  0  0  0
    0.5329    0.4416    0.9409 H   0  0  0  0  0  0  0  0  0  0  0  0
   -0.6726    0.0851   -0.9546 H   0  0  0  0  0  0  0  0  0  0  0  0
    1.4405    0.6525   -1.9750 H   0  0  0  0  0  0  0  0  0  0  0  0
    0.4830   -0.4275   -2.9898 H   0  0  0  0  0  0  0  0  0  0  0  0
    2.3181   -1.7347   -1.3133 H   0  0  0  0  0  0  0  0  0  0  0  0
   -1.6325   -2.2485   -0.0175 N   0  0  0  0  0  0  0  0  0  0  0  0
   -2.3931   -3.5062    0.1437 C   0  0  2  0  0  0  0  0  0  0  0  0
   -1.5402   -4.7024    0.6266 C   0  0  0  0  0  0  0  0  0  0  0  0
   -1.8567   -5.2860    1.6551 O   0  0  0  0  0  0  0  0  0  0  0  0
   -3.1801   -3.8640   -1.1252 C   0  0  0  0  0  0  0  0  0  0  0  0
   -1.6996   -1.5774    0.7413 H   0  0  0  0  0  0  0  0  0  0  0  0
   -3.1344   -3.3271    0.9291 H   0  0  0  0  0  0  0  0  0  0  0  0
   -2.5153   -4.1897   -1.9303 H   0  0  0  0  0  0  0  0  0  0  0  0
   -3.8787   -4.6793   -0.9134 H   0  0  0  0  0  0  0  0  0  0  0  0
   -3.7526   -2.9997   -1.4738 H   0  0  0  0  0  0  0  0  0  0  0  0
   -0.4012   -5.0896   -0.0503 N   0  0  0  0  0  0  0  0  0  0  0  0
    0.5163   -6.1182    0.4166 C   0  0  0  0  0  0  0  0  0  0  0  0
   -0.1396   -4.5171   -0.8583 H   0  0  0  0  0  0  0  0  0  0  0  0
    0.0030   -7.0821    0.4947 H   0  0  0  0  0  0  0  0  0  0  0  0
    1.3493   -6.2250   -0.2850 H   0  0  0  0  0  0  0  0  0  0  0  0
    0.9226   -5.8522    1.3977 H   0  0  0  0  0  0  0  0  0  0  0  0
  1  2  2  0  0  0  0
  1  3  1  0  0  0  0
  1  7  1  0  0  0  0
  3  4  1  0  0  0  0
  3  5  1  0  0  0  0
  3  6  1  0  0  0  0
  7  8  1  0  0  0  0
  7 12  1  0  0  0  0
  8  9  1  0  0  0  0
  8 11  1  0  0  0  0
  8 13  1  0  0  0  0
  9 10  2  0  0  0  0
  9 17  1  0  0  0  0
 11 14  1  0  0  0  0
 11 15  1  0  0  0  0
 11 16  1  0  0  0  0
 17 18  1  0  0  0  0
 17 23  1  0  0  0  0
 18 19  1  0  0  0  0
 18 21  1  0  0  0  0
 18 24  1  0  0  0  0
 19 20  2  0  0  0  0
 19 28  1  0  0  0  0
 21 22  1  0  0  0  0
 21 25  1  0  0  0  0
 21 26  1  0  0  0  0
 22 27  1  0  0  0  0
 28 29  1  0  0  0  0
 28 33  1  0  0  0  0
 29 30  1  0  0  0  0
 29 32  1  0  0  0  0
 29 34  1  0  0  0  0
 30 31  2  0  0  0  0
 30 38  1  0  0  0  0
 32 35  1  0  0  0  0
 32 36  1  0  0  0  0
 32 37  1  0  0  0  0
 38 39  1  0  0  0  0
 38 40  1  0  0  0  0
 39 41  1  0  0  0  0
 39 42  1  0  0  0  0
 39 43  1  0  0  0  0
M  END
$$$$

  -OEChem-05262217303D

 43 42  0     1  0  0  0  0  0999 V2000
    3.8881   -1.6571    4.0368 C   0  0  0  0  0  0  0  0  0  0  0  0
    3.4316   -0.8688    4.8498 O   0  0  0  0  0  0  0  0  0  0  0  0
    4.7618   -2.8090    4.4952 C   0  0  0  0  0  0  0  0  0  0  0  0
    5.7298   -2.7677    3.9900 H   0  0  0  0  0  0  0  0  0  0  0  0
    4.9253   -2.7519    5.5751 H   0  0  0  0  0  0  0  0  0  0  0  0
    4.2773   -3.7604    4.2621 H   0  0  0  0  0  0  0  0  0  0  0  0
    3.5926   -1.5086    2.6984 N   0  0  0  0  0  0  0  0  0  0  0  0
    2.6332   -0.5312    2.1697 C   0  0  2  0  0  0  0  0  0  0  0  0
    1.9398   -1.0442    0.8908 C   0  0  0  0  0  0  0  0  0  0  0  0
    2.3785   -2.0297    0.3098 O   0  0  0  0  0  0  0  0  0  0  0  0
    3.3787    0.7771    1.8881 C   0  0  0  0  0  0  0  0  0  0  0  0
    3.8974   -2.2480    2.0657 H   0  0  0  0  0  0  0  0  0  0  0  0
    1.8506   -0.3490    2.9141 H   0  0  0  0  0  0  0  0  0  0  0  0
    4.1576    0.6203    1.1347 H   0  0  0  0  0  0  0  0  0  0  0  0
    2.6889    1.5435    1.5227 H   0  0  0  0  0  0  0  0  0  0  0  0
    3.8507    1.1484    2.8036 H   0  0  0  0  0  0  0  0  0  0  0  0
    0.7924   -0.4263    0.4195 N   0  0  0  0  0  0  0  0  0  0  0  0
    0.1717   -0.6477   -0.9097 C   0  0  2  0  0  0  0  0  0  0  0  0
   -0.5708   -2.0005   -0.9955 C   0  0  0  0  0  0  0  0  0  0  0  0
   -0.1397   -2.9377   -1.6507 O   0  0  0  0  0  0  0  0  0  0  0  0
    1.1203   -0.3573   -2.0968 C   0  0  0  0  0  0  0  0  0  0  0  0
    2.2366   -1.2423   -2.1999 O   0  0  0  0  0  0  0  0  0  0  0  0
    0.5142    0.4058    0.9332 H   0  0  0  0  0  0  0  0  0  0  0  0
   -0.6185    0.1010   -1.0104 H   0  0  0  0  0  0  0  0  0  0  0  0
    1.4989    0.6649   -1.9981 H   0  0  0  0  0  0  0  0  0  0  0  0
    0.5516   -0.4063   -3.0313 H   0  0  0  0  0  0  0  0  0  0  0  0
    2.3516   -1.7433   -1.3543 H   0  0  0  0  0  0  0  0  0  0  0  0
   -1.7960   -2.1277   -0.3572 N   0  0  0  0  0  0  0  0  0  0  0  0
   -2.6236   -3.3500   -0.2709 C   0  0  2  0  0  0  0  0  0  0  0  0
   -1.9738   -4.4969    0.5383 C   0  0  0  0  0  0  0  0  0  0  0  0
   -2.5484   -4.9279    1.5295 O   0  0  0  0  0  0  0  0  0  0  0  0
   -3.0714   -3.8331   -1.6587 C   0  0  0  0  0  0  0  0  0  0  0  0
   -2.0554   -1.3581    0.2518 H   0  0  0  0  0  0  0  0  0  0  0  0
   -3.5347   -3.0763    0.2712 H   0  0  0  0  0  0  0  0  0  0  0  0
   -2.2345   -4.2465   -2.2288 H   0  0  0  0  0  0  0  0  0  0  0  0
   -3.8288   -4.6164   -1.5552 H   0  0  0  0  0  0  0  0  0  0  0  0
   -3.5050   -3.0056   -2.2279 H   0  0  0  0  0  0  0  0  0  0  0  0
   -0.7395   -5.0103    0.1931 N   0  0  0  0  0  0  0  0  0  0  0  0
   -0.0264   -6.0133    0.9709 C   0  0  0  0  0  0  0  0  0  0  0  0
   -0.2595   -4.5451   -0.5835 H   0  0  0  0  0  0  0  0  0  0  0  0
    0.9211   -6.2634    0.4839 H   0  0  0  0  0  0  0  0  0  0  0  0
    0.1891   -5.6365    1.9759 H   0  0  0  0  0  0  0  0  0  0  0  0
   -0.6233   -6.9273    1.0558 H   0  0  0  0  0  0  0  0  0  0  0  0
  1  2  2  0  0  0  0
  1  3  1  0  0  0  0
  1  7  1  0  0  0  0
  3  4  1  0  0  0  0
  3  5  1  0  0  0  0
  3  6  1  0  0  0  0
  7  8  1  0  0  0  0
  7 12  1  0  0  0  0
  8  9  1  0  0  0  0
  8 11  1  0  0  0  0
  8 13  1  0  0  0  0
  9 10  2  0  0  0  0
  9 17  1  0  0  0  0
 11 14  1  0  0  0  0
 11 15  1  0  0  0  0
 11 16  1  0  0  0  0
 17 18  1  0  0  0  0
 17 23  1  0  0  0  0
 18 19  1  0  0  0  0
 18 21  1  0  0  0  0
 18 24  1  0  0  0  0
 19 20  2  0  0  0  0
 19 28  1  0  0  0  0
 21 22  1  0  0  0  0
 21 25  1  0  0  0  0
 21 26  1  0  0  0  0
 22 27  1  0  0  0  0
 28 29  1  0  0  0  0
 28 33  1  0  0  0  0
 29 30  1  0  0  0  0
 29 32  1  0  0  0  0
 29 34  1  0  0  0  0
 30 31  2  0  0  0  0
 30 38  1  0  0  0  0
 32 35  1  0  0  0  0
 32 36  1  0  0  0  0
 32 37  1  0  0  0  0
 38 39  1  0  0  0  0
 38 40  1  0  0  0  0
 39 41  1  0  0  0  0
 39 42  1  0  0  0  0
 39 43  1  0  0  0  0
M  END
$$$$

  -OEChem-05262217303D

 43 42  0     1  0  0  0  0  0999 V2000
    3.8118   -1.8229    4.0007 C   0  0  0  0  0  0  0  0  0  0  0  0
    3.2420   -1.1802    4.8684 O   0  0  0  0  0  0  0  0  0  0  0  0
    4.7615   -2.9444    4.3774 C   0  0  0  0  0  0  0  0  0  0  0  0
    5.7496   -2.7573    3.9499 H   0  0  0  0  0  0  0  0  0  0  0  0
    4.8550   -3.0101    5.4650 H   0  0  0  0  0  0  0  0  0  0  0  0
    4.3828   -3.8968    3.9983 H   0  0  0  0  0  0  0  0  0  0  0  0
    3.5775   -1.5393    2.6720 N   0  0  0  0  0  0  0  0  0  0  0  0
    2.5687   -0.5854    2.1931 C   0  0  2  0  0  0  0  0  0  0  0  0
    1.9935   -1.0046    0.8234 C   0  0  0  0  0  0  0  0  0  0  0  0
    2.5583   -1.8733    0.1711 O   0  0  0  0  0  0  0  0  0  0  0  0
    3.2196    0.7989    2.1026 C   0  0  0  0  0  0  0  0  0  0  0  0
    3.9764   -2.1744    1.9807 H   0  0  0  0  0  0  0  0  0  0  0  0
    1.7338   -0.5478    2.9015 H   0  0  0  0  0  0  0  0  0  0  0  0
    4.0520    0.7841    1.3916 H   0  0  0  0  0  0  0  0  0  0  0  0
    2.4936    1.5479    1.7732 H   0  0  0  0  0  0  0  0  0  0  0  0
    3.6044    1.1010    3.0820 H   0  0  0  0  0  0  0  0  0  0  0  0
    0.8355   -0.4110    0.3449 N   0  0  0  0  0  0  0  0  0  0  0  0
    0.2083   -0.6135   -0.9852 C   0  0  2  0  0  0  0  0  0  0  0  0
   -0.5181   -1.9733   -1.1041 C   0  0  0  0  0  0  0  0  0  0  0  0
    0.0603   -2.9881   -1.4623 O   0  0  0  0  0  0  0  0  0  0  0  0
    1.1279   -0.3000   -2.1877 C   0  0  0  0  0  0  0  0  0  0  0  0
    2.2478   -1.1726   -2.3297 O   0  0  0  0  0  0  0  0  0  0  0  0
    0.4364    0.3016    0.9501 H   0  0  0  0  0  0  0  0  0  0  0  0
   -0.5851    0.1341   -1.0601 H   0  0  0  0  0  0  0  0  0  0  0  0
    1.5018    0.7229   -2.0784 H   0  0  0  0  0  0  0  0  0  0  0  0
    0.5402   -0.3373   -3.1108 H   0  0  0  0  0  0  0  0  0  0  0  0
    2.4472   -1.6104   -1.4629 H   0  0  0  0  0  0  0  0  0  0  0  0
   -1.8580   -2.0521   -0.7502 N   0  0  0  0  0  0  0  0  0  0  0  0
   -2.7005   -3.2674   -0.7299 C   0  0  2  0  0  0  0  0  0  0  0  0
   -2.2964   -4.3058    0.3425 C   0  0  0  0  0  0  0  0  0  0  0  0
   -3.1140   -4.6356    1.1917 O   0  0  0  0  0  0  0  0  0  0  0  0
   -2.7948   -3.9163   -2.1188 C   0  0  0  0  0  0  0  0  0  0  0  0
   -2.2731   -1.2035   -0.3793 H   0  0  0  0  0  0  0  0  0  0  0  0
   -3.7135   -2.9442   -0.4680 H   0  0  0  0  0  0  0  0  0  0  0  0
   -1.8459   -4.3744   -2.4120 H   0  0  0  0  0  0  0  0  0  0  0  0
   -3.5601   -4.6985   -2.1135 H   0  0  0  0  0  0  0  0  0  0  0  0
   -3.0683   -3.1698   -2.8701 H   0  0  0  0  0  0  0  0  0  0  0  0
   -1.0241   -4.8399    0.3831 N   0  0  0  0  0  0  0  0  0  0  0  0
   -0.5596   -5.7643    1.4071 C   0  0  0  0  0  0  0  0  0  0  0  0
   -0.3566   -4.4691   -0.3005 H   0  0  0  0  0  0  0  0  0  0  0  0
    0.4795   -6.0478    1.2145 H   0  0  0  0  0  0  0  0  0  0  0  0
   -0.6151   -5.2985    2.3965 H   0  0  0  0  0  0  0  0  0  0  0  0
   -1.1715   -6.6723    1.4082 H   0  0  0  0  0  0  0  0  0  0  0  0
  1  2  2  0  0  0  0
  1  3  1  0  0  0  0
  1  7  1  0  0  0  0
  3  4  1  0  0  0  0
  3  5  1  0  0  0  0
  3  6  1  0  0  0  0
  7  8  1  0  0  0  0
  7 12  1  0  0  0  0
  8  9  1  0  0  0  0
  8 11  1  0  0  0  0
  8 13  1  0  0  0  0
  9 10  2  0  0  0  0
  9 17  1  0  0  0  0
 11 14  1  0  0  0  0
 11 15  1  0  0  0  0
 11 16  1  0  0  0  0
 17 18  1  0  0  0  0
 17 23  1  0  0  0  0
 18 19  1  0  0  0  0
 18 21  1  0  0  0  0
 18 24  1  0  0  0  0
 19 20  2  0  0  0  0
 19 28  1  0  0  0  0
 21 22  1  0  0  0  0
 21 25  1  0  0  0  0
 21 26  1  0  0  0  0
 22 27  1  0  0  0  0
 28 29  1  0  0  0  0
 28 33  1  0  0  0  0
 29 30  1  0  0  0  0
 29 32  1  0  0  0  0
 29 34  1  0  0  0  0
 30 31  2  0  0  0  0
 30 38  1  0  0  0  0
 32 35  1  0  0  0  0
 32 36  1  0  0  0  0
 32 37  1  0  0  0  0
 38 39  1  0  0  0  0
 38 40  1  0  0  0  0
 39 41  1  0  0  0  0
 39 42  1  0  0  0  0
 39 43  1  0  0  0  0
M  END
$$$$

  -OEChem-05262217303D

 43 42  0     1  0  0  0  0  0999 V2000
    3.5770   -2.1181    3.8824 C   0  0  0  0  0  0  0  0  0  0  0  0
    2.8064   -1.7677    4.7623 O   0  0  0  0  0  0  0  0  0  0  0  0
    4.6333   -3.1696    4.1650 C   0  0  0  0  0  0  0  0  0  0  0  0
    5.6298   -2.7474    4.0136 H   0  0  0  0  0  0  0  0  0  0  0  0
    4.5515   -3.5183    5.1983 H   0  0  0  0  0  0  0  0  0  0  0  0
    4.5007   -4.0219    3.4942 H   0  0  0  0  0  0  0  0  0  0  0  0
    3.4826   -1.5606    2.6250 N   0  0  0  0  0  0  0  0  0  0  0  0
    2.4094   -0.6518    2.2014 C   0  0  2  0  0  0  0  0  0  0  0  0
    2.0400   -0.8555    0.7167 C   0  0  0  0  0  0  0  0  0  0  0  0
    2.8108   -1.4674   -0.0115 O   0  0  0  0  0  0  0  0  0  0  0  0
    2.8741    0.7864    2.4511 C   0  0  0  0  0  0  0  0  0  0  0  0
    4.0534   -1.9735    1.8874 H   0  0  0  0  0  0  0  0  0  0  0  0
    1.5072   -0.8477    2.7909 H   0  0  0  0  0  0  0  0  0  0  0  0
    3.7704    1.0069    1.8621 H   0  0  0  0  0  0  0  0  0  0  0  0
    2.0915    1.4993    2.1754 H   0  0  0  0  0  0  0  0  0  0  0  0
    3.1108    0.9284    3.5106 H   0  0  0  0  0  0  0  0  0  0  0  0
    0.8506   -0.3328    0.2299 N   0  0  0  0  0  0  0  0  0  0  0  0
    0.2383   -0.5383   -1.1086 C   0  0  2  0  0  0  0  0  0  0  0  0
   -0.4014   -1.9373   -1.2564 C   0  0  0  0  0  0  0  0  0  0  0  0
    0.2772   -2.9534   -1.2197 O   0  0  0  0  0  0  0  0  0  0  0  0
    1.1174   -0.1869   -2.3286 C   0  0  0  0  0  0  0  0  0  0  0  0
    2.2608   -1.0201   -2.4978 O   0  0  0  0  0  0  0  0  0  0  0  0
    0.2736    0.1182    0.9346 H   0  0  0  0  0  0  0  0  0  0  0  0
   -0.5901    0.1721   -1.1639 H   0  0  0  0  0  0  0  0  0  0  0  0
    1.4605    0.8465   -2.2164 H   0  0  0  0  0  0  0  0  0  0  0  0
    0.5125   -0.2348   -3.2400 H   0  0  0  0  0  0  0  0  0  0  0  0
    2.5992   -1.3082   -1.6098 H   0  0  0  0  0  0  0  0  0  0  0  0
   -1.7843   -2.0544   -1.2165 N   0  0  0  0  0  0  0  0  0  0  0  0
   -2.5695   -3.3071   -1.2065 C   0  0  2  0  0  0  0  0  0  0  0  0
   -2.4317   -4.1339    0.0928 C   0  0  0  0  0  0  0  0  0  0  0  0
   -3.4229   -4.3321    0.7830 O   0  0  0  0  0  0  0  0  0  0  0  0
   -2.2759   -4.1646   -2.4466 C   0  0  0  0  0  0  0  0  0  0  0  0
   -2.3082   -1.1870   -1.1564 H   0  0  0  0  0  0  0  0  0  0  0  0
   -3.6242   -3.0200   -1.2693 H   0  0  0  0  0  0  0  0  0  0  0  0
   -1.2722   -4.5977   -2.4062 H   0  0  0  0  0  0  0  0  0  0  0  0
   -2.9960   -4.9860   -2.5122 H   0  0  0  0  0  0  0  0  0  0  0  0
   -2.3566   -3.5601   -3.3550 H   0  0  0  0  0  0  0  0  0  0  0  0
   -1.2069   -4.6130    0.5122 N   0  0  0  0  0  0  0  0  0  0  0  0
   -0.9956   -5.3318    1.7608 C   0  0  0  0  0  0  0  0  0  0  0  0
   -0.3974   -4.3270   -0.0475 H   0  0  0  0  0  0  0  0  0  0  0  0
   -1.6096   -6.2379    1.7883 H   0  0  0  0  0  0  0  0  0  0  0  0
    0.0546   -5.6238    1.8532 H   0  0  0  0  0  0  0  0  0  0  0  0
   -1.2576   -4.7007    2.6162 H   0  0  0  0  0  0  0  0  0  0  0  0
  1  2  2  0  0  0  0
  1  3  1  0  0  0  0
  1  7  1  0  0  0  0
  3  4  1  0  0  0  0
  3  5  1  0  0  0  0
  3  6  1  0  0  0  0
  7  8  1  0  0  0  0
  7 12  1  0  0  0  0
  8  9  1  0  0  0  0
  8 11  1  0  0  0  0
  8 13  1  0  0  0  0
  9 10  2  0  0  0  0
  9 17  1  0  0  0  0
 11 14  1  0  0  0  0
 11 15  1  0  0  0  0
 11 16  1  0  0  0  0
 17 18  1  0  0  0  0
 17 23  1  0  0  0  0
 18 19  1  0  0  0  0
 18 21  1  0  0  0  0
 18 24  1  0  0  0  0
 19 20  2  0  0  0  0
 19 28  1  0  0  0  0
 21 22  1  0  0  0  0
 21 25  1  0  0  0  0
 21 26  1  0  0  0  0
 22 27  1  0  0  0  0
 28 29  1  0  0  0  0
 28 33  1  0  0  0  0
 29 30  1  0  0  0  0
 29 32  1  0  0  0  0
 29 34  1  0  0  0  0
 30 31  2  0  0  0  0
 30 38  1  0  0  0  0
 32 35  1  0  0  0  0
 32 36  1  0  0  0  0
 32 37  1  0  0  0  0
 38 39  1  0  0  0  0
 38 40  1  0  0  0  0
 39 41  1  0  0  0  0
 39 42  1  0  0  0  0
 39 43  1  0  0  0  0
M  END
$$$$

  -OEChem-05262217303D

 43 42  0     1  0  0  0  0  0999 V2000
    3.6418   -2.1823    3.8190 C   0  0  0  0  0  0  0  0  0  0  0  0
    2.8432   -1.9308    4.7078 O   0  0  0  0  0  0  0  0  0  0  0  0
    4.7604   -3.1793    4.0562 C   0  0  0  0  0  0  0  0  0  0  0  0
    5.7290   -2.6947    3.9115 H   0  0  0  0  0  0  0  0  0  0  0  0
    4.7095   -3.5676    5.0773 H   0  0  0  0  0  0  0  0  0  0  0  0
    4.6709   -4.0144    3.3572 H   0  0  0  0  0  0  0  0  0  0  0  0
    3.5191   -1.5675    2.5912 N   0  0  0  0  0  0  0  0  0  0  0  0
    2.3858   -0.7182    2.2019 C   0  0  2  0  0  0  0  0  0  0  0  0
    2.0887   -0.8157    0.6900 C   0  0  0  0  0  0  0  0  0  0  0  0
    2.9311   -1.3030   -0.0538 O   0  0  0  0  0  0  0  0  0  0  0  0
    2.7057    0.7273    2.5982 C   0  0  0  0  0  0  0  0  0  0  0  0
    4.1244   -1.8987    1.8403 H   0  0  0  0  0  0  0  0  0  0  0  0
    1.4848   -1.0477    2.7307 H   0  0  0  0  0  0  0  0  0  0  0  0
    3.5966    1.0815    2.0697 H   0  0  0  0  0  0  0  0  0  0  0  0
    1.8698    1.3896    2.3546 H   0  0  0  0  0  0  0  0  0  0  0  0
    2.8920    0.7918    3.6750 H   0  0  0  0  0  0  0  0  0  0  0  0
    0.8876   -0.3229    0.1992 N   0  0  0  0  0  0  0  0  0  0  0  0
    0.2877   -0.5338   -1.1457 C   0  0  2  0  0  0  0  0  0  0  0  0
   -0.3142   -1.9475   -1.3133 C   0  0  0  0  0  0  0  0  0  0  0  0
    0.3093   -2.9393   -0.9602 O   0  0  0  0  0  0  0  0  0  0  0  0
    1.1572   -0.1821   -2.3708 C   0  0  0  0  0  0  0  0  0  0  0  0
    2.3024   -1.0130   -2.5324 O   0  0  0  0  0  0  0  0  0  0  0  0
    0.2583    0.0113    0.9241 H   0  0  0  0  0  0  0  0  0  0  0  0
   -0.5536    0.1615   -1.1973 H   0  0  0  0  0  0  0  0  0  0  0  0
    1.4946    0.8542   -2.2676 H   0  0  0  0  0  0  0  0  0  0  0  0
    0.5502   -0.2416   -3.2802 H   0  0  0  0  0  0  0  0  0  0  0  0
    2.6958   -1.2130   -1.6419 H   0  0  0  0  0  0  0  0  0  0  0  0
   -1.6669   -2.0747   -1.5996 N   0  0  0  0  0  0  0  0  0  0  0  0
   -2.4528   -3.3263   -1.6592 C   0  0  2  0  0  0  0  0  0  0  0  0
   -2.6661   -4.0191   -0.2931 C   0  0  0  0  0  0  0  0  0  0  0  0
   -3.8056   -4.1941    0.1178 O   0  0  0  0  0  0  0  0  0  0  0  0
   -1.8721   -4.3038   -2.6911 C   0  0  0  0  0  0  0  0  0  0  0  0
   -2.1634   -1.2148   -1.8117 H   0  0  0  0  0  0  0  0  0  0  0  0
   -3.4521   -3.0554   -2.0154 H   0  0  0  0  0  0  0  0  0  0  0  0
   -0.9075   -4.7028   -2.3646 H   0  0  0  0  0  0  0  0  0  0  0  0
   -2.5569   -5.1454   -2.8343 H   0  0  0  0  0  0  0  0  0  0  0  0
   -1.7334   -3.8033   -3.6540 H   0  0  0  0  0  0  0  0  0  0  0  0
   -1.5981   -4.4173    0.4850 N   0  0  0  0  0  0  0  0  0  0  0  0
   -1.7252   -5.0402    1.7947 C   0  0  0  0  0  0  0  0  0  0  0  0
   -0.6683   -4.1795    0.1273 H   0  0  0  0  0  0  0  0  0  0  0  0
   -0.7346   -5.2476    2.2110 H   0  0  0  0  0  0  0  0  0  0  0  0
   -2.2602   -4.3792    2.4842 H   0  0  0  0  0  0  0  0  0  0  0  0
   -2.2715   -5.9856    1.7163 H   0  0  0  0  0  0  0  0  0  0  0  0
  1  2  2  0  0  0  0
  1  3  1  0  0  0  0
  1  7  1  0  0  0  0
  3  4  1  0  0  0  0
  3  5  1  0  0  0  0
  3  6  1  0  0  0  0
  7  8  1  0  0  0  0
  7 12  1  0  0  0  0
  8  9  1  0  0  0  0
  8 11  1  0  0  0  0
  8 13  1  0  0  0  0
  9 10  2  0  0  0  0
  9 17  1  0  0  0  0
 11 14  1  0  0  0  0
 11 15  1  0  0  0  0
 11 16  1  0  0  0  0
 17 18  1  0  0  0  0
 17 23  1  0  0  0  0
 18 19  1  0  0  0  0
 18 21  1  0  0  0  0
 18 24  1  0  0  0  0
 19 20  2  0  0  0  0
 19 28  1  0  0  0  0
 21 22  1  0  0  0  0
 21 25  1  0  0  0  0
 21 26  1  0  0  0  0
 22 27  1  0  0  0  0
 28 29  1  0  0  0  0
 28 33  1  0  0  0  0
 29 30  1  0  0  0  0
 29 32  1  0  0  0  0
 29 34  1  0  0  0  0
 30 31  2  0  0  0  0
 30 38  1  0  0  0  0
 32 35  1  0  0  0  0
 32 36  1  0  0  0  0
 32 37  1  0  0  0  0
 38 39  1  0  0  0  0
 38 40  1  0  0  0  0
 39 41  1  0  0  0  0
 39 42  1  0  0  0  0
 39 43  1  0  0  0  0
M  END
$$$$

  -OEChem-05262217303D

 43 42  0     1  0  0  0  0  0999 V2000
    3.6558   -2.1854    3.7963 C   0  0  0  0  0  0  0  0  0  0  0  0
    2.8364   -2.0046    4.6834 O   0  0  0  0  0  0  0  0  0  0  0  0
    4.8285   -3.1216    4.0187 C   0  0  0  0  0  0  0  0  0  0  0  0
    5.7682   -2.5864    3.8619 H   0  0  0  0  0  0  0  0  0  0  0  0
    4.8115   -3.5121    5.0402 H   0  0  0  0  0  0  0  0  0  0  0  0
    4.7733   -3.9595    3.3195 H   0  0  0  0  0  0  0  0  0  0  0  0
    3.5131   -1.5401    2.5862 N   0  0  0  0  0  0  0  0  0  0  0  0
    2.3494   -0.7251    2.2142 C   0  0  2  0  0  0  0  0  0  0  0  0
    2.0969   -0.7459    0.6913 C   0  0  0  0  0  0  0  0  0  0  0  0
    2.9869   -1.1338   -0.0563 O   0  0  0  0  0  0  0  0  0  0  0  0
    2.5855    0.7075    2.7038 C   0  0  0  0  0  0  0  0  0  0  0  0
    4.1464   -1.8093    1.8337 H   0  0  0  0  0  0  0  0  0  0  0  0
    1.4535   -1.1293    2.6976 H   0  0  0  0  0  0  0  0  0  0  0  0
    3.4783    1.1303    2.2321 H   0  0  0  0  0  0  0  0  0  0  0  0
    1.7287    1.3440    2.4640 H   0  0  0  0  0  0  0  0  0  0  0  0
    2.7276    0.7185    3.7893 H   0  0  0  0  0  0  0  0  0  0  0  0
    0.8783   -0.3008    0.1983 N   0  0  0  0  0  0  0  0  0  0  0  0
    0.2977   -0.5297   -1.1526 C   0  0  2  0  0  0  0  0  0  0  0  0
   -0.2410   -1.9671   -1.3329 C   0  0  0  0  0  0  0  0  0  0  0  0
    0.2723   -2.9032   -0.7325 O   0  0  0  0  0  0  0  0  0  0  0  0
    1.1585   -0.1562   -2.3764 C   0  0  0  0  0  0  0  0  0  0  0  0
    2.3262   -0.9567   -2.5279 O   0  0  0  0  0  0  0  0  0  0  0  0
    0.2129   -0.0665    0.9300 H   0  0  0  0  0  0  0  0  0  0  0  0
   -0.5726    0.1294   -1.2066 H   0  0  0  0  0  0  0  0  0  0  0  0
    1.4657    0.8898   -2.2774 H   0  0  0  0  0  0  0  0  0  0  0  0
    0.5565   -0.2376   -3.2872 H   0  0  0  0  0  0  0  0  0  0  0  0
    2.7524   -1.0893   -1.6395 H   0  0  0  0  0  0  0  0  0  0  0  0
   -1.4803   -2.1537   -1.9296 N   0  0  0  0  0  0  0  0  0  0  0  0
   -2.2145   -3.4287   -2.0754 C   0  0  2  0  0  0  0  0  0  0  0  0
   -2.7519   -4.0148   -0.7492 C   0  0  0  0  0  0  0  0  0  0  0  0
   -3.9604   -4.1219   -0.5879 O   0  0  0  0  0  0  0  0  0  0  0  0
   -1.3848   -4.4665   -2.8465 C   0  0  0  0  0  0  0  0  0  0  0  0
   -1.8970   -1.3352   -2.3626 H   0  0  0  0  0  0  0  0  0  0  0  0
   -3.0974   -3.2177   -2.6878 H   0  0  0  0  0  0  0  0  0  0  0  0
   -0.5215   -4.8017   -2.2644 H   0  0  0  0  0  0  0  0  0  0  0  0
   -2.0000   -5.3423   -3.0756 H   0  0  0  0  0  0  0  0  0  0  0  0
   -1.0240   -4.0419   -3.7881 H   0  0  0  0  0  0  0  0  0  0  0  0
   -1.8974   -4.3919    0.2669 N   0  0  0  0  0  0  0  0  0  0  0  0
   -2.3396   -4.8782    1.5660 C   0  0  0  0  0  0  0  0  0  0  0  0
   -0.9095   -4.1618    0.1262 H   0  0  0  0  0  0  0  0  0  0  0  0
   -1.4755   -5.1511    2.1799 H   0  0  0  0  0  0  0  0  0  0  0  0
   -2.9097   -4.1049    2.0910 H   0  0  0  0  0  0  0  0  0  0  0  0
   -2.9719   -5.7644    1.4477 H   0  0  0  0  0  0  0  0  0  0  0  0
  1  2  2  0  0  0  0
  1  3  1  0  0  0  0
  1  7  1  0  0  0  0
  3  4  1  0  0  0  0
  3  5  1  0  0  0  0
  3  6  1  0  0  0  0
  7  8  1  0  0  0  0
  7 12  1  0  0  0  0
  8  9  1  0  0  0  0
  8 11  1  0  0  0  0
  8 13  1  0  0  0  0
  9 10  2  0  0  0  0
  9 17  1  0  0  0  0
 11 14  1  0  0  0  0
 11 15  1  0  0  0  0
 11 16  1  0  0  0  0
 17 18  1  0  0  0  0
 17 23  1  0  0  0  0
 18 19  1  0  0  0  0
 18 21  1  0  0  0  0
 18 24  1  0  0  0  0
 19 20  2  0  0  0  0
 19 28  1  0  0  0  0
 21 22  1  0  0  0  0
 21 25  1  0  0  0  0
 21 26  1  0  0  0  0
 22 27  1  0  0  0  0
 28 29  1  0  0  0  0
 28 33  1  0  0  0  0
 29 30  1  0  0  0  0
 29 32  1  0  0  0  0
 29 34  1  0  0  0  0
 30 31  2  0  0  0  0
 30 38  1  0  0  0  0
 32 35  1  0  0  0  0
 32 36  1  0  0  0  0
 32 37  1  0  0  0  0
 38 39  1  0  0  0  0
 38 40  1  0  0  0  0
 39 41  1  0  0  0  0
 39 42  1  0  0  0  0
 39 43  1  0  0  0  0
M  END
$$$$

  -OEChem-05262217303D

 43 42  0     1  0  0  0  0  0999 V2000
    3.6949   -2.1646    3.7744 C   0  0  0  0  0  0  0  0  0  0  0  0
    2.8552   -2.0552    4.6542 O   0  0  0  0  0  0  0  0  0  0  0  0
    4.8938   -3.0730    3.9716 C   0  0  0  0  0  0  0  0  0  0  0  0
    5.8182   -2.5091    3.8258 H   0  0  0  0  0  0  0  0  0  0  0  0
    4.8902   -3.4879    4.9835 H   0  0  0  0  0  0  0  0  0  0  0  0
    4.8598   -3.8955    3.2530 H   0  0  0  0  0  0  0  0  0  0  0  0
    3.5487   -1.4686    2.5934 N   0  0  0  0  0  0  0  0  0  0  0  0
    2.3448   -0.7103    2.2286 C   0  0  2  0  0  0  0  0  0  0  0  0
    2.1128   -0.7024    0.7024 C   0  0  0  0  0  0  0  0  0  0  0  0
    3.0233   -1.0420   -0.0445 O   0  0  0  0  0  0  0  0  0  0  0  0
    2.4869    0.7186    2.7631 C   0  0  0  0  0  0  0  0  0  0  0  0
    4.1994   -1.6879    1.8395 H   0  0  0  0  0  0  0  0  0  0  0  0
    1.4675   -1.1813    2.6856 H   0  0  0  0  0  0  0  0  0  0  0  0
    3.3536    1.2113    2.3111 H   0  0  0  0  0  0  0  0  0  0  0  0
    1.5927    1.3067    2.5363 H   0  0  0  0  0  0  0  0  0  0  0  0
    2.6213    0.7049    3.8495 H   0  0  0  0  0  0  0  0  0  0  0  0
    0.8790   -0.3064    0.2071 N   0  0  0  0  0  0  0  0  0  0  0  0
    0.3120   -0.5519   -1.1470 C   0  0  2  0  0  0  0  0  0  0  0  0
   -0.1644   -2.0108   -1.3326 C   0  0  0  0  0  0  0  0  0  0  0  0
    0.1916   -2.8826   -0.5477 O   0  0  0  0  0  0  0  0  0  0  0  0
    1.1620   -0.1412   -2.3665 C   0  0  0  0  0  0  0  0  0  0  0  0
    2.3584   -0.8989   -2.5134 O   0  0  0  0  0  0  0  0  0  0  0  0
    0.1971   -0.1287    0.9396 H   0  0  0  0  0  0  0  0  0  0  0  0
   -0.5879    0.0663   -1.2016 H   0  0  0  0  0  0  0  0  0  0  0  0
    1.4308    0.9147   -2.2605 H   0  0  0  0  0  0  0  0  0  0  0  0
    0.5684   -0.2381   -3.2813 H   0  0  0  0  0  0  0  0  0  0  0  0
    2.7967   -0.9988   -1.6264 H   0  0  0  0  0  0  0  0  0  0  0  0
   -1.2195   -2.2725   -2.1949 N   0  0  0  0  0  0  0  0  0  0  0  0
   -1.8875   -3.5726   -2.4160 C   0  0  2  0  0  0  0  0  0  0  0  0
   -2.7368   -4.0731   -1.2241 C   0  0  0  0  0  0  0  0  0  0  0  0
   -3.9382   -4.2500   -1.3769 O   0  0  0  0  0  0  0  0  0  0  0  0
   -0.8861   -4.6434   -2.8727 C   0  0  0  0  0  0  0  0  0  0  0  0
   -1.5000   -1.5064   -2.7999 H   0  0  0  0  0  0  0  0  0  0  0  0
   -2.5900   -3.4298   -3.2436 H   0  0  0  0  0  0  0  0  0  0  0  0
   -0.2006   -4.9202   -2.0665 H   0  0  0  0  0  0  0  0  0  0  0  0
   -1.4211   -5.5449   -3.1875 H   0  0  0  0  0  0  0  0  0  0  0  0
   -0.2966   -4.2774   -3.7188 H   0  0  0  0  0  0  0  0  0  0  0  0
   -2.1741   -4.2997    0.0159 N   0  0  0  0  0  0  0  0  0  0  0  0
   -2.9262   -4.7168    1.1910 C   0  0  0  0  0  0  0  0  0  0  0  0
   -1.1862   -4.0480    0.1124 H   0  0  0  0  0  0  0  0  0  0  0  0
   -2.2504   -4.8565    2.0402 H   0  0  0  0  0  0  0  0  0  0  0  0
   -3.6698   -3.9592    1.4590 H   0  0  0  0  0  0  0  0  0  0  0  0
   -3.4412   -5.6640    1.0003 H   0  0  0  0  0  0  0  0  0  0  0  0
  1  2  2  0  0  0  0
  1  3  1  0  0  0  0
  1  7  1  0  0  0  0
  3  4  1  0  0  0  0
  3  5  1  0  0  0  0
  3  6  1  0  0  0  0
  7  8  1  0  0  0  0
  7 12  1  0  0  0  0
  8  9  1  0  0  0  0
  8 11  1  0  0  0  0
  8 13  1  0  0  0  0
  9 10  2  0  0  0  0
  9 17  1  0  0  0  0
 11 14  1  0  0  0  0
 11 15  1  0  0  0  0
 11 16  1  0  0  0  0
 17 18  1  0  0  0  0
 17 23  1  0  0  0  0
 18 19  1  0  0  0  0
 18 21  1  0  0  0  0
 18 24  1  0  0  0  0
 19 20  2  0  0  0  0
 19 28  1  0  0  0  0
 21 22  1  0  0  0  0
 21 25  1  0  0  0  0
 21 26  1  0  0  0  0
 22 27  1  0  0  0  0
 28 29  1  0  0  0  0
 28 33  1  0  0  0  0
 29 30  1  0  0  0  0
 29 32  1  0  0  0  0
 29 34  1  0  0  0  0
 30 31  2  0  0  0  0
 30 38  1  0  0  0  0
 32 35  1  0  0  0  0
 32 36  1  0  0  0  0
 32 37  1  0  0  0  0
 38 39  1  0  0  0  0
 38 40  1  0  0  0  0
 39 41  1  0  0  0  0
 39 42  1  0  0  0  0
 39 43  1  0  0  0  0
M  END
$$$$

  -OEChem-05262217303D

 43 42  0     1  0  0  0  0  0999 V2000
    3.7411   -2.0105    3.8435 C   0  0  0  0  0  0  0  0  0  0  0  0
    2.9263   -1.8298    4.7347 O   0  0  0  0  0  0  0  0  0  0  0  0
    4.9311   -2.9229    4.0723 C   0  0  0  0  0  0  0  0  0  0  0  0
    5.8600   -2.3692    3.9157 H   0  0  0  0  0  0  0  0  0  0  0  0
    4.9189   -3.3086    5.0956 H   0  0  0  0  0  0  0  0  0  0  0  0
    4.8947   -3.7661    3.3780 H   0  0  0  0  0  0  0  0  0  0  0  0
    3.5787   -1.3853    2.6252 N   0  0  0  0  0  0  0  0  0  0  0  0
    2.3870   -0.6153    2.2456 C   0  0  2  0  0  0  0  0  0  0  0  0
    2.1031   -0.7032    0.7308 C   0  0  0  0  0  0  0  0  0  0  0  0
    2.9918   -1.0824   -0.0232 O   0  0  0  0  0  0  0  0  0  0  0  0
    2.5978    0.8413    2.6702 C   0  0  0  0  0  0  0  0  0  0  0  0
    4.2128   -1.6536    1.8733 H   0  0  0  0  0  0  0  0  0  0  0  0
    1.5115   -1.0204    2.7644 H   0  0  0  0  0  0  0  0  0  0  0  0
    3.4668    1.2664    2.1579 H   0  0  0  0  0  0  0  0  0  0  0  0
    1.7187    1.4450    2.4267 H   0  0  0  0  0  0  0  0  0  0  0  0
    2.7670    0.9008    3.7503 H   0  0  0  0  0  0  0  0  0  0  0  0
    0.8542   -0.3390    0.2497 N   0  0  0  0  0  0  0  0  0  0  0  0
    0.2781   -0.5940   -1.0988 C   0  0  2  0  0  0  0  0  0  0  0  0
   -0.1611   -2.0656   -1.2845 C   0  0  0  0  0  0  0  0  0  0  0  0
   -0.0004   -2.8743   -0.3767 O   0  0  0  0  0  0  0  0  0  0  0  0
    1.1075   -0.1449   -2.3207 C   0  0  0  0  0  0  0  0  0  0  0  0
    2.3260   -0.8630   -2.4831 O   0  0  0  0  0  0  0  0  0  0  0  0
    0.1791   -0.1565    0.9874 H   0  0  0  0  0  0  0  0  0  0  0  0
   -0.6423   -0.0056   -1.1430 H   0  0  0  0  0  0  0  0  0  0  0  0
    1.3453    0.9171   -2.2026 H   0  0  0  0  0  0  0  0  0  0  0  0
    0.5138   -0.2442   -3.2350 H   0  0  0  0  0  0  0  0  0  0  0  0
    2.7666   -0.9727   -1.5982 H   0  0  0  0  0  0  0  0  0  0  0  0
   -0.9887   -2.4030   -2.3459 N   0  0  0  0  0  0  0  0  0  0  0  0
   -1.5203   -3.7444   -2.6696 C   0  0  2  0  0  0  0  0  0  0  0  0
   -2.6236   -4.2627   -1.7184 C   0  0  0  0  0  0  0  0  0  0  0  0
   -3.6833   -4.6563   -2.1874 O   0  0  0  0  0  0  0  0  0  0  0  0
   -0.3874   -4.7717   -2.8053 C   0  0  0  0  0  0  0  0  0  0  0  0
   -1.0876   -1.6928   -3.0653 H   0  0  0  0  0  0  0  0  0  0  0  0
   -1.9912   -3.6644   -3.6548 H   0  0  0  0  0  0  0  0  0  0  0  0
    0.0652   -4.9957   -1.8349 H   0  0  0  0  0  0  0  0  0  0  0  0
   -0.7778   -5.7056   -3.2217 H   0  0  0  0  0  0  0  0  0  0  0  0
    0.3923   -4.3940   -3.4739 H   0  0  0  0  0  0  0  0  0  0  0  0
   -2.4400   -4.2934   -0.3509 N   0  0  0  0  0  0  0  0  0  0  0  0
   -3.4178   -4.8130    0.5945 C   0  0  0  0  0  0  0  0  0  0  0  0
   -1.5318   -3.9661   -0.0109 H   0  0  0  0  0  0  0  0  0  0  0  0
   -3.5947   -5.8785    0.4150 H   0  0  0  0  0  0  0  0  0  0  0  0
   -3.0540   -4.6896    1.6190 H   0  0  0  0  0  0  0  0  0  0  0  0
   -4.3675   -4.2768    0.4983 H   0  0  0  0  0  0  0  0  0  0  0  0
  1  2  2  0  0  0  0
  1  3  1  0  0  0  0
  1  7  1  0  0  0  0
  3  4  1  0  0  0  0
  3  5  1  0  0  0  0
  3  6  1  0  0  0  0
  7  8  1  0  0  0  0
  7 12  1  0  0  0  0
  8  9  1  0  0  0  0
  8 11  1  0  0  0  0
  8 13  1  0  0  0  0
  9 10  2  0  0  0  0
  9 17  1  0  0  0  0
 11 14  1  0  0  0  0
 11 15  1  0  0  0  0
 11 16  1  0  0  0  0
 17 18  1  0  0  0  0
 17 23  1  0  0  0  0
 18 19  1  0  0  0  0
 18 21  1  0  0  0  0
 18 24  1  0  0  0  0
 19 20  2  0  0  0  0
 19 28  1  0  0  0  0
 21 22  1  0  0  0  0
 21 25  1  0  0  0  0
 21 26  1  0  0  0  0
 22 27  1  0  0  0  0
 28 29  1  0  0  0  0
 28 33  1  0  0  0  0
 29 30  1  0  0  0  0
 29 32  1  0  0  0  0
 29 34  1  0  0  0  0
 30 31  2  0  0  0  0
 30 38  1  0  0  0  0
 32 35  1  0  0  0  0
 32 36  1  0  0  0  0
 32 37  1  0  0  0  0
 38 39  1  0  0  0  0
 38 40  1  0  0  0  0
 39 41  1  0  0  0  0
 39 42  1  0  0  0  0
 39 43  1  0  0  0  0
M  END
$$$$

  -OEChem-05262217303D

 43 42  0     1  0  0  0  0  0999 V2000
    3.7187   -2.0040    3.9042 C   0  0  0  0  0  0  0  0  0  0  0  0
    2.8682   -1.8883    4.7722 O   0  0  0  0  0  0  0  0  0  0  0  0
    4.9636   -2.8321    4.1612 C   0  0  0  0  0  0  0  0  0  0  0  0
    5.8547   -2.2071    4.0649 H   0  0  0  0  0  0  0  0  0  0  0  0
    4.9348   -3.2516    5.1707 H   0  0  0  0  0  0  0  0  0  0  0  0
    5.0221   -3.6518    3.4411 H   0  0  0  0  0  0  0  0  0  0  0  0
    3.5453   -1.3853    2.6842 N   0  0  0  0  0  0  0  0  0  0  0  0
    2.3174   -0.6889    2.2768 C   0  0  2  0  0  0  0  0  0  0  0  0
    2.1052   -0.7392    0.7472 C   0  0  0  0  0  0  0  0  0  0  0  0
    3.0240   -1.1194    0.0297 O   0  0  0  0  0  0  0  0  0  0  0  0
    2.3998    0.7619    2.7650 C   0  0  0  0  0  0  0  0  0  0  0  0
    4.2181   -1.6017    1.9497 H   0  0  0  0  0  0  0  0  0  0  0  0
    1.4522   -1.1770    2.7396 H   0  0  0  0  0  0  0  0  0  0  0  0
    3.2571    1.2699    2.3119 H   0  0  0  0  0  0  0  0  0  0  0  0
    1.4901    1.3103    2.5037 H   0  0  0  0  0  0  0  0  0  0  0  0
    2.5144    0.7900    3.8534 H   0  0  0  0  0  0  0  0  0  0  0  0
    0.8780   -0.3587    0.2248 N   0  0  0  0  0  0  0  0  0  0  0  0
    0.3158   -0.5745   -1.1381 C   0  0  2  0  0  0  0  0  0  0  0  0
   -0.4648   -1.9092   -1.2042 C   0  0  0  0  0  0  0  0  0  0  0  0
   -0.7229   -2.5039   -0.1623 O   0  0  0  0  0  0  0  0  0  0  0  0
    1.2639   -0.4637   -2.3519 C   0  0  0  0  0  0  0  0  0  0  0  0
    2.2522   -1.4876   -2.3812 O   0  0  0  0  0  0  0  0  0  0  0  0
    0.1766   -0.2166    0.9480 H   0  0  0  0  0  0  0  0  0  0  0  0
   -0.4287    0.2128   -1.2846 H   0  0  0  0  0  0  0  0  0  0  0  0
    1.7679    0.5078   -2.3152 H   0  0  0  0  0  0  0  0  0  0  0  0
    0.6897   -0.4934   -3.2832 H   0  0  0  0  0  0  0  0  0  0  0  0
    2.7495   -1.4682   -1.5211 H   0  0  0  0  0  0  0  0  0  0  0  0
   -1.0733   -2.3152   -2.3833 N   0  0  0  0  0  0  0  0  0  0  0  0
   -1.8357   -3.5621   -2.6068 C   0  0  2  0  0  0  0  0  0  0  0  0
   -3.2141   -3.6275   -1.9083 C   0  0  0  0  0  0  0  0  0  0  0  0
   -4.2202   -3.8147   -2.5797 O   0  0  0  0  0  0  0  0  0  0  0  0
   -0.9865   -4.7945   -2.2639 C   0  0  0  0  0  0  0  0  0  0  0  0
   -0.7810   -1.8109   -3.2158 H   0  0  0  0  0  0  0  0  0  0  0  0
   -2.0455   -3.6128   -3.6803 H   0  0  0  0  0  0  0  0  0  0  0  0
   -0.8068   -4.8684   -1.1875 H   0  0  0  0  0  0  0  0  0  0  0  0
   -1.5020   -5.7048   -2.5852 H   0  0  0  0  0  0  0  0  0  0  0  0
   -0.0204   -4.7445   -2.7754 H   0  0  0  0  0  0  0  0  0  0  0  0
   -3.3341   -3.4942   -0.5399 N   0  0  0  0  0  0  0  0  0  0  0  0
   -4.5960   -3.5656    0.1830 C   0  0  0  0  0  0  0  0  0  0  0  0
   -2.4712   -3.2830   -0.0320 H   0  0  0  0  0  0  0  0  0  0  0  0
   -4.4195   -3.4650    1.2581 H   0  0  0  0  0  0  0  0  0  0  0  0
   -5.2667   -2.7613   -0.1360 H   0  0  0  0  0  0  0  0  0  0  0  0
   -5.0874   -4.5276    0.0029 H   0  0  0  0  0  0  0  0  0  0  0  0
  1  2  2  0  0  0  0
  1  3  1  0  0  0  0
  1  7  1  0  0  0  0
  3  4  1  0  0  0  0
  3  5  1  0  0  0  0
  3  6  1  0  0  0  0
  7  8  1  0  0  0  0
  7 12  1  0  0  0  0
  8  9  1  0  0  0  0
  8 11  1  0  0  0  0
  8 13  1  0  0  0  0
  9 10  2  0  0  0  0
  9 17  1  0  0  0  0
 11 14  1  0  0  0  0
 11 15  1  0  0  0  0
 11 16  1  0  0  0  0
 17 18  1  0  0  0  0
 17 23  1  0  0  0  0
 18 19  1  0  0  0  0
 18 21  1  0  0  0  0
 18 24  1  0  0  0  0
 19 20  2  0  0  0  0
 19 28  1  0  0  0  0
 21 22  1  0  0  0  0
 21 25  1  0  0  0  0
 21 26  1  0  0  0  0
 22 27  1  0  0  0  0
 28 29  1  0  0  0  0
 28 33  1  0  0  0  0
 29 30  1  0  0  0  0
 29 32  1  0  0  0  0
 29 34  1  0  0  0  0
 30 31  2  0  0  0  0
 30 38  1  0  0  0  0
 32 35  1  0  0  0  0
 32 36  1  0  0  0  0
 32 37  1  0  0  0  0
 38 39  1  0  0  0  0
 38 40  1  0  0  0  0
 39 41  1  0  0  0  0
 39 42  1  0  0  0  0
 39 43  1  0  0  0  0
M  END
$$$$

  -OEChem-05262217303D

 43 42  0     1  0  0  0  0  0999 V2000
    3.7451   -1.9294    3.9011 C   0  0  0  0  0  0  0  0  0  0  0  0
    2.8950   -1.8087    4.7688 O   0  0  0  0  0  0  0  0  0  0  0  0
    4.9923   -2.7525    4.1643 C   0  0  0  0  0  0  0  0  0  0  0  0
    5.8823   -2.1286    4.0524 H   0  0  0  0  0  0  0  0  0  0  0  0
    4.9701   -3.1554    5.1809 H   0  0  0  0  0  0  0  0  0  0  0  0
    5.0475   -3.5839    3.4574 H   0  0  0  0  0  0  0  0  0  0  0  0
    3.5685   -1.3208    2.6762 N   0  0  0  0  0  0  0  0  0  0  0  0
    2.3379   -0.6307    2.2654 C   0  0  2  0  0  0  0  0  0  0  0  0
    2.1054   -0.7226    0.7414 C   0  0  0  0  0  0  0  0  0  0  0  0
    3.0201   -1.1025    0.0189 O   0  0  0  0  0  0  0  0  0  0  0  0
    2.4328    0.8330    2.7091 C   0  0  0  0  0  0  0  0  0  0  0  0
    4.2441   -1.5365    1.9440 H   0  0  0  0  0  0  0  0  0  0  0  0
    1.4766   -1.1010    2.7531 H   0  0  0  0  0  0  0  0  0  0  0  0
    3.2825    1.3249    2.2251 H   0  0  0  0  0  0  0  0  0  0  0  0
    1.5197    1.3757    2.4475 H   0  0  0  0  0  0  0  0  0  0  0  0
    2.5677    0.8930    3.7940 H   0  0  0  0  0  0  0  0  0  0  0  0
    0.8624   -0.3871    0.2268 N   0  0  0  0  0  0  0  0  0  0  0  0
    0.3009   -0.6279   -1.1312 C   0  0  2  0  0  0  0  0  0  0  0  0
   -0.4268   -1.9931   -1.1658 C   0  0  0  0  0  0  0  0  0  0  0  0
   -0.8827   -2.4400   -0.1177 O   0  0  0  0  0  0  0  0  0  0  0  0
    1.2296   -0.4767   -2.3559 C   0  0  0  0  0  0  0  0  0  0  0  0
    2.2621   -1.4556   -2.3982 O   0  0  0  0  0  0  0  0  0  0  0  0
    0.1605   -0.2532    0.9522 H   0  0  0  0  0  0  0  0  0  0  0  0
   -0.4791    0.1249   -1.2751 H   0  0  0  0  0  0  0  0  0  0  0  0
    1.6930    0.5146   -2.3195 H   0  0  0  0  0  0  0  0  0  0  0  0
    0.6459   -0.5243   -3.2806 H   0  0  0  0  0  0  0  0  0  0  0  0
    2.7648   -1.4209   -1.5415 H   0  0  0  0  0  0  0  0  0  0  0  0
   -0.7653   -2.5972   -2.3673 N   0  0  0  0  0  0  0  0  0  0  0  0
   -1.4366   -3.9015   -2.5510 C   0  0  2  0  0  0  0  0  0  0  0  0
   -2.9341   -3.9347   -2.1669 C   0  0  0  0  0  0  0  0  0  0  0  0
   -3.7495   -4.3787   -2.9644 O   0  0  0  0  0  0  0  0  0  0  0  0
   -0.6659   -5.0247   -1.8426 C   0  0  0  0  0  0  0  0  0  0  0  0
   -0.2652   -2.2329   -3.1749 H   0  0  0  0  0  0  0  0  0  0  0  0
   -1.4010   -4.1223   -3.6230 H   0  0  0  0  0  0  0  0  0  0  0  0
   -0.7447   -4.9369   -0.7551 H   0  0  0  0  0  0  0  0  0  0  0  0
   -1.0715   -5.9987   -2.1347 H   0  0  0  0  0  0  0  0  0  0  0  0
    0.3926   -4.9932   -2.1191 H   0  0  0  0  0  0  0  0  0  0  0  0
   -3.3720   -3.4888   -0.9363 N   0  0  0  0  0  0  0  0  0  0  0  0
   -4.7570   -3.5466   -0.4905 C   0  0  0  0  0  0  0  0  0  0  0  0
   -2.6492   -3.1445   -0.2992 H   0  0  0  0  0  0  0  0  0  0  0  0
   -5.0951   -4.5861   -0.4257 H   0  0  0  0  0  0  0  0  0  0  0  0
   -4.8543   -3.0874    0.4980 H   0  0  0  0  0  0  0  0  0  0  0  0
   -5.4063   -3.0066   -1.1874 H   0  0  0  0  0  0  0  0  0  0  0  0
  1  2  2  0  0  0  0
  1  3  1  0  0  0  0
  1  7  1  0  0  0  0
  3  4  1  0  0  0  0
  3  5  1  0  0  0  0
  3  6  1  0  0  0  0
  7  8  1  0  0  0  0
  7 12  1  0  0  0  0
  8  9  1  0  0  0  0
  8 11  1  0  0  0  0
  8 13  1  0  0  0  0
  9 10  2  0  0  0  0
  9 17  1  0  0  0  0
 11 14  1  0  0  0  0
 11 15  1  0  0  0  0
 11 16  1  0  0  0  0
 17 18  1  0  0  0  0
 17 23  1  0  0  0  0
 18 19  1  0  0  0  0
 18 21  1  0  0  0  0
 18 24  1  0  0  0  0
 19 20  2  0  0  0  0
 19 28  1  0  0  0  0
 21 22  1  0  0  0  0
 21 25  1  0  0  0  0
 21 26  1  0  0  0  0
 22 27  1  0  0  0  0
 28 29  1  0  0  0  0
 28 33  1  0  0  0  0
 29 30  1  0  0  0  0
 29 32  1  0  0  0  0
 29 34  1  0  0  0  0
 30 31  2  0  0  0  0
 30 38  1  0  0  0  0
 32 35  1  0  0  0  0
 32 36  1  0  0  0  0
 32 37  1  0  0  0  0
 38 39  1  0  0  0  0
 38 40  1  0  0  0  0
 39 41  1  0  0  0  0
 39 42  1  0  0  0  0
 39 43  1  0  0  0  0
M  END
$$$$

  -OEChem-05262217303D

 43 42  0     1  0  0  0  0  0999 V2000
    3.8198   -1.8903    3.9485 C   0  0  0  0  0  0  0  0  0  0  0  0
    2.9935   -1.7393    4.8340 O   0  0  0  0  0  0  0  0  0  0  0  0
    5.0850   -2.6851    4.2108 C   0  0  0  0  0  0  0  0  0  0  0  0
    5.9611   -2.0446    4.0824 H   0  0  0  0  0  0  0  0  0  0  0  0
    5.0803   -3.0754    5.2325 H   0  0  0  0  0  0  0  0  0  0  0  0
    5.1505   -3.5243    3.5138 H   0  0  0  0  0  0  0  0  0  0  0  0
    3.6021   -1.3399    2.7035 N   0  0  0  0  0  0  0  0  0  0  0  0
    2.3653   -0.6563    2.3030 C   0  0  2  0  0  0  0  0  0  0  0  0
    2.1039   -0.7792    0.7859 C   0  0  0  0  0  0  0  0  0  0  0  0
    3.0005   -1.1843    0.0543 O   0  0  0  0  0  0  0  0  0  0  0  0
    2.4737    0.8164    2.7131 C   0  0  0  0  0  0  0  0  0  0  0  0
    4.2626   -1.5752    1.9639 H   0  0  0  0  0  0  0  0  0  0  0  0
    1.5129   -1.1127    2.8187 H   0  0  0  0  0  0  0  0  0  0  0  0
    3.3189    1.2931    2.2062 H   0  0  0  0  0  0  0  0  0  0  0  0
    1.5595    1.3589    2.4539 H   0  0  0  0  0  0  0  0  0  0  0  0
    2.6254    0.8988    3.7943 H   0  0  0  0  0  0  0  0  0  0  0  0
    0.8557   -0.4448    0.2838 N   0  0  0  0  0  0  0  0  0  0  0  0
    0.2883   -0.6608   -1.0746 C   0  0  2  0  0  0  0  0  0  0  0  0
   -0.4251   -2.0314   -1.1267 C   0  0  0  0  0  0  0  0  0  0  0  0
   -1.0650   -2.3886   -0.1430 O   0  0  0  0  0  0  0  0  0  0  0  0
    1.2039   -0.4669   -2.3037 C   0  0  0  0  0  0  0  0  0  0  0  0
    2.2512   -1.4298   -2.3789 O   0  0  0  0  0  0  0  0  0  0  0  0
    0.1613   -0.2866    1.0116 H   0  0  0  0  0  0  0  0  0  0  0  0
   -0.5022    0.0852   -1.1959 H   0  0  0  0  0  0  0  0  0  0  0  0
    1.6514    0.5310   -2.2494 H   0  0  0  0  0  0  0  0  0  0  0  0
    0.6100   -0.5042   -3.2228 H   0  0  0  0  0  0  0  0  0  0  0  0
    2.7542   -1.4184   -1.5213 H   0  0  0  0  0  0  0  0  0  0  0  0
   -0.4972   -2.7642   -2.3012 N   0  0  0  0  0  0  0  0  0  0  0  0
   -1.1015   -4.1005   -2.4835 C   0  0  2  0  0  0  0  0  0  0  0  0
   -2.6450   -4.1467   -2.4002 C   0  0  0  0  0  0  0  0  0  0  0  0
   -3.2806   -4.6814   -3.2994 O   0  0  0  0  0  0  0  0  0  0  0  0
   -0.4718   -5.1234   -1.5280 C   0  0  0  0  0  0  0  0  0  0  0  0
    0.1837   -2.4777   -3.0043 H   0  0  0  0  0  0  0  0  0  0  0  0
   -0.8503   -4.4196   -3.5005 H   0  0  0  0  0  0  0  0  0  0  0  0
   -0.7700   -4.9357   -0.4924 H   0  0  0  0  0  0  0  0  0  0  0  0
   -0.7942   -6.1341   -1.7973 H   0  0  0  0  0  0  0  0  0  0  0  0
    0.6197   -5.0802   -1.5901 H   0  0  0  0  0  0  0  0  0  0  0  0
   -3.3244   -3.6184   -1.3211 N   0  0  0  0  0  0  0  0  0  0  0  0
   -4.7709   -3.6698   -1.1621 C   0  0  0  0  0  0  0  0  0  0  0  0
   -2.7495   -3.1853   -0.5939 H   0  0  0  0  0  0  0  0  0  0  0  0
   -5.0629   -3.2031   -0.2166 H   0  0  0  0  0  0  0  0  0  0  0  0
   -5.2647   -3.1357   -1.9805 H   0  0  0  0  0  0  0  0  0  0  0  0
   -5.1188   -4.7081   -1.1576 H   0  0  0  0  0  0  0  0  0  0  0  0
  1  2  2  0  0  0  0
  1  3  1  0  0  0  0
  1  7  1  0  0  0  0
  3  4  1  0  0  0  0
  3  5  1  0  0  0  0
  3  6  1  0  0  0  0
  7  8  1  0  0  0  0
  7 12  1  0  0  0  0
  8  9  1  0  0  0  0
  8 11  1  0  0  0  0
  8 13  1  0  0  0  0
  9 10  2  0  0  0  0
  9 17  1  0  0  0  0
 11 14  1  0  0  0  0
 11 15  1  0  0  0  0
 11 16  1  0  0  0  0
 17 18  1  0  0  0  0
 17 23  1  0  0  0  0
 18 19  1  0  0  0  0
 18 21  1  0  0  0  0
 18 24  1  0  0  0  0
 19 20  2  0  0  0  0
 19 28  1  0  0  0  0
 21 22  1  0  0  0  0
 21 25  1  0  0  0  0
 21 26  1  0  0  0  0
 22 27  1  0  0  0  0
 28 29  1  0  0  0  0
 28 33  1  0  0  0  0
 29 30  1  0  0  0  0
 29 32  1  0  0  0  0
 29 34  1  0  0  0  0
 30 31  2  0  0  0  0
 30 38  1  0  0  0  0
 32 35  1  0  0  0  0
 32 36  1  0  0  0  0
 32 37  1  0  0  0  0
 38 39  1  0  0  0  0
 38 40  1  0  0  0  0
 39 41  1  0  0  0  0
 39 42  1  0  0  0  0
 39 43  1  0  0  0  0
M  END
$$$$

  -OEChem-05262217303D

 43 42  0     1  0  0  0  0  0999 V2000
    3.8348   -1.8163    3.9880 C   0  0  0  0  0  0  0  0  0  0  0  0
    3.0041   -1.6422    4.8652 O   0  0  0  0  0  0  0  0  0  0  0  0
    5.0938   -2.6124    4.2761 C   0  0  0  0  0  0  0  0  0  0  0  0
    5.9762   -1.9944    4.0932 H   0  0  0  0  0  0  0  0  0  0  0  0
    5.1028   -2.9390    5.3199 H   0  0  0  0  0  0  0  0  0  0  0  0
    5.1343   -3.4934    3.6311 H   0  0  0  0  0  0  0  0  0  0  0  0
    3.6253   -1.2917    2.7299 N   0  0  0  0  0  0  0  0  0  0  0  0
    2.3913   -0.6134    2.3108 C   0  0  2  0  0  0  0  0  0  0  0  0
    2.1071   -0.8012    0.8047 C   0  0  0  0  0  0  0  0  0  0  0  0
    2.9928   -1.2302    0.0738 O   0  0  0  0  0  0  0  0  0  0  0  0
    2.5203    0.8755    2.6494 C   0  0  0  0  0  0  0  0  0  0  0  0
    4.2887   -1.5446    1.9988 H   0  0  0  0  0  0  0  0  0  0  0  0
    1.5402   -1.0346    2.8575 H   0  0  0  0  0  0  0  0  0  0  0  0
    3.3602    1.3207    2.1063 H   0  0  0  0  0  0  0  0  0  0  0  0
    1.6061    1.4131    2.3802 H   0  0  0  0  0  0  0  0  0  0  0  0
    2.6909    1.0071    3.7228 H   0  0  0  0  0  0  0  0  0  0  0  0
    0.8499   -0.4903    0.3109 N   0  0  0  0  0  0  0  0  0  0  0  0
    0.2722   -0.7160   -1.0401 C   0  0  2  0  0  0  0  0  0  0  0  0
   -0.4175   -2.0962   -1.0857 C   0  0  0  0  0  0  0  0  0  0  0  0
   -1.1996   -2.3758   -0.1841 O   0  0  0  0  0  0  0  0  0  0  0  0
    1.1737   -0.4976   -2.2759 C   0  0  0  0  0  0  0  0  0  0  0  0
    2.2446   -1.4357   -2.3644 O   0  0  0  0  0  0  0  0  0  0  0  0
    0.1644   -0.3003    1.0396 H   0  0  0  0  0  0  0  0  0  0  0  0
   -0.5339    0.0149   -1.1524 H   0  0  0  0  0  0  0  0  0  0  0  0
    1.5951    0.5117   -2.2271 H   0  0  0  0  0  0  0  0  0  0  0  0
    0.5700   -0.5538   -3.1879 H   0  0  0  0  0  0  0  0  0  0  0  0
    2.7499   -1.4229   -1.5078 H   0  0  0  0  0  0  0  0  0  0  0  0
   -0.2361   -2.9638   -2.1508 N   0  0  0  0  0  0  0  0  0  0  0  0
   -0.7795   -4.3297   -2.3009 C   0  0  2  0  0  0  0  0  0  0  0  0
   -2.3133   -4.4144   -2.4831 C   0  0  0  0  0  0  0  0  0  0  0  0
   -2.7743   -5.0487   -3.4229 O   0  0  0  0  0  0  0  0  0  0  0  0
   -0.3138   -5.2337   -1.1515 C   0  0  0  0  0  0  0  0  0  0  0  0
    0.5461   -2.7095   -2.7582 H   0  0  0  0  0  0  0  0  0  0  0  0
   -0.3488   -4.7377   -3.2212 H   0  0  0  0  0  0  0  0  0  0  0  0
   -0.7720   -4.9389   -0.2029 H   0  0  0  0  0  0  0  0  0  0  0  0
   -0.5918   -6.2724   -1.3566 H   0  0  0  0  0  0  0  0  0  0  0  0
    0.7740   -5.1820   -1.0447 H   0  0  0  0  0  0  0  0  0  0  0  0
   -3.1786   -3.8031   -1.5982 N   0  0  0  0  0  0  0  0  0  0  0  0
   -4.6298   -3.8454   -1.7087 C   0  0  0  0  0  0  0  0  0  0  0  0
   -2.7451   -3.2746   -0.8370 H   0  0  0  0  0  0  0  0  0  0  0  0
   -5.0863   -3.3070   -0.8726 H   0  0  0  0  0  0  0  0  0  0  0  0
   -4.9561   -3.3773   -2.6431 H   0  0  0  0  0  0  0  0  0  0  0  0
   -4.9864   -4.8805   -1.6887 H   0  0  0  0  0  0  0  0  0  0  0  0
  1  2  2  0  0  0  0
  1  3  1  0  0  0  0
  1  7  1  0  0  0  0
  3  4  1  0  0  0  0
  3  5  1  0  0  0  0
  3  6  1  0  0  0  0
  7  8  1  0  0  0  0
  7 12  1  0  0  0  0
  8  9  1  0  0  0  0
  8 11  1  0  0  0  0
  8 13  1  0  0  0  0
  9 10  2  0  0  0  0
  9 17  1  0  0  0  0
 11 14  1  0  0  0  0
 11 15  1  0  0  0  0
 11 16  1  0  0  0  0
 17 18  1  0  0  0  0
 17 23  1  0  0  0  0
 18 19  1  0  0  0  0
 18 21  1  0  0  0  0
 18 24  1  0  0  0  0
 19 20  2  0  0  0  0
 19 28  1  0  0  0  0
 21 22  1  0  0  0  0
 21 25  1  0  0  0  0
 21 26  1  0  0  0  0
 22 27  1  0  0  0  0
 28 29  1  0  0  0  0
 28 33  1  0  0  0  0
 29 30  1  0  0  0  0
 29 32  1  0  0  0  0
 29 34  1  0  0  0  0
 30 31  2  0  0  0  0
 30 38  1  0  0  0  0
 32 35  1  0  0  0  0
 32 36  1  0  0  0  0
 32 37  1  0  0  0  0
 38 39  1  0  0  0  0
 38 40  1  0  0  0  0
 39 41  1  0  0  0  0
 39 42  1  0  0  0  0
 39 43  1  0  0  0  0
M  END
$$$$

  -OEChem-05262217303D

 43 42  0     1  0  0  0  0  0999 V2000
    3.8461   -1.7490    4.0251 C   0  0  0  0  0  0  0  0  0  0  0  0
    3.0383   -1.5001    4.9055 O   0  0  0  0  0  0  0  0  0  0  0  0
    5.0663   -2.5980    4.3276 C   0  0  0  0  0  0  0  0  0  0  0  0
    5.9766   -2.0433    4.0878 H   0  0  0  0  0  0  0  0  0  0  0  0
    5.0856   -2.8648    5.3881 H   0  0  0  0  0  0  0  0  0  0  0  0
    5.0393   -3.5151    3.7342 H   0  0  0  0  0  0  0  0  0  0  0  0
    3.6407   -1.2673    2.7492 N   0  0  0  0  0  0  0  0  0  0  0  0
    2.4288   -0.5570    2.3182 C   0  0  2  0  0  0  0  0  0  0  0  0
    2.1099   -0.8071    0.8284 C   0  0  0  0  0  0  0  0  0  0  0  0
    2.9742   -1.2823    0.1007 O   0  0  0  0  0  0  0  0  0  0  0  0
    2.6276    0.9395    2.5811 C   0  0  0  0  0  0  0  0  0  0  0  0
    4.2820   -1.5786    2.0208 H   0  0  0  0  0  0  0  0  0  0  0  0
    1.5708   -0.9134    2.8991 H   0  0  0  0  0  0  0  0  0  0  0  0
    3.4803    1.3192    2.0090 H   0  0  0  0  0  0  0  0  0  0  0  0
    1.7353    1.5040    2.2939 H   0  0  0  0  0  0  0  0  0  0  0  0
    2.8165    1.1153    3.6452 H   0  0  0  0  0  0  0  0  0  0  0  0
    0.8460   -0.5071    0.3455 N   0  0  0  0  0  0  0  0  0  0  0  0
    0.2539   -0.7426   -0.9974 C   0  0  2  0  0  0  0  0  0  0  0  0
   -0.4307   -2.1241   -1.0416 C   0  0  0  0  0  0  0  0  0  0  0  0
   -1.3510   -2.3339   -0.2602 O   0  0  0  0  0  0  0  0  0  0  0  0
    1.1446   -0.5091   -2.2394 C   0  0  0  0  0  0  0  0  0  0  0  0
    2.2329   -1.4279   -2.3418 O   0  0  0  0  0  0  0  0  0  0  0  0
    0.1780   -0.2562    1.0720 H   0  0  0  0  0  0  0  0  0  0  0  0
   -0.5581   -0.0171   -1.1015 H   0  0  0  0  0  0  0  0  0  0  0  0
    1.5479    0.5077   -2.1948 H   0  0  0  0  0  0  0  0  0  0  0  0
    0.5330   -0.5787   -3.1454 H   0  0  0  0  0  0  0  0  0  0  0  0
    2.7407   -1.4177   -1.4865 H   0  0  0  0  0  0  0  0  0  0  0  0
   -0.0313   -3.1038   -1.9354 N   0  0  0  0  0  0  0  0  0  0  0  0
   -0.4998   -4.5028   -2.0135 C   0  0  2  0  0  0  0  0  0  0  0  0
   -1.9681   -4.6869   -2.4647 C   0  0  0  0  0  0  0  0  0  0  0  0
   -2.2321   -5.5055   -3.3355 O   0  0  0  0  0  0  0  0  0  0  0  0
   -0.2398   -5.2404   -0.6930 C   0  0  0  0  0  0  0  0  0  0  0  0
    0.8095   -2.8616   -2.4670 H   0  0  0  0  0  0  0  0  0  0  0  0
    0.1106   -4.9939   -2.7786 H   0  0  0  0  0  0  0  0  0  0  0  0
   -0.8880   -4.8656    0.1044 H   0  0  0  0  0  0  0  0  0  0  0  0
   -0.4358   -6.3101   -0.8177 H   0  0  0  0  0  0  0  0  0  0  0  0
    0.8025   -5.1140   -0.3847 H   0  0  0  0  0  0  0  0  0  0  0  0
   -2.9957   -3.9708   -1.8836 N   0  0  0  0  0  0  0  0  0  0  0  0
   -4.4036   -4.1482   -2.2100 C   0  0  0  0  0  0  0  0  0  0  0  0
   -2.7293   -3.3316   -1.1309 H   0  0  0  0  0  0  0  0  0  0  0  0
   -5.0192   -3.4831   -1.5968 H   0  0  0  0  0  0  0  0  0  0  0  0
   -4.5854   -3.9143   -3.2641 H   0  0  0  0  0  0  0  0  0  0  0  0
   -4.7137   -5.1806   -2.0187 H   0  0  0  0  0  0  0  0  0  0  0  0
  1  2  2  0  0  0  0
  1  3  1  0  0  0  0
  1  7  1  0  0  0  0
  3  4  1  0  0  0  0
  3  5  1  0  0  0  0
  3  6  1  0  0  0  0
  7  8  1  0  0  0  0
  7 12  1  0  0  0  0
  8  9  1  0  0  0  0
  8 11  1  0  0  0  0
  8 13  1  0  0  0  0
  9 10  2  0  0  0  0
  9 17  1  0  0  0  0
 11 14  1  0  0  0  0
 11 15  1  0  0  0  0
 11 16  1  0  0  0  0
 17 18  1  0  0  0  0
 17 23  1  0  0  0  0
 18 19  1  0  0  0  0
 18 21  1  0  0  0  0
 18 24  1  0  0  0  0
 19 20  2  0  0  0  0
 19 28  1  0  0  0  0
 21 22  1  0  0  0  0
 21 25  1  0  0  0  0
 21 26  1  0  0  0  0
 22 27  1  0  0  0  0
 28 29  1  0  0  0  0
 28 33  1  0  0  0  0
 29 30  1  0  0  0  0
 29 32  1  0  0  0  0
 29 34  1  0  0  0  0
 30 31  2  0  0  0  0
 30 38  1  0  0  0  0
 32 35  1  0  0  0  0
 32 36  1  0  0  0  0
 32 37  1  0  0  0  0
 38 39  1  0  0  0  0
 38 40  1  0  0  0  0
 39 41  1  0  0  0  0
 39 42  1  0  0  0  0
 39 43  1  0  0  0  0
M  END
$$$$

  -OEChem-05262217303D

 43 42  0     1  0  0  0  0  0999 V2000
    3.8679   -1.6515    4.0557 C   0  0  0  0  0  0  0  0  0  0  0  0
    3.0643   -1.3590    4.9266 O   0  0  0  0  0  0  0  0  0  0  0  0
    5.0869   -2.4903    4.3907 C   0  0  0  0  0  0  0  0  0  0  0  0
    5.9985   -1.9275    4.1754 H   0  0  0  0  0  0  0  0  0  0  0  0
    5.0802   -2.7580    5.4511 H   0  0  0  0  0  0  0  0  0  0  0  0
    5.0844   -3.4075    3.7969 H   0  0  0  0  0  0  0  0  0  0  0  0
    3.6625   -1.2226    2.7614 N   0  0  0  0  0  0  0  0  0  0  0  0
    2.4599   -0.5125    2.3044 C   0  0  2  0  0  0  0  0  0  0  0  0
    2.1261   -0.8294    0.8304 C   0  0  0  0  0  0  0  0  0  0  0  0
    2.9743   -1.3627    0.1245 O   0  0  0  0  0  0  0  0  0  0  0  0
    2.6891    0.9911    2.4900 C   0  0  0  0  0  0  0  0  0  0  0  0
    4.2975   -1.5724    2.0450 H   0  0  0  0  0  0  0  0  0  0  0  0
    1.5993   -0.8232    2.9077 H   0  0  0  0  0  0  0  0  0  0  0  0
    3.5452    1.3243    1.8943 H   0  0  0  0  0  0  0  0  0  0  0  0
    1.8058    1.5575    2.1796 H   0  0  0  0  0  0  0  0  0  0  0  0
    2.8884    1.2163    3.5426 H   0  0  0  0  0  0  0  0  0  0  0  0
    0.8674   -0.5256    0.3351 N   0  0  0  0  0  0  0  0  0  0  0  0
    0.2744   -0.7980   -1.0002 C   0  0  2  0  0  0  0  0  0  0  0  0
   -0.4321   -2.1670   -1.0021 C   0  0  0  0  0  0  0  0  0  0  0  0
   -1.4836   -2.2731   -0.3831 O   0  0  0  0  0  0  0  0  0  0  0  0
    1.1724   -0.6160   -2.2457 C   0  0  0  0  0  0  0  0  0  0  0  0
    2.2531   -1.5482   -2.3184 O   0  0  0  0  0  0  0  0  0  0  0  0
    0.2098   -0.2051    1.0434 H   0  0  0  0  0  0  0  0  0  0  0  0
   -0.5251   -0.0624   -1.1312 H   0  0  0  0  0  0  0  0  0  0  0  0
    1.5840    0.3984   -2.2351 H   0  0  0  0  0  0  0  0  0  0  0  0
    0.5610   -0.7126   -3.1493 H   0  0  0  0  0  0  0  0  0  0  0  0
    2.7611   -1.5138   -1.4639 H   0  0  0  0  0  0  0  0  0  0  0  0
    0.1298   -3.2676   -1.6251 N   0  0  0  0  0  0  0  0  0  0  0  0
   -0.3264   -4.6716   -1.5752 C   0  0  2  0  0  0  0  0  0  0  0  0
   -1.6717   -4.9546   -2.2832 C   0  0  0  0  0  0  0  0  0  0  0  0
   -1.7756   -5.9357   -3.0078 O   0  0  0  0  0  0  0  0  0  0  0  0
   -0.3534   -5.1850   -0.1292 C   0  0  0  0  0  0  0  0  0  0  0  0
    1.0236   -3.0763   -2.0863 H   0  0  0  0  0  0  0  0  0  0  0  0
    0.4235   -5.2634   -2.1104 H   0  0  0  0  0  0  0  0  0  0  0  0
   -1.1503   -4.7059    0.4470 H   0  0  0  0  0  0  0  0  0  0  0  0
   -0.5287   -6.2654   -0.1190 H   0  0  0  0  0  0  0  0  0  0  0  0
    0.6031   -4.9852    0.3632 H   0  0  0  0  0  0  0  0  0  0  0  0
   -2.7715   -4.1427   -2.0893 N   0  0  0  0  0  0  0  0  0  0  0  0
   -4.0870   -4.4029   -2.6569 C   0  0  0  0  0  0  0  0  0  0  0  0
   -2.6559   -3.3858   -1.4112 H   0  0  0  0  0  0  0  0  0  0  0  0
   -4.4812   -5.3553   -2.2879 H   0  0  0  0  0  0  0  0  0  0  0  0
   -4.7837   -3.6074   -2.3760 H   0  0  0  0  0  0  0  0  0  0  0  0
   -4.0314   -4.4431   -3.7497 H   0  0  0  0  0  0  0  0  0  0  0  0
  1  2  2  0  0  0  0
  1  3  1  0  0  0  0
  1  7  1  0  0  0  0
  3  4  1  0  0  0  0
  3  5  1  0  0  0  0
  3  6  1  0  0  0  0
  7  8  1  0  0  0  0
  7 12  1  0  0  0  0
  8  9  1  0  0  0  0
  8 11  1  0  0  0  0
  8 13  1  0  0  0  0
  9 10  2  0  0  0  0
  9 17  1  0  0  0  0
 11 14  1  0  0  0  0
 11 15  1  0  0  0  0
 11 16  1  0  0  0  0
 17 18  1  0  0  0  0
 17 23  1  0  0  0  0
 18 19  1  0  0  0  0
 18 21  1  0  0  0  0
 18 24  1  0  0  0  0
 19 20  2  0  0  0  0
 19 28  1  0  0  0  0
 21 22  1  0  0  0  0
 21 25  1  0  0  0  0
 21 26  1  0  0  0  0
 22 27  1  0  0  0  0
 28 29  1  0  0  0  0
 28 33  1  0  0  0  0
 29 30  1  0  0  0  0
 29 32  1  0  0  0  0
 29 34  1  0  0  0  0
 30 31  2  0  0  0  0
 30 38  1  0  0  0  0
 32 35  1  0  0  0  0
 32 36  1  0  0  0  0
 32 37  1  0  0  0  0
 38 39  1  0  0  0  0
 38 40  1  0  0  0  0
 39 41  1  0  0  0  0
 39 42  1  0  0  0  0
 39 43  1  0  0  0  0
M  END
$$$$

  -OEChem-05262217303D

 43 42  0     1  0  0  0  0  0999 V2000
    4.0978   -1.2164    4.1429 C   0  0  0  0  0  0  0  0  0  0  0  0
    3.5116   -0.5275    4.9627 O   0  0  0  0  0  0  0  0  0  0  0  0
    5.1372   -2.2233    4.5988 C   0  0  0  0  0  0  0  0  0  0  0  0
    6.1040   -1.9945    4.1438 H   0  0  0  0  0  0  0  0  0  0  0  0
    5.2434   -2.1897    5.6868 H   0  0  0  0  0  0  0  0  0  0  0  0
    4.8341   -3.2315    4.3060 H   0  0  0  0  0  0  0  0  0  0  0  0
    3.8105   -1.0896    2.8000 N   0  0  0  0  0  0  0  0  0  0  0  0
    2.6929   -0.2992    2.2661 C   0  0  2  0  0  0  0  0  0  0  0  0
    1.8853   -1.0876    1.2154 C   0  0  0  0  0  0  0  0  0  0  0  0
    2.3481   -2.1042    0.7024 O   0  0  0  0  0  0  0  0  0  0  0  0
    3.2690    0.9756    1.6456 C   0  0  0  0  0  0  0  0  0  0  0  0
    4.2104   -1.7917    2.1793 H   0  0  0  0  0  0  0  0  0  0  0  0
    2.0019   -0.0252    3.0705 H   0  0  0  0  0  0  0  0  0  0  0  0
    3.9496    0.7282    0.8240 H   0  0  0  0  0  0  0  0  0  0  0  0
    2.4676    1.6097    1.2543 H   0  0  0  0  0  0  0  0  0  0  0  0
    3.8236    1.5445    2.3988 H   0  0  0  0  0  0  0  0  0  0  0  0
    0.5665   -0.7696    0.9462 N   0  0  0  0  0  0  0  0  0  0  0  0
   -0.0313   -0.9648   -0.3894 C   0  0  2  0  0  0  0  0  0  0  0  0
   -0.6347   -2.3703   -0.5090 C   0  0  0  0  0  0  0  0  0  0  0  0
   -1.8422   -2.5265   -0.3777 O   0  0  0  0  0  0  0  0  0  0  0  0
    0.7488   -0.4600   -1.6272 C   0  0  0  0  0  0  0  0  0  0  0  0
    1.9848   -1.1178   -1.9159 O   0  0  0  0  0  0  0  0  0  0  0  0
    0.1999    0.0050    1.4929 H   0  0  0  0  0  0  0  0  0  0  0  0
   -0.9131   -0.3166   -0.3856 H   0  0  0  0  0  0  0  0  0  0  0  0
    0.9623    0.6034   -1.4788 H   0  0  0  0  0  0  0  0  0  0  0  0
    0.1001   -0.5411   -2.5062 H   0  0  0  0  0  0  0  0  0  0  0  0
    1.8405   -2.0173   -2.2582 H   0  0  0  0  0  0  0  0  0  0  0  0
    0.1787   -3.3912   -0.9684 N   0  0  0  0  0  0  0  0  0  0  0  0
   -0.1976   -4.8096   -1.1392 C   0  0  2  0  0  0  0  0  0  0  0  0
   -1.1879   -5.0955   -2.2920 C   0  0  0  0  0  0  0  0  0  0  0  0
   -0.9076   -5.9444   -3.1282 O   0  0  0  0  0  0  0  0  0  0  0  0
   -0.7072   -5.4030    0.1814 C   0  0  0  0  0  0  0  0  0  0  0  0
    1.1638   -3.2092   -0.7559 H   0  0  0  0  0  0  0  0  0  0  0  0
    0.7205   -5.3484   -1.3966 H   0  0  0  0  0  0  0  0  0  0  0  0
   -1.6722   -4.9724    0.4643 H   0  0  0  0  0  0  0  0  0  0  0  0
   -0.8337   -6.4856    0.0808 H   0  0  0  0  0  0  0  0  0  0  0  0
    0.0099   -5.2114    0.9856 H   0  0  0  0  0  0  0  0  0  0  0  0
   -2.3887   -4.4227   -2.3939 N   0  0  0  0  0  0  0  0  0  0  0  0
   -3.3691   -4.6506   -3.4457 C   0  0  0  0  0  0  0  0  0  0  0  0
   -2.5696   -3.7117   -1.6803 H   0  0  0  0  0  0  0  0  0  0  0  0
   -4.2501   -4.0230   -3.2807 H   0  0  0  0  0  0  0  0  0  0  0  0
   -2.9449   -4.4041   -4.4246 H   0  0  0  0  0  0  0  0  0  0  0  0
   -3.6875   -5.6983   -3.4519 H   0  0  0  0  0  0  0  0  0  0  0  0
  1  2  2  0  0  0  0
  1  3  1  0  0  0  0
  1  7  1  0  0  0  0
  3  4  1  0  0  0  0
  3  5  1  0  0  0  0
  3  6  1  0  0  0  0
  7  8  1  0  0  0  0
  7 12  1  0  0  0  0
  8  9  1  0  0  0  0
  8 11  1  0  0  0  0
  8 13  1  0  0  0  0
  9 10  2  0  0  0  0
  9 17  1  0  0  0  0
 11 14  1  0  0  0  0
 11 15  1  0  0  0  0
 11 16  1  0  0  0  0
 17 18  1  0  0  0  0
 17 23  1  0  0  0  0
 18 19  1  0  0  0  0
 18 21  1  0  0  0  0
 18 24  1  0  0  0  0
 19 20  2  0  0  0  0
 19 28  1  0  0  0  0
 21 22  1  0  0  0  0
 21 25  1  0  0  0  0
 21 26  1  0  0  0  0
 22 27  1  0  0  0  0
 28 29  1  0  0  0  0
 28 33  1  0  0  0  0
 29 30  1  0  0  0  0
 29 32  1  0  0  0  0
 29 34  1  0  0  0  0
 30 31  2  0  0  0  0
 30 38  1  0  0  0  0
 32 35  1  0  0  0  0
 32 36  1  0  0  0  0
 32 37  1  0  0  0  0
 38 39  1  0  0  0  0
 38 40  1  0  0  0  0
 39 41  1  0  0  0  0
 39 42  1  0  0  0  0
 39 43  1  0  0  0  0
M  END
$$$$

  -OEChem-05262217303D

 43 42  0     1  0  0  0  0  0999 V2000
    3.9897   -1.2395    4.1231 C   0  0  0  0  0  0  0  0  0  0  0  0
    3.2772   -0.6575    4.9255 O   0  0  0  0  0  0  0  0  0  0  0  0
    4.9797   -2.2834    4.6047 C   0  0  0  0  0  0  0  0  0  0  0  0
    5.9961   -1.9851    4.3371 H   0  0  0  0  0  0  0  0  0  0  0  0
    4.9181   -2.3888    5.6915 H   0  0  0  0  0  0  0  0  0  0  0  0
    4.7576   -3.2496    4.1450 H   0  0  0  0  0  0  0  0  0  0  0  0
    3.8873   -0.9664    2.7746 N   0  0  0  0  0  0  0  0  0  0  0  0
    2.7960   -0.1808    2.1789 C   0  0  2  0  0  0  0  0  0  0  0  0
    1.9389   -1.0257    1.2152 C   0  0  0  0  0  0  0  0  0  0  0  0
    2.3649   -2.0881    0.7687 O   0  0  0  0  0  0  0  0  0  0  0  0
    3.4201    0.9981    1.4305 C   0  0  0  0  0  0  0  0  0  0  0  0
    4.3676   -1.6155    2.1540 H   0  0  0  0  0  0  0  0  0  0  0  0
    2.1314    0.2102    2.9562 H   0  0  0  0  0  0  0  0  0  0  0  0
    4.0729    0.6407    0.6273 H   0  0  0  0  0  0  0  0  0  0  0  0
    2.6414    1.6284    0.9903 H   0  0  0  0  0  0  0  0  0  0  0  0
    4.0135    1.6099    2.1174 H   0  0  0  0  0  0  0  0  0  0  0  0
    0.6250   -0.6868    0.9444 N   0  0  0  0  0  0  0  0  0  0  0  0
   -0.0107   -0.9290   -0.3689 C   0  0  2  0  0  0  0  0  0  0  0  0
   -0.6661   -2.3151   -0.4296 C   0  0  0  0  0  0  0  0  0  0  0  0
   -1.8808   -2.4132   -0.5470 O   0  0  0  0  0  0  0  0  0  0  0  0
    0.7764   -0.5364   -1.6407 C   0  0  0  0  0  0  0  0  0  0  0  0
    1.9702   -1.2800   -1.8946 O   0  0  0  0  0  0  0  0  0  0  0  0
    0.2933    0.1280    1.4544 H   0  0  0  0  0  0  0  0  0  0  0  0
   -0.8652   -0.2448   -0.3865 H   0  0  0  0  0  0  0  0  0  0  0  0
    1.0467    0.5217   -1.5652 H   0  0  0  0  0  0  0  0  0  0  0  0
    0.1143   -0.6416   -2.5068 H   0  0  0  0  0  0  0  0  0  0  0  0
    1.7827   -2.2260   -2.0302 H   0  0  0  0  0  0  0  0  0  0  0  0
    0.1586   -3.4189   -0.5565 N   0  0  0  0  0  0  0  0  0  0  0  0
   -0.2518   -4.8371   -0.5784 C   0  0  2  0  0  0  0  0  0  0  0  0
   -0.9885   -5.2940   -1.8584 C   0  0  0  0  0  0  0  0  0  0  0  0
   -0.6689   -6.3495   -2.3892 O   0  0  0  0  0  0  0  0  0  0  0  0
   -1.0643   -5.1923    0.6740 C   0  0  0  0  0  0  0  0  0  0  0  0
    1.1174   -3.2260   -0.2454 H   0  0  0  0  0  0  0  0  0  0  0  0
    0.6695   -5.4274   -0.5394 H   0  0  0  0  0  0  0  0  0  0  0  0
   -2.0477   -4.7137    0.6566 H   0  0  0  0  0  0  0  0  0  0  0  0
   -1.2129   -6.2753    0.7277 H   0  0  0  0  0  0  0  0  0  0  0  0
   -0.5349   -4.8709    1.5761 H   0  0  0  0  0  0  0  0  0  0  0  0
   -2.0150   -4.5505   -2.4054 N   0  0  0  0  0  0  0  0  0  0  0  0
   -2.8133   -4.9811   -3.5446 C   0  0  0  0  0  0  0  0  0  0  0  0
   -2.2951   -3.7179   -1.8809 H   0  0  0  0  0  0  0  0  0  0  0  0
   -3.3917   -5.8752   -3.2891 H   0  0  0  0  0  0  0  0  0  0  0  0
   -3.5082   -4.1888   -3.8387 H   0  0  0  0  0  0  0  0  0  0  0  0
   -2.1695   -5.2094   -4.4006 H   0  0  0  0  0  0  0  0  0  0  0  0
  1  2  2  0  0  0  0
  1  3  1  0  0  0  0
  1  7  1  0  0  0  0
  3  4  1  0  0  0  0
  3  5  1  0  0  0  0
  3  6  1  0  0  0  0
  7  8  1  0  0  0  0
  7 12  1  0  0  0  0
  8  9  1  0  0  0  0
  8 11  1  0  0  0  0
  8 13  1  0  0  0  0
  9 10  2  0  0  0  0
  9 17  1  0  0  0  0
 11 14  1  0  0  0  0
 11 15  1  0  0  0  0
 11 16  1  0  0  0  0
 17 18  1  0  0  0  0
 17 23  1  0  0  0  0
 18 19  1  0  0  0  0
 18 21  1  0  0  0  0
 18 24  1  0  0  0  0
 19 20  2  0  0  0  0
 19 28  1  0  0  0  0
 21 22  1  0  0  0  0
 21 25  1  0  0  0  0
 21 26  1  0  0  0  0
 22 27  1  0  0  0  0
 28 29  1  0  0  0  0
 28 33  1  0  0  0  0
 29 30  1  0  0  0  0
 29 32  1  0  0  0  0
 29 34  1  0  0  0  0
 30 31  2  0  0  0  0
 30 38  1  0  0  0  0
 32 35  1  0  0  0  0
 32 36  1  0  0  0  0
 32 37  1  0  0  0  0
 38 39  1  0  0  0  0
 38 40  1  0  0  0  0
 39 41  1  0  0  0  0
 39 42  1  0  0  0  0
 39 43  1  0  0  0  0
M  END
$$$$

  -OEChem-05262217303D

 43 42  0     1  0  0  0  0  0999 V2000
    2.4736   -1.1755    3.7082 C   0  0  0  0  0  0  0  0  0  0  0  0
    1.5037   -0.4333    3.6661 O   0  0  0  0  0  0  0  0  0  0  0  0
    2.5980   -2.2213    4.7996 C   0  0  0  0  0  0  0  0  0  0  0  0
    3.5410   -2.0927    5.3365 H   0  0  0  0  0  0  0  0  0  0  0  0
    1.7731   -2.1239    5.5113 H   0  0  0  0  0  0  0  0  0  0  0  0
    2.5693   -3.2228    4.3630 H   0  0  0  0  0  0  0  0  0  0  0  0
    3.4256   -1.0908    2.7126 N   0  0  0  0  0  0  0  0  0  0  0  0
    3.3942   -0.0992    1.6254 C   0  0  2  0  0  0  0  0  0  0  0  0
    2.3772   -0.4665    0.5155 C   0  0  0  0  0  0  0  0  0  0  0  0
    2.7496   -0.7565   -0.6147 O   0  0  0  0  0  0  0  0  0  0  0  0
    4.8283    0.0471    1.1003 C   0  0  0  0  0  0  0  0  0  0  0  0
    4.1931   -1.7569    2.7427 H   0  0  0  0  0  0  0  0  0  0  0  0
    3.0900    0.8729    2.0290 H   0  0  0  0  0  0  0  0  0  0  0  0
    5.1899   -0.9008    0.6886 H   0  0  0  0  0  0  0  0  0  0  0  0
    4.8684    0.8040    0.3103 H   0  0  0  0  0  0  0  0  0  0  0  0
    5.4993    0.3573    1.9073 H   0  0  0  0  0  0  0  0  0  0  0  0
    1.0378   -0.5662    0.8476 N   0  0  0  0  0  0  0  0  0  0  0  0
   -0.1443   -0.8364   -0.0089 C   0  0  2  0  0  0  0  0  0  0  0  0
   -0.4141   -2.3453   -0.1037 C   0  0  0  0  0  0  0  0  0  0  0  0
   -1.4689   -2.8002    0.3202 O   0  0  0  0  0  0  0  0  0  0  0  0
   -0.1891   -0.1847   -1.4055 C   0  0  0  0  0  0  0  0  0  0  0  0
    0.8156   -0.6674   -2.2980 O   0  0  0  0  0  0  0  0  0  0  0  0
    0.8548   -0.4160    1.8464 H   0  0  0  0  0  0  0  0  0  0  0  0
   -1.0023   -0.4154    0.5250 H   0  0  0  0  0  0  0  0  0  0  0  0
   -0.0692    0.8975   -1.2911 H   0  0  0  0  0  0  0  0  0  0  0  0
   -1.1720   -0.3616   -1.8546 H   0  0  0  0  0  0  0  0  0  0  0  0
    1.7006   -0.6099   -1.8553 H   0  0  0  0  0  0  0  0  0  0  0  0
    0.5598   -3.1796   -0.6250 N   0  0  0  0  0  0  0  0  0  0  0  0
    0.5504   -4.6544   -0.6904 C   0  0  2  0  0  0  0  0  0  0  0  0
   -0.5026   -5.2718   -1.6392 C   0  0  0  0  0  0  0  0  0  0  0  0
   -0.1943   -6.2365   -2.3272 O   0  0  0  0  0  0  0  0  0  0  0  0
    0.4312   -5.2605    0.7143 C   0  0  0  0  0  0  0  0  0  0  0  0
    1.3558   -2.6909   -1.0364 H   0  0  0  0  0  0  0  0  0  0  0  0
    1.5242   -4.9559   -1.0895 H   0  0  0  0  0  0  0  0  0  0  0  0
   -0.5589   -5.0761    1.1418 H   0  0  0  0  0  0  0  0  0  0  0  0
    0.5859   -6.3431    0.6687 H   0  0  0  0  0  0  0  0  0  0  0  0
    1.1849   -4.8300    1.3799 H   0  0  0  0  0  0  0  0  0  0  0  0
   -1.7969   -4.7942   -1.6899 N   0  0  0  0  0  0  0  0  0  0  0  0
   -2.8530   -5.3862   -2.4983 C   0  0  0  0  0  0  0  0  0  0  0  0
   -2.0289   -4.0555   -1.0214 H   0  0  0  0  0  0  0  0  0  0  0  0
   -3.7764   -4.8086   -2.3931 H   0  0  0  0  0  0  0  0  0  0  0  0
   -2.5683   -5.3922   -3.5555 H   0  0  0  0  0  0  0  0  0  0  0  0
   -3.0474   -6.4152   -2.1791 H   0  0  0  0  0  0  0  0  0  0  0  0
  1  2  2  0  0  0  0
  1  3  1  0  0  0  0
  1  7  1  0  0  0  0
  3  4  1  0  0  0  0
  3  5  1  0  0  0  0
  3  6  1  0  0  0  0
  7  8  1  0  0  0  0
  7 12  1  0  0  0  0
  8  9  1  0  0  0  0
  8 11  1  0  0  0  0
  8 13  1  0  0  0  0
  9 10  2  0  0  0  0
  9 17  1  0  0  0  0
 11 14  1  0  0  0  0
 11 15  1  0  0  0  0
 11 16  1  0  0  0  0
 17 18  1  0  0  0  0
 17 23  1  0  0  0  0
 18 19  1  0  0  0  0
 18 21  1  0  0  0  0
 18 24  1  0  0  0  0
 19 20  2  0  0  0  0
 19 28  1  0  0  0  0
 21 22  1  0  0  0  0
 21 25  1  0  0  0  0
 21 26  1  0  0  0  0
 22 27  1  0  0  0  0
 28 29  1  0  0  0  0
 28 33  1  0  0  0  0
 29 30  1  0  0  0  0
 29 32  1  0  0  0  0
 29 34  1  0  0  0  0
 30 31  2  0  0  0  0
 30 38  1  0  0  0  0
 32 35  1  0  0  0  0
 32 36  1  0  0  0  0
 32 37  1  0  0  0  0
 38 39  1  0  0  0  0
 38 40  1  0  0  0  0
 39 41  1  0  0  0  0
 39 42  1  0  0  0  0
 39 43  1  0  0  0  0
M  END
$$$$

  -OEChem-05262217303D

 43 42  0     1  0  0  0  0  0999 V2000
    4.1844   -0.9111    4.1131 C   0  0  0  0  0  0  0  0  0  0  0  0
    3.5668   -0.0779    4.7580 O   0  0  0  0  0  0  0  0  0  0  0  0
    5.0229   -1.9542    4.8281 C   0  0  0  0  0  0  0  0  0  0  0  0
    6.0620   -1.8901    4.4963 H   0  0  0  0  0  0  0  0  0  0  0  0
    4.9878   -1.7902    5.9088 H   0  0  0  0  0  0  0  0  0  0  0  0
    4.6387   -2.9541    4.6113 H   0  0  0  0  0  0  0  0  0  0  0  0
    4.1084   -0.9232    2.7354 N   0  0  0  0  0  0  0  0  0  0  0  0
    3.1206   -0.1450    1.9737 C   0  0  2  0  0  0  0  0  0  0  0  0
    1.9754   -1.0281    1.4376 C   0  0  0  0  0  0  0  0  0  0  0  0
    2.1315   -2.2381    1.3092 O   0  0  0  0  0  0  0  0  0  0  0  0
    3.8505    0.5254    0.8082 C   0  0  0  0  0  0  0  0  0  0  0  0
    4.4656   -1.7625    2.2833 H   0  0  0  0  0  0  0  0  0  0  0  0
    2.6794    0.6369    2.6000 H   0  0  0  0  0  0  0  0  0  0  0  0
    4.2731   -0.2286    0.1356 H   0  0  0  0  0  0  0  0  0  0  0  0
    3.1614    1.1524    0.2344 H   0  0  0  0  0  0  0  0  0  0  0  0
    4.6632    1.1562    1.1817 H   0  0  0  0  0  0  0  0  0  0  0  0
    0.7156   -0.4989    1.2185 N   0  0  0  0  0  0  0  0  0  0  0  0
   -0.0984   -0.7916    0.0128 C   0  0  2  0  0  0  0  0  0  0  0  0
   -1.0102   -2.0176    0.1529 C   0  0  0  0  0  0  0  0  0  0  0  0
   -2.0931   -2.0224   -0.4187 O   0  0  0  0  0  0  0  0  0  0  0  0
    0.6512   -0.7984   -1.3378 C   0  0  0  0  0  0  0  0  0  0  0  0
    1.6173   -1.8417   -1.4884 O   0  0  0  0  0  0  0  0  0  0  0  0
    0.6269    0.4532    1.5624 H   0  0  0  0  0  0  0  0  0  0  0  0
   -0.7999    0.0444   -0.0670 H   0  0  0  0  0  0  0  0  0  0  0  0
    1.1635    0.1615   -1.4527 H   0  0  0  0  0  0  0  0  0  0  0  0
   -0.0778   -0.8778   -2.1514 H   0  0  0  0  0  0  0  0  0  0  0  0
    1.1812   -2.7252   -1.5935 H   0  0  0  0  0  0  0  0  0  0  0  0
   -0.4963   -3.1743    0.7103 N   0  0  0  0  0  0  0  0  0  0  0  0
   -0.8981   -4.5221    0.2807 C   0  0  2  0  0  0  0  0  0  0  0  0
   -0.6975   -4.7195   -1.2436 C   0  0  0  0  0  0  0  0  0  0  0  0
    0.2726   -4.2065   -1.7975 O   0  0  0  0  0  0  0  0  0  0  0  0
   -2.3180   -4.8542    0.7699 C   0  0  0  0  0  0  0  0  0  0  0  0
    0.4847   -3.0647    0.9914 H   0  0  0  0  0  0  0  0  0  0  0  0
   -0.2223   -5.2320    0.7671 H   0  0  0  0  0  0  0  0  0  0  0  0
   -3.0724   -4.2767    0.2273 H   0  0  0  0  0  0  0  0  0  0  0  0
   -2.5303   -5.9181    0.6287 H   0  0  0  0  0  0  0  0  0  0  0  0
   -2.4095   -4.6256    1.8362 H   0  0  0  0  0  0  0  0  0  0  0  0
   -1.5654   -5.4913   -1.9950 N   0  0  0  0  0  0  0  0  0  0  0  0
   -1.4556   -5.6310   -3.4419 C   0  0  0  0  0  0  0  0  0  0  0  0
   -2.4272   -5.7799   -1.5418 H   0  0  0  0  0  0  0  0  0  0  0  0
   -2.2462   -6.2866   -3.8191 H   0  0  0  0  0  0  0  0  0  0  0  0
   -1.5515   -4.6551   -3.9295 H   0  0  0  0  0  0  0  0  0  0  0  0
   -0.4882   -6.0673   -3.7124 H   0  0  0  0  0  0  0  0  0  0  0  0
  1  2  2  0  0  0  0
  1  3  1  0  0  0  0
  1  7  1  0  0  0  0
  3  4  1  0  0  0  0
  3  5  1  0  0  0  0
  3  6  1  0  0  0  0
  7  8  1  0  0  0  0
  7 12  1  0  0  0  0
  8  9  1  0  0  0  0
  8 11  1  0  0  0  0
  8 13  1  0  0  0  0
  9 10  2  0  0  0  0
  9 17  1  0  0  0  0
 11 14  1  0  0  0  0
 11 15  1  0  0  0  0
 11 16  1  0  0  0  0
 17 18  1  0  0  0  0
 17 23  1  0  0  0  0
 18 19  1  0  0  0  0
 18 21  1  0  0  0  0
 18 24  1  0  0  0  0
 19 20  2  0  0  0  0
 19 28  1  0  0  0  0
 21 22  1  0  0  0  0
 21 25  1  0  0  0  0
 21 26  1  0  0  0  0
 22 27  1  0  0  0  0
 28 29  1  0  0  0  0
 28 33  1  0  0  0  0
 29 30  1  0  0  0  0
 29 32  1  0  0  0  0
 29 34  1  0  0  0  0
 30 31  2  0  0  0  0
 30 38  1  0  0  0  0
 32 35  1  0  0  0  0
 32 36  1  0  0  0  0
 32 37  1  0  0  0  0
 38 39  1  0  0  0  0
 38 40  1  0  0  0  0
 39 41  1  0  0  0  0
 39 42  1  0  0  0  0
 39 43  1  0  0  0  0
M  END
$$$$

  -OEChem-05262217303D

 43 42  0     1  0  0  0  0  0999 V2000
    4.0499   -0.9669    4.1356 C   0  0  0  0  0  0  0  0  0  0  0  0
    3.3954   -0.1251    4.7310 O   0  0  0  0  0  0  0  0  0  0  0  0
    4.8121   -2.0255    4.9102 C   0  0  0  0  0  0  0  0  0  0  0  0
    5.8762   -1.9712    4.6676 H   0  0  0  0  0  0  0  0  0  0  0  0
    4.6875   -1.8704    5.9856 H   0  0  0  0  0  0  0  0  0  0  0  0
    4.4365   -3.0187    4.6518 H   0  0  0  0  0  0  0  0  0  0  0  0
    4.0846   -0.9758    2.7566 N   0  0  0  0  0  0  0  0  0  0  0  0
    3.1691   -0.1786    1.9284 C   0  0  2  0  0  0  0  0  0  0  0  0
    1.9623   -1.0060    1.4397 C   0  0  0  0  0  0  0  0  0  0  0  0
    2.0200   -2.2301    1.3897 O   0  0  0  0  0  0  0  0  0  0  0  0
    3.9603    0.3484    0.7297 C   0  0  0  0  0  0  0  0  0  0  0  0
    4.4486   -1.8275    2.3353 H   0  0  0  0  0  0  0  0  0  0  0  0
    2.7896    0.6789    2.4936 H   0  0  0  0  0  0  0  0  0  0  0  0
    4.3233   -0.4820    0.1148 H   0  0  0  0  0  0  0  0  0  0  0  0
    3.3288    0.9888    0.1065 H   0  0  0  0  0  0  0  0  0  0  0  0
    4.8198    0.9347    1.0690 H   0  0  0  0  0  0  0  0  0  0  0  0
    0.7353   -0.4138    1.2034 N   0  0  0  0  0  0  0  0  0  0  0  0
   -0.0603   -0.6602   -0.0259 C   0  0  2  0  0  0  0  0  0  0  0  0
   -1.0328   -1.8435    0.0672 C   0  0  0  0  0  0  0  0  0  0  0  0
   -2.0108   -1.8744   -0.6696 O   0  0  0  0  0  0  0  0  0  0  0  0
    0.7464   -0.7123   -1.3426 C   0  0  0  0  0  0  0  0  0  0  0  0
    1.6548   -1.8143   -1.4437 O   0  0  0  0  0  0  0  0  0  0  0  0
    0.7060    0.5490    1.5270 H   0  0  0  0  0  0  0  0  0  0  0  0
   -0.7157    0.2093   -0.1288 H   0  0  0  0  0  0  0  0  0  0  0  0
    1.3150    0.2171   -1.4438 H   0  0  0  0  0  0  0  0  0  0  0  0
    0.0487   -0.7601   -2.1856 H   0  0  0  0  0  0  0  0  0  0  0  0
    1.1849   -2.6868   -1.4265 H   0  0  0  0  0  0  0  0  0  0  0  0
   -0.7200   -2.9169    0.8814 N   0  0  0  0  0  0  0  0  0  0  0  0
   -1.1245   -4.2918    0.5464 C   0  0  2  0  0  0  0  0  0  0  0  0
   -0.7085   -4.6900   -0.8955 C   0  0  0  0  0  0  0  0  0  0  0  0
    0.3136   -4.2199   -1.3917 O   0  0  0  0  0  0  0  0  0  0  0  0
   -2.6205   -4.5015    0.8344 C   0  0  0  0  0  0  0  0  0  0  0  0
    0.2196   -2.8206    1.2819 H   0  0  0  0  0  0  0  0  0  0  0  0
   -0.5749   -4.9625    1.2137 H   0  0  0  0  0  0  0  0  0  0  0  0
   -3.2428   -3.9753    0.1047 H   0  0  0  0  0  0  0  0  0  0  0  0
   -2.8706   -5.5656    0.7981 H   0  0  0  0  0  0  0  0  0  0  0  0
   -2.8665   -4.1263    1.8325 H   0  0  0  0  0  0  0  0  0  0  0  0
   -1.4423   -5.6051   -1.6290 N   0  0  0  0  0  0  0  0  0  0  0  0
   -1.1293   -5.9519   -3.0099 C   0  0  0  0  0  0  0  0  0  0  0  0
   -2.3425   -5.8809   -1.2488 H   0  0  0  0  0  0  0  0  0  0  0  0
   -1.8592   -6.6708   -3.3945 H   0  0  0  0  0  0  0  0  0  0  0  0
   -1.1543   -5.0598   -3.6447 H   0  0  0  0  0  0  0  0  0  0  0  0
   -0.1339   -6.4035   -3.0750 H   0  0  0  0  0  0  0  0  0  0  0  0
  1  2  2  0  0  0  0
  1  3  1  0  0  0  0
  1  7  1  0  0  0  0
  3  4  1  0  0  0  0
  3  5  1  0  0  0  0
  3  6  1  0  0  0  0
  7  8  1  0  0  0  0
  7 12  1  0  0  0  0
  8  9  1  0  0  0  0
  8 11  1  0  0  0  0
  8 13  1  0  0  0  0
  9 10  2  0  0  0  0
  9 17  1  0  0  0  0
 11 14  1  0  0  0  0
 11 15  1  0  0  0  0
 11 16  1  0  0  0  0
 17 18  1  0  0  0  0
 17 23  1  0  0  0  0
 18 19  1  0  0  0  0
 18 21  1  0  0  0  0
 18 24  1  0  0  0  0
 19 20  2  0  0  0  0
 19 28  1  0  0  0  0
 21 22  1  0  0  0  0
 21 25  1  0  0  0  0
 21 26  1  0  0  0  0
 22 27  1  0  0  0  0
 28 29  1  0  0  0  0
 28 33  1  0  0  0  0
 29 30  1  0  0  0  0
 29 32  1  0  0  0  0
 29 34  1  0  0  0  0
 30 31  2  0  0  0  0
 30 38  1  0  0  0  0
 32 35  1  0  0  0  0
 32 36  1  0  0  0  0
 32 37  1  0  0  0  0
 38 39  1  0  0  0  0
 38 40  1  0  0  0  0
 39 41  1  0  0  0  0
 39 42  1  0  0  0  0
 39 43  1  0  0  0  0
M  END
$$$$

  -OEChem-05262217303D

 43 42  0     1  0  0  0  0  0999 V2000
    2.5745   -1.8985    3.2111 C   0  0  0  0  0  0  0  0  0  0  0  0
    1.3743   -1.6796    3.1189 O   0  0  0  0  0  0  0  0  0  0  0  0
    3.0765   -3.1759    3.8558 C   0  0  0  0  0  0  0  0  0  0  0  0
    3.7611   -2.9384    4.6737 H   0  0  0  0  0  0  0  0  0  0  0  0
    2.2372   -3.7518    4.2563 H   0  0  0  0  0  0  0  0  0  0  0  0
    3.6006   -3.7879    3.1170 H   0  0  0  0  0  0  0  0  0  0  0  0
    3.4580   -1.0036    2.6441 N   0  0  0  0  0  0  0  0  0  0  0  0
    3.0087    0.1432    1.8423 C   0  0  2  0  0  0  0  0  0  0  0  0
    2.2866   -0.3098    0.5521 C   0  0  0  0  0  0  0  0  0  0  0  0
    2.9228   -0.9121   -0.2998 O   0  0  0  0  0  0  0  0  0  0  0  0
    4.2302    1.0099    1.5197 C   0  0  0  0  0  0  0  0  0  0  0  0
    4.4231   -1.3102    2.5503 H   0  0  0  0  0  0  0  0  0  0  0  0
    2.3125    0.7464    2.4348 H   0  0  0  0  0  0  0  0  0  0  0  0
    4.9658    0.4435    0.9387 H   0  0  0  0  0  0  0  0  0  0  0  0
    3.9297    1.8855    0.9358 H   0  0  0  0  0  0  0  0  0  0  0  0
    4.7065    1.3559    2.4422 H   0  0  0  0  0  0  0  0  0  0  0  0
    0.9166   -0.1155    0.4397 N   0  0  0  0  0  0  0  0  0  0  0  0
   -0.0442   -0.6265   -0.5808 C   0  0  2  0  0  0  0  0  0  0  0  0
   -0.6562   -1.9883   -0.1918 C   0  0  0  0  0  0  0  0  0  0  0  0
   -1.6488   -2.3891   -0.7866 O   0  0  0  0  0  0  0  0  0  0  0  0
    0.4241   -0.6849   -2.0515 C   0  0  0  0  0  0  0  0  0  0  0  0
    1.4736   -1.6242   -2.2788 O   0  0  0  0  0  0  0  0  0  0  0  0
    0.4935    0.2509    1.2908 H   0  0  0  0  0  0  0  0  0  0  0  0
   -0.8828    0.0759   -0.5791 H   0  0  0  0  0  0  0  0  0  0  0  0
    0.7737    0.3095   -2.3474 H   0  0  0  0  0  0  0  0  0  0  0  0
   -0.4230   -0.9386   -2.6977 H   0  0  0  0  0  0  0  0  0  0  0  0
    2.2055   -1.4525   -1.6315 H   0  0  0  0  0  0  0  0  0  0  0  0
   -0.0970   -2.7567    0.8170 N   0  0  0  0  0  0  0  0  0  0  0  0
   -0.5868   -4.0440    1.3484 C   0  0  2  0  0  0  0  0  0  0  0  0
   -0.4692   -5.2389    0.3754 C   0  0  0  0  0  0  0  0  0  0  0  0
   -0.0629   -6.3155    0.7959 O   0  0  0  0  0  0  0  0  0  0  0  0
   -2.0164   -3.9158    1.8908 C   0  0  0  0  0  0  0  0  0  0  0  0
    0.6468   -2.3014    1.3475 H   0  0  0  0  0  0  0  0  0  0  0  0
    0.0544   -4.2897    2.2011 H   0  0  0  0  0  0  0  0  0  0  0  0
   -2.7376   -3.7765    1.0805 H   0  0  0  0  0  0  0  0  0  0  0  0
   -2.2912   -4.8231    2.4379 H   0  0  0  0  0  0  0  0  0  0  0  0
   -2.0880   -3.0643    2.5740 H   0  0  0  0  0  0  0  0  0  0  0  0
   -0.8279   -5.1230   -0.9523 N   0  0  0  0  0  0  0  0  0  0  0  0
   -0.7425   -6.2044   -1.9225 C   0  0  0  0  0  0  0  0  0  0  0  0
   -1.1896   -4.2114   -1.2446 H   0  0  0  0  0  0  0  0  0  0  0  0
   -1.0419   -5.8452   -2.9117 H   0  0  0  0  0  0  0  0  0  0  0  0
    0.2838   -6.5802   -1.9875 H   0  0  0  0  0  0  0  0  0  0  0  0
   -1.4042   -7.0284   -1.6365 H   0  0  0  0  0  0  0  0  0  0  0  0
  1  2  2  0  0  0  0
  1  3  1  0  0  0  0
  1  7  1  0  0  0  0
  3  4  1  0  0  0  0
  3  5  1  0  0  0  0
  3  6  1  0  0  0  0
  7  8  1  0  0  0  0
  7 12  1  0  0  0  0
  8  9  1  0  0  0  0
  8 11  1  0  0  0  0
  8 13  1  0  0  0  0
  9 10  2  0  0  0  0
  9 17  1  0  0  0  0
 11 14  1  0  0  0  0
 11 15  1  0  0  0  0
 11 16  1  0  0  0  0
 17 18  1  0  0  0  0
 17 23  1  0  0  0  0
 18 19  1  0  0  0  0
 18 21  1  0  0  0  0
 18 24  1  0  0  0  0
 19 20  2  0  0  0  0
 19 28  1  0  0  0  0
 21 22  1  0  0  0  0
 21 25  1  0  0  0  0
 21 26  1  0  0  0  0
 22 27  1  0  0  0  0
 28 29  1  0  0  0  0
 28 33  1  0  0  0  0
 29 30  1  0  0  0  0
 29 32  1  0  0  0  0
 29 34  1  0  0  0  0
 30 31  2  0  0  0  0
 30 38  1  0  0  0  0
 32 35  1  0  0  0  0
 32 36  1  0  0  0  0
 32 37  1  0  0  0  0
 38 39  1  0  0  0  0
 38 40  1  0  0  0  0
 39 41  1  0  0  0  0
 39 42  1  0  0  0  0
 39 43  1  0  0  0  0
M  END
$$$$

  -OEChem-05262217303D

 43 42  0     1  0  0  0  0  0999 V2000
    2.2780   -1.7591    3.2417 C   0  0  0  0  0  0  0  0  0  0  0  0
    1.1786   -1.2232    3.1885 O   0  0  0  0  0  0  0  0  0  0  0  0
    2.4537   -3.0887    3.9492 C   0  0  0  0  0  0  0  0  0  0  0  0
    3.2910   -3.0345    4.6495 H   0  0  0  0  0  0  0  0  0  0  0  0
    1.5475   -3.3438    4.5058 H   0  0  0  0  0  0  0  0  0  0  0  0
    2.6498   -3.8776    3.2176 H   0  0  0  0  0  0  0  0  0  0  0  0
    3.3243   -1.1919    2.5456 N   0  0  0  0  0  0  0  0  0  0  0  0
    3.1484   -0.0315    1.6613 C   0  0  2  0  0  0  0  0  0  0  0  0
    2.3201   -0.3999    0.4078 C   0  0  0  0  0  0  0  0  0  0  0  0
    2.8497   -1.0455   -0.4840 O   0  0  0  0  0  0  0  0  0  0  0  0
    4.5393    0.4991    1.2968 C   0  0  0  0  0  0  0  0  0  0  0  0
    4.1610   -1.7599    2.4341 H   0  0  0  0  0  0  0  0  0  0  0  0
    2.6199    0.7624    2.1999 H   0  0  0  0  0  0  0  0  0  0  0  0
    5.1254   -0.2683    0.7805 H   0  0  0  0  0  0  0  0  0  0  0  0
    4.4527    1.3691    0.6384 H   0  0  0  0  0  0  0  0  0  0  0  0
    5.0795    0.8009    2.1996 H   0  0  0  0  0  0  0  0  0  0  0  0
    0.9676   -0.0840    0.3795 N   0  0  0  0  0  0  0  0  0  0  0  0
   -0.1001   -0.5281   -0.5660 C   0  0  2  0  0  0  0  0  0  0  0  0
   -0.7995   -1.8243   -0.0968 C   0  0  0  0  0  0  0  0  0  0  0  0
   -1.6853   -2.3292   -0.7748 O   0  0  0  0  0  0  0  0  0  0  0  0
    0.2647   -0.6400   -2.0649 C   0  0  0  0  0  0  0  0  0  0  0  0
    1.2192   -1.6627   -2.3471 O   0  0  0  0  0  0  0  0  0  0  0  0
    0.6368    0.3137    1.2583 H   0  0  0  0  0  0  0  0  0  0  0  0
   -0.8747    0.2426   -0.5228 H   0  0  0  0  0  0  0  0  0  0  0  0
    0.6723    0.3200   -2.3969 H   0  0  0  0  0  0  0  0  0  0  0  0
   -0.6399   -0.8290   -2.6529 H   0  0  0  0  0  0  0  0  0  0  0  0
    2.0039   -1.5432   -1.7518 H   0  0  0  0  0  0  0  0  0  0  0  0
   -0.4148   -2.4375    1.0851 N   0  0  0  0  0  0  0  0  0  0  0  0
   -0.8817   -3.7254    1.6309 C   0  0  2  0  0  0  0  0  0  0  0  0
   -0.4124   -4.9453    0.8103 C   0  0  0  0  0  0  0  0  0  0  0  0
    0.2040   -5.8434    1.3711 O   0  0  0  0  0  0  0  0  0  0  0  0
   -2.4015   -3.7457    1.8459 C   0  0  0  0  0  0  0  0  0  0  0  0
    0.2768   -1.9300    1.6387 H   0  0  0  0  0  0  0  0  0  0  0  0
   -0.4256   -3.8291    2.6205 H   0  0  0  0  0  0  0  0  0  0  0  0
   -2.9397   -3.7783    0.8943 H   0  0  0  0  0  0  0  0  0  0  0  0
   -2.6841   -4.6304    2.4249 H   0  0  0  0  0  0  0  0  0  0  0  0
   -2.7190   -2.8553    2.3967 H   0  0  0  0  0  0  0  0  0  0  0  0
   -0.6327   -5.0115   -0.5507 N   0  0  0  0  0  0  0  0  0  0  0  0
   -0.0978   -6.0557   -1.4119 C   0  0  0  0  0  0  0  0  0  0  0  0
   -1.0706   -4.1892   -0.9756 H   0  0  0  0  0  0  0  0  0  0  0  0
   -0.4120   -5.8871   -2.4465 H   0  0  0  0  0  0  0  0  0  0  0  0
    0.9966   -6.0570   -1.3774 H   0  0  0  0  0  0  0  0  0  0  0  0
   -0.4633   -7.0380   -1.0955 H   0  0  0  0  0  0  0  0  0  0  0  0
  1  2  2  0  0  0  0
  1  3  1  0  0  0  0
  1  7  1  0  0  0  0
  3  4  1  0  0  0  0
  3  5  1  0  0  0  0
  3  6  1  0  0  0  0
  7  8  1  0  0  0  0
  7 12  1  0  0  0  0
  8  9  1  0  0  0  0
  8 11  1  0  0  0  0
  8 13  1  0  0  0  0
  9 10  2  0  0  0  0
  9 17  1  0  0  0  0
 11 14  1  0  0  0  0
 11 15  1  0  0  0  0
 11 16  1  0  0  0  0
 17 18  1  0  0  0  0
 17 23  1  0  0  0  0
 18 19  1  0  0  0  0
 18 21  1  0  0  0  0
 18 24  1  0  0  0  0
 19 20  2  0  0  0  0
 19 28  1  0  0  0  0
 21 22  1  0  0  0  0
 21 25  1  0  0  0  0
 21 26  1  0  0  0  0
 22 27  1  0  0  0  0
 28 29  1  0  0  0  0
 28 33  1  0  0  0  0
 29 30  1  0  0  0  0
 29 32  1  0  0  0  0
 29 34  1  0  0  0  0
 30 31  2  0  0  0  0
 30 38  1  0  0  0  0
 32 35  1  0  0  0  0
 32 36  1  0  0  0  0
 32 37  1  0  0  0  0
 38 39  1  0  0  0  0
 38 40  1  0  0  0  0
 39 41  1  0  0  0  0
 39 42  1  0  0  0  0
 39 43  1  0  0  0  0
M  END
$$$$

  -OEChem-05262217303D

 43 42  0     1  0  0  0  0  0999 V2000
    2.0379   -1.6872    3.2476 C   0  0  0  0  0  0  0  0  0  0  0  0
    1.0810   -0.9265    3.1607 O   0  0  0  0  0  0  0  0  0  0  0  0
    1.9602   -2.9339    4.1069 C   0  0  0  0  0  0  0  0  0  0  0  0
    2.7887   -2.9506    4.8192 H   0  0  0  0  0  0  0  0  0  0  0  0
    1.0192   -2.9530    4.6634 H   0  0  0  0  0  0  0  0  0  0  0  0
    2.0142   -3.8265    3.4775 H   0  0  0  0  0  0  0  0  0  0  0  0
    3.1562   -1.4370    2.4811 N   0  0  0  0  0  0  0  0  0  0  0  0
    3.2483   -0.3219    1.5277 C   0  0  2  0  0  0  0  0  0  0  0  0
    2.3425   -0.5509    0.2945 C   0  0  0  0  0  0  0  0  0  0  0  0
    2.7675   -1.1964   -0.6518 O   0  0  0  0  0  0  0  0  0  0  0  0
    4.7238   -0.1522    1.1456 C   0  0  0  0  0  0  0  0  0  0  0  0
    3.8534   -2.1766    2.4304 H   0  0  0  0  0  0  0  0  0  0  0  0
    2.9252    0.6038    2.0158 H   0  0  0  0  0  0  0  0  0  0  0  0
    5.1116   -1.0620    0.6755 H   0  0  0  0  0  0  0  0  0  0  0  0
    4.8394    0.6763    0.4398 H   0  0  0  0  0  0  0  0  0  0  0  0
    5.3250    0.0638    2.0340 H   0  0  0  0  0  0  0  0  0  0  0  0
    1.0301   -0.0998    0.3442 N   0  0  0  0  0  0  0  0  0  0  0  0
   -0.1204   -0.4045   -0.5571 C   0  0  2  0  0  0  0  0  0  0  0  0
   -0.9132   -1.6418   -0.0730 C   0  0  0  0  0  0  0  0  0  0  0  0
   -1.6930   -2.2266   -0.8135 O   0  0  0  0  0  0  0  0  0  0  0  0
    0.1609   -0.4807   -2.0775 C   0  0  0  0  0  0  0  0  0  0  0  0
    1.0041   -1.5686   -2.4558 O   0  0  0  0  0  0  0  0  0  0  0  0
    0.7867    0.2890    1.2566 H   0  0  0  0  0  0  0  0  0  0  0  0
   -0.8148    0.4326   -0.4467 H   0  0  0  0  0  0  0  0  0  0  0  0
    0.6385    0.4537   -2.3884 H   0  0  0  0  0  0  0  0  0  0  0  0
   -0.7846   -0.5598   -2.6245 H   0  0  0  0  0  0  0  0  0  0  0  0
    1.8211   -1.5507   -1.8933 H   0  0  0  0  0  0  0  0  0  0  0  0
   -0.7217   -2.1198    1.2148 N   0  0  0  0  0  0  0  0  0  0  0  0
   -1.1701   -3.4126    1.7632 C   0  0  2  0  0  0  0  0  0  0  0  0
   -0.4450   -4.6100    1.1140 C   0  0  0  0  0  0  0  0  0  0  0  0
    0.2809   -5.3159    1.8049 O   0  0  0  0  0  0  0  0  0  0  0  0
   -2.6963   -3.5768    1.7171 C   0  0  0  0  0  0  0  0  0  0  0  0
   -0.0583   -1.5915    1.7839 H   0  0  0  0  0  0  0  0  0  0  0  0
   -0.8910   -3.4187    2.8214 H   0  0  0  0  0  0  0  0  0  0  0  0
   -3.0556   -3.7161    0.6937 H   0  0  0  0  0  0  0  0  0  0  0  0
   -2.9945   -4.4530    2.3008 H   0  0  0  0  0  0  0  0  0  0  0  0
   -3.1851   -2.6947    2.1411 H   0  0  0  0  0  0  0  0  0  0  0  0
   -0.5219   -4.8257   -0.2474 N   0  0  0  0  0  0  0  0  0  0  0  0
    0.2966   -5.7967   -0.9587 C   0  0  0  0  0  0  0  0  0  0  0  0
   -1.0090   -4.1022   -0.7848 H   0  0  0  0  0  0  0  0  0  0  0  0
    0.0530   -5.7835   -2.0254 H   0  0  0  0  0  0  0  0  0  0  0  0
    1.3595   -5.5608   -0.8429 H   0  0  0  0  0  0  0  0  0  0  0  0
    0.1137   -6.8055   -0.5748 H   0  0  0  0  0  0  0  0  0  0  0  0
  1  2  2  0  0  0  0
  1  3  1  0  0  0  0
  1  7  1  0  0  0  0
  3  4  1  0  0  0  0
  3  5  1  0  0  0  0
  3  6  1  0  0  0  0
  7  8  1  0  0  0  0
  7 12  1  0  0  0  0
  8  9  1  0  0  0  0
  8 11  1  0  0  0  0
  8 13  1  0  0  0  0
  9 10  2  0  0  0  0
  9 17  1  0  0  0  0
 11 14  1  0  0  0  0
 11 15  1  0  0  0  0
 11 16  1  0  0  0  0
 17 18  1  0  0  0  0
 17 23  1  0  0  0  0
 18 19  1  0  0  0  0
 18 21  1  0  0  0  0
 18 24  1  0  0  0  0
 19 20  2  0  0  0  0
 19 28  1  0  0  0  0
 21 22  1  0  0  0  0
 21 25  1  0  0  0  0
 21 26  1  0  0  0  0
 22 27  1  0  0  0  0
 28 29  1  0  0  0  0
 28 33  1  0  0  0  0
 29 30  1  0  0  0  0
 29 32  1  0  0  0  0
 29 34  1  0  0  0  0
 30 31  2  0  0  0  0
 30 38  1  0  0  0  0
 32 35  1  0  0  0  0
 32 36  1  0  0  0  0
 32 37  1  0  0  0  0
 38 39  1  0  0  0  0
 38 40  1  0  0  0  0
 39 41  1  0  0  0  0
 39 42  1  0  0  0  0
 39 43  1  0  0  0  0
M  END
$$$$

  -OEChem-05262217303D

 43 42  0     1  0  0  0  0  0999 V2000
    3.8524   -1.3876    4.1597 C   0  0  0  0  0  0  0  0  0  0  0  0
    3.3261   -0.5608    4.8876 O   0  0  0  0  0  0  0  0  0  0  0  0
    4.6624   -2.5245    4.7539 C   0  0  0  0  0  0  0  0  0  0  0  0
    5.6742   -2.5189    4.3409 H   0  0  0  0  0  0  0  0  0  0  0  0
    4.7257   -2.4146    5.8403 H   0  0  0  0  0  0  0  0  0  0  0  0
    4.1877   -3.4816    4.5236 H   0  0  0  0  0  0  0  0  0  0  0  0
    3.7006   -1.2917    2.7923 N   0  0  0  0  0  0  0  0  0  0  0  0
    2.8112   -0.3312    2.1249 C   0  0  2  0  0  0  0  0  0  0  0  0
    2.0244   -0.9860    0.9711 C   0  0  0  0  0  0  0  0  0  0  0  0
    2.4266   -2.0321    0.4805 O   0  0  0  0  0  0  0  0  0  0  0  0
    3.6679    0.8249    1.6023 C   0  0  0  0  0  0  0  0  0  0  0  0
    4.0349   -2.0775    2.2353 H   0  0  0  0  0  0  0  0  0  0  0  0
    2.0783    0.0612    2.8383 H   0  0  0  0  0  0  0  0  0  0  0  0
    4.4033    0.4608    0.8773 H   0  0  0  0  0  0  0  0  0  0  0  0
    3.0431    1.5796    1.1154 H   0  0  0  0  0  0  0  0  0  0  0  0
    4.2022    1.3020    2.4303 H   0  0  0  0  0  0  0  0  0  0  0  0
    0.8274   -0.4332    0.5445 N   0  0  0  0  0  0  0  0  0  0  0  0
    0.0971   -0.6944   -0.7287 C   0  0  2  0  0  0  0  0  0  0  0  0
   -0.9022   -1.8661   -0.6042 C   0  0  0  0  0  0  0  0  0  0  0  0
   -1.2998   -2.4646   -1.5939 O   0  0  0  0  0  0  0  0  0  0  0  0
    0.9720   -0.7986   -2.0023 C   0  0  0  0  0  0  0  0  0  0  0  0
    1.8503   -1.9248   -2.0235 O   0  0  0  0  0  0  0  0  0  0  0  0
    0.5891    0.4350    1.0187 H   0  0  0  0  0  0  0  0  0  0  0  0
   -0.5363    0.1806   -0.8999 H   0  0  0  0  0  0  0  0  0  0  0  0
    1.5776    0.1100   -2.0776 H   0  0  0  0  0  0  0  0  0  0  0  0
    0.3311   -0.8346   -2.8895 H   0  0  0  0  0  0  0  0  0  0  0  0
    2.2060   -2.0980   -1.1151 H   0  0  0  0  0  0  0  0  0  0  0  0
   -1.4931   -2.1218    0.6239 N   0  0  0  0  0  0  0  0  0  0  0  0
   -2.4638   -3.1921    0.9384 C   0  0  2  0  0  0  0  0  0  0  0  0
   -1.9040   -4.6265    0.7921 C   0  0  0  0  0  0  0  0  0  0  0  0
   -2.0021   -5.4048    1.7320 O   0  0  0  0  0  0  0  0  0  0  0  0
   -3.7685   -3.0275    0.1455 C   0  0  0  0  0  0  0  0  0  0  0  0
   -1.0388   -1.6706    1.4118 H   0  0  0  0  0  0  0  0  0  0  0  0
   -2.7251   -3.0783    1.9955 H   0  0  0  0  0  0  0  0  0  0  0  0
   -3.6221   -3.2470   -0.9161 H   0  0  0  0  0  0  0  0  0  0  0  0
   -4.5281   -3.7151    0.5310 H   0  0  0  0  0  0  0  0  0  0  0  0
   -4.1460   -2.0051    0.2420 H   0  0  0  0  0  0  0  0  0  0  0  0
   -1.2710   -5.0363   -0.3643 N   0  0  0  0  0  0  0  0  0  0  0  0
   -0.6446   -6.3389   -0.5356 C   0  0  0  0  0  0  0  0  0  0  0  0
   -1.1787   -4.3342   -1.1042 H   0  0  0  0  0  0  0  0  0  0  0  0
   -1.3848   -7.1376   -0.4218 H   0  0  0  0  0  0  0  0  0  0  0  0
   -0.2039   -6.4144   -1.5344 H   0  0  0  0  0  0  0  0  0  0  0  0
    0.1489   -6.4824    0.2052 H   0  0  0  0  0  0  0  0  0  0  0  0
  1  2  2  0  0  0  0
  1  3  1  0  0  0  0
  1  7  1  0  0  0  0
  3  4  1  0  0  0  0
  3  5  1  0  0  0  0
  3  6  1  0  0  0  0
  7  8  1  0  0  0  0
  7 12  1  0  0  0  0
  8  9  1  0  0  0  0
  8 11  1  0  0  0  0
  8 13  1  0  0  0  0
  9 10  2  0  0  0  0
  9 17  1  0  0  0  0
 11 14  1  0  0  0  0
 11 15  1  0  0  0  0
 11 16  1  0  0  0  0
 17 18  1  0  0  0  0
 17 23  1  0  0  0  0
 18 19  1  0  0  0  0
 18 21  1  0  0  0  0
 18 24  1  0  0  0  0
 19 20  2  0  0  0  0
 19 28  1  0  0  0  0
 21 22  1  0  0  0  0
 21 25  1  0  0  0  0
 21 26  1  0  0  0  0
 22 27  1  0  0  0  0
 28 29  1  0  0  0  0
 28 33  1  0  0  0  0
 29 30  1  0  0  0  0
 29 32  1  0  0  0  0
 29 34  1  0  0  0  0
 30 31  2  0  0  0  0
 30 38  1  0  0  0  0
 32 35  1  0  0  0  0
 32 36  1  0  0  0  0
 32 37  1  0  0  0  0
 38 39  1  0  0  0  0
 38 40  1  0  0  0  0
 39 41  1  0  0  0  0
 39 42  1  0  0  0  0
 39 43  1  0  0  0  0
M  END
$$$$

  -OEChem-05262217303D

 43 42  0     1  0  0  0  0  0999 V2000
    3.8804   -1.4568    4.1109 C   0  0  0  0  0  0  0  0  0  0  0  0
    3.4605   -0.5698    4.8372 O   0  0  0  0  0  0  0  0  0  0  0  0
    4.6606   -2.6200    4.6937 C   0  0  0  0  0  0  0  0  0  0  0  0
    5.6486   -2.6764    4.2304 H   0  0  0  0  0  0  0  0  0  0  0  0
    4.7844   -2.4884    5.7724 H   0  0  0  0  0  0  0  0  0  0  0  0
    4.1269   -3.5563    4.5122 H   0  0  0  0  0  0  0  0  0  0  0  0
    3.6312   -1.4068    2.7556 N   0  0  0  0  0  0  0  0  0  0  0  0
    2.7552   -0.4182    2.1135 C   0  0  2  0  0  0  0  0  0  0  0  0
    1.9706   -1.0278    0.9332 C   0  0  0  0  0  0  0  0  0  0  0  0
    2.3469   -2.0796    0.4330 O   0  0  0  0  0  0  0  0  0  0  0  0
    3.6194    0.7522    1.6359 C   0  0  0  0  0  0  0  0  0  0  0  0
    3.8953   -2.2222    2.2033 H   0  0  0  0  0  0  0  0  0  0  0  0
    2.0213   -0.0501    2.8385 H   0  0  0  0  0  0  0  0  0  0  0  0
    4.3555    0.4104    0.9010 H   0  0  0  0  0  0  0  0  0  0  0  0
    2.9997    1.5269    1.1745 H   0  0  0  0  0  0  0  0  0  0  0  0
    4.1535    1.1974    2.4817 H   0  0  0  0  0  0  0  0  0  0  0  0
    0.7991   -0.4313    0.4946 N   0  0  0  0  0  0  0  0  0  0  0  0
    0.0913   -0.6590   -0.7961 C   0  0  2  0  0  0  0  0  0  0  0  0
   -0.9400   -1.8049   -0.6948 C   0  0  0  0  0  0  0  0  0  0  0  0
   -1.1334   -2.5803   -1.6199 O   0  0  0  0  0  0  0  0  0  0  0  0
    0.9914   -0.7419   -2.0545 C   0  0  0  0  0  0  0  0  0  0  0  0
    1.8666   -1.8702   -2.0914 O   0  0  0  0  0  0  0  0  0  0  0  0
    0.5859    0.4421    0.9708 H   0  0  0  0  0  0  0  0  0  0  0  0
   -0.5206    0.2311   -0.9644 H   0  0  0  0  0  0  0  0  0  0  0  0
    1.6019    0.1654   -2.0988 H   0  0  0  0  0  0  0  0  0  0  0  0
    0.3643   -0.7556   -2.9522 H   0  0  0  0  0  0  0  0  0  0  0  0
    2.1695   -2.0971   -1.1760 H   0  0  0  0  0  0  0  0  0  0  0  0
   -1.7784   -1.8516    0.4093 N   0  0  0  0  0  0  0  0  0  0  0  0
   -2.7965   -2.8828    0.7045 C   0  0  2  0  0  0  0  0  0  0  0  0
   -2.2169   -4.2974    0.9397 C   0  0  0  0  0  0  0  0  0  0  0  0
   -2.4716   -4.8809    1.9853 O   0  0  0  0  0  0  0  0  0  0  0  0
   -3.9058   -2.9105   -0.3572 C   0  0  0  0  0  0  0  0  0  0  0  0
   -1.5022   -1.2515    1.1798 H   0  0  0  0  0  0  0  0  0  0  0  0
   -3.2739   -2.5928    1.6463 H   0  0  0  0  0  0  0  0  0  0  0  0
   -3.5419   -3.3155   -1.3058 H   0  0  0  0  0  0  0  0  0  0  0  0
   -4.7326   -3.5412   -0.0156 H   0  0  0  0  0  0  0  0  0  0  0  0
   -4.2897   -1.9015   -0.5333 H   0  0  0  0  0  0  0  0  0  0  0  0
   -1.3852   -4.8961    0.0145 N   0  0  0  0  0  0  0  0  0  0  0  0
   -0.7240   -6.1768    0.2182 C   0  0  0  0  0  0  0  0  0  0  0  0
   -1.1558   -4.3403   -0.8148 H   0  0  0  0  0  0  0  0  0  0  0  0
   -0.1096   -6.4252   -0.6526 H   0  0  0  0  0  0  0  0  0  0  0  0
   -0.0756   -6.1373    1.0995 H   0  0  0  0  0  0  0  0  0  0  0  0
   -1.4639   -6.9714    0.3584 H   0  0  0  0  0  0  0  0  0  0  0  0
  1  2  2  0  0  0  0
  1  3  1  0  0  0  0
  1  7  1  0  0  0  0
  3  4  1  0  0  0  0
  3  5  1  0  0  0  0
  3  6  1  0  0  0  0
  7  8  1  0  0  0  0
  7 12  1  0  0  0  0
  8  9  1  0  0  0  0
  8 11  1  0  0  0  0
  8 13  1  0  0  0  0
  9 10  2  0  0  0  0
  9 17  1  0  0  0  0
 11 14  1  0  0  0  0
 11 15  1  0  0  0  0
 11 16  1  0  0  0  0
 17 18  1  0  0  0  0
 17 23  1  0  0  0  0
 18 19  1  0  0  0  0
 18 21  1  0  0  0  0
 18 24  1  0  0  0  0
 19 20  2  0  0  0  0
 19 28  1  0  0  0  0
 21 22  1  0  0  0  0
 21 25  1  0  0  0  0
 21 26  1  0  0  0  0
 22 27  1  0  0  0  0
 28 29  1  0  0  0  0
 28 33  1  0  0  0  0
 29 30  1  0  0  0  0
 29 32  1  0  0  0  0
 29 34  1  0  0  0  0
 30 31  2  0  0  0  0
 30 38  1  0  0  0  0
 32 35  1  0  0  0  0
 32 36  1  0  0  0  0
 32 37  1  0  0  0  0
 38 39  1  0  0  0  0
 38 40  1  0  0  0  0
 39 41  1  0  0  0  0
 39 42  1  0  0  0  0
 39 43  1  0  0  0  0
M  END
$$$$

  -OEChem-05262217303D

 43 42  0     1  0  0  0  0  0999 V2000
    3.8776   -1.5783    4.0946 C   0  0  0  0  0  0  0  0  0  0  0  0
    3.4416   -0.7410    4.8689 O   0  0  0  0  0  0  0  0  0  0  0  0
    4.7285   -2.7255    4.6060 C   0  0  0  0  0  0  0  0  0  0  0  0
    5.7005   -2.7214    4.1066 H   0  0  0  0  0  0  0  0  0  0  0  0
    4.8860   -2.6270    5.6837 H   0  0  0  0  0  0  0  0  0  0  0  0
    4.2294   -3.6775    4.4089 H   0  0  0  0  0  0  0  0  0  0  0  0
    3.5848   -1.4844    2.7504 N   0  0  0  0  0  0  0  0  0  0  0  0
    2.6577   -0.5025    2.1728 C   0  0  2  0  0  0  0  0  0  0  0  0
    1.9499   -1.0505    0.9158 C   0  0  0  0  0  0  0  0  0  0  0  0
    2.3691   -2.0682    0.3804 O   0  0  0  0  0  0  0  0  0  0  0  0
    3.4466    0.7664    1.8344 C   0  0  0  0  0  0  0  0  0  0  0  0
    3.8690   -2.2614    2.1541 H   0  0  0  0  0  0  0  0  0  0  0  0
    1.8804   -0.2600    2.9058 H   0  0  0  0  0  0  0  0  0  0  0  0
    4.2276    0.5470    1.0990 H   0  0  0  0  0  0  0  0  0  0  0  0
    2.7855    1.5348    1.4228 H   0  0  0  0  0  0  0  0  0  0  0  0
    3.9210    1.1684    2.7357 H   0  0  0  0  0  0  0  0  0  0  0  0
    0.8009   -0.4355    0.4441 N   0  0  0  0  0  0  0  0  0  0  0  0
    0.1365   -0.6388   -0.8715 C   0  0  2  0  0  0  0  0  0  0  0  0
   -0.9095   -1.7749   -0.8137 C   0  0  0  0  0  0  0  0  0  0  0  0
   -0.8833   -2.7269   -1.5795 O   0  0  0  0  0  0  0  0  0  0  0  0
    1.0684   -0.6898   -2.1077 C   0  0  0  0  0  0  0  0  0  0  0  0
    1.9542   -1.8080   -2.1537 O   0  0  0  0  0  0  0  0  0  0  0  0
    0.5466    0.4058    0.9555 H   0  0  0  0  0  0  0  0  0  0  0  0
   -0.4627    0.2591   -1.0438 H   0  0  0  0  0  0  0  0  0  0  0  0
    1.6707    0.2239   -2.1199 H   0  0  0  0  0  0  0  0  0  0  0  0
    0.4601   -0.6919   -3.0182 H   0  0  0  0  0  0  0  0  0  0  0  0
    2.2203   -2.0660   -1.2350 H   0  0  0  0  0  0  0  0  0  0  0  0
   -1.9719   -1.6525    0.0702 N   0  0  0  0  0  0  0  0  0  0  0  0
   -3.0520   -2.6361    0.2987 C   0  0  2  0  0  0  0  0  0  0  0  0
   -2.5718   -3.9694    0.9170 C   0  0  0  0  0  0  0  0  0  0  0  0
   -3.0313   -4.3271    1.9939 O   0  0  0  0  0  0  0  0  0  0  0  0
   -3.8812   -2.8805   -0.9707 C   0  0  0  0  0  0  0  0  0  0  0  0
   -1.8919   -0.9001    0.7462 H   0  0  0  0  0  0  0  0  0  0  0  0
   -3.7328   -2.1916    1.0319 H   0  0  0  0  0  0  0  0  0  0  0  0
   -3.3121   -3.4374   -1.7207 H   0  0  0  0  0  0  0  0  0  0  0  0
   -4.7754   -3.4618   -0.7247 H   0  0  0  0  0  0  0  0  0  0  0  0
   -4.1967   -1.9287   -1.4083 H   0  0  0  0  0  0  0  0  0  0  0  0
   -1.6036   -4.7387    0.3032 N   0  0  0  0  0  0  0  0  0  0  0  0
   -1.0329   -5.9446    0.8855 C   0  0  0  0  0  0  0  0  0  0  0  0
   -1.1847   -4.3456   -0.5451 H   0  0  0  0  0  0  0  0  0  0  0  0
   -0.3270   -6.4030    0.1865 H   0  0  0  0  0  0  0  0  0  0  0  0
   -0.4999   -5.7068    1.8115 H   0  0  0  0  0  0  0  0  0  0  0  0
   -1.8204   -6.6720    1.1075 H   0  0  0  0  0  0  0  0  0  0  0  0
  1  2  2  0  0  0  0
  1  3  1  0  0  0  0
  1  7  1  0  0  0  0
  3  4  1  0  0  0  0
  3  5  1  0  0  0  0
  3  6  1  0  0  0  0
  7  8  1  0  0  0  0
  7 12  1  0  0  0  0
  8  9  1  0  0  0  0
  8 11  1  0  0  0  0
  8 13  1  0  0  0  0
  9 10  2  0  0  0  0
  9 17  1  0  0  0  0
 11 14  1  0  0  0  0
 11 15  1  0  0  0  0
 11 16  1  0  0  0  0
 17 18  1  0  0  0  0
 17 23  1  0  0  0  0
 18 19  1  0  0  0  0
 18 21  1  0  0  0  0
 18 24  1  0  0  0  0
 19 20  2  0  0  0  0
 19 28  1  0  0  0  0
 21 22  1  0  0  0  0
 21 25  1  0  0  0  0
 21 26  1  0  0  0  0
 22 27  1  0  0  0  0
 28 29  1  0  0  0  0
 28 33  1  0  0  0  0
 29 30  1  0  0  0  0
 29 32  1  0  0  0  0
 29 34  1  0  0  0  0
 30 31  2  0  0  0  0
 30 38  1  0  0  0  0
 32 35  1  0  0  0  0
 32 36  1  0  0  0  0
 32 37  1  0  0  0  0
 38 39  1  0  0  0  0
 38 40  1  0  0  0  0
 39 41  1  0  0  0  0
 39 42  1  0  0  0  0
 39 43  1  0  0  0  0
M  END
$$$$

  -OEChem-05262217303D

 43 42  0     1  0  0  0  0  0999 V2000
    3.8026   -1.7353    4.0758 C   0  0  0  0  0  0  0  0  0  0  0  0
    3.3045   -0.9824    4.8977 O   0  0  0  0  0  0  0  0  0  0  0  0
    4.7245   -2.8539    4.5234 C   0  0  0  0  0  0  0  0  0  0  0  0
    5.7007   -2.7474    4.0443 H   0  0  0  0  0  0  0  0  0  0  0  0
    4.8595   -2.8198    5.6081 H   0  0  0  0  0  0  0  0  0  0  0  0
    4.2969   -3.8222    4.2525 H   0  0  0  0  0  0  0  0  0  0  0  0
    3.5215   -1.5682    2.7362 N   0  0  0  0  0  0  0  0  0  0  0  0
    2.5510   -0.6001    2.2087 C   0  0  2  0  0  0  0  0  0  0  0  0
    1.9475   -1.0629    0.8651 C   0  0  0  0  0  0  0  0  0  0  0  0
    2.4470   -2.0123    0.2758 O   0  0  0  0  0  0  0  0  0  0  0  0
    3.2525    0.7527    2.0431 C   0  0  0  0  0  0  0  0  0  0  0  0
    3.8643   -2.2799    2.0911 H   0  0  0  0  0  0  0  0  0  0  0  0
    1.7237   -0.4934    2.9187 H   0  0  0  0  0  0  0  0  0  0  0  0
    4.0811    0.6693    1.3326 H   0  0  0  0  0  0  0  0  0  0  0  0
    2.5527    1.5095    1.6765 H   0  0  0  0  0  0  0  0  0  0  0  0
    3.6521    1.0932    3.0039 H   0  0  0  0  0  0  0  0  0  0  0  0
    0.8134   -0.4380    0.3691 N   0  0  0  0  0  0  0  0  0  0  0  0
    0.1773   -0.6062   -0.9646 C   0  0  2  0  0  0  0  0  0  0  0  0
   -0.8755   -1.7372   -0.9514 C   0  0  0  0  0  0  0  0  0  0  0  0
   -0.6641   -2.8312   -1.4520 O   0  0  0  0  0  0  0  0  0  0  0  0
    1.1253   -0.6363   -2.1891 C   0  0  0  0  0  0  0  0  0  0  0  0
    2.0055   -1.7565   -2.2541 O   0  0  0  0  0  0  0  0  0  0  0  0
    0.4737    0.3258    0.9475 H   0  0  0  0  0  0  0  0  0  0  0  0
   -0.4072    0.3031   -1.1278 H   0  0  0  0  0  0  0  0  0  0  0  0
    1.7337    0.2735   -2.1717 H   0  0  0  0  0  0  0  0  0  0  0  0
    0.5286   -0.6134   -3.1067 H   0  0  0  0  0  0  0  0  0  0  0  0
    2.2747   -2.0238   -1.3385 H   0  0  0  0  0  0  0  0  0  0  0  0
   -2.0998   -1.5008   -0.3414 N   0  0  0  0  0  0  0  0  0  0  0  0
   -3.1997   -2.4718   -0.1585 C   0  0  2  0  0  0  0  0  0  0  0  0
   -2.8588   -3.6411    0.7945 C   0  0  0  0  0  0  0  0  0  0  0  0
   -3.5081   -3.7807    1.8227 O   0  0  0  0  0  0  0  0  0  0  0  0
   -3.7327   -2.9867   -1.5041 C   0  0  0  0  0  0  0  0  0  0  0  0
   -2.1931   -0.6112    0.1377 H   0  0  0  0  0  0  0  0  0  0  0  0
   -4.0249   -1.9293    0.3144 H   0  0  0  0  0  0  0  0  0  0  0  0
   -3.0070   -3.6366   -2.0013 H   0  0  0  0  0  0  0  0  0  0  0  0
   -4.6496   -3.5633   -1.3466 H   0  0  0  0  0  0  0  0  0  0  0  0
   -3.9615   -2.1483   -2.1683 H   0  0  0  0  0  0  0  0  0  0  0  0
   -1.8093   -4.4985    0.5319 N   0  0  0  0  0  0  0  0  0  0  0  0
   -1.3685   -5.5476    1.4400 C   0  0  0  0  0  0  0  0  0  0  0  0
   -1.2269   -4.2596   -0.2766 H   0  0  0  0  0  0  0  0  0  0  0  0
   -0.5806   -6.1446    0.9708 H   0  0  0  0  0  0  0  0  0  0  0  0
   -0.9737   -5.1129    2.3638 H   0  0  0  0  0  0  0  0  0  0  0  0
   -2.2011   -6.2132    1.6901 H   0  0  0  0  0  0  0  0  0  0  0  0
  1  2  2  0  0  0  0
  1  3  1  0  0  0  0
  1  7  1  0  0  0  0
  3  4  1  0  0  0  0
  3  5  1  0  0  0  0
  3  6  1  0  0  0  0
  7  8  1  0  0  0  0
  7 12  1  0  0  0  0
  8  9  1  0  0  0  0
  8 11  1  0  0  0  0
  8 13  1  0  0  0  0
  9 10  2  0  0  0  0
  9 17  1  0  0  0  0
 11 14  1  0  0  0  0
 11 15  1  0  0  0  0
 11 16  1  0  0  0  0
 17 18  1  0  0  0  0
 17 23  1  0  0  0  0
 18 19  1  0  0  0  0
 18 21  1  0  0  0  0
 18 24  1  0  0  0  0
 19 20  2  0  0  0  0
 19 28  1  0  0  0  0
 21 22  1  0  0  0  0
 21 25  1  0  0  0  0
 21 26  1  0  0  0  0
 22 27  1  0  0  0  0
 28 29  1  0  0  0  0
 28 33  1  0  0  0  0
 29 30  1  0  0  0  0
 29 32  1  0  0  0  0
 29 34  1  0  0  0  0
 30 31  2  0  0  0  0
 30 38  1  0  0  0  0
 32 35  1  0  0  0  0
 32 36  1  0  0  0  0
 32 37  1  0  0  0  0
 38 39  1  0  0  0  0
 38 40  1  0  0  0  0
 39 41  1  0  0  0  0
 39 42  1  0  0  0  0
 39 43  1  0  0  0  0
M  END
$$$$

  -OEChem-05262217303D

 43 42  0     1  0  0  0  0  0999 V2000
    3.5321   -2.0181    3.9998 C   0  0  0  0  0  0  0  0  0  0  0  0
    2.8271   -1.5180    4.8621 O   0  0  0  0  0  0  0  0  0  0  0  0
    4.5353   -3.0966    4.3636 C   0  0  0  0  0  0  0  0  0  0  0  0
    5.5500   -2.7457    4.1602 H   0  0  0  0  0  0  0  0  0  0  0  0
    4.4542   -3.3438    5.4259 H   0  0  0  0  0  0  0  0  0  0  0  0
    4.3448   -3.9988    3.7772 H   0  0  0  0  0  0  0  0  0  0  0  0
    3.4145   -1.6001    2.6912 N   0  0  0  0  0  0  0  0  0  0  0  0
    2.3935   -0.6590    2.2120 C   0  0  2  0  0  0  0  0  0  0  0  0
    1.9913   -0.9398    0.7479 C   0  0  0  0  0  0  0  0  0  0  0  0
    2.6927   -1.6778    0.0685 O   0  0  0  0  0  0  0  0  0  0  0  0
    2.9451    0.7635    2.3569 C   0  0  0  0  0  0  0  0  0  0  0  0
    3.9313   -2.1218    1.9835 H   0  0  0  0  0  0  0  0  0  0  0  0
    1.4896   -0.7599    2.8229 H   0  0  0  0  0  0  0  0  0  0  0  0
    3.8436    0.8900    1.7442 H   0  0  0  0  0  0  0  0  0  0  0  0
    2.2012    1.5011    2.0419 H   0  0  0  0  0  0  0  0  0  0  0  0
    3.2059    0.9643    3.4011 H   0  0  0  0  0  0  0  0  0  0  0  0
    0.8342   -0.3670    0.2398 N   0  0  0  0  0  0  0  0  0  0  0  0
    0.2203   -0.5282   -1.1055 C   0  0  2  0  0  0  0  0  0  0  0  0
   -0.7740   -1.7097   -1.1259 C   0  0  0  0  0  0  0  0  0  0  0  0
   -0.3937   -2.8654   -1.2385 O   0  0  0  0  0  0  0  0  0  0  0  0
    1.1547   -0.5145   -2.3387 C   0  0  0  0  0  0  0  0  0  0  0  0
    2.0587   -1.6120   -2.4261 O   0  0  0  0  0  0  0  0  0  0  0  0
    0.3087    0.1756    0.9201 H   0  0  0  0  0  0  0  0  0  0  0  0
   -0.3928    0.3644   -1.2509 H   0  0  0  0  0  0  0  0  0  0  0  0
    1.7409    0.4095   -2.3137 H   0  0  0  0  0  0  0  0  0  0  0  0
    0.5482   -0.4936   -3.2500 H   0  0  0  0  0  0  0  0  0  0  0  0
    2.4276   -1.8042   -1.5257 H   0  0  0  0  0  0  0  0  0  0  0  0
   -2.1059   -1.4695   -0.8154 N   0  0  0  0  0  0  0  0  0  0  0  0
   -3.1764   -2.4765   -0.6486 C   0  0  2  0  0  0  0  0  0  0  0  0
   -3.0153   -3.3834    0.5941 C   0  0  0  0  0  0  0  0  0  0  0  0
   -3.9012   -3.3999    1.4382 O   0  0  0  0  0  0  0  0  0  0  0  0
   -3.3700   -3.3112   -1.9233 C   0  0  0  0  0  0  0  0  0  0  0  0
   -2.3600   -0.5017   -0.6450 H   0  0  0  0  0  0  0  0  0  0  0  0
   -4.1087   -1.9227   -0.4952 H   0  0  0  0  0  0  0  0  0  0  0  0
   -2.5225   -3.9809   -2.0962 H   0  0  0  0  0  0  0  0  0  0  0  0
   -4.2729   -3.9236   -1.8345 H   0  0  0  0  0  0  0  0  0  0  0  0
   -3.4800   -2.6572   -2.7935 H   0  0  0  0  0  0  0  0  0  0  0  0
   -1.8797   -4.1434    0.7897 N   0  0  0  0  0  0  0  0  0  0  0  0
   -1.6415   -4.9731    1.9623 C   0  0  0  0  0  0  0  0  0  0  0  0
   -1.1385   -4.0354    0.0905 H   0  0  0  0  0  0  0  0  0  0  0  0
   -2.4329   -5.7224    2.0688 H   0  0  0  0  0  0  0  0  0  0  0  0
   -0.6840   -5.4939    1.8658 H   0  0  0  0  0  0  0  0  0  0  0  0
   -1.6125   -4.3584    2.8677 H   0  0  0  0  0  0  0  0  0  0  0  0
  1  2  2  0  0  0  0
  1  3  1  0  0  0  0
  1  7  1  0  0  0  0
  3  4  1  0  0  0  0
  3  5  1  0  0  0  0
  3  6  1  0  0  0  0
  7  8  1  0  0  0  0
  7 12  1  0  0  0  0
  8  9  1  0  0  0  0
  8 11  1  0  0  0  0
  8 13  1  0  0  0  0
  9 10  2  0  0  0  0
  9 17  1  0  0  0  0
 11 14  1  0  0  0  0
 11 15  1  0  0  0  0
 11 16  1  0  0  0  0
 17 18  1  0  0  0  0
 17 23  1  0  0  0  0
 18 19  1  0  0  0  0
 18 21  1  0  0  0  0
 18 24  1  0  0  0  0
 19 20  2  0  0  0  0
 19 28  1  0  0  0  0
 21 22  1  0  0  0  0
 21 25  1  0  0  0  0
 21 26  1  0  0  0  0
 22 27  1  0  0  0  0
 28 29  1  0  0  0  0
 28 33  1  0  0  0  0
 29 30  1  0  0  0  0
 29 32  1  0  0  0  0
 29 34  1  0  0  0  0
 30 31  2  0  0  0  0
 30 38  1  0  0  0  0
 32 35  1  0  0  0  0
 32 36  1  0  0  0  0
 32 37  1  0  0  0  0
 38 39  1  0  0  0  0
 38 40  1  0  0  0  0
 39 41  1  0  0  0  0
 39 42  1  0  0  0  0
 39 43  1  0  0  0  0
M  END
$$$$

  -OEChem-05262217303D

 43 42  0     1  0  0  0  0  0999 V2000
    3.4776   -2.1970    3.9004 C   0  0  0  0  0  0  0  0  0  0  0  0
    2.6808   -1.8805    4.7697 O   0  0  0  0  0  0  0  0  0  0  0  0
    4.5553   -3.2250    4.1898 C   0  0  0  0  0  0  0  0  0  0  0  0
    5.5430   -2.7807    4.0448 H   0  0  0  0  0  0  0  0  0  0  0  0
    4.4746   -3.5749    5.2228 H   0  0  0  0  0  0  0  0  0  0  0  0
    4.4457   -4.0805    3.5188 H   0  0  0  0  0  0  0  0  0  0  0  0
    3.3934   -1.6226    2.6497 N   0  0  0  0  0  0  0  0  0  0  0  0
    2.3025   -0.7391    2.2162 C   0  0  2  0  0  0  0  0  0  0  0  0
    2.0115   -0.8822    0.7062 C   0  0  0  0  0  0  0  0  0  0  0  0
    2.8257   -1.4616   -0.0018 O   0  0  0  0  0  0  0  0  0  0  0  0
    2.6879    0.7046    2.5566 C   0  0  0  0  0  0  0  0  0  0  0  0
    3.9940   -2.0040    1.9192 H   0  0  0  0  0  0  0  0  0  0  0  0
    1.3840   -1.0033    2.7515 H   0  0  0  0  0  0  0  0  0  0  0  0
    3.6010    0.9918    2.0249 H   0  0  0  0  0  0  0  0  0  0  0  0
    1.8876    1.3951    2.2744 H   0  0  0  0  0  0  0  0  0  0  0  0
    2.8653    0.8065    3.6323 H   0  0  0  0  0  0  0  0  0  0  0  0
    0.8417   -0.3454    0.1874 N   0  0  0  0  0  0  0  0  0  0  0  0
    0.2634   -0.5017   -1.1746 C   0  0  2  0  0  0  0  0  0  0  0  0
   -0.6793   -1.7221   -1.2363 C   0  0  0  0  0  0  0  0  0  0  0  0
   -0.2600   -2.8448   -0.9908 O   0  0  0  0  0  0  0  0  0  0  0  0
    1.2072   -0.4716   -2.3975 C   0  0  0  0  0  0  0  0  0  0  0  0
    2.1148   -1.5660   -2.4712 O   0  0  0  0  0  0  0  0  0  0  0  0
    0.2229    0.0408    0.8956 H   0  0  0  0  0  0  0  0  0  0  0  0
   -0.3705    0.3766   -1.3167 H   0  0  0  0  0  0  0  0  0  0  0  0
    1.7876    0.4559   -2.3618 H   0  0  0  0  0  0  0  0  0  0  0  0
    0.6114   -0.4513   -3.3158 H   0  0  0  0  0  0  0  0  0  0  0  0
    2.5322   -1.6969   -1.5807 H   0  0  0  0  0  0  0  0  0  0  0  0
   -2.0516   -1.5124   -1.2646 N   0  0  0  0  0  0  0  0  0  0  0  0
   -3.1112   -2.5358   -1.1373 C   0  0  2  0  0  0  0  0  0  0  0  0
   -3.2222   -3.1618    0.2719 C   0  0  0  0  0  0  0  0  0  0  0  0
   -4.2587   -3.0237    0.9077 O   0  0  0  0  0  0  0  0  0  0  0  0
   -2.9838   -3.6182   -2.2199 C   0  0  0  0  0  0  0  0  0  0  0  0
   -2.3580   -0.5500   -1.3688 H   0  0  0  0  0  0  0  0  0  0  0  0
   -4.0649   -2.0278   -1.3155 H   0  0  0  0  0  0  0  0  0  0  0  0
   -2.1059   -4.2494   -2.0544 H   0  0  0  0  0  0  0  0  0  0  0  0
   -3.8692   -4.2613   -2.2109 H   0  0  0  0  0  0  0  0  0  0  0  0
   -2.8995   -3.1589   -3.2094 H   0  0  0  0  0  0  0  0  0  0  0  0
   -2.1581   -3.8269    0.8464 N   0  0  0  0  0  0  0  0  0  0  0  0
   -2.1631   -4.3603    2.2011 C   0  0  0  0  0  0  0  0  0  0  0  0
   -1.2846   -3.8220    0.3111 H   0  0  0  0  0  0  0  0  0  0  0  0
   -1.2258   -4.8887    2.4001 H   0  0  0  0  0  0  0  0  0  0  0  0
   -2.2678   -3.5514    2.9315 H   0  0  0  0  0  0  0  0  0  0  0  0
   -2.9907   -5.0651    2.3330 H   0  0  0  0  0  0  0  0  0  0  0  0
  1  2  2  0  0  0  0
  1  3  1  0  0  0  0
  1  7  1  0  0  0  0
  3  4  1  0  0  0  0
  3  5  1  0  0  0  0
  3  6  1  0  0  0  0
  7  8  1  0  0  0  0
  7 12  1  0  0  0  0
  8  9  1  0  0  0  0
  8 11  1  0  0  0  0
  8 13  1  0  0  0  0
  9 10  2  0  0  0  0
  9 17  1  0  0  0  0
 11 14  1  0  0  0  0
 11 15  1  0  0  0  0
 11 16  1  0  0  0  0
 17 18  1  0  0  0  0
 17 23  1  0  0  0  0
 18 19  1  0  0  0  0
 18 21  1  0  0  0  0
 18 24  1  0  0  0  0
 19 20  2  0  0  0  0
 19 28  1  0  0  0  0
 21 22  1  0  0  0  0
 21 25  1  0  0  0  0
 21 26  1  0  0  0  0
 22 27  1  0  0  0  0
 28 29  1  0  0  0  0
 28 33  1  0  0  0  0
 29 30  1  0  0  0  0
 29 32  1  0  0  0  0
 29 34  1  0  0  0  0
 30 31  2  0  0  0  0
 30 38  1  0  0  0  0
 32 35  1  0  0  0  0
 32 36  1  0  0  0  0
 32 37  1  0  0  0  0
 38 39  1  0  0  0  0
 38 40  1  0  0  0  0
 39 41  1  0  0  0  0
 39 42  1  0  0  0  0
 39 43  1  0  0  0  0
M  END
$$$$

  -OEChem-05262217303D

 43 42  0     1  0  0  0  0  0999 V2000
    3.4845   -2.2347    3.8626 C   0  0  0  0  0  0  0  0  0  0  0  0
    2.6478   -2.0208    4.7258 O   0  0  0  0  0  0  0  0  0  0  0  0
    4.6204   -3.2056    4.1236 C   0  0  0  0  0  0  0  0  0  0  0  0
    5.5801   -2.6957    4.0114 H   0  0  0  0  0  0  0  0  0  0  0  0
    4.5500   -3.6044    5.1395 H   0  0  0  0  0  0  0  0  0  0  0  0
    4.5720   -4.0360    3.4150 H   0  0  0  0  0  0  0  0  0  0  0  0
    3.3924   -1.5978    2.6432 N   0  0  0  0  0  0  0  0  0  0  0  0
    2.2535   -0.7685    2.2279 C   0  0  2  0  0  0  0  0  0  0  0  0
    2.0344   -0.8155    0.7001 C   0  0  0  0  0  0  0  0  0  0  0  0
    2.9203   -1.2701   -0.0140 O   0  0  0  0  0  0  0  0  0  0  0  0
    2.5049    0.6698    2.6935 C   0  0  0  0  0  0  0  0  0  0  0  0
    4.0358   -1.8953    1.9103 H   0  0  0  0  0  0  0  0  0  0  0  0
    1.3390   -1.1460    2.6987 H   0  0  0  0  0  0  0  0  0  0  0  0
    3.4099    1.0710    2.2260 H   0  0  0  0  0  0  0  0  0  0  0  0
    1.6605    1.3136    2.4307 H   0  0  0  0  0  0  0  0  0  0  0  0
    2.6322    0.6996    3.7805 H   0  0  0  0  0  0  0  0  0  0  0  0
    0.8443   -0.3322    0.1751 N   0  0  0  0  0  0  0  0  0  0  0  0
    0.2909   -0.4983   -1.1965 C   0  0  2  0  0  0  0  0  0  0  0  0
   -0.5874   -1.7645   -1.2898 C   0  0  0  0  0  0  0  0  0  0  0  0
   -0.2101   -2.8126   -0.7812 O   0  0  0  0  0  0  0  0  0  0  0  0
    1.2448   -0.4346   -2.4078 C   0  0  0  0  0  0  0  0  0  0  0  0
    2.1787   -1.5074   -2.4636 O   0  0  0  0  0  0  0  0  0  0  0  0
    0.1736   -0.0622    0.8898 H   0  0  0  0  0  0  0  0  0  0  0  0
   -0.3795    0.3531   -1.3369 H   0  0  0  0  0  0  0  0  0  0  0  0
    1.7999    0.5079   -2.3650 H   0  0  0  0  0  0  0  0  0  0  0  0
    0.6591   -0.4306   -3.3328 H   0  0  0  0  0  0  0  0  0  0  0  0
    2.6305   -1.5803   -1.5830 H   0  0  0  0  0  0  0  0  0  0  0  0
   -1.9228   -1.6360   -1.6472 N   0  0  0  0  0  0  0  0  0  0  0  0
   -2.9650   -2.6839   -1.5921 C   0  0  2  0  0  0  0  0  0  0  0  0
   -3.3734   -3.1015   -0.1602 C   0  0  0  0  0  0  0  0  0  0  0  0
   -4.5317   -2.9446    0.2022 O   0  0  0  0  0  0  0  0  0  0  0  0
   -2.5821   -3.9063   -2.4397 C   0  0  0  0  0  0  0  0  0  0  0  0
   -2.2120   -0.7218   -1.9816 H   0  0  0  0  0  0  0  0  0  0  0  0
   -3.8650   -2.2588   -2.0488 H   0  0  0  0  0  0  0  0  0  0  0  0
   -1.7515   -4.4597   -1.9920 H   0  0  0  0  0  0  0  0  0  0  0  0
   -3.4366   -4.5852   -2.5226 H   0  0  0  0  0  0  0  0  0  0  0  0
   -2.2896   -3.5950   -3.4471 H   0  0  0  0  0  0  0  0  0  0  0  0
   -2.4472   -3.6022    0.7324 N   0  0  0  0  0  0  0  0  0  0  0  0
   -2.7456   -3.9528    2.1139 C   0  0  0  0  0  0  0  0  0  0  0  0
   -1.4789   -3.6403    0.4010 H   0  0  0  0  0  0  0  0  0  0  0  0
   -1.8383   -4.2999    2.6181 H   0  0  0  0  0  0  0  0  0  0  0  0
   -3.1320   -3.0834    2.6561 H   0  0  0  0  0  0  0  0  0  0  0  0
   -3.4911   -4.7539    2.1533 H   0  0  0  0  0  0  0  0  0  0  0  0
  1  2  2  0  0  0  0
  1  3  1  0  0  0  0
  1  7  1  0  0  0  0
  3  4  1  0  0  0  0
  3  5  1  0  0  0  0
  3  6  1  0  0  0  0
  7  8  1  0  0  0  0
  7 12  1  0  0  0  0
  8  9  1  0  0  0  0
  8 11  1  0  0  0  0
  8 13  1  0  0  0  0
  9 10  2  0  0  0  0
  9 17  1  0  0  0  0
 11 14  1  0  0  0  0
 11 15  1  0  0  0  0
 11 16  1  0  0  0  0
 17 18  1  0  0  0  0
 17 23  1  0  0  0  0
 18 19  1  0  0  0  0
 18 21  1  0  0  0  0
 18 24  1  0  0  0  0
 19 20  2  0  0  0  0
 19 28  1  0  0  0  0
 21 22  1  0  0  0  0
 21 25  1  0  0  0  0
 21 26  1  0  0  0  0
 22 27  1  0  0  0  0
 28 29  1  0  0  0  0
 28 33  1  0  0  0  0
 29 30  1  0  0  0  0
 29 32  1  0  0  0  0
 29 34  1  0  0  0  0
 30 31  2  0  0  0  0
 30 38  1  0  0  0  0
 32 35  1  0  0  0  0
 32 36  1  0  0  0  0
 32 37  1  0  0  0  0
 38 39  1  0  0  0  0
 38 40  1  0  0  0  0
 39 41  1  0  0  0  0
 39 42  1  0  0  0  0
 39 43  1  0  0  0  0
M  END
$$$$

  -OEChem-05262217303D

 43 42  0     1  0  0  0  0  0999 V2000
    3.5324   -2.1271    3.8738 C   0  0  0  0  0  0  0  0  0  0  0  0
    2.6832   -1.9507    4.7333 O   0  0  0  0  0  0  0  0  0  0  0  0
    4.6942   -3.0691    4.1296 C   0  0  0  0  0  0  0  0  0  0  0  0
    5.6388   -2.5236    4.0625 H   0  0  0  0  0  0  0  0  0  0  0  0
    4.6112   -3.5084    5.1278 H   0  0  0  0  0  0  0  0  0  0  0  0
    4.6926   -3.8738    3.3901 H   0  0  0  0  0  0  0  0  0  0  0  0
    3.4348   -1.4715    2.6647 N   0  0  0  0  0  0  0  0  0  0  0  0
    2.2775   -0.6672    2.2510 C   0  0  2  0  0  0  0  0  0  0  0  0
    2.0508   -0.7264    0.7248 C   0  0  0  0  0  0  0  0  0  0  0  0
    2.9574   -1.1280    0.0044 O   0  0  0  0  0  0  0  0  0  0  0  0
    2.5075    0.7779    2.7045 C   0  0  0  0  0  0  0  0  0  0  0  0
    4.0952   -1.7369    1.9347 H   0  0  0  0  0  0  0  0  0  0  0  0
    1.3722   -1.0568    2.7295 H   0  0  0  0  0  0  0  0  0  0  0  0
    3.4069    1.1880    2.2337 H   0  0  0  0  0  0  0  0  0  0  0  0
    1.6544    1.4074    2.4344 H   0  0  0  0  0  0  0  0  0  0  0  0
    2.6342    0.8183    3.7912 H   0  0  0  0  0  0  0  0  0  0  0  0
    0.8343   -0.3050    0.2075 N   0  0  0  0  0  0  0  0  0  0  0  0
    0.2768   -0.5085   -1.1582 C   0  0  2  0  0  0  0  0  0  0  0  0
   -0.5434   -1.8139   -1.2473 C   0  0  0  0  0  0  0  0  0  0  0  0
   -0.2618   -2.7664   -0.5296 O   0  0  0  0  0  0  0  0  0  0  0  0
    1.2165   -0.4203   -2.3783 C   0  0  0  0  0  0  0  0  0  0  0  0
    2.1879   -1.4597   -2.4221 O   0  0  0  0  0  0  0  0  0  0  0  0
    0.1504   -0.0929    0.9292 H   0  0  0  0  0  0  0  0  0  0  0  0
   -0.4349    0.3090   -1.2967 H   0  0  0  0  0  0  0  0  0  0  0  0
    1.7352    0.5438   -2.3530 H   0  0  0  0  0  0  0  0  0  0  0  0
    0.6254   -0.4523   -3.2994 H   0  0  0  0  0  0  0  0  0  0  0  0
    2.6641   -1.4832   -1.5513 H   0  0  0  0  0  0  0  0  0  0  0  0
   -1.7730   -1.7985   -1.8904 N   0  0  0  0  0  0  0  0  0  0  0  0
   -2.7479   -2.9071   -1.9763 C   0  0  2  0  0  0  0  0  0  0  0  0
   -3.4726   -3.2364   -0.6506 C   0  0  0  0  0  0  0  0  0  0  0  0
   -4.6951   -3.1966   -0.6097 O   0  0  0  0  0  0  0  0  0  0  0  0
   -2.1108   -4.1656   -2.5838 C   0  0  0  0  0  0  0  0  0  0  0  0
   -1.9841   -0.9641   -2.4291 H   0  0  0  0  0  0  0  0  0  0  0  0
   -3.5300   -2.5867   -2.6725 H   0  0  0  0  0  0  0  0  0  0  0  0
   -1.3875   -4.6178   -1.8988 H   0  0  0  0  0  0  0  0  0  0  0  0
   -2.8842   -4.9100   -2.7988 H   0  0  0  0  0  0  0  0  0  0  0  0
   -1.5976   -3.9194   -3.5184 H   0  0  0  0  0  0  0  0  0  0  0  0
   -2.7695   -3.5595    0.4922 N   0  0  0  0  0  0  0  0  0  0  0  0
   -3.3883   -3.9019    1.7654 C   0  0  0  0  0  0  0  0  0  0  0  0
   -1.7488   -3.5483    0.4118 H   0  0  0  0  0  0  0  0  0  0  0  0
   -4.0069   -4.7994    1.6606 H   0  0  0  0  0  0  0  0  0  0  0  0
   -2.6184   -4.0983    2.5179 H   0  0  0  0  0  0  0  0  0  0  0  0
   -4.0180   -3.0793    2.1202 H   0  0  0  0  0  0  0  0  0  0  0  0
  1  2  2  0  0  0  0
  1  3  1  0  0  0  0
  1  7  1  0  0  0  0
  3  4  1  0  0  0  0
  3  5  1  0  0  0  0
  3  6  1  0  0  0  0
  7  8  1  0  0  0  0
  7 12  1  0  0  0  0
  8  9  1  0  0  0  0
  8 11  1  0  0  0  0
  8 13  1  0  0  0  0
  9 10  2  0  0  0  0
  9 17  1  0  0  0  0
 11 14  1  0  0  0  0
 11 15  1  0  0  0  0
 11 16  1  0  0  0  0
 17 18  1  0  0  0  0
 17 23  1  0  0  0  0
 18 19  1  0  0  0  0
 18 21  1  0  0  0  0
 18 24  1  0  0  0  0
 19 20  2  0  0  0  0
 19 28  1  0  0  0  0
 21 22  1  0  0  0  0
 21 25  1  0  0  0  0
 21 26  1  0  0  0  0
 22 27  1  0  0  0  0
 28 29  1  0  0  0  0
 28 33  1  0  0  0  0
 29 30  1  0  0  0  0
 29 32  1  0  0  0  0
 29 34  1  0  0  0  0
 30 31  2  0  0  0  0
 30 38  1  0  0  0  0
 32 35  1  0  0  0  0
 32 36  1  0  0  0  0
 32 37  1  0  0  0  0
 38 39  1  0  0  0  0
 38 40  1  0  0  0  0
 39 41  1  0  0  0  0
 39 42  1  0  0  0  0
 39 43  1  0  0  0  0
M  END
$$$$

  -OEChem-05262217303D

 43 42  0     1  0  0  0  0  0999 V2000
    3.6150   -2.1139    3.8679 C   0  0  0  0  0  0  0  0  0  0  0  0
    2.7592   -1.9867    4.7294 O   0  0  0  0  0  0  0  0  0  0  0  0
    4.8152   -3.0096    4.1108 C   0  0  0  0  0  0  0  0  0  0  0  0
    5.7344   -2.4201    4.0738 H   0  0  0  0  0  0  0  0  0  0  0  0
    4.7391   -3.4834    5.0936 H   0  0  0  0  0  0  0  0  0  0  0  0
    4.8596   -3.7898    3.3469 H   0  0  0  0  0  0  0  0  0  0  0  0
    3.4880   -1.4457    2.6685 N   0  0  0  0  0  0  0  0  0  0  0  0
    2.2909   -0.6967    2.2632 C   0  0  2  0  0  0  0  0  0  0  0  0
    2.0850   -0.7258    0.7330 C   0  0  0  0  0  0  0  0  0  0  0  0
    3.0027   -1.1086    0.0157 O   0  0  0  0  0  0  0  0  0  0  0  0
    2.4276    0.7449    2.7647 C   0  0  0  0  0  0  0  0  0  0  0  0
    4.1569   -1.6746    1.9340 H   0  0  0  0  0  0  0  0  0  0  0  0
    1.4044   -1.1541    2.7167 H   0  0  0  0  0  0  0  0  0  0  0  0
    3.3041    1.2247    2.3176 H   0  0  0  0  0  0  0  0  0  0  0  0
    1.5399    1.3296    2.5068 H   0  0  0  0  0  0  0  0  0  0  0  0
    2.5413    0.7573    3.8535 H   0  0  0  0  0  0  0  0  0  0  0  0
    0.8677   -0.3139    0.2106 N   0  0  0  0  0  0  0  0  0  0  0  0
    0.3084   -0.5328   -1.1523 C   0  0  2  0  0  0  0  0  0  0  0  0
   -0.5100   -1.8407   -1.2296 C   0  0  0  0  0  0  0  0  0  0  0  0
   -0.3953   -2.6894   -0.3520 O   0  0  0  0  0  0  0  0  0  0  0  0
    1.2531   -0.4697   -2.3692 C   0  0  0  0  0  0  0  0  0  0  0  0
    2.2137   -1.5200   -2.3890 O   0  0  0  0  0  0  0  0  0  0  0  0
    0.1752   -0.1315    0.9325 H   0  0  0  0  0  0  0  0  0  0  0  0
   -0.4046    0.2816   -1.3044 H   0  0  0  0  0  0  0  0  0  0  0  0
    1.7797    0.4897   -2.3558 H   0  0  0  0  0  0  0  0  0  0  0  0
    0.6675   -0.5103   -3.2934 H   0  0  0  0  0  0  0  0  0  0  0  0
    2.7060   -1.5106   -1.5266 H   0  0  0  0  0  0  0  0  0  0  0  0
   -1.5705   -1.9275   -2.1204 N   0  0  0  0  0  0  0  0  0  0  0  0
   -2.5056   -3.0608   -2.2818 C   0  0  2  0  0  0  0  0  0  0  0  0
   -3.4885   -3.2622   -1.1052 C   0  0  0  0  0  0  0  0  0  0  0  0
   -4.6921   -3.1642   -1.3046 O   0  0  0  0  0  0  0  0  0  0  0  0
   -1.7507   -4.3590   -2.6030 C   0  0  0  0  0  0  0  0  0  0  0  0
   -1.6360   -1.1815   -2.8065 H   0  0  0  0  0  0  0  0  0  0  0  0
   -3.1275   -2.8357   -3.1543 H   0  0  0  0  0  0  0  0  0  0  0  0
   -1.1660   -4.7039   -1.7452 H   0  0  0  0  0  0  0  0  0  0  0  0
   -2.4603   -5.1484   -2.8695 H   0  0  0  0  0  0  0  0  0  0  0  0
   -1.0712   -4.2051   -3.4467 H   0  0  0  0  0  0  0  0  0  0  0  0
   -3.0344   -3.5331    0.1698 N   0  0  0  0  0  0  0  0  0  0  0  0
   -3.9004   -3.6914    1.3297 C   0  0  0  0  0  0  0  0  0  0  0  0
   -2.0193   -3.5023    0.2989 H   0  0  0  0  0  0  0  0  0  0  0  0
   -3.3040   -3.9354    2.2141 H   0  0  0  0  0  0  0  0  0  0  0  0
   -4.4514   -2.7659    1.5260 H   0  0  0  0  0  0  0  0  0  0  0  0
   -4.6181   -4.5018    1.1640 H   0  0  0  0  0  0  0  0  0  0  0  0
  1  2  2  0  0  0  0
  1  3  1  0  0  0  0
  1  7  1  0  0  0  0
  3  4  1  0  0  0  0
  3  5  1  0  0  0  0
  3  6  1  0  0  0  0
  7  8  1  0  0  0  0
  7 12  1  0  0  0  0
  8  9  1  0  0  0  0
  8 11  1  0  0  0  0
  8 13  1  0  0  0  0
  9 10  2  0  0  0  0
  9 17  1  0  0  0  0
 11 14  1  0  0  0  0
 11 15  1  0  0  0  0
 11 16  1  0  0  0  0
 17 18  1  0  0  0  0
 17 23  1  0  0  0  0
 18 19  1  0  0  0  0
 18 21  1  0  0  0  0
 18 24  1  0  0  0  0
 19 20  2  0  0  0  0
 19 28  1  0  0  0  0
 21 22  1  0  0  0  0
 21 25  1  0  0  0  0
 21 26  1  0  0  0  0
 22 27  1  0  0  0  0
 28 29  1  0  0  0  0
 28 33  1  0  0  0  0
 29 30  1  0  0  0  0
 29 32  1  0  0  0  0
 29 34  1  0  0  0  0
 30 31  2  0  0  0  0
 30 38  1  0  0  0  0
 32 35  1  0  0  0  0
 32 36  1  0  0  0  0
 32 37  1  0  0  0  0
 38 39  1  0  0  0  0
 38 40  1  0  0  0  0
 39 41  1  0  0  0  0
 39 42  1  0  0  0  0
 39 43  1  0  0  0  0
M  END
$$$$

  -OEChem-05262217303D

 43 42  0     1  0  0  0  0  0999 V2000
    3.6840   -2.1065    3.8457 C   0  0  0  0  0  0  0  0  0  0  0  0
    2.8128   -2.0651    4.6999 O   0  0  0  0  0  0  0  0  0  0  0  0
    4.9296   -2.9442    4.0654 C   0  0  0  0  0  0  0  0  0  0  0  0
    5.8203   -2.3145    4.0035 H   0  0  0  0  0  0  0  0  0  0  0  0
    4.8987   -3.4138    5.0524 H   0  0  0  0  0  0  0  0  0  0  0  0
    4.9910   -3.7264    3.3048 H   0  0  0  0  0  0  0  0  0  0  0  0
    3.5311   -1.4015    2.6707 N   0  0  0  0  0  0  0  0  0  0  0  0
    2.2921   -0.7192    2.2730 C   0  0  2  0  0  0  0  0  0  0  0  0
    2.1051   -0.7092    0.7397 C   0  0  0  0  0  0  0  0  0  0  0  0
    3.0404   -1.0480    0.0227 O   0  0  0  0  0  0  0  0  0  0  0  0
    2.3278    0.7091    2.8267 C   0  0  0  0  0  0  0  0  0  0  0  0
    4.2214   -1.5632    1.9385 H   0  0  0  0  0  0  0  0  0  0  0  0
    1.4323   -1.2492    2.6983 H   0  0  0  0  0  0  0  0  0  0  0  0
    3.1751    1.2613    2.4076 H   0  0  0  0  0  0  0  0  0  0  0  0
    1.4055    1.2430    2.5792 H   0  0  0  0  0  0  0  0  0  0  0  0
    2.4299    0.6894    3.9167 H   0  0  0  0  0  0  0  0  0  0  0  0
    0.8806   -0.3242    0.2139 N   0  0  0  0  0  0  0  0  0  0  0  0
    0.3278   -0.5555   -1.1503 C   0  0  2  0  0  0  0  0  0  0  0  0
   -0.4605   -1.8842   -1.2143 C   0  0  0  0  0  0  0  0  0  0  0  0
   -0.5342   -2.5937   -0.2160 O   0  0  0  0  0  0  0  0  0  0  0  0
    1.2792   -0.4754   -2.3628 C   0  0  0  0  0  0  0  0  0  0  0  0
    2.2578   -1.5093   -2.3737 O   0  0  0  0  0  0  0  0  0  0  0  0
    0.1750   -0.1984    0.9358 H   0  0  0  0  0  0  0  0  0  0  0  0
   -0.4064    0.2388   -1.3094 H   0  0  0  0  0  0  0  0  0  0  0  0
    1.7913    0.4922   -2.3438 H   0  0  0  0  0  0  0  0  0  0  0  0
    0.7033   -0.5211   -3.2926 H   0  0  0  0  0  0  0  0  0  0  0  0
    2.7632   -1.4696   -1.5198 H   0  0  0  0  0  0  0  0  0  0  0  0
   -1.3051   -2.1377   -2.2856 N   0  0  0  0  0  0  0  0  0  0  0  0
   -2.1619   -3.3270   -2.4831 C   0  0  2  0  0  0  0  0  0  0  0  0
   -3.3876   -3.4128   -1.5442 C   0  0  0  0  0  0  0  0  0  0  0  0
   -4.5058   -3.5344   -2.0265 O   0  0  0  0  0  0  0  0  0  0  0  0
   -1.3383   -4.6221   -2.4307 C   0  0  0  0  0  0  0  0  0  0  0  0
   -1.1989   -1.5180   -3.0836 H   0  0  0  0  0  0  0  0  0  0  0  0
   -2.5683   -3.2557   -3.4976 H   0  0  0  0  0  0  0  0  0  0  0  0
   -0.9773   -4.8255   -1.4185 H   0  0  0  0  0  0  0  0  0  0  0  0
   -1.9538   -5.4696   -2.7477 H   0  0  0  0  0  0  0  0  0  0  0  0
   -0.4755   -4.5521   -3.0999 H   0  0  0  0  0  0  0  0  0  0  0  0
   -3.2486   -3.3545   -0.1723 N   0  0  0  0  0  0  0  0  0  0  0  0
   -4.3546   -3.4639    0.7686 C   0  0  0  0  0  0  0  0  0  0  0  0
   -2.2940   -3.2425    0.1791 H   0  0  0  0  0  0  0  0  0  0  0  0
   -3.9853   -3.3822    1.7954 H   0  0  0  0  0  0  0  0  0  0  0  0
   -5.0840   -2.6653    0.5979 H   0  0  0  0  0  0  0  0  0  0  0  0
   -4.8569   -4.4306    0.6577 H   0  0  0  0  0  0  0  0  0  0  0  0
  1  2  2  0  0  0  0
  1  3  1  0  0  0  0
  1  7  1  0  0  0  0
  3  4  1  0  0  0  0
  3  5  1  0  0  0  0
  3  6  1  0  0  0  0
  7  8  1  0  0  0  0
  7 12  1  0  0  0  0
  8  9  1  0  0  0  0
  8 11  1  0  0  0  0
  8 13  1  0  0  0  0
  9 10  2  0  0  0  0
  9 17  1  0  0  0  0
 11 14  1  0  0  0  0
 11 15  1  0  0  0  0
 11 16  1  0  0  0  0
 17 18  1  0  0  0  0
 17 23  1  0  0  0  0
 18 19  1  0  0  0  0
 18 21  1  0  0  0  0
 18 24  1  0  0  0  0
 19 20  2  0  0  0  0
 19 28  1  0  0  0  0
 21 22  1  0  0  0  0
 21 25  1  0  0  0  0
 21 26  1  0  0  0  0
 22 27  1  0  0  0  0
 28 29  1  0  0  0  0
 28 33  1  0  0  0  0
 29 30  1  0  0  0  0
 29 32  1  0  0  0  0
 29 34  1  0  0  0  0
 30 31  2  0  0  0  0
 30 38  1  0  0  0  0
 32 35  1  0  0  0  0
 32 36  1  0  0  0  0
 32 37  1  0  0  0  0
 38 39  1  0  0  0  0
 38 40  1  0  0  0  0
 39 41  1  0  0  0  0
 39 42  1  0  0  0  0
 39 43  1  0  0  0  0
M  END
$$$$

  -OEChem-05262217303D

 43 42  0     1  0  0  0  0  0999 V2000
    3.6596   -1.9860    3.9460 C   0  0  0  0  0  0  0  0  0  0  0  0
    2.7887   -1.9023    4.7972 O   0  0  0  0  0  0  0  0  0  0  0  0
    4.9166   -2.7910    4.2178 C   0  0  0  0  0  0  0  0  0  0  0  0
    5.7989   -2.1573    4.0998 H   0  0  0  0  0  0  0  0  0  0  0  0
    4.8994   -3.1839    5.2384 H   0  0  0  0  0  0  0  0  0  0  0  0
    4.9819   -3.6286    3.5190 H   0  0  0  0  0  0  0  0  0  0  0  0
    3.4982   -1.3529    2.7317 N   0  0  0  0  0  0  0  0  0  0  0  0
    2.2628   -0.6805    2.3068 C   0  0  2  0  0  0  0  0  0  0  0  0
    2.0670   -0.7406    0.7756 C   0  0  0  0  0  0  0  0  0  0  0  0
    2.9959   -1.1201    0.0696 O   0  0  0  0  0  0  0  0  0  0  0  0
    2.3148    0.7734    2.7891 C   0  0  0  0  0  0  0  0  0  0  0  0
    4.1954   -1.5363    2.0113 H   0  0  0  0  0  0  0  0  0  0  0  0
    1.4004   -1.1799    2.7627 H   0  0  0  0  0  0  0  0  0  0  0  0
    3.1655    1.2963    2.3402 H   0  0  0  0  0  0  0  0  0  0  0  0
    1.3966    1.3034    2.5185 H   0  0  0  0  0  0  0  0  0  0  0  0
    2.4209    0.8077    3.8784 H   0  0  0  0  0  0  0  0  0  0  0  0
    0.8378   -0.3822    0.2421 N   0  0  0  0  0  0  0  0  0  0  0  0
    0.2947   -0.5801   -1.1305 C   0  0  2  0  0  0  0  0  0  0  0  0
   -0.7494   -1.7214   -1.1360 C   0  0  0  0  0  0  0  0  0  0  0  0
   -1.1722   -2.1425   -0.0632 O   0  0  0  0  0  0  0  0  0  0  0  0
    1.2868   -0.7636   -2.2968 C   0  0  0  0  0  0  0  0  0  0  0  0
    2.0262   -1.9753   -2.1838 O   0  0  0  0  0  0  0  0  0  0  0  0
    0.1202   -0.2679    0.9559 H   0  0  0  0  0  0  0  0  0  0  0  0
   -0.2594    0.3319   -1.3684 H   0  0  0  0  0  0  0  0  0  0  0  0
    1.9843    0.0807   -2.3098 H   0  0  0  0  0  0  0  0  0  0  0  0
    0.7517   -0.7555   -3.2514 H   0  0  0  0  0  0  0  0  0  0  0  0
    2.5910   -1.9043   -1.3735 H   0  0  0  0  0  0  0  0  0  0  0  0
   -1.3926   -2.0898   -2.3086 N   0  0  0  0  0  0  0  0  0  0  0  0
   -2.4291   -3.1323   -2.4670 C   0  0  2  0  0  0  0  0  0  0  0  0
   -3.8042   -2.7870   -1.8492 C   0  0  0  0  0  0  0  0  0  0  0  0
   -4.7970   -2.7641   -2.5649 O   0  0  0  0  0  0  0  0  0  0  0  0
   -1.9247   -4.4936   -1.9660 C   0  0  0  0  0  0  0  0  0  0  0  0
   -0.9659   -1.7429   -3.1631 H   0  0  0  0  0  0  0  0  0  0  0  0
   -2.6062   -3.2391   -3.5423 H   0  0  0  0  0  0  0  0  0  0  0  0
   -1.8083   -4.5008   -0.8784 H   0  0  0  0  0  0  0  0  0  0  0  0
   -2.6369   -5.2794   -2.2367 H   0  0  0  0  0  0  0  0  0  0  0  0
   -0.9580   -4.7314   -2.4201 H   0  0  0  0  0  0  0  0  0  0  0  0
   -3.9353   -2.4993   -0.5056 N   0  0  0  0  0  0  0  0  0  0  0  0
   -5.1907   -2.1308    0.1337 C   0  0  0  0  0  0  0  0  0  0  0  0
   -3.0644   -2.4553    0.0298 H   0  0  0  0  0  0  0  0  0  0  0  0
   -5.0479   -2.0328    1.2141 H   0  0  0  0  0  0  0  0  0  0  0  0
   -5.5537   -1.1753   -0.2584 H   0  0  0  0  0  0  0  0  0  0  0  0
   -5.9518   -2.8977   -0.0444 H   0  0  0  0  0  0  0  0  0  0  0  0
  1  2  2  0  0  0  0
  1  3  1  0  0  0  0
  1  7  1  0  0  0  0
  3  4  1  0  0  0  0
  3  5  1  0  0  0  0
  3  6  1  0  0  0  0
  7  8  1  0  0  0  0
  7 12  1  0  0  0  0
  8  9  1  0  0  0  0
  8 11  1  0  0  0  0
  8 13  1  0  0  0  0
  9 10  2  0  0  0  0
  9 17  1  0  0  0  0
 11 14  1  0  0  0  0
 11 15  1  0  0  0  0
 11 16  1  0  0  0  0
 17 18  1  0  0  0  0
 17 23  1  0  0  0  0
 18 19  1  0  0  0  0
 18 21  1  0  0  0  0
 18 24  1  0  0  0  0
 19 20  2  0  0  0  0
 19 28  1  0  0  0  0
 21 22  1  0  0  0  0
 21 25  1  0  0  0  0
 21 26  1  0  0  0  0
 22 27  1  0  0  0  0
 28 29  1  0  0  0  0
 28 33  1  0  0  0  0
 29 30  1  0  0  0  0
 29 32  1  0  0  0  0
 29 34  1  0  0  0  0
 30 31  2  0  0  0  0
 30 38  1  0  0  0  0
 32 35  1  0  0  0  0
 32 36  1  0  0  0  0
 32 37  1  0  0  0  0
 38 39  1  0  0  0  0
 38 40  1  0  0  0  0
 39 41  1  0  0  0  0
 39 42  1  0  0  0  0
 39 43  1  0  0  0  0
M  END
$$$$

  -OEChem-05262217303D

 43 42  0     1  0  0  0  0  0999 V2000
    3.6964   -1.9221    3.9911 C   0  0  0  0  0  0  0  0  0  0  0  0
    2.8479   -1.7648    4.8543 O   0  0  0  0  0  0  0  0  0  0  0  0
    4.9477   -2.7268    4.2885 C   0  0  0  0  0  0  0  0  0  0  0  0
    5.8302   -2.0886    4.2015 H   0  0  0  0  0  0  0  0  0  0  0  0
    4.9037   -3.1311    5.3038 H   0  0  0  0  0  0  0  0  0  0  0  0
    5.0354   -3.5566    3.5830 H   0  0  0  0  0  0  0  0  0  0  0  0
    3.5190   -1.3646    2.7424 N   0  0  0  0  0  0  0  0  0  0  0  0
    2.3028   -0.6611    2.3122 C   0  0  2  0  0  0  0  0  0  0  0  0
    2.0691   -0.7808    0.7898 C   0  0  0  0  0  0  0  0  0  0  0  0
    2.9765   -1.1984    0.0778 O   0  0  0  0  0  0  0  0  0  0  0  0
    2.4271    0.8108    2.7226 C   0  0  0  0  0  0  0  0  0  0  0  0
    4.2002   -1.5988    2.0216 H   0  0  0  0  0  0  0  0  0  0  0  0
    1.4324   -1.1023    2.8105 H   0  0  0  0  0  0  0  0  0  0  0  0
    3.2903    1.2736    2.2337 H   0  0  0  0  0  0  0  0  0  0  0  0
    1.5277    1.3673    2.4427 H   0  0  0  0  0  0  0  0  0  0  0  0
    2.5565    0.8929    3.8067 H   0  0  0  0  0  0  0  0  0  0  0  0
    0.8339   -0.4248    0.2683 N   0  0  0  0  0  0  0  0  0  0  0  0
    0.2791   -0.6025   -1.1022 C   0  0  2  0  0  0  0  0  0  0  0  0
   -0.7543   -1.7541   -1.1044 C   0  0  0  0  0  0  0  0  0  0  0  0
   -1.3279   -2.0251   -0.0535 O   0  0  0  0  0  0  0  0  0  0  0  0
    1.2595   -0.7495   -2.2843 C   0  0  0  0  0  0  0  0  0  0  0  0
    2.0155   -1.9535   -2.2057 O   0  0  0  0  0  0  0  0  0  0  0  0
    0.1258   -0.2792    0.9865 H   0  0  0  0  0  0  0  0  0  0  0  0
   -0.2896    0.3059   -1.3197 H   0  0  0  0  0  0  0  0  0  0  0  0
    1.9469    0.1029   -2.2857 H   0  0  0  0  0  0  0  0  0  0  0  0
    0.7136   -0.7235   -3.2325 H   0  0  0  0  0  0  0  0  0  0  0  0
    2.5785   -1.8998   -1.3917 H   0  0  0  0  0  0  0  0  0  0  0  0
   -1.1892   -2.3312   -2.2882 N   0  0  0  0  0  0  0  0  0  0  0  0
   -2.1441   -3.4499   -2.4358 C   0  0  2  0  0  0  0  0  0  0  0  0
   -3.6154   -3.1143   -2.0987 C   0  0  0  0  0  0  0  0  0  0  0  0
   -4.4885   -3.3445   -2.9250 O   0  0  0  0  0  0  0  0  0  0  0  0
   -1.6724   -4.6847   -1.6547 C   0  0  0  0  0  0  0  0  0  0  0  0
   -0.5982   -2.1360   -3.0929 H   0  0  0  0  0  0  0  0  0  0  0  0
   -2.1396   -3.7265   -3.4952 H   0  0  0  0  0  0  0  0  0  0  0  0
   -1.7414   -4.5238   -0.5748 H   0  0  0  0  0  0  0  0  0  0  0  0
   -2.2946   -5.5488   -1.9094 H   0  0  0  0  0  0  0  0  0  0  0  0
   -0.6337   -4.9200   -1.9062 H   0  0  0  0  0  0  0  0  0  0  0  0
   -3.9708   -2.5786   -0.8771 N   0  0  0  0  0  0  0  0  0  0  0  0
   -5.3383   -2.2640   -0.4879 C   0  0  0  0  0  0  0  0  0  0  0  0
   -3.2028   -2.3845   -0.2294 H   0  0  0  0  0  0  0  0  0  0  0  0
   -5.3594   -1.8822    0.5372 H   0  0  0  0  0  0  0  0  0  0  0  0
   -5.7594   -1.5015   -1.1511 H   0  0  0  0  0  0  0  0  0  0  0  0
   -5.9662   -3.1598   -0.5358 H   0  0  0  0  0  0  0  0  0  0  0  0
  1  2  2  0  0  0  0
  1  3  1  0  0  0  0
  1  7  1  0  0  0  0
  3  4  1  0  0  0  0
  3  5  1  0  0  0  0
  3  6  1  0  0  0  0
  7  8  1  0  0  0  0
  7 12  1  0  0  0  0
  8  9  1  0  0  0  0
  8 11  1  0  0  0  0
  8 13  1  0  0  0  0
  9 10  2  0  0  0  0
  9 17  1  0  0  0  0
 11 14  1  0  0  0  0
 11 15  1  0  0  0  0
 11 16  1  0  0  0  0
 17 18  1  0  0  0  0
 17 23  1  0  0  0  0
 18 19  1  0  0  0  0
 18 21  1  0  0  0  0
 18 24  1  0  0  0  0
 19 20  2  0  0  0  0
 19 28  1  0  0  0  0
 21 22  1  0  0  0  0
 21 25  1  0  0  0  0
 21 26  1  0  0  0  0
 22 27  1  0  0  0  0
 28 29  1  0  0  0  0
 28 33  1  0  0  0  0
 29 30  1  0  0  0  0
 29 32  1  0  0  0  0
 29 34  1  0  0  0  0
 30 31  2  0  0  0  0
 30 38  1  0  0  0  0
 32 35  1  0  0  0  0
 32 36  1  0  0  0  0
 32 37  1  0  0  0  0
 38 39  1  0  0  0  0
 38 40  1  0  0  0  0
 39 41  1  0  0  0  0
 39 42  1  0  0  0  0
 39 43  1  0  0  0  0
M  END
$$$$

  -OEChem-05262217303D

 43 42  0     1  0  0  0  0  0999 V2000
    3.7645   -1.8924    3.9761 C   0  0  0  0  0  0  0  0  0  0  0  0
    2.9197   -1.7769    4.8495 O   0  0  0  0  0  0  0  0  0  0  0  0
    5.0402   -2.6679    4.2444 C   0  0  0  0  0  0  0  0  0  0  0  0
    5.9032   -2.0013    4.1739 H   0  0  0  0  0  0  0  0  0  0  0  0
    5.0119   -3.1042    5.2468 H   0  0  0  0  0  0  0  0  0  0  0  0
    5.1495   -3.4729    3.5135 H   0  0  0  0  0  0  0  0  0  0  0  0
    3.5577   -1.3206    2.7386 N   0  0  0  0  0  0  0  0  0  0  0  0
    2.3127   -0.6578    2.3278 C   0  0  2  0  0  0  0  0  0  0  0  0
    2.0697   -0.7774    0.8072 C   0  0  0  0  0  0  0  0  0  0  0  0
    2.9761   -1.1835    0.0874 O   0  0  0  0  0  0  0  0  0  0  0  0
    2.3881    0.8137    2.7495 C   0  0  0  0  0  0  0  0  0  0  0  0
    4.2353   -1.5285    2.0063 H   0  0  0  0  0  0  0  0  0  0  0  0
    1.4629   -1.1330    2.8300 H   0  0  0  0  0  0  0  0  0  0  0  0
    3.2302    1.3108    2.2573 H   0  0  0  0  0  0  0  0  0  0  0  0
    1.4669    1.3404    2.4821 H   0  0  0  0  0  0  0  0  0  0  0  0
    2.5245    0.8906    3.8332 H   0  0  0  0  0  0  0  0  0  0  0  0
    0.8244   -0.4478    0.2933 N   0  0  0  0  0  0  0  0  0  0  0  0
    0.2669   -0.6457   -1.0718 C   0  0  2  0  0  0  0  0  0  0  0  0
   -0.7398   -1.8179   -1.0443 C   0  0  0  0  0  0  0  0  0  0  0  0
   -1.4647   -1.9288   -0.0606 O   0  0  0  0  0  0  0  0  0  0  0  0
    1.2360   -0.7740   -2.2654 C   0  0  0  0  0  0  0  0  0  0  0  0
    2.0242   -1.9590   -2.1927 O   0  0  0  0  0  0  0  0  0  0  0  0
    0.1188   -0.2931    1.0126 H   0  0  0  0  0  0  0  0  0  0  0  0
   -0.3258    0.2469   -1.2900 H   0  0  0  0  0  0  0  0  0  0  0  0
    1.9007    0.0960   -2.2800 H   0  0  0  0  0  0  0  0  0  0  0  0
    0.6735   -0.7675   -3.2046 H   0  0  0  0  0  0  0  0  0  0  0  0
    2.5990   -1.8865   -1.3880 H   0  0  0  0  0  0  0  0  0  0  0  0
   -0.9501   -2.6238   -2.1522 N   0  0  0  0  0  0  0  0  0  0  0  0
   -1.8484   -3.7939   -2.2472 C   0  0  2  0  0  0  0  0  0  0  0  0
   -3.3605   -3.4698   -2.2385 C   0  0  0  0  0  0  0  0  0  0  0  0
   -4.0859   -3.9608   -3.0935 O   0  0  0  0  0  0  0  0  0  0  0  0
   -1.5090   -4.8388   -1.1751 C   0  0  0  0  0  0  0  0  0  0  0  0
   -0.2056   -2.5675   -2.8469 H   0  0  0  0  0  0  0  0  0  0  0  0
   -1.6514   -4.2598   -3.2184 H   0  0  0  0  0  0  0  0  0  0  0  0
   -1.7857   -4.4877   -0.1766 H   0  0  0  0  0  0  0  0  0  0  0  0
   -2.0541   -5.7675   -1.3723 H   0  0  0  0  0  0  0  0  0  0  0  0
   -0.4370   -5.0581   -1.1836 H   0  0  0  0  0  0  0  0  0  0  0  0
   -3.9181   -2.6558   -1.2729 N   0  0  0  0  0  0  0  0  0  0  0  0
   -5.3405   -2.3581   -1.1781 C   0  0  0  0  0  0  0  0  0  0  0  0
   -3.2771   -2.2973   -0.5606 H   0  0  0  0  0  0  0  0  0  0  0  0
   -5.5342   -1.7116   -0.3169 H   0  0  0  0  0  0  0  0  0  0  0  0
   -5.6847   -1.8445   -2.0817 H   0  0  0  0  0  0  0  0  0  0  0  0
   -5.9171   -3.2807   -1.0550 H   0  0  0  0  0  0  0  0  0  0  0  0
  1  2  2  0  0  0  0
  1  3  1  0  0  0  0
  1  7  1  0  0  0  0
  3  4  1  0  0  0  0
  3  5  1  0  0  0  0
  3  6  1  0  0  0  0
  7  8  1  0  0  0  0
  7 12  1  0  0  0  0
  8  9  1  0  0  0  0
  8 11  1  0  0  0  0
  8 13  1  0  0  0  0
  9 10  2  0  0  0  0
  9 17  1  0  0  0  0
 11 14  1  0  0  0  0
 11 15  1  0  0  0  0
 11 16  1  0  0  0  0
 17 18  1  0  0  0  0
 17 23  1  0  0  0  0
 18 19  1  0  0  0  0
 18 21  1  0  0  0  0
 18 24  1  0  0  0  0
 19 20  2  0  0  0  0
 19 28  1  0  0  0  0
 21 22  1  0  0  0  0
 21 25  1  0  0  0  0
 21 26  1  0  0  0  0
 22 27  1  0  0  0  0
 28 29  1  0  0  0  0
 28 33  1  0  0  0  0
 29 30  1  0  0  0  0
 29 32  1  0  0  0  0
 29 34  1  0  0  0  0
 30 31  2  0  0  0  0
 30 38  1  0  0  0  0
 32 35  1  0  0  0  0
 32 36  1  0  0  0  0
 32 37  1  0  0  0  0
 38 39  1  0  0  0  0
 38 40  1  0  0  0  0
 39 41  1  0  0  0  0
 39 42  1  0  0  0  0
 39 43  1  0  0  0  0
M  END
$$$$

  -OEChem-05262217303D

 43 42  0     1  0  0  0  0  0999 V2000
    3.7909   -1.8134    4.0146 C   0  0  0  0  0  0  0  0  0  0  0  0
    2.9632   -1.6338    4.8935 O   0  0  0  0  0  0  0  0  0  0  0  0
    5.0376   -2.6311    4.2942 C   0  0  0  0  0  0  0  0  0  0  0  0
    5.9258   -2.0033    4.1899 H   0  0  0  0  0  0  0  0  0  0  0  0
    5.0056   -3.0315    5.3113 H   0  0  0  0  0  0  0  0  0  0  0  0
    5.1041   -3.4643    3.5903 H   0  0  0  0  0  0  0  0  0  0  0  0
    3.5882   -1.2803    2.7591 N   0  0  0  0  0  0  0  0  0  0  0  0
    2.3560   -0.6002    2.3359 C   0  0  2  0  0  0  0  0  0  0  0  0
    2.0703   -0.8033    0.8315 C   0  0  0  0  0  0  0  0  0  0  0  0
    2.9509   -1.2641    0.1128 O   0  0  0  0  0  0  0  0  0  0  0  0
    2.4926    0.8907    2.6624 C   0  0  0  0  0  0  0  0  0  0  0  0
    4.2474   -1.5433    2.0277 H   0  0  0  0  0  0  0  0  0  0  0  0
    1.5031   -1.0125    2.8867 H   0  0  0  0  0  0  0  0  0  0  0  0
    3.3405    1.3255    2.1235 H   0  0  0  0  0  0  0  0  0  0  0  0
    1.5849    1.4326    2.3806 H   0  0  0  0  0  0  0  0  0  0  0  0
    2.6545    1.0295    3.7362 H   0  0  0  0  0  0  0  0  0  0  0  0
    0.8168   -0.4849    0.3309 N   0  0  0  0  0  0  0  0  0  0  0  0
    0.2422   -0.6840   -1.0265 C   0  0  2  0  0  0  0  0  0  0  0  0
   -0.7535   -1.8632   -0.9908 C   0  0  0  0  0  0  0  0  0  0  0  0
   -1.6024   -1.8693   -0.1060 O   0  0  0  0  0  0  0  0  0  0  0  0
    1.1960   -0.7901   -2.2360 C   0  0  0  0  0  0  0  0  0  0  0  0
    2.0076   -1.9623   -2.1861 O   0  0  0  0  0  0  0  0  0  0  0  0
    0.1312   -0.2637    1.0517 H   0  0  0  0  0  0  0  0  0  0  0  0
   -0.3640    0.2030   -1.2328 H   0  0  0  0  0  0  0  0  0  0  0  0
    1.8436    0.0926   -2.2591 H   0  0  0  0  0  0  0  0  0  0  0  0
    0.6150   -0.7919   -3.1645 H   0  0  0  0  0  0  0  0  0  0  0  0
    2.5793   -1.8971   -1.3774 H   0  0  0  0  0  0  0  0  0  0  0  0
   -0.7558   -2.8432   -1.9705 N   0  0  0  0  0  0  0  0  0  0  0  0
   -1.5930   -4.0597   -2.0241 C   0  0  2  0  0  0  0  0  0  0  0  0
   -3.0974   -3.8133   -2.2829 C   0  0  0  0  0  0  0  0  0  0  0  0
   -3.6656   -4.4347   -3.1713 O   0  0  0  0  0  0  0  0  0  0  0  0
   -1.3878   -4.9241   -0.7728 C   0  0  0  0  0  0  0  0  0  0  0  0
    0.0802   -2.8330   -2.5590 H   0  0  0  0  0  0  0  0  0  0  0  0
   -1.2378   -4.6471   -2.8774 H   0  0  0  0  0  0  0  0  0  0  0  0
   -1.7976   -4.4391    0.1178 H   0  0  0  0  0  0  0  0  0  0  0  0
   -1.8912   -5.8879   -0.8976 H   0  0  0  0  0  0  0  0  0  0  0  0
   -0.3219   -5.1091   -0.6107 H   0  0  0  0  0  0  0  0  0  0  0  0
   -3.8226   -2.9213   -1.5188 N   0  0  0  0  0  0  0  0  0  0  0  0
   -5.2456   -2.6662   -1.6912 C   0  0  0  0  0  0  0  0  0  0  0  0
   -3.3061   -2.4332   -0.7831 H   0  0  0  0  0  0  0  0  0  0  0  0
   -5.5948   -1.9541   -0.9376 H   0  0  0  0  0  0  0  0  0  0  0  0
   -5.4409   -2.2461   -2.6832 H   0  0  0  0  0  0  0  0  0  0  0  0
   -5.8167   -3.5941   -1.5813 H   0  0  0  0  0  0  0  0  0  0  0  0
  1  2  2  0  0  0  0
  1  3  1  0  0  0  0
  1  7  1  0  0  0  0
  3  4  1  0  0  0  0
  3  5  1  0  0  0  0
  3  6  1  0  0  0  0
  7  8  1  0  0  0  0
  7 12  1  0  0  0  0
  8  9  1  0  0  0  0
  8 11  1  0  0  0  0
  8 13  1  0  0  0  0
  9 10  2  0  0  0  0
  9 17  1  0  0  0  0
 11 14  1  0  0  0  0
 11 15  1  0  0  0  0
 11 16  1  0  0  0  0
 17 18  1  0  0  0  0
 17 23  1  0  0  0  0
 18 19  1  0  0  0  0
 18 21  1  0  0  0  0
 18 24  1  0  0  0  0
 19 20  2  0  0  0  0
 19 28  1  0  0  0  0
 21 22  1  0  0  0  0
 21 25  1  0  0  0  0
 21 26  1  0  0  0  0
 22 27  1  0  0  0  0
 28 29  1  0  0  0  0
 28 33  1  0  0  0  0
 29 30  1  0  0  0  0
 29 32  1  0  0  0  0
 29 34  1  0  0  0  0
 30 31  2  0  0  0  0
 30 38  1  0  0  0  0
 32 35  1  0  0  0  0
 32 36  1  0  0  0  0
 32 37  1  0  0  0  0
 38 39  1  0  0  0  0
 38 40  1  0  0  0  0
 39 41  1  0  0  0  0
 39 42  1  0  0  0  0
 39 43  1  0  0  0  0
M  END
$$$$

  -OEChem-05262217303D

 43 42  0     1  0  0  0  0  0999 V2000
    3.7995   -1.7625    4.0421 C   0  0  0  0  0  0  0  0  0  0  0  0
    2.9676   -1.5568    4.9112 O   0  0  0  0  0  0  0  0  0  0  0  0
    5.0439   -2.5721    4.3540 C   0  0  0  0  0  0  0  0  0  0  0  0
    5.9356   -1.9594    4.2002 H   0  0  0  0  0  0  0  0  0  0  0  0
    5.0229   -2.9097    5.3942 H   0  0  0  0  0  0  0  0  0  0  0  0
    5.0936   -3.4472    3.7015 H   0  0  0  0  0  0  0  0  0  0  0  0
    3.6037   -1.2632    2.7715 N   0  0  0  0  0  0  0  0  0  0  0  0
    2.3806   -0.5779    2.3315 C   0  0  2  0  0  0  0  0  0  0  0  0
    2.0821   -0.8196    0.8359 C   0  0  0  0  0  0  0  0  0  0  0  0
    2.9551   -1.2996    0.1207 O   0  0  0  0  0  0  0  0  0  0  0  0
    2.5417    0.9198    2.6115 C   0  0  0  0  0  0  0  0  0  0  0  0
    4.2668   -1.5421    2.0496 H   0  0  0  0  0  0  0  0  0  0  0  0
    1.5239   -0.9594    2.8983 H   0  0  0  0  0  0  0  0  0  0  0  0
    3.3875    1.3262    2.0474 H   0  0  0  0  0  0  0  0  0  0  0  0
    1.6372    1.4651    2.3257 H   0  0  0  0  0  0  0  0  0  0  0  0
    2.7207    1.0891    3.6782 H   0  0  0  0  0  0  0  0  0  0  0  0
    0.8242   -0.5085    0.3415 N   0  0  0  0  0  0  0  0  0  0  0  0
    0.2346   -0.7143   -1.0075 C   0  0  2  0  0  0  0  0  0  0  0  0
   -0.7592   -1.8925   -0.9660 C   0  0  0  0  0  0  0  0  0  0  0  0
   -1.7094   -1.8084   -0.1967 O   0  0  0  0  0  0  0  0  0  0  0  0
    1.1832   -0.8114   -2.2230 C   0  0  0  0  0  0  0  0  0  0  0  0
    2.0122   -1.9738   -2.1824 O   0  0  0  0  0  0  0  0  0  0  0  0
    0.1523   -0.2480    1.0619 H   0  0  0  0  0  0  0  0  0  0  0  0
   -0.3765    0.1707   -1.2076 H   0  0  0  0  0  0  0  0  0  0  0  0
    1.8184    0.0801   -2.2548 H   0  0  0  0  0  0  0  0  0  0  0  0
    0.5920   -0.8257   -3.1448 H   0  0  0  0  0  0  0  0  0  0  0  0
    2.5901   -1.9018   -1.3781 H   0  0  0  0  0  0  0  0  0  0  0  0
   -0.5883   -3.0209   -1.7502 N   0  0  0  0  0  0  0  0  0  0  0  0
   -1.3774   -4.2699   -1.7225 C   0  0  2  0  0  0  0  0  0  0  0  0
   -2.8412   -4.1416   -2.2064 C   0  0  0  0  0  0  0  0  0  0  0  0
   -3.2813   -4.9505   -3.0128 O   0  0  0  0  0  0  0  0  0  0  0  0
   -1.3205   -4.9208   -0.3339 C   0  0  0  0  0  0  0  0  0  0  0  0
    0.2963   -3.0359   -2.2655 H   0  0  0  0  0  0  0  0  0  0  0  0
   -0.8931   -4.9608   -2.4205 H   0  0  0  0  0  0  0  0  0  0  0  0
   -1.8677   -4.3285    0.4052 H   0  0  0  0  0  0  0  0  0  0  0  0
   -1.7686   -5.9188   -0.3705 H   0  0  0  0  0  0  0  0  0  0  0  0
   -0.2827   -5.0202   -0.0024 H   0  0  0  0  0  0  0  0  0  0  0  0
   -3.6759   -3.1528   -1.7244 N   0  0  0  0  0  0  0  0  0  0  0  0
   -5.0791   -3.0162   -2.0885 C   0  0  0  0  0  0  0  0  0  0  0  0
   -3.2750   -2.5293   -1.0195 H   0  0  0  0  0  0  0  0  0  0  0  0
   -5.5128   -2.1413   -1.5949 H   0  0  0  0  0  0  0  0  0  0  0  0
   -5.1830   -2.8891   -3.1710 H   0  0  0  0  0  0  0  0  0  0  0  0
   -5.6422   -3.9033   -1.7806 H   0  0  0  0  0  0  0  0  0  0  0  0
  1  2  2  0  0  0  0
  1  3  1  0  0  0  0
  1  7  1  0  0  0  0
  3  4  1  0  0  0  0
  3  5  1  0  0  0  0
  3  6  1  0  0  0  0
  7  8  1  0  0  0  0
  7 12  1  0  0  0  0
  8  9  1  0  0  0  0
  8 11  1  0  0  0  0
  8 13  1  0  0  0  0
  9 10  2  0  0  0  0
  9 17  1  0  0  0  0
 11 14  1  0  0  0  0
 11 15  1  0  0  0  0
 11 16  1  0  0  0  0
 17 18  1  0  0  0  0
 17 23  1  0  0  0  0
 18 19  1  0  0  0  0
 18 21  1  0  0  0  0
 18 24  1  0  0  0  0
 19 20  2  0  0  0  0
 19 28  1  0  0  0  0
 21 22  1  0  0  0  0
 21 25  1  0  0  0  0
 21 26  1  0  0  0  0
 22 27  1  0  0  0  0
 28 29  1  0  0  0  0
 28 33  1  0  0  0  0
 29 30  1  0  0  0  0
 29 32  1  0  0  0  0
 29 34  1  0  0  0  0
 30 31  2  0  0  0  0
 30 38  1  0  0  0  0
 32 35  1  0  0  0  0
 32 36  1  0  0  0  0
 32 37  1  0  0  0  0
 38 39  1  0  0  0  0
 38 40  1  0  0  0  0
 39 41  1  0  0  0  0
 39 42  1  0  0  0  0
 39 43  1  0  0  0  0
M  END
$$$$

  -OEChem-05262217303D

 43 42  0     1  0  0  0  0  0999 V2000
    3.8094   -1.6799    4.0512 C   0  0  0  0  0  0  0  0  0  0  0  0
    2.9864   -1.4180    4.9136 O   0  0  0  0  0  0  0  0  0  0  0  0
    5.0287   -2.5179    4.3868 C   0  0  0  0  0  0  0  0  0  0  0  0
    5.9387   -1.9436    4.1962 H   0  0  0  0  0  0  0  0  0  0  0  0
    5.0091   -2.8073    5.4414 H   0  0  0  0  0  0  0  0  0  0  0  0
    5.0421   -3.4225    3.7736 H   0  0  0  0  0  0  0  0  0  0  0  0
    3.6286   -1.2165    2.7651 N   0  0  0  0  0  0  0  0  0  0  0  0
    2.4289   -0.5065    2.3017 C   0  0  2  0  0  0  0  0  0  0  0  0
    2.1072   -0.8158    0.8236 C   0  0  0  0  0  0  0  0  0  0  0  0
    2.9631   -1.3482    0.1253 O   0  0  0  0  0  0  0  0  0  0  0  0
    2.6538    0.9954    2.5010 C   0  0  0  0  0  0  0  0  0  0  0  0
    4.2789   -1.5451    2.0527 H   0  0  0  0  0  0  0  0  0  0  0  0
    1.5638   -0.8220    2.8954 H   0  0  0  0  0  0  0  0  0  0  0  0
    3.5103    1.3365    1.9104 H   0  0  0  0  0  0  0  0  0  0  0  0
    1.7694    1.5615    2.1936 H   0  0  0  0  0  0  0  0  0  0  0  0
    2.8506    1.2120    3.5561 H   0  0  0  0  0  0  0  0  0  0  0  0
    0.8479   -0.5118    0.3281 N   0  0  0  0  0  0  0  0  0  0  0  0
    0.2429   -0.7721   -1.0048 C   0  0  2  0  0  0  0  0  0  0  0  0
   -0.7647   -1.9332   -0.9084 C   0  0  0  0  0  0  0  0  0  0  0  0
   -1.8168   -1.7286   -0.3155 O   0  0  0  0  0  0  0  0  0  0  0  0
    1.1808   -0.9321   -2.2225 C   0  0  0  0  0  0  0  0  0  0  0  0
    2.0042   -2.0973   -2.1425 O   0  0  0  0  0  0  0  0  0  0  0  0
    0.1956   -0.1760    1.0349 H   0  0  0  0  0  0  0  0  0  0  0  0
   -0.3569    0.1126   -1.2393 H   0  0  0  0  0  0  0  0  0  0  0  0
    1.8208   -0.0472   -2.3015 H   0  0  0  0  0  0  0  0  0  0  0  0
    0.5792   -0.9857   -3.1360 H   0  0  0  0  0  0  0  0  0  0  0  0
    2.5985   -1.9897   -1.3541 H   0  0  0  0  0  0  0  0  0  0  0  0
   -0.4674   -3.1944   -1.3943 N   0  0  0  0  0  0  0  0  0  0  0  0
   -1.2493   -4.4377   -1.2371 C   0  0  2  0  0  0  0  0  0  0  0  0
   -2.6107   -4.4596   -1.9704 C   0  0  0  0  0  0  0  0  0  0  0  0
   -2.9233   -5.4409   -2.6321 O   0  0  0  0  0  0  0  0  0  0  0  0
   -1.4278   -4.7867    0.2466 C   0  0  0  0  0  0  0  0  0  0  0  0
    0.4517   -3.2647   -1.8405 H   0  0  0  0  0  0  0  0  0  0  0  0
   -0.6550   -5.2405   -1.6859 H   0  0  0  0  0  0  0  0  0  0  0  0
   -2.0992   -4.0795    0.7424 H   0  0  0  0  0  0  0  0  0  0  0  0
   -1.8560   -5.7891    0.3460 H   0  0  0  0  0  0  0  0  0  0  0  0
   -0.4620   -4.7715    0.7602 H   0  0  0  0  0  0  0  0  0  0  0  0
   -3.4987   -3.4071   -1.8706 N   0  0  0  0  0  0  0  0  0  0  0  0
   -4.8184   -3.3926   -2.4851 C   0  0  0  0  0  0  0  0  0  0  0  0
   -3.2191   -2.6377   -1.2574 H   0  0  0  0  0  0  0  0  0  0  0  0
   -5.4380   -4.1985   -2.0785 H   0  0  0  0  0  0  0  0  0  0  0  0
   -5.3157   -2.4384   -2.2871 H   0  0  0  0  0  0  0  0  0  0  0  0
   -4.7376   -3.5213   -3.5695 H   0  0  0  0  0  0  0  0  0  0  0  0
  1  2  2  0  0  0  0
  1  3  1  0  0  0  0
  1  7  1  0  0  0  0
  3  4  1  0  0  0  0
  3  5  1  0  0  0  0
  3  6  1  0  0  0  0
  7  8  1  0  0  0  0
  7 12  1  0  0  0  0
  8  9  1  0  0  0  0
  8 11  1  0  0  0  0
  8 13  1  0  0  0  0
  9 10  2  0  0  0  0
  9 17  1  0  0  0  0
 11 14  1  0  0  0  0
 11 15  1  0  0  0  0
 11 16  1  0  0  0  0
 17 18  1  0  0  0  0
 17 23  1  0  0  0  0
 18 19  1  0  0  0  0
 18 21  1  0  0  0  0
 18 24  1  0  0  0  0
 19 20  2  0  0  0  0
 19 28  1  0  0  0  0
 21 22  1  0  0  0  0
 21 25  1  0  0  0  0
 21 26  1  0  0  0  0
 22 27  1  0  0  0  0
 28 29  1  0  0  0  0
 28 33  1  0  0  0  0
 29 30  1  0  0  0  0
 29 32  1  0  0  0  0
 29 34  1  0  0  0  0
 30 31  2  0  0  0  0
 30 38  1  0  0  0  0
 32 35  1  0  0  0  0
 32 36  1  0  0  0  0
 32 37  1  0  0  0  0
 38 39  1  0  0  0  0
 38 40  1  0  0  0  0
 39 41  1  0  0  0  0
 39 42  1  0  0  0  0
 39 43  1  0  0  0  0
M  END
$$$$

  -OEChem-05262217303D

 43 42  0     1  0  0  0  0  0999 V2000
    3.9073   -1.5698    4.0686 C   0  0  0  0  0  0  0  0  0  0  0  0
    3.1211   -1.2514    4.9462 O   0  0  0  0  0  0  0  0  0  0  0  0
    5.1167   -2.4234    4.4009 C   0  0  0  0  0  0  0  0  0  0  0  0
    6.0345   -1.8854    4.1506 H   0  0  0  0  0  0  0  0  0  0  0  0
    5.1281   -2.6614    5.4684 H   0  0  0  0  0  0  0  0  0  0  0  0
    5.0826   -3.3567    3.8334 H   0  0  0  0  0  0  0  0  0  0  0  0
    3.6860   -1.1642    2.7691 N   0  0  0  0  0  0  0  0  0  0  0  0
    2.4799   -0.4569    2.3178 C   0  0  2  0  0  0  0  0  0  0  0  0
    2.0948   -0.8288    0.8697 C   0  0  0  0  0  0  0  0  0  0  0  0
    2.9201   -1.3885    0.1561 O   0  0  0  0  0  0  0  0  0  0  0  0
    2.7316    1.0498    2.4359 C   0  0  0  0  0  0  0  0  0  0  0  0
    4.3037   -1.5372    2.0495 H   0  0  0  0  0  0  0  0  0  0  0  0
    1.6342   -0.7300    2.9586 H   0  0  0  0  0  0  0  0  0  0  0  0
    3.5676    1.3506    1.7961 H   0  0  0  0  0  0  0  0  0  0  0  0
    1.8429    1.6139    2.1370 H   0  0  0  0  0  0  0  0  0  0  0  0
    2.9732    1.3133    3.4707 H   0  0  0  0  0  0  0  0  0  0  0  0
    0.8124   -0.5483    0.4217 N   0  0  0  0  0  0  0  0  0  0  0  0
    0.1639   -0.7970   -0.8931 C   0  0  2  0  0  0  0  0  0  0  0  0
   -0.8143   -1.9818   -0.7981 C   0  0  0  0  0  0  0  0  0  0  0  0
   -1.9399   -1.7672   -0.3663 O   0  0  0  0  0  0  0  0  0  0  0  0
    1.0657   -0.9182   -2.1404 C   0  0  0  0  0  0  0  0  0  0  0  0
    1.9130   -2.0690   -2.1068 O   0  0  0  0  0  0  0  0  0  0  0  0
    0.1972   -0.1696    1.1394 H   0  0  0  0  0  0  0  0  0  0  0  0
   -0.4594    0.0804   -1.0919 H   0  0  0  0  0  0  0  0  0  0  0  0
    1.6856   -0.0197   -2.2233 H   0  0  0  0  0  0  0  0  0  0  0  0
    0.4359   -0.9686   -3.0350 H   0  0  0  0  0  0  0  0  0  0  0  0
    2.5280   -1.9668   -1.3334 H   0  0  0  0  0  0  0  0  0  0  0  0
   -0.3926   -3.2758   -1.0463 N   0  0  0  0  0  0  0  0  0  0  0  0
   -1.1447   -4.5320   -0.8557 C   0  0  2  0  0  0  0  0  0  0  0  0
   -2.3785   -4.7065   -1.7717 C   0  0  0  0  0  0  0  0  0  0  0  0
   -2.5227   -5.7498   -2.3954 O   0  0  0  0  0  0  0  0  0  0  0  0
   -1.5282   -4.7186    0.6186 C   0  0  0  0  0  0  0  0  0  0  0  0
    0.5426   -3.3385   -1.4574 H   0  0  0  0  0  0  0  0  0  0  0  0
   -0.4622   -5.3482   -1.1139 H   0  0  0  0  0  0  0  0  0  0  0  0
   -2.2838   -3.9903    0.9277 H   0  0  0  0  0  0  0  0  0  0  0  0
   -1.9377   -5.7218    0.7745 H   0  0  0  0  0  0  0  0  0  0  0  0
   -0.6479   -4.6013    1.2579 H   0  0  0  0  0  0  0  0  0  0  0  0
   -3.3365   -3.7185   -1.8857 N   0  0  0  0  0  0  0  0  0  0  0  0
   -4.5290   -3.8281   -2.7146 C   0  0  0  0  0  0  0  0  0  0  0  0
   -3.1816   -2.8727   -1.3314 H   0  0  0  0  0  0  0  0  0  0  0  0
   -5.1357   -2.9220   -2.6252 H   0  0  0  0  0  0  0  0  0  0  0  0
   -4.2526   -3.9581   -3.7660 H   0  0  0  0  0  0  0  0  0  0  0  0
   -5.1366   -4.6832   -2.4006 H   0  0  0  0  0  0  0  0  0  0  0  0
  1  2  2  0  0  0  0
  1  3  1  0  0  0  0
  1  7  1  0  0  0  0
  3  4  1  0  0  0  0
  3  5  1  0  0  0  0
  3  6  1  0  0  0  0
  7  8  1  0  0  0  0
  7 12  1  0  0  0  0
  8  9  1  0  0  0  0
  8 11  1  0  0  0  0
  8 13  1  0  0  0  0
  9 10  2  0  0  0  0
  9 17  1  0  0  0  0
 11 14  1  0  0  0  0
 11 15  1  0  0  0  0
 11 16  1  0  0  0  0
 17 18  1  0  0  0  0
 17 23  1  0  0  0  0
 18 19  1  0  0  0  0
 18 21  1  0  0  0  0
 18 24  1  0  0  0  0
 19 20  2  0  0  0  0
 19 28  1  0  0  0  0
 21 22  1  0  0  0  0
 21 25  1  0  0  0  0
 21 26  1  0  0  0  0
 22 27  1  0  0  0  0
 28 29  1  0  0  0  0
 28 33  1  0  0  0  0
 29 30  1  0  0  0  0
 29 32  1  0  0  0  0
 29 34  1  0  0  0  0
 30 31  2  0  0  0  0
 30 38  1  0  0  0  0
 32 35  1  0  0  0  0
 32 36  1  0  0  0  0
 32 37  1  0  0  0  0
 38 39  1  0  0  0  0
 38 40  1  0  0  0  0
 39 41  1  0  0  0  0
 39 42  1  0  0  0  0
 39 43  1  0  0  0  0
M  END
$$$$

  -OEChem-05262217303D

 43 42  0     1  0  0  0  0  0999 V2000
    3.7528   -1.6698    3.9871 C   0  0  0  0  0  0  0  0  0  0  0  0
    2.8748   -1.4741    4.8117 O   0  0  0  0  0  0  0  0  0  0  0  0
    4.8969   -2.6146    4.3043 C   0  0  0  0  0  0  0  0  0  0  0  0
    5.8384   -2.0612    4.3404 H   0  0  0  0  0  0  0  0  0  0  0  0
    4.7324   -3.0938    5.2738 H   0  0  0  0  0  0  0  0  0  0  0  0
    4.9670   -3.3897    3.5371 H   0  0  0  0  0  0  0  0  0  0  0  0
    3.6999   -1.0424    2.7595 N   0  0  0  0  0  0  0  0  0  0  0  0
    2.5473   -0.2673    2.2767 C   0  0  2  0  0  0  0  0  0  0  0  0
    2.1055   -0.7057    0.8643 C   0  0  0  0  0  0  0  0  0  0  0  0
    2.9146   -1.2694    0.1358 O   0  0  0  0  0  0  0  0  0  0  0  0
    2.9405    1.2122    2.2811 C   0  0  0  0  0  0  0  0  0  0  0  0
    4.3721   -1.3518    2.0595 H   0  0  0  0  0  0  0  0  0  0  0  0
    1.6893   -0.4079    2.9432 H   0  0  0  0  0  0  0  0  0  0  0  0
    3.7926    1.3855    1.6158 H   0  0  0  0  0  0  0  0  0  0  0  0
    2.1046    1.8337    1.9460 H   0  0  0  0  0  0  0  0  0  0  0  0
    3.2187    1.5254    3.2925 H   0  0  0  0  0  0  0  0  0  0  0  0
    0.7991   -0.4689    0.4614 N   0  0  0  0  0  0  0  0  0  0  0  0
    0.1051   -0.7670   -0.8203 C   0  0  2  0  0  0  0  0  0  0  0  0
   -0.8386   -1.9719   -0.6647 C   0  0  0  0  0  0  0  0  0  0  0  0
   -2.0240   -1.7584   -0.4444 O   0  0  0  0  0  0  0  0  0  0  0  0
    0.9618   -0.9213   -2.0942 C   0  0  0  0  0  0  0  0  0  0  0  0
    1.8191   -2.0642   -2.0462 O   0  0  0  0  0  0  0  0  0  0  0  0
    0.2073   -0.0743    1.1901 H   0  0  0  0  0  0  0  0  0  0  0  0
   -0.5404    0.0935   -1.0225 H   0  0  0  0  0  0  0  0  0  0  0  0
    1.5687   -0.0207   -2.2338 H   0  0  0  0  0  0  0  0  0  0  0  0
    0.3007   -1.0112   -2.9628 H   0  0  0  0  0  0  0  0  0  0  0  0
    2.4761   -1.9158   -1.3169 H   0  0  0  0  0  0  0  0  0  0  0  0
   -0.3292   -3.2568   -0.5983 N   0  0  0  0  0  0  0  0  0  0  0  0
   -1.0586   -4.5101   -0.3168 C   0  0  2  0  0  0  0  0  0  0  0  0
   -2.1124   -4.9119   -1.3750 C   0  0  0  0  0  0  0  0  0  0  0  0
   -2.1343   -6.0605   -1.7974 O   0  0  0  0  0  0  0  0  0  0  0  0
   -1.6834   -4.4746    1.0845 C   0  0  0  0  0  0  0  0  0  0  0  0
    0.6367   -3.3347   -0.9231 H   0  0  0  0  0  0  0  0  0  0  0  0
   -0.3143   -5.3133   -0.3144 H   0  0  0  0  0  0  0  0  0  0  0  0
   -2.5017   -3.7504    1.1366 H   0  0  0  0  0  0  0  0  0  0  0  0
   -2.0848   -5.4604    1.3402 H   0  0  0  0  0  0  0  0  0  0  0  0
   -0.9295   -4.2040    1.8298 H   0  0  0  0  0  0  0  0  0  0  0  0
   -3.0550   -4.0109   -1.8291 N   0  0  0  0  0  0  0  0  0  0  0  0
   -4.1100   -4.3391   -2.7770 C   0  0  0  0  0  0  0  0  0  0  0  0
   -3.0251   -3.0778   -1.4108 H   0  0  0  0  0  0  0  0  0  0  0  0
   -4.7007   -3.4468   -3.0048 H   0  0  0  0  0  0  0  0  0  0  0  0
   -3.6818   -4.7181   -3.7107 H   0  0  0  0  0  0  0  0  0  0  0  0
   -4.7765   -5.1004   -2.3589 H   0  0  0  0  0  0  0  0  0  0  0  0
  1  2  2  0  0  0  0
  1  3  1  0  0  0  0
  1  7  1  0  0  0  0
  3  4  1  0  0  0  0
  3  5  1  0  0  0  0
  3  6  1  0  0  0  0
  7  8  1  0  0  0  0
  7 12  1  0  0  0  0
  8  9  1  0  0  0  0
  8 11  1  0  0  0  0
  8 13  1  0  0  0  0
  9 10  2  0  0  0  0
  9 17  1  0  0  0  0
 11 14  1  0  0  0  0
 11 15  1  0  0  0  0
 11 16  1  0  0  0  0
 17 18  1  0  0  0  0
 17 23  1  0  0  0  0
 18 19  1  0  0  0  0
 18 21  1  0  0  0  0
 18 24  1  0  0  0  0
 19 20  2  0  0  0  0
 19 28  1  0  0  0  0
 21 22  1  0  0  0  0
 21 25  1  0  0  0  0
 21 26  1  0  0  0  0
 22 27  1  0  0  0  0
 28 29  1  0  0  0  0
 28 33  1  0  0  0  0
 29 30  1  0  0  0  0
 29 32  1  0  0  0  0
 29 34  1  0  0  0  0
 30 31  2  0  0  0  0
 30 38  1  0  0  0  0
 32 35  1  0  0  0  0
 32 36  1  0  0  0  0
 32 37  1  0  0  0  0
 38 39  1  0  0  0  0
 38 40  1  0  0  0  0
 39 41  1  0  0  0  0
 39 42  1  0  0  0  0
 39 43  1  0  0  0  0
M  END
$$$$

  -OEChem-05262217303D

 43 42  0     1  0  0  0  0  0999 V2000
    3.9357   -1.6207    3.9813 C   0  0  0  0  0  0  0  0  0  0  0  0
    3.1032   -1.3420    4.8298 O   0  0  0  0  0  0  0  0  0  0  0  0
    4.9950   -2.6671    4.2705 C   0  0  0  0  0  0  0  0  0  0  0  0
    5.9906   -2.2309    4.1579 H   0  0  0  0  0  0  0  0  0  0  0  0
    4.8871   -3.0415    5.2924 H   0  0  0  0  0  0  0  0  0  0  0  0
    4.8914   -3.5044    3.5759 H   0  0  0  0  0  0  0  0  0  0  0  0
    3.9096   -1.0014    2.7498 N   0  0  0  0  0  0  0  0  0  0  0  0
    2.7955   -0.1723    2.2683 C   0  0  2  0  0  0  0  0  0  0  0  0
    2.2591   -0.6765    0.9104 C   0  0  0  0  0  0  0  0  0  0  0  0
    2.9629   -1.4194    0.2472 O   0  0  0  0  0  0  0  0  0  0  0  0
    3.3021    1.2671    2.1517 C   0  0  0  0  0  0  0  0  0  0  0  0
    4.4973   -1.4178    2.0281 H   0  0  0  0  0  0  0  0  0  0  0  0
    1.9624   -0.1983    2.9786 H   0  0  0  0  0  0  0  0  0  0  0  0
    4.1266    1.3258    1.4337 H   0  0  0  0  0  0  0  0  0  0  0  0
    2.5004    1.9323    1.8171 H   0  0  0  0  0  0  0  0  0  0  0  0
    3.6599    1.6200    3.1242 H   0  0  0  0  0  0  0  0  0  0  0  0
    1.0050   -0.2617    0.4899 N   0  0  0  0  0  0  0  0  0  0  0  0
    0.1968   -0.6537   -0.6961 C   0  0  2  0  0  0  0  0  0  0  0  0
   -0.9308   -1.5803   -0.2257 C   0  0  0  0  0  0  0  0  0  0  0  0
   -2.0910   -1.3151   -0.5083 O   0  0  0  0  0  0  0  0  0  0  0  0
    0.8495   -1.3483   -1.9190 C   0  0  0  0  0  0  0  0  0  0  0  0
    1.3664   -2.6663   -1.6837 O   0  0  0  0  0  0  0  0  0  0  0  0
    0.5302    0.3409    1.1571 H   0  0  0  0  0  0  0  0  0  0  0  0
   -0.2625    0.2610   -1.0824 H   0  0  0  0  0  0  0  0  0  0  0  0
    1.6747   -0.7169   -2.2639 H   0  0  0  0  0  0  0  0  0  0  0  0
    0.1190   -1.4027   -2.7332 H   0  0  0  0  0  0  0  0  0  0  0  0
    0.6725   -3.3496   -1.8578 H   0  0  0  0  0  0  0  0  0  0  0  0
   -0.5951   -2.7682    0.4025 N   0  0  0  0  0  0  0  0  0  0  0  0
   -1.4431   -3.9707    0.3578 C   0  0  2  0  0  0  0  0  0  0  0  0
   -1.6979   -4.4179   -1.1033 C   0  0  0  0  0  0  0  0  0  0  0  0
   -0.7639   -4.3874   -1.9015 O   0  0  0  0  0  0  0  0  0  0  0  0
   -2.7241   -3.7893    1.1910 C   0  0  0  0  0  0  0  0  0  0  0  0
    0.4143   -2.9318    0.3787 H   0  0  0  0  0  0  0  0  0  0  0  0
   -0.8799   -4.7836    0.8266 H   0  0  0  0  0  0  0  0  0  0  0  0
   -3.4134   -3.0831    0.7195 H   0  0  0  0  0  0  0  0  0  0  0  0
   -3.2400   -4.7472    1.3069 H   0  0  0  0  0  0  0  0  0  0  0  0
   -2.4730   -3.4131    2.1875 H   0  0  0  0  0  0  0  0  0  0  0  0
   -2.9380   -4.8557   -1.5314 N   0  0  0  0  0  0  0  0  0  0  0  0
   -3.2308   -5.1717   -2.9242 C   0  0  0  0  0  0  0  0  0  0  0  0
   -3.7146   -4.7219   -0.8905 H   0  0  0  0  0  0  0  0  0  0  0  0
   -4.2722   -5.4909   -3.0285 H   0  0  0  0  0  0  0  0  0  0  0  0
   -3.0727   -4.2928   -3.5582 H   0  0  0  0  0  0  0  0  0  0  0  0
   -2.5853   -5.9831   -3.2768 H   0  0  0  0  0  0  0  0  0  0  0  0
  1  2  2  0  0  0  0
  1  3  1  0  0  0  0
  1  7  1  0  0  0  0
  3  4  1  0  0  0  0
  3  5  1  0  0  0  0
  3  6  1  0  0  0  0
  7  8  1  0  0  0  0
  7 12  1  0  0  0  0
  8  9  1  0  0  0  0
  8 11  1  0  0  0  0
  8 13  1  0  0  0  0
  9 10  2  0  0  0  0
  9 17  1  0  0  0  0
 11 14  1  0  0  0  0
 11 15  1  0  0  0  0
 11 16  1  0  0  0  0
 17 18  1  0  0  0  0
 17 23  1  0  0  0  0
 18 19  1  0  0  0  0
 18 21  1  0  0  0  0
 18 24  1  0  0  0  0
 19 20  2  0  0  0  0
 19 28  1  0  0  0  0
 21 22  1  0  0  0  0
 21 25  1  0  0  0  0
 21 26  1  0  0  0  0
 22 27  1  0  0  0  0
 28 29  1  0  0  0  0
 28 33  1  0  0  0  0
 29 30  1  0  0  0  0
 29 32  1  0  0  0  0
 29 34  1  0  0  0  0
 30 31  2  0  0  0  0
 30 38  1  0  0  0  0
 32 35  1  0  0  0  0
 32 36  1  0  0  0  0
 32 37  1  0  0  0  0
 38 39  1  0  0  0  0
 38 40  1  0  0  0  0
 39 41  1  0  0  0  0
 39 42  1  0  0  0  0
 39 43  1  0  0  0  0
M  END
$$$$

  -OEChem-05262217303D

 43 42  0     1  0  0  0  0  0999 V2000
    3.8340   -1.6742    3.9838 C   0  0  0  0  0  0  0  0  0  0  0  0
    2.9770   -1.3981    4.8087 O   0  0  0  0  0  0  0  0  0  0  0  0
    4.8856   -2.7206    4.3007 C   0  0  0  0  0  0  0  0  0  0  0  0
    5.8847   -2.3011    4.1586 H   0  0  0  0  0  0  0  0  0  0  0  0
    4.7879   -3.0527    5.3383 H   0  0  0  0  0  0  0  0  0  0  0  0
    4.7634   -3.5831    3.6409 H   0  0  0  0  0  0  0  0  0  0  0  0
    3.8392   -1.0506    2.7543 N   0  0  0  0  0  0  0  0  0  0  0  0
    2.7532   -0.1953    2.2561 C   0  0  2  0  0  0  0  0  0  0  0  0
    2.3044   -0.6168    0.8405 C   0  0  0  0  0  0  0  0  0  0  0  0
    3.0737   -1.2755    0.1608 O   0  0  0  0  0  0  0  0  0  0  0  0
    3.2541    1.2509    2.2572 C   0  0  0  0  0  0  0  0  0  0  0  0
    4.4564   -1.4485    2.0463 H   0  0  0  0  0  0  0  0  0  0  0  0
    1.8788   -0.2692    2.9111 H   0  0  0  0  0  0  0  0  0  0  0  0
    4.1174    1.3573    1.5921 H   0  0  0  0  0  0  0  0  0  0  0  0
    2.4671    1.9313    1.9181 H   0  0  0  0  0  0  0  0  0  0  0  0
    3.5535    1.5457    3.2682 H   0  0  0  0  0  0  0  0  0  0  0  0
    1.0659   -0.1934    0.3816 N   0  0  0  0  0  0  0  0  0  0  0  0
    0.2726   -0.6004   -0.8120 C   0  0  2  0  0  0  0  0  0  0  0  0
   -0.8933   -1.4967   -0.3771 C   0  0  0  0  0  0  0  0  0  0  0  0
   -2.0025   -1.3262   -0.8641 O   0  0  0  0  0  0  0  0  0  0  0  0
    0.9630   -1.3866   -1.9538 C   0  0  0  0  0  0  0  0  0  0  0  0
    1.4010   -2.7067   -1.5900 O   0  0  0  0  0  0  0  0  0  0  0  0
    0.5594    0.3717    1.0584 H   0  0  0  0  0  0  0  0  0  0  0  0
   -0.1412    0.3086   -1.2581 H   0  0  0  0  0  0  0  0  0  0  0  0
    1.8327   -0.8128   -2.2892 H   0  0  0  0  0  0  0  0  0  0  0  0
    0.2791   -1.4666   -2.8054 H   0  0  0  0  0  0  0  0  0  0  0  0
    0.6678   -3.3680   -1.6581 H   0  0  0  0  0  0  0  0  0  0  0  0
   -0.6593   -2.5141    0.5340 N   0  0  0  0  0  0  0  0  0  0  0  0
   -1.5189   -3.7068    0.6248 C   0  0  2  0  0  0  0  0  0  0  0  0
   -1.6571   -4.4188   -0.7459 C   0  0  0  0  0  0  0  0  0  0  0  0
   -0.6786   -4.4787   -1.4869 O   0  0  0  0  0  0  0  0  0  0  0  0
   -2.8655   -3.3638    1.2838 C   0  0  0  0  0  0  0  0  0  0  0  0
    0.3392   -2.6734    0.6728 H   0  0  0  0  0  0  0  0  0  0  0  0
   -1.0181   -4.4209    1.2856 H   0  0  0  0  0  0  0  0  0  0  0  0
   -3.4916   -2.7604    0.6202 H   0  0  0  0  0  0  0  0  0  0  0  0
   -3.4099   -4.2792    1.5346 H   0  0  0  0  0  0  0  0  0  0  0  0
   -2.6993   -2.8005    2.2072 H   0  0  0  0  0  0  0  0  0  0  0  0
   -2.8425   -5.0070   -1.1483 N   0  0  0  0  0  0  0  0  0  0  0  0
   -3.0290   -5.5859   -2.4732 C   0  0  0  0  0  0  0  0  0  0  0  0
   -3.6648   -4.8072   -0.5866 H   0  0  0  0  0  0  0  0  0  0  0  0
   -4.0275   -6.0259   -2.5563 H   0  0  0  0  0  0  0  0  0  0  0  0
   -2.9227   -4.8164   -3.2453 H   0  0  0  0  0  0  0  0  0  0  0  0
   -2.2906   -6.3741   -2.6554 H   0  0  0  0  0  0  0  0  0  0  0  0
  1  2  2  0  0  0  0
  1  3  1  0  0  0  0
  1  7  1  0  0  0  0
  3  4  1  0  0  0  0
  3  5  1  0  0  0  0
  3  6  1  0  0  0  0
  7  8  1  0  0  0  0
  7 12  1  0  0  0  0
  8  9  1  0  0  0  0
  8 11  1  0  0  0  0
  8 13  1  0  0  0  0
  9 10  2  0  0  0  0
  9 17  1  0  0  0  0
 11 14  1  0  0  0  0
 11 15  1  0  0  0  0
 11 16  1  0  0  0  0
 17 18  1  0  0  0  0
 17 23  1  0  0  0  0
 18 19  1  0  0  0  0
 18 21  1  0  0  0  0
 18 24  1  0  0  0  0
 19 20  2  0  0  0  0
 19 28  1  0  0  0  0
 21 22  1  0  0  0  0
 21 25  1  0  0  0  0
 21 26  1  0  0  0  0
 22 27  1  0  0  0  0
 28 29  1  0  0  0  0
 28 33  1  0  0  0  0
 29 30  1  0  0  0  0
 29 32  1  0  0  0  0
 29 34  1  0  0  0  0
 30 31  2  0  0  0  0
 30 38  1  0  0  0  0
 32 35  1  0  0  0  0
 32 36  1  0  0  0  0
 32 37  1  0  0  0  0
 38 39  1  0  0  0  0
 38 40  1  0  0  0  0
 39 41  1  0  0  0  0
 39 42  1  0  0  0  0
 39 43  1  0  0  0  0
M  END
$$$$

  -OEChem-05262217303D

 43 42  0     1  0  0  0  0  0999 V2000
    2.5689   -2.2484    2.8154 C   0  0  0  0  0  0  0  0  0  0  0  0
    1.3488   -2.1860    2.8801 O   0  0  0  0  0  0  0  0  0  0  0  0
    3.2709   -3.5904    2.8814 C   0  0  0  0  0  0  0  0  0  0  0  0
    4.0665   -3.5620    3.6298 H   0  0  0  0  0  0  0  0  0  0  0  0
    2.5599   -4.3759    3.1527 H   0  0  0  0  0  0  0  0  0  0  0  0
    3.7041   -3.8294    1.9063 H   0  0  0  0  0  0  0  0  0  0  0  0
    3.2943   -1.0934    2.6107 N   0  0  0  0  0  0  0  0  0  0  0  0
    2.6417    0.1412    2.1574 C   0  0  2  0  0  0  0  0  0  0  0  0
    2.3479    0.0504    0.6461 C   0  0  0  0  0  0  0  0  0  0  0  0
    3.2871   -0.1304   -0.1157 O   0  0  0  0  0  0  0  0  0  0  0  0
    3.5614    1.3217    2.4831 C   0  0  0  0  0  0  0  0  0  0  0  0
    4.2524   -1.2389    2.2992 H   0  0  0  0  0  0  0  0  0  0  0  0
    1.6988    0.2912    2.6932 H   0  0  0  0  0  0  0  0  0  0  0  0
    4.5240    1.2139    1.9722 H   0  0  0  0  0  0  0  0  0  0  0  0
    3.1025    2.2617    2.1617 H   0  0  0  0  0  0  0  0  0  0  0  0
    3.7428    1.3752    3.5611 H   0  0  0  0  0  0  0  0  0  0  0  0
    1.0774    0.3192    0.1585 N   0  0  0  0  0  0  0  0  0  0  0  0
    0.3674   -0.4273   -0.9188 C   0  0  2  0  0  0  0  0  0  0  0  0
   -0.7504   -1.3392   -0.3866 C   0  0  0  0  0  0  0  0  0  0  0  0
   -1.7126   -1.5624   -1.1101 O   0  0  0  0  0  0  0  0  0  0  0  0
    1.2337   -1.3816   -1.7782 C   0  0  0  0  0  0  0  0  0  0  0  0
    1.7559   -2.4954   -1.0247 O   0  0  0  0  0  0  0  0  0  0  0  0
    0.4545    0.6601    0.8853 H   0  0  0  0  0  0  0  0  0  0  0  0
   -0.0843    0.3075   -1.5917 H   0  0  0  0  0  0  0  0  0  0  0  0
    2.0612   -0.8196   -2.2212 H   0  0  0  0  0  0  0  0  0  0  0  0
    0.6353   -1.7695   -2.6095 H   0  0  0  0  0  0  0  0  0  0  0  0
    1.0739   -3.1951   -0.8664 H   0  0  0  0  0  0  0  0  0  0  0  0
   -0.6859   -1.9201    0.8703 N   0  0  0  0  0  0  0  0  0  0  0  0
   -1.4344   -3.1407    1.2151 C   0  0  2  0  0  0  0  0  0  0  0  0
   -1.1869   -4.2816    0.1932 C   0  0  0  0  0  0  0  0  0  0  0  0
   -0.0734   -4.4114   -0.3117 O   0  0  0  0  0  0  0  0  0  0  0  0
   -2.9214   -2.8203    1.4398 C   0  0  0  0  0  0  0  0  0  0  0  0
    0.2149   -1.8195    1.3463 H   0  0  0  0  0  0  0  0  0  0  0  0
   -1.0408   -3.5033    2.1698 H   0  0  0  0  0  0  0  0  0  0  0  0
   -3.4192   -2.5624    0.5005 H   0  0  0  0  0  0  0  0  0  0  0  0
   -3.4352   -3.6808    1.8785 H   0  0  0  0  0  0  0  0  0  0  0  0
   -3.0222   -1.9751    2.1275 H   0  0  0  0  0  0  0  0  0  0  0  0
   -2.1883   -5.1681   -0.1608 N   0  0  0  0  0  0  0  0  0  0  0  0
   -2.0275   -6.1623   -1.2145 C   0  0  0  0  0  0  0  0  0  0  0  0
   -3.1276   -4.9392    0.1499 H   0  0  0  0  0  0  0  0  0  0  0  0
   -2.9528   -6.7329   -1.3402 H   0  0  0  0  0  0  0  0  0  0  0  0
   -1.7879   -5.6764   -2.1665 H   0  0  0  0  0  0  0  0  0  0  0  0
   -1.2232   -6.8614   -0.9624 H   0  0  0  0  0  0  0  0  0  0  0  0
  1  2  2  0  0  0  0
  1  3  1  0  0  0  0
  1  7  1  0  0  0  0
  3  4  1  0  0  0  0
  3  5  1  0  0  0  0
  3  6  1  0  0  0  0
  7  8  1  0  0  0  0
  7 12  1  0  0  0  0
  8  9  1  0  0  0  0
  8 11  1  0  0  0  0
  8 13  1  0  0  0  0
  9 10  2  0  0  0  0
  9 17  1  0  0  0  0
 11 14  1  0  0  0  0
 11 15  1  0  0  0  0
 11 16  1  0  0  0  0
 17 18  1  0  0  0  0
 17 23  1  0  0  0  0
 18 19  1  0  0  0  0
 18 21  1  0  0  0  0
 18 24  1  0  0  0  0
 19 20  2  0  0  0  0
 19 28  1  0  0  0  0
 21 22  1  0  0  0  0
 21 25  1  0  0  0  0
 21 26  1  0  0  0  0
 22 27  1  0  0  0  0
 28 29  1  0  0  0  0
 28 33  1  0  0  0  0
 29 30  1  0  0  0  0
 29 32  1  0  0  0  0
 29 34  1  0  0  0  0
 30 31  2  0  0  0  0
 30 38  1  0  0  0  0
 32 35  1  0  0  0  0
 32 36  1  0  0  0  0
 32 37  1  0  0  0  0
 38 39  1  0  0  0  0
 38 40  1  0  0  0  0
 39 41  1  0  0  0  0
 39 42  1  0  0  0  0
 39 43  1  0  0  0  0
M  END
$$$$

  -OEChem-05262217303D

 43 42  0     1  0  0  0  0  0999 V2000
    2.1933   -2.1823    2.7840 C   0  0  0  0  0  0  0  0  0  0  0  0
    1.0501   -1.8437    3.0575 O   0  0  0  0  0  0  0  0  0  0  0  0
    2.5658   -3.6507    2.7333 C   0  0  0  0  0  0  0  0  0  0  0  0
    3.4929   -3.8233    3.2853 H   0  0  0  0  0  0  0  0  0  0  0  0
    1.7726   -4.2575    3.1784 H   0  0  0  0  0  0  0  0  0  0  0  0
    2.7041   -3.9609    1.6936 H   0  0  0  0  0  0  0  0  0  0  0  0
    3.1131   -1.2173    2.4356 N   0  0  0  0  0  0  0  0  0  0  0  0
    2.7066    0.1475    2.0783 C   0  0  2  0  0  0  0  0  0  0  0  0
    2.3551    0.1899    0.5777 C   0  0  0  0  0  0  0  0  0  0  0  0
    3.2657    0.1079   -0.2342 O   0  0  0  0  0  0  0  0  0  0  0  0
    3.8551    1.0982    2.4331 C   0  0  0  0  0  0  0  0  0  0  0  0
    3.9579   -1.5681    1.9876 H   0  0  0  0  0  0  0  0  0  0  0  0
    1.8304    0.4608    2.6548 H   0  0  0  0  0  0  0  0  0  0  0  0
    4.7688    0.8210    1.8970 H   0  0  0  0  0  0  0  0  0  0  0  0
    3.5943    2.1262    2.1627 H   0  0  0  0  0  0  0  0  0  0  0  0
    4.0586    1.0621    3.5078 H   0  0  0  0  0  0  0  0  0  0  0  0
    1.0591    0.4502    0.1517 N   0  0  0  0  0  0  0  0  0  0  0  0
    0.3176   -0.2984   -0.9070 C   0  0  2  0  0  0  0  0  0  0  0  0
   -0.7749   -1.2487   -0.3805 C   0  0  0  0  0  0  0  0  0  0  0  0
   -1.6192   -1.6565   -1.1684 O   0  0  0  0  0  0  0  0  0  0  0  0
    1.1943   -1.2298   -1.7848 C   0  0  0  0  0  0  0  0  0  0  0  0
    1.7547   -2.3290   -1.0330 O   0  0  0  0  0  0  0  0  0  0  0  0
    0.4629    0.7545    0.9161 H   0  0  0  0  0  0  0  0  0  0  0  0
   -0.1606    0.4342   -1.5635 H   0  0  0  0  0  0  0  0  0  0  0  0
    1.9988   -0.6496   -2.2465 H   0  0  0  0  0  0  0  0  0  0  0  0
    0.5947   -1.6353   -2.6067 H   0  0  0  0  0  0  0  0  0  0  0  0
    1.0756   -2.9909   -0.7554 H   0  0  0  0  0  0  0  0  0  0  0  0
   -0.8515   -1.6330    0.9490 N   0  0  0  0  0  0  0  0  0  0  0  0
   -1.5555   -2.8571    1.3726 C   0  0  2  0  0  0  0  0  0  0  0  0
   -1.0677   -4.1087    0.5953 C   0  0  0  0  0  0  0  0  0  0  0  0
    0.0961   -4.1672    0.2020 O   0  0  0  0  0  0  0  0  0  0  0  0
   -3.0798   -2.6580    1.3294 C   0  0  0  0  0  0  0  0  0  0  0  0
   -0.0303   -1.4037    1.5124 H   0  0  0  0  0  0  0  0  0  0  0  0
   -1.2934   -3.0346    2.4201 H   0  0  0  0  0  0  0  0  0  0  0  0
   -3.4488   -2.6268    0.3002 H   0  0  0  0  0  0  0  0  0  0  0  0
   -3.5854   -3.4752    1.8520 H   0  0  0  0  0  0  0  0  0  0  0  0
   -3.3500   -1.7190    1.8221 H   0  0  0  0  0  0  0  0  0  0  0  0
   -1.9046   -5.1843    0.3577 N   0  0  0  0  0  0  0  0  0  0  0  0
   -1.5200   -6.3185   -0.4740 C   0  0  0  0  0  0  0  0  0  0  0  0
   -2.8885   -5.0512    0.5708 H   0  0  0  0  0  0  0  0  0  0  0  0
   -2.3172   -7.0681   -0.4831 H   0  0  0  0  0  0  0  0  0  0  0  0
   -1.3372   -5.9922   -1.5034 H   0  0  0  0  0  0  0  0  0  0  0  0
   -0.6105   -6.7900   -0.0866 H   0  0  0  0  0  0  0  0  0  0  0  0
  1  2  2  0  0  0  0
  1  3  1  0  0  0  0
  1  7  1  0  0  0  0
  3  4  1  0  0  0  0
  3  5  1  0  0  0  0
  3  6  1  0  0  0  0
  7  8  1  0  0  0  0
  7 12  1  0  0  0  0
  8  9  1  0  0  0  0
  8 11  1  0  0  0  0
  8 13  1  0  0  0  0
  9 10  2  0  0  0  0
  9 17  1  0  0  0  0
 11 14  1  0  0  0  0
 11 15  1  0  0  0  0
 11 16  1  0  0  0  0
 17 18  1  0  0  0  0
 17 23  1  0  0  0  0
 18 19  1  0  0  0  0
 18 21  1  0  0  0  0
 18 24  1  0  0  0  0
 19 20  2  0  0  0  0
 19 28  1  0  0  0  0
 21 22  1  0  0  0  0
 21 25  1  0  0  0  0
 21 26  1  0  0  0  0
 22 27  1  0  0  0  0
 28 29  1  0  0  0  0
 28 33  1  0  0  0  0
 29 30  1  0  0  0  0
 29 32  1  0  0  0  0
 29 34  1  0  0  0  0
 30 31  2  0  0  0  0
 30 38  1  0  0  0  0
 32 35  1  0  0  0  0
 32 36  1  0  0  0  0
 32 37  1  0  0  0  0
 38 39  1  0  0  0  0
 38 40  1  0  0  0  0
 39 41  1  0  0  0  0
 39 42  1  0  0  0  0
 39 43  1  0  0  0  0
M  END
$$$$

  -OEChem-05262217303D

 43 42  0     1  0  0  0  0  0999 V2000
    1.9255   -1.9508    2.9703 C   0  0  0  0  0  0  0  0  0  0  0  0
    0.8466   -1.3979    3.1407 O   0  0  0  0  0  0  0  0  0  0  0  0
    2.0785   -3.4385    3.2184 C   0  0  0  0  0  0  0  0  0  0  0  0
    2.8872   -3.6181    3.9309 H   0  0  0  0  0  0  0  0  0  0  0  0
    1.1514   -3.8524    3.6235 H   0  0  0  0  0  0  0  0  0  0  0  0
    2.3090   -3.9496    2.2798 H   0  0  0  0  0  0  0  0  0  0  0  0
    2.9875   -1.2121    2.4967 N   0  0  0  0  0  0  0  0  0  0  0  0
    2.8304    0.1558    1.9891 C   0  0  2  0  0  0  0  0  0  0  0  0
    2.3861    0.1249    0.5107 C   0  0  0  0  0  0  0  0  0  0  0  0
    3.2406    0.0047   -0.3542 O   0  0  0  0  0  0  0  0  0  0  0  0
    4.1606    0.8911    2.1930 C   0  0  0  0  0  0  0  0  0  0  0  0
    3.7859   -1.7451    2.1575 H   0  0  0  0  0  0  0  0  0  0  0  0
    2.0712    0.6944    2.5648 H   0  0  0  0  0  0  0  0  0  0  0  0
    4.9734    0.3772    1.6693 H   0  0  0  0  0  0  0  0  0  0  0  0
    4.0918    1.9125    1.8055 H   0  0  0  0  0  0  0  0  0  0  0  0
    4.4088    0.9393    3.2578 H   0  0  0  0  0  0  0  0  0  0  0  0
    1.0665    0.4075    0.1766 N   0  0  0  0  0  0  0  0  0  0  0  0
    0.2417   -0.2262   -0.8966 C   0  0  2  0  0  0  0  0  0  0  0  0
   -0.8215   -1.2177   -0.3783 C   0  0  0  0  0  0  0  0  0  0  0  0
   -1.6007   -1.7254   -1.1762 O   0  0  0  0  0  0  0  0  0  0  0  0
    1.0452   -1.0719   -1.9211 C   0  0  0  0  0  0  0  0  0  0  0  0
    1.6390   -2.2440   -1.3209 O   0  0  0  0  0  0  0  0  0  0  0  0
    0.5258    0.7012    0.9854 H   0  0  0  0  0  0  0  0  0  0  0  0
   -0.2740    0.5685   -1.4424 H   0  0  0  0  0  0  0  0  0  0  0  0
    1.8260   -0.4542   -2.3749 H   0  0  0  0  0  0  0  0  0  0  0  0
    0.3897   -1.3878   -2.7396 H   0  0  0  0  0  0  0  0  0  0  0  0
    0.9720   -2.8619   -0.9473 H   0  0  0  0  0  0  0  0  0  0  0  0
   -0.9847   -1.4918    0.9708 N   0  0  0  0  0  0  0  0  0  0  0  0
   -1.6461   -2.7225    1.4417 C   0  0  2  0  0  0  0  0  0  0  0  0
   -1.0527   -3.9959    0.7804 C   0  0  0  0  0  0  0  0  0  0  0  0
    0.1321   -4.0191    0.4523 O   0  0  0  0  0  0  0  0  0  0  0  0
   -3.1735   -2.6076    1.3030 C   0  0  0  0  0  0  0  0  0  0  0  0
   -0.2246   -1.1661    1.5708 H   0  0  0  0  0  0  0  0  0  0  0  0
   -1.4345   -2.8144    2.5116 H   0  0  0  0  0  0  0  0  0  0  0  0
   -3.4826   -2.6562    0.2548 H   0  0  0  0  0  0  0  0  0  0  0  0
   -3.6682   -3.4176    1.8470 H   0  0  0  0  0  0  0  0  0  0  0  0
   -3.5174   -1.6564    1.7208 H   0  0  0  0  0  0  0  0  0  0  0  0
   -1.8198   -5.1293    0.5802 N   0  0  0  0  0  0  0  0  0  0  0  0
   -1.3320   -6.2981   -0.1424 C   0  0  0  0  0  0  0  0  0  0  0  0
   -2.8199   -5.0339    0.7282 H   0  0  0  0  0  0  0  0  0  0  0  0
   -2.1075   -7.0690   -0.1823 H   0  0  0  0  0  0  0  0  0  0  0  0
   -1.0586   -6.0278   -1.1680 H   0  0  0  0  0  0  0  0  0  0  0  0
   -0.4533   -6.7197    0.3573 H   0  0  0  0  0  0  0  0  0  0  0  0
  1  2  2  0  0  0  0
  1  3  1  0  0  0  0
  1  7  1  0  0  0  0
  3  4  1  0  0  0  0
  3  5  1  0  0  0  0
  3  6  1  0  0  0  0
  7  8  1  0  0  0  0
  7 12  1  0  0  0  0
  8  9  1  0  0  0  0
  8 11  1  0  0  0  0
  8 13  1  0  0  0  0
  9 10  2  0  0  0  0
  9 17  1  0  0  0  0
 11 14  1  0  0  0  0
 11 15  1  0  0  0  0
 11 16  1  0  0  0  0
 17 18  1  0  0  0  0
 17 23  1  0  0  0  0
 18 19  1  0  0  0  0
 18 21  1  0  0  0  0
 18 24  1  0  0  0  0
 19 20  2  0  0  0  0
 19 28  1  0  0  0  0
 21 22  1  0  0  0  0
 21 25  1  0  0  0  0
 21 26  1  0  0  0  0
 22 27  1  0  0  0  0
 28 29  1  0  0  0  0
 28 33  1  0  0  0  0
 29 30  1  0  0  0  0
 29 32  1  0  0  0  0
 29 34  1  0  0  0  0
 30 31  2  0  0  0  0
 30 38  1  0  0  0  0
 32 35  1  0  0  0  0
 32 36  1  0  0  0  0
 32 37  1  0  0  0  0
 38 39  1  0  0  0  0
 38 40  1  0  0  0  0
 39 41  1  0  0  0  0
 39 42  1  0  0  0  0
 39 43  1  0  0  0  0
M  END
$$$$

  -OEChem-05262217303D

 43 42  0     1  0  0  0  0  0999 V2000
    1.7140   -1.4233    3.2544 C   0  0  0  0  0  0  0  0  0  0  0  0
    0.8630   -0.5558    3.0970 O   0  0  0  0  0  0  0  0  0  0  0  0
    1.4408   -2.6186    4.1466 C   0  0  0  0  0  0  0  0  0  0  0  0
    2.2277   -2.7131    4.8989 H   0  0  0  0  0  0  0  0  0  0  0  0
    0.4801   -2.5008    4.6557 H   0  0  0  0  0  0  0  0  0  0  0  0
    1.4088   -3.5332    3.5479 H   0  0  0  0  0  0  0  0  0  0  0  0
    2.8854   -1.3445    2.5304 N   0  0  0  0  0  0  0  0  0  0  0  0
    3.1748   -0.2806    1.5563 C   0  0  2  0  0  0  0  0  0  0  0  0
    2.3431   -0.4472    0.2606 C   0  0  0  0  0  0  0  0  0  0  0  0
    2.8299   -1.0191   -0.7046 O   0  0  0  0  0  0  0  0  0  0  0  0
    4.6868   -0.2855    1.2962 C   0  0  0  0  0  0  0  0  0  0  0  0
    3.5033   -2.1521    2.5636 H   0  0  0  0  0  0  0  0  0  0  0  0
    2.9201    0.6924    1.9906 H   0  0  0  0  0  0  0  0  0  0  0  0
    5.0068   -1.2467    0.8807 H   0  0  0  0  0  0  0  0  0  0  0  0
    4.9512    0.5034    0.5846 H   0  0  0  0  0  0  0  0  0  0  0  0
    5.2342   -0.1084    2.2270 H   0  0  0  0  0  0  0  0  0  0  0  0
    1.0237   -0.0141    0.2779 N   0  0  0  0  0  0  0  0  0  0  0  0
   -0.0948   -0.2650   -0.6789 C   0  0  2  0  0  0  0  0  0  0  0  0
   -1.1121   -1.2876   -0.1165 C   0  0  0  0  0  0  0  0  0  0  0  0
   -1.9436   -1.8191   -0.8412 O   0  0  0  0  0  0  0  0  0  0  0  0
    0.2765   -0.6112   -2.1391 C   0  0  0  0  0  0  0  0  0  0  0  0
    0.9479   -1.8666   -2.2503 O   0  0  0  0  0  0  0  0  0  0  0  0
    0.7507    0.3468    1.1946 H   0  0  0  0  0  0  0  0  0  0  0  0
   -0.6467    0.6762   -0.7465 H   0  0  0  0  0  0  0  0  0  0  0  0
    0.9225    0.1760   -2.5414 H   0  0  0  0  0  0  0  0  0  0  0  0
   -0.6289   -0.6349   -2.7548 H   0  0  0  0  0  0  0  0  0  0  0  0
    1.8094   -1.7890   -1.7697 H   0  0  0  0  0  0  0  0  0  0  0  0
   -1.0989   -1.6095    1.2333 N   0  0  0  0  0  0  0  0  0  0  0  0
   -1.8159   -2.7180    1.8896 C   0  0  2  0  0  0  0  0  0  0  0  0
   -1.2960   -4.1011    1.4433 C   0  0  0  0  0  0  0  0  0  0  0  0
   -0.7178   -4.8138    2.2554 O   0  0  0  0  0  0  0  0  0  0  0  0
   -3.3404   -2.6053    1.7390 C   0  0  0  0  0  0  0  0  0  0  0  0
   -0.3793   -1.1468    1.7899 H   0  0  0  0  0  0  0  0  0  0  0  0
   -1.6052   -2.6391    2.9610 H   0  0  0  0  0  0  0  0  0  0  0  0
   -3.6604   -2.8088    0.7134 H   0  0  0  0  0  0  0  0  0  0  0  0
   -3.8341   -3.3284    2.3953 H   0  0  0  0  0  0  0  0  0  0  0  0
   -3.6750   -1.6012    2.0154 H   0  0  0  0  0  0  0  0  0  0  0  0
   -1.3772   -4.4920    0.1216 N   0  0  0  0  0  0  0  0  0  0  0  0
   -0.7249   -5.6795   -0.4111 C   0  0  0  0  0  0  0  0  0  0  0  0
   -1.7023   -3.7733   -0.5321 H   0  0  0  0  0  0  0  0  0  0  0  0
   -0.9481   -5.7836   -1.4775 H   0  0  0  0  0  0  0  0  0  0  0  0
    0.3607   -5.6076   -0.2891 H   0  0  0  0  0  0  0  0  0  0  0  0
   -1.0810   -6.5773    0.1049 H   0  0  0  0  0  0  0  0  0  0  0  0
  1  2  2  0  0  0  0
  1  3  1  0  0  0  0
  1  7  1  0  0  0  0
  3  4  1  0  0  0  0
  3  5  1  0  0  0  0
  3  6  1  0  0  0  0
  7  8  1  0  0  0  0
  7 12  1  0  0  0  0
  8  9  1  0  0  0  0
  8 11  1  0  0  0  0
  8 13  1  0  0  0  0
  9 10  2  0  0  0  0
  9 17  1  0  0  0  0
 11 14  1  0  0  0  0
 11 15  1  0  0  0  0
 11 16  1  0  0  0  0
 17 18  1  0  0  0  0
 17 23  1  0  0  0  0
 18 19  1  0  0  0  0
 18 21  1  0  0  0  0
 18 24  1  0  0  0  0
 19 20  2  0  0  0  0
 19 28  1  0  0  0  0
 21 22  1  0  0  0  0
 21 25  1  0  0  0  0
 21 26  1  0  0  0  0
 22 27  1  0  0  0  0
 28 29  1  0  0  0  0
 28 33  1  0  0  0  0
 29 30  1  0  0  0  0
 29 32  1  0  0  0  0
 29 34  1  0  0  0  0
 30 31  2  0  0  0  0
 30 38  1  0  0  0  0
 32 35  1  0  0  0  0
 32 36  1  0  0  0  0
 32 37  1  0  0  0  0
 38 39  1  0  0  0  0
 38 40  1  0  0  0  0
 39 41  1  0  0  0  0
 39 42  1  0  0  0  0
 39 43  1  0  0  0  0
M  END
$$$$

  -OEChem-05262217303D

 43 42  0     1  0  0  0  0  0999 V2000
    3.8966   -1.4726    4.1614 C   0  0  0  0  0  0  0  0  0  0  0  0
    3.4272   -0.6297    4.9093 O   0  0  0  0  0  0  0  0  0  0  0  0
    4.7459   -2.6014    4.7142 C   0  0  0  0  0  0  0  0  0  0  0  0
    5.7031   -2.6407    4.1885 H   0  0  0  0  0  0  0  0  0  0  0  0
    4.9363   -2.4437    5.7797 H   0  0  0  0  0  0  0  0  0  0  0  0
    4.2283   -3.5552    4.5863 H   0  0  0  0  0  0  0  0  0  0  0  0
    3.6443   -1.4000    2.8078 N   0  0  0  0  0  0  0  0  0  0  0  0
    2.7383   -0.4255    2.1863 C   0  0  2  0  0  0  0  0  0  0  0  0
    2.0249   -1.0096    0.9484 C   0  0  0  0  0  0  0  0  0  0  0  0
    2.4837   -2.0109    0.4160 O   0  0  0  0  0  0  0  0  0  0  0  0
    3.5545    0.8127    1.8026 C   0  0  0  0  0  0  0  0  0  0  0  0
    3.9589   -2.1787    2.2296 H   0  0  0  0  0  0  0  0  0  0  0  0
    1.9635   -0.1367    2.9048 H   0  0  0  0  0  0  0  0  0  0  0  0
    4.3392    0.5474    1.0866 H   0  0  0  0  0  0  0  0  0  0  0  0
    2.9132    1.5751    1.3504 H   0  0  0  0  0  0  0  0  0  0  0  0
    4.0269    1.2439    2.6912 H   0  0  0  0  0  0  0  0  0  0  0  0
    0.8409   -0.4307    0.5117 N   0  0  0  0  0  0  0  0  0  0  0  0
    0.0891   -0.6218   -0.7658 C   0  0  2  0  0  0  0  0  0  0  0  0
   -1.1745   -1.4919   -0.5697 C   0  0  0  0  0  0  0  0  0  0  0  0
   -1.7131   -2.0504   -1.5153 O   0  0  0  0  0  0  0  0  0  0  0  0
    0.8978   -1.0752   -2.0064 C   0  0  0  0  0  0  0  0  0  0  0  0
    1.4400   -2.3905   -1.8875 O   0  0  0  0  0  0  0  0  0  0  0  0
    0.5939    0.4045    1.0373 H   0  0  0  0  0  0  0  0  0  0  0  0
   -0.2963    0.3645   -1.0378 H   0  0  0  0  0  0  0  0  0  0  0  0
    1.7208   -0.3712   -2.1643 H   0  0  0  0  0  0  0  0  0  0  0  0
    0.2616   -1.0346   -2.8967 H   0  0  0  0  0  0  0  0  0  0  0  0
    1.9581   -2.4524   -1.0450 H   0  0  0  0  0  0  0  0  0  0  0  0
   -1.8277   -1.4727    0.6543 N   0  0  0  0  0  0  0  0  0  0  0  0
   -3.0446   -2.2297    1.0211 C   0  0  2  0  0  0  0  0  0  0  0  0
   -2.8594   -3.7649    1.0230 C   0  0  0  0  0  0  0  0  0  0  0  0
   -3.1244   -4.3968    2.0372 O   0  0  0  0  0  0  0  0  0  0  0  0
   -4.2547   -1.8229    0.1668 C   0  0  0  0  0  0  0  0  0  0  0  0
   -1.2766   -1.1010    1.4212 H   0  0  0  0  0  0  0  0  0  0  0  0
   -3.2864   -1.9540    2.0529 H   0  0  0  0  0  0  0  0  0  0  0  0
   -4.1572   -2.1791   -0.8627 H   0  0  0  0  0  0  0  0  0  0  0  0
   -5.1689   -2.2543    0.5867 H   0  0  0  0  0  0  0  0  0  0  0  0
   -4.3607   -0.7341    0.1510 H   0  0  0  0  0  0  0  0  0  0  0  0
   -2.3616   -4.4295   -0.0798 N   0  0  0  0  0  0  0  0  0  0  0  0
   -2.0676   -5.8549   -0.1098 C   0  0  0  0  0  0  0  0  0  0  0  0
   -2.1030   -3.8472   -0.8816 H   0  0  0  0  0  0  0  0  0  0  0  0
   -2.9793   -6.4376    0.0578 H   0  0  0  0  0  0  0  0  0  0  0  0
   -1.6529   -6.1326   -1.0834 H   0  0  0  0  0  0  0  0  0  0  0  0
   -1.3364   -6.1112    0.6640 H   0  0  0  0  0  0  0  0  0  0  0  0
  1  2  2  0  0  0  0
  1  3  1  0  0  0  0
  1  7  1  0  0  0  0
  3  4  1  0  0  0  0
  3  5  1  0  0  0  0
  3  6  1  0  0  0  0
  7  8  1  0  0  0  0
  7 12  1  0  0  0  0
  8  9  1  0  0  0  0
  8 11  1  0  0  0  0
  8 13  1  0  0  0  0
  9 10  2  0  0  0  0
  9 17  1  0  0  0  0
 11 14  1  0  0  0  0
 11 15  1  0  0  0  0
 11 16  1  0  0  0  0
 17 18  1  0  0  0  0
 17 23  1  0  0  0  0
 18 19  1  0  0  0  0
 18 21  1  0  0  0  0
 18 24  1  0  0  0  0
 19 20  2  0  0  0  0
 19 28  1  0  0  0  0
 21 22  1  0  0  0  0
 21 25  1  0  0  0  0
 21 26  1  0  0  0  0
 22 27  1  0  0  0  0
 28 29  1  0  0  0  0
 28 33  1  0  0  0  0
 29 30  1  0  0  0  0
 29 32  1  0  0  0  0
 29 34  1  0  0  0  0
 30 31  2  0  0  0  0
 30 38  1  0  0  0  0
 32 35  1  0  0  0  0
 32 36  1  0  0  0  0
 32 37  1  0  0  0  0
 38 39  1  0  0  0  0
 38 40  1  0  0  0  0
 39 41  1  0  0  0  0
 39 42  1  0  0  0  0
 39 43  1  0  0  0  0
M  END
$$$$

  -OEChem-05262217303D

 43 42  0     1  0  0  0  0  0999 V2000
    3.8059   -1.5137    4.1374 C   0  0  0  0  0  0  0  0  0  0  0  0
    3.2993   -0.6911    4.8839 O   0  0  0  0  0  0  0  0  0  0  0  0
    4.6116   -2.6671    4.7037 C   0  0  0  0  0  0  0  0  0  0  0  0
    5.6537   -2.5859    4.3854 H   0  0  0  0  0  0  0  0  0  0  0  0
    4.5743   -2.6514    5.7966 H   0  0  0  0  0  0  0  0  0  0  0  0
    4.2031   -3.6176    4.3517 H   0  0  0  0  0  0  0  0  0  0  0  0
    3.6318   -1.3982    2.7745 N   0  0  0  0  0  0  0  0  0  0  0  0
    2.7411   -0.4188    2.1389 C   0  0  2  0  0  0  0  0  0  0  0  0
    2.0466   -0.9976    0.8881 C   0  0  0  0  0  0  0  0  0  0  0  0
    2.5202   -1.9891    0.3502 O   0  0  0  0  0  0  0  0  0  0  0  0
    3.5691    0.8170    1.7753 C   0  0  0  0  0  0  0  0  0  0  0  0
    3.9650   -2.1676    2.1943 H   0  0  0  0  0  0  0  0  0  0  0  0
    1.9536   -0.1278    2.8425 H   0  0  0  0  0  0  0  0  0  0  0  0
    4.3638    0.5510    1.0708 H   0  0  0  0  0  0  0  0  0  0  0  0
    2.9384    1.5848    1.3174 H   0  0  0  0  0  0  0  0  0  0  0  0
    4.0286    1.2407    2.6743 H   0  0  0  0  0  0  0  0  0  0  0  0
    0.8629   -0.4226    0.4473 N   0  0  0  0  0  0  0  0  0  0  0  0
    0.1130   -0.6220   -0.8279 C   0  0  2  0  0  0  0  0  0  0  0  0
   -1.1492   -1.4930   -0.6205 C   0  0  0  0  0  0  0  0  0  0  0  0
   -1.5500   -2.2649   -1.4799 O   0  0  0  0  0  0  0  0  0  0  0  0
    0.9299   -1.0502   -2.0728 C   0  0  0  0  0  0  0  0  0  0  0  0
    1.5064   -2.3522   -1.9727 O   0  0  0  0  0  0  0  0  0  0  0  0
    0.6039    0.4022    0.9819 H   0  0  0  0  0  0  0  0  0  0  0  0
   -0.2794    0.3619   -1.0988 H   0  0  0  0  0  0  0  0  0  0  0  0
    1.7346   -0.3250   -2.2284 H   0  0  0  0  0  0  0  0  0  0  0  0
    0.2875   -1.0184   -2.9593 H   0  0  0  0  0  0  0  0  0  0  0  0
    2.0092   -2.4192   -1.1217 H   0  0  0  0  0  0  0  0  0  0  0  0
   -1.9686   -1.2340    0.4696 N   0  0  0  0  0  0  0  0  0  0  0  0
   -3.2383   -1.9134    0.8093 C   0  0  2  0  0  0  0  0  0  0  0  0
   -3.0942   -3.4185    1.1362 C   0  0  0  0  0  0  0  0  0  0  0  0
   -3.4826   -3.8322    2.2207 O   0  0  0  0  0  0  0  0  0  0  0  0
   -4.3118   -1.6830   -0.2645 C   0  0  0  0  0  0  0  0  0  0  0  0
   -1.5524   -0.6610    1.1956 H   0  0  0  0  0  0  0  0  0  0  0  0
   -3.6099   -1.4429    1.7254 H   0  0  0  0  0  0  0  0  0  0  0  0
   -4.0736   -2.2163   -1.1894 H   0  0  0  0  0  0  0  0  0  0  0  0
   -5.2807   -2.0448    0.0940 H   0  0  0  0  0  0  0  0  0  0  0  0
   -4.4032   -0.6164   -0.4900 H   0  0  0  0  0  0  0  0  0  0  0  0
   -2.5096   -4.2963    0.2454 N   0  0  0  0  0  0  0  0  0  0  0  0
   -2.2601   -5.7024    0.5282 C   0  0  0  0  0  0  0  0  0  0  0  0
   -2.1337   -3.8842   -0.6139 H   0  0  0  0  0  0  0  0  0  0  0  0
   -1.7929   -6.1821   -0.3375 H   0  0  0  0  0  0  0  0  0  0  0  0
   -1.5889   -5.8071    1.3869 H   0  0  0  0  0  0  0  0  0  0  0  0
   -3.1988   -6.2222    0.7468 H   0  0  0  0  0  0  0  0  0  0  0  0
  1  2  2  0  0  0  0
  1  3  1  0  0  0  0
  1  7  1  0  0  0  0
  3  4  1  0  0  0  0
  3  5  1  0  0  0  0
  3  6  1  0  0  0  0
  7  8  1  0  0  0  0
  7 12  1  0  0  0  0
  8  9  1  0  0  0  0
  8 11  1  0  0  0  0
  8 13  1  0  0  0  0
  9 10  2  0  0  0  0
  9 17  1  0  0  0  0
 11 14  1  0  0  0  0
 11 15  1  0  0  0  0
 11 16  1  0  0  0  0
 17 18  1  0  0  0  0
 17 23  1  0  0  0  0
 18 19  1  0  0  0  0
 18 21  1  0  0  0  0
 18 24  1  0  0  0  0
 19 20  2  0  0  0  0
 19 28  1  0  0  0  0
 21 22  1  0  0  0  0
 21 25  1  0  0  0  0
 21 26  1  0  0  0  0
 22 27  1  0  0  0  0
 28 29  1  0  0  0  0
 28 33  1  0  0  0  0
 29 30  1  0  0  0  0
 29 32  1  0  0  0  0
 29 34  1  0  0  0  0
 30 31  2  0  0  0  0
 30 38  1  0  0  0  0
 32 35  1  0  0  0  0
 32 36  1  0  0  0  0
 32 37  1  0  0  0  0
 38 39  1  0  0  0  0
 38 40  1  0  0  0  0
 39 41  1  0  0  0  0
 39 42  1  0  0  0  0
 39 43  1  0  0  0  0
M  END
$$$$

  -OEChem-05262217303D

 43 42  0     1  0  0  0  0  0999 V2000
    3.9169   -1.4961    4.1437 C   0  0  0  0  0  0  0  0  0  0  0  0
    3.7862   -0.4473    4.7556 O   0  0  0  0  0  0  0  0  0  0  0  0
    4.5329   -2.7050    4.8226 C   0  0  0  0  0  0  0  0  0  0  0  0
    5.3895   -3.0618    4.2456 H   0  0  0  0  0  0  0  0  0  0  0  0
    4.8715   -2.4408    5.8284 H   0  0  0  0  0  0  0  0  0  0  0  0
    3.7945   -3.5070    4.8985 H   0  0  0  0  0  0  0  0  0  0  0  0
    3.4887   -1.5860    2.8365 N   0  0  0  0  0  0  0  0  0  0  0  0
    2.7168   -0.5438    2.1486 C   0  0  2  0  0  0  0  0  0  0  0  0
    1.6771   -1.1472    1.1822 C   0  0  0  0  0  0  0  0  0  0  0  0
    1.7013   -2.3427    0.9190 O   0  0  0  0  0  0  0  0  0  0  0  0
    3.6931    0.3529    1.3830 C   0  0  0  0  0  0  0  0  0  0  0  0
    3.4884   -2.5119    2.4084 H   0  0  0  0  0  0  0  0  0  0  0  0
    2.1719    0.0587    2.8832 H   0  0  0  0  0  0  0  0  0  0  0  0
    4.2397   -0.2298    0.6340 H   0  0  0  0  0  0  0  0  0  0  0  0
    3.1576    1.1596    0.8742 H   0  0  0  0  0  0  0  0  0  0  0  0
    4.4166    0.7999    2.0723 H   0  0  0  0  0  0  0  0  0  0  0  0
    0.5696   -0.4173    0.7888 N   0  0  0  0  0  0  0  0  0  0  0  0
    0.0443   -0.4151   -0.5982 C   0  0  2  0  0  0  0  0  0  0  0  0
   -1.2329   -1.2684   -0.7086 C   0  0  0  0  0  0  0  0  0  0  0  0
   -1.2585   -2.2453   -1.4468 O   0  0  0  0  0  0  0  0  0  0  0  0
    1.0460   -0.6038   -1.7639 C   0  0  0  0  0  0  0  0  0  0  0  0
    1.6760   -1.8805   -1.8171 O   0  0  0  0  0  0  0  0  0  0  0  0
    0.5392    0.4882    1.2486 H   0  0  0  0  0  0  0  0  0  0  0  0
   -0.3195    0.6030   -0.7601 H   0  0  0  0  0  0  0  0  0  0  0  0
    1.8229    0.1642   -1.6955 H   0  0  0  0  0  0  0  0  0  0  0  0
    0.5137   -0.4453   -2.7077 H   0  0  0  0  0  0  0  0  0  0  0  0
    1.0274   -2.5830   -1.6092 H   0  0  0  0  0  0  0  0  0  0  0  0
   -2.3441   -0.9387    0.0524 N   0  0  0  0  0  0  0  0  0  0  0  0
   -3.5825   -1.7344    0.1914 C   0  0  2  0  0  0  0  0  0  0  0  0
   -3.3805   -3.0830    0.9205 C   0  0  0  0  0  0  0  0  0  0  0  0
   -4.0244   -3.3162    1.9347 O   0  0  0  0  0  0  0  0  0  0  0  0
   -4.2928   -1.9332   -1.1557 C   0  0  0  0  0  0  0  0  0  0  0  0
   -2.1839   -0.2268    0.7586 H   0  0  0  0  0  0  0  0  0  0  0  0
   -4.2639   -1.1504    0.8188 H   0  0  0  0  0  0  0  0  0  0  0  0
   -3.7392   -2.6184   -1.8040 H   0  0  0  0  0  0  0  0  0  0  0  0
   -5.2895   -2.3552   -0.9928 H   0  0  0  0  0  0  0  0  0  0  0  0
   -4.4027   -0.9756   -1.6732 H   0  0  0  0  0  0  0  0  0  0  0  0
   -2.4421   -3.9968    0.4842 N   0  0  0  0  0  0  0  0  0  0  0  0
   -2.0692   -5.1948    1.2226 C   0  0  0  0  0  0  0  0  0  0  0  0
   -1.8727   -3.7083   -0.3154 H   0  0  0  0  0  0  0  0  0  0  0  0
   -1.3054   -5.7519    0.6719 H   0  0  0  0  0  0  0  0  0  0  0  0
   -1.6630   -4.9287    2.2039 H   0  0  0  0  0  0  0  0  0  0  0  0
   -2.9383   -5.8455    1.3633 H   0  0  0  0  0  0  0  0  0  0  0  0
  1  2  2  0  0  0  0
  1  3  1  0  0  0  0
  1  7  1  0  0  0  0
  3  4  1  0  0  0  0
  3  5  1  0  0  0  0
  3  6  1  0  0  0  0
  7  8  1  0  0  0  0
  7 12  1  0  0  0  0
  8  9  1  0  0  0  0
  8 11  1  0  0  0  0
  8 13  1  0  0  0  0
  9 10  2  0  0  0  0
  9 17  1  0  0  0  0
 11 14  1  0  0  0  0
 11 15  1  0  0  0  0
 11 16  1  0  0  0  0
 17 18  1  0  0  0  0
 17 23  1  0  0  0  0
 18 19  1  0  0  0  0
 18 21  1  0  0  0  0
 18 24  1  0  0  0  0
 19 20  2  0  0  0  0
 19 28  1  0  0  0  0
 21 22  1  0  0  0  0
 21 25  1  0  0  0  0
 21 26  1  0  0  0  0
 22 27  1  0  0  0  0
 28 29  1  0  0  0  0
 28 33  1  0  0  0  0
 29 30  1  0  0  0  0
 29 32  1  0  0  0  0
 29 34  1  0  0  0  0
 30 31  2  0  0  0  0
 30 38  1  0  0  0  0
 32 35  1  0  0  0  0
 32 36  1  0  0  0  0
 32 37  1  0  0  0  0
 38 39  1  0  0  0  0
 38 40  1  0  0  0  0
 39 41  1  0  0  0  0
 39 42  1  0  0  0  0
 39 43  1  0  0  0  0
M  END
$$$$

  -OEChem-05262217303D

 43 42  0     1  0  0  0  0  0999 V2000
    2.7830   -2.7955    3.1967 C   0  0  0  0  0  0  0  0  0  0  0  0
    1.7040   -3.1159    3.6712 O   0  0  0  0  0  0  0  0  0  0  0  0
    3.9784   -3.7184    3.3367 C   0  0  0  0  0  0  0  0  0  0  0  0
    4.8008   -3.1928    3.8277 H   0  0  0  0  0  0  0  0  0  0  0  0
    3.7114   -4.5933    3.9358 H   0  0  0  0  0  0  0  0  0  0  0  0
    4.3075   -4.0538    2.3503 H   0  0  0  0  0  0  0  0  0  0  0  0
    2.9176   -1.6013    2.5212 N   0  0  0  0  0  0  0  0  0  0  0  0
    1.7897   -0.7526    2.1171 C   0  0  2  0  0  0  0  0  0  0  0  0
    1.9278   -0.3182    0.6446 C   0  0  0  0  0  0  0  0  0  0  0  0
    3.0398   -0.2219    0.1422 O   0  0  0  0  0  0  0  0  0  0  0  0
    1.7422    0.4599    3.0491 C   0  0  0  0  0  0  0  0  0  0  0  0
    3.7868   -1.4667    2.0044 H   0  0  0  0  0  0  0  0  0  0  0  0
    0.8493   -1.3063    2.2030 H   0  0  0  0  0  0  0  0  0  0  0  0
    2.6639    1.0446    2.9647 H   0  0  0  0  0  0  0  0  0  0  0  0
    0.8950    1.1052    2.7987 H   0  0  0  0  0  0  0  0  0  0  0  0
    1.6312    0.1323    4.0878 H   0  0  0  0  0  0  0  0  0  0  0  0
    0.8091    0.0834   -0.0660 N   0  0  0  0  0  0  0  0  0  0  0  0
    0.4300   -0.4592   -1.3967 C   0  0  2  0  0  0  0  0  0  0  0  0
   -0.7654   -1.4172   -1.2017 C   0  0  0  0  0  0  0  0  0  0  0  0
   -0.6017   -2.6189   -1.0172 O   0  0  0  0  0  0  0  0  0  0  0  0
    1.5359   -1.1655   -2.2243 C   0  0  0  0  0  0  0  0  0  0  0  0
    1.9995   -2.3810   -1.6198 O   0  0  0  0  0  0  0  0  0  0  0  0
    0.0153    0.2002    0.5588 H   0  0  0  0  0  0  0  0  0  0  0  0
    0.0930    0.3816   -2.0090 H   0  0  0  0  0  0  0  0  0  0  0  0
    2.3814   -0.4850   -2.3702 H   0  0  0  0  0  0  0  0  0  0  0  0
    1.1366   -1.4022   -3.2161 H   0  0  0  0  0  0  0  0  0  0  0  0
    1.2264   -2.9333   -1.3720 H   0  0  0  0  0  0  0  0  0  0  0  0
   -2.0109   -0.8564   -0.9638 N   0  0  0  0  0  0  0  0  0  0  0  0
   -3.1547   -1.5243   -0.3108 C   0  0  2  0  0  0  0  0  0  0  0  0
   -2.8684   -1.8743    1.1671 C   0  0  0  0  0  0  0  0  0  0  0  0
   -3.3562   -1.1769    2.0456 O   0  0  0  0  0  0  0  0  0  0  0  0
   -3.6544   -2.7405   -1.1069 C   0  0  0  0  0  0  0  0  0  0  0  0
   -2.0635    0.1561   -1.0434 H   0  0  0  0  0  0  0  0  0  0  0  0
   -3.9811   -0.8056   -0.2982 H   0  0  0  0  0  0  0  0  0  0  0  0
   -2.9360   -3.5642   -1.0838 H   0  0  0  0  0  0  0  0  0  0  0  0
   -4.5954   -3.1030   -0.6816 H   0  0  0  0  0  0  0  0  0  0  0  0
   -3.8311   -2.4634   -2.1505 H   0  0  0  0  0  0  0  0  0  0  0  0
   -1.9592   -2.8568    1.5058 N   0  0  0  0  0  0  0  0  0  0  0  0
   -1.5359   -3.1370    2.8726 C   0  0  0  0  0  0  0  0  0  0  0  0
   -1.4358   -3.2721    0.7319 H   0  0  0  0  0  0  0  0  0  0  0  0
   -0.8252   -3.9691    2.8839 H   0  0  0  0  0  0  0  0  0  0  0  0
   -1.0502   -2.2617    3.3151 H   0  0  0  0  0  0  0  0  0  0  0  0
   -2.3961   -3.4113    3.4916 H   0  0  0  0  0  0  0  0  0  0  0  0
  1  2  2  0  0  0  0
  1  3  1  0  0  0  0
  1  7  1  0  0  0  0
  3  4  1  0  0  0  0
  3  5  1  0  0  0  0
  3  6  1  0  0  0  0
  7  8  1  0  0  0  0
  7 12  1  0  0  0  0
  8  9  1  0  0  0  0
  8 11  1  0  0  0  0
  8 13  1  0  0  0  0
  9 10  2  0  0  0  0
  9 17  1  0  0  0  0
 11 14  1  0  0  0  0
 11 15  1  0  0  0  0
 11 16  1  0  0  0  0
 17 18  1  0  0  0  0
 17 23  1  0  0  0  0
 18 19  1  0  0  0  0
 18 21  1  0  0  0  0
 18 24  1  0  0  0  0
 19 20  2  0  0  0  0
 19 28  1  0  0  0  0
 21 22  1  0  0  0  0
 21 25  1  0  0  0  0
 21 26  1  0  0  0  0
 22 27  1  0  0  0  0
 28 29  1  0  0  0  0
 28 33  1  0  0  0  0
 29 30  1  0  0  0  0
 29 32  1  0  0  0  0
 29 34  1  0  0  0  0
 30 31  2  0  0  0  0
 30 38  1  0  0  0  0
 32 35  1  0  0  0  0
 32 36  1  0  0  0  0
 32 37  1  0  0  0  0
 38 39  1  0  0  0  0
 38 40  1  0  0  0  0
 39 41  1  0  0  0  0
 39 42  1  0  0  0  0
 39 43  1  0  0  0  0
M  END
$$$$

  -OEChem-05262217303D

 43 42  0     1  0  0  0  0  0999 V2000
    2.6530   -2.7717    3.2770 C   0  0  0  0  0  0  0  0  0  0  0  0
    1.5829   -3.0723    3.7851 O   0  0  0  0  0  0  0  0  0  0  0  0
    3.8609   -3.6701    3.4633 C   0  0  0  0  0  0  0  0  0  0  0  0
    4.6625   -3.1190    3.9608 H   0  0  0  0  0  0  0  0  0  0  0  0
    3.5957   -4.5372    4.0744 H   0  0  0  0  0  0  0  0  0  0  0  0
    4.2178   -4.0200    2.4915 H   0  0  0  0  0  0  0  0  0  0  0  0
    2.7707   -1.6236    2.5240 N   0  0  0  0  0  0  0  0  0  0  0  0
    1.6317   -0.8149    2.0746 C   0  0  2  0  0  0  0  0  0  0  0  0
    1.8378   -0.3290    0.6260 C   0  0  0  0  0  0  0  0  0  0  0  0
    2.9734   -0.1906    0.1881 O   0  0  0  0  0  0  0  0  0  0  0  0
    1.4614    0.3665    3.0315 C   0  0  0  0  0  0  0  0  0  0  0  0
    3.6391   -1.5005    2.0034 H   0  0  0  0  0  0  0  0  0  0  0  0
    0.7179   -1.4182    2.0845 H   0  0  0  0  0  0  0  0  0  0  0  0
    2.3519    1.0030    3.0157 H   0  0  0  0  0  0  0  0  0  0  0  0
    0.5943    0.9687    2.7437 H   0  0  0  0  0  0  0  0  0  0  0  0
    1.3071    0.0054    4.0532 H   0  0  0  0  0  0  0  0  0  0  0  0
    0.7340    0.0259   -0.1269 N   0  0  0  0  0  0  0  0  0  0  0  0
    0.4845   -0.3540   -1.5393 C   0  0  2  0  0  0  0  0  0  0  0  0
   -0.5984   -1.4497   -1.5197 C   0  0  0  0  0  0  0  0  0  0  0  0
   -0.3219   -2.5966   -1.1820 O   0  0  0  0  0  0  0  0  0  0  0  0
    1.6826   -0.8502   -2.3857 C   0  0  0  0  0  0  0  0  0  0  0  0
    2.2157   -2.1003   -1.9262 O   0  0  0  0  0  0  0  0  0  0  0  0
   -0.1144   -0.0079    0.4487 H   0  0  0  0  0  0  0  0  0  0  0  0
    0.0897    0.5258   -2.0535 H   0  0  0  0  0  0  0  0  0  0  0  0
    2.4741   -0.0939   -2.3912 H   0  0  0  0  0  0  0  0  0  0  0  0
    1.3489   -0.9786   -3.4206 H   0  0  0  0  0  0  0  0  0  0  0  0
    1.4808   -2.6771   -1.6201 H   0  0  0  0  0  0  0  0  0  0  0  0
   -1.9263   -1.0570   -1.5856 N   0  0  0  0  0  0  0  0  0  0  0  0
   -2.9270   -1.6470   -0.6734 C   0  0  2  0  0  0  0  0  0  0  0  0
   -2.4487   -1.5948    0.8050 C   0  0  0  0  0  0  0  0  0  0  0  0
   -1.8192   -0.6094    1.1887 O   0  0  0  0  0  0  0  0  0  0  0  0
   -3.3477   -3.0504   -1.1438 C   0  0  0  0  0  0  0  0  0  0  0  0
   -2.0450   -0.0632   -1.7613 H   0  0  0  0  0  0  0  0  0  0  0  0
   -3.8237   -1.0214   -0.7200 H   0  0  0  0  0  0  0  0  0  0  0  0
   -2.5487   -3.7814   -0.9889 H   0  0  0  0  0  0  0  0  0  0  0  0
   -4.2317   -3.3862   -0.5934 H   0  0  0  0  0  0  0  0  0  0  0  0
   -3.5957   -3.0313   -2.2096 H   0  0  0  0  0  0  0  0  0  0  0  0
   -2.6882   -2.6300    1.6898 N   0  0  0  0  0  0  0  0  0  0  0  0
   -2.0820   -2.6969    3.0159 C   0  0  0  0  0  0  0  0  0  0  0  0
   -3.0513   -3.4907    1.2903 H   0  0  0  0  0  0  0  0  0  0  0  0
   -1.0028   -2.8602    2.9359 H   0  0  0  0  0  0  0  0  0  0  0  0
   -2.2583   -1.7702    3.5723 H   0  0  0  0  0  0  0  0  0  0  0  0
   -2.5141   -3.5246    3.5865 H   0  0  0  0  0  0  0  0  0  0  0  0
  1  2  2  0  0  0  0
  1  3  1  0  0  0  0
  1  7  1  0  0  0  0
  3  4  1  0  0  0  0
  3  5  1  0  0  0  0
  3  6  1  0  0  0  0
  7  8  1  0  0  0  0
  7 12  1  0  0  0  0
  8  9  1  0  0  0  0
  8 11  1  0  0  0  0
  8 13  1  0  0  0  0
  9 10  2  0  0  0  0
  9 17  1  0  0  0  0
 11 14  1  0  0  0  0
 11 15  1  0  0  0  0
 11 16  1  0  0  0  0
 17 18  1  0  0  0  0
 17 23  1  0  0  0  0
 18 19  1  0  0  0  0
 18 21  1  0  0  0  0
 18 24  1  0  0  0  0
 19 20  2  0  0  0  0
 19 28  1  0  0  0  0
 21 22  1  0  0  0  0
 21 25  1  0  0  0  0
 21 26  1  0  0  0  0
 22 27  1  0  0  0  0
 28 29  1  0  0  0  0
 28 33  1  0  0  0  0
 29 30  1  0  0  0  0
 29 32  1  0  0  0  0
 29 34  1  0  0  0  0
 30 31  2  0  0  0  0
 30 38  1  0  0  0  0
 32 35  1  0  0  0  0
 32 36  1  0  0  0  0
 32 37  1  0  0  0  0
 38 39  1  0  0  0  0
 38 40  1  0  0  0  0
 39 41  1  0  0  0  0
 39 42  1  0  0  0  0
 39 43  1  0  0  0  0
M  END
$$$$

  -OEChem-05262217303D

 43 42  0     1  0  0  0  0  0999 V2000
    2.8970   -2.6113    3.5282 C   0  0  0  0  0  0  0  0  0  0  0  0
    1.8612   -3.0053    4.0432 O   0  0  0  0  0  0  0  0  0  0  0  0
    4.2208   -3.2562    3.8928 C   0  0  0  0  0  0  0  0  0  0  0  0
    4.9017   -2.5045    4.2994 H   0  0  0  0  0  0  0  0  0  0  0  0
    4.0664   -4.0354    4.6441 H   0  0  0  0  0  0  0  0  0  0  0  0
    4.6734   -3.7060    3.0057 H   0  0  0  0  0  0  0  0  0  0  0  0
    2.8688   -1.5794    2.6150 N   0  0  0  0  0  0  0  0  0  0  0  0
    1.6383   -0.9987    2.0658 C   0  0  2  0  0  0  0  0  0  0  0  0
    1.8421   -0.4881    0.6239 C   0  0  0  0  0  0  0  0  0  0  0  0
    2.9736   -0.3649    0.1717 O   0  0  0  0  0  0  0  0  0  0  0  0
    1.1728    0.1326    2.9879 C   0  0  0  0  0  0  0  0  0  0  0  0
    3.7294   -1.3812    2.1045 H   0  0  0  0  0  0  0  0  0  0  0  0
    0.8598   -1.7681    2.0217 H   0  0  0  0  0  0  0  0  0  0  0  0
    1.9248    0.9268    3.0277 H   0  0  0  0  0  0  0  0  0  0  0  0
    0.2310    0.5590    2.6289 H   0  0  0  0  0  0  0  0  0  0  0  0
    1.0117   -0.2469    4.0017 H   0  0  0  0  0  0  0  0  0  0  0  0
    0.7286   -0.1020   -0.0984 N   0  0  0  0  0  0  0  0  0  0  0  0
    0.4615   -0.3198   -1.5396 C   0  0  2  0  0  0  0  0  0  0  0  0
   -0.5830   -1.4466   -1.6126 C   0  0  0  0  0  0  0  0  0  0  0  0
   -0.3070   -2.5677   -1.1948 O   0  0  0  0  0  0  0  0  0  0  0  0
    1.6448   -0.7048   -2.4573 C   0  0  0  0  0  0  0  0  0  0  0  0
    2.1925   -1.9954   -2.1535 O   0  0  0  0  0  0  0  0  0  0  0  0
   -0.1209   -0.1537    0.4737 H   0  0  0  0  0  0  0  0  0  0  0  0
    0.0337    0.6018   -1.9412 H   0  0  0  0  0  0  0  0  0  0  0  0
    2.4322    0.0525   -2.3872 H   0  0  0  0  0  0  0  0  0  0  0  0
    1.2936   -0.7150   -3.4940 H   0  0  0  0  0  0  0  0  0  0  0  0
    1.4910   -2.5816   -1.7944 H   0  0  0  0  0  0  0  0  0  0  0  0
   -1.8979   -1.1288   -1.9127 N   0  0  0  0  0  0  0  0  0  0  0  0
   -2.9776   -1.6823   -1.0679 C   0  0  2  0  0  0  0  0  0  0  0  0
   -2.6477   -1.5595    0.4495 C   0  0  0  0  0  0  0  0  0  0  0  0
   -2.0677   -0.5532    0.8565 O   0  0  0  0  0  0  0  0  0  0  0  0
   -3.3311   -3.1128   -1.5097 C   0  0  0  0  0  0  0  0  0  0  0  0
   -2.0265   -0.1581   -2.1840 H   0  0  0  0  0  0  0  0  0  0  0  0
   -3.8714   -1.0720   -1.2301 H   0  0  0  0  0  0  0  0  0  0  0  0
   -2.5239   -3.8133   -1.2767 H   0  0  0  0  0  0  0  0  0  0  0  0
   -4.2400   -3.4540   -1.0052 H   0  0  0  0  0  0  0  0  0  0  0  0
   -3.5085   -3.1396   -2.5891 H   0  0  0  0  0  0  0  0  0  0  0  0
   -2.9347   -2.5717    1.3468 N   0  0  0  0  0  0  0  0  0  0  0  0
   -2.4417   -2.5749    2.7207 C   0  0  0  0  0  0  0  0  0  0  0  0
   -3.2401   -3.4549    0.9481 H   0  0  0  0  0  0  0  0  0  0  0  0
   -2.8790   -3.4100    3.2764 H   0  0  0  0  0  0  0  0  0  0  0  0
   -1.3517   -2.6805    2.7376 H   0  0  0  0  0  0  0  0  0  0  0  0
   -2.7131   -1.6456    3.2327 H   0  0  0  0  0  0  0  0  0  0  0  0
  1  2  2  0  0  0  0
  1  3  1  0  0  0  0
  1  7  1  0  0  0  0
  3  4  1  0  0  0  0
  3  5  1  0  0  0  0
  3  6  1  0  0  0  0
  7  8  1  0  0  0  0
  7 12  1  0  0  0  0
  8  9  1  0  0  0  0
  8 11  1  0  0  0  0
  8 13  1  0  0  0  0
  9 10  2  0  0  0  0
  9 17  1  0  0  0  0
 11 14  1  0  0  0  0
 11 15  1  0  0  0  0
 11 16  1  0  0  0  0
 17 18  1  0  0  0  0
 17 23  1  0  0  0  0
 18 19  1  0  0  0  0
 18 21  1  0  0  0  0
 18 24  1  0  0  0  0
 19 20  2  0  0  0  0
 19 28  1  0  0  0  0
 21 22  1  0  0  0  0
 21 25  1  0  0  0  0
 21 26  1  0  0  0  0
 22 27  1  0  0  0  0
 28 29  1  0  0  0  0
 28 33  1  0  0  0  0
 29 30  1  0  0  0  0
 29 32  1  0  0  0  0
 29 34  1  0  0  0  0
 30 31  2  0  0  0  0
 30 38  1  0  0  0  0
 32 35  1  0  0  0  0
 32 36  1  0  0  0  0
 32 37  1  0  0  0  0
 38 39  1  0  0  0  0
 38 40  1  0  0  0  0
 39 41  1  0  0  0  0
 39 42  1  0  0  0  0
 39 43  1  0  0  0  0
M  END
$$$$

  -OEChem-05262217303D

 43 42  0     1  0  0  0  0  0999 V2000
    3.3975   -2.1689    3.9364 C   0  0  0  0  0  0  0  0  0  0  0  0
    2.5424   -1.9531    4.7808 O   0  0  0  0  0  0  0  0  0  0  0  0
    4.5373   -3.1262    4.2300 C   0  0  0  0  0  0  0  0  0  0  0  0
    5.4943   -2.6114    4.1168 H   0  0  0  0  0  0  0  0  0  0  0  0
    4.4590   -3.5035    5.2535 H   0  0  0  0  0  0  0  0  0  0  0  0
    4.5021   -3.9721    3.5390 H   0  0  0  0  0  0  0  0  0  0  0  0
    3.3247   -1.5439    2.7094 N   0  0  0  0  0  0  0  0  0  0  0  0
    2.1864   -0.7292    2.2638 C   0  0  2  0  0  0  0  0  0  0  0  0
    1.9967   -0.7943    0.7326 C   0  0  0  0  0  0  0  0  0  0  0  0
    2.8899   -1.2732    0.0425 O   0  0  0  0  0  0  0  0  0  0  0  0
    2.4131    0.7159    2.7217 C   0  0  0  0  0  0  0  0  0  0  0  0
    3.9848   -1.8437    1.9924 H   0  0  0  0  0  0  0  0  0  0  0  0
    1.2665   -1.1108    2.7203 H   0  0  0  0  0  0  0  0  0  0  0  0
    3.3222    1.1238    2.2683 H   0  0  0  0  0  0  0  0  0  0  0  0
    1.5668    1.3482    2.4376 H   0  0  0  0  0  0  0  0  0  0  0  0
    2.5193    0.7564    3.8106 H   0  0  0  0  0  0  0  0  0  0  0  0
    0.8151   -0.3202    0.1810 N   0  0  0  0  0  0  0  0  0  0  0  0
    0.2931   -0.4802   -1.2036 C   0  0  2  0  0  0  0  0  0  0  0  0
   -0.8495   -1.5161   -1.2442 C   0  0  0  0  0  0  0  0  0  0  0  0
   -0.7503   -2.5610   -0.6126 O   0  0  0  0  0  0  0  0  0  0  0  0
    1.2728   -0.7393   -2.3654 C   0  0  0  0  0  0  0  0  0  0  0  0
    1.9294   -1.9990   -2.2682 O   0  0  0  0  0  0  0  0  0  0  0  0
    0.1246   -0.0589    0.8803 H   0  0  0  0  0  0  0  0  0  0  0  0
   -0.1589    0.4851   -1.4448 H   0  0  0  0  0  0  0  0  0  0  0  0
    2.0264    0.0548   -2.3826 H   0  0  0  0  0  0  0  0  0  0  0  0
    0.7287   -0.6981   -3.3147 H   0  0  0  0  0  0  0  0  0  0  0  0
    2.4419   -2.0083   -1.4222 H   0  0  0  0  0  0  0  0  0  0  0  0
   -2.1034   -1.1201   -1.6886 N   0  0  0  0  0  0  0  0  0  0  0  0
   -3.3609   -1.8933   -1.6099 C   0  0  2  0  0  0  0  0  0  0  0  0
   -3.9102   -2.0582   -0.1744 C   0  0  0  0  0  0  0  0  0  0  0  0
   -4.9752   -1.5342    0.1237 O   0  0  0  0  0  0  0  0  0  0  0  0
   -3.2356   -3.2487   -2.3227 C   0  0  0  0  0  0  0  0  0  0  0  0
   -2.1579   -0.2018   -2.1189 H   0  0  0  0  0  0  0  0  0  0  0  0
   -4.1189   -1.3237   -2.1576 H   0  0  0  0  0  0  0  0  0  0  0  0
   -2.5692   -3.9267   -1.7816 H   0  0  0  0  0  0  0  0  0  0  0  0
   -4.2184   -3.7253   -2.3942 H   0  0  0  0  0  0  0  0  0  0  0  0
   -2.8434   -3.1114   -3.3349 H   0  0  0  0  0  0  0  0  0  0  0  0
   -3.1933   -2.7346    0.7919 N   0  0  0  0  0  0  0  0  0  0  0  0
   -3.5988   -2.8344    2.1870 C   0  0  0  0  0  0  0  0  0  0  0  0
   -2.2525   -3.0344    0.5199 H   0  0  0  0  0  0  0  0  0  0  0  0
   -2.8971   -3.4679    2.7382 H   0  0  0  0  0  0  0  0  0  0  0  0
   -3.6145   -1.8439    2.6534 H   0  0  0  0  0  0  0  0  0  0  0  0
   -4.5972   -3.2776    2.2652 H   0  0  0  0  0  0  0  0  0  0  0  0
  1  2  2  0  0  0  0
  1  3  1  0  0  0  0
  1  7  1  0  0  0  0
  3  4  1  0  0  0  0
  3  5  1  0  0  0  0
  3  6  1  0  0  0  0
  7  8  1  0  0  0  0
  7 12  1  0  0  0  0
  8  9  1  0  0  0  0
  8 11  1  0  0  0  0
  8 13  1  0  0  0  0
  9 10  2  0  0  0  0
  9 17  1  0  0  0  0
 11 14  1  0  0  0  0
 11 15  1  0  0  0  0
 11 16  1  0  0  0  0
 17 18  1  0  0  0  0
 17 23  1  0  0  0  0
 18 19  1  0  0  0  0
 18 21  1  0  0  0  0
 18 24  1  0  0  0  0
 19 20  2  0  0  0  0
 19 28  1  0  0  0  0
 21 22  1  0  0  0  0
 21 25  1  0  0  0  0
 21 26  1  0  0  0  0
 22 27  1  0  0  0  0
 28 29  1  0  0  0  0
 28 33  1  0  0  0  0
 29 30  1  0  0  0  0
 29 32  1  0  0  0  0
 29 34  1  0  0  0  0
 30 31  2  0  0  0  0
 30 38  1  0  0  0  0
 32 35  1  0  0  0  0
 32 36  1  0  0  0  0
 32 37  1  0  0  0  0
 38 39  1  0  0  0  0
 38 40  1  0  0  0  0
 39 41  1  0  0  0  0
 39 42  1  0  0  0  0
 39 43  1  0  0  0  0
M  END
$$$$

  -OEChem-05262217303D

 43 42  0     1  0  0  0  0  0999 V2000
    3.4959   -2.1070    3.9544 C   0  0  0  0  0  0  0  0  0  0  0  0
    2.6341   -1.9286    4.8006 O   0  0  0  0  0  0  0  0  0  0  0  0
    4.6876   -2.9962    4.2560 C   0  0  0  0  0  0  0  0  0  0  0  0
    5.6108   -2.4148    4.1962 H   0  0  0  0  0  0  0  0  0  0  0  0
    4.6001   -3.4160    5.2621 H   0  0  0  0  0  0  0  0  0  0  0  0
    4.7342   -3.8164    3.5355 H   0  0  0  0  0  0  0  0  0  0  0  0
    3.3849   -1.4998    2.7210 N   0  0  0  0  0  0  0  0  0  0  0  0
    2.2128   -0.7312    2.2800 C   0  0  2  0  0  0  0  0  0  0  0  0
    2.0200   -0.7869    0.7485 C   0  0  0  0  0  0  0  0  0  0  0  0
    2.9305   -1.2163    0.0480 O   0  0  0  0  0  0  0  0  0  0  0  0
    2.3815    0.7184    2.7488 C   0  0  0  0  0  0  0  0  0  0  0  0
    4.0643   -1.7592    2.0066 H   0  0  0  0  0  0  0  0  0  0  0  0
    1.3104   -1.1551    2.7343 H   0  0  0  0  0  0  0  0  0  0  0  0
    3.2792    1.1618    2.3060 H   0  0  0  0  0  0  0  0  0  0  0  0
    1.5151    1.3214    2.4614 H   0  0  0  0  0  0  0  0  0  0  0  0
    2.4773    0.7553    3.8387 H   0  0  0  0  0  0  0  0  0  0  0  0
    0.8188   -0.3494    0.2088 N   0  0  0  0  0  0  0  0  0  0  0  0
    0.2907   -0.5100   -1.1736 C   0  0  2  0  0  0  0  0  0  0  0  0
   -0.8169   -1.5835   -1.2280 C   0  0  0  0  0  0  0  0  0  0  0  0
   -0.8105   -2.5073   -0.4221 O   0  0  0  0  0  0  0  0  0  0  0  0
    1.2725   -0.7334   -2.3392 C   0  0  0  0  0  0  0  0  0  0  0  0
    1.9563   -1.9786   -2.2457 O   0  0  0  0  0  0  0  0  0  0  0  0
    0.1160   -0.1528    0.9171 H   0  0  0  0  0  0  0  0  0  0  0  0
   -0.1955    0.4424   -1.4004 H   0  0  0  0  0  0  0  0  0  0  0  0
    2.0068    0.0785   -2.3514 H   0  0  0  0  0  0  0  0  0  0  0  0
    0.7272   -0.6994   -3.2880 H   0  0  0  0  0  0  0  0  0  0  0  0
    2.4903   -1.9663   -1.4129 H   0  0  0  0  0  0  0  0  0  0  0  0
   -1.9781   -1.3221   -1.9416 N   0  0  0  0  0  0  0  0  0  0  0  0
   -3.2062   -2.1440   -1.9774 C   0  0  2  0  0  0  0  0  0  0  0  0
   -4.0165   -2.1380   -0.6603 C   0  0  0  0  0  0  0  0  0  0  0  0
   -5.1539   -1.6861   -0.6585 O   0  0  0  0  0  0  0  0  0  0  0  0
   -2.9081   -3.5770   -2.4431 C   0  0  0  0  0  0  0  0  0  0  0  0
   -1.9597   -0.5029   -2.5417 H   0  0  0  0  0  0  0  0  0  0  0  0
   -3.8618   -1.7005   -2.7342 H   0  0  0  0  0  0  0  0  0  0  0  0
   -2.3386   -4.1323   -1.6922 H   0  0  0  0  0  0  0  0  0  0  0  0
   -3.8447   -4.1138   -2.6235 H   0  0  0  0  0  0  0  0  0  0  0  0
   -2.3327   -3.5625   -3.3737 H   0  0  0  0  0  0  0  0  0  0  0  0
   -3.4685   -2.5912    0.5231 N   0  0  0  0  0  0  0  0  0  0  0  0
   -4.1509   -2.5422    1.8088 C   0  0  0  0  0  0  0  0  0  0  0  0
   -2.4825   -2.8649    0.4851 H   0  0  0  0  0  0  0  0  0  0  0  0
   -3.5161   -2.9723    2.5893 H   0  0  0  0  0  0  0  0  0  0  0  0
   -4.3825   -1.5072    2.0800 H   0  0  0  0  0  0  0  0  0  0  0  0
   -5.0839   -3.1138    1.7692 H   0  0  0  0  0  0  0  0  0  0  0  0
  1  2  2  0  0  0  0
  1  3  1  0  0  0  0
  1  7  1  0  0  0  0
  3  4  1  0  0  0  0
  3  5  1  0  0  0  0
  3  6  1  0  0  0  0
  7  8  1  0  0  0  0
  7 12  1  0  0  0  0
  8  9  1  0  0  0  0
  8 11  1  0  0  0  0
  8 13  1  0  0  0  0
  9 10  2  0  0  0  0
  9 17  1  0  0  0  0
 11 14  1  0  0  0  0
 11 15  1  0  0  0  0
 11 16  1  0  0  0  0
 17 18  1  0  0  0  0
 17 23  1  0  0  0  0
 18 19  1  0  0  0  0
 18 21  1  0  0  0  0
 18 24  1  0  0  0  0
 19 20  2  0  0  0  0
 19 28  1  0  0  0  0
 21 22  1  0  0  0  0
 21 25  1  0  0  0  0
 21 26  1  0  0  0  0
 22 27  1  0  0  0  0
 28 29  1  0  0  0  0
 28 33  1  0  0  0  0
 29 30  1  0  0  0  0
 29 32  1  0  0  0  0
 29 34  1  0  0  0  0
 30 31  2  0  0  0  0
 30 38  1  0  0  0  0
 32 35  1  0  0  0  0
 32 36  1  0  0  0  0
 32 37  1  0  0  0  0
 38 39  1  0  0  0  0
 38 40  1  0  0  0  0
 39 41  1  0  0  0  0
 39 42  1  0  0  0  0
 39 43  1  0  0  0  0
M  END
$$$$

  -OEChem-05262217303D

 43 42  0     1  0  0  0  0  0999 V2000
    3.5806   -2.0840    3.9372 C   0  0  0  0  0  0  0  0  0  0  0  0
    2.7166   -1.9721    4.7923 O   0  0  0  0  0  0  0  0  0  0  0  0
    4.8093   -2.9343    4.1993 C   0  0  0  0  0  0  0  0  0  0  0  0
    5.7068   -2.3116    4.1714 H   0  0  0  0  0  0  0  0  0  0  0  0
    4.7380   -3.4062    5.1833 H   0  0  0  0  0  0  0  0  0  0  0  0
    4.8926   -3.7154    3.4395 H   0  0  0  0  0  0  0  0  0  0  0  0
    3.4392   -1.4385    2.7271 N   0  0  0  0  0  0  0  0  0  0  0  0
    2.2304   -0.7158    2.3093 C   0  0  2  0  0  0  0  0  0  0  0  0
    2.0368   -0.7544    0.7771 C   0  0  0  0  0  0  0  0  0  0  0  0
    2.9640   -1.1364    0.0705 O   0  0  0  0  0  0  0  0  0  0  0  0
    2.3380    0.7305    2.8041 C   0  0  0  0  0  0  0  0  0  0  0  0
    4.1250   -1.6472    2.0025 H   0  0  0  0  0  0  0  0  0  0  0  0
    1.3498   -1.1871    2.7598 H   0  0  0  0  0  0  0  0  0  0  0  0
    3.2082    1.2233    2.3589 H   0  0  0  0  0  0  0  0  0  0  0  0
    1.4409    1.2974    2.5385 H   0  0  0  0  0  0  0  0  0  0  0  0
    2.4460    0.7512    3.8933 H   0  0  0  0  0  0  0  0  0  0  0  0
    0.8196   -0.3596    0.2406 N   0  0  0  0  0  0  0  0  0  0  0  0
    0.2919   -0.5431   -1.1402 C   0  0  2  0  0  0  0  0  0  0  0  0
   -0.7806   -1.6534   -1.1917 C   0  0  0  0  0  0  0  0  0  0  0  0
   -0.9102   -2.4178   -0.2412 O   0  0  0  0  0  0  0  0  0  0  0  0
    1.2814   -0.7471   -2.3033 C   0  0  0  0  0  0  0  0  0  0  0  0
    1.9962   -1.9741   -2.1960 O   0  0  0  0  0  0  0  0  0  0  0  0
    0.1050   -0.2193    0.9514 H   0  0  0  0  0  0  0  0  0  0  0  0
   -0.2275    0.3902   -1.3727 H   0  0  0  0  0  0  0  0  0  0  0  0
    1.9931    0.0847   -2.3211 H   0  0  0  0  0  0  0  0  0  0  0  0
    0.7388   -0.7353   -3.2538 H   0  0  0  0  0  0  0  0  0  0  0  0
    2.5474   -1.9282   -1.3755 H   0  0  0  0  0  0  0  0  0  0  0  0
   -1.7942   -1.5770   -2.1366 N   0  0  0  0  0  0  0  0  0  0  0  0
   -2.9738   -2.4608   -2.2542 C   0  0  2  0  0  0  0  0  0  0  0  0
   -4.0274   -2.2721   -1.1388 C   0  0  0  0  0  0  0  0  0  0  0  0
   -5.1620   -1.9227   -1.4365 O   0  0  0  0  0  0  0  0  0  0  0  0
   -2.5630   -3.9352   -2.3850 C   0  0  0  0  0  0  0  0  0  0  0  0
   -1.6641   -0.8897   -2.8732 H   0  0  0  0  0  0  0  0  0  0  0  0
   -3.4768   -2.1937   -3.1895 H   0  0  0  0  0  0  0  0  0  0  0  0
   -2.1327   -4.3154   -1.4541 H   0  0  0  0  0  0  0  0  0  0  0  0
   -3.4378   -4.5462   -2.6284 H   0  0  0  0  0  0  0  0  0  0  0  0
   -1.8247   -4.0551   -3.1835 H   0  0  0  0  0  0  0  0  0  0  0  0
   -3.7055   -2.4622    0.1898 N   0  0  0  0  0  0  0  0  0  0  0  0
   -4.6329   -2.2518    1.2926 C   0  0  0  0  0  0  0  0  0  0  0  0
   -2.7237   -2.6737    0.3877 H   0  0  0  0  0  0  0  0  0  0  0  0
   -4.1518   -2.5017    2.2429 H   0  0  0  0  0  0  0  0  0  0  0  0
   -4.9531   -1.2055    1.3295 H   0  0  0  0  0  0  0  0  0  0  0  0
   -5.5173   -2.8868    1.1759 H   0  0  0  0  0  0  0  0  0  0  0  0
  1  2  2  0  0  0  0
  1  3  1  0  0  0  0
  1  7  1  0  0  0  0
  3  4  1  0  0  0  0
  3  5  1  0  0  0  0
  3  6  1  0  0  0  0
  7  8  1  0  0  0  0
  7 12  1  0  0  0  0
  8  9  1  0  0  0  0
  8 11  1  0  0  0  0
  8 13  1  0  0  0  0
  9 10  2  0  0  0  0
  9 17  1  0  0  0  0
 11 14  1  0  0  0  0
 11 15  1  0  0  0  0
 11 16  1  0  0  0  0
 17 18  1  0  0  0  0
 17 23  1  0  0  0  0
 18 19  1  0  0  0  0
 18 21  1  0  0  0  0
 18 24  1  0  0  0  0
 19 20  2  0  0  0  0
 19 28  1  0  0  0  0
 21 22  1  0  0  0  0
 21 25  1  0  0  0  0
 21 26  1  0  0  0  0
 22 27  1  0  0  0  0
 28 29  1  0  0  0  0
 28 33  1  0  0  0  0
 29 30  1  0  0  0  0
 29 32  1  0  0  0  0
 29 34  1  0  0  0  0
 30 31  2  0  0  0  0
 30 38  1  0  0  0  0
 32 35  1  0  0  0  0
 32 36  1  0  0  0  0
 32 37  1  0  0  0  0
 38 39  1  0  0  0  0
 38 40  1  0  0  0  0
 39 41  1  0  0  0  0
 39 42  1  0  0  0  0
 39 43  1  0  0  0  0
M  END
$$$$

  -OEChem-05262217303D

 43 42  0     1  0  0  0  0  0999 V2000
    3.6558   -2.0448    3.9330 C   0  0  0  0  0  0  0  0  0  0  0  0
    2.7820   -1.9895    4.7836 O   0  0  0  0  0  0  0  0  0  0  0  0
    4.9229   -2.8386    4.1899 C   0  0  0  0  0  0  0  0  0  0  0  0
    5.7887   -2.1718    4.1834 H   0  0  0  0  0  0  0  0  0  0  0  0
    4.8671   -3.3339    5.1634 H   0  0  0  0  0  0  0  0  0  0  0  0
    5.0507   -3.5989    3.4154 H   0  0  0  0  0  0  0  0  0  0  0  0
    3.4906   -1.3883    2.7319 N   0  0  0  0  0  0  0  0  0  0  0  0
    2.2468   -0.7272    2.3151 C   0  0  2  0  0  0  0  0  0  0  0  0
    2.0624   -0.7539    0.7812 C   0  0  0  0  0  0  0  0  0  0  0  0
    2.9948   -1.1229    0.0740 O   0  0  0  0  0  0  0  0  0  0  0  0
    2.2701    0.7148    2.8344 C   0  0  0  0  0  0  0  0  0  0  0  0
    4.1893   -1.5542    2.0088 H   0  0  0  0  0  0  0  0  0  0  0  0
    1.3909   -1.2538    2.7522 H   0  0  0  0  0  0  0  0  0  0  0  0
    3.1127    1.2644    2.4027 H   0  0  0  0  0  0  0  0  0  0  0  0
    1.3434    1.2347    2.5739 H   0  0  0  0  0  0  0  0  0  0  0  0
    2.3718    0.7232    3.9244 H   0  0  0  0  0  0  0  0  0  0  0  0
    0.8414   -0.3718    0.2452 N   0  0  0  0  0  0  0  0  0  0  0  0
    0.3047   -0.5687   -1.1301 C   0  0  2  0  0  0  0  0  0  0  0  0
   -0.7618   -1.6866   -1.1525 C   0  0  0  0  0  0  0  0  0  0  0  0
   -1.0428   -2.2695   -0.1097 O   0  0  0  0  0  0  0  0  0  0  0  0
    1.2945   -0.7825   -2.2920 C   0  0  0  0  0  0  0  0  0  0  0  0
    2.0086   -2.0083   -2.1689 O   0  0  0  0  0  0  0  0  0  0  0  0
    0.1225   -0.2642    0.9581 H   0  0  0  0  0  0  0  0  0  0  0  0
   -0.2255    0.3563   -1.3728 H   0  0  0  0  0  0  0  0  0  0  0  0
    2.0068    0.0486   -2.3173 H   0  0  0  0  0  0  0  0  0  0  0  0
    0.7550   -0.7797   -3.2442 H   0  0  0  0  0  0  0  0  0  0  0  0
    2.5754   -1.9425   -1.3604 H   0  0  0  0  0  0  0  0  0  0  0  0
   -1.6009   -1.8212   -2.2494 N   0  0  0  0  0  0  0  0  0  0  0  0
   -2.7107   -2.7851   -2.4107 C   0  0  2  0  0  0  0  0  0  0  0  0
   -3.9600   -2.4931   -1.5469 C   0  0  0  0  0  0  0  0  0  0  0  0
   -5.0562   -2.4098   -2.0848 O   0  0  0  0  0  0  0  0  0  0  0  0
   -2.2268   -4.2284   -2.2101 C   0  0  0  0  0  0  0  0  0  0  0  0
   -1.3221   -1.3077   -3.0804 H   0  0  0  0  0  0  0  0  0  0  0  0
   -3.0442   -2.7083   -3.4508 H   0  0  0  0  0  0  0  0  0  0  0  0
   -1.9760   -4.4230   -1.1634 H   0  0  0  0  0  0  0  0  0  0  0  0
   -3.0114   -4.9312   -2.5073 H   0  0  0  0  0  0  0  0  0  0  0  0
   -1.3405   -4.4209   -2.8221 H   0  0  0  0  0  0  0  0  0  0  0  0
   -3.8656   -2.3183   -0.1809 N   0  0  0  0  0  0  0  0  0  0  0  0
   -5.0053   -2.0876    0.6955 C   0  0  0  0  0  0  0  0  0  0  0  0
   -2.9287   -2.4089    0.2205 H   0  0  0  0  0  0  0  0  0  0  0  0
   -4.6661   -1.9488    1.7263 H   0  0  0  0  0  0  0  0  0  0  0  0
   -5.5513   -1.1899    0.3877 H   0  0  0  0  0  0  0  0  0  0  0  0
   -5.6874   -2.9434    0.6676 H   0  0  0  0  0  0  0  0  0  0  0  0
  1  2  2  0  0  0  0
  1  3  1  0  0  0  0
  1  7  1  0  0  0  0
  3  4  1  0  0  0  0
  3  5  1  0  0  0  0
  3  6  1  0  0  0  0
  7  8  1  0  0  0  0
  7 12  1  0  0  0  0
  8  9  1  0  0  0  0
  8 11  1  0  0  0  0
  8 13  1  0  0  0  0
  9 10  2  0  0  0  0
  9 17  1  0  0  0  0
 11 14  1  0  0  0  0
 11 15  1  0  0  0  0
 11 16  1  0  0  0  0
 17 18  1  0  0  0  0
 17 23  1  0  0  0  0
 18 19  1  0  0  0  0
 18 21  1  0  0  0  0
 18 24  1  0  0  0  0
 19 20  2  0  0  0  0
 19 28  1  0  0  0  0
 21 22  1  0  0  0  0
 21 25  1  0  0  0  0
 21 26  1  0  0  0  0
 22 27  1  0  0  0  0
 28 29  1  0  0  0  0
 28 33  1  0  0  0  0
 29 30  1  0  0  0  0
 29 32  1  0  0  0  0
 29 34  1  0  0  0  0
 30 31  2  0  0  0  0
 30 38  1  0  0  0  0
 32 35  1  0  0  0  0
 32 36  1  0  0  0  0
 32 37  1  0  0  0  0
 38 39  1  0  0  0  0
 38 40  1  0  0  0  0
 39 41  1  0  0  0  0
 39 42  1  0  0  0  0
 39 43  1  0  0  0  0
M  END
$$$$

  -OEChem-05262217303D

 43 42  0     1  0  0  0  0  0999 V2000
    3.6574   -1.8906    4.0417 C   0  0  0  0  0  0  0  0  0  0  0  0
    2.8075   -1.7332    4.9035 O   0  0  0  0  0  0  0  0  0  0  0  0
    4.9236   -2.6664    4.3522 C   0  0  0  0  0  0  0  0  0  0  0  0
    5.7914   -2.0062    4.2820 H   0  0  0  0  0  0  0  0  0  0  0  0
    4.8748   -3.0780    5.3641 H   0  0  0  0  0  0  0  0  0  0  0  0
    5.0418   -3.4896    3.6435 H   0  0  0  0  0  0  0  0  0  0  0  0
    3.4672   -1.3601    2.7830 N   0  0  0  0  0  0  0  0  0  0  0  0
    2.2379   -0.6856    2.3435 C   0  0  2  0  0  0  0  0  0  0  0  0
    2.0159   -0.8135    0.8200 C   0  0  0  0  0  0  0  0  0  0  0  0
    2.9118   -1.2784    0.1225 O   0  0  0  0  0  0  0  0  0  0  0  0
    2.3248    0.7893    2.7518 C   0  0  0  0  0  0  0  0  0  0  0  0
    4.1458   -1.6031    2.0625 H   0  0  0  0  0  0  0  0  0  0  0  0
    1.3749   -1.1458    2.8376 H   0  0  0  0  0  0  0  0  0  0  0  0
    3.1778    1.2726    2.2647 H   0  0  0  0  0  0  0  0  0  0  0  0
    1.4123    1.3219    2.4680 H   0  0  0  0  0  0  0  0  0  0  0  0
    2.4488    0.8765    3.8361 H   0  0  0  0  0  0  0  0  0  0  0  0
    0.7915   -0.4426    0.2844 N   0  0  0  0  0  0  0  0  0  0  0  0
    0.2644   -0.5905   -1.0992 C   0  0  2  0  0  0  0  0  0  0  0  0
   -1.0171   -1.4551   -1.0981 C   0  0  0  0  0  0  0  0  0  0  0  0
   -1.5653   -1.6968   -0.0263 O   0  0  0  0  0  0  0  0  0  0  0  0
    1.2327   -1.0577   -2.2017 C   0  0  0  0  0  0  0  0  0  0  0  0
    1.6638   -2.3958   -1.9709 O   0  0  0  0  0  0  0  0  0  0  0  0
    0.0711   -0.2878    0.9889 H   0  0  0  0  0  0  0  0  0  0  0  0
   -0.0540    0.4097   -1.4062 H   0  0  0  0  0  0  0  0  0  0  0  0
    2.1000   -0.3903   -2.2386 H   0  0  0  0  0  0  0  0  0  0  0  0
    0.7432   -1.0010   -3.1791 H   0  0  0  0  0  0  0  0  0  0  0  0
    2.2675   -2.3788   -1.1915 H   0  0  0  0  0  0  0  0  0  0  0  0
   -1.6861   -1.7317   -2.2813 N   0  0  0  0  0  0  0  0  0  0  0  0
   -2.9353   -2.5059   -2.4405 C   0  0  2  0  0  0  0  0  0  0  0  0
   -4.2091   -1.7984   -1.9241 C   0  0  0  0  0  0  0  0  0  0  0  0
   -5.1452   -1.6101   -2.6900 O   0  0  0  0  0  0  0  0  0  0  0  0
   -2.7999   -3.9099   -1.8340 C   0  0  0  0  0  0  0  0  0  0  0  0
   -1.1588   -1.5441   -3.1294 H   0  0  0  0  0  0  0  0  0  0  0  0
   -3.0859   -2.6420   -3.5165 H   0  0  0  0  0  0  0  0  0  0  0  0
   -2.7470   -3.8695   -0.7421 H   0  0  0  0  0  0  0  0  0  0  0  0
   -3.6652   -4.5209   -2.1098 H   0  0  0  0  0  0  0  0  0  0  0  0
   -1.8962   -4.4003   -2.2086 H   0  0  0  0  0  0  0  0  0  0  0  0
   -4.3121   -1.3710   -0.6156 N   0  0  0  0  0  0  0  0  0  0  0  0
   -5.4717   -0.6780   -0.0720 C   0  0  0  0  0  0  0  0  0  0  0  0
   -3.4802   -1.4993   -0.0337 H   0  0  0  0  0  0  0  0  0  0  0  0
   -5.3463   -0.5173    1.0030 H   0  0  0  0  0  0  0  0  0  0  0  0
   -5.5975    0.2953   -0.5573 H   0  0  0  0  0  0  0  0  0  0  0  0
   -6.3792   -1.2707   -0.2280 H   0  0  0  0  0  0  0  0  0  0  0  0
  1  2  2  0  0  0  0
  1  3  1  0  0  0  0
  1  7  1  0  0  0  0
  3  4  1  0  0  0  0
  3  5  1  0  0  0  0
  3  6  1  0  0  0  0
  7  8  1  0  0  0  0
  7 12  1  0  0  0  0
  8  9  1  0  0  0  0
  8 11  1  0  0  0  0
  8 13  1  0  0  0  0
  9 10  2  0  0  0  0
  9 17  1  0  0  0  0
 11 14  1  0  0  0  0
 11 15  1  0  0  0  0
 11 16  1  0  0  0  0
 17 18  1  0  0  0  0
 17 23  1  0  0  0  0
 18 19  1  0  0  0  0
 18 21  1  0  0  0  0
 18 24  1  0  0  0  0
 19 20  2  0  0  0  0
 19 28  1  0  0  0  0
 21 22  1  0  0  0  0
 21 25  1  0  0  0  0
 21 26  1  0  0  0  0
 22 27  1  0  0  0  0
 28 29  1  0  0  0  0
 28 33  1  0  0  0  0
 29 30  1  0  0  0  0
 29 32  1  0  0  0  0
 29 34  1  0  0  0  0
 30 31  2  0  0  0  0
 30 38  1  0  0  0  0
 32 35  1  0  0  0  0
 32 36  1  0  0  0  0
 32 37  1  0  0  0  0
 38 39  1  0  0  0  0
 38 40  1  0  0  0  0
 39 41  1  0  0  0  0
 39 42  1  0  0  0  0
 39 43  1  0  0  0  0
M  END
$$$$

  -OEChem-05262217303D

 43 42  0     1  0  0  0  0  0999 V2000
    3.6988   -1.8552    4.0430 C   0  0  0  0  0  0  0  0  0  0  0  0
    2.8475   -1.7160    4.9064 O   0  0  0  0  0  0  0  0  0  0  0  0
    4.9794   -2.6094    4.3484 C   0  0  0  0  0  0  0  0  0  0  0  0
    5.8368   -1.9371    4.2642 H   0  0  0  0  0  0  0  0  0  0  0  0
    4.9458   -3.0132    5.3641 H   0  0  0  0  0  0  0  0  0  0  0  0
    5.1032   -3.4369    3.6457 H   0  0  0  0  0  0  0  0  0  0  0  0
    3.4964   -1.3256    2.7858 N   0  0  0  0  0  0  0  0  0  0  0  0
    2.2551   -0.6703    2.3502 C   0  0  2  0  0  0  0  0  0  0  0  0
    2.0196   -0.8204    0.8307 C   0  0  0  0  0  0  0  0  0  0  0  0
    2.9138   -1.2815    0.1279 O   0  0  0  0  0  0  0  0  0  0  0  0
    2.3313    0.8104    2.7386 C   0  0  0  0  0  0  0  0  0  0  0  0
    4.1785   -1.5542    2.0640 H   0  0  0  0  0  0  0  0  0  0  0  0
    1.4007   -1.1327    2.8573 H   0  0  0  0  0  0  0  0  0  0  0  0
    3.1750    1.2942    2.2364 H   0  0  0  0  0  0  0  0  0  0  0  0
    1.4117    1.3320    2.4573 H   0  0  0  0  0  0  0  0  0  0  0  0
    2.4651    0.9123    3.8203 H   0  0  0  0  0  0  0  0  0  0  0  0
    0.7841   -0.4745    0.3044 N   0  0  0  0  0  0  0  0  0  0  0  0
    0.2487   -0.6265   -1.0749 C   0  0  2  0  0  0  0  0  0  0  0  0
   -1.0123   -1.5203   -1.0504 C   0  0  0  0  0  0  0  0  0  0  0  0
   -1.6686   -1.5684   -0.0139 O   0  0  0  0  0  0  0  0  0  0  0  0
    1.2186   -1.0547   -2.1926 C   0  0  0  0  0  0  0  0  0  0  0  0
    1.6923   -2.3811   -1.9803 O   0  0  0  0  0  0  0  0  0  0  0  0
    0.0702   -0.3016    1.0119 H   0  0  0  0  0  0  0  0  0  0  0  0
   -0.1019    0.3650   -1.3736 H   0  0  0  0  0  0  0  0  0  0  0  0
    2.0672   -0.3632   -2.2284 H   0  0  0  0  0  0  0  0  0  0  0  0
    0.7194   -0.9979   -3.1649 H   0  0  0  0  0  0  0  0  0  0  0  0
    2.3059   -2.3507   -1.2082 H   0  0  0  0  0  0  0  0  0  0  0  0
   -1.5269   -2.0746   -2.2126 N   0  0  0  0  0  0  0  0  0  0  0  0
   -2.7326   -2.9204   -2.3410 C   0  0  2  0  0  0  0  0  0  0  0  0
   -4.0755   -2.1850   -2.1218 C   0  0  0  0  0  0  0  0  0  0  0  0
   -4.9338   -2.2276   -2.9934 O   0  0  0  0  0  0  0  0  0  0  0  0
   -2.6353   -4.1655   -1.4484 C   0  0  0  0  0  0  0  0  0  0  0  0
   -0.8767   -2.0930   -2.9950 H   0  0  0  0  0  0  0  0  0  0  0  0
   -2.7556   -3.2769   -3.3761 H   0  0  0  0  0  0  0  0  0  0  0  0
   -2.7054   -3.9035   -0.3887 H   0  0  0  0  0  0  0  0  0  0  0  0
   -3.4509   -4.8569   -1.6820 H   0  0  0  0  0  0  0  0  0  0  0  0
   -1.6853   -4.6811   -1.6184 H   0  0  0  0  0  0  0  0  0  0  0  0
   -4.3295   -1.4813   -0.9616 N   0  0  0  0  0  0  0  0  0  0  0  0
   -5.5619   -0.7503   -0.7015 C   0  0  0  0  0  0  0  0  0  0  0  0
   -3.5632   -1.4380   -0.2850 H   0  0  0  0  0  0  0  0  0  0  0  0
   -5.5378   -0.3171    0.3029 H   0  0  0  0  0  0  0  0  0  0  0  0
   -5.6865    0.0598   -1.4275 H   0  0  0  0  0  0  0  0  0  0  0  0
   -6.4263   -1.4193   -0.7671 H   0  0  0  0  0  0  0  0  0  0  0  0
  1  2  2  0  0  0  0
  1  3  1  0  0  0  0
  1  7  1  0  0  0  0
  3  4  1  0  0  0  0
  3  5  1  0  0  0  0
  3  6  1  0  0  0  0
  7  8  1  0  0  0  0
  7 12  1  0  0  0  0
  8  9  1  0  0  0  0
  8 11  1  0  0  0  0
  8 13  1  0  0  0  0
  9 10  2  0  0  0  0
  9 17  1  0  0  0  0
 11 14  1  0  0  0  0
 11 15  1  0  0  0  0
 11 16  1  0  0  0  0
 17 18  1  0  0  0  0
 17 23  1  0  0  0  0
 18 19  1  0  0  0  0
 18 21  1  0  0  0  0
 18 24  1  0  0  0  0
 19 20  2  0  0  0  0
 19 28  1  0  0  0  0
 21 22  1  0  0  0  0
 21 25  1  0  0  0  0
 21 26  1  0  0  0  0
 22 27  1  0  0  0  0
 28 29  1  0  0  0  0
 28 33  1  0  0  0  0
 29 30  1  0  0  0  0
 29 32  1  0  0  0  0
 29 34  1  0  0  0  0
 30 31  2  0  0  0  0
 30 38  1  0  0  0  0
 32 35  1  0  0  0  0
 32 36  1  0  0  0  0
 32 37  1  0  0  0  0
 38 39  1  0  0  0  0
 38 40  1  0  0  0  0
 39 41  1  0  0  0  0
 39 42  1  0  0  0  0
 39 43  1  0  0  0  0
M  END
$$$$

  -OEChem-05262217303D

 43 42  0     1  0  0  0  0  0999 V2000
    3.7685   -1.7975    4.0613 C   0  0  0  0  0  0  0  0  0  0  0  0
    2.9425   -1.6211    4.9423 O   0  0  0  0  0  0  0  0  0  0  0  0
    5.0482   -2.5576    4.3553 C   0  0  0  0  0  0  0  0  0  0  0  0
    5.9094   -1.8948    4.2425 H   0  0  0  0  0  0  0  0  0  0  0  0
    5.0323   -2.9429    5.3787 H   0  0  0  0  0  0  0  0  0  0  0  0
    5.1511   -3.3982    3.6649 H   0  0  0  0  0  0  0  0  0  0  0  0
    3.5384   -1.3048    2.7941 N   0  0  0  0  0  0  0  0  0  0  0  0
    2.2905   -0.6547    2.3702 C   0  0  2  0  0  0  0  0  0  0  0  0
    2.0132   -0.8536    0.8635 C   0  0  0  0  0  0  0  0  0  0  0  0
    2.8847   -1.3450    0.1531 O   0  0  0  0  0  0  0  0  0  0  0  0
    2.3869    0.8371    2.7070 C   0  0  0  0  0  0  0  0  0  0  0  0
    4.1992   -1.5635    2.0628 H   0  0  0  0  0  0  0  0  0  0  0  0
    1.4471   -1.0927    2.9153 H   0  0  0  0  0  0  0  0  0  0  0  0
    3.2184    1.2990    2.1653 H   0  0  0  0  0  0  0  0  0  0  0  0
    1.4621    1.3548    2.4357 H   0  0  0  0  0  0  0  0  0  0  0  0
    2.5529    0.9743    3.7803 H   0  0  0  0  0  0  0  0  0  0  0  0
    0.7682   -0.5159    0.3536 N   0  0  0  0  0  0  0  0  0  0  0  0
    0.2200   -0.6591   -1.0208 C   0  0  2  0  0  0  0  0  0  0  0  0
   -1.0287   -1.5676   -0.9817 C   0  0  0  0  0  0  0  0  0  0  0  0
   -1.7890   -1.4576   -0.0248 O   0  0  0  0  0  0  0  0  0  0  0  0
    1.1771   -1.0618   -2.1598 C   0  0  0  0  0  0  0  0  0  0  0  0
    1.6710   -2.3859   -1.9741 O   0  0  0  0  0  0  0  0  0  0  0  0
    0.0716   -0.2921    1.0640 H   0  0  0  0  0  0  0  0  0  0  0  0
   -0.1473    0.3311   -1.3053 H   0  0  0  0  0  0  0  0  0  0  0  0
    2.0168   -0.3599   -2.2009 H   0  0  0  0  0  0  0  0  0  0  0  0
    0.6580   -0.9970   -3.1216 H   0  0  0  0  0  0  0  0  0  0  0  0
    2.2904   -2.3604   -1.2051 H   0  0  0  0  0  0  0  0  0  0  0  0
   -1.3816   -2.3631   -2.0603 N   0  0  0  0  0  0  0  0  0  0  0  0
   -2.5368   -3.2799   -2.1574 C   0  0  2  0  0  0  0  0  0  0  0  0
   -3.9177   -2.5882   -2.2395 C   0  0  0  0  0  0  0  0  0  0  0  0
   -4.6892   -2.8889   -3.1408 O   0  0  0  0  0  0  0  0  0  0  0  0
   -2.5136   -4.3239   -1.0321 C   0  0  0  0  0  0  0  0  0  0  0  0
   -0.6236   -2.5142   -2.7255 H   0  0  0  0  0  0  0  0  0  0  0  0
   -2.4226   -3.8272   -3.0991 H   0  0  0  0  0  0  0  0  0  0  0  0
   -2.7274   -3.8677   -0.0612 H   0  0  0  0  0  0  0  0  0  0  0  0
   -3.2699   -5.0924   -1.2204 H   0  0  0  0  0  0  0  0  0  0  0  0
   -1.5335   -4.8078   -0.9822 H   0  0  0  0  0  0  0  0  0  0  0  0
   -4.3056   -1.6443   -1.3097 N   0  0  0  0  0  0  0  0  0  0  0  0
   -5.5939   -0.9655   -1.3192 C   0  0  0  0  0  0  0  0  0  0  0  0
   -3.6260   -1.4293   -0.5760 H   0  0  0  0  0  0  0  0  0  0  0  0
   -5.6804   -0.3092   -0.4479 H   0  0  0  0  0  0  0  0  0  0  0  0
   -5.6994   -0.3575   -2.2235 H   0  0  0  0  0  0  0  0  0  0  0  0
   -6.4115   -1.6932   -1.2862 H   0  0  0  0  0  0  0  0  0  0  0  0
  1  2  2  0  0  0  0
  1  3  1  0  0  0  0
  1  7  1  0  0  0  0
  3  4  1  0  0  0  0
  3  5  1  0  0  0  0
  3  6  1  0  0  0  0
  7  8  1  0  0  0  0
  7 12  1  0  0  0  0
  8  9  1  0  0  0  0
  8 11  1  0  0  0  0
  8 13  1  0  0  0  0
  9 10  2  0  0  0  0
  9 17  1  0  0  0  0
 11 14  1  0  0  0  0
 11 15  1  0  0  0  0
 11 16  1  0  0  0  0
 17 18  1  0  0  0  0
 17 23  1  0  0  0  0
 18 19  1  0  0  0  0
 18 21  1  0  0  0  0
 18 24  1  0  0  0  0
 19 20  2  0  0  0  0
 19 28  1  0  0  0  0
 21 22  1  0  0  0  0
 21 25  1  0  0  0  0
 21 26  1  0  0  0  0
 22 27  1  0  0  0  0
 28 29  1  0  0  0  0
 28 33  1  0  0  0  0
 29 30  1  0  0  0  0
 29 32  1  0  0  0  0
 29 34  1  0  0  0  0
 30 31  2  0  0  0  0
 30 38  1  0  0  0  0
 32 35  1  0  0  0  0
 32 36  1  0  0  0  0
 32 37  1  0  0  0  0
 38 39  1  0  0  0  0
 38 40  1  0  0  0  0
 39 41  1  0  0  0  0
 39 42  1  0  0  0  0
 39 43  1  0  0  0  0
M  END
$$$$

  -OEChem-05262217303D

 43 42  0     1  0  0  0  0  0999 V2000
    3.7570   -1.7507    4.0489 C   0  0  0  0  0  0  0  0  0  0  0  0
    2.9310   -1.5356    4.9212 O   0  0  0  0  0  0  0  0  0  0  0  0
    4.9985   -2.5662    4.3580 C   0  0  0  0  0  0  0  0  0  0  0  0
    5.8942   -1.9761    4.1496 H   0  0  0  0  0  0  0  0  0  0  0  0
    5.0063   -2.8568    5.4123 H   0  0  0  0  0  0  0  0  0  0  0  0
    5.0151   -3.4701    3.7442 H   0  0  0  0  0  0  0  0  0  0  0  0
    3.5574   -1.2603    2.7758 N   0  0  0  0  0  0  0  0  0  0  0  0
    2.3311   -0.5834    2.3313 C   0  0  2  0  0  0  0  0  0  0  0  0
    2.0355   -0.8409    0.8373 C   0  0  0  0  0  0  0  0  0  0  0  0
    2.8863   -1.3877    0.1424 O   0  0  0  0  0  0  0  0  0  0  0  0
    2.4850    0.9174    2.5992 C   0  0  0  0  0  0  0  0  0  0  0  0
    4.2094   -1.5600    2.0523 H   0  0  0  0  0  0  0  0  0  0  0  0
    1.4753   -0.9635    2.9006 H   0  0  0  0  0  0  0  0  0  0  0  0
    3.3320    1.3222    2.0360 H   0  0  0  0  0  0  0  0  0  0  0  0
    1.5796    1.4570    2.3049 H   0  0  0  0  0  0  0  0  0  0  0  0
    2.6586    1.0961    3.6653 H   0  0  0  0  0  0  0  0  0  0  0  0
    0.7925   -0.4995    0.3256 N   0  0  0  0  0  0  0  0  0  0  0  0
    0.2310   -0.6798   -1.0378 C   0  0  2  0  0  0  0  0  0  0  0  0
   -1.0297   -1.5643   -0.9513 C   0  0  0  0  0  0  0  0  0  0  0  0
   -1.8736   -1.2762   -0.1094 O   0  0  0  0  0  0  0  0  0  0  0  0
    1.1720   -1.1306   -2.1726 C   0  0  0  0  0  0  0  0  0  0  0  0
    1.6554   -2.4556   -1.9540 O   0  0  0  0  0  0  0  0  0  0  0  0
    0.1170   -0.1964    1.0265 H   0  0  0  0  0  0  0  0  0  0  0  0
   -0.1257    0.3054   -1.3521 H   0  0  0  0  0  0  0  0  0  0  0  0
    2.0181   -0.4389   -2.2443 H   0  0  0  0  0  0  0  0  0  0  0  0
    0.6393   -1.0909   -3.1288 H   0  0  0  0  0  0  0  0  0  0  0  0
    2.2827   -2.4134   -1.1915 H   0  0  0  0  0  0  0  0  0  0  0  0
   -1.2514   -2.6048   -1.8384 N   0  0  0  0  0  0  0  0  0  0  0  0
   -2.3565   -3.5855   -1.8101 C   0  0  2  0  0  0  0  0  0  0  0  0
   -3.7521   -3.0195   -2.1607 C   0  0  0  0  0  0  0  0  0  0  0  0
   -4.4643   -3.6247   -2.9510 O   0  0  0  0  0  0  0  0  0  0  0  0
   -2.3954   -4.3344   -0.4708 C   0  0  0  0  0  0  0  0  0  0  0  0
   -0.4223   -2.8614   -2.3787 H   0  0  0  0  0  0  0  0  0  0  0  0
   -2.1350   -4.3287   -2.5832 H   0  0  0  0  0  0  0  0  0  0  0  0
   -2.7147   -3.6773    0.3432 H   0  0  0  0  0  0  0  0  0  0  0  0
   -3.1009   -5.1692   -0.5300 H   0  0  0  0  0  0  0  0  0  0  0  0
   -1.4060   -4.7342   -0.2295 H   0  0  0  0  0  0  0  0  0  0  0  0
   -4.2300   -1.8637   -1.5759 N   0  0  0  0  0  0  0  0  0  0  0  0
   -5.5731   -1.3408   -1.7850 C   0  0  0  0  0  0  0  0  0  0  0  0
   -3.6267   -1.4364   -0.8688 H   0  0  0  0  0  0  0  0  0  0  0  0
   -6.3202   -2.0395   -1.3943 H   0  0  0  0  0  0  0  0  0  0  0  0
   -5.6885   -0.3828   -1.2692 H   0  0  0  0  0  0  0  0  0  0  0  0
   -5.7631   -1.1827   -2.8519 H   0  0  0  0  0  0  0  0  0  0  0  0
  1  2  2  0  0  0  0
  1  3  1  0  0  0  0
  1  7  1  0  0  0  0
  3  4  1  0  0  0  0
  3  5  1  0  0  0  0
  3  6  1  0  0  0  0
  7  8  1  0  0  0  0
  7 12  1  0  0  0  0
  8  9  1  0  0  0  0
  8 11  1  0  0  0  0
  8 13  1  0  0  0  0
  9 10  2  0  0  0  0
  9 17  1  0  0  0  0
 11 14  1  0  0  0  0
 11 15  1  0  0  0  0
 11 16  1  0  0  0  0
 17 18  1  0  0  0  0
 17 23  1  0  0  0  0
 18 19  1  0  0  0  0
 18 21  1  0  0  0  0
 18 24  1  0  0  0  0
 19 20  2  0  0  0  0
 19 28  1  0  0  0  0
 21 22  1  0  0  0  0
 21 25  1  0  0  0  0
 21 26  1  0  0  0  0
 22 27  1  0  0  0  0
 28 29  1  0  0  0  0
 28 33  1  0  0  0  0
 29 30  1  0  0  0  0
 29 32  1  0  0  0  0
 29 34  1  0  0  0  0
 30 31  2  0  0  0  0
 30 38  1  0  0  0  0
 32 35  1  0  0  0  0
 32 36  1  0  0  0  0
 32 37  1  0  0  0  0
 38 39  1  0  0  0  0
 38 40  1  0  0  0  0
 39 41  1  0  0  0  0
 39 42  1  0  0  0  0
 39 43  1  0  0  0  0
M  END
$$$$

  -OEChem-05262217303D

 43 42  0     1  0  0  0  0  0999 V2000
    3.7943   -1.7063    4.0787 C   0  0  0  0  0  0  0  0  0  0  0  0
    2.9899   -1.4523    4.9607 O   0  0  0  0  0  0  0  0  0  0  0  0
    5.0167   -2.5527    4.3803 C   0  0  0  0  0  0  0  0  0  0  0  0
    5.9263   -1.9846    4.1709 H   0  0  0  0  0  0  0  0  0  0  0  0
    5.0206   -2.8475    5.4334 H   0  0  0  0  0  0  0  0  0  0  0  0
    5.0079   -3.4541    3.7629 H   0  0  0  0  0  0  0  0  0  0  0  0
    3.5823   -1.2371    2.7994 N   0  0  0  0  0  0  0  0  0  0  0  0
    2.3631   -0.5420    2.3626 C   0  0  2  0  0  0  0  0  0  0  0  0
    2.0257   -0.8420    0.8854 C   0  0  0  0  0  0  0  0  0  0  0  0
    2.8656   -1.3901    0.1783 O   0  0  0  0  0  0  0  0  0  0  0  0
    2.5645    0.9623    2.5744 C   0  0  0  0  0  0  0  0  0  0  0  0
    4.2132   -1.5672    2.0701 H   0  0  0  0  0  0  0  0  0  0  0  0
    1.5121   -0.8790    2.9653 H   0  0  0  0  0  0  0  0  0  0  0  0
    3.4064    1.3241    1.9755 H   0  0  0  0  0  0  0  0  0  0  0  0
    1.6670    1.5176    2.2856 H   0  0  0  0  0  0  0  0  0  0  0  0
    2.7720    1.1716    3.6287 H   0  0  0  0  0  0  0  0  0  0  0  0
    0.7652   -0.5240    0.4017 N   0  0  0  0  0  0  0  0  0  0  0  0
    0.1799   -0.6912   -0.9539 C   0  0  2  0  0  0  0  0  0  0  0  0
   -1.0580   -1.6069   -0.8793 C   0  0  0  0  0  0  0  0  0  0  0  0
   -1.9851   -1.2539   -0.1597 O   0  0  0  0  0  0  0  0  0  0  0  0
    1.1185   -1.0833   -2.1143 C   0  0  0  0  0  0  0  0  0  0  0  0
    1.6576   -2.3948   -1.9408 O   0  0  0  0  0  0  0  0  0  0  0  0
    0.1124   -0.1942    1.1116 H   0  0  0  0  0  0  0  0  0  0  0  0
   -0.2068    0.2917   -1.2380 H   0  0  0  0  0  0  0  0  0  0  0  0
    1.9360   -0.3584   -2.1879 H   0  0  0  0  0  0  0  0  0  0  0  0
    0.5636   -1.0460   -3.0577 H   0  0  0  0  0  0  0  0  0  0  0  0
    2.2962   -2.3469   -1.1866 H   0  0  0  0  0  0  0  0  0  0  0  0
   -1.1271   -2.7988   -1.5805 N   0  0  0  0  0  0  0  0  0  0  0  0
   -2.1893   -3.8241   -1.5222 C   0  0  2  0  0  0  0  0  0  0  0  0
   -3.5595   -3.3895   -2.0934 C   0  0  0  0  0  0  0  0  0  0  0  0
   -4.1483   -4.1284   -2.8715 O   0  0  0  0  0  0  0  0  0  0  0  0
   -2.3447   -4.3722   -0.0972 C   0  0  0  0  0  0  0  0  0  0  0  0
   -0.2540   -3.0523   -2.0508 H   0  0  0  0  0  0  0  0  0  0  0  0
   -1.8559   -4.6566   -2.1508 H   0  0  0  0  0  0  0  0  0  0  0  0
   -2.7638   -3.6175    0.5748 H   0  0  0  0  0  0  0  0  0  0  0  0
   -3.0169   -5.2363   -0.1002 H   0  0  0  0  0  0  0  0  0  0  0  0
   -1.3744   -4.6902    0.2957 H   0  0  0  0  0  0  0  0  0  0  0  0
   -4.1507   -2.1978   -1.7231 N   0  0  0  0  0  0  0  0  0  0  0  0
   -5.4647   -1.7617   -2.1747 C   0  0  0  0  0  0  0  0  0  0  0  0
   -3.6419   -1.6375   -1.0352 H   0  0  0  0  0  0  0  0  0  0  0  0
   -5.7077   -0.7868   -1.7417 H   0  0  0  0  0  0  0  0  0  0  0  0
   -5.4841   -1.6703   -3.2656 H   0  0  0  0  0  0  0  0  0  0  0  0
   -6.2326   -2.4786   -1.8665 H   0  0  0  0  0  0  0  0  0  0  0  0
  1  2  2  0  0  0  0
  1  3  1  0  0  0  0
  1  7  1  0  0  0  0
  3  4  1  0  0  0  0
  3  5  1  0  0  0  0
  3  6  1  0  0  0  0
  7  8  1  0  0  0  0
  7 12  1  0  0  0  0
  8  9  1  0  0  0  0
  8 11  1  0  0  0  0
  8 13  1  0  0  0  0
  9 10  2  0  0  0  0
  9 17  1  0  0  0  0
 11 14  1  0  0  0  0
 11 15  1  0  0  0  0
 11 16  1  0  0  0  0
 17 18  1  0  0  0  0
 17 23  1  0  0  0  0
 18 19  1  0  0  0  0
 18 21  1  0  0  0  0
 18 24  1  0  0  0  0
 19 20  2  0  0  0  0
 19 28  1  0  0  0  0
 21 22  1  0  0  0  0
 21 25  1  0  0  0  0
 21 26  1  0  0  0  0
 22 27  1  0  0  0  0
 28 29  1  0  0  0  0
 28 33  1  0  0  0  0
 29 30  1  0  0  0  0
 29 32  1  0  0  0  0
 29 34  1  0  0  0  0
 30 31  2  0  0  0  0
 30 38  1  0  0  0  0
 32 35  1  0  0  0  0
 32 36  1  0  0  0  0
 32 37  1  0  0  0  0
 38 39  1  0  0  0  0
 38 40  1  0  0  0  0
 39 41  1  0  0  0  0
 39 42  1  0  0  0  0
 39 43  1  0  0  0  0
M  END
$$$$

  -OEChem-05262217303D

 43 42  0     1  0  0  0  0  0999 V2000
    3.8227   -1.6535    4.0818 C   0  0  0  0  0  0  0  0  0  0  0  0
    3.0218   -1.3701    4.9581 O   0  0  0  0  0  0  0  0  0  0  0  0
    5.0375   -2.5030    4.4044 C   0  0  0  0  0  0  0  0  0  0  0  0
    5.9516   -1.9459    4.1853 H   0  0  0  0  0  0  0  0  0  0  0  0
    5.0366   -2.7755    5.4637 H   0  0  0  0  0  0  0  0  0  0  0  0
    5.0236   -3.4173    3.8064 H   0  0  0  0  0  0  0  0  0  0  0  0
    3.6160   -1.2090    2.7926 N   0  0  0  0  0  0  0  0  0  0  0  0
    2.4088   -0.5000    2.3455 C   0  0  2  0  0  0  0  0  0  0  0  0
    2.0379   -0.8407    0.8857 C   0  0  0  0  0  0  0  0  0  0  0  0
    2.8585   -1.4131    0.1755 O   0  0  0  0  0  0  0  0  0  0  0  0
    2.6513    1.0045    2.5017 C   0  0  0  0  0  0  0  0  0  0  0  0
    4.2471   -1.5545    2.0711 H   0  0  0  0  0  0  0  0  0  0  0  0
    1.5587   -0.7928    2.9716 H   0  0  0  0  0  0  0  0  0  0  0  0
    3.4911    1.3240    1.8763 H   0  0  0  0  0  0  0  0  0  0  0  0
    1.7627    1.5725    2.2097 H   0  0  0  0  0  0  0  0  0  0  0  0
    2.8826    1.2439    3.5447 H   0  0  0  0  0  0  0  0  0  0  0  0
    0.7653   -0.5347    0.4259 N   0  0  0  0  0  0  0  0  0  0  0  0
    0.1479   -0.7210   -0.9128 C   0  0  2  0  0  0  0  0  0  0  0  0
   -1.0844   -1.6390   -0.8075 C   0  0  0  0  0  0  0  0  0  0  0  0
   -2.0776   -1.1983   -0.2420 O   0  0  0  0  0  0  0  0  0  0  0  0
    1.0648   -1.1206   -2.0881 C   0  0  0  0  0  0  0  0  0  0  0  0
    1.6206   -2.4259   -1.9138 O   0  0  0  0  0  0  0  0  0  0  0  0
    0.1405   -0.1591    1.1379 H   0  0  0  0  0  0  0  0  0  0  0  0
   -0.2465    0.2587   -1.1986 H   0  0  0  0  0  0  0  0  0  0  0  0
    1.8733   -0.3891   -2.1914 H   0  0  0  0  0  0  0  0  0  0  0  0
    0.4856   -1.1025   -3.0175 H   0  0  0  0  0  0  0  0  0  0  0  0
    2.2793   -2.3613   -1.1779 H   0  0  0  0  0  0  0  0  0  0  0  0
   -1.0487   -2.9537   -1.2382 N   0  0  0  0  0  0  0  0  0  0  0  0
   -2.0887   -3.9914   -1.0850 C   0  0  2  0  0  0  0  0  0  0  0  0
   -3.3972   -3.7290   -1.8673 C   0  0  0  0  0  0  0  0  0  0  0  0
   -3.8653   -4.6132   -2.5725 O   0  0  0  0  0  0  0  0  0  0  0  0
   -2.3826   -4.2558    0.3976 C   0  0  0  0  0  0  0  0  0  0  0  0
   -0.1557   -3.2333   -1.6542 H   0  0  0  0  0  0  0  0  0  0  0  0
   -1.6727   -4.9165   -1.4980 H   0  0  0  0  0  0  0  0  0  0  0  0
   -2.8869   -3.4024    0.8598 H   0  0  0  0  0  0  0  0  0  0  0  0
   -3.0309   -5.1318    0.5001 H   0  0  0  0  0  0  0  0  0  0  0  0
   -1.4527   -4.4490    0.9408 H   0  0  0  0  0  0  0  0  0  0  0  0
   -4.0597   -2.5207   -1.7769 N   0  0  0  0  0  0  0  0  0  0  0  0
   -5.2907   -2.2071   -2.4882 C   0  0  0  0  0  0  0  0  0  0  0  0
   -3.6384   -1.8190   -1.1633 H   0  0  0  0  0  0  0  0  0  0  0  0
   -5.6149   -1.1897   -2.2492 H   0  0  0  0  0  0  0  0  0  0  0  0
   -5.1350   -2.2762   -3.5698 H   0  0  0  0  0  0  0  0  0  0  0  0
   -6.0871   -2.9012   -2.2003 H   0  0  0  0  0  0  0  0  0  0  0  0
  1  2  2  0  0  0  0
  1  3  1  0  0  0  0
  1  7  1  0  0  0  0
  3  4  1  0  0  0  0
  3  5  1  0  0  0  0
  3  6  1  0  0  0  0
  7  8  1  0  0  0  0
  7 12  1  0  0  0  0
  8  9  1  0  0  0  0
  8 11  1  0  0  0  0
  8 13  1  0  0  0  0
  9 10  2  0  0  0  0
  9 17  1  0  0  0  0
 11 14  1  0  0  0  0
 11 15  1  0  0  0  0
 11 16  1  0  0  0  0
 17 18  1  0  0  0  0
 17 23  1  0  0  0  0
 18 19  1  0  0  0  0
 18 21  1  0  0  0  0
 18 24  1  0  0  0  0
 19 20  2  0  0  0  0
 19 28  1  0  0  0  0
 21 22  1  0  0  0  0
 21 25  1  0  0  0  0
 21 26  1  0  0  0  0
 22 27  1  0  0  0  0
 28 29  1  0  0  0  0
 28 33  1  0  0  0  0
 29 30  1  0  0  0  0
 29 32  1  0  0  0  0
 29 34  1  0  0  0  0
 30 31  2  0  0  0  0
 30 38  1  0  0  0  0
 32 35  1  0  0  0  0
 32 36  1  0  0  0  0
 32 37  1  0  0  0  0
 38 39  1  0  0  0  0
 38 40  1  0  0  0  0
 39 41  1  0  0  0  0
 39 42  1  0  0  0  0
 39 43  1  0  0  0  0
M  END
$$$$

  -OEChem-05262217303D

 43 42  0     1  0  0  0  0  0999 V2000
    3.9890   -1.5293    4.0743 C   0  0  0  0  0  0  0  0  0  0  0  0
    3.2455   -1.1831    4.9781 O   0  0  0  0  0  0  0  0  0  0  0  0
    5.2102   -2.3786    4.3736 C   0  0  0  0  0  0  0  0  0  0  0  0
    6.1127   -1.8768    4.0163 H   0  0  0  0  0  0  0  0  0  0  0  0
    5.3013   -2.5397    5.4514 H   0  0  0  0  0  0  0  0  0  0  0  0
    5.1209   -3.3489    3.8790 H   0  0  0  0  0  0  0  0  0  0  0  0
    3.7068   -1.1620    2.7751 N   0  0  0  0  0  0  0  0  0  0  0  0
    2.4810   -0.4665    2.3586 C   0  0  2  0  0  0  0  0  0  0  0  0
    2.0347   -0.8764    0.9379 C   0  0  0  0  0  0  0  0  0  0  0  0
    2.8155   -1.4937    0.2205 O   0  0  0  0  0  0  0  0  0  0  0  0
    2.7372    1.0427    2.4261 C   0  0  0  0  0  0  0  0  0  0  0  0
    4.2877   -1.5608    2.0388 H   0  0  0  0  0  0  0  0  0  0  0  0
    1.6643   -0.7225    3.0426 H   0  0  0  0  0  0  0  0  0  0  0  0
    3.5422    1.3262    1.7403 H   0  0  0  0  0  0  0  0  0  0  0  0
    1.8353    1.5996    2.1552 H   0  0  0  0  0  0  0  0  0  0  0  0
    3.0268    1.3330    3.4413 H   0  0  0  0  0  0  0  0  0  0  0  0
    0.7467   -0.5715    0.5205 N   0  0  0  0  0  0  0  0  0  0  0  0
    0.0839   -0.7592   -0.7974 C   0  0  2  0  0  0  0  0  0  0  0  0
   -1.1466   -1.6755   -0.6691 C   0  0  0  0  0  0  0  0  0  0  0  0
   -2.2041   -1.1729   -0.3109 O   0  0  0  0  0  0  0  0  0  0  0  0
    0.9637   -1.1728   -1.9951 C   0  0  0  0  0  0  0  0  0  0  0  0
    1.5152   -2.4821   -1.8298 O   0  0  0  0  0  0  0  0  0  0  0  0
    0.1684   -0.1345    1.2359 H   0  0  0  0  0  0  0  0  0  0  0  0
   -0.3120    0.2221   -1.0762 H   0  0  0  0  0  0  0  0  0  0  0  0
    1.7741   -0.4475   -2.1234 H   0  0  0  0  0  0  0  0  0  0  0  0
    0.3593   -1.1545   -2.9084 H   0  0  0  0  0  0  0  0  0  0  0  0
    2.1996   -2.4183   -1.1172 H   0  0  0  0  0  0  0  0  0  0  0  0
   -1.0381   -3.0468   -0.8194 N   0  0  0  0  0  0  0  0  0  0  0  0
   -2.0837   -4.0717   -0.6228 C   0  0  2  0  0  0  0  0  0  0  0  0
   -3.2686   -4.0016   -1.6144 C   0  0  0  0  0  0  0  0  0  0  0  0
   -3.6520   -5.0233   -2.1687 O   0  0  0  0  0  0  0  0  0  0  0  0
   -2.5869   -4.0684    0.8264 C   0  0  0  0  0  0  0  0  0  0  0  0
   -0.1312   -3.3554   -1.1799 H   0  0  0  0  0  0  0  0  0  0  0  0
   -1.6079   -5.0434   -0.7924 H   0  0  0  0  0  0  0  0  0  0  0  0
   -3.1542   -3.1599    1.0469 H   0  0  0  0  0  0  0  0  0  0  0  0
   -3.2418   -4.9288    0.9968 H   0  0  0  0  0  0  0  0  0  0  0  0
   -1.7441   -4.1321    1.5210 H   0  0  0  0  0  0  0  0  0  0  0  0
   -3.9230   -2.8128   -1.8692 N   0  0  0  0  0  0  0  0  0  0  0  0
   -5.0715   -2.6846   -2.7546 C   0  0  0  0  0  0  0  0  0  0  0  0
   -3.5977   -1.9977   -1.3439 H   0  0  0  0  0  0  0  0  0  0  0  0
   -5.3735   -1.6356   -2.8284 H   0  0  0  0  0  0  0  0  0  0  0  0
   -4.8236   -3.0445   -3.7587 H   0  0  0  0  0  0  0  0  0  0  0  0
   -5.9174   -3.2637   -2.3703 H   0  0  0  0  0  0  0  0  0  0  0  0
  1  2  2  0  0  0  0
  1  3  1  0  0  0  0
  1  7  1  0  0  0  0
  3  4  1  0  0  0  0
  3  5  1  0  0  0  0
  3  6  1  0  0  0  0
  7  8  1  0  0  0  0
  7 12  1  0  0  0  0
  8  9  1  0  0  0  0
  8 11  1  0  0  0  0
  8 13  1  0  0  0  0
  9 10  2  0  0  0  0
  9 17  1  0  0  0  0
 11 14  1  0  0  0  0
 11 15  1  0  0  0  0
 11 16  1  0  0  0  0
 17 18  1  0  0  0  0
 17 23  1  0  0  0  0
 18 19  1  0  0  0  0
 18 21  1  0  0  0  0
 18 24  1  0  0  0  0
 19 20  2  0  0  0  0
 19 28  1  0  0  0  0
 21 22  1  0  0  0  0
 21 25  1  0  0  0  0
 21 26  1  0  0  0  0
 22 27  1  0  0  0  0
 28 29  1  0  0  0  0
 28 33  1  0  0  0  0
 29 30  1  0  0  0  0
 29 32  1  0  0  0  0
 29 34  1  0  0  0  0
 30 31  2  0  0  0  0
 30 38  1  0  0  0  0
 32 35  1  0  0  0  0
 32 36  1  0  0  0  0
 32 37  1  0  0  0  0
 38 39  1  0  0  0  0
 38 40  1  0  0  0  0
 39 41  1  0  0  0  0
 39 42  1  0  0  0  0
 39 43  1  0  0  0  0
M  END
$$$$

  -OEChem-05262217303D

 43 42  0     1  0  0  0  0  0999 V2000
    3.8367   -1.6110    4.0190 C   0  0  0  0  0  0  0  0  0  0  0  0
    3.0447   -1.2958    4.8924 O   0  0  0  0  0  0  0  0  0  0  0  0
    4.9649   -2.5781    4.3248 C   0  0  0  0  0  0  0  0  0  0  0  0
    5.9290   -2.0908    4.1610 H   0  0  0  0  0  0  0  0  0  0  0  0
    4.9082   -2.9067    5.3663 H   0  0  0  0  0  0  0  0  0  0  0  0
    4.8923   -3.4542    3.6759 H   0  0  0  0  0  0  0  0  0  0  0  0
    3.6970   -1.1015    2.7449 N   0  0  0  0  0  0  0  0  0  0  0  0
    2.5448   -0.3093    2.2916 C   0  0  2  0  0  0  0  0  0  0  0  0
    2.0551   -0.7457    0.8943 C   0  0  0  0  0  0  0  0  0  0  0  0
    2.8156   -1.3727    0.1639 O   0  0  0  0  0  0  0  0  0  0  0  0
    2.9580    1.1645    2.2796 C   0  0  0  0  0  0  0  0  0  0  0  0
    4.3007   -1.4929    2.0236 H   0  0  0  0  0  0  0  0  0  0  0  0
    1.7057   -0.4381    2.9840 H   0  0  0  0  0  0  0  0  0  0  0  0
    3.7901    1.3244    1.5864 H   0  0  0  0  0  0  0  0  0  0  0  0
    2.1204    1.7971    1.9705 H   0  0  0  0  0  0  0  0  0  0  0  0
    3.2738    1.4763    3.2804 H   0  0  0  0  0  0  0  0  0  0  0  0
    0.7483   -0.4669    0.5197 N   0  0  0  0  0  0  0  0  0  0  0  0
    0.0413   -0.6898   -0.7701 C   0  0  2  0  0  0  0  0  0  0  0  0
   -1.1688   -1.6209   -0.5823 C   0  0  0  0  0  0  0  0  0  0  0  0
   -2.2759   -1.1187   -0.4378 O   0  0  0  0  0  0  0  0  0  0  0  0
    0.8795   -1.1359   -1.9838 C   0  0  0  0  0  0  0  0  0  0  0  0
    1.4335   -2.4405   -1.7951 O   0  0  0  0  0  0  0  0  0  0  0  0
    0.1959   -0.0096    1.2428 H   0  0  0  0  0  0  0  0  0  0  0  0
   -0.3714    0.2816   -1.0604 H   0  0  0  0  0  0  0  0  0  0  0  0
    1.6842   -0.4155   -2.1645 H   0  0  0  0  0  0  0  0  0  0  0  0
    0.2419   -1.1473   -2.8742 H   0  0  0  0  0  0  0  0  0  0  0  0
    2.1575   -2.3498   -1.1270 H   0  0  0  0  0  0  0  0  0  0  0  0
   -0.9844   -2.9809   -0.4072 N   0  0  0  0  0  0  0  0  0  0  0  0
   -2.0002   -4.0002   -0.0746 C   0  0  2  0  0  0  0  0  0  0  0  0
   -3.0830   -4.2307   -1.1548 C   0  0  0  0  0  0  0  0  0  0  0  0
   -3.3689   -5.3738   -1.4863 O   0  0  0  0  0  0  0  0  0  0  0  0
   -2.6426   -3.7038    1.2869 C   0  0  0  0  0  0  0  0  0  0  0  0
   -0.0576   -3.3093   -0.6868 H   0  0  0  0  0  0  0  0  0  0  0  0
   -1.4693   -4.9525    0.0245 H   0  0  0  0  0  0  0  0  0  0  0  0
   -3.2706   -2.8092    1.2436 H   0  0  0  0  0  0  0  0  0  0  0  0
   -3.2698   -4.5460    1.5956 H   0  0  0  0  0  0  0  0  0  0  0  0
   -1.8698   -3.5518    2.0464 H   0  0  0  0  0  0  0  0  0  0  0  0
   -3.7523   -3.1745   -1.7404 N   0  0  0  0  0  0  0  0  0  0  0  0
   -4.7975   -3.3239   -2.7433 C   0  0  0  0  0  0  0  0  0  0  0  0
   -3.5125   -2.2419   -1.3954 H   0  0  0  0  0  0  0  0  0  0  0  0
   -5.1274   -2.3413   -3.0937 H   0  0  0  0  0  0  0  0  0  0  0  0
   -4.4238   -3.8893   -3.6032 H   0  0  0  0  0  0  0  0  0  0  0  0
   -5.6598   -3.8504   -2.3215 H   0  0  0  0  0  0  0  0  0  0  0  0
  1  2  2  0  0  0  0
  1  3  1  0  0  0  0
  1  7  1  0  0  0  0
  3  4  1  0  0  0  0
  3  5  1  0  0  0  0
  3  6  1  0  0  0  0
  7  8  1  0  0  0  0
  7 12  1  0  0  0  0
  8  9  1  0  0  0  0
  8 11  1  0  0  0  0
  8 13  1  0  0  0  0
  9 10  2  0  0  0  0
  9 17  1  0  0  0  0
 11 14  1  0  0  0  0
 11 15  1  0  0  0  0
 11 16  1  0  0  0  0
 17 18  1  0  0  0  0
 17 23  1  0  0  0  0
 18 19  1  0  0  0  0
 18 21  1  0  0  0  0
 18 24  1  0  0  0  0
 19 20  2  0  0  0  0
 19 28  1  0  0  0  0
 21 22  1  0  0  0  0
 21 25  1  0  0  0  0
 21 26  1  0  0  0  0
 22 27  1  0  0  0  0
 28 29  1  0  0  0  0
 28 33  1  0  0  0  0
 29 30  1  0  0  0  0
 29 32  1  0  0  0  0
 29 34  1  0  0  0  0
 30 31  2  0  0  0  0
 30 38  1  0  0  0  0
 32 35  1  0  0  0  0
 32 36  1  0  0  0  0
 32 37  1  0  0  0  0
 38 39  1  0  0  0  0
 38 40  1  0  0  0  0
 39 41  1  0  0  0  0
 39 42  1  0  0  0  0
 39 43  1  0  0  0  0
M  END
$$$$

  -OEChem-05262217303D

 43 42  0     1  0  0  0  0  0999 V2000
    1.8893   -1.1780    3.5511 C   0  0  0  0  0  0  0  0  0  0  0  0
    0.9429   -0.4097    3.4723 O   0  0  0  0  0  0  0  0  0  0  0  0
    1.8440   -2.3583    4.5023 C   0  0  0  0  0  0  0  0  0  0  0  0
    0.9114   -2.3456    5.0738 H   0  0  0  0  0  0  0  0  0  0  0  0
    1.8989   -3.2940    3.9407 H   0  0  0  0  0  0  0  0  0  0  0  0
    2.6835   -2.3096    5.2000 H   0  0  0  0  0  0  0  0  0  0  0  0
    2.9736   -0.9932    2.7171 N   0  0  0  0  0  0  0  0  0  0  0  0
    3.0999    0.1227    1.7648 C   0  0  2  0  0  0  0  0  0  0  0  0
    2.2485   -0.0889    0.4870 C   0  0  0  0  0  0  0  0  0  0  0  0
    2.7869   -0.2702   -0.5988 O   0  0  0  0  0  0  0  0  0  0  0  0
    4.5942    0.3047    1.4675 C   0  0  0  0  0  0  0  0  0  0  0  0
    3.7238   -1.6772    2.7680 H   0  0  0  0  0  0  0  0  0  0  0  0
    2.7444    1.0453    2.2372 H   0  0  0  0  0  0  0  0  0  0  0  0
    5.0086   -0.5948    1.0008 H   0  0  0  0  0  0  0  0  0  0  0  0
    4.7452    1.1486    0.7863 H   0  0  0  0  0  0  0  0  0  0  0  0
    5.1454    0.5061    2.3912 H   0  0  0  0  0  0  0  0  0  0  0  0
    0.8713   -0.1561    0.6270 N   0  0  0  0  0  0  0  0  0  0  0  0
   -0.2128   -0.2992   -0.3790 C   0  0  2  0  0  0  0  0  0  0  0  0
   -1.0326   -1.5757   -0.1319 C   0  0  0  0  0  0  0  0  0  0  0  0
   -2.2055   -1.4791    0.2054 O   0  0  0  0  0  0  0  0  0  0  0  0
    0.1793   -0.2097   -1.8638 C   0  0  0  0  0  0  0  0  0  0  0  0
    1.0136   -1.3057   -2.2468 O   0  0  0  0  0  0  0  0  0  0  0  0
    0.5663   -0.0974    1.6056 H   0  0  0  0  0  0  0  0  0  0  0  0
   -0.8957    0.5394   -0.2107 H   0  0  0  0  0  0  0  0  0  0  0  0
    0.6954    0.7362   -2.0584 H   0  0  0  0  0  0  0  0  0  0  0  0
   -0.7285   -0.2224   -2.4765 H   0  0  0  0  0  0  0  0  0  0  0  0
    1.9047   -1.1345   -1.8541 H   0  0  0  0  0  0  0  0  0  0  0  0
   -0.4089   -2.8110   -0.1681 N   0  0  0  0  0  0  0  0  0  0  0  0
   -0.9787   -4.1252    0.1932 C   0  0  2  0  0  0  0  0  0  0  0  0
   -2.1199   -4.6340   -0.7186 C   0  0  0  0  0  0  0  0  0  0  0  0
   -2.1367   -5.8114   -1.0543 O   0  0  0  0  0  0  0  0  0  0  0  0
   -1.4168   -4.1390    1.6640 C   0  0  0  0  0  0  0  0  0  0  0  0
    0.4906   -2.8000   -0.6486 H   0  0  0  0  0  0  0  0  0  0  0  0
   -0.1695   -4.8557    0.0934 H   0  0  0  0  0  0  0  0  0  0  0  0
   -2.2946   -3.5054    1.8210 H   0  0  0  0  0  0  0  0  0  0  0  0
   -1.6744   -5.1584    1.9682 H   0  0  0  0  0  0  0  0  0  0  0  0
   -0.6077   -3.7794    2.3063 H   0  0  0  0  0  0  0  0  0  0  0  0
   -3.1466   -3.8040   -1.1221 N   0  0  0  0  0  0  0  0  0  0  0  0
   -4.2972   -4.2455   -1.8969 C   0  0  0  0  0  0  0  0  0  0  0  0
   -3.1336   -2.8557   -0.7379 H   0  0  0  0  0  0  0  0  0  0  0  0
   -4.9437   -3.3939   -2.1287 H   0  0  0  0  0  0  0  0  0  0  0  0
   -3.9731   -4.6991   -2.8393 H   0  0  0  0  0  0  0  0  0  0  0  0
   -4.8791   -4.9805   -1.3314 H   0  0  0  0  0  0  0  0  0  0  0  0
  1  2  2  0  0  0  0
  1  3  1  0  0  0  0
  1  7  1  0  0  0  0
  3  4  1  0  0  0  0
  3  5  1  0  0  0  0
  3  6  1  0  0  0  0
  7  8  1  0  0  0  0
  7 12  1  0  0  0  0
  8  9  1  0  0  0  0
  8 11  1  0  0  0  0
  8 13  1  0  0  0  0
  9 10  2  0  0  0  0
  9 17  1  0  0  0  0
 11 14  1  0  0  0  0
 11 15  1  0  0  0  0
 11 16  1  0  0  0  0
 17 18  1  0  0  0  0
 17 23  1  0  0  0  0
 18 19  1  0  0  0  0
 18 21  1  0  0  0  0
 18 24  1  0  0  0  0
 19 20  2  0  0  0  0
 19 28  1  0  0  0  0
 21 22  1  0  0  0  0
 21 25  1  0  0  0  0
 21 26  1  0  0  0  0
 22 27  1  0  0  0  0
 28 29  1  0  0  0  0
 28 33  1  0  0  0  0
 29 30  1  0  0  0  0
 29 32  1  0  0  0  0
 29 34  1  0  0  0  0
 30 31  2  0  0  0  0
 30 38  1  0  0  0  0
 32 35  1  0  0  0  0
 32 36  1  0  0  0  0
 32 37  1  0  0  0  0
 38 39  1  0  0  0  0
 38 40  1  0  0  0  0
 39 41  1  0  0  0  0
 39 42  1  0  0  0  0
 39 43  1  0  0  0  0
M  END
$$$$

  -OEChem-05262217303D

 43 42  0     1  0  0  0  0  0999 V2000
    3.8486   -1.7767    3.9027 C   0  0  0  0  0  0  0  0  0  0  0  0
    3.0453   -1.4702    4.7700 O   0  0  0  0  0  0  0  0  0  0  0  0
    4.9009   -2.8342    4.1773 C   0  0  0  0  0  0  0  0  0  0  0  0
    5.8982   -2.4207    4.0085 H   0  0  0  0  0  0  0  0  0  0  0  0
    4.8320   -3.1736    5.2145 H   0  0  0  0  0  0  0  0  0  0  0  0
    4.7521   -3.6907    3.5149 H   0  0  0  0  0  0  0  0  0  0  0  0
    3.7947   -1.1688    2.6667 N   0  0  0  0  0  0  0  0  0  0  0  0
    2.7161   -0.2723    2.2318 C   0  0  2  0  0  0  0  0  0  0  0  0
    2.2755   -0.5782    0.7848 C   0  0  0  0  0  0  0  0  0  0  0  0
    3.0627   -1.1465    0.0423 O   0  0  0  0  0  0  0  0  0  0  0  0
    3.2172    1.1691    2.3547 C   0  0  0  0  0  0  0  0  0  0  0  0
    4.3776   -1.5658    1.9297 H   0  0  0  0  0  0  0  0  0  0  0  0
    1.8382   -0.4018    2.8734 H   0  0  0  0  0  0  0  0  0  0  0  0
    4.0864    1.3282    1.7081 H   0  0  0  0  0  0  0  0  0  0  0  0
    2.4330    1.8753    2.0656 H   0  0  0  0  0  0  0  0  0  0  0  0
    3.5087    1.3813    3.3885 H   0  0  0  0  0  0  0  0  0  0  0  0
    1.0379   -0.1222    0.3537 N   0  0  0  0  0  0  0  0  0  0  0  0
    0.2337   -0.5294   -0.8307 C   0  0  2  0  0  0  0  0  0  0  0  0
   -1.1281   -1.0778   -0.3841 C   0  0  0  0  0  0  0  0  0  0  0  0
   -2.1395   -0.7506   -0.9891 O   0  0  0  0  0  0  0  0  0  0  0  0
    0.8184   -1.6225   -1.7576 C   0  0  0  0  0  0  0  0  0  0  0  0
    0.9208   -2.9067   -1.1149 O   0  0  0  0  0  0  0  0  0  0  0  0
    0.5291    0.4016    1.0613 H   0  0  0  0  0  0  0  0  0  0  0  0
    0.0630    0.3611   -1.4430 H   0  0  0  0  0  0  0  0  0  0  0  0
    1.8043   -1.3104   -2.1146 H   0  0  0  0  0  0  0  0  0  0  0  0
    0.1802   -1.7252   -2.6419 H   0  0  0  0  0  0  0  0  0  0  0  0
    0.0818   -3.4249   -1.2077 H   0  0  0  0  0  0  0  0  0  0  0  0
   -1.1874   -1.9711    0.6741 N   0  0  0  0  0  0  0  0  0  0  0  0
   -2.2938   -2.9318    0.8307 C   0  0  2  0  0  0  0  0  0  0  0  0
   -2.4846   -3.7930   -0.4450 C   0  0  0  0  0  0  0  0  0  0  0  0
   -1.4897   -4.1779   -1.0554 O   0  0  0  0  0  0  0  0  0  0  0  0
   -3.5753   -2.2244    1.3024 C   0  0  0  0  0  0  0  0  0  0  0  0
   -0.2615   -2.3202    0.9219 H   0  0  0  0  0  0  0  0  0  0  0  0
   -2.0122   -3.6302    1.6246 H   0  0  0  0  0  0  0  0  0  0  0  0
   -4.0032   -1.6029    0.5105 H   0  0  0  0  0  0  0  0  0  0  0  0
   -4.3256   -2.9605    1.6060 H   0  0  0  0  0  0  0  0  0  0  0  0
   -3.3565   -1.5848    2.1630 H   0  0  0  0  0  0  0  0  0  0  0  0
   -3.7381   -4.1477   -0.9093 N   0  0  0  0  0  0  0  0  0  0  0  0
   -3.9444   -4.8353   -2.1783 C   0  0  0  0  0  0  0  0  0  0  0  0
   -4.5317   -3.6846   -0.4763 H   0  0  0  0  0  0  0  0  0  0  0  0
   -5.0097   -5.0325   -2.3315 H   0  0  0  0  0  0  0  0  0  0  0  0
   -3.5812   -4.2220   -3.0098 H   0  0  0  0  0  0  0  0  0  0  0  0
   -3.4131   -5.7928   -2.1885 H   0  0  0  0  0  0  0  0  0  0  0  0
  1  2  2  0  0  0  0
  1  3  1  0  0  0  0
  1  7  1  0  0  0  0
  3  4  1  0  0  0  0
  3  5  1  0  0  0  0
  3  6  1  0  0  0  0
  7  8  1  0  0  0  0
  7 12  1  0  0  0  0
  8  9  1  0  0  0  0
  8 11  1  0  0  0  0
  8 13  1  0  0  0  0
  9 10  2  0  0  0  0
  9 17  1  0  0  0  0
 11 14  1  0  0  0  0
 11 15  1  0  0  0  0
 11 16  1  0  0  0  0
 17 18  1  0  0  0  0
 17 23  1  0  0  0  0
 18 19  1  0  0  0  0
 18 21  1  0  0  0  0
 18 24  1  0  0  0  0
 19 20  2  0  0  0  0
 19 28  1  0  0  0  0
 21 22  1  0  0  0  0
 21 25  1  0  0  0  0
 21 26  1  0  0  0  0
 22 27  1  0  0  0  0
 28 29  1  0  0  0  0
 28 33  1  0  0  0  0
 29 30  1  0  0  0  0
 29 32  1  0  0  0  0
 29 34  1  0  0  0  0
 30 31  2  0  0  0  0
 30 38  1  0  0  0  0
 32 35  1  0  0  0  0
 32 36  1  0  0  0  0
 32 37  1  0  0  0  0
 38 39  1  0  0  0  0
 38 40  1  0  0  0  0
 39 41  1  0  0  0  0
 39 42  1  0  0  0  0
 39 43  1  0  0  0  0
M  END
$$$$

  -OEChem-05262217303D

 43 42  0     1  0  0  0  0  0999 V2000
    3.7787   -1.7889    3.9221 C   0  0  0  0  0  0  0  0  0  0  0  0
    2.9344   -1.5112    4.7599 O   0  0  0  0  0  0  0  0  0  0  0  0
    4.8173   -2.8565    4.2111 C   0  0  0  0  0  0  0  0  0  0  0  0
    5.8211   -2.4515    4.0616 H   0  0  0  0  0  0  0  0  0  0  0  0
    4.7276   -3.2001    5.2454 H   0  0  0  0  0  0  0  0  0  0  0  0
    4.6728   -3.7082    3.5417 H   0  0  0  0  0  0  0  0  0  0  0  0
    3.7817   -1.1427    2.7042 N   0  0  0  0  0  0  0  0  0  0  0  0
    2.7139   -0.2479    2.2392 C   0  0  2  0  0  0  0  0  0  0  0  0
    2.3034   -0.5678    0.7864 C   0  0  0  0  0  0  0  0  0  0  0  0
    3.1134   -1.1291    0.0633 O   0  0  0  0  0  0  0  0  0  0  0  0
    3.2182    1.1925    2.3558 C   0  0  0  0  0  0  0  0  0  0  0  0
    4.3912   -1.5279    1.9825 H   0  0  0  0  0  0  0  0  0  0  0  0
    1.8227   -0.3669    2.8640 H   0  0  0  0  0  0  0  0  0  0  0  0
    4.0992    1.3415    1.7230 H   0  0  0  0  0  0  0  0  0  0  0  0
    2.4425    1.8987    2.0454 H   0  0  0  0  0  0  0  0  0  0  0  0
    3.4913    1.4136    3.3924 H   0  0  0  0  0  0  0  0  0  0  0  0
    1.0774   -0.1095    0.3229 N   0  0  0  0  0  0  0  0  0  0  0  0
    0.2871   -0.5258   -0.8706 C   0  0  2  0  0  0  0  0  0  0  0  0
   -1.0960   -1.0593   -0.4743 C   0  0  0  0  0  0  0  0  0  0  0  0
   -2.0426   -0.8962   -1.2322 O   0  0  0  0  0  0  0  0  0  0  0  0
    0.8869   -1.6611   -1.7347 C   0  0  0  0  0  0  0  0  0  0  0  0
    0.9396   -2.9183   -1.0311 O   0  0  0  0  0  0  0  0  0  0  0  0
    0.5632    0.4365    1.0091 H   0  0  0  0  0  0  0  0  0  0  0  0
    0.1515    0.3484   -1.5140 H   0  0  0  0  0  0  0  0  0  0  0  0
    1.8887   -1.3799   -2.0716 H   0  0  0  0  0  0  0  0  0  0  0  0
    0.2794   -1.7904   -2.6370 H   0  0  0  0  0  0  0  0  0  0  0  0
    0.0661   -3.3831   -1.0197 H   0  0  0  0  0  0  0  0  0  0  0  0
   -1.2709   -1.6890    0.7483 N   0  0  0  0  0  0  0  0  0  0  0  0
   -2.3960   -2.6108    0.9917 C   0  0  2  0  0  0  0  0  0  0  0  0
   -2.5024   -3.7028   -0.1068 C   0  0  0  0  0  0  0  0  0  0  0  0
   -1.4725   -4.1566   -0.6003 O   0  0  0  0  0  0  0  0  0  0  0  0
   -3.7003   -1.8258    1.2100 C   0  0  0  0  0  0  0  0  0  0  0  0
   -0.3836   -1.9553    1.1712 H   0  0  0  0  0  0  0  0  0  0  0  0
   -2.1881   -3.1443    1.9240 H   0  0  0  0  0  0  0  0  0  0  0  0
   -4.0452   -1.3591    0.2825 H   0  0  0  0  0  0  0  0  0  0  0  0
   -4.4881   -2.4911    1.5752 H   0  0  0  0  0  0  0  0  0  0  0  0
   -3.5453   -1.0392    1.9545 H   0  0  0  0  0  0  0  0  0  0  0  0
   -3.7235   -4.1919   -0.5347 N   0  0  0  0  0  0  0  0  0  0  0  0
   -3.8555   -5.1066   -1.6627 C   0  0  0  0  0  0  0  0  0  0  0  0
   -4.5491   -3.6909   -0.2207 H   0  0  0  0  0  0  0  0  0  0  0  0
   -4.9028   -5.3948   -1.7956 H   0  0  0  0  0  0  0  0  0  0  0  0
   -3.5065   -4.6286   -2.5842 H   0  0  0  0  0  0  0  0  0  0  0  0
   -3.2683   -6.0154   -1.4929 H   0  0  0  0  0  0  0  0  0  0  0  0
  1  2  2  0  0  0  0
  1  3  1  0  0  0  0
  1  7  1  0  0  0  0
  3  4  1  0  0  0  0
  3  5  1  0  0  0  0
  3  6  1  0  0  0  0
  7  8  1  0  0  0  0
  7 12  1  0  0  0  0
  8  9  1  0  0  0  0
  8 11  1  0  0  0  0
  8 13  1  0  0  0  0
  9 10  2  0  0  0  0
  9 17  1  0  0  0  0
 11 14  1  0  0  0  0
 11 15  1  0  0  0  0
 11 16  1  0  0  0  0
 17 18  1  0  0  0  0
 17 23  1  0  0  0  0
 18 19  1  0  0  0  0
 18 21  1  0  0  0  0
 18 24  1  0  0  0  0
 19 20  2  0  0  0  0
 19 28  1  0  0  0  0
 21 22  1  0  0  0  0
 21 25  1  0  0  0  0
 21 26  1  0  0  0  0
 22 27  1  0  0  0  0
 28 29  1  0  0  0  0
 28 33  1  0  0  0  0
 29 30  1  0  0  0  0
 29 32  1  0  0  0  0
 29 34  1  0  0  0  0
 30 31  2  0  0  0  0
 30 38  1  0  0  0  0
 32 35  1  0  0  0  0
 32 36  1  0  0  0  0
 32 37  1  0  0  0  0
 38 39  1  0  0  0  0
 38 40  1  0  0  0  0
 39 41  1  0  0  0  0
 39 42  1  0  0  0  0
 39 43  1  0  0  0  0
M  END
$$$$

  -OEChem-05262217303D

 43 42  0     1  0  0  0  0  0999 V2000
    3.7506   -1.7697    3.9628 C   0  0  0  0  0  0  0  0  0  0  0  0
    2.9273   -1.4308    4.7992 O   0  0  0  0  0  0  0  0  0  0  0  0
    4.7700   -2.8455    4.2857 C   0  0  0  0  0  0  0  0  0  0  0  0
    5.7808   -2.4578    4.1378 H   0  0  0  0  0  0  0  0  0  0  0  0
    4.6644   -3.1660    5.3259 H   0  0  0  0  0  0  0  0  0  0  0  0
    4.6199   -3.7089    3.6328 H   0  0  0  0  0  0  0  0  0  0  0  0
    3.7514   -1.1783    2.7177 N   0  0  0  0  0  0  0  0  0  0  0  0
    2.7106   -0.2618    2.2359 C   0  0  2  0  0  0  0  0  0  0  0  0
    2.3100   -0.5784    0.7796 C   0  0  0  0  0  0  0  0  0  0  0  0
    3.1218   -1.1494    0.0667 O   0  0  0  0  0  0  0  0  0  0  0  0
    3.2454    1.1673    2.3563 C   0  0  0  0  0  0  0  0  0  0  0  0
    4.3451   -1.6028    2.0047 H   0  0  0  0  0  0  0  0  0  0  0  0
    1.8102   -0.3604    2.8509 H   0  0  0  0  0  0  0  0  0  0  0  0
    4.1391    1.2949    1.7367 H   0  0  0  0  0  0  0  0  0  0  0  0
    2.4908    1.8900    2.0324 H   0  0  0  0  0  0  0  0  0  0  0  0
    3.5080    1.3850    3.3966 H   0  0  0  0  0  0  0  0  0  0  0  0
    1.0954   -0.1017    0.3029 N   0  0  0  0  0  0  0  0  0  0  0  0
    0.3075   -0.5006   -0.8995 C   0  0  2  0  0  0  0  0  0  0  0  0
   -1.0935   -1.0162   -0.5394 C   0  0  0  0  0  0  0  0  0  0  0  0
   -1.9667   -1.0238   -1.3969 O   0  0  0  0  0  0  0  0  0  0  0  0
    0.9071   -1.6511   -1.7450 C   0  0  0  0  0  0  0  0  0  0  0  0
    0.9280   -2.9040   -1.0302 O   0  0  0  0  0  0  0  0  0  0  0  0
    0.5972    0.4804    0.9706 H   0  0  0  0  0  0  0  0  0  0  0  0
    0.1988    0.3742   -1.5469 H   0  0  0  0  0  0  0  0  0  0  0  0
    1.9174   -1.3887   -2.0709 H   0  0  0  0  0  0  0  0  0  0  0  0
    0.3128   -1.7806   -2.6559 H   0  0  0  0  0  0  0  0  0  0  0  0
    0.0308   -3.2954   -0.9030 H   0  0  0  0  0  0  0  0  0  0  0  0
   -1.3984   -1.3726    0.7656 N   0  0  0  0  0  0  0  0  0  0  0  0
   -2.5429   -2.2527    1.0721 C   0  0  2  0  0  0  0  0  0  0  0  0
   -2.5466   -3.5384    0.1999 C   0  0  0  0  0  0  0  0  0  0  0  0
   -1.4766   -4.0309   -0.1499 O   0  0  0  0  0  0  0  0  0  0  0  0
   -3.8615   -1.4636    1.0049 C   0  0  0  0  0  0  0  0  0  0  0  0
   -0.5644   -1.5304    1.3257 H   0  0  0  0  0  0  0  0  0  0  0  0
   -2.4289   -2.5919    2.1061 H   0  0  0  0  0  0  0  0  0  0  0  0
   -4.1164   -1.2024   -0.0264 H   0  0  0  0  0  0  0  0  0  0  0  0
   -4.6813   -2.0545    1.4239 H   0  0  0  0  0  0  0  0  0  0  0  0
   -3.7771   -0.5390    1.5837 H   0  0  0  0  0  0  0  0  0  0  0  0
   -3.7242   -4.1587   -0.1766 N   0  0  0  0  0  0  0  0  0  0  0  0
   -3.7617   -5.2875   -1.0992 C   0  0  0  0  0  0  0  0  0  0  0  0
   -4.5849   -3.6488   -0.0026 H   0  0  0  0  0  0  0  0  0  0  0  0
   -4.7880   -5.6500   -1.2120 H   0  0  0  0  0  0  0  0  0  0  0  0
   -3.3883   -4.9884   -2.0843 H   0  0  0  0  0  0  0  0  0  0  0  0
   -3.1463   -6.1124   -0.7248 H   0  0  0  0  0  0  0  0  0  0  0  0
  1  2  2  0  0  0  0
  1  3  1  0  0  0  0
  1  7  1  0  0  0  0
  3  4  1  0  0  0  0
  3  5  1  0  0  0  0
  3  6  1  0  0  0  0
  7  8  1  0  0  0  0
  7 12  1  0  0  0  0
  8  9  1  0  0  0  0
  8 11  1  0  0  0  0
  8 13  1  0  0  0  0
  9 10  2  0  0  0  0
  9 17  1  0  0  0  0
 11 14  1  0  0  0  0
 11 15  1  0  0  0  0
 11 16  1  0  0  0  0
 17 18  1  0  0  0  0
 17 23  1  0  0  0  0
 18 19  1  0  0  0  0
 18 21  1  0  0  0  0
 18 24  1  0  0  0  0
 19 20  2  0  0  0  0
 19 28  1  0  0  0  0
 21 22  1  0  0  0  0
 21 25  1  0  0  0  0
 21 26  1  0  0  0  0
 22 27  1  0  0  0  0
 28 29  1  0  0  0  0
 28 33  1  0  0  0  0
 29 30  1  0  0  0  0
 29 32  1  0  0  0  0
 29 34  1  0  0  0  0
 30 31  2  0  0  0  0
 30 38  1  0  0  0  0
 32 35  1  0  0  0  0
 32 36  1  0  0  0  0
 32 37  1  0  0  0  0
 38 39  1  0  0  0  0
 38 40  1  0  0  0  0
 39 41  1  0  0  0  0
 39 42  1  0  0  0  0
 39 43  1  0  0  0  0
M  END
$$$$

  -OEChem-05262217303D

 43 42  0     1  0  0  0  0  0999 V2000
    3.7242   -1.7408    4.0069 C   0  0  0  0  0  0  0  0  0  0  0  0
    2.9429   -1.3202    4.8466 O   0  0  0  0  0  0  0  0  0  0  0  0
    4.7151   -2.8329    4.3631 C   0  0  0  0  0  0  0  0  0  0  0  0
    5.7358   -2.4742    4.2103 H   0  0  0  0  0  0  0  0  0  0  0  0
    4.5961   -3.1238    5.4105 H   0  0  0  0  0  0  0  0  0  0  0  0
    4.5470   -3.7095    3.7328 H   0  0  0  0  0  0  0  0  0  0  0  0
    3.7028   -1.2238    2.7292 N   0  0  0  0  0  0  0  0  0  0  0  0
    2.6839   -0.2924    2.2298 C   0  0  2  0  0  0  0  0  0  0  0  0
    2.3004   -0.6052    0.7679 C   0  0  0  0  0  0  0  0  0  0  0  0
    3.1105   -1.1981    0.0710 O   0  0  0  0  0  0  0  0  0  0  0  0
    3.2337    1.1308    2.3576 C   0  0  0  0  0  0  0  0  0  0  0  0
    4.2658   -1.7007    2.0242 H   0  0  0  0  0  0  0  0  0  0  0  0
    1.7738   -0.3816    2.8319 H   0  0  0  0  0  0  0  0  0  0  0  0
    4.1412    1.2452    1.7559 H   0  0  0  0  0  0  0  0  0  0  0  0
    2.4948    1.8618    2.0167 H   0  0  0  0  0  0  0  0  0  0  0  0
    3.4786    1.3491    3.4022 H   0  0  0  0  0  0  0  0  0  0  0  0
    1.1012   -0.1048    0.2746 N   0  0  0  0  0  0  0  0  0  0  0  0
    0.3232   -0.4724   -0.9454 C   0  0  2  0  0  0  0  0  0  0  0  0
   -1.0951   -0.9701   -0.6144 C   0  0  0  0  0  0  0  0  0  0  0  0
   -1.8935   -1.1644   -1.5222 O   0  0  0  0  0  0  0  0  0  0  0  0
    0.9259   -1.6237   -1.7902 C   0  0  0  0  0  0  0  0  0  0  0  0
    0.9140   -2.8825   -1.0845 O   0  0  0  0  0  0  0  0  0  0  0  0
    0.6327    0.5305    0.9139 H   0  0  0  0  0  0  0  0  0  0  0  0
    0.2400    0.4111   -1.5843 H   0  0  0  0  0  0  0  0  0  0  0  0
    1.9470   -1.3739   -2.0925 H   0  0  0  0  0  0  0  0  0  0  0  0
    0.3527   -1.7369   -2.7164 H   0  0  0  0  0  0  0  0  0  0  0  0
    0.0082   -3.1996   -0.8699 H   0  0  0  0  0  0  0  0  0  0  0  0
   -1.5293   -1.0492    0.7005 N   0  0  0  0  0  0  0  0  0  0  0  0
   -2.6878   -1.8855    1.0721 C   0  0  2  0  0  0  0  0  0  0  0  0
   -2.6061   -3.3160    0.4689 C   0  0  0  0  0  0  0  0  0  0  0  0
   -1.5065   -3.8324    0.2846 O   0  0  0  0  0  0  0  0  0  0  0  0
   -4.0003   -1.1553    0.7422 C   0  0  0  0  0  0  0  0  0  0  0  0
   -0.7580   -1.0619    1.3605 H   0  0  0  0  0  0  0  0  0  0  0  0
   -2.6631   -2.0182    2.1579 H   0  0  0  0  0  0  0  0  0  0  0  0
   -4.1638   -1.1036   -0.3382 H   0  0  0  0  0  0  0  0  0  0  0  0
   -4.8510   -1.6720    1.1966 H   0  0  0  0  0  0  0  0  0  0  0  0
   -3.9719   -0.1348    1.1357 H   0  0  0  0  0  0  0  0  0  0  0  0
   -3.7443   -4.0397    0.1621 N   0  0  0  0  0  0  0  0  0  0  0  0
   -3.6994   -5.3352   -0.5060 C   0  0  0  0  0  0  0  0  0  0  0  0
   -4.6261   -3.5369    0.1850 H   0  0  0  0  0  0  0  0  0  0  0  0
   -4.7086   -5.7470   -0.6005 H   0  0  0  0  0  0  0  0  0  0  0  0
   -3.2700   -5.2345   -1.5086 H   0  0  0  0  0  0  0  0  0  0  0  0
   -3.0925   -6.0432    0.0685 H   0  0  0  0  0  0  0  0  0  0  0  0
  1  2  2  0  0  0  0
  1  3  1  0  0  0  0
  1  7  1  0  0  0  0
  3  4  1  0  0  0  0
  3  5  1  0  0  0  0
  3  6  1  0  0  0  0
  7  8  1  0  0  0  0
  7 12  1  0  0  0  0
  8  9  1  0  0  0  0
  8 11  1  0  0  0  0
  8 13  1  0  0  0  0
  9 10  2  0  0  0  0
  9 17  1  0  0  0  0
 11 14  1  0  0  0  0
 11 15  1  0  0  0  0
 11 16  1  0  0  0  0
 17 18  1  0  0  0  0
 17 23  1  0  0  0  0
 18 19  1  0  0  0  0
 18 21  1  0  0  0  0
 18 24  1  0  0  0  0
 19 20  2  0  0  0  0
 19 28  1  0  0  0  0
 21 22  1  0  0  0  0
 21 25  1  0  0  0  0
 21 26  1  0  0  0  0
 22 27  1  0  0  0  0
 28 29  1  0  0  0  0
 28 33  1  0  0  0  0
 29 30  1  0  0  0  0
 29 32  1  0  0  0  0
 29 34  1  0  0  0  0
 30 31  2  0  0  0  0
 30 38  1  0  0  0  0
 32 35  1  0  0  0  0
 32 36  1  0  0  0  0
 32 37  1  0  0  0  0
 38 39  1  0  0  0  0
 38 40  1  0  0  0  0
 39 41  1  0  0  0  0
 39 42  1  0  0  0  0
 39 43  1  0  0  0  0
M  END
$$$$

  -OEChem-05262217303D

 43 42  0     1  0  0  0  0  0999 V2000
    3.8026   -1.6297    4.0277 C   0  0  0  0  0  0  0  0  0  0  0  0
    3.1399   -1.0483    4.8730 O   0  0  0  0  0  0  0  0  0  0  0  0
    4.7555   -2.7393    4.4310 C   0  0  0  0  0  0  0  0  0  0  0  0
    5.7795   -2.4685    4.1623 H   0  0  0  0  0  0  0  0  0  0  0  0
    4.7064   -2.9047    5.5109 H   0  0  0  0  0  0  0  0  0  0  0  0
    4.4852   -3.6669    3.9202 H   0  0  0  0  0  0  0  0  0  0  0  0
    3.6743   -1.2817    2.6999 N   0  0  0  0  0  0  0  0  0  0  0  0
    2.6872   -0.3251    2.1845 C   0  0  2  0  0  0  0  0  0  0  0  0
    2.1720   -0.7361    0.7888 C   0  0  0  0  0  0  0  0  0  0  0  0
    2.9111   -1.3948    0.0750 O   0  0  0  0  0  0  0  0  0  0  0  0
    3.3437    1.0576    2.1300 C   0  0  0  0  0  0  0  0  0  0  0  0
    4.1585   -1.8588    2.0116 H   0  0  0  0  0  0  0  0  0  0  0  0
    1.8239   -0.2886    2.8572 H   0  0  0  0  0  0  0  0  0  0  0  0
    4.2087    1.0433    1.4585 H   0  0  0  0  0  0  0  0  0  0  0  0
    2.6344    1.8080    1.7683 H   0  0  0  0  0  0  0  0  0  0  0  0
    3.6823    1.3549    3.1279 H   0  0  0  0  0  0  0  0  0  0  0  0
    0.9361   -0.2560    0.3694 N   0  0  0  0  0  0  0  0  0  0  0  0
    0.1455   -0.5393   -0.8664 C   0  0  2  0  0  0  0  0  0  0  0  0
   -1.2353   -1.1459   -0.5141 C   0  0  0  0  0  0  0  0  0  0  0  0
   -1.9539   -1.6042   -1.3945 O   0  0  0  0  0  0  0  0  0  0  0  0
    0.7812   -1.4915   -1.9114 C   0  0  0  0  0  0  0  0  0  0  0  0
    0.9186   -2.8338   -1.4215 O   0  0  0  0  0  0  0  0  0  0  0  0
    0.5349    0.4288    1.0034 H   0  0  0  0  0  0  0  0  0  0  0  0
   -0.0303    0.4143   -1.3713 H   0  0  0  0  0  0  0  0  0  0  0  0
    1.7667   -1.1074   -2.1926 H   0  0  0  0  0  0  0  0  0  0  0  0
    0.1783   -1.5037   -2.8260 H   0  0  0  0  0  0  0  0  0  0  0  0
    0.0549   -3.2817   -1.4004 H   0  0  0  0  0  0  0  0  0  0  0  0
   -1.7242   -1.0795    0.7830 N   0  0  0  0  0  0  0  0  0  0  0  0
   -3.0371   -1.5587    1.2661 C   0  0  2  0  0  0  0  0  0  0  0  0
   -3.2390   -3.0892    1.1741 C   0  0  0  0  0  0  0  0  0  0  0  0
   -3.4122   -3.7339    2.1991 O   0  0  0  0  0  0  0  0  0  0  0  0
   -4.1920   -0.8055    0.5890 C   0  0  0  0  0  0  0  0  0  0  0  0
   -1.0240   -0.8862    1.4918 H   0  0  0  0  0  0  0  0  0  0  0  0
   -3.0892   -1.3137    2.3320 H   0  0  0  0  0  0  0  0  0  0  0  0
   -4.2775   -1.0691   -0.4693 H   0  0  0  0  0  0  0  0  0  0  0  0
   -5.1385   -1.0568    1.0781 H   0  0  0  0  0  0  0  0  0  0  0  0
   -4.0393    0.2751    0.6676 H   0  0  0  0  0  0  0  0  0  0  0  0
   -3.2093   -3.7437   -0.0411 N   0  0  0  0  0  0  0  0  0  0  0  0
   -3.3232   -5.1875   -0.1937 C   0  0  0  0  0  0  0  0  0  0  0  0
   -2.9744   -3.1691   -0.8542 H   0  0  0  0  0  0  0  0  0  0  0  0
   -3.3369   -5.4531   -1.2552 H   0  0  0  0  0  0  0  0  0  0  0  0
   -2.4742   -5.6905    0.2805 H   0  0  0  0  0  0  0  0  0  0  0  0
   -4.2496   -5.5501    0.2641 H   0  0  0  0  0  0  0  0  0  0  0  0
  1  2  2  0  0  0  0
  1  3  1  0  0  0  0
  1  7  1  0  0  0  0
  3  4  1  0  0  0  0
  3  5  1  0  0  0  0
  3  6  1  0  0  0  0
  7  8  1  0  0  0  0
  7 12  1  0  0  0  0
  8  9  1  0  0  0  0
  8 11  1  0  0  0  0
  8 13  1  0  0  0  0
  9 10  2  0  0  0  0
  9 17  1  0  0  0  0
 11 14  1  0  0  0  0
 11 15  1  0  0  0  0
 11 16  1  0  0  0  0
 17 18  1  0  0  0  0
 17 23  1  0  0  0  0
 18 19  1  0  0  0  0
 18 21  1  0  0  0  0
 18 24  1  0  0  0  0
 19 20  2  0  0  0  0
 19 28  1  0  0  0  0
 21 22  1  0  0  0  0
 21 25  1  0  0  0  0
 21 26  1  0  0  0  0
 22 27  1  0  0  0  0
 28 29  1  0  0  0  0
 28 33  1  0  0  0  0
 29 30  1  0  0  0  0
 29 32  1  0  0  0  0
 29 34  1  0  0  0  0
 30 31  2  0  0  0  0
 30 38  1  0  0  0  0
 32 35  1  0  0  0  0
 32 36  1  0  0  0  0
 32 37  1  0  0  0  0
 38 39  1  0  0  0  0
 38 40  1  0  0  0  0
 39 41  1  0  0  0  0
 39 42  1  0  0  0  0
 39 43  1  0  0  0  0
M  END
$$$$

  -OEChem-05262217303D

 43 42  0     1  0  0  0  0  0999 V2000
    3.7933   -1.7872    4.0124 C   0  0  0  0  0  0  0  0  0  0  0  0
    3.1246   -1.2679    4.8924 O   0  0  0  0  0  0  0  0  0  0  0  0
    4.8427   -2.8260    4.3594 C   0  0  0  0  0  0  0  0  0  0  0  0
    5.8263   -2.4880    4.0241 H   0  0  0  0  0  0  0  0  0  0  0  0
    4.8742   -2.9844    5.4410 H   0  0  0  0  0  0  0  0  0  0  0  0
    4.6050   -3.7740    3.8706 H   0  0  0  0  0  0  0  0  0  0  0  0
    3.5931   -1.4259    2.6975 N   0  0  0  0  0  0  0  0  0  0  0  0
    2.5372   -0.5176    2.2342 C   0  0  2  0  0  0  0  0  0  0  0  0
    2.1205   -0.8244    0.7788 C   0  0  0  0  0  0  0  0  0  0  0  0
    2.8938   -1.4593    0.0782 O   0  0  0  0  0  0  0  0  0  0  0  0
    3.0514    0.9214    2.3560 C   0  0  0  0  0  0  0  0  0  0  0  0
    4.0983   -1.9469    1.9800 H   0  0  0  0  0  0  0  0  0  0  0  0
    1.6500   -0.6415    2.8645 H   0  0  0  0  0  0  0  0  0  0  0  0
    3.9362    1.0642    1.7270 H   0  0  0  0  0  0  0  0  0  0  0  0
    2.2838    1.6355    2.0449 H   0  0  0  0  0  0  0  0  0  0  0  0
    3.3234    1.1409    3.3936 H   0  0  0  0  0  0  0  0  0  0  0  0
    0.9456   -0.2636    0.2899 N   0  0  0  0  0  0  0  0  0  0  0  0
    0.2010   -0.5280   -0.9785 C   0  0  2  0  0  0  0  0  0  0  0  0
   -1.2408   -1.0234   -0.6771 C   0  0  0  0  0  0  0  0  0  0  0  0
   -1.8307   -1.7758   -1.4453 O   0  0  0  0  0  0  0  0  0  0  0  0
    0.8389   -1.5279   -1.9778 C   0  0  0  0  0  0  0  0  0  0  0  0
    0.8835   -2.8638   -1.4577 O   0  0  0  0  0  0  0  0  0  0  0  0
    0.5230    0.3949    0.9344 H   0  0  0  0  0  0  0  0  0  0  0  0
    0.1147    0.4241   -1.5086 H   0  0  0  0  0  0  0  0  0  0  0  0
    1.8535   -1.1987   -2.2223 H   0  0  0  0  0  0  0  0  0  0  0  0
    0.2754   -1.5272   -2.9171 H   0  0  0  0  0  0  0  0  0  0  0  0
   -0.0191   -3.2288   -1.4111 H   0  0  0  0  0  0  0  0  0  0  0  0
   -1.9001   -0.6106    0.4739 N   0  0  0  0  0  0  0  0  0  0  0  0
   -3.2534   -1.0077    0.9207 C   0  0  2  0  0  0  0  0  0  0  0  0
   -3.3849   -2.5004    1.3000 C   0  0  0  0  0  0  0  0  0  0  0  0
   -3.6489   -2.8025    2.4553 O   0  0  0  0  0  0  0  0  0  0  0  0
   -4.3320   -0.5940   -0.0920 C   0  0  0  0  0  0  0  0  0  0  0  0
   -1.3447   -0.0833    1.1364 H   0  0  0  0  0  0  0  0  0  0  0  0
   -3.4596   -0.4470    1.8385 H   0  0  0  0  0  0  0  0  0  0  0  0
   -4.2665   -1.1813   -1.0123 H   0  0  0  0  0  0  0  0  0  0  0  0
   -5.3265   -0.7506    0.3381 H   0  0  0  0  0  0  0  0  0  0  0  0
   -4.2284    0.4648   -0.3470 H   0  0  0  0  0  0  0  0  0  0  0  0
   -3.1672   -3.4966    0.3697 N   0  0  0  0  0  0  0  0  0  0  0  0
   -3.1415   -4.9169    0.6924 C   0  0  0  0  0  0  0  0  0  0  0  0
   -2.8420   -3.1851   -0.5483 H   0  0  0  0  0  0  0  0  0  0  0  0
   -2.9827   -5.5067   -0.2155 H   0  0  0  0  0  0  0  0  0  0  0  0
   -2.3303   -5.1355    1.3945 H   0  0  0  0  0  0  0  0  0  0  0  0
   -4.0911   -5.2256    1.1422 H   0  0  0  0  0  0  0  0  0  0  0  0
  1  2  2  0  0  0  0
  1  3  1  0  0  0  0
  1  7  1  0  0  0  0
  3  4  1  0  0  0  0
  3  5  1  0  0  0  0
  3  6  1  0  0  0  0
  7  8  1  0  0  0  0
  7 12  1  0  0  0  0
  8  9  1  0  0  0  0
  8 11  1  0  0  0  0
  8 13  1  0  0  0  0
  9 10  2  0  0  0  0
  9 17  1  0  0  0  0
 11 14  1  0  0  0  0
 11 15  1  0  0  0  0
 11 16  1  0  0  0  0
 17 18  1  0  0  0  0
 17 23  1  0  0  0  0
 18 19  1  0  0  0  0
 18 21  1  0  0  0  0
 18 24  1  0  0  0  0
 19 20  2  0  0  0  0
 19 28  1  0  0  0  0
 21 22  1  0  0  0  0
 21 25  1  0  0  0  0
 21 26  1  0  0  0  0
 22 27  1  0  0  0  0
 28 29  1  0  0  0  0
 28 33  1  0  0  0  0
 29 30  1  0  0  0  0
 29 32  1  0  0  0  0
 29 34  1  0  0  0  0
 30 31  2  0  0  0  0
 30 38  1  0  0  0  0
 32 35  1  0  0  0  0
 32 36  1  0  0  0  0
 32 37  1  0  0  0  0
 38 39  1  0  0  0  0
 38 40  1  0  0  0  0
 39 41  1  0  0  0  0
 39 42  1  0  0  0  0
 39 43  1  0  0  0  0
M  END
$$$$

  -OEChem-05262217303D

 43 42  0     1  0  0  0  0  0999 V2000
    3.4768   -2.2656    3.6614 C   0  0  0  0  0  0  0  0  0  0  0  0
    2.5644   -2.2711    4.4727 O   0  0  0  0  0  0  0  0  0  0  0  0
    4.6742   -3.1774    3.8530 C   0  0  0  0  0  0  0  0  0  0  0  0
    5.5875   -2.5826    3.9299 H   0  0  0  0  0  0  0  0  0  0  0  0
    4.5586   -3.7653    4.7680 H   0  0  0  0  0  0  0  0  0  0  0  0
    4.7629   -3.8600    3.0042 H   0  0  0  0  0  0  0  0  0  0  0  0
    3.4156   -1.4317    2.5654 N   0  0  0  0  0  0  0  0  0  0  0  0
    2.2384   -0.6367    2.1949 C   0  0  2  0  0  0  0  0  0  0  0  0
    2.1235   -0.4859    0.6633 C   0  0  0  0  0  0  0  0  0  0  0  0
    3.1205   -0.6473   -0.0281 O   0  0  0  0  0  0  0  0  0  0  0  0
    2.3500    0.7337    2.8713 C   0  0  0  0  0  0  0  0  0  0  0  0
    4.1315   -1.5473    1.8478 H   0  0  0  0  0  0  0  0  0  0  0  0
    1.3303   -1.1412    2.5425 H   0  0  0  0  0  0  0  0  0  0  0  0
    3.2509    1.2545    2.5309 H   0  0  0  0  0  0  0  0  0  0  0  0
    1.4792    1.3533    2.6381 H   0  0  0  0  0  0  0  0  0  0  0  0
    2.4059    0.6157    3.9585 H   0  0  0  0  0  0  0  0  0  0  0  0
    0.9504   -0.0016    0.1016 N   0  0  0  0  0  0  0  0  0  0  0  0
    0.3300   -0.4910   -1.1631 C   0  0  2  0  0  0  0  0  0  0  0  0
   -1.0969   -1.0231   -0.8734 C   0  0  0  0  0  0  0  0  0  0  0  0
   -1.4718   -2.1337   -1.2354 O   0  0  0  0  0  0  0  0  0  0  0  0
    1.1240   -1.5612   -1.9568 C   0  0  0  0  0  0  0  0  0  0  0  0
    1.2177   -2.7962   -1.2330 O   0  0  0  0  0  0  0  0  0  0  0  0
    0.2793    0.2260    0.8285 H   0  0  0  0  0  0  0  0  0  0  0  0
    0.2281    0.3694   -1.8301 H   0  0  0  0  0  0  0  0  0  0  0  0
    2.1233   -1.1910   -2.2026 H   0  0  0  0  0  0  0  0  0  0  0  0
    0.6202   -1.7504   -2.9109 H   0  0  0  0  0  0  0  0  0  0  0  0
    0.3227   -3.1818   -1.1466 H   0  0  0  0  0  0  0  0  0  0  0  0
   -1.9295   -0.2634   -0.0623 N   0  0  0  0  0  0  0  0  0  0  0  0
   -3.3106   -0.5876    0.3578 C   0  0  2  0  0  0  0  0  0  0  0  0
   -3.4233   -1.7610    1.3572 C   0  0  0  0  0  0  0  0  0  0  0  0
   -3.9833   -1.5792    2.4292 O   0  0  0  0  0  0  0  0  0  0  0  0
   -4.2350   -0.8037   -0.8495 C   0  0  0  0  0  0  0  0  0  0  0  0
   -1.6052    0.6773    0.1411 H   0  0  0  0  0  0  0  0  0  0  0  0
   -3.6917    0.2911    0.8890 H   0  0  0  0  0  0  0  0  0  0  0  0
   -3.9891   -1.7269   -1.3820 H   0  0  0  0  0  0  0  0  0  0  0  0
   -5.2749   -0.8746   -0.5148 H   0  0  0  0  0  0  0  0  0  0  0  0
   -4.1535    0.0346   -1.5478 H   0  0  0  0  0  0  0  0  0  0  0  0
   -2.8882   -3.0006    1.0719 N   0  0  0  0  0  0  0  0  0  0  0  0
   -2.9430   -4.1397    1.9777 C   0  0  0  0  0  0  0  0  0  0  0  0
   -2.4125   -3.0934    0.1718 H   0  0  0  0  0  0  0  0  0  0  0  0
   -2.4250   -4.9976    1.5382 H   0  0  0  0  0  0  0  0  0  0  0  0
   -2.4612   -3.8952    2.9301 H   0  0  0  0  0  0  0  0  0  0  0  0
   -3.9825   -4.4247    2.1705 H   0  0  0  0  0  0  0  0  0  0  0  0
  1  2  2  0  0  0  0
  1  3  1  0  0  0  0
  1  7  1  0  0  0  0
  3  4  1  0  0  0  0
  3  5  1  0  0  0  0
  3  6  1  0  0  0  0
  7  8  1  0  0  0  0
  7 12  1  0  0  0  0
  8  9  1  0  0  0  0
  8 11  1  0  0  0  0
  8 13  1  0  0  0  0
  9 10  2  0  0  0  0
  9 17  1  0  0  0  0
 11 14  1  0  0  0  0
 11 15  1  0  0  0  0
 11 16  1  0  0  0  0
 17 18  1  0  0  0  0
 17 23  1  0  0  0  0
 18 19  1  0  0  0  0
 18 21  1  0  0  0  0
 18 24  1  0  0  0  0
 19 20  2  0  0  0  0
 19 28  1  0  0  0  0
 21 22  1  0  0  0  0
 21 25  1  0  0  0  0
 21 26  1  0  0  0  0
 22 27  1  0  0  0  0
 28 29  1  0  0  0  0
 28 33  1  0  0  0  0
 29 30  1  0  0  0  0
 29 32  1  0  0  0  0
 29 34  1  0  0  0  0
 30 31  2  0  0  0  0
 30 38  1  0  0  0  0
 32 35  1  0  0  0  0
 32 36  1  0  0  0  0
 32 37  1  0  0  0  0
 38 39  1  0  0  0  0
 38 40  1  0  0  0  0
 39 41  1  0  0  0  0
 39 42  1  0  0  0  0
 39 43  1  0  0  0  0
M  END
$$$$

  -OEChem-05262217303D

 43 42  0     1  0  0  0  0  0999 V2000
    1.1517   -1.7214    2.5391 C   0  0  0  0  0  0  0  0  0  0  0  0
    0.1205   -1.0583    2.5434 O   0  0  0  0  0  0  0  0  0  0  0  0
    1.0971   -3.2374    2.5321 C   0  0  0  0  0  0  0  0  0  0  0  0
    0.9730   -3.6104    3.5515 H   0  0  0  0  0  0  0  0  0  0  0  0
    0.2599   -3.5820    1.9193 H   0  0  0  0  0  0  0  0  0  0  0  0
    2.0193   -3.6494    2.1147 H   0  0  0  0  0  0  0  0  0  0  0  0
    2.3640   -1.0741    2.4478 N   0  0  0  0  0  0  0  0  0  0  0  0
    2.4752    0.3634    2.1741 C   0  0  2  0  0  0  0  0  0  0  0  0
    2.1839    0.6571    0.6842 C   0  0  0  0  0  0  0  0  0  0  0  0
    3.0616    1.0686   -0.0622 O   0  0  0  0  0  0  0  0  0  0  0  0
    3.8741    0.8107    2.6166 C   0  0  0  0  0  0  0  0  0  0  0  0
    3.1637   -1.6578    2.2119 H   0  0  0  0  0  0  0  0  0  0  0  0
    1.7462    0.9189    2.7734 H   0  0  0  0  0  0  0  0  0  0  0  0
    4.6467    0.2812    2.0493 H   0  0  0  0  0  0  0  0  0  0  0  0
    3.9989    1.8854    2.4492 H   0  0  0  0  0  0  0  0  0  0  0  0
    4.0207    0.6074    3.6820 H   0  0  0  0  0  0  0  0  0  0  0  0
    0.8861    0.5979    0.1988 N   0  0  0  0  0  0  0  0  0  0  0  0
    0.4920   -0.2567   -0.9548 C   0  0  2  0  0  0  0  0  0  0  0  0
   -0.5991   -1.2752   -0.5301 C   0  0  0  0  0  0  0  0  0  0  0  0
   -0.4484   -2.4907   -0.5953 O   0  0  0  0  0  0  0  0  0  0  0  0
    1.6514   -1.0334   -1.6365 C   0  0  0  0  0  0  0  0  0  0  0  0
    2.2119   -2.0196   -0.7555 O   0  0  0  0  0  0  0  0  0  0  0  0
    0.2618    0.4535    0.9948 H   0  0  0  0  0  0  0  0  0  0  0  0
    0.0590    0.3957   -1.7177 H   0  0  0  0  0  0  0  0  0  0  0  0
    2.4291   -0.3442   -1.9773 H   0  0  0  0  0  0  0  0  0  0  0  0
    1.2684   -1.5380   -2.5297 H   0  0  0  0  0  0  0  0  0  0  0  0
    1.5143   -2.6877   -0.5797 H   0  0  0  0  0  0  0  0  0  0  0  0
   -1.7972   -0.7713   -0.0464 N   0  0  0  0  0  0  0  0  0  0  0  0
   -3.0701   -1.5209    0.0352 C   0  0  2  0  0  0  0  0  0  0  0  0
   -3.1344   -2.6330    1.1123 C   0  0  0  0  0  0  0  0  0  0  0  0
   -3.9938   -3.5039    1.0496 O   0  0  0  0  0  0  0  0  0  0  0  0
   -3.4620   -2.0403   -1.3592 C   0  0  0  0  0  0  0  0  0  0  0  0
   -1.8628    0.2425   -0.0250 H   0  0  0  0  0  0  0  0  0  0  0  0
   -3.8385   -0.8014    0.3331 H   0  0  0  0  0  0  0  0  0  0  0  0
   -2.8106   -2.8637   -1.6677 H   0  0  0  0  0  0  0  0  0  0  0  0
   -4.4926   -2.4089   -1.3497 H   0  0  0  0  0  0  0  0  0  0  0  0
   -3.3918   -1.2397   -2.1009 H   0  0  0  0  0  0  0  0  0  0  0  0
   -2.3402   -2.5743    2.2410 N   0  0  0  0  0  0  0  0  0  0  0  0
   -2.4060   -3.5464    3.3237 C   0  0  0  0  0  0  0  0  0  0  0  0
   -1.5907   -1.8794    2.2462 H   0  0  0  0  0  0  0  0  0  0  0  0
   -1.6959   -3.2796    4.1121 H   0  0  0  0  0  0  0  0  0  0  0  0
   -3.4109   -3.5691    3.7580 H   0  0  0  0  0  0  0  0  0  0  0  0
   -2.1576   -4.5468    2.9550 H   0  0  0  0  0  0  0  0  0  0  0  0
  1  2  2  0  0  0  0
  1  3  1  0  0  0  0
  1  7  1  0  0  0  0
  3  4  1  0  0  0  0
  3  5  1  0  0  0  0
  3  6  1  0  0  0  0
  7  8  1  0  0  0  0
  7 12  1  0  0  0  0
  8  9  1  0  0  0  0
  8 11  1  0  0  0  0
  8 13  1  0  0  0  0
  9 10  2  0  0  0  0
  9 17  1  0  0  0  0
 11 14  1  0  0  0  0
 11 15  1  0  0  0  0
 11 16  1  0  0  0  0
 17 18  1  0  0  0  0
 17 23  1  0  0  0  0
 18 19  1  0  0  0  0
 18 21  1  0  0  0  0
 18 24  1  0  0  0  0
 19 20  2  0  0  0  0
 19 28  1  0  0  0  0
 21 22  1  0  0  0  0
 21 25  1  0  0  0  0
 21 26  1  0  0  0  0
 22 27  1  0  0  0  0
 28 29  1  0  0  0  0
 28 33  1  0  0  0  0
 29 30  1  0  0  0  0
 29 32  1  0  0  0  0
 29 34  1  0  0  0  0
 30 31  2  0  0  0  0
 30 38  1  0  0  0  0
 32 35  1  0  0  0  0
 32 36  1  0  0  0  0
 32 37  1  0  0  0  0
 38 39  1  0  0  0  0
 38 40  1  0  0  0  0
 39 41  1  0  0  0  0
 39 42  1  0  0  0  0
 39 43  1  0  0  0  0
M  END
$$$$

  -OEChem-05262217303D

 43 42  0     1  0  0  0  0  0999 V2000
    1.0234   -1.6152    2.5685 C   0  0  0  0  0  0  0  0  0  0  0  0
    0.0472   -0.8746    2.5182 O   0  0  0  0  0  0  0  0  0  0  0  0
    0.8555   -3.1179    2.6899 C   0  0  0  0  0  0  0  0  0  0  0  0
    0.8380   -3.4068    3.7435 H   0  0  0  0  0  0  0  0  0  0  0  0
   -0.0766   -3.4351    2.2158 H   0  0  0  0  0  0  0  0  0  0  0  0
    1.6820   -3.6323    2.1932 H   0  0  0  0  0  0  0  0  0  0  0  0
    2.2838   -1.0725    2.4435 N   0  0  0  0  0  0  0  0  0  0  0  0
    2.5259    0.3421    2.1322 C   0  0  2  0  0  0  0  0  0  0  0  0
    2.2334    0.6439    0.6437 C   0  0  0  0  0  0  0  0  0  0  0  0
    3.1096    1.0532   -0.1057 O   0  0  0  0  0  0  0  0  0  0  0  0
    3.9705    0.6603    2.5380 C   0  0  0  0  0  0  0  0  0  0  0  0
    3.0448   -1.7285    2.2834 H   0  0  0  0  0  0  0  0  0  0  0  0
    1.8653    0.9745    2.7349 H   0  0  0  0  0  0  0  0  0  0  0  0
    4.6759    0.0548    1.9594 H   0  0  0  0  0  0  0  0  0  0  0  0
    4.1918    1.7167    2.3552 H   0  0  0  0  0  0  0  0  0  0  0  0
    4.1225    0.4553    3.6020 H   0  0  0  0  0  0  0  0  0  0  0  0
    0.9296    0.6042    0.1755 N   0  0  0  0  0  0  0  0  0  0  0  0
    0.5090   -0.2038   -0.9988 C   0  0  2  0  0  0  0  0  0  0  0  0
   -0.5779   -1.2321   -0.5903 C   0  0  0  0  0  0  0  0  0  0  0  0
   -0.3457   -2.4263   -0.4315 O   0  0  0  0  0  0  0  0  0  0  0  0
    1.6475   -0.9524   -1.7432 C   0  0  0  0  0  0  0  0  0  0  0  0
    2.2361   -1.9733   -0.9230 O   0  0  0  0  0  0  0  0  0  0  0  0
    0.3098    0.4529    0.9755 H   0  0  0  0  0  0  0  0  0  0  0  0
    0.0650    0.4814   -1.7258 H   0  0  0  0  0  0  0  0  0  0  0  0
    2.4144   -0.2507   -2.0828 H   0  0  0  0  0  0  0  0  0  0  0  0
    1.2336   -1.4222   -2.6416 H   0  0  0  0  0  0  0  0  0  0  0  0
    1.5228   -2.5969   -0.6614 H   0  0  0  0  0  0  0  0  0  0  0  0
   -1.8619   -0.7591   -0.3676 N   0  0  0  0  0  0  0  0  0  0  0  0
   -3.0907   -1.5799   -0.2931 C   0  0  2  0  0  0  0  0  0  0  0  0
   -3.2720   -2.4171    0.9970 C   0  0  0  0  0  0  0  0  0  0  0  0
   -4.1679   -3.2501    1.0589 O   0  0  0  0  0  0  0  0  0  0  0  0
   -3.2382   -2.4426   -1.5589 C   0  0  0  0  0  0  0  0  0  0  0  0
   -1.9860    0.2425   -0.4885 H   0  0  0  0  0  0  0  0  0  0  0  0
   -3.9311   -0.8794   -0.2906 H   0  0  0  0  0  0  0  0  0  0  0  0
   -2.5160   -3.2646   -1.5599 H   0  0  0  0  0  0  0  0  0  0  0  0
   -4.2423   -2.8765   -1.6061 H   0  0  0  0  0  0  0  0  0  0  0  0
   -3.0840   -1.8374   -2.4569 H   0  0  0  0  0  0  0  0  0  0  0  0
   -2.5404   -2.1535    2.1388 N   0  0  0  0  0  0  0  0  0  0  0  0
   -2.7204   -2.8754    3.3913 C   0  0  0  0  0  0  0  0  0  0  0  0
   -1.7401   -1.5248    2.0483 H   0  0  0  0  0  0  0  0  0  0  0  0
   -2.0398   -2.4822    4.1526 H   0  0  0  0  0  0  0  0  0  0  0  0
   -3.7470   -2.7627    3.7551 H   0  0  0  0  0  0  0  0  0  0  0  0
   -2.5094   -3.9410    3.2530 H   0  0  0  0  0  0  0  0  0  0  0  0
  1  2  2  0  0  0  0
  1  3  1  0  0  0  0
  1  7  1  0  0  0  0
  3  4  1  0  0  0  0
  3  5  1  0  0  0  0
  3  6  1  0  0  0  0
  7  8  1  0  0  0  0
  7 12  1  0  0  0  0
  8  9  1  0  0  0  0
  8 11  1  0  0  0  0
  8 13  1  0  0  0  0
  9 10  2  0  0  0  0
  9 17  1  0  0  0  0
 11 14  1  0  0  0  0
 11 15  1  0  0  0  0
 11 16  1  0  0  0  0
 17 18  1  0  0  0  0
 17 23  1  0  0  0  0
 18 19  1  0  0  0  0
 18 21  1  0  0  0  0
 18 24  1  0  0  0  0
 19 20  2  0  0  0  0
 19 28  1  0  0  0  0
 21 22  1  0  0  0  0
 21 25  1  0  0  0  0
 21 26  1  0  0  0  0
 22 27  1  0  0  0  0
 28 29  1  0  0  0  0
 28 33  1  0  0  0  0
 29 30  1  0  0  0  0
 29 32  1  0  0  0  0
 29 34  1  0  0  0  0
 30 31  2  0  0  0  0
 30 38  1  0  0  0  0
 32 35  1  0  0  0  0
 32 36  1  0  0  0  0
 32 37  1  0  0  0  0
 38 39  1  0  0  0  0
 38 40  1  0  0  0  0
 39 41  1  0  0  0  0
 39 42  1  0  0  0  0
 39 43  1  0  0  0  0
M  END
$$$$

  -OEChem-05262217303D

 43 42  0     1  0  0  0  0  0999 V2000
    2.6570   -2.4212    3.6655 C   0  0  0  0  0  0  0  0  0  0  0  0
    1.5851   -2.6382    4.2108 O   0  0  0  0  0  0  0  0  0  0  0  0
    3.8771   -3.2455    4.0305 C   0  0  0  0  0  0  0  0  0  0  0  0
    4.6748   -2.5909    4.3901 H   0  0  0  0  0  0  0  0  0  0  0  0
    3.6275   -3.9621    4.8179 H   0  0  0  0  0  0  0  0  0  0  0  0
    4.2314   -3.7933    3.1538 H   0  0  0  0  0  0  0  0  0  0  0  0
    2.7639   -1.4311    2.7126 N   0  0  0  0  0  0  0  0  0  0  0  0
    1.6184   -0.7121    2.1424 C   0  0  2  0  0  0  0  0  0  0  0  0
    1.8326   -0.3974    0.6471 C   0  0  0  0  0  0  0  0  0  0  0  0
    2.9633   -0.4169    0.1761 O   0  0  0  0  0  0  0  0  0  0  0  0
    1.3984    0.5716    2.9469 C   0  0  0  0  0  0  0  0  0  0  0  0
    3.6334   -1.3882    2.1813 H   0  0  0  0  0  0  0  0  0  0  0  0
    0.7192   -1.3342    2.2109 H   0  0  0  0  0  0  0  0  0  0  0  0
    2.2751    1.2230    2.8763 H   0  0  0  0  0  0  0  0  0  0  0  0
    0.5259    1.1149    2.5710 H   0  0  0  0  0  0  0  0  0  0  0  0
    1.2255    0.3315    4.0005 H   0  0  0  0  0  0  0  0  0  0  0  0
    0.7373   -0.0215   -0.1086 N   0  0  0  0  0  0  0  0  0  0  0  0
    0.4761   -0.3014   -1.5408 C   0  0  2  0  0  0  0  0  0  0  0  0
   -0.8379   -1.1041   -1.5977 C   0  0  0  0  0  0  0  0  0  0  0  0
   -0.8620   -2.2926   -1.2923 O   0  0  0  0  0  0  0  0  0  0  0  0
    1.5708   -1.0549   -2.3349 C   0  0  0  0  0  0  0  0  0  0  0  0
    1.7563   -2.3999   -1.8727 O   0  0  0  0  0  0  0  0  0  0  0  0
   -0.1129    0.0320    0.4629 H   0  0  0  0  0  0  0  0  0  0  0  0
    0.3293    0.6558   -2.0473 H   0  0  0  0  0  0  0  0  0  0  0  0
    2.5187   -0.5094   -2.2978 H   0  0  0  0  0  0  0  0  0  0  0  0
    1.2688   -1.0942   -3.3864 H   0  0  0  0  0  0  0  0  0  0  0  0
    0.8843   -2.7855   -1.6315 H   0  0  0  0  0  0  0  0  0  0  0  0
   -2.0296   -0.4041   -1.7063 N   0  0  0  0  0  0  0  0  0  0  0  0
   -3.1738   -0.7516   -0.8386 C   0  0  2  0  0  0  0  0  0  0  0  0
   -2.7446   -0.8614    0.6521 C   0  0  0  0  0  0  0  0  0  0  0  0
   -1.9358   -0.0480    1.0962 O   0  0  0  0  0  0  0  0  0  0  0  0
   -3.9148   -1.9906   -1.3692 C   0  0  0  0  0  0  0  0  0  0  0  0
   -1.8987    0.5925   -1.8560 H   0  0  0  0  0  0  0  0  0  0  0  0
   -3.8853    0.0787   -0.8834 H   0  0  0  0  0  0  0  0  0  0  0  0
   -3.3193   -2.8995   -1.2431 H   0  0  0  0  0  0  0  0  0  0  0  0
   -4.8623   -2.1225   -0.8379 H   0  0  0  0  0  0  0  0  0  0  0  0
   -4.1342   -1.8688   -2.4342 H   0  0  0  0  0  0  0  0  0  0  0  0
   -3.2077   -1.8648    1.4828 N   0  0  0  0  0  0  0  0  0  0  0  0
   -2.6831   -2.0853    2.8271 C   0  0  0  0  0  0  0  0  0  0  0  0
   -3.7274   -2.6177    1.0408 H   0  0  0  0  0  0  0  0  0  0  0  0
   -3.2118   -2.9141    3.3078 H   0  0  0  0  0  0  0  0  0  0  0  0
   -1.6164   -2.3316    2.7900 H   0  0  0  0  0  0  0  0  0  0  0  0
   -2.8165   -1.1901    3.4437 H   0  0  0  0  0  0  0  0  0  0  0  0
  1  2  2  0  0  0  0
  1  3  1  0  0  0  0
  1  7  1  0  0  0  0
  3  4  1  0  0  0  0
  3  5  1  0  0  0  0
  3  6  1  0  0  0  0
  7  8  1  0  0  0  0
  7 12  1  0  0  0  0
  8  9  1  0  0  0  0
  8 11  1  0  0  0  0
  8 13  1  0  0  0  0
  9 10  2  0  0  0  0
  9 17  1  0  0  0  0
 11 14  1  0  0  0  0
 11 15  1  0  0  0  0
 11 16  1  0  0  0  0
 17 18  1  0  0  0  0
 17 23  1  0  0  0  0
 18 19  1  0  0  0  0
 18 21  1  0  0  0  0
 18 24  1  0  0  0  0
 19 20  2  0  0  0  0
 19 28  1  0  0  0  0
 21 22  1  0  0  0  0
 21 25  1  0  0  0  0
 21 26  1  0  0  0  0
 22 27  1  0  0  0  0
 28 29  1  0  0  0  0
 28 33  1  0  0  0  0
 29 30  1  0  0  0  0
 29 32  1  0  0  0  0
 29 34  1  0  0  0  0
 30 31  2  0  0  0  0
 30 38  1  0  0  0  0
 32 35  1  0  0  0  0
 32 36  1  0  0  0  0
 32 37  1  0  0  0  0
 38 39  1  0  0  0  0
 38 40  1  0  0  0  0
 39 41  1  0  0  0  0
 39 42  1  0  0  0  0
 39 43  1  0  0  0  0
M  END
$$$$

  -OEChem-05262217303D

 43 42  0     1  0  0  0  0  0999 V2000
    2.8828   -2.2982    3.7428 C   0  0  0  0  0  0  0  0  0  0  0  0
    1.8464   -2.5589    4.3348 O   0  0  0  0  0  0  0  0  0  0  0  0
    4.1686   -3.0145    4.1098 C   0  0  0  0  0  0  0  0  0  0  0  0
    4.8859   -2.3019    4.5235 H   0  0  0  0  0  0  0  0  0  0  0  0
    3.9688   -3.7891    4.8552 H   0  0  0  0  0  0  0  0  0  0  0  0
    4.6016   -3.4830    3.2226 H   0  0  0  0  0  0  0  0  0  0  0  0
    2.8899   -1.3557    2.7373 N   0  0  0  0  0  0  0  0  0  0  0  0
    1.6800   -0.7533    2.1648 C   0  0  2  0  0  0  0  0  0  0  0  0
    1.8542   -0.4567    0.6604 C   0  0  0  0  0  0  0  0  0  0  0  0
    2.9763   -0.4597    0.1689 O   0  0  0  0  0  0  0  0  0  0  0  0
    1.3550    0.5265    2.9411 C   0  0  0  0  0  0  0  0  0  0  0  0
    3.7390   -1.2782    2.1774 H   0  0  0  0  0  0  0  0  0  0  0  0
    0.8409   -1.4515    2.2583 H   0  0  0  0  0  0  0  0  0  0  0  0
    2.1694    1.2511    2.8424 H   0  0  0  0  0  0  0  0  0  0  0  0
    0.4338    0.9817    2.5641 H   0  0  0  0  0  0  0  0  0  0  0  0
    1.2160    0.2999    4.0029 H   0  0  0  0  0  0  0  0  0  0  0  0
    0.7374   -0.1110   -0.0787 N   0  0  0  0  0  0  0  0  0  0  0  0
    0.4782   -0.3261   -1.5216 C   0  0  2  0  0  0  0  0  0  0  0  0
   -0.7848   -1.1990   -1.6158 C   0  0  0  0  0  0  0  0  0  0  0  0
   -0.7819   -2.3414   -1.1659 O   0  0  0  0  0  0  0  0  0  0  0  0
    1.5890   -0.9974   -2.3615 C   0  0  0  0  0  0  0  0  0  0  0  0
    1.8205   -2.3578   -1.9690 O   0  0  0  0  0  0  0  0  0  0  0  0
   -0.1143   -0.0733    0.4906 H   0  0  0  0  0  0  0  0  0  0  0  0
    0.2808    0.6484   -1.9743 H   0  0  0  0  0  0  0  0  0  0  0  0
    2.5184   -0.4228   -2.3020 H   0  0  0  0  0  0  0  0  0  0  0  0
    1.2791   -0.9934   -3.4114 H   0  0  0  0  0  0  0  0  0  0  0  0
    0.9833   -2.7599   -1.6470 H   0  0  0  0  0  0  0  0  0  0  0  0
   -1.9810   -0.6083   -1.9895 N   0  0  0  0  0  0  0  0  0  0  0  0
   -3.2043   -0.9024   -1.2151 C   0  0  2  0  0  0  0  0  0  0  0  0
   -2.9606   -0.8150    0.3210 C   0  0  0  0  0  0  0  0  0  0  0  0
   -2.1652    0.0152    0.7603 O   0  0  0  0  0  0  0  0  0  0  0  0
   -3.8209   -2.2376   -1.6658 C   0  0  0  0  0  0  0  0  0  0  0  0
   -1.8797    0.3622   -2.2727 H   0  0  0  0  0  0  0  0  0  0  0  0
   -3.9361   -0.1228   -1.4473 H   0  0  0  0  0  0  0  0  0  0  0  0
   -3.2084   -3.0870   -1.3491 H   0  0  0  0  0  0  0  0  0  0  0  0
   -4.8220   -2.3575   -1.2411 H   0  0  0  0  0  0  0  0  0  0  0  0
   -3.9068   -2.2633   -2.7564 H   0  0  0  0  0  0  0  0  0  0  0  0
   -3.6013   -1.6576    1.2109 N   0  0  0  0  0  0  0  0  0  0  0  0
   -3.2642   -1.7148    2.6294 C   0  0  0  0  0  0  0  0  0  0  0  0
   -4.1232   -2.4315    0.8100 H   0  0  0  0  0  0  0  0  0  0  0  0
   -3.9139   -2.4295    3.1438 H   0  0  0  0  0  0  0  0  0  0  0  0
   -2.2248   -2.0330    2.7640 H   0  0  0  0  0  0  0  0  0  0  0  0
   -3.3958   -0.7333    3.0971 H   0  0  0  0  0  0  0  0  0  0  0  0
  1  2  2  0  0  0  0
  1  3  1  0  0  0  0
  1  7  1  0  0  0  0
  3  4  1  0  0  0  0
  3  5  1  0  0  0  0
  3  6  1  0  0  0  0
  7  8  1  0  0  0  0
  7 12  1  0  0  0  0
  8  9  1  0  0  0  0
  8 11  1  0  0  0  0
  8 13  1  0  0  0  0
  9 10  2  0  0  0  0
  9 17  1  0  0  0  0
 11 14  1  0  0  0  0
 11 15  1  0  0  0  0
 11 16  1  0  0  0  0
 17 18  1  0  0  0  0
 17 23  1  0  0  0  0
 18 19  1  0  0  0  0
 18 21  1  0  0  0  0
 18 24  1  0  0  0  0
 19 20  2  0  0  0  0
 19 28  1  0  0  0  0
 21 22  1  0  0  0  0
 21 25  1  0  0  0  0
 21 26  1  0  0  0  0
 22 27  1  0  0  0  0
 28 29  1  0  0  0  0
 28 33  1  0  0  0  0
 29 30  1  0  0  0  0
 29 32  1  0  0  0  0
 29 34  1  0  0  0  0
 30 31  2  0  0  0  0
 30 38  1  0  0  0  0
 32 35  1  0  0  0  0
 32 36  1  0  0  0  0
 32 37  1  0  0  0  0
 38 39  1  0  0  0  0
 38 40  1  0  0  0  0
 39 41  1  0  0  0  0
 39 42  1  0  0  0  0
 39 43  1  0  0  0  0
M  END
$$$$

  -OEChem-05262217303D

 43 42  0     1  0  0  0  0  0999 V2000
    3.2785   -2.1036    3.8080 C   0  0  0  0  0  0  0  0  0  0  0  0
    2.3077   -2.1839    4.5446 O   0  0  0  0  0  0  0  0  0  0  0  0
    4.5321   -2.9015    4.1127 C   0  0  0  0  0  0  0  0  0  0  0  0
    5.3813   -2.2263    4.2434 H   0  0  0  0  0  0  0  0  0  0  0  0
    4.3969   -3.4800    5.0309 H   0  0  0  0  0  0  0  0  0  0  0  0
    4.7442   -3.5889    3.2904 H   0  0  0  0  0  0  0  0  0  0  0  0
    3.2380   -1.2885    2.6972 N   0  0  0  0  0  0  0  0  0  0  0  0
    2.0359   -0.5910    2.2237 C   0  0  2  0  0  0  0  0  0  0  0  0
    2.0573   -0.4030    0.6919 C   0  0  0  0  0  0  0  0  0  0  0  0
    3.1237   -0.4843    0.0951 O   0  0  0  0  0  0  0  0  0  0  0  0
    1.9484    0.7636    2.9342 C   0  0  0  0  0  0  0  0  0  0  0  0
    4.0208   -1.3419    2.0453 H   0  0  0  0  0  0  0  0  0  0  0  0
    1.1487   -1.1862    2.4662 H   0  0  0  0  0  0  0  0  0  0  0  0
    2.8256    1.3750    2.6990 H   0  0  0  0  0  0  0  0  0  0  0  0
    1.0507    1.3053    2.6218 H   0  0  0  0  0  0  0  0  0  0  0  0
    1.9034    0.6217    4.0188 H   0  0  0  0  0  0  0  0  0  0  0  0
    0.8960   -0.0238    0.0370 N   0  0  0  0  0  0  0  0  0  0  0  0
    0.4887   -0.3839   -1.3447 C   0  0  2  0  0  0  0  0  0  0  0  0
   -0.8482   -1.1463   -1.3059 C   0  0  0  0  0  0  0  0  0  0  0  0
   -0.9506   -2.1515   -0.6097 O   0  0  0  0  0  0  0  0  0  0  0  0
    1.4576   -1.2603   -2.1718 C   0  0  0  0  0  0  0  0  0  0  0  0
    1.5936   -2.5780   -1.6173 O   0  0  0  0  0  0  0  0  0  0  0  0
    0.1127    0.0743    0.6809 H   0  0  0  0  0  0  0  0  0  0  0  0
    0.3503    0.5495   -1.8961 H   0  0  0  0  0  0  0  0  0  0  0  0
    2.4371   -0.7818   -2.2630 H   0  0  0  0  0  0  0  0  0  0  0  0
    1.0590   -1.3549   -3.1873 H   0  0  0  0  0  0  0  0  0  0  0  0
    0.7514   -2.8605   -1.1996 H   0  0  0  0  0  0  0  0  0  0  0  0
   -1.9577   -0.6445   -1.9668 N   0  0  0  0  0  0  0  0  0  0  0  0
   -3.3388   -1.0445   -1.6404 C   0  0  2  0  0  0  0  0  0  0  0  0
   -3.6616   -0.8069   -0.1434 C   0  0  0  0  0  0  0  0  0  0  0  0
   -3.4139    0.2920    0.3412 O   0  0  0  0  0  0  0  0  0  0  0  0
   -3.6265   -2.4767   -2.1240 C   0  0  0  0  0  0  0  0  0  0  0  0
   -1.8405    0.2824   -2.3668 H   0  0  0  0  0  0  0  0  0  0  0  0
   -4.0139   -0.3867   -2.1965 H   0  0  0  0  0  0  0  0  0  0  0  0
   -3.0535   -3.2159   -1.5568 H   0  0  0  0  0  0  0  0  0  0  0  0
   -4.6906   -2.7068   -2.0129 H   0  0  0  0  0  0  0  0  0  0  0  0
   -3.3636   -2.5762   -3.1816 H   0  0  0  0  0  0  0  0  0  0  0  0
   -4.1897   -1.7997    0.6621 N   0  0  0  0  0  0  0  0  0  0  0  0
   -4.3424   -1.6459    2.1040 C   0  0  0  0  0  0  0  0  0  0  0  0
   -4.1820   -2.7403    0.2778 H   0  0  0  0  0  0  0  0  0  0  0  0
   -4.8454   -2.5214    2.5259 H   0  0  0  0  0  0  0  0  0  0  0  0
   -3.3633   -1.5423    2.5834 H   0  0  0  0  0  0  0  0  0  0  0  0
   -4.9437   -0.7602    2.3354 H   0  0  0  0  0  0  0  0  0  0  0  0
  1  2  2  0  0  0  0
  1  3  1  0  0  0  0
  1  7  1  0  0  0  0
  3  4  1  0  0  0  0
  3  5  1  0  0  0  0
  3  6  1  0  0  0  0
  7  8  1  0  0  0  0
  7 12  1  0  0  0  0
  8  9  1  0  0  0  0
  8 11  1  0  0  0  0
  8 13  1  0  0  0  0
  9 10  2  0  0  0  0
  9 17  1  0  0  0  0
 11 14  1  0  0  0  0
 11 15  1  0  0  0  0
 11 16  1  0  0  0  0
 17 18  1  0  0  0  0
 17 23  1  0  0  0  0
 18 19  1  0  0  0  0
 18 21  1  0  0  0  0
 18 24  1  0  0  0  0
 19 20  2  0  0  0  0
 19 28  1  0  0  0  0
 21 22  1  0  0  0  0
 21 25  1  0  0  0  0
 21 26  1  0  0  0  0
 22 27  1  0  0  0  0
 28 29  1  0  0  0  0
 28 33  1  0  0  0  0
 29 30  1  0  0  0  0
 29 32  1  0  0  0  0
 29 34  1  0  0  0  0
 30 31  2  0  0  0  0
 30 38  1  0  0  0  0
 32 35  1  0  0  0  0
 32 36  1  0  0  0  0
 32 37  1  0  0  0  0
 38 39  1  0  0  0  0
 38 40  1  0  0  0  0
 39 41  1  0  0  0  0
 39 42  1  0  0  0  0
 39 43  1  0  0  0  0
M  END
$$$$

  -OEChem-05262217303D

 43 42  0     1  0  0  0  0  0999 V2000
    3.4253   -2.1842    3.7325 C   0  0  0  0  0  0  0  0  0  0  0  0
    2.4722   -2.3610    4.4752 O   0  0  0  0  0  0  0  0  0  0  0  0
    4.7136   -2.9565    3.9460 C   0  0  0  0  0  0  0  0  0  0  0  0
    5.5435   -2.2636    4.1045 H   0  0  0  0  0  0  0  0  0  0  0  0
    4.6236   -3.6050    4.8219 H   0  0  0  0  0  0  0  0  0  0  0  0
    4.9265   -3.5746    3.0703 H   0  0  0  0  0  0  0  0  0  0  0  0
    3.3288   -1.2903    2.6881 N   0  0  0  0  0  0  0  0  0  0  0  0
    2.0820   -0.6381    2.2699 C   0  0  2  0  0  0  0  0  0  0  0  0
    2.0643   -0.3895    0.7468 C   0  0  0  0  0  0  0  0  0  0  0  0
    3.1133   -0.4435    0.1168 O   0  0  0  0  0  0  0  0  0  0  0  0
    1.9412    0.6779    3.0413 C   0  0  0  0  0  0  0  0  0  0  0  0
    4.0966   -1.2724    2.0167 H   0  0  0  0  0  0  0  0  0  0  0  0
    1.2312   -1.2880    2.5025 H   0  0  0  0  0  0  0  0  0  0  0  0
    2.7808    1.3434    2.8162 H   0  0  0  0  0  0  0  0  0  0  0  0
    1.0105    1.1866    2.7732 H   0  0  0  0  0  0  0  0  0  0  0  0
    1.9287    0.4849    4.1189 H   0  0  0  0  0  0  0  0  0  0  0  0
    0.8921    0.0165    0.1285 N   0  0  0  0  0  0  0  0  0  0  0  0
    0.4239   -0.4027   -1.2174 C   0  0  2  0  0  0  0  0  0  0  0  0
   -0.9418   -1.1067   -1.1234 C   0  0  0  0  0  0  0  0  0  0  0  0
   -1.1349   -1.9209   -0.2269 O   0  0  0  0  0  0  0  0  0  0  0  0
    1.3289   -1.3832   -1.9980 C   0  0  0  0  0  0  0  0  0  0  0  0
    1.4049   -2.6655   -1.3530 O   0  0  0  0  0  0  0  0  0  0  0  0
    0.1358    0.1091    0.8027 H   0  0  0  0  0  0  0  0  0  0  0  0
    0.3181    0.5018   -1.8223 H   0  0  0  0  0  0  0  0  0  0  0  0
    2.3298   -0.9671   -2.1427 H   0  0  0  0  0  0  0  0  0  0  0  0
    0.9058   -1.5274   -2.9975 H   0  0  0  0  0  0  0  0  0  0  0  0
    0.5602   -2.8932   -0.9135 H   0  0  0  0  0  0  0  0  0  0  0  0
   -1.9544   -0.7925   -2.0154 N   0  0  0  0  0  0  0  0  0  0  0  0
   -3.3158   -1.3666   -2.0518 C   0  0  2  0  0  0  0  0  0  0  0  0
   -4.2005   -0.9960   -0.8390 C   0  0  0  0  0  0  0  0  0  0  0  0
   -5.2353   -0.3701   -1.0218 O   0  0  0  0  0  0  0  0  0  0  0  0
   -3.2737   -2.8866   -2.2653 C   0  0  0  0  0  0  0  0  0  0  0  0
   -1.7407   -0.0767   -2.7053 H   0  0  0  0  0  0  0  0  0  0  0  0
   -3.8153   -0.9409   -2.9287 H   0  0  0  0  0  0  0  0  0  0  0  0
   -2.8807   -3.4047   -1.3858 H   0  0  0  0  0  0  0  0  0  0  0  0
   -4.2829   -3.2642   -2.4582 H   0  0  0  0  0  0  0  0  0  0  0  0
   -2.6427   -3.1322   -3.1247 H   0  0  0  0  0  0  0  0  0  0  0  0
   -3.8289   -1.3273    0.4489 N   0  0  0  0  0  0  0  0  0  0  0  0
   -4.5941   -0.9679    1.6350 C   0  0  0  0  0  0  0  0  0  0  0  0
   -2.9226   -1.7894    0.5551 H   0  0  0  0  0  0  0  0  0  0  0  0
   -4.0984   -1.3483    2.5334 H   0  0  0  0  0  0  0  0  0  0  0  0
   -4.6806    0.1204    1.7201 H   0  0  0  0  0  0  0  0  0  0  0  0
   -5.5996   -1.3986    1.5870 H   0  0  0  0  0  0  0  0  0  0  0  0
  1  2  2  0  0  0  0
  1  3  1  0  0  0  0
  1  7  1  0  0  0  0
  3  4  1  0  0  0  0
  3  5  1  0  0  0  0
  3  6  1  0  0  0  0
  7  8  1  0  0  0  0
  7 12  1  0  0  0  0
  8  9  1  0  0  0  0
  8 11  1  0  0  0  0
  8 13  1  0  0  0  0
  9 10  2  0  0  0  0
  9 17  1  0  0  0  0
 11 14  1  0  0  0  0
 11 15  1  0  0  0  0
 11 16  1  0  0  0  0
 17 18  1  0  0  0  0
 17 23  1  0  0  0  0
 18 19  1  0  0  0  0
 18 21  1  0  0  0  0
 18 24  1  0  0  0  0
 19 20  2  0  0  0  0
 19 28  1  0  0  0  0
 21 22  1  0  0  0  0
 21 25  1  0  0  0  0
 21 26  1  0  0  0  0
 22 27  1  0  0  0  0
 28 29  1  0  0  0  0
 28 33  1  0  0  0  0
 29 30  1  0  0  0  0
 29 32  1  0  0  0  0
 29 34  1  0  0  0  0
 30 31  2  0  0  0  0
 30 38  1  0  0  0  0
 32 35  1  0  0  0  0
 32 36  1  0  0  0  0
 32 37  1  0  0  0  0
 38 39  1  0  0  0  0
 38 40  1  0  0  0  0
 39 41  1  0  0  0  0
 39 42  1  0  0  0  0
 39 43  1  0  0  0  0
M  END
$$$$

  -OEChem-05262217303D

 43 42  0     1  0  0  0  0  0999 V2000
    3.5440   -1.9895    4.0218 C   0  0  0  0  0  0  0  0  0  0  0  0
    2.6788   -1.8343    4.8688 O   0  0  0  0  0  0  0  0  0  0  0  0
    4.7774   -2.8159    4.3345 C   0  0  0  0  0  0  0  0  0  0  0  0
    5.6721   -2.1931    4.2592 H   0  0  0  0  0  0  0  0  0  0  0  0
    4.7134   -3.2186    5.3493 H   0  0  0  0  0  0  0  0  0  0  0  0
    4.8593   -3.6475    3.6305 H   0  0  0  0  0  0  0  0  0  0  0  0
    3.4014   -1.4087    2.7791 N   0  0  0  0  0  0  0  0  0  0  0  0
    2.1962   -0.6968    2.3316 C   0  0  2  0  0  0  0  0  0  0  0  0
    1.9994   -0.7906    0.8022 C   0  0  0  0  0  0  0  0  0  0  0  0
    2.8991   -1.2583    0.1114 O   0  0  0  0  0  0  0  0  0  0  0  0
    2.3079    0.7670    2.7721 C   0  0  0  0  0  0  0  0  0  0  0  0
    4.0873   -1.6519    2.0654 H   0  0  0  0  0  0  0  0  0  0  0  0
    1.3134   -1.1478    2.7985 H   0  0  0  0  0  0  0  0  0  0  0  0
    3.1756    1.2423    2.3039 H   0  0  0  0  0  0  0  0  0  0  0  0
    1.4097    1.3243    2.4907 H   0  0  0  0  0  0  0  0  0  0  0  0
    2.4222    0.8291    3.8590 H   0  0  0  0  0  0  0  0  0  0  0  0
    0.7925   -0.3822    0.2534 N   0  0  0  0  0  0  0  0  0  0  0  0
    0.2835   -0.5344   -1.1367 C   0  0  2  0  0  0  0  0  0  0  0  0
   -1.0251   -1.3523   -1.1707 C   0  0  0  0  0  0  0  0  0  0  0  0
   -1.3690   -1.9837   -0.1767 O   0  0  0  0  0  0  0  0  0  0  0  0
    1.2424   -1.0478   -2.2250 C   0  0  0  0  0  0  0  0  0  0  0  0
    1.6310   -2.3961   -1.9797 O   0  0  0  0  0  0  0  0  0  0  0  0
    0.0712   -0.2146    0.9522 H   0  0  0  0  0  0  0  0  0  0  0  0
    0.0129    0.4767   -1.4529 H   0  0  0  0  0  0  0  0  0  0  0  0
    2.1304   -0.4083   -2.2710 H   0  0  0  0  0  0  0  0  0  0  0  0
    0.7501   -0.9932   -3.2012 H   0  0  0  0  0  0  0  0  0  0  0  0
    2.2193   -2.3940   -1.1899 H   0  0  0  0  0  0  0  0  0  0  0  0
   -1.9579   -1.1051   -2.1676 N   0  0  0  0  0  0  0  0  0  0  0  0
   -3.3066   -1.6970   -2.2942 C   0  0  2  0  0  0  0  0  0  0  0  0
   -4.3310   -1.1948   -1.2511 C   0  0  0  0  0  0  0  0  0  0  0  0
   -5.3514   -0.6371   -1.6324 O   0  0  0  0  0  0  0  0  0  0  0  0
   -3.2444   -3.2314   -2.3159 C   0  0  0  0  0  0  0  0  0  0  0  0
   -1.6369   -0.5325   -2.9427 H   0  0  0  0  0  0  0  0  0  0  0  0
   -3.6971   -1.3863   -3.2690 H   0  0  0  0  0  0  0  0  0  0  0  0
   -2.9595   -3.6343   -1.3397 H   0  0  0  0  0  0  0  0  0  0  0  0
   -4.2246   -3.6412   -2.5794 H   0  0  0  0  0  0  0  0  0  0  0  0
   -2.5160   -3.5715   -3.0582 H   0  0  0  0  0  0  0  0  0  0  0  0
   -4.1090   -1.3442    0.1028 N   0  0  0  0  0  0  0  0  0  0  0  0
   -5.0144   -0.8620    1.1361 C   0  0  0  0  0  0  0  0  0  0  0  0
   -3.2104   -1.7559    0.3683 H   0  0  0  0  0  0  0  0  0  0  0  0
   -4.6377   -1.1361    2.1262 H   0  0  0  0  0  0  0  0  0  0  0  0
   -5.1044    0.2281    1.0876 H   0  0  0  0  0  0  0  0  0  0  0  0
   -6.0084   -1.3040    1.0100 H   0  0  0  0  0  0  0  0  0  0  0  0
  1  2  2  0  0  0  0
  1  3  1  0  0  0  0
  1  7  1  0  0  0  0
  3  4  1  0  0  0  0
  3  5  1  0  0  0  0
  3  6  1  0  0  0  0
  7  8  1  0  0  0  0
  7 12  1  0  0  0  0
  8  9  1  0  0  0  0
  8 11  1  0  0  0  0
  8 13  1  0  0  0  0
  9 10  2  0  0  0  0
  9 17  1  0  0  0  0
 11 14  1  0  0  0  0
 11 15  1  0  0  0  0
 11 16  1  0  0  0  0
 17 18  1  0  0  0  0
 17 23  1  0  0  0  0
 18 19  1  0  0  0  0
 18 21  1  0  0  0  0
 18 24  1  0  0  0  0
 19 20  2  0  0  0  0
 19 28  1  0  0  0  0
 21 22  1  0  0  0  0
 21 25  1  0  0  0  0
 21 26  1  0  0  0  0
 22 27  1  0  0  0  0
 28 29  1  0  0  0  0
 28 33  1  0  0  0  0
 29 30  1  0  0  0  0
 29 32  1  0  0  0  0
 29 34  1  0  0  0  0
 30 31  2  0  0  0  0
 30 38  1  0  0  0  0
 32 35  1  0  0  0  0
 32 36  1  0  0  0  0
 32 37  1  0  0  0  0
 38 39  1  0  0  0  0
 38 40  1  0  0  0  0
 39 41  1  0  0  0  0
 39 42  1  0  0  0  0
 39 43  1  0  0  0  0
M  END
$$$$

  -OEChem-05262217303D

 43 42  0     1  0  0  0  0  0999 V2000
    3.6312   -1.9461    4.0211 C   0  0  0  0  0  0  0  0  0  0  0  0
    2.7695   -1.8337    4.8783 O   0  0  0  0  0  0  0  0  0  0  0  0
    4.8968   -2.7310    4.3102 C   0  0  0  0  0  0  0  0  0  0  0  0
    5.7634   -2.0662    4.2773 H   0  0  0  0  0  0  0  0  0  0  0  0
    4.8393   -3.1871    5.3025 H   0  0  0  0  0  0  0  0  0  0  0  0
    5.0245   -3.5223    3.5674 H   0  0  0  0  0  0  0  0  0  0  0  0
    3.4535   -1.3619    2.7849 N   0  0  0  0  0  0  0  0  0  0  0  0
    2.2127   -0.7067    2.3490 C   0  0  2  0  0  0  0  0  0  0  0  0
    2.0122   -0.8054    0.8201 C   0  0  0  0  0  0  0  0  0  0  0  0
    2.9135   -1.2671    0.1273 O   0  0  0  0  0  0  0  0  0  0  0  0
    2.2570    0.7588    2.7969 C   0  0  0  0  0  0  0  0  0  0  0  0
    4.1387   -1.5797    2.0625 H   0  0  0  0  0  0  0  0  0  0  0  0
    1.3551   -1.2006    2.8195 H   0  0  0  0  0  0  0  0  0  0  0  0
    3.1004    1.2772    2.3298 H   0  0  0  0  0  0  0  0  0  0  0  0
    1.3328    1.2756    2.5217 H   0  0  0  0  0  0  0  0  0  0  0  0
    2.3706    0.8194    3.8841 H   0  0  0  0  0  0  0  0  0  0  0  0
    0.7995   -0.4129    0.2733 N   0  0  0  0  0  0  0  0  0  0  0  0
    0.2828   -0.5705   -1.1135 C   0  0  2  0  0  0  0  0  0  0  0  0
   -1.0175   -1.4044   -1.1271 C   0  0  0  0  0  0  0  0  0  0  0  0
   -1.4652   -1.8315   -0.0669 O   0  0  0  0  0  0  0  0  0  0  0  0
    1.2462   -1.0801   -2.2009 C   0  0  0  0  0  0  0  0  0  0  0  0
    1.6436   -2.4249   -1.9492 O   0  0  0  0  0  0  0  0  0  0  0  0
    0.0752   -0.2593    0.9733 H   0  0  0  0  0  0  0  0  0  0  0  0
   -0.0045    0.4341   -1.4354 H   0  0  0  0  0  0  0  0  0  0  0  0
    2.1291   -0.4341   -2.2473 H   0  0  0  0  0  0  0  0  0  0  0  0
    0.7587   -1.0307   -3.1795 H   0  0  0  0  0  0  0  0  0  0  0  0
    2.2434   -2.4138   -1.1678 H   0  0  0  0  0  0  0  0  0  0  0  0
   -1.8248   -1.4128   -2.2556 N   0  0  0  0  0  0  0  0  0  0  0  0
   -3.1260   -2.0968   -2.4192 C   0  0  2  0  0  0  0  0  0  0  0  0
   -4.3022   -1.4620   -1.6420 C   0  0  0  0  0  0  0  0  0  0  0  0
   -5.3395   -1.1950   -2.2339 O   0  0  0  0  0  0  0  0  0  0  0  0
   -3.0095   -3.5956   -2.1063 C   0  0  0  0  0  0  0  0  0  0  0  0
   -1.4056   -1.0277   -3.0969 H   0  0  0  0  0  0  0  0  0  0  0  0
   -3.3923   -2.0165   -3.4784 H   0  0  0  0  0  0  0  0  0  0  0  0
   -2.8457   -3.7687   -1.0388 H   0  0  0  0  0  0  0  0  0  0  0  0
   -3.9311   -4.1106   -2.3947 H   0  0  0  0  0  0  0  0  0  0  0  0
   -2.1772   -4.0376   -2.6624 H   0  0  0  0  0  0  0  0  0  0  0  0
   -4.2085   -1.1941   -0.2914 N   0  0  0  0  0  0  0  0  0  0  0  0
   -5.2977   -0.6608    0.5147 C   0  0  0  0  0  0  0  0  0  0  0  0
   -3.3330   -1.4696    0.1607 H   0  0  0  0  0  0  0  0  0  0  0  0
   -4.9624   -0.5031    1.5444 H   0  0  0  0  0  0  0  0  0  0  0  0
   -5.6387    0.2986    0.1119 H   0  0  0  0  0  0  0  0  0  0  0  0
   -6.1410   -1.3593    0.5274 H   0  0  0  0  0  0  0  0  0  0  0  0
  1  2  2  0  0  0  0
  1  3  1  0  0  0  0
  1  7  1  0  0  0  0
  3  4  1  0  0  0  0
  3  5  1  0  0  0  0
  3  6  1  0  0  0  0
  7  8  1  0  0  0  0
  7 12  1  0  0  0  0
  8  9  1  0  0  0  0
  8 11  1  0  0  0  0
  8 13  1  0  0  0  0
  9 10  2  0  0  0  0
  9 17  1  0  0  0  0
 11 14  1  0  0  0  0
 11 15  1  0  0  0  0
 11 16  1  0  0  0  0
 17 18  1  0  0  0  0
 17 23  1  0  0  0  0
 18 19  1  0  0  0  0
 18 21  1  0  0  0  0
 18 24  1  0  0  0  0
 19 20  2  0  0  0  0
 19 28  1  0  0  0  0
 21 22  1  0  0  0  0
 21 25  1  0  0  0  0
 21 26  1  0  0  0  0
 22 27  1  0  0  0  0
 28 29  1  0  0  0  0
 28 33  1  0  0  0  0
 29 30  1  0  0  0  0
 29 32  1  0  0  0  0
 29 34  1  0  0  0  0
 30 31  2  0  0  0  0
 30 38  1  0  0  0  0
 32 35  1  0  0  0  0
 32 36  1  0  0  0  0
 32 37  1  0  0  0  0
 38 39  1  0  0  0  0
 38 40  1  0  0  0  0
 39 41  1  0  0  0  0
 39 42  1  0  0  0  0
 39 43  1  0  0  0  0
M  END
$$$$

  -OEChem-05262217303D

 43 42  0     1  0  0  0  0  0999 V2000
    3.6343   -1.7926    4.1119 C   0  0  0  0  0  0  0  0  0  0  0  0
    2.7971   -1.5911    4.9769 O   0  0  0  0  0  0  0  0  0  0  0  0
    4.8974   -2.5679    4.4379 C   0  0  0  0  0  0  0  0  0  0  0  0
    5.7750   -1.9384    4.2710 H   0  0  0  0  0  0  0  0  0  0  0  0
    4.8857   -2.8854    5.4847 H   0  0  0  0  0  0  0  0  0  0  0  0
    4.9667   -3.4539    3.8017 H   0  0  0  0  0  0  0  0  0  0  0  0
    3.4316   -1.3174    2.8333 N   0  0  0  0  0  0  0  0  0  0  0  0
    2.2008   -0.6571    2.3765 C   0  0  2  0  0  0  0  0  0  0  0  0
    1.9601   -0.8621    0.8641 C   0  0  0  0  0  0  0  0  0  0  0  0
    2.8269   -1.4050    0.1876 O   0  0  0  0  0  0  0  0  0  0  0  0
    2.3044    0.8365    2.7051 C   0  0  0  0  0  0  0  0  0  0  0  0
    4.0971   -1.6022    2.1159 H   0  0  0  0  0  0  0  0  0  0  0  0
    1.3402   -1.0833    2.9041 H   0  0  0  0  0  0  0  0  0  0  0  0
    3.1582    1.2841    2.1862 H   0  0  0  0  0  0  0  0  0  0  0  0
    1.3949    1.3630    2.4009 H   0  0  0  0  0  0  0  0  0  0  0  0
    2.4375    0.9800    3.7822 H   0  0  0  0  0  0  0  0  0  0  0  0
    0.7462   -0.4826    0.3130 N   0  0  0  0  0  0  0  0  0  0  0  0
    0.2483   -0.5875   -1.0838 C   0  0  2  0  0  0  0  0  0  0  0  0
   -1.2003   -1.1250   -1.1053 C   0  0  0  0  0  0  0  0  0  0  0  0
   -1.8277   -1.1728   -0.0508 O   0  0  0  0  0  0  0  0  0  0  0  0
    1.1258   -1.3384   -2.1018 C   0  0  0  0  0  0  0  0  0  0  0  0
    1.2177   -2.7205   -1.7666 O   0  0  0  0  0  0  0  0  0  0  0  0
    0.0275   -0.2511    0.9990 H   0  0  0  0  0  0  0  0  0  0  0  0
    0.1869    0.4380   -1.4577 H   0  0  0  0  0  0  0  0  0  0  0  0
    2.1230   -0.8899   -2.1525 H   0  0  0  0  0  0  0  0  0  0  0  0
    0.6916   -1.2445   -3.1014 H   0  0  0  0  0  0  0  0  0  0  0  0
    1.8189   -2.8036   -0.9960 H   0  0  0  0  0  0  0  0  0  0  0  0
   -1.8700   -1.3074   -2.3063 N   0  0  0  0  0  0  0  0  0  0  0  0
   -3.2623   -1.7665   -2.4940 C   0  0  2  0  0  0  0  0  0  0  0  0
   -4.3461   -0.7474   -2.0751 C   0  0  0  0  0  0  0  0  0  0  0  0
   -5.1849   -0.3923   -2.8926 O   0  0  0  0  0  0  0  0  0  0  0  0
   -3.4971   -3.1256   -1.8203 C   0  0  0  0  0  0  0  0  0  0  0  0
   -1.2848   -1.2843   -3.1365 H   0  0  0  0  0  0  0  0  0  0  0  0
   -3.3998   -1.9213   -3.5693 H   0  0  0  0  0  0  0  0  0  0  0  0
   -3.4671   -3.0408   -0.7302 H   0  0  0  0  0  0  0  0  0  0  0  0
   -4.4786   -3.5184   -2.1038 H   0  0  0  0  0  0  0  0  0  0  0  0
   -2.7338   -3.8434   -2.1352 H   0  0  0  0  0  0  0  0  0  0  0  0
   -4.3869   -0.2264   -0.7977 N   0  0  0  0  0  0  0  0  0  0  0  0
   -5.3654    0.7528   -0.3472 C   0  0  0  0  0  0  0  0  0  0  0  0
   -3.6324   -0.5144   -0.1694 H   0  0  0  0  0  0  0  0  0  0  0  0
   -5.2374    0.9505    0.7212 H   0  0  0  0  0  0  0  0  0  0  0  0
   -5.2430    1.6938   -0.8930 H   0  0  0  0  0  0  0  0  0  0  0  0
   -6.3823    0.3805   -0.5092 H   0  0  0  0  0  0  0  0  0  0  0  0
  1  2  2  0  0  0  0
  1  3  1  0  0  0  0
  1  7  1  0  0  0  0
  3  4  1  0  0  0  0
  3  5  1  0  0  0  0
  3  6  1  0  0  0  0
  7  8  1  0  0  0  0
  7 12  1  0  0  0  0
  8  9  1  0  0  0  0
  8 11  1  0  0  0  0
  8 13  1  0  0  0  0
  9 10  2  0  0  0  0
  9 17  1  0  0  0  0
 11 14  1  0  0  0  0
 11 15  1  0  0  0  0
 11 16  1  0  0  0  0
 17 18  1  0  0  0  0
 17 23  1  0  0  0  0
 18 19  1  0  0  0  0
 18 21  1  0  0  0  0
 18 24  1  0  0  0  0
 19 20  2  0  0  0  0
 19 28  1  0  0  0  0
 21 22  1  0  0  0  0
 21 25  1  0  0  0  0
 21 26  1  0  0  0  0
 22 27  1  0  0  0  0
 28 29  1  0  0  0  0
 28 33  1  0  0  0  0
 29 30  1  0  0  0  0
 29 32  1  0  0  0  0
 29 34  1  0  0  0  0
 30 31  2  0  0  0  0
 30 38  1  0  0  0  0
 32 35  1  0  0  0  0
 32 36  1  0  0  0  0
 32 37  1  0  0  0  0
 38 39  1  0  0  0  0
 38 40  1  0  0  0  0
 39 41  1  0  0  0  0
 39 42  1  0  0  0  0
 39 43  1  0  0  0  0
M  END
$$$$

  -OEChem-05262217303D

 43 42  0     1  0  0  0  0  0999 V2000
    3.7033   -1.7428    4.1228 C   0  0  0  0  0  0  0  0  0  0  0  0
    2.8836   -1.5212    4.9995 O   0  0  0  0  0  0  0  0  0  0  0  0
    4.9827   -2.4914    4.4464 C   0  0  0  0  0  0  0  0  0  0  0  0
    5.8477   -1.8560    4.2416 H   0  0  0  0  0  0  0  0  0  0  0  0
    4.9959   -2.7746    5.5026 H   0  0  0  0  0  0  0  0  0  0  0  0
    5.0519   -3.3968    3.8387 H   0  0  0  0  0  0  0  0  0  0  0  0
    3.4674   -1.3088    2.8353 N   0  0  0  0  0  0  0  0  0  0  0  0
    2.2224   -0.6680    2.3890 C   0  0  2  0  0  0  0  0  0  0  0  0
    1.9547   -0.9070    0.8859 C   0  0  0  0  0  0  0  0  0  0  0  0
    2.8059   -1.4709    0.2061 O   0  0  0  0  0  0  0  0  0  0  0  0
    2.3184    0.8333    2.6857 C   0  0  0  0  0  0  0  0  0  0  0  0
    4.1184   -1.6097    2.1112 H   0  0  0  0  0  0  0  0  0  0  0  0
    1.3762   -1.0908    2.9422 H   0  0  0  0  0  0  0  0  0  0  0  0
    3.1532    1.2794    2.1358 H   0  0  0  0  0  0  0  0  0  0  0  0
    1.3955    1.3443    2.3954 H   0  0  0  0  0  0  0  0  0  0  0  0
    2.4785    1.0007    3.7558 H   0  0  0  0  0  0  0  0  0  0  0  0
    0.7333   -0.5353    0.3462 N   0  0  0  0  0  0  0  0  0  0  0  0
    0.2272   -0.6259   -1.0482 C   0  0  2  0  0  0  0  0  0  0  0  0
   -1.2148   -1.1823   -1.0525 C   0  0  0  0  0  0  0  0  0  0  0  0
   -1.8997   -1.0261   -0.0456 O   0  0  0  0  0  0  0  0  0  0  0  0
    1.1124   -1.3378   -2.0884 C   0  0  0  0  0  0  0  0  0  0  0  0
    1.2363   -2.7236   -1.7794 O   0  0  0  0  0  0  0  0  0  0  0  0
    0.0317   -0.2572    1.0326 H   0  0  0  0  0  0  0  0  0  0  0  0
    0.1430    0.4036   -1.4069 H   0  0  0  0  0  0  0  0  0  0  0  0
    2.1010   -0.8694   -2.1322 H   0  0  0  0  0  0  0  0  0  0  0  0
    0.6721   -1.2294   -3.0847 H   0  0  0  0  0  0  0  0  0  0  0  0
    1.8479   -2.8045   -1.0152 H   0  0  0  0  0  0  0  0  0  0  0  0
   -1.8033   -1.6534   -2.2166 N   0  0  0  0  0  0  0  0  0  0  0  0
   -3.1709   -2.1935   -2.3743 C   0  0  2  0  0  0  0  0  0  0  0  0
   -4.3089   -1.1542   -2.2479 C   0  0  0  0  0  0  0  0  0  0  0  0
   -5.1501   -1.0721   -3.1333 O   0  0  0  0  0  0  0  0  0  0  0  0
   -3.4100   -3.3811   -1.4317 C   0  0  0  0  0  0  0  0  0  0  0  0
   -1.1491   -1.8531   -2.9695 H   0  0  0  0  0  0  0  0  0  0  0  0
   -3.2375   -2.5829   -3.3957 H   0  0  0  0  0  0  0  0  0  0  0  0
   -3.4664   -3.0565   -0.3887 H   0  0  0  0  0  0  0  0  0  0  0  0
   -4.3532   -3.8753   -1.6856 H   0  0  0  0  0  0  0  0  0  0  0  0
   -2.6004   -4.1109   -1.5269 H   0  0  0  0  0  0  0  0  0  0  0  0
   -4.4053   -0.3247   -1.1489 N   0  0  0  0  0  0  0  0  0  0  0  0
   -5.4649    0.6545   -0.9531 C   0  0  0  0  0  0  0  0  0  0  0  0
   -3.6751   -0.4298   -0.4401 H   0  0  0  0  0  0  0  0  0  0  0  0
   -5.3431    1.1548    0.0124 H   0  0  0  0  0  0  0  0  0  0  0  0
   -5.4359    1.4123   -1.7429 H   0  0  0  0  0  0  0  0  0  0  0  0
   -6.4445    0.1653   -0.9677 H   0  0  0  0  0  0  0  0  0  0  0  0
  1  2  2  0  0  0  0
  1  3  1  0  0  0  0
  1  7  1  0  0  0  0
  3  4  1  0  0  0  0
  3  5  1  0  0  0  0
  3  6  1  0  0  0  0
  7  8  1  0  0  0  0
  7 12  1  0  0  0  0
  8  9  1  0  0  0  0
  8 11  1  0  0  0  0
  8 13  1  0  0  0  0
  9 10  2  0  0  0  0
  9 17  1  0  0  0  0
 11 14  1  0  0  0  0
 11 15  1  0  0  0  0
 11 16  1  0  0  0  0
 17 18  1  0  0  0  0
 17 23  1  0  0  0  0
 18 19  1  0  0  0  0
 18 21  1  0  0  0  0
 18 24  1  0  0  0  0
 19 20  2  0  0  0  0
 19 28  1  0  0  0  0
 21 22  1  0  0  0  0
 21 25  1  0  0  0  0
 21 26  1  0  0  0  0
 22 27  1  0  0  0  0
 28 29  1  0  0  0  0
 28 33  1  0  0  0  0
 29 30  1  0  0  0  0
 29 32  1  0  0  0  0
 29 34  1  0  0  0  0
 30 31  2  0  0  0  0
 30 38  1  0  0  0  0
 32 35  1  0  0  0  0
 32 36  1  0  0  0  0
 32 37  1  0  0  0  0
 38 39  1  0  0  0  0
 38 40  1  0  0  0  0
 39 41  1  0  0  0  0
 39 42  1  0  0  0  0
 39 43  1  0  0  0  0
M  END
$$$$

  -OEChem-05262217303D

 43 42  0     1  0  0  0  0  0999 V2000
    3.7458   -1.6979    4.1251 C   0  0  0  0  0  0  0  0  0  0  0  0
    2.9447   -1.4399    5.0090 O   0  0  0  0  0  0  0  0  0  0  0  0
    5.0044   -2.4827    4.4432 C   0  0  0  0  0  0  0  0  0  0  0  0
    5.8873   -1.8836    4.2068 H   0  0  0  0  0  0  0  0  0  0  0  0
    5.0288   -2.7415    5.5057 H   0  0  0  0  0  0  0  0  0  0  0  0
    5.0288   -3.4041    3.8562 H   0  0  0  0  0  0  0  0  0  0  0  0
    3.5037   -1.2803    2.8334 N   0  0  0  0  0  0  0  0  0  0  0  0
    2.2654   -0.6227    2.3925 C   0  0  2  0  0  0  0  0  0  0  0  0
    1.9525   -0.9080    0.9067 C   0  0  0  0  0  0  0  0  0  0  0  0
    2.7820   -1.4960    0.2204 O   0  0  0  0  0  0  0  0  0  0  0  0
    2.4106    0.8846    2.6302 C   0  0  0  0  0  0  0  0  0  0  0  0
    4.1396   -1.6075    2.1072 H   0  0  0  0  0  0  0  0  0  0  0  0
    1.4215   -1.0008    2.9804 H   0  0  0  0  0  0  0  0  0  0  0  0
    3.2466    1.2850    2.0477 H   0  0  0  0  0  0  0  0  0  0  0  0
    1.4973    1.4119    2.3386 H   0  0  0  0  0  0  0  0  0  0  0  0
    2.5975    1.0853    3.6902 H   0  0  0  0  0  0  0  0  0  0  0  0
    0.7146   -0.5557    0.3908 N   0  0  0  0  0  0  0  0  0  0  0  0
    0.1908   -0.6454   -0.9970 C   0  0  2  0  0  0  0  0  0  0  0  0
   -1.2378   -1.2319   -0.9767 C   0  0  0  0  0  0  0  0  0  0  0  0
   -1.9794   -0.9011   -0.0568 O   0  0  0  0  0  0  0  0  0  0  0  0
    1.0741   -1.3205   -2.0626 C   0  0  0  0  0  0  0  0  0  0  0  0
    1.2389   -2.7068   -1.7738 O   0  0  0  0  0  0  0  0  0  0  0  0
    0.0391   -0.2275    1.0813 H   0  0  0  0  0  0  0  0  0  0  0  0
    0.0753    0.3853   -1.3440 H   0  0  0  0  0  0  0  0  0  0  0  0
    2.0499   -0.8269   -2.1146 H   0  0  0  0  0  0  0  0  0  0  0  0
    0.6128   -1.2078   -3.0490 H   0  0  0  0  0  0  0  0  0  0  0  0
    1.8622   -2.7776   -1.0167 H   0  0  0  0  0  0  0  0  0  0  0  0
   -1.7329   -1.9810   -2.0330 N   0  0  0  0  0  0  0  0  0  0  0  0
   -3.0709   -2.5996   -2.1456 C   0  0  2  0  0  0  0  0  0  0  0  0
   -4.2442   -1.6055   -2.3097 C   0  0  0  0  0  0  0  0  0  0  0  0
   -5.0352   -1.7538   -3.2318 O   0  0  0  0  0  0  0  0  0  0  0  0
   -3.3337   -3.5647   -0.9814 C   0  0  0  0  0  0  0  0  0  0  0  0
   -1.0125   -2.3377   -2.6598 H   0  0  0  0  0  0  0  0  0  0  0  0
   -3.0617   -3.2012   -3.0609 H   0  0  0  0  0  0  0  0  0  0  0  0
   -3.4545   -3.0254   -0.0376 H   0  0  0  0  0  0  0  0  0  0  0  0
   -4.2500   -4.1339   -1.1676 H   0  0  0  0  0  0  0  0  0  0  0  0
   -2.5036   -4.2698   -0.8767 H   0  0  0  0  0  0  0  0  0  0  0  0
   -4.4302   -0.5611   -1.4265 N   0  0  0  0  0  0  0  0  0  0  0  0
   -5.5202    0.4002   -1.5139 C   0  0  0  0  0  0  0  0  0  0  0  0
   -3.7393   -0.4760   -0.6769 H   0  0  0  0  0  0  0  0  0  0  0  0
   -5.4852    1.0859   -0.6619 H   0  0  0  0  0  0  0  0  0  0  0  0
   -5.4408    0.9855   -2.4358 H   0  0  0  0  0  0  0  0  0  0  0  0
   -6.4872   -0.1137   -1.5040 H   0  0  0  0  0  0  0  0  0  0  0  0
  1  2  2  0  0  0  0
  1  3  1  0  0  0  0
  1  7  1  0  0  0  0
  3  4  1  0  0  0  0
  3  5  1  0  0  0  0
  3  6  1  0  0  0  0
  7  8  1  0  0  0  0
  7 12  1  0  0  0  0
  8  9  1  0  0  0  0
  8 11  1  0  0  0  0
  8 13  1  0  0  0  0
  9 10  2  0  0  0  0
  9 17  1  0  0  0  0
 11 14  1  0  0  0  0
 11 15  1  0  0  0  0
 11 16  1  0  0  0  0
 17 18  1  0  0  0  0
 17 23  1  0  0  0  0
 18 19  1  0  0  0  0
 18 21  1  0  0  0  0
 18 24  1  0  0  0  0
 19 20  2  0  0  0  0
 19 28  1  0  0  0  0
 21 22  1  0  0  0  0
 21 25  1  0  0  0  0
 21 26  1  0  0  0  0
 22 27  1  0  0  0  0
 28 29  1  0  0  0  0
 28 33  1  0  0  0  0
 29 30  1  0  0  0  0
 29 32  1  0  0  0  0
 29 34  1  0  0  0  0
 30 31  2  0  0  0  0
 30 38  1  0  0  0  0
 32 35  1  0  0  0  0
 32 36  1  0  0  0  0
 32 37  1  0  0  0  0
 38 39  1  0  0  0  0
 38 40  1  0  0  0  0
 39 41  1  0  0  0  0
 39 42  1  0  0  0  0
 39 43  1  0  0  0  0
M  END
$$$$

  -OEChem-05262217303D

 43 42  0     1  0  0  0  0  0999 V2000
    3.7498   -1.6725    4.1243 C   0  0  0  0  0  0  0  0  0  0  0  0
    2.9641   -1.3660    5.0065 O   0  0  0  0  0  0  0  0  0  0  0  0
    4.9683   -2.5170    4.4472 C   0  0  0  0  0  0  0  0  0  0  0  0
    5.8803   -1.9668    4.2027 H   0  0  0  0  0  0  0  0  0  0  0  0
    4.9823   -2.7657    5.5122 H   0  0  0  0  0  0  0  0  0  0  0  0
    4.9446   -3.4445    3.8696 H   0  0  0  0  0  0  0  0  0  0  0  0
    3.5236   -1.2595    2.8284 N   0  0  0  0  0  0  0  0  0  0  0  0
    2.3124   -0.5577    2.3816 C   0  0  2  0  0  0  0  0  0  0  0  0
    1.9631   -0.8825    0.9126 C   0  0  0  0  0  0  0  0  0  0  0  0
    2.7699   -1.5004    0.2251 O   0  0  0  0  0  0  0  0  0  0  0  0
    2.5348    0.9477    2.5618 C   0  0  0  0  0  0  0  0  0  0  0  0
    4.1367   -1.6315    2.1043 H   0  0  0  0  0  0  0  0  0  0  0  0
    1.4599   -0.8707    2.9945 H   0  0  0  0  0  0  0  0  0  0  0  0
    3.3826    1.2851    1.9567 H   0  0  0  0  0  0  0  0  0  0  0  0
    1.6449    1.5086    2.2603 H   0  0  0  0  0  0  0  0  0  0  0  0
    2.7440    1.1764    3.6119 H   0  0  0  0  0  0  0  0  0  0  0  0
    0.7139   -0.5396    0.4183 N   0  0  0  0  0  0  0  0  0  0  0  0
    0.1686   -0.6387   -0.9594 C   0  0  2  0  0  0  0  0  0  0  0  0
   -1.2536   -1.2338   -0.9137 C   0  0  0  0  0  0  0  0  0  0  0  0
   -2.0480   -0.7576   -0.1097 O   0  0  0  0  0  0  0  0  0  0  0  0
    1.0423   -1.3046   -2.0399 C   0  0  0  0  0  0  0  0  0  0  0  0
    1.2335   -2.6903   -1.7554 O   0  0  0  0  0  0  0  0  0  0  0  0
    0.0674   -0.1583    1.1087 H   0  0  0  0  0  0  0  0  0  0  0  0
    0.0379    0.3902   -1.3070 H   0  0  0  0  0  0  0  0  0  0  0  0
    2.0098   -0.7968   -2.1111 H   0  0  0  0  0  0  0  0  0  0  0  0
    0.5563   -1.2010   -3.0159 H   0  0  0  0  0  0  0  0  0  0  0  0
    1.8754   -2.7496   -1.0116 H   0  0  0  0  0  0  0  0  0  0  0  0
   -1.6544   -2.2264   -1.7930 N   0  0  0  0  0  0  0  0  0  0  0  0
   -2.9552   -2.9261   -1.8268 C   0  0  2  0  0  0  0  0  0  0  0  0
   -4.1594   -2.0557   -2.2552 C   0  0  0  0  0  0  0  0  0  0  0  0
   -4.9094   -2.4576   -3.1350 O   0  0  0  0  0  0  0  0  0  0  0  0
   -3.2388   -3.6275   -0.4919 C   0  0  0  0  0  0  0  0  0  0  0  0
   -0.8800   -2.6656   -2.2952 H   0  0  0  0  0  0  0  0  0  0  0  0
   -2.8700   -3.7106   -2.5862 H   0  0  0  0  0  0  0  0  0  0  0  0
   -3.4299   -2.9028    0.3048 H   0  0  0  0  0  0  0  0  0  0  0  0
   -4.1205   -4.2690   -0.5877 H   0  0  0  0  0  0  0  0  0  0  0  0
   -2.3876   -4.2505   -0.2015 H   0  0  0  0  0  0  0  0  0  0  0  0
   -4.4270   -0.8455   -1.6468 N   0  0  0  0  0  0  0  0  0  0  0  0
   -5.5786   -0.0116   -1.9614 C   0  0  0  0  0  0  0  0  0  0  0  0
   -3.7864   -0.5633   -0.9007 H   0  0  0  0  0  0  0  0  0  0  0  0
   -5.5673    0.8938   -1.3472 H   0  0  0  0  0  0  0  0  0  0  0  0
   -5.5606    0.2846   -3.0154 H   0  0  0  0  0  0  0  0  0  0  0  0
   -6.5088   -0.5545   -1.7628 H   0  0  0  0  0  0  0  0  0  0  0  0
  1  2  2  0  0  0  0
  1  3  1  0  0  0  0
  1  7  1  0  0  0  0
  3  4  1  0  0  0  0
  3  5  1  0  0  0  0
  3  6  1  0  0  0  0
  7  8  1  0  0  0  0
  7 12  1  0  0  0  0
  8  9  1  0  0  0  0
  8 11  1  0  0  0  0
  8 13  1  0  0  0  0
  9 10  2  0  0  0  0
  9 17  1  0  0  0  0
 11 14  1  0  0  0  0
 11 15  1  0  0  0  0
 11 16  1  0  0  0  0
 17 18  1  0  0  0  0
 17 23  1  0  0  0  0
 18 19  1  0  0  0  0
 18 21  1  0  0  0  0
 18 24  1  0  0  0  0
 19 20  2  0  0  0  0
 19 28  1  0  0  0  0
 21 22  1  0  0  0  0
 21 25  1  0  0  0  0
 21 26  1  0  0  0  0
 22 27  1  0  0  0  0
 28 29  1  0  0  0  0
 28 33  1  0  0  0  0
 29 30  1  0  0  0  0
 29 32  1  0  0  0  0
 29 34  1  0  0  0  0
 30 31  2  0  0  0  0
 30 38  1  0  0  0  0
 32 35  1  0  0  0  0
 32 36  1  0  0  0  0
 32 37  1  0  0  0  0
 38 39  1  0  0  0  0
 38 40  1  0  0  0  0
 39 41  1  0  0  0  0
 39 42  1  0  0  0  0
 39 43  1  0  0  0  0
M  END
$$$$

  -OEChem-05262217303D

 43 42  0     1  0  0  0  0  0999 V2000
    3.8019   -1.6259    4.1226 C   0  0  0  0  0  0  0  0  0  0  0  0
    3.0381   -1.2842    5.0110 O   0  0  0  0  0  0  0  0  0  0  0  0
    5.0099   -2.4855    4.4432 C   0  0  0  0  0  0  0  0  0  0  0  0
    5.9267   -1.9552    4.1743 H   0  0  0  0  0  0  0  0  0  0  0  0
    5.0363   -2.7153    5.5121 H   0  0  0  0  0  0  0  0  0  0  0  0
    4.9607   -3.4224    3.8829 H   0  0  0  0  0  0  0  0  0  0  0  0
    3.5609   -1.2385    2.8213 N   0  0  0  0  0  0  0  0  0  0  0  0
    2.3546   -0.5257    2.3794 C   0  0  2  0  0  0  0  0  0  0  0  0
    1.9652   -0.8876    0.9298 C   0  0  0  0  0  0  0  0  0  0  0  0
    2.7496   -1.5298    0.2385 O   0  0  0  0  0  0  0  0  0  0  0  0
    2.6109    0.9794    2.5070 C   0  0  0  0  0  0  0  0  0  0  0  0
    4.1554   -1.6376    2.0960 H   0  0  0  0  0  0  0  0  0  0  0  0
    1.5109   -0.8020    3.0211 H   0  0  0  0  0  0  0  0  0  0  0  0
    3.4508    1.2797    1.8723 H   0  0  0  0  0  0  0  0  0  0  0  0
    1.7262    1.5495    2.2078 H   0  0  0  0  0  0  0  0  0  0  0  0
    2.8493    1.2361    3.5443 H   0  0  0  0  0  0  0  0  0  0  0  0
    0.7037   -0.5520    0.4621 N   0  0  0  0  0  0  0  0  0  0  0  0
    0.1293   -0.6574   -0.9032 C   0  0  2  0  0  0  0  0  0  0  0  0
   -1.2881   -1.2585   -0.8360 C   0  0  0  0  0  0  0  0  0  0  0  0
   -2.1300   -0.6641   -0.1727 O   0  0  0  0  0  0  0  0  0  0  0  0
    0.9914   -1.3114   -2.0009 C   0  0  0  0  0  0  0  0  0  0  0  0
    1.2135   -2.6956   -1.7257 O   0  0  0  0  0  0  0  0  0  0  0  0
    0.0883   -0.1293    1.1562 H   0  0  0  0  0  0  0  0  0  0  0  0
   -0.0155    0.3708   -1.2483 H   0  0  0  0  0  0  0  0  0  0  0  0
    1.9478   -0.7872   -2.0949 H   0  0  0  0  0  0  0  0  0  0  0  0
    0.4778   -1.2173   -2.9637 H   0  0  0  0  0  0  0  0  0  0  0  0
    1.8750   -2.7429   -0.9973 H   0  0  0  0  0  0  0  0  0  0  0  0
   -1.6081   -2.4398   -1.4836 N   0  0  0  0  0  0  0  0  0  0  0  0
   -2.8849   -3.1815   -1.4391 C   0  0  2  0  0  0  0  0  0  0  0  0
   -4.0824   -2.4637   -2.1034 C   0  0  0  0  0  0  0  0  0  0  0  0
   -4.7576   -3.0585   -2.9331 O   0  0  0  0  0  0  0  0  0  0  0  0
   -3.2287   -3.6000   -0.0033 C   0  0  0  0  0  0  0  0  0  0  0  0
   -0.8029   -2.9132   -1.9023 H   0  0  0  0  0  0  0  0  0  0  0  0
   -2.7337   -4.1022   -2.0122 H   0  0  0  0  0  0  0  0  0  0  0  0
   -3.4773   -2.7326    0.6146 H   0  0  0  0  0  0  0  0  0  0  0  0
   -4.0915   -4.2737   -0.0063 H   0  0  0  0  0  0  0  0  0  0  0  0
   -2.3828   -4.1228    0.4529 H   0  0  0  0  0  0  0  0  0  0  0  0
   -4.4201   -1.1683   -1.7655 N   0  0  0  0  0  0  0  0  0  0  0  0
   -5.5406   -0.4379   -2.3411 C   0  0  0  0  0  0  0  0  0  0  0  0
   -3.8275   -0.7152   -1.0656 H   0  0  0  0  0  0  0  0  0  0  0  0
   -5.5946    0.5679   -1.9140 H   0  0  0  0  0  0  0  0  0  0  0  0
   -5.4221   -0.3474   -3.4258 H   0  0  0  0  0  0  0  0  0  0  0  0
   -6.4827   -0.9540   -2.1298 H   0  0  0  0  0  0  0  0  0  0  0  0
  1  2  2  0  0  0  0
  1  3  1  0  0  0  0
  1  7  1  0  0  0  0
  3  4  1  0  0  0  0
  3  5  1  0  0  0  0
  3  6  1  0  0  0  0
  7  8  1  0  0  0  0
  7 12  1  0  0  0  0
  8  9  1  0  0  0  0
  8 11  1  0  0  0  0
  8 13  1  0  0  0  0
  9 10  2  0  0  0  0
  9 17  1  0  0  0  0
 11 14  1  0  0  0  0
 11 15  1  0  0  0  0
 11 16  1  0  0  0  0
 17 18  1  0  0  0  0
 17 23  1  0  0  0  0
 18 19  1  0  0  0  0
 18 21  1  0  0  0  0
 18 24  1  0  0  0  0
 19 20  2  0  0  0  0
 19 28  1  0  0  0  0
 21 22  1  0  0  0  0
 21 25  1  0  0  0  0
 21 26  1  0  0  0  0
 22 27  1  0  0  0  0
 28 29  1  0  0  0  0
 28 33  1  0  0  0  0
 29 30  1  0  0  0  0
 29 32  1  0  0  0  0
 29 34  1  0  0  0  0
 30 31  2  0  0  0  0
 30 38  1  0  0  0  0
 32 35  1  0  0  0  0
 32 36  1  0  0  0  0
 32 37  1  0  0  0  0
 38 39  1  0  0  0  0
 38 40  1  0  0  0  0
 39 41  1  0  0  0  0
 39 42  1  0  0  0  0
 39 43  1  0  0  0  0
M  END
$$$$

  -OEChem-05262217303D

 43 42  0     1  0  0  0  0  0999 V2000
    3.8661   -1.5803    4.1098 C   0  0  0  0  0  0  0  0  0  0  0  0
    3.1221   -1.2095    5.0033 O   0  0  0  0  0  0  0  0  0  0  0  0
    5.0664   -2.4519    4.4276 C   0  0  0  0  0  0  0  0  0  0  0  0
    5.9859   -1.9445    4.1260 H   0  0  0  0  0  0  0  0  0  0  0  0
    5.1117   -2.6545    5.5014 H   0  0  0  0  0  0  0  0  0  0  0  0
    4.9904   -3.4020    3.8935 H   0  0  0  0  0  0  0  0  0  0  0  0
    3.6089   -1.2125    2.8060 N   0  0  0  0  0  0  0  0  0  0  0  0
    2.4078   -0.4853    2.3730 C   0  0  2  0  0  0  0  0  0  0  0  0
    1.9695   -0.8855    0.9479 C   0  0  0  0  0  0  0  0  0  0  0  0
    2.7280   -1.5522    0.2508 O   0  0  0  0  0  0  0  0  0  0  0  0
    2.7042    1.0161    2.4430 C   0  0  0  0  0  0  0  0  0  0  0  0
    4.1844   -1.6339    2.0779 H   0  0  0  0  0  0  0  0  0  0  0  0
    1.5746   -0.7188    3.0451 H   0  0  0  0  0  0  0  0  0  0  0  0
    3.5278    1.2762    1.7705 H   0  0  0  0  0  0  0  0  0  0  0  0
    1.8229    1.5977    2.1565 H   0  0  0  0  0  0  0  0  0  0  0  0
    2.9850    1.2988    3.4627 H   0  0  0  0  0  0  0  0  0  0  0  0
    0.6946   -0.5552    0.5129 N   0  0  0  0  0  0  0  0  0  0  0  0
    0.0834   -0.6724   -0.8355 C   0  0  2  0  0  0  0  0  0  0  0  0
   -1.3305   -1.2742   -0.7367 C   0  0  0  0  0  0  0  0  0  0  0  0
   -2.2147   -0.5843   -0.2440 O   0  0  0  0  0  0  0  0  0  0  0  0
    0.9225   -1.3339   -1.9477 C   0  0  0  0  0  0  0  0  0  0  0  0
    1.1610   -2.7163   -1.6695 O   0  0  0  0  0  0  0  0  0  0  0  0
    0.1152   -0.0883    1.2093 H   0  0  0  0  0  0  0  0  0  0  0  0
   -0.0676    0.3538   -1.1849 H   0  0  0  0  0  0  0  0  0  0  0  0
    1.8732   -0.8051   -2.0720 H   0  0  0  0  0  0  0  0  0  0  0  0
    0.3818   -1.2527   -2.8968 H   0  0  0  0  0  0  0  0  0  0  0  0
    1.8495   -2.7530   -0.9652 H   0  0  0  0  0  0  0  0  0  0  0  0
   -1.5838   -2.5843   -1.1027 N   0  0  0  0  0  0  0  0  0  0  0  0
   -2.8470   -3.3388   -0.9777 C   0  0  2  0  0  0  0  0  0  0  0  0
   -4.0055   -2.8182   -1.8593 C   0  0  0  0  0  0  0  0  0  0  0  0
   -4.6062   -3.5965   -2.5881 O   0  0  0  0  0  0  0  0  0  0  0  0
   -3.2815   -3.4453    0.4901 C   0  0  0  0  0  0  0  0  0  0  0  0
   -0.7651   -3.0825   -1.4631 H   0  0  0  0  0  0  0  0  0  0  0  0
   -2.6411   -4.3572   -1.3235 H   0  0  0  0  0  0  0  0  0  0  0  0
   -3.5916   -2.4734    0.8843 H   0  0  0  0  0  0  0  0  0  0  0  0
   -4.1265   -4.1353    0.5803 H   0  0  0  0  0  0  0  0  0  0  0  0
   -2.4588   -3.8250    1.1031 H   0  0  0  0  0  0  0  0  0  0  0  0
   -4.3857   -1.4911   -1.8334 N   0  0  0  0  0  0  0  0  0  0  0  0
   -5.4561   -0.9308   -2.6454 C   0  0  0  0  0  0  0  0  0  0  0  0
   -3.8451   -0.8786   -1.2178 H   0  0  0  0  0  0  0  0  0  0  0  0
   -5.5854    0.1314   -2.4166 H   0  0  0  0  0  0  0  0  0  0  0  0
   -5.2206   -1.0309   -3.7099 H   0  0  0  0  0  0  0  0  0  0  0  0
   -6.4008   -1.4460   -2.4426 H   0  0  0  0  0  0  0  0  0  0  0  0
  1  2  2  0  0  0  0
  1  3  1  0  0  0  0
  1  7  1  0  0  0  0
  3  4  1  0  0  0  0
  3  5  1  0  0  0  0
  3  6  1  0  0  0  0
  7  8  1  0  0  0  0
  7 12  1  0  0  0  0
  8  9  1  0  0  0  0
  8 11  1  0  0  0  0
  8 13  1  0  0  0  0
  9 10  2  0  0  0  0
  9 17  1  0  0  0  0
 11 14  1  0  0  0  0
 11 15  1  0  0  0  0
 11 16  1  0  0  0  0
 17 18  1  0  0  0  0
 17 23  1  0  0  0  0
 18 19  1  0  0  0  0
 18 21  1  0  0  0  0
 18 24  1  0  0  0  0
 19 20  2  0  0  0  0
 19 28  1  0  0  0  0
 21 22  1  0  0  0  0
 21 25  1  0  0  0  0
 21 26  1  0  0  0  0
 22 27  1  0  0  0  0
 28 29  1  0  0  0  0
 28 33  1  0  0  0  0
 29 30  1  0  0  0  0
 29 32  1  0  0  0  0
 29 34  1  0  0  0  0
 30 31  2  0  0  0  0
 30 38  1  0  0  0  0
 32 35  1  0  0  0  0
 32 36  1  0  0  0  0
 32 37  1  0  0  0  0
 38 39  1  0  0  0  0
 38 40  1  0  0  0  0
 39 41  1  0  0  0  0
 39 42  1  0  0  0  0
 39 43  1  0  0  0  0
M  END
$$$$

  -OEChem-05262217303D

 43 42  0     1  0  0  0  0  0999 V2000
    3.9624   -1.5212    4.0752 C   0  0  0  0  0  0  0  0  0  0  0  0
    3.2564   -1.1024    4.9784 O   0  0  0  0  0  0  0  0  0  0  0  0
    5.1415   -2.4241    4.3843 C   0  0  0  0  0  0  0  0  0  0  0  0
    6.0532   -2.0146    3.9427 H   0  0  0  0  0  0  0  0  0  0  0  0
    5.2805   -2.5048    5.4661 H   0  0  0  0  0  0  0  0  0  0  0  0
    4.9633   -3.4219    3.9762 H   0  0  0  0  0  0  0  0  0  0  0  0
    3.6741   -1.1895    2.7680 N   0  0  0  0  0  0  0  0  0  0  0  0
    2.4763   -0.4494    2.3489 C   0  0  2  0  0  0  0  0  0  0  0  0
    1.9823   -0.8865    0.9533 C   0  0  0  0  0  0  0  0  0  0  0  0
    2.7064   -1.5860    0.2518 O   0  0  0  0  0  0  0  0  0  0  0  0
    2.8074    1.0461    2.3578 C   0  0  0  0  0  0  0  0  0  0  0  0
    4.2136   -1.6516    2.0370 H   0  0  0  0  0  0  0  0  0  0  0  0
    1.6614   -0.6410    3.0555 H   0  0  0  0  0  0  0  0  0  0  0  0
    3.6261    1.2612    1.6635 H   0  0  0  0  0  0  0  0  0  0  0  0
    1.9351    1.6371    2.0631 H   0  0  0  0  0  0  0  0  0  0  0  0
    3.1106    1.3597    3.3619 H   0  0  0  0  0  0  0  0  0  0  0  0
    0.6962   -0.5512    0.5555 N   0  0  0  0  0  0  0  0  0  0  0  0
    0.0422   -0.6778   -0.7727 C   0  0  2  0  0  0  0  0  0  0  0  0
   -1.3727   -1.2676   -0.6375 C   0  0  0  0  0  0  0  0  0  0  0  0
   -2.2887   -0.5094   -0.3447 O   0  0  0  0  0  0  0  0  0  0  0  0
    0.8427   -1.3665   -1.8949 C   0  0  0  0  0  0  0  0  0  0  0  0
    1.0704   -2.7472   -1.5993 O   0  0  0  0  0  0  0  0  0  0  0  0
    0.1569   -0.0447    1.2560 H   0  0  0  0  0  0  0  0  0  0  0  0
   -0.1058    0.3453   -1.1327 H   0  0  0  0  0  0  0  0  0  0  0  0
    1.7955   -0.8517   -2.0548 H   0  0  0  0  0  0  0  0  0  0  0  0
    0.2759   -1.2955   -2.8292 H   0  0  0  0  0  0  0  0  0  0  0  0
    1.7892   -2.7802   -0.9254 H   0  0  0  0  0  0  0  0  0  0  0  0
   -1.5822   -2.6340   -0.6916 N   0  0  0  0  0  0  0  0  0  0  0  0
   -2.8426   -3.3717   -0.4743 C   0  0  2  0  0  0  0  0  0  0  0  0
   -3.9482   -3.0942   -1.5189 C   0  0  0  0  0  0  0  0  0  0  0  0
   -4.5063   -4.0330   -2.0712 O   0  0  0  0  0  0  0  0  0  0  0  0
   -3.3674   -3.1494    0.9505 C   0  0  0  0  0  0  0  0  0  0  0  0
   -0.7627   -3.1683   -0.9928 H   0  0  0  0  0  0  0  0  0  0  0  0
   -2.6045   -4.4367   -0.5638 H   0  0  0  0  0  0  0  0  0  0  0  0
   -3.7118   -2.1207    1.0912 H   0  0  0  0  0  0  0  0  0  0  0  0
   -4.2094   -3.8204    1.1477 H   0  0  0  0  0  0  0  0  0  0  0  0
   -2.5809   -3.3579    1.6820 H   0  0  0  0  0  0  0  0  0  0  0  0
   -4.3314   -1.8053   -1.8322 N   0  0  0  0  0  0  0  0  0  0  0  0
   -5.3744   -1.4738   -2.7923 C   0  0  0  0  0  0  0  0  0  0  0  0
   -3.8466   -1.0554   -1.3329 H   0  0  0  0  0  0  0  0  0  0  0  0
   -5.4757   -0.3877   -2.8777 H   0  0  0  0  0  0  0  0  0  0  0  0
   -5.1279   -1.8772   -3.7800 H   0  0  0  0  0  0  0  0  0  0  0  0
   -6.3357   -1.8883   -2.4713 H   0  0  0  0  0  0  0  0  0  0  0  0
  1  2  2  0  0  0  0
  1  3  1  0  0  0  0
  1  7  1  0  0  0  0
  3  4  1  0  0  0  0
  3  5  1  0  0  0  0
  3  6  1  0  0  0  0
  7  8  1  0  0  0  0
  7 12  1  0  0  0  0
  8  9  1  0  0  0  0
  8 11  1  0  0  0  0
  8 13  1  0  0  0  0
  9 10  2  0  0  0  0
  9 17  1  0  0  0  0
 11 14  1  0  0  0  0
 11 15  1  0  0  0  0
 11 16  1  0  0  0  0
 17 18  1  0  0  0  0
 17 23  1  0  0  0  0
 18 19  1  0  0  0  0
 18 21  1  0  0  0  0
 18 24  1  0  0  0  0
 19 20  2  0  0  0  0
 19 28  1  0  0  0  0
 21 22  1  0  0  0  0
 21 25  1  0  0  0  0
 21 26  1  0  0  0  0
 22 27  1  0  0  0  0
 28 29  1  0  0  0  0
 28 33  1  0  0  0  0
 29 30  1  0  0  0  0
 29 32  1  0  0  0  0
 29 34  1  0  0  0  0
 30 31  2  0  0  0  0
 30 38  1  0  0  0  0
 32 35  1  0  0  0  0
 32 36  1  0  0  0  0
 32 37  1  0  0  0  0
 38 39  1  0  0  0  0
 38 40  1  0  0  0  0
 39 41  1  0  0  0  0
 39 42  1  0  0  0  0
 39 43  1  0  0  0  0
M  END
$$$$

  -OEChem-05262217303D

 43 42  0     1  0  0  0  0  0999 V2000
    3.9785   -1.5277    4.0261 C   0  0  0  0  0  0  0  0  0  0  0  0
    3.2651   -1.1202    4.9287 O   0  0  0  0  0  0  0  0  0  0  0  0
    5.1327   -2.4646    4.3291 C   0  0  0  0  0  0  0  0  0  0  0  0
    6.0811   -1.9786    4.0869 H   0  0  0  0  0  0  0  0  0  0  0  0
    5.1336   -2.7313    5.3899 H   0  0  0  0  0  0  0  0  0  0  0  0
    5.0381   -3.3786    3.7376 H   0  0  0  0  0  0  0  0  0  0  0  0
    3.7284   -1.1448    2.7248 N   0  0  0  0  0  0  0  0  0  0  0  0
    2.5473   -0.3793    2.3012 C   0  0  2  0  0  0  0  0  0  0  0  0
    2.0082   -0.8509    0.9334 C   0  0  0  0  0  0  0  0  0  0  0  0
    2.7014   -1.5848    0.2361 O   0  0  0  0  0  0  0  0  0  0  0  0
    2.9316    1.1017    2.2415 C   0  0  0  0  0  0  0  0  0  0  0  0
    4.2654   -1.6088    1.9934 H   0  0  0  0  0  0  0  0  0  0  0  0
    1.7401   -0.5109    3.0302 H   0  0  0  0  0  0  0  0  0  0  0  0
    3.7282    1.2610    1.5075 H   0  0  0  0  0  0  0  0  0  0  0  0
    2.0691    1.7129    1.9588 H   0  0  0  0  0  0  0  0  0  0  0  0
    3.2860    1.4402    3.2204 H   0  0  0  0  0  0  0  0  0  0  0  0
    0.7175   -0.5045    0.5598 N   0  0  0  0  0  0  0  0  0  0  0  0
    0.0245   -0.6608   -0.7463 C   0  0  2  0  0  0  0  0  0  0  0  0
   -1.3964   -1.2192   -0.5622 C   0  0  0  0  0  0  0  0  0  0  0  0
   -2.3347   -0.4338   -0.5271 O   0  0  0  0  0  0  0  0  0  0  0  0
    0.7739   -1.4218   -1.8546 C   0  0  0  0  0  0  0  0  0  0  0  0
    0.9582   -2.7947   -1.4985 O   0  0  0  0  0  0  0  0  0  0  0  0
    0.2138    0.0436    1.2547 H   0  0  0  0  0  0  0  0  0  0  0  0
   -0.1047    0.3514   -1.1424 H   0  0  0  0  0  0  0  0  0  0  0  0
    1.7393   -0.9482   -2.0619 H   0  0  0  0  0  0  0  0  0  0  0  0
    0.1860   -1.3738   -2.7772 H   0  0  0  0  0  0  0  0  0  0  0  0
    1.7102   -2.8259   -0.8630 H   0  0  0  0  0  0  0  0  0  0  0  0
   -1.5878   -2.5562   -0.2641 N   0  0  0  0  0  0  0  0  0  0  0  0
   -2.8509   -3.2390    0.0819 C   0  0  2  0  0  0  0  0  0  0  0  0
   -3.9075   -3.2835   -1.0465 C   0  0  0  0  0  0  0  0  0  0  0  0
   -4.4820   -4.3364   -1.2906 O   0  0  0  0  0  0  0  0  0  0  0  0
   -3.4526   -2.6558    1.3677 C   0  0  0  0  0  0  0  0  0  0  0  0
   -0.7691   -3.1396   -0.4505 H   0  0  0  0  0  0  0  0  0  0  0  0
   -2.5954   -4.2825    0.2941 H   0  0  0  0  0  0  0  0  0  0  0  0
   -3.8223   -1.6389    1.2075 H   0  0  0  0  0  0  0  0  0  0  0  0
   -4.2917   -3.2743    1.7017 H   0  0  0  0  0  0  0  0  0  0  0  0
   -2.7010   -2.6336    2.1623 H   0  0  0  0  0  0  0  0  0  0  0  0
   -4.2408   -2.1536   -1.7668 N   0  0  0  0  0  0  0  0  0  0  0  0
   -5.2670   -2.1177   -2.7995 C   0  0  0  0  0  0  0  0  0  0  0  0
   -3.7776   -1.2863   -1.4851 H   0  0  0  0  0  0  0  0  0  0  0  0
   -5.3350   -1.1136   -3.2288 H   0  0  0  0  0  0  0  0  0  0  0  0
   -5.0267   -2.8220   -3.6028 H   0  0  0  0  0  0  0  0  0  0  0  0
   -6.2429   -2.3819   -2.3792 H   0  0  0  0  0  0  0  0  0  0  0  0
  1  2  2  0  0  0  0
  1  3  1  0  0  0  0
  1  7  1  0  0  0  0
  3  4  1  0  0  0  0
  3  5  1  0  0  0  0
  3  6  1  0  0  0  0
  7  8  1  0  0  0  0
  7 12  1  0  0  0  0
  8  9  1  0  0  0  0
  8 11  1  0  0  0  0
  8 13  1  0  0  0  0
  9 10  2  0  0  0  0
  9 17  1  0  0  0  0
 11 14  1  0  0  0  0
 11 15  1  0  0  0  0
 11 16  1  0  0  0  0
 17 18  1  0  0  0  0
 17 23  1  0  0  0  0
 18 19  1  0  0  0  0
 18 21  1  0  0  0  0
 18 24  1  0  0  0  0
 19 20  2  0  0  0  0
 19 28  1  0  0  0  0
 21 22  1  0  0  0  0
 21 25  1  0  0  0  0
 21 26  1  0  0  0  0
 22 27  1  0  0  0  0
 28 29  1  0  0  0  0
 28 33  1  0  0  0  0
 29 30  1  0  0  0  0
 29 32  1  0  0  0  0
 29 34  1  0  0  0  0
 30 31  2  0  0  0  0
 30 38  1  0  0  0  0
 32 35  1  0  0  0  0
 32 36  1  0  0  0  0
 32 37  1  0  0  0  0
 38 39  1  0  0  0  0
 38 40  1  0  0  0  0
 39 41  1  0  0  0  0
 39 42  1  0  0  0  0
 39 43  1  0  0  0  0
M  END
$$$$

  -OEChem-05262217303D

 43 42  0     1  0  0  0  0  0999 V2000
    3.8600   -1.7467    3.8488 C   0  0  0  0  0  0  0  0  0  0  0  0
    3.0507   -1.5759    4.7467 O   0  0  0  0  0  0  0  0  0  0  0  0
    5.0266   -2.6968    4.0451 C   0  0  0  0  0  0  0  0  0  0  0  0
    5.9692   -2.1472    3.9880 H   0  0  0  0  0  0  0  0  0  0  0  0
    4.9586   -3.1800    5.0240 H   0  0  0  0  0  0  0  0  0  0  0  0
    5.0146   -3.4678    3.2709 H   0  0  0  0  0  0  0  0  0  0  0  0
    3.7056   -1.0891    2.6465 N   0  0  0  0  0  0  0  0  0  0  0  0
    2.5167   -0.3080    2.2782 C   0  0  2  0  0  0  0  0  0  0  0  0
    2.0870   -0.5754    0.8199 C   0  0  0  0  0  0  0  0  0  0  0  0
    2.9115   -1.0300    0.0365 O   0  0  0  0  0  0  0  0  0  0  0  0
    2.8391    1.1744    2.4840 C   0  0  0  0  0  0  0  0  0  0  0  0
    4.3184   -1.3720    1.8825 H   0  0  0  0  0  0  0  0  0  0  0  0
    1.6735   -0.5836    2.9207 H   0  0  0  0  0  0  0  0  0  0  0  0
    3.6771    1.4756    1.8471 H   0  0  0  0  0  0  0  0  0  0  0  0
    1.9729    1.7956    2.2374 H   0  0  0  0  0  0  0  0  0  0  0  0
    3.1101    1.3606    3.5283 H   0  0  0  0  0  0  0  0  0  0  0  0
    0.7951   -0.2485    0.4330 N   0  0  0  0  0  0  0  0  0  0  0  0
    0.0656   -0.5732   -0.8207 C   0  0  2  0  0  0  0  0  0  0  0  0
   -1.3603   -1.0497   -0.4950 C   0  0  0  0  0  0  0  0  0  0  0  0
   -2.3110   -0.3590   -0.8376 O   0  0  0  0  0  0  0  0  0  0  0  0
    0.7122   -1.6201   -1.7532 C   0  0  0  0  0  0  0  0  0  0  0  0
    0.7514   -2.9225   -1.1472 O   0  0  0  0  0  0  0  0  0  0  0  0
    0.2249    0.1430    1.1792 H   0  0  0  0  0  0  0  0  0  0  0  0
   -0.0193    0.3528   -1.3980 H   0  0  0  0  0  0  0  0  0  0  0  0
    1.7155   -1.3020   -2.0495 H   0  0  0  0  0  0  0  0  0  0  0  0
    0.1234   -1.6835   -2.6746 H   0  0  0  0  0  0  0  0  0  0  0  0
    1.3629   -3.5022   -1.6377 H   0  0  0  0  0  0  0  0  0  0  0  0
   -1.5499   -2.1722    0.2915 N   0  0  0  0  0  0  0  0  0  0  0  0
   -2.8317   -2.7592    0.7291 C   0  0  2  0  0  0  0  0  0  0  0  0
   -3.7212   -3.2964   -0.4161 C   0  0  0  0  0  0  0  0  0  0  0  0
   -4.1195   -4.4532   -0.3787 O   0  0  0  0  0  0  0  0  0  0  0  0
   -3.6133   -1.7795    1.6153 C   0  0  0  0  0  0  0  0  0  0  0  0
   -0.7196   -2.7669    0.3403 H   0  0  0  0  0  0  0  0  0  0  0  0
   -2.5858   -3.6248    1.3530 H   0  0  0  0  0  0  0  0  0  0  0  0
   -3.9773   -0.9242    1.0386 H   0  0  0  0  0  0  0  0  0  0  0  0
   -4.4782   -2.2843    2.0571 H   0  0  0  0  0  0  0  0  0  0  0  0
   -2.9778   -1.4101    2.4257 H   0  0  0  0  0  0  0  0  0  0  0  0
   -4.0829   -2.4929   -1.4794 N   0  0  0  0  0  0  0  0  0  0  0  0
   -4.8976   -2.9388   -2.6009 C   0  0  0  0  0  0  0  0  0  0  0  0
   -3.7024   -1.5429   -1.4776 H   0  0  0  0  0  0  0  0  0  0  0  0
   -5.0711   -2.1096   -3.2935 H   0  0  0  0  0  0  0  0  0  0  0  0
   -4.3929   -3.7449   -3.1433 H   0  0  0  0  0  0  0  0  0  0  0  0
   -5.8683   -3.3033   -2.2490 H   0  0  0  0  0  0  0  0  0  0  0  0
  1  2  2  0  0  0  0
  1  3  1  0  0  0  0
  1  7  1  0  0  0  0
  3  4  1  0  0  0  0
  3  5  1  0  0  0  0
  3  6  1  0  0  0  0
  7  8  1  0  0  0  0
  7 12  1  0  0  0  0
  8  9  1  0  0  0  0
  8 11  1  0  0  0  0
  8 13  1  0  0  0  0
  9 10  2  0  0  0  0
  9 17  1  0  0  0  0
 11 14  1  0  0  0  0
 11 15  1  0  0  0  0
 11 16  1  0  0  0  0
 17 18  1  0  0  0  0
 17 23  1  0  0  0  0
 18 19  1  0  0  0  0
 18 21  1  0  0  0  0
 18 24  1  0  0  0  0
 19 20  2  0  0  0  0
 19 28  1  0  0  0  0
 21 22  1  0  0  0  0
 21 25  1  0  0  0  0
 21 26  1  0  0  0  0
 22 27  1  0  0  0  0
 28 29  1  0  0  0  0
 28 33  1  0  0  0  0
 29 30  1  0  0  0  0
 29 32  1  0  0  0  0
 29 34  1  0  0  0  0
 30 31  2  0  0  0  0
 30 38  1  0  0  0  0
 32 35  1  0  0  0  0
 32 36  1  0  0  0  0
 32 37  1  0  0  0  0
 38 39  1  0  0  0  0
 38 40  1  0  0  0  0
 39 41  1  0  0  0  0
 39 42  1  0  0  0  0
 39 43  1  0  0  0  0
M  END
$$$$

  -OEChem-05262217303D

 43 42  0     1  0  0  0  0  0999 V2000
    3.8855   -1.8202    3.8790 C   0  0  0  0  0  0  0  0  0  0  0  0
    3.1465   -1.4568    4.7810 O   0  0  0  0  0  0  0  0  0  0  0  0
    4.9217   -2.8993    4.1307 C   0  0  0  0  0  0  0  0  0  0  0  0
    5.9194   -2.5207    3.8952 H   0  0  0  0  0  0  0  0  0  0  0  0
    4.8994   -3.2042    5.1806 H   0  0  0  0  0  0  0  0  0  0  0  0
    4.7130   -3.7713    3.5058 H   0  0  0  0  0  0  0  0  0  0  0  0
    3.7716   -1.2533    2.6277 N   0  0  0  0  0  0  0  0  0  0  0  0
    2.6995   -0.3307    2.2335 C   0  0  2  0  0  0  0  0  0  0  0  0
    2.2372   -0.5861    0.7842 C   0  0  0  0  0  0  0  0  0  0  0  0
    3.0001   -1.1502    0.0125 O   0  0  0  0  0  0  0  0  0  0  0  0
    3.2171    1.1010    2.3947 C   0  0  0  0  0  0  0  0  0  0  0  0
    4.3097   -1.6765    1.8712 H   0  0  0  0  0  0  0  0  0  0  0  0
    1.8286   -0.4743    2.8819 H   0  0  0  0  0  0  0  0  0  0  0  0
    4.0838    1.2688    1.7471 H   0  0  0  0  0  0  0  0  0  0  0  0
    2.4398    1.8246    2.1315 H   0  0  0  0  0  0  0  0  0  0  0  0
    3.5173    1.2788    3.4324 H   0  0  0  0  0  0  0  0  0  0  0  0
    1.0057   -0.0951    0.3778 N   0  0  0  0  0  0  0  0  0  0  0  0
    0.1937   -0.4693   -0.8106 C   0  0  2  0  0  0  0  0  0  0  0  0
   -1.2778   -0.6469   -0.4125 C   0  0  0  0  0  0  0  0  0  0  0  0
   -2.1606   -0.2038   -1.1336 O   0  0  0  0  0  0  0  0  0  0  0  0
    0.5804   -1.7813   -1.5380 C   0  0  0  0  0  0  0  0  0  0  0  0
    0.3579   -2.9469   -0.7228 O   0  0  0  0  0  0  0  0  0  0  0  0
    0.5124    0.4262    1.0980 H   0  0  0  0  0  0  0  0  0  0  0  0
    0.2599    0.3450   -1.5383 H   0  0  0  0  0  0  0  0  0  0  0  0
    1.6212   -1.7455   -1.8689 H   0  0  0  0  0  0  0  0  0  0  0  0
   -0.0250   -1.8753   -2.4461 H   0  0  0  0  0  0  0  0  0  0  0  0
   -0.5616   -3.2969   -0.8390 H   0  0  0  0  0  0  0  0  0  0  0  0
   -1.5881   -1.3604    0.7350 N   0  0  0  0  0  0  0  0  0  0  0  0
   -2.8831   -2.0418    0.9068 C   0  0  2  0  0  0  0  0  0  0  0  0
   -3.1815   -2.9897   -0.2834 C   0  0  0  0  0  0  0  0  0  0  0  0
   -2.2703   -3.6863   -0.7252 O   0  0  0  0  0  0  0  0  0  0  0  0
   -4.0047   -1.0305    1.1985 C   0  0  0  0  0  0  0  0  0  0  0  0
   -0.7768   -1.8641    1.0934 H   0  0  0  0  0  0  0  0  0  0  0  0
   -2.8031   -2.6840    1.7896 H   0  0  0  0  0  0  0  0  0  0  0  0
   -4.2422   -0.4296    0.3157 H   0  0  0  0  0  0  0  0  0  0  0  0
   -4.9126   -1.5530    1.5147 H   0  0  0  0  0  0  0  0  0  0  0  0
   -3.7010   -0.3544    2.0036 H   0  0  0  0  0  0  0  0  0  0  0  0
   -4.4297   -3.0550   -0.8745 N   0  0  0  0  0  0  0  0  0  0  0  0
   -4.6790   -3.7981   -2.1037 C   0  0  0  0  0  0  0  0  0  0  0  0
   -5.0941   -2.3354   -0.6046 H   0  0  0  0  0  0  0  0  0  0  0  0
   -5.7405   -3.7504   -2.3653 H   0  0  0  0  0  0  0  0  0  0  0  0
   -4.0975   -3.3758   -2.9303 H   0  0  0  0  0  0  0  0  0  0  0  0
   -4.4030   -4.8507   -1.9801 H   0  0  0  0  0  0  0  0  0  0  0  0
  1  2  2  0  0  0  0
  1  3  1  0  0  0  0
  1  7  1  0  0  0  0
  3  4  1  0  0  0  0
  3  5  1  0  0  0  0
  3  6  1  0  0  0  0
  7  8  1  0  0  0  0
  7 12  1  0  0  0  0
  8  9  1  0  0  0  0
  8 11  1  0  0  0  0
  8 13  1  0  0  0  0
  9 10  2  0  0  0  0
  9 17  1  0  0  0  0
 11 14  1  0  0  0  0
 11 15  1  0  0  0  0
 11 16  1  0  0  0  0
 17 18  1  0  0  0  0
 17 23  1  0  0  0  0
 18 19  1  0  0  0  0
 18 21  1  0  0  0  0
 18 24  1  0  0  0  0
 19 20  2  0  0  0  0
 19 28  1  0  0  0  0
 21 22  1  0  0  0  0
 21 25  1  0  0  0  0
 21 26  1  0  0  0  0
 22 27  1  0  0  0  0
 28 29  1  0  0  0  0
 28 33  1  0  0  0  0
 29 30  1  0  0  0  0
 29 32  1  0  0  0  0
 29 34  1  0  0  0  0
 30 31  2  0  0  0  0
 30 38  1  0  0  0  0
 32 35  1  0  0  0  0
 32 36  1  0  0  0  0
 32 37  1  0  0  0  0
 38 39  1  0  0  0  0
 38 40  1  0  0  0  0
 39 41  1  0  0  0  0
 39 42  1  0  0  0  0
 39 43  1  0  0  0  0
M  END
$$$$

  -OEChem-05262217303D

 43 42  0     1  0  0  0  0  0999 V2000
    3.8536   -1.8097    3.9285 C   0  0  0  0  0  0  0  0  0  0  0  0
    3.0933   -1.4487    4.8137 O   0  0  0  0  0  0  0  0  0  0  0  0
    4.8714   -2.9028    4.1956 C   0  0  0  0  0  0  0  0  0  0  0  0
    5.8777   -2.5379    3.9751 H   0  0  0  0  0  0  0  0  0  0  0  0
    4.8295   -3.2089    5.2448 H   0  0  0  0  0  0  0  0  0  0  0  0
    4.6604   -3.7713    3.5665 H   0  0  0  0  0  0  0  0  0  0  0  0
    3.7821   -1.2302    2.6799 N   0  0  0  0  0  0  0  0  0  0  0  0
    2.7205   -0.3086    2.2551 C   0  0  2  0  0  0  0  0  0  0  0  0
    2.2721   -0.5940    0.8061 C   0  0  0  0  0  0  0  0  0  0  0  0
    3.0467   -1.1730    0.0574 O   0  0  0  0  0  0  0  0  0  0  0  0
    3.2490    1.1220    2.3903 C   0  0  0  0  0  0  0  0  0  0  0  0
    4.3293   -1.6640    1.9362 H   0  0  0  0  0  0  0  0  0  0  0  0
    1.8424   -0.4300    2.8977 H   0  0  0  0  0  0  0  0  0  0  0  0
    4.1190    1.2704    1.7424 H   0  0  0  0  0  0  0  0  0  0  0  0
    2.4791    1.8474    2.1108 H   0  0  0  0  0  0  0  0  0  0  0  0
    3.5473    1.3169    3.4254 H   0  0  0  0  0  0  0  0  0  0  0  0
    1.0531   -0.0955    0.3674 N   0  0  0  0  0  0  0  0  0  0  0  0
    0.2571   -0.4658   -0.8358 C   0  0  2  0  0  0  0  0  0  0  0  0
   -1.2319   -0.6332   -0.5058 C   0  0  0  0  0  0  0  0  0  0  0  0
   -2.0717   -0.3652   -1.3541 O   0  0  0  0  0  0  0  0  0  0  0  0
    0.6400   -1.8092   -1.5052 C   0  0  0  0  0  0  0  0  0  0  0  0
    0.3606   -2.9359   -0.6508 O   0  0  0  0  0  0  0  0  0  0  0  0
    0.5648    0.4690    1.0575 H   0  0  0  0  0  0  0  0  0  0  0  0
    0.3619    0.3301   -1.5788 H   0  0  0  0  0  0  0  0  0  0  0  0
    1.6896   -1.8106   -1.8075 H   0  0  0  0  0  0  0  0  0  0  0  0
    0.0604   -1.9257   -2.4272 H   0  0  0  0  0  0  0  0  0  0  0  0
   -0.5922   -3.2033   -0.6773 H   0  0  0  0  0  0  0  0  0  0  0  0
   -1.6148   -1.0618    0.7561 N   0  0  0  0  0  0  0  0  0  0  0  0
   -2.9310   -1.6833    0.9944 C   0  0  2  0  0  0  0  0  0  0  0  0
   -3.2110   -2.8448    0.0030 C   0  0  0  0  0  0  0  0  0  0  0  0
   -2.2847   -3.5822   -0.3257 O   0  0  0  0  0  0  0  0  0  0  0  0
   -4.0375   -0.6154    1.0247 C   0  0  0  0  0  0  0  0  0  0  0  0
   -0.8370   -1.4732    1.2689 H   0  0  0  0  0  0  0  0  0  0  0  0
   -2.9043   -2.1388    1.9892 H   0  0  0  0  0  0  0  0  0  0  0  0
   -4.2114   -0.1931    0.0305 H   0  0  0  0  0  0  0  0  0  0  0  0
   -4.9751   -1.0497    1.3843 H   0  0  0  0  0  0  0  0  0  0  0  0
   -3.7567    0.1983    1.7005 H   0  0  0  0  0  0  0  0  0  0  0  0
   -4.4715   -3.0765   -0.5166 N   0  0  0  0  0  0  0  0  0  0  0  0
   -4.7274   -4.0708   -1.5523 C   0  0  0  0  0  0  0  0  0  0  0  0
   -5.1678   -2.3542   -0.3583 H   0  0  0  0  0  0  0  0  0  0  0  0
   -5.7934   -4.0953   -1.7977 H   0  0  0  0  0  0  0  0  0  0  0  0
   -4.1669   -3.8294   -2.4618 H   0  0  0  0  0  0  0  0  0  0  0  0
   -4.4311   -5.0680   -1.2100 H   0  0  0  0  0  0  0  0  0  0  0  0
  1  2  2  0  0  0  0
  1  3  1  0  0  0  0
  1  7  1  0  0  0  0
  3  4  1  0  0  0  0
  3  5  1  0  0  0  0
  3  6  1  0  0  0  0
  7  8  1  0  0  0  0
  7 12  1  0  0  0  0
  8  9  1  0  0  0  0
  8 11  1  0  0  0  0
  8 13  1  0  0  0  0
  9 10  2  0  0  0  0
  9 17  1  0  0  0  0
 11 14  1  0  0  0  0
 11 15  1  0  0  0  0
 11 16  1  0  0  0  0
 17 18  1  0  0  0  0
 17 23  1  0  0  0  0
 18 19  1  0  0  0  0
 18 21  1  0  0  0  0
 18 24  1  0  0  0  0
 19 20  2  0  0  0  0
 19 28  1  0  0  0  0
 21 22  1  0  0  0  0
 21 25  1  0  0  0  0
 21 26  1  0  0  0  0
 22 27  1  0  0  0  0
 28 29  1  0  0  0  0
 28 33  1  0  0  0  0
 29 30  1  0  0  0  0
 29 32  1  0  0  0  0
 29 34  1  0  0  0  0
 30 31  2  0  0  0  0
 30 38  1  0  0  0  0
 32 35  1  0  0  0  0
 32 36  1  0  0  0  0
 32 37  1  0  0  0  0
 38 39  1  0  0  0  0
 38 40  1  0  0  0  0
 39 41  1  0  0  0  0
 39 42  1  0  0  0  0
 39 43  1  0  0  0  0
M  END
$$$$

  -OEChem-05262217303D

 43 42  0     1  0  0  0  0  0999 V2000
    3.8404   -1.7772    3.9873 C   0  0  0  0  0  0  0  0  0  0  0  0
    3.0995   -1.3567    4.8628 O   0  0  0  0  0  0  0  0  0  0  0  0
    4.8433   -2.8735    4.2937 C   0  0  0  0  0  0  0  0  0  0  0  0
    5.8554   -2.5244    4.0753 H   0  0  0  0  0  0  0  0  0  0  0  0
    4.7868   -3.1533    5.3493 H   0  0  0  0  0  0  0  0  0  0  0  0
    4.6302   -3.7545    3.6834 H   0  0  0  0  0  0  0  0  0  0  0  0
    3.7613   -1.2593    2.7123 N   0  0  0  0  0  0  0  0  0  0  0  0
    2.7192   -0.3294    2.2603 C   0  0  2  0  0  0  0  0  0  0  0  0
    2.2851   -0.6268    0.8096 C   0  0  0  0  0  0  0  0  0  0  0  0
    3.0601   -1.2267    0.0783 O   0  0  0  0  0  0  0  0  0  0  0  0
    3.2631    1.0970    2.3830 C   0  0  0  0  0  0  0  0  0  0  0  0
    4.2954   -1.7327    1.9831 H   0  0  0  0  0  0  0  0  0  0  0  0
    1.8322   -0.4330    2.8938 H   0  0  0  0  0  0  0  0  0  0  0  0
    4.1436    1.2267    1.7453 H   0  0  0  0  0  0  0  0  0  0  0  0
    2.5053    1.8266    2.0827 H   0  0  0  0  0  0  0  0  0  0  0  0
    3.5497    1.3041    3.4191 H   0  0  0  0  0  0  0  0  0  0  0  0
    1.0813   -0.1071    0.3533 N   0  0  0  0  0  0  0  0  0  0  0  0
    0.2952   -0.4447   -0.8672 C   0  0  2  0  0  0  0  0  0  0  0  0
   -1.2057   -0.5960   -0.5799 C   0  0  0  0  0  0  0  0  0  0  0  0
   -2.0046   -0.5031   -1.5022 O   0  0  0  0  0  0  0  0  0  0  0  0
    0.6736   -1.7911   -1.5347 C   0  0  0  0  0  0  0  0  0  0  0  0
    0.3605   -2.9177   -0.6896 O   0  0  0  0  0  0  0  0  0  0  0  0
    0.6185    0.5062    1.0180 H   0  0  0  0  0  0  0  0  0  0  0  0
    0.4302    0.3545   -1.6015 H   0  0  0  0  0  0  0  0  0  0  0  0
    1.7286   -1.8058   -1.8171 H   0  0  0  0  0  0  0  0  0  0  0  0
    0.1133   -1.8967   -2.4700 H   0  0  0  0  0  0  0  0  0  0  0  0
   -0.6089   -3.0917   -0.6159 H   0  0  0  0  0  0  0  0  0  0  0  0
   -1.6591   -0.7373    0.7233 N   0  0  0  0  0  0  0  0  0  0  0  0
   -2.9931   -1.2980    1.0128 C   0  0  2  0  0  0  0  0  0  0  0  0
   -3.2397   -2.6384    0.2670 C   0  0  0  0  0  0  0  0  0  0  0  0
   -2.2913   -3.3907    0.0551 O   0  0  0  0  0  0  0  0  0  0  0  0
   -4.0871   -0.2461    0.7617 C   0  0  0  0  0  0  0  0  0  0  0  0
   -0.9186   -1.0329    1.3545 H   0  0  0  0  0  0  0  0  0  0  0  0
   -3.0241   -1.5382    2.0800 H   0  0  0  0  0  0  0  0  0  0  0  0
   -4.2163   -0.0540   -0.3077 H   0  0  0  0  0  0  0  0  0  0  0  0
   -5.0440   -0.5861    1.1689 H   0  0  0  0  0  0  0  0  0  0  0  0
   -3.8230    0.6960    1.2516 H   0  0  0  0  0  0  0  0  0  0  0  0
   -4.5041   -3.0213   -0.1427 N   0  0  0  0  0  0  0  0  0  0  0  0
   -4.7457   -4.2142   -0.9456 C   0  0  0  0  0  0  0  0  0  0  0  0
   -5.2357   -2.3191   -0.0870 H   0  0  0  0  0  0  0  0  0  0  0  0
   -5.8180   -4.3373   -1.1258 H   0  0  0  0  0  0  0  0  0  0  0  0
   -4.2373   -4.1336   -1.9125 H   0  0  0  0  0  0  0  0  0  0  0  0
   -4.3797   -5.1070   -0.4273 H   0  0  0  0  0  0  0  0  0  0  0  0
  1  2  2  0  0  0  0
  1  3  1  0  0  0  0
  1  7  1  0  0  0  0
  3  4  1  0  0  0  0
  3  5  1  0  0  0  0
  3  6  1  0  0  0  0
  7  8  1  0  0  0  0
  7 12  1  0  0  0  0
  8  9  1  0  0  0  0
  8 11  1  0  0  0  0
  8 13  1  0  0  0  0
  9 10  2  0  0  0  0
  9 17  1  0  0  0  0
 11 14  1  0  0  0  0
 11 15  1  0  0  0  0
 11 16  1  0  0  0  0
 17 18  1  0  0  0  0
 17 23  1  0  0  0  0
 18 19  1  0  0  0  0
 18 21  1  0  0  0  0
 18 24  1  0  0  0  0
 19 20  2  0  0  0  0
 19 28  1  0  0  0  0
 21 22  1  0  0  0  0
 21 25  1  0  0  0  0
 21 26  1  0  0  0  0
 22 27  1  0  0  0  0
 28 29  1  0  0  0  0
 28 33  1  0  0  0  0
 29 30  1  0  0  0  0
 29 32  1  0  0  0  0
 29 34  1  0  0  0  0
 30 31  2  0  0  0  0
 30 38  1  0  0  0  0
 32 35  1  0  0  0  0
 32 36  1  0  0  0  0
 32 37  1  0  0  0  0
 38 39  1  0  0  0  0
 38 40  1  0  0  0  0
 39 41  1  0  0  0  0
 39 42  1  0  0  0  0
 39 43  1  0  0  0  0
M  END
$$$$

  -OEChem-05262217303D

 43 42  0     1  0  0  0  0  0999 V2000
    3.8359   -1.7540    4.0168 C   0  0  0  0  0  0  0  0  0  0  0  0
    3.1096   -1.3000    4.8877 O   0  0  0  0  0  0  0  0  0  0  0  0
    4.8338   -2.8480    4.3462 C   0  0  0  0  0  0  0  0  0  0  0  0
    5.8453   -2.5165    4.0998 H   0  0  0  0  0  0  0  0  0  0  0  0
    4.7918   -3.0888    5.4119 H   0  0  0  0  0  0  0  0  0  0  0  0
    4.6030   -3.7485    3.7718 H   0  0  0  0  0  0  0  0  0  0  0  0
    3.7462   -1.2723    2.7285 N   0  0  0  0  0  0  0  0  0  0  0  0
    2.7041   -0.3490    2.2632 C   0  0  2  0  0  0  0  0  0  0  0  0
    2.2782   -0.6586    0.8124 C   0  0  0  0  0  0  0  0  0  0  0  0
    3.0518   -1.2808    0.0985 O   0  0  0  0  0  0  0  0  0  0  0  0
    3.2430    1.0805    2.3791 C   0  0  0  0  0  0  0  0  0  0  0  0
    4.2669   -1.7709    2.0064 H   0  0  0  0  0  0  0  0  0  0  0  0
    1.8138   -0.4527    2.8923 H   0  0  0  0  0  0  0  0  0  0  0  0
    4.1282    1.2077    1.7475 H   0  0  0  0  0  0  0  0  0  0  0  0
    2.4858    1.8060    2.0681 H   0  0  0  0  0  0  0  0  0  0  0  0
    3.5214    1.2972    3.4154 H   0  0  0  0  0  0  0  0  0  0  0  0
    1.0902   -0.1192    0.3355 N   0  0  0  0  0  0  0  0  0  0  0  0
    0.3126   -0.4432   -0.8958 C   0  0  2  0  0  0  0  0  0  0  0  0
   -1.1995   -0.5681   -0.6403 C   0  0  0  0  0  0  0  0  0  0  0  0
   -1.9610   -0.6838   -1.5921 O   0  0  0  0  0  0  0  0  0  0  0  0
    0.6804   -1.8076   -1.5368 C   0  0  0  0  0  0  0  0  0  0  0  0
    0.3280   -2.9140   -0.6797 O   0  0  0  0  0  0  0  0  0  0  0  0
    0.6572    0.5438    0.9706 H   0  0  0  0  0  0  0  0  0  0  0  0
    0.4780    0.3458   -1.6350 H   0  0  0  0  0  0  0  0  0  0  0  0
    1.7393   -1.8486   -1.7993 H   0  0  0  0  0  0  0  0  0  0  0  0
    0.1384   -1.9196   -2.4822 H   0  0  0  0  0  0  0  0  0  0  0  0
   -0.6411   -2.9966   -0.5300 H   0  0  0  0  0  0  0  0  0  0  0  0
   -1.7229   -0.3942    0.6328 N   0  0  0  0  0  0  0  0  0  0  0  0
   -3.0695   -0.8957    0.9733 C   0  0  2  0  0  0  0  0  0  0  0  0
   -3.2765   -2.3717    0.5328 C   0  0  0  0  0  0  0  0  0  0  0  0
   -2.3159   -3.1375    0.5216 O   0  0  0  0  0  0  0  0  0  0  0  0
   -4.1517    0.0580    0.4391 C   0  0  0  0  0  0  0  0  0  0  0  0
   -1.0227   -0.5254    1.3560 H   0  0  0  0  0  0  0  0  0  0  0  0
   -3.1563   -0.8931    2.0640 H   0  0  0  0  0  0  0  0  0  0  0  0
   -4.2230    0.0079   -0.6514 H   0  0  0  0  0  0  0  0  0  0  0  0
   -5.1284   -0.1990    0.8595 H   0  0  0  0  0  0  0  0  0  0  0  0
   -3.9191    1.0889    0.7224 H   0  0  0  0  0  0  0  0  0  0  0  0
   -4.5202   -2.8528    0.1659 N   0  0  0  0  0  0  0  0  0  0  0  0
   -4.7166   -4.1893   -0.3835 C   0  0  0  0  0  0  0  0  0  0  0  0
   -5.2551   -2.1643    0.0353 H   0  0  0  0  0  0  0  0  0  0  0  0
   -5.7762   -4.3579   -0.5984 H   0  0  0  0  0  0  0  0  0  0  0  0
   -4.1503   -4.3066   -1.3137 H   0  0  0  0  0  0  0  0  0  0  0  0
   -4.3846   -4.9513    0.3297 H   0  0  0  0  0  0  0  0  0  0  0  0
  1  2  2  0  0  0  0
  1  3  1  0  0  0  0
  1  7  1  0  0  0  0
  3  4  1  0  0  0  0
  3  5  1  0  0  0  0
  3  6  1  0  0  0  0
  7  8  1  0  0  0  0
  7 12  1  0  0  0  0
  8  9  1  0  0  0  0
  8 11  1  0  0  0  0
  8 13  1  0  0  0  0
  9 10  2  0  0  0  0
  9 17  1  0  0  0  0
 11 14  1  0  0  0  0
 11 15  1  0  0  0  0
 11 16  1  0  0  0  0
 17 18  1  0  0  0  0
 17 23  1  0  0  0  0
 18 19  1  0  0  0  0
 18 21  1  0  0  0  0
 18 24  1  0  0  0  0
 19 20  2  0  0  0  0
 19 28  1  0  0  0  0
 21 22  1  0  0  0  0
 21 25  1  0  0  0  0
 21 26  1  0  0  0  0
 22 27  1  0  0  0  0
 28 29  1  0  0  0  0
 28 33  1  0  0  0  0
 29 30  1  0  0  0  0
 29 32  1  0  0  0  0
 29 34  1  0  0  0  0
 30 31  2  0  0  0  0
 30 38  1  0  0  0  0
 32 35  1  0  0  0  0
 32 36  1  0  0  0  0
 32 37  1  0  0  0  0
 38 39  1  0  0  0  0
 38 40  1  0  0  0  0
 39 41  1  0  0  0  0
 39 42  1  0  0  0  0
 39 43  1  0  0  0  0
M  END
$$$$

  -OEChem-05262217303D

 43 42  0     1  0  0  0  0  0999 V2000
    3.9027   -1.6792    4.0085 C   0  0  0  0  0  0  0  0  0  0  0  0
    3.2612   -1.1234    4.8866 O   0  0  0  0  0  0  0  0  0  0  0  0
    4.9082   -2.7582    4.3641 C   0  0  0  0  0  0  0  0  0  0  0  0
    5.8956   -2.4905    3.9803 H   0  0  0  0  0  0  0  0  0  0  0  0
    4.9720   -2.8711    5.4499 H   0  0  0  0  0  0  0  0  0  0  0  0
    4.6018   -3.7122    3.9282 H   0  0  0  0  0  0  0  0  0  0  0  0
    3.7043   -1.3282    2.6900 N   0  0  0  0  0  0  0  0  0  0  0  0
    2.6685   -0.3959    2.2284 C   0  0  2  0  0  0  0  0  0  0  0  0
    2.1542   -0.7632    0.8203 C   0  0  0  0  0  0  0  0  0  0  0  0
    2.8802   -1.4228    0.0918 O   0  0  0  0  0  0  0  0  0  0  0  0
    3.2571    1.0186    2.2342 C   0  0  0  0  0  0  0  0  0  0  0  0
    4.1711   -1.8879    1.9758 H   0  0  0  0  0  0  0  0  0  0  0  0
    1.8122   -0.4348    2.9103 H   0  0  0  0  0  0  0  0  0  0  0  0
    4.1169    1.0767    1.5587 H   0  0  0  0  0  0  0  0  0  0  0  0
    2.5103    1.7500    1.9119 H   0  0  0  0  0  0  0  0  0  0  0  0
    3.5883    1.2864    3.2427 H   0  0  0  0  0  0  0  0  0  0  0  0
    0.9311   -0.2481    0.4059 N   0  0  0  0  0  0  0  0  0  0  0  0
    0.1547   -0.4927   -0.8459 C   0  0  2  0  0  0  0  0  0  0  0  0
   -1.3468   -0.7245   -0.5442 C   0  0  0  0  0  0  0  0  0  0  0  0
   -2.1024   -1.1012   -1.4321 O   0  0  0  0  0  0  0  0  0  0  0  0
    0.6154   -1.6942   -1.7101 C   0  0  0  0  0  0  0  0  0  0  0  0
    0.4067   -2.9432   -1.0330 O   0  0  0  0  0  0  0  0  0  0  0  0
    0.5546    0.4513    1.0377 H   0  0  0  0  0  0  0  0  0  0  0  0
    0.2335    0.4028   -1.4690 H   0  0  0  0  0  0  0  0  0  0  0  0
    1.6676   -1.5839   -1.9841 H   0  0  0  0  0  0  0  0  0  0  0  0
    0.0610   -1.7066   -2.6549 H   0  0  0  0  0  0  0  0  0  0  0  0
   -0.5328   -3.1968   -1.0660 H   0  0  0  0  0  0  0  0  0  0  0  0
   -1.8807   -0.3956    0.6948 N   0  0  0  0  0  0  0  0  0  0  0  0
   -3.2990   -0.4844    1.1053 C   0  0  2  0  0  0  0  0  0  0  0  0
   -3.8744   -1.9197    1.1433 C   0  0  0  0  0  0  0  0  0  0  0  0
   -4.2782   -2.3746    2.2044 O   0  0  0  0  0  0  0  0  0  0  0  0
   -4.1834    0.4455    0.2618 C   0  0  0  0  0  0  0  0  0  0  0  0
   -1.2017   -0.3009    1.4424 H   0  0  0  0  0  0  0  0  0  0  0  0
   -3.3529   -0.1154    2.1351 H   0  0  0  0  0  0  0  0  0  0  0  0
   -4.2621    0.0964   -0.7716 H   0  0  0  0  0  0  0  0  0  0  0  0
   -5.1927    0.4846    0.6836 H   0  0  0  0  0  0  0  0  0  0  0  0
   -3.7715    1.4589    0.2559 H   0  0  0  0  0  0  0  0  0  0  0  0
   -3.9274   -2.7028    0.0077 N   0  0  0  0  0  0  0  0  0  0  0  0
   -4.4165   -4.0745   -0.0172 C   0  0  0  0  0  0  0  0  0  0  0  0
   -3.5128   -2.3003   -0.8364 H   0  0  0  0  0  0  0  0  0  0  0  0
   -4.3884   -4.4661   -1.0386 H   0  0  0  0  0  0  0  0  0  0  0  0
   -3.7955   -4.7148    0.6178 H   0  0  0  0  0  0  0  0  0  0  0  0
   -5.4505   -4.1188    0.3404 H   0  0  0  0  0  0  0  0  0  0  0  0
  1  2  2  0  0  0  0
  1  3  1  0  0  0  0
  1  7  1  0  0  0  0
  3  4  1  0  0  0  0
  3  5  1  0  0  0  0
  3  6  1  0  0  0  0
  7  8  1  0  0  0  0
  7 12  1  0  0  0  0
  8  9  1  0  0  0  0
  8 11  1  0  0  0  0
  8 13  1  0  0  0  0
  9 10  2  0  0  0  0
  9 17  1  0  0  0  0
 11 14  1  0  0  0  0
 11 15  1  0  0  0  0
 11 16  1  0  0  0  0
 17 18  1  0  0  0  0
 17 23  1  0  0  0  0
 18 19  1  0  0  0  0
 18 21  1  0  0  0  0
 18 24  1  0  0  0  0
 19 20  2  0  0  0  0
 19 28  1  0  0  0  0
 21 22  1  0  0  0  0
 21 25  1  0  0  0  0
 21 26  1  0  0  0  0
 22 27  1  0  0  0  0
 28 29  1  0  0  0  0
 28 33  1  0  0  0  0
 29 30  1  0  0  0  0
 29 32  1  0  0  0  0
 29 34  1  0  0  0  0
 30 31  2  0  0  0  0
 30 38  1  0  0  0  0
 32 35  1  0  0  0  0
 32 36  1  0  0  0  0
 32 37  1  0  0  0  0
 38 39  1  0  0  0  0
 38 40  1  0  0  0  0
 39 41  1  0  0  0  0
 39 42  1  0  0  0  0
 39 43  1  0  0  0  0
M  END
$$$$

  -OEChem-05262217303D

 43 42  0     1  0  0  0  0  0999 V2000
    3.6264   -2.1724    3.6887 C   0  0  0  0  0  0  0  0  0  0  0  0
    2.7598   -2.1429    4.5483 O   0  0  0  0  0  0  0  0  0  0  0  0
    4.8156   -3.1027    3.8342 C   0  0  0  0  0  0  0  0  0  0  0  0
    5.7449   -2.5288    3.8047 H   0  0  0  0  0  0  0  0  0  0  0  0
    4.7615   -3.6380    4.7862 H   0  0  0  0  0  0  0  0  0  0  0  0
    4.8192   -3.8312    3.0198 H   0  0  0  0  0  0  0  0  0  0  0  0
    3.5187   -1.3662    2.5758 N   0  0  0  0  0  0  0  0  0  0  0  0
    2.3284   -0.5743    2.2421 C   0  0  2  0  0  0  0  0  0  0  0  0
    2.1467   -0.4457    0.7149 C   0  0  0  0  0  0  0  0  0  0  0  0
    3.1049   -0.6351   -0.0238 O   0  0  0  0  0  0  0  0  0  0  0  0
    2.4695    0.8062    2.8920 C   0  0  0  0  0  0  0  0  0  0  0  0
    4.1978   -1.5078    1.8281 H   0  0  0  0  0  0  0  0  0  0  0  0
    1.4354   -1.0725    2.6357 H   0  0  0  0  0  0  0  0  0  0  0  0
    3.3569    1.3199    2.5084 H   0  0  0  0  0  0  0  0  0  0  0  0
    1.5911    1.4238    2.6841 H   0  0  0  0  0  0  0  0  0  0  0  0
    2.5689    0.7046    3.9776 H   0  0  0  0  0  0  0  0  0  0  0  0
    0.9577    0.0466    0.1971 N   0  0  0  0  0  0  0  0  0  0  0  0
    0.3010   -0.4475   -1.0470 C   0  0  2  0  0  0  0  0  0  0  0  0
   -1.2230   -0.6250   -0.8179 C   0  0  0  0  0  0  0  0  0  0  0  0
   -1.8529   -1.5450   -1.3284 O   0  0  0  0  0  0  0  0  0  0  0  0
    0.8711   -1.7743   -1.6154 C   0  0  0  0  0  0  0  0  0  0  0  0
    0.6194   -2.8648   -0.7186 O   0  0  0  0  0  0  0  0  0  0  0  0
    0.3063    0.2366    0.9520 H   0  0  0  0  0  0  0  0  0  0  0  0
    0.4334    0.3156   -1.8193 H   0  0  0  0  0  0  0  0  0  0  0  0
    1.9398   -1.6916   -1.8248 H   0  0  0  0  0  0  0  0  0  0  0  0
    0.3946   -1.9910   -2.5777 H   0  0  0  0  0  0  0  0  0  0  0  0
   -0.3339   -3.0774   -0.7289 H   0  0  0  0  0  0  0  0  0  0  0  0
   -1.8664    0.2015    0.0946 N   0  0  0  0  0  0  0  0  0  0  0  0
   -3.2987    0.1802    0.4642 C   0  0  2  0  0  0  0  0  0  0  0  0
   -3.7436   -1.0650    1.2649 C   0  0  0  0  0  0  0  0  0  0  0  0
   -4.2183   -0.9171    2.3823 O   0  0  0  0  0  0  0  0  0  0  0  0
   -4.1996    0.4010   -0.7600 C   0  0  0  0  0  0  0  0  0  0  0  0
   -1.3380    1.0166    0.3908 H   0  0  0  0  0  0  0  0  0  0  0  0
   -3.4638    1.0336    1.1304 H   0  0  0  0  0  0  0  0  0  0  0  0
   -4.1762   -0.4596   -1.4347 H   0  0  0  0  0  0  0  0  0  0  0  0
   -5.2354    0.5503   -0.4387 H   0  0  0  0  0  0  0  0  0  0  0  0
   -3.8794    1.2881   -1.3146 H   0  0  0  0  0  0  0  0  0  0  0  0
   -3.6053   -2.3378    0.7499 N   0  0  0  0  0  0  0  0  0  0  0  0
   -3.9759   -3.5510    1.4656 C   0  0  0  0  0  0  0  0  0  0  0  0
   -3.1478   -2.4091   -0.1617 H   0  0  0  0  0  0  0  0  0  0  0  0
   -3.8048   -4.4286    0.8348 H   0  0  0  0  0  0  0  0  0  0  0  0
   -3.3780   -3.6562    2.3770 H   0  0  0  0  0  0  0  0  0  0  0  0
   -5.0358   -3.5246    1.7399 H   0  0  0  0  0  0  0  0  0  0  0  0
  1  2  2  0  0  0  0
  1  3  1  0  0  0  0
  1  7  1  0  0  0  0
  3  4  1  0  0  0  0
  3  5  1  0  0  0  0
  3  6  1  0  0  0  0
  7  8  1  0  0  0  0
  7 12  1  0  0  0  0
  8  9  1  0  0  0  0
  8 11  1  0  0  0  0
  8 13  1  0  0  0  0
  9 10  2  0  0  0  0
  9 17  1  0  0  0  0
 11 14  1  0  0  0  0
 11 15  1  0  0  0  0
 11 16  1  0  0  0  0
 17 18  1  0  0  0  0
 17 23  1  0  0  0  0
 18 19  1  0  0  0  0
 18 21  1  0  0  0  0
 18 24  1  0  0  0  0
 19 20  2  0  0  0  0
 19 28  1  0  0  0  0
 21 22  1  0  0  0  0
 21 25  1  0  0  0  0
 21 26  1  0  0  0  0
 22 27  1  0  0  0  0
 28 29  1  0  0  0  0
 28 33  1  0  0  0  0
 29 30  1  0  0  0  0
 29 32  1  0  0  0  0
 29 34  1  0  0  0  0
 30 31  2  0  0  0  0
 30 38  1  0  0  0  0
 32 35  1  0  0  0  0
 32 36  1  0  0  0  0
 32 37  1  0  0  0  0
 38 39  1  0  0  0  0
 38 40  1  0  0  0  0
 39 41  1  0  0  0  0
 39 42  1  0  0  0  0
 39 43  1  0  0  0  0
M  END
$$$$

  -OEChem-05262217303D

 43 42  0     1  0  0  0  0  0999 V2000
    3.5287   -2.1593    3.7866 C   0  0  0  0  0  0  0  0  0  0  0  0
    2.6524   -2.1017    4.6347 O   0  0  0  0  0  0  0  0  0  0  0  0
    4.7466   -3.0376    4.0033 C   0  0  0  0  0  0  0  0  0  0  0  0
    5.6549   -2.4313    3.9657 H   0  0  0  0  0  0  0  0  0  0  0  0
    4.6907   -3.5276    4.9794 H   0  0  0  0  0  0  0  0  0  0  0  0
    4.7959   -3.8040    3.2262 H   0  0  0  0  0  0  0  0  0  0  0  0
    3.4141   -1.4209    2.6288 N   0  0  0  0  0  0  0  0  0  0  0  0
    2.2338   -0.6316    2.2571 C   0  0  2  0  0  0  0  0  0  0  0  0
    2.0947   -0.5185    0.7240 C   0  0  0  0  0  0  0  0  0  0  0  0
    3.0709   -0.7310    0.0156 O   0  0  0  0  0  0  0  0  0  0  0  0
    2.3629    0.7568    2.8933 C   0  0  0  0  0  0  0  0  0  0  0  0
    4.1083   -1.5791    1.8987 H   0  0  0  0  0  0  0  0  0  0  0  0
    1.3306   -1.1237    2.6346 H   0  0  0  0  0  0  0  0  0  0  0  0
    3.2612    1.2629    2.5252 H   0  0  0  0  0  0  0  0  0  0  0  0
    1.4924    1.3750    2.6566 H   0  0  0  0  0  0  0  0  0  0  0  0
    2.4350    0.6699    3.9822 H   0  0  0  0  0  0  0  0  0  0  0  0
    0.9314   -0.0080    0.1669 N   0  0  0  0  0  0  0  0  0  0  0  0
    0.3199   -0.4595   -1.1144 C   0  0  2  0  0  0  0  0  0  0  0  0
   -1.2090   -0.6232   -0.9249 C   0  0  0  0  0  0  0  0  0  0  0  0
   -1.8119   -1.6422   -1.2466 O   0  0  0  0  0  0  0  0  0  0  0  0
    0.9036   -1.7672   -1.7139 C   0  0  0  0  0  0  0  0  0  0  0  0
    0.6237   -2.8937   -0.8727 O   0  0  0  0  0  0  0  0  0  0  0  0
    0.2520    0.2036    0.8931 H   0  0  0  0  0  0  0  0  0  0  0  0
    0.4817    0.3272   -1.8567 H   0  0  0  0  0  0  0  0  0  0  0  0
    1.9779   -1.6812   -1.8916 H   0  0  0  0  0  0  0  0  0  0  0  0
    0.4487   -1.9426   -2.6944 H   0  0  0  0  0  0  0  0  0  0  0  0
   -0.3429   -3.0473   -0.8624 H   0  0  0  0  0  0  0  0  0  0  0  0
   -1.8920    0.3819   -0.2546 N   0  0  0  0  0  0  0  0  0  0  0  0
   -3.3301    0.4134    0.0873 C   0  0  2  0  0  0  0  0  0  0  0  0
   -3.7570   -0.6335    1.1415 C   0  0  0  0  0  0  0  0  0  0  0  0
   -4.1654   -0.2515    2.2291 O   0  0  0  0  0  0  0  0  0  0  0  0
   -4.2103    0.3319   -1.1685 C   0  0  0  0  0  0  0  0  0  0  0  0
   -1.3593    1.2276   -0.0690 H   0  0  0  0  0  0  0  0  0  0  0  0
   -3.5265    1.3903    0.5422 H   0  0  0  0  0  0  0  0  0  0  0  0
   -4.1404   -0.6504   -1.6445 H   0  0  0  0  0  0  0  0  0  0  0  0
   -5.2579    0.5051   -0.9020 H   0  0  0  0  0  0  0  0  0  0  0  0
   -3.9093    1.0934   -1.8940 H   0  0  0  0  0  0  0  0  0  0  0  0
   -3.6395   -1.9867    0.8963 N   0  0  0  0  0  0  0  0  0  0  0  0
   -3.9066   -3.0169    1.8908 C   0  0  0  0  0  0  0  0  0  0  0  0
   -3.1673   -2.2429    0.0264 H   0  0  0  0  0  0  0  0  0  0  0  0
   -3.7954   -4.0100    1.4447 H   0  0  0  0  0  0  0  0  0  0  0  0
   -3.2063   -2.9304    2.7279 H   0  0  0  0  0  0  0  0  0  0  0  0
   -4.9282   -2.9253    2.2742 H   0  0  0  0  0  0  0  0  0  0  0  0
  1  2  2  0  0  0  0
  1  3  1  0  0  0  0
  1  7  1  0  0  0  0
  3  4  1  0  0  0  0
  3  5  1  0  0  0  0
  3  6  1  0  0  0  0
  7  8  1  0  0  0  0
  7 12  1  0  0  0  0
  8  9  1  0  0  0  0
  8 11  1  0  0  0  0
  8 13  1  0  0  0  0
  9 10  2  0  0  0  0
  9 17  1  0  0  0  0
 11 14  1  0  0  0  0
 11 15  1  0  0  0  0
 11 16  1  0  0  0  0
 17 18  1  0  0  0  0
 17 23  1  0  0  0  0
 18 19  1  0  0  0  0
 18 21  1  0  0  0  0
 18 24  1  0  0  0  0
 19 20  2  0  0  0  0
 19 28  1  0  0  0  0
 21 22  1  0  0  0  0
 21 25  1  0  0  0  0
 21 26  1  0  0  0  0
 22 27  1  0  0  0  0
 28 29  1  0  0  0  0
 28 33  1  0  0  0  0
 29 30  1  0  0  0  0
 29 32  1  0  0  0  0
 29 34  1  0  0  0  0
 30 31  2  0  0  0  0
 30 38  1  0  0  0  0
 32 35  1  0  0  0  0
 32 36  1  0  0  0  0
 32 37  1  0  0  0  0
 38 39  1  0  0  0  0
 38 40  1  0  0  0  0
 39 41  1  0  0  0  0
 39 42  1  0  0  0  0
 39 43  1  0  0  0  0
M  END
$$$$

  -OEChem-05262217303D

 43 42  0     1  0  0  0  0  0999 V2000
    3.2985   -2.2063    3.8217 C   0  0  0  0  0  0  0  0  0  0  0  0
    2.3477   -2.2548    4.5862 O   0  0  0  0  0  0  0  0  0  0  0  0
    4.5430   -3.0286    4.0985 C   0  0  0  0  0  0  0  0  0  0  0  0
    5.4077   -2.3700    4.2113 H   0  0  0  0  0  0  0  0  0  0  0  0
    4.4166   -3.6053    5.0191 H   0  0  0  0  0  0  0  0  0  0  0  0
    4.7256   -3.7199    3.2719 H   0  0  0  0  0  0  0  0  0  0  0  0
    3.2418   -1.4040    2.7022 N   0  0  0  0  0  0  0  0  0  0  0  0
    2.0364   -0.6976    2.2507 C   0  0  2  0  0  0  0  0  0  0  0  0
    2.0136   -0.5445    0.7140 C   0  0  0  0  0  0  0  0  0  0  0  0
    3.0342   -0.7522    0.0695 O   0  0  0  0  0  0  0  0  0  0  0  0
    1.9902    0.6709    2.9390 C   0  0  0  0  0  0  0  0  0  0  0  0
    3.9976   -1.4950    2.0233 H   0  0  0  0  0  0  0  0  0  0  0  0
    1.1483   -1.2743    2.5319 H   0  0  0  0  0  0  0  0  0  0  0  0
    2.8649    1.2678    2.6616 H   0  0  0  0  0  0  0  0  0  0  0  0
    1.0874    1.2181    2.6530 H   0  0  0  0  0  0  0  0  0  0  0  0
    1.9842    0.5472    4.0268 H   0  0  0  0  0  0  0  0  0  0  0  0
    0.8902   -0.0277    0.0869 N   0  0  0  0  0  0  0  0  0  0  0  0
    0.3631   -0.4555   -1.2366 C   0  0  2  0  0  0  0  0  0  0  0  0
   -1.1716   -0.6168   -1.1326 C   0  0  0  0  0  0  0  0  0  0  0  0
   -1.7353   -1.7045   -1.2076 O   0  0  0  0  0  0  0  0  0  0  0  0
    0.9909   -1.7439   -1.8323 C   0  0  0  0  0  0  0  0  0  0  0  0
    0.6774   -2.8982   -1.0425 O   0  0  0  0  0  0  0  0  0  0  0  0
    0.1670    0.2003    0.7653 H   0  0  0  0  0  0  0  0  0  0  0  0
    0.5674    0.3465   -1.9515 H   0  0  0  0  0  0  0  0  0  0  0  0
    2.0726   -1.6443   -1.9499 H   0  0  0  0  0  0  0  0  0  0  0  0
    0.5861   -1.8958   -2.8385 H   0  0  0  0  0  0  0  0  0  0  0  0
   -0.2978   -2.9961   -1.0011 H   0  0  0  0  0  0  0  0  0  0  0  0
   -1.9054    0.5046   -0.7775 N   0  0  0  0  0  0  0  0  0  0  0  0
   -3.3249    0.5440   -0.3732 C   0  0  2  0  0  0  0  0  0  0  0  0
   -3.5927   -0.1890    0.9604 C   0  0  0  0  0  0  0  0  0  0  0  0
   -3.7955    0.4697    1.9707 O   0  0  0  0  0  0  0  0  0  0  0  0
   -4.2542    0.0522   -1.4935 C   0  0  0  0  0  0  0  0  0  0  0  0
   -1.3767    1.3685   -0.6847 H   0  0  0  0  0  0  0  0  0  0  0  0
   -3.5803    1.5945   -0.1980 H   0  0  0  0  0  0  0  0  0  0  0  0
   -4.1414   -1.0211   -1.6704 H   0  0  0  0  0  0  0  0  0  0  0  0
   -5.2977    0.2423   -1.2228 H   0  0  0  0  0  0  0  0  0  0  0  0
   -4.0374    0.5821   -2.4259 H   0  0  0  0  0  0  0  0  0  0  0  0
   -3.4823   -1.5625    1.0522 N   0  0  0  0  0  0  0  0  0  0  0  0
   -3.5232   -2.2906    2.3135 C   0  0  0  0  0  0  0  0  0  0  0  0
   -3.1073   -2.0311    0.2244 H   0  0  0  0  0  0  0  0  0  0  0  0
   -3.5164   -3.3688    2.1268 H   0  0  0  0  0  0  0  0  0  0  0  0
   -2.6543   -2.0379    2.9299 H   0  0  0  0  0  0  0  0  0  0  0  0
   -4.4339   -2.0449    2.8697 H   0  0  0  0  0  0  0  0  0  0  0  0
  1  2  2  0  0  0  0
  1  3  1  0  0  0  0
  1  7  1  0  0  0  0
  3  4  1  0  0  0  0
  3  5  1  0  0  0  0
  3  6  1  0  0  0  0
  7  8  1  0  0  0  0
  7 12  1  0  0  0  0
  8  9  1  0  0  0  0
  8 11  1  0  0  0  0
  8 13  1  0  0  0  0
  9 10  2  0  0  0  0
  9 17  1  0  0  0  0
 11 14  1  0  0  0  0
 11 15  1  0  0  0  0
 11 16  1  0  0  0  0
 17 18  1  0  0  0  0
 17 23  1  0  0  0  0
 18 19  1  0  0  0  0
 18 21  1  0  0  0  0
 18 24  1  0  0  0  0
 19 20  2  0  0  0  0
 19 28  1  0  0  0  0
 21 22  1  0  0  0  0
 21 25  1  0  0  0  0
 21 26  1  0  0  0  0
 22 27  1  0  0  0  0
 28 29  1  0  0  0  0
 28 33  1  0  0  0  0
 29 30  1  0  0  0  0
 29 32  1  0  0  0  0
 29 34  1  0  0  0  0
 30 31  2  0  0  0  0
 30 38  1  0  0  0  0
 32 35  1  0  0  0  0
 32 36  1  0  0  0  0
 32 37  1  0  0  0  0
 38 39  1  0  0  0  0
 38 40  1  0  0  0  0
 39 41  1  0  0  0  0
 39 42  1  0  0  0  0
 39 43  1  0  0  0  0
M  END
$$$$

  -OEChem-05262217303D

 43 42  0     1  0  0  0  0  0999 V2000
    2.6837   -2.2598    3.7818 C   0  0  0  0  0  0  0  0  0  0  0  0
    1.6168   -2.4138    4.3565 O   0  0  0  0  0  0  0  0  0  0  0  0
    3.8862   -3.0971    4.1750 C   0  0  0  0  0  0  0  0  0  0  0  0
    4.6802   -2.4514    4.5579 H   0  0  0  0  0  0  0  0  0  0  0  0
    3.6087   -3.8145    4.9522 H   0  0  0  0  0  0  0  0  0  0  0  0
    4.2590   -3.6457    3.3066 H   0  0  0  0  0  0  0  0  0  0  0  0
    2.8040   -1.3248    2.7762 N   0  0  0  0  0  0  0  0  0  0  0  0
    1.6722   -0.5995    2.1849 C   0  0  2  0  0  0  0  0  0  0  0  0
    1.8729   -0.3764    0.6708 C   0  0  0  0  0  0  0  0  0  0  0  0
    2.9924   -0.4791    0.1823 O   0  0  0  0  0  0  0  0  0  0  0  0
    1.5138    0.7338    2.9209 C   0  0  0  0  0  0  0  0  0  0  0  0
    3.6660   -1.3372    2.2316 H   0  0  0  0  0  0  0  0  0  0  0  0
    0.7530   -1.1846    2.3026 H   0  0  0  0  0  0  0  0  0  0  0  0
    2.4110    1.3488    2.7993 H   0  0  0  0  0  0  0  0  0  0  0  0
    0.6540    1.2873    2.5317 H   0  0  0  0  0  0  0  0  0  0  0  0
    1.3527    0.5575    3.9889 H   0  0  0  0  0  0  0  0  0  0  0  0
    0.7973    0.0303   -0.0979 N   0  0  0  0  0  0  0  0  0  0  0  0
    0.5265   -0.3165   -1.5149 C   0  0  2  0  0  0  0  0  0  0  0  0
   -0.9679   -0.6884   -1.6185 C   0  0  0  0  0  0  0  0  0  0  0  0
   -1.3582   -1.8419   -1.4682 O   0  0  0  0  0  0  0  0  0  0  0  0
    1.4007   -1.4403   -2.1293 C   0  0  0  0  0  0  0  0  0  0  0  0
    1.1589   -2.7123   -1.5144 O   0  0  0  0  0  0  0  0  0  0  0  0
   -0.0457    0.1587    0.4730 H   0  0  0  0  0  0  0  0  0  0  0  0
    0.7019    0.5769   -2.1197 H   0  0  0  0  0  0  0  0  0  0  0  0
    2.4634   -1.1894   -2.0803 H   0  0  0  0  0  0  0  0  0  0  0  0
    1.1516   -1.5247   -3.1920 H   0  0  0  0  0  0  0  0  0  0  0  0
    0.1878   -2.8496   -1.4367 H   0  0  0  0  0  0  0  0  0  0  0  0
   -1.8850    0.3508   -1.5744 N   0  0  0  0  0  0  0  0  0  0  0  0
   -3.1127    0.2571   -0.7594 C   0  0  2  0  0  0  0  0  0  0  0  0
   -2.7781   -0.1016    0.7134 C   0  0  0  0  0  0  0  0  0  0  0  0
   -1.7755    0.3912    1.2270 O   0  0  0  0  0  0  0  0  0  0  0  0
   -4.1594   -0.6685   -1.4043 C   0  0  0  0  0  0  0  0  0  0  0  0
   -1.4463    1.2682   -1.5766 H   0  0  0  0  0  0  0  0  0  0  0  0
   -3.5609    1.2550   -0.7305 H   0  0  0  0  0  0  0  0  0  0  0  0
   -3.8652   -1.7197   -1.3348 H   0  0  0  0  0  0  0  0  0  0  0  0
   -5.1267   -0.5505   -0.9065 H   0  0  0  0  0  0  0  0  0  0  0  0
   -4.2850   -0.4151   -2.4613 H   0  0  0  0  0  0  0  0  0  0  0  0
   -3.5553   -0.9700    1.4566 N   0  0  0  0  0  0  0  0  0  0  0  0
   -3.1637   -1.4451    2.7794 C   0  0  0  0  0  0  0  0  0  0  0  0
   -4.2725   -1.4843    0.9532 H   0  0  0  0  0  0  0  0  0  0  0  0
   -3.9458   -2.0863    3.1969 H   0  0  0  0  0  0  0  0  0  0  0  0
   -2.2355   -2.0235    2.7196 H   0  0  0  0  0  0  0  0  0  0  0  0
   -3.0107   -0.6031    3.4628 H   0  0  0  0  0  0  0  0  0  0  0  0
  1  2  2  0  0  0  0
  1  3  1  0  0  0  0
  1  7  1  0  0  0  0
  3  4  1  0  0  0  0
  3  5  1  0  0  0  0
  3  6  1  0  0  0  0
  7  8  1  0  0  0  0
  7 12  1  0  0  0  0
  8  9  1  0  0  0  0
  8 11  1  0  0  0  0
  8 13  1  0  0  0  0
  9 10  2  0  0  0  0
  9 17  1  0  0  0  0
 11 14  1  0  0  0  0
 11 15  1  0  0  0  0
 11 16  1  0  0  0  0
 17 18  1  0  0  0  0
 17 23  1  0  0  0  0
 18 19  1  0  0  0  0
 18 21  1  0  0  0  0
 18 24  1  0  0  0  0
 19 20  2  0  0  0  0
 19 28  1  0  0  0  0
 21 22  1  0  0  0  0
 21 25  1  0  0  0  0
 21 26  1  0  0  0  0
 22 27  1  0  0  0  0
 28 29  1  0  0  0  0
 28 33  1  0  0  0  0
 29 30  1  0  0  0  0
 29 32  1  0  0  0  0
 29 34  1  0  0  0  0
 30 31  2  0  0  0  0
 30 38  1  0  0  0  0
 32 35  1  0  0  0  0
 32 36  1  0  0  0  0
 32 37  1  0  0  0  0
 38 39  1  0  0  0  0
 38 40  1  0  0  0  0
 39 41  1  0  0  0  0
 39 42  1  0  0  0  0
 39 43  1  0  0  0  0
M  END
$$$$

  -OEChem-05262217303D

 43 42  0     1  0  0  0  0  0999 V2000
    2.7862   -2.1342    3.8654 C   0  0  0  0  0  0  0  0  0  0  0  0
    1.7384   -2.2741    4.4772 O   0  0  0  0  0  0  0  0  0  0  0  0
    4.0148   -2.9253    4.2729 C   0  0  0  0  0  0  0  0  0  0  0  0
    4.7973   -2.2451    4.6176 H   0  0  0  0  0  0  0  0  0  0  0  0
    3.7664   -3.6181    5.0819 H   0  0  0  0  0  0  0  0  0  0  0  0
    4.3890   -3.4990    3.4213 H   0  0  0  0  0  0  0  0  0  0  0  0
    2.8598   -1.2607    2.8020 N   0  0  0  0  0  0  0  0  0  0  0  0
    1.6963   -0.6063    2.1911 C   0  0  2  0  0  0  0  0  0  0  0  0
    1.8795   -0.4385    0.6676 C   0  0  0  0  0  0  0  0  0  0  0  0
    2.9956   -0.5514    0.1737 O   0  0  0  0  0  0  0  0  0  0  0  0
    1.4868    0.7511    2.8688 C   0  0  0  0  0  0  0  0  0  0  0  0
    3.7090   -1.2862    2.2381 H   0  0  0  0  0  0  0  0  0  0  0  0
    0.8029   -1.2227    2.3414 H   0  0  0  0  0  0  0  0  0  0  0  0
    2.3569    1.3957    2.7102 H   0  0  0  0  0  0  0  0  0  0  0  0
    0.6017    1.2507    2.4627 H   0  0  0  0  0  0  0  0  0  0  0  0
    1.3417    0.6184    3.9455 H   0  0  0  0  0  0  0  0  0  0  0  0
    0.7890   -0.0697   -0.0986 N   0  0  0  0  0  0  0  0  0  0  0  0
    0.5377   -0.3391   -1.5338 C   0  0  2  0  0  0  0  0  0  0  0  0
   -0.9269   -0.8028   -1.6533 C   0  0  0  0  0  0  0  0  0  0  0  0
   -1.2591   -1.9389   -1.3290 O   0  0  0  0  0  0  0  0  0  0  0  0
    1.4622   -1.3743   -2.2214 C   0  0  0  0  0  0  0  0  0  0  0  0
    1.2838   -2.6945   -1.6923 O   0  0  0  0  0  0  0  0  0  0  0  0
   -0.0596    0.0693    0.4614 H   0  0  0  0  0  0  0  0  0  0  0  0
    0.6575    0.6006   -2.0787 H   0  0  0  0  0  0  0  0  0  0  0  0
    2.5117   -1.0757   -2.1564 H   0  0  0  0  0  0  0  0  0  0  0  0
    1.2119   -1.4004   -3.2868 H   0  0  0  0  0  0  0  0  0  0  0  0
    0.3279   -2.8485   -1.5169 H   0  0  0  0  0  0  0  0  0  0  0  0
   -1.9001    0.1633   -1.8562 N   0  0  0  0  0  0  0  0  0  0  0  0
   -3.1629    0.1282   -1.0907 C   0  0  2  0  0  0  0  0  0  0  0  0
   -2.9084   -0.0100    0.4372 C   0  0  0  0  0  0  0  0  0  0  0  0
   -1.9113    0.5156    0.9302 O   0  0  0  0  0  0  0  0  0  0  0  0
   -4.1232   -0.9329   -1.6553 C   0  0  0  0  0  0  0  0  0  0  0  0
   -1.5165    1.0932   -2.0007 H   0  0  0  0  0  0  0  0  0  0  0  0
   -3.6546    1.0964   -1.2262 H   0  0  0  0  0  0  0  0  0  0  0  0
   -3.7845   -1.9460   -1.4192 H   0  0  0  0  0  0  0  0  0  0  0  0
   -5.1251   -0.7995   -1.2364 H   0  0  0  0  0  0  0  0  0  0  0  0
   -4.1918   -0.8378   -2.7434 H   0  0  0  0  0  0  0  0  0  0  0  0
   -3.7756   -0.6997    1.2642 N   0  0  0  0  0  0  0  0  0  0  0  0
   -3.4924   -0.9551    2.6726 C   0  0  0  0  0  0  0  0  0  0  0  0
   -4.5067   -1.2415    0.8127 H   0  0  0  0  0  0  0  0  0  0  0  0
   -4.3135   -1.5176    3.1275 H   0  0  0  0  0  0  0  0  0  0  0  0
   -2.5718   -1.5389    2.7796 H   0  0  0  0  0  0  0  0  0  0  0  0
   -3.3776   -0.0135    3.2197 H   0  0  0  0  0  0  0  0  0  0  0  0
  1  2  2  0  0  0  0
  1  3  1  0  0  0  0
  1  7  1  0  0  0  0
  3  4  1  0  0  0  0
  3  5  1  0  0  0  0
  3  6  1  0  0  0  0
  7  8  1  0  0  0  0
  7 12  1  0  0  0  0
  8  9  1  0  0  0  0
  8 11  1  0  0  0  0
  8 13  1  0  0  0  0
  9 10  2  0  0  0  0
  9 17  1  0  0  0  0
 11 14  1  0  0  0  0
 11 15  1  0  0  0  0
 11 16  1  0  0  0  0
 17 18  1  0  0  0  0
 17 23  1  0  0  0  0
 18 19  1  0  0  0  0
 18 21  1  0  0  0  0
 18 24  1  0  0  0  0
 19 20  2  0  0  0  0
 19 28  1  0  0  0  0
 21 22  1  0  0  0  0
 21 25  1  0  0  0  0
 21 26  1  0  0  0  0
 22 27  1  0  0  0  0
 28 29  1  0  0  0  0
 28 33  1  0  0  0  0
 29 30  1  0  0  0  0
 29 32  1  0  0  0  0
 29 34  1  0  0  0  0
 30 31  2  0  0  0  0
 30 38  1  0  0  0  0
 32 35  1  0  0  0  0
 32 36  1  0  0  0  0
 32 37  1  0  0  0  0
 38 39  1  0  0  0  0
 38 40  1  0  0  0  0
 39 41  1  0  0  0  0
 39 42  1  0  0  0  0
 39 43  1  0  0  0  0
M  END
$$$$

  -OEChem-05262217303D

 43 42  0     1  0  0  0  0  0999 V2000
    2.9985   -2.0322    3.8979 C   0  0  0  0  0  0  0  0  0  0  0  0
    1.9829   -2.1910    4.5571 O   0  0  0  0  0  0  0  0  0  0  0  0
    4.2775   -2.7465    4.2906 C   0  0  0  0  0  0  0  0  0  0  0  0
    5.0592   -2.0161    4.5119 H   0  0  0  0  0  0  0  0  0  0  0  0
    4.1086   -3.3626    5.1781 H   0  0  0  0  0  0  0  0  0  0  0  0
    4.6101   -3.3905    3.4732 H   0  0  0  0  0  0  0  0  0  0  0  0
    2.9863   -1.2104    2.7914 N   0  0  0  0  0  0  0  0  0  0  0  0
    1.7704   -0.6336    2.2034 C   0  0  2  0  0  0  0  0  0  0  0  0
    1.9077   -0.4634    0.6751 C   0  0  0  0  0  0  0  0  0  0  0  0
    3.0158   -0.5339    0.1562 O   0  0  0  0  0  0  0  0  0  0  0  0
    1.4892    0.7133    2.8776 C   0  0  0  0  0  0  0  0  0  0  0  0
    3.8159   -1.2148    2.1983 H   0  0  0  0  0  0  0  0  0  0  0  0
    0.9232   -1.3062    2.3775 H   0  0  0  0  0  0  0  0  0  0  0  0
    2.3136    1.4104    2.6974 H   0  0  0  0  0  0  0  0  0  0  0  0
    0.5664    1.1535    2.4871 H   0  0  0  0  0  0  0  0  0  0  0  0
    1.3743    0.5796    3.9580 H   0  0  0  0  0  0  0  0  0  0  0  0
    0.7868   -0.1378   -0.0672 N   0  0  0  0  0  0  0  0  0  0  0  0
    0.5294   -0.3715   -1.5068 C   0  0  2  0  0  0  0  0  0  0  0  0
   -0.9030   -0.9193   -1.6312 C   0  0  0  0  0  0  0  0  0  0  0  0
   -1.1968   -2.0043   -1.1374 O   0  0  0  0  0  0  0  0  0  0  0  0
    1.4805   -1.3488   -2.2381 C   0  0  0  0  0  0  0  0  0  0  0  0
    1.3525   -2.6906   -1.7469 O   0  0  0  0  0  0  0  0  0  0  0  0
   -0.0598   -0.0278    0.4988 H   0  0  0  0  0  0  0  0  0  0  0  0
    0.5958    0.5905   -2.0205 H   0  0  0  0  0  0  0  0  0  0  0  0
    2.5202   -1.0164   -2.1779 H   0  0  0  0  0  0  0  0  0  0  0  0
    1.2166   -1.3502   -3.3008 H   0  0  0  0  0  0  0  0  0  0  0  0
    0.4208   -2.8601   -1.4808 H   0  0  0  0  0  0  0  0  0  0  0  0
   -1.9017   -0.0798   -2.0974 N   0  0  0  0  0  0  0  0  0  0  0  0
   -3.2219   -0.0652   -1.4355 C   0  0  2  0  0  0  0  0  0  0  0  0
   -3.1026    0.0583    0.1116 C   0  0  0  0  0  0  0  0  0  0  0  0
   -2.1391    0.6437    0.6047 O   0  0  0  0  0  0  0  0  0  0  0  0
   -4.0726   -1.2647   -1.8888 C   0  0  0  0  0  0  0  0  0  0  0  0
   -1.5590    0.8323   -2.3856 H   0  0  0  0  0  0  0  0  0  0  0  0
   -3.7456    0.8355   -1.7694 H   0  0  0  0  0  0  0  0  0  0  0  0
   -3.7096   -2.1989   -1.4494 H   0  0  0  0  0  0  0  0  0  0  0  0
   -5.1162   -1.1268   -1.5902 H   0  0  0  0  0  0  0  0  0  0  0  0
   -4.0393   -1.3602   -2.9787 H   0  0  0  0  0  0  0  0  0  0  0  0
   -4.0746   -0.4500    0.9537 N   0  0  0  0  0  0  0  0  0  0  0  0
   -3.9400   -0.4614    2.4062 C   0  0  0  0  0  0  0  0  0  0  0  0
   -4.7815   -1.0442    0.5306 H   0  0  0  0  0  0  0  0  0  0  0  0
   -4.8697   -0.8075    2.8683 H   0  0  0  0  0  0  0  0  0  0  0  0
   -3.1290   -1.1321    2.7094 H   0  0  0  0  0  0  0  0  0  0  0  0
   -3.7251    0.5441    2.7837 H   0  0  0  0  0  0  0  0  0  0  0  0
  1  2  2  0  0  0  0
  1  3  1  0  0  0  0
  1  7  1  0  0  0  0
  3  4  1  0  0  0  0
  3  5  1  0  0  0  0
  3  6  1  0  0  0  0
  7  8  1  0  0  0  0
  7 12  1  0  0  0  0
  8  9  1  0  0  0  0
  8 11  1  0  0  0  0
  8 13  1  0  0  0  0
  9 10  2  0  0  0  0
  9 17  1  0  0  0  0
 11 14  1  0  0  0  0
 11 15  1  0  0  0  0
 11 16  1  0  0  0  0
 17 18  1  0  0  0  0
 17 23  1  0  0  0  0
 18 19  1  0  0  0  0
 18 21  1  0  0  0  0
 18 24  1  0  0  0  0
 19 20  2  0  0  0  0
 19 28  1  0  0  0  0
 21 22  1  0  0  0  0
 21 25  1  0  0  0  0
 21 26  1  0  0  0  0
 22 27  1  0  0  0  0
 28 29  1  0  0  0  0
 28 33  1  0  0  0  0
 29 30  1  0  0  0  0
 29 32  1  0  0  0  0
 29 34  1  0  0  0  0
 30 31  2  0  0  0  0
 30 38  1  0  0  0  0
 32 35  1  0  0  0  0
 32 36  1  0  0  0  0
 32 37  1  0  0  0  0
 38 39  1  0  0  0  0
 38 40  1  0  0  0  0
 39 41  1  0  0  0  0
 39 42  1  0  0  0  0
 39 43  1  0  0  0  0
M  END
$$$$

  -OEChem-05262217303D

 43 42  0     1  0  0  0  0  0999 V2000
    3.3016   -2.0134    3.8225 C   0  0  0  0  0  0  0  0  0  0  0  0
    2.3345   -2.0879    4.5644 O   0  0  0  0  0  0  0  0  0  0  0  0
    4.5323   -2.8602    4.0873 C   0  0  0  0  0  0  0  0  0  0  0  0
    5.4139   -2.2210    4.1774 H   0  0  0  0  0  0  0  0  0  0  0  0
    4.4093   -3.4241    5.0160 H   0  0  0  0  0  0  0  0  0  0  0  0
    4.6831   -3.5638    3.2651 H   0  0  0  0  0  0  0  0  0  0  0  0
    3.2749   -1.1674    2.7347 N   0  0  0  0  0  0  0  0  0  0  0  0
    2.0760   -0.4607    2.2666 C   0  0  2  0  0  0  0  0  0  0  0  0
    2.0702   -0.3289    0.7290 C   0  0  0  0  0  0  0  0  0  0  0  0
    3.1227   -0.4382    0.1109 O   0  0  0  0  0  0  0  0  0  0  0  0
    2.0337    0.9176    2.9331 C   0  0  0  0  0  0  0  0  0  0  0  0
    4.0477   -1.2355    2.0728 H   0  0  0  0  0  0  0  0  0  0  0  0
    1.1811   -1.0262    2.5487 H   0  0  0  0  0  0  0  0  0  0  0  0
    2.9131    1.5055    2.6513 H   0  0  0  0  0  0  0  0  0  0  0  0
    1.1358    1.4647    2.6307 H   0  0  0  0  0  0  0  0  0  0  0  0
    2.0205    0.8100    4.0224 H   0  0  0  0  0  0  0  0  0  0  0  0
    0.9028    0.0227    0.0723 N   0  0  0  0  0  0  0  0  0  0  0  0
    0.4969   -0.4103   -1.2867 C   0  0  2  0  0  0  0  0  0  0  0  0
   -0.9840   -0.8311   -1.2814 C   0  0  0  0  0  0  0  0  0  0  0  0
   -1.3671   -1.6811   -0.4835 O   0  0  0  0  0  0  0  0  0  0  0  0
    1.2815   -1.6001   -1.8915 C   0  0  0  0  0  0  0  0  0  0  0  0
    1.0516   -2.8120   -1.1563 O   0  0  0  0  0  0  0  0  0  0  0  0
    0.1202    0.1356    0.7148 H   0  0  0  0  0  0  0  0  0  0  0  0
    0.6243    0.4431   -1.9576 H   0  0  0  0  0  0  0  0  0  0  0  0
    2.3513   -1.3892   -1.9629 H   0  0  0  0  0  0  0  0  0  0  0  0
    0.9317   -1.7546   -2.9176 H   0  0  0  0  0  0  0  0  0  0  0  0
    0.1302   -2.8353   -0.8165 H   0  0  0  0  0  0  0  0  0  0  0  0
   -1.8986   -0.1767   -2.0901 N   0  0  0  0  0  0  0  0  0  0  0  0
   -3.3571   -0.2329   -1.8826 C   0  0  2  0  0  0  0  0  0  0  0  0
   -3.7512    0.2488   -0.4646 C   0  0  0  0  0  0  0  0  0  0  0  0
   -3.4003    1.3677   -0.1091 O   0  0  0  0  0  0  0  0  0  0  0  0
   -3.9130   -1.6201   -2.2491 C   0  0  0  0  0  0  0  0  0  0  0  0
   -1.5421    0.6424   -2.5753 H   0  0  0  0  0  0  0  0  0  0  0  0
   -3.8167    0.4797   -2.5747 H   0  0  0  0  0  0  0  0  0  0  0  0
   -3.5612   -2.3913   -1.5579 H   0  0  0  0  0  0  0  0  0  0  0  0
   -5.0071   -1.6072   -2.2225 H   0  0  0  0  0  0  0  0  0  0  0  0
   -3.5975   -1.8964   -3.2598 H   0  0  0  0  0  0  0  0  0  0  0  0
   -4.4435   -0.5580    0.4202 N   0  0  0  0  0  0  0  0  0  0  0  0
   -4.6684   -0.1878    1.8121 C   0  0  0  0  0  0  0  0  0  0  0  0
   -4.5211   -1.5386    0.1652 H   0  0  0  0  0  0  0  0  0  0  0  0
   -5.2751   -0.9487    2.3126 H   0  0  0  0  0  0  0  0  0  0  0  0
   -3.7146   -0.0986    2.3426 H   0  0  0  0  0  0  0  0  0  0  0  0
   -5.1977    0.7688    1.8748 H   0  0  0  0  0  0  0  0  0  0  0  0
  1  2  2  0  0  0  0
  1  3  1  0  0  0  0
  1  7  1  0  0  0  0
  3  4  1  0  0  0  0
  3  5  1  0  0  0  0
  3  6  1  0  0  0  0
  7  8  1  0  0  0  0
  7 12  1  0  0  0  0
  8  9  1  0  0  0  0
  8 11  1  0  0  0  0
  8 13  1  0  0  0  0
  9 10  2  0  0  0  0
  9 17  1  0  0  0  0
 11 14  1  0  0  0  0
 11 15  1  0  0  0  0
 11 16  1  0  0  0  0
 17 18  1  0  0  0  0
 17 23  1  0  0  0  0
 18 19  1  0  0  0  0
 18 21  1  0  0  0  0
 18 24  1  0  0  0  0
 19 20  2  0  0  0  0
 19 28  1  0  0  0  0
 21 22  1  0  0  0  0
 21 25  1  0  0  0  0
 21 26  1  0  0  0  0
 22 27  1  0  0  0  0
 28 29  1  0  0  0  0
 28 33  1  0  0  0  0
 29 30  1  0  0  0  0
 29 32  1  0  0  0  0
 29 34  1  0  0  0  0
 30 31  2  0  0  0  0
 30 38  1  0  0  0  0
 32 35  1  0  0  0  0
 32 36  1  0  0  0  0
 32 37  1  0  0  0  0
 38 39  1  0  0  0  0
 38 40  1  0  0  0  0
 39 41  1  0  0  0  0
 39 42  1  0  0  0  0
 39 43  1  0  0  0  0
M  END
$$$$

  -OEChem-05262217303D

 43 42  0     1  0  0  0  0  0999 V2000
    3.4614   -2.0636    3.8338 C   0  0  0  0  0  0  0  0  0  0  0  0
    2.5257   -2.1719    4.6109 O   0  0  0  0  0  0  0  0  0  0  0  0
    4.7553   -2.8141    4.0870 C   0  0  0  0  0  0  0  0  0  0  0  0
    5.5828   -2.1077    4.1882 H   0  0  0  0  0  0  0  0  0  0  0  0
    4.6784   -3.4005    5.0069 H   0  0  0  0  0  0  0  0  0  0  0  0
    4.9625   -3.4900    3.2537 H   0  0  0  0  0  0  0  0  0  0  0  0
    3.3453   -1.2575    2.7216 N   0  0  0  0  0  0  0  0  0  0  0  0
    2.1027   -0.6008    2.2976 C   0  0  2  0  0  0  0  0  0  0  0  0
    2.0560   -0.4125    0.7660 C   0  0  0  0  0  0  0  0  0  0  0  0
    3.0864   -0.5087    0.1101 O   0  0  0  0  0  0  0  0  0  0  0  0
    1.9969    0.7496    3.0138 C   0  0  0  0  0  0  0  0  0  0  0  0
    4.1013   -1.2900    2.0379 H   0  0  0  0  0  0  0  0  0  0  0  0
    1.2466   -1.2257    2.5753 H   0  0  0  0  0  0  0  0  0  0  0  0
    2.8374    1.3948    2.7388 H   0  0  0  0  0  0  0  0  0  0  0  0
    1.0650    1.2563    2.7466 H   0  0  0  0  0  0  0  0  0  0  0  0
    2.0088    0.6049    4.0988 H   0  0  0  0  0  0  0  0  0  0  0  0
    0.8788   -0.0087    0.1580 N   0  0  0  0  0  0  0  0  0  0  0  0
    0.4155   -0.4044   -1.1944 C   0  0  2  0  0  0  0  0  0  0  0  0
   -1.0770   -0.7797   -1.1648 C   0  0  0  0  0  0  0  0  0  0  0  0
   -1.5032   -1.4543   -0.2332 O   0  0  0  0  0  0  0  0  0  0  0  0
    1.1269   -1.6259   -1.8230 C   0  0  0  0  0  0  0  0  0  0  0  0
    0.8526   -2.8292   -1.0875 O   0  0  0  0  0  0  0  0  0  0  0  0
    0.1199    0.0769    0.8317 H   0  0  0  0  0  0  0  0  0  0  0  0
    0.5609    0.4516   -1.8591 H   0  0  0  0  0  0  0  0  0  0  0  0
    2.2042   -1.4697   -1.9160 H   0  0  0  0  0  0  0  0  0  0  0  0
    0.7486   -1.7564   -2.8426 H   0  0  0  0  0  0  0  0  0  0  0  0
   -0.0553   -2.8211   -0.7199 H   0  0  0  0  0  0  0  0  0  0  0  0
   -1.9389   -0.3131   -2.1441 N   0  0  0  0  0  0  0  0  0  0  0  0
   -3.3933   -0.5622   -2.2422 C   0  0  2  0  0  0  0  0  0  0  0  0
   -4.2355    0.1022   -1.1286 C   0  0  0  0  0  0  0  0  0  0  0  0
   -5.1151    0.8951   -1.4345 O   0  0  0  0  0  0  0  0  0  0  0  0
   -3.6996   -2.0639   -2.3440 C   0  0  0  0  0  0  0  0  0  0  0  0
   -1.5282    0.2885   -2.8537 H   0  0  0  0  0  0  0  0  0  0  0  0
   -3.7288   -0.1097   -3.1816 H   0  0  0  0  0  0  0  0  0  0  0  0
   -3.4799   -2.5832   -1.4069 H   0  0  0  0  0  0  0  0  0  0  0  0
   -4.7595   -2.2142   -2.5728 H   0  0  0  0  0  0  0  0  0  0  0  0
   -3.1060   -2.5197   -3.1422 H   0  0  0  0  0  0  0  0  0  0  0  0
   -3.9994   -0.1645    0.2054 N   0  0  0  0  0  0  0  0  0  0  0  0
   -4.7469    0.4351    1.3022 C   0  0  0  0  0  0  0  0  0  0  0  0
   -3.2323   -0.8086    0.4108 H   0  0  0  0  0  0  0  0  0  0  0  0
   -4.3567    0.0821    2.2617 H   0  0  0  0  0  0  0  0  0  0  0  0
   -4.6607    1.5264    1.2741 H   0  0  0  0  0  0  0  0  0  0  0  0
   -5.8055    0.1628    1.2379 H   0  0  0  0  0  0  0  0  0  0  0  0
  1  2  2  0  0  0  0
  1  3  1  0  0  0  0
  1  7  1  0  0  0  0
  3  4  1  0  0  0  0
  3  5  1  0  0  0  0
  3  6  1  0  0  0  0
  7  8  1  0  0  0  0
  7 12  1  0  0  0  0
  8  9  1  0  0  0  0
  8 11  1  0  0  0  0
  8 13  1  0  0  0  0
  9 10  2  0  0  0  0
  9 17  1  0  0  0  0
 11 14  1  0  0  0  0
 11 15  1  0  0  0  0
 11 16  1  0  0  0  0
 17 18  1  0  0  0  0
 17 23  1  0  0  0  0
 18 19  1  0  0  0  0
 18 21  1  0  0  0  0
 18 24  1  0  0  0  0
 19 20  2  0  0  0  0
 19 28  1  0  0  0  0
 21 22  1  0  0  0  0
 21 25  1  0  0  0  0
 21 26  1  0  0  0  0
 22 27  1  0  0  0  0
 28 29  1  0  0  0  0
 28 33  1  0  0  0  0
 29 30  1  0  0  0  0
 29 32  1  0  0  0  0
 29 34  1  0  0  0  0
 30 31  2  0  0  0  0
 30 38  1  0  0  0  0
 32 35  1  0  0  0  0
 32 36  1  0  0  0  0
 32 37  1  0  0  0  0
 38 39  1  0  0  0  0
 38 40  1  0  0  0  0
 39 41  1  0  0  0  0
 39 42  1  0  0  0  0
 39 43  1  0  0  0  0
M  END
$$$$

  -OEChem-05262217303D

 43 42  0     1  0  0  0  0  0999 V2000
    3.4677   -2.0532    3.7931 C   0  0  0  0  0  0  0  0  0  0  0  0
    2.5331   -2.1624    4.5713 O   0  0  0  0  0  0  0  0  0  0  0  0
    4.7430   -2.8443    4.0154 C   0  0  0  0  0  0  0  0  0  0  0  0
    5.5779   -2.1627    4.1956 H   0  0  0  0  0  0  0  0  0  0  0  0
    4.6322   -3.5035    4.8810 H   0  0  0  0  0  0  0  0  0  0  0  0
    4.9624   -3.4532    3.1348 H   0  0  0  0  0  0  0  0  0  0  0  0
    3.3660   -1.2121    2.7059 N   0  0  0  0  0  0  0  0  0  0  0  0
    2.1339   -0.5243    2.3010 C   0  0  2  0  0  0  0  0  0  0  0  0
    2.0643   -0.3498    0.7690 C   0  0  0  0  0  0  0  0  0  0  0  0
    3.0900   -0.4318    0.1036 O   0  0  0  0  0  0  0  0  0  0  0  0
    2.0867    0.8344    3.0066 C   0  0  0  0  0  0  0  0  0  0  0  0
    4.1194   -1.2407    2.0194 H   0  0  0  0  0  0  0  0  0  0  0  0
    1.2640   -1.1190    2.6012 H   0  0  0  0  0  0  0  0  0  0  0  0
    2.9479    1.4458    2.7175 H   0  0  0  0  0  0  0  0  0  0  0  0
    1.1715    1.3733    2.7445 H   0  0  0  0  0  0  0  0  0  0  0  0
    2.1055    0.6970    4.0926 H   0  0  0  0  0  0  0  0  0  0  0  0
    0.8741    0.0246    0.1676 N   0  0  0  0  0  0  0  0  0  0  0  0
    0.4047   -0.3983   -1.1749 C   0  0  2  0  0  0  0  0  0  0  0  0
   -1.0803   -0.8015   -1.1350 C   0  0  0  0  0  0  0  0  0  0  0  0
   -1.5434   -1.2719   -0.1016 O   0  0  0  0  0  0  0  0  0  0  0  0
    1.1310   -1.6235   -1.7798 C   0  0  0  0  0  0  0  0  0  0  0  0
    0.8768   -2.8167   -1.0190 O   0  0  0  0  0  0  0  0  0  0  0  0
    0.1165    0.0947    0.8457 H   0  0  0  0  0  0  0  0  0  0  0  0
    0.5294    0.4481   -1.8560 H   0  0  0  0  0  0  0  0  0  0  0  0
    2.2058   -1.4536   -1.8799 H   0  0  0  0  0  0  0  0  0  0  0  0
    0.7545   -1.7818   -2.7956 H   0  0  0  0  0  0  0  0  0  0  0  0
   -0.0353   -2.8386   -0.6693 H   0  0  0  0  0  0  0  0  0  0  0  0
   -1.8841   -0.6348   -2.2513 N   0  0  0  0  0  0  0  0  0  0  0  0
   -3.3089   -1.0047   -2.3865 C   0  0  2  0  0  0  0  0  0  0  0  0
   -4.2758   -0.1675   -1.5178 C   0  0  0  0  0  0  0  0  0  0  0  0
   -5.1580    0.4837   -2.0602 O   0  0  0  0  0  0  0  0  0  0  0  0
   -3.5190   -2.5085   -2.1578 C   0  0  0  0  0  0  0  0  0  0  0  0
   -1.4448   -0.2011   -3.0594 H   0  0  0  0  0  0  0  0  0  0  0  0
   -3.5905   -0.8040   -3.4255 H   0  0  0  0  0  0  0  0  0  0  0  0
   -3.3505   -2.7821   -1.1126 H   0  0  0  0  0  0  0  0  0  0  0  0
   -4.5449   -2.7862   -2.4186 H   0  0  0  0  0  0  0  0  0  0  0  0
   -2.8351   -3.0880   -2.7850 H   0  0  0  0  0  0  0  0  0  0  0  0
   -4.1470   -0.1214   -0.1441 N   0  0  0  0  0  0  0  0  0  0  0  0
   -4.9952    0.6809    0.7267 C   0  0  0  0  0  0  0  0  0  0  0  0
   -3.3525   -0.6279    0.2536 H   0  0  0  0  0  0  0  0  0  0  0  0
   -4.7384    0.4996    1.7749 H   0  0  0  0  0  0  0  0  0  0  0  0
   -4.8620    1.7469    0.5144 H   0  0  0  0  0  0  0  0  0  0  0  0
   -6.0490    0.4208    0.5807 H   0  0  0  0  0  0  0  0  0  0  0  0
  1  2  2  0  0  0  0
  1  3  1  0  0  0  0
  1  7  1  0  0  0  0
  3  4  1  0  0  0  0
  3  5  1  0  0  0  0
  3  6  1  0  0  0  0
  7  8  1  0  0  0  0
  7 12  1  0  0  0  0
  8  9  1  0  0  0  0
  8 11  1  0  0  0  0
  8 13  1  0  0  0  0
  9 10  2  0  0  0  0
  9 17  1  0  0  0  0
 11 14  1  0  0  0  0
 11 15  1  0  0  0  0
 11 16  1  0  0  0  0
 17 18  1  0  0  0  0
 17 23  1  0  0  0  0
 18 19  1  0  0  0  0
 18 21  1  0  0  0  0
 18 24  1  0  0  0  0
 19 20  2  0  0  0  0
 19 28  1  0  0  0  0
 21 22  1  0  0  0  0
 21 25  1  0  0  0  0
 21 26  1  0  0  0  0
 22 27  1  0  0  0  0
 28 29  1  0  0  0  0
 28 33  1  0  0  0  0
 29 30  1  0  0  0  0
 29 32  1  0  0  0  0
 29 34  1  0  0  0  0
 30 31  2  0  0  0  0
 30 38  1  0  0  0  0
 32 35  1  0  0  0  0
 32 36  1  0  0  0  0
 32 37  1  0  0  0  0
 38 39  1  0  0  0  0
 38 40  1  0  0  0  0
 39 41  1  0  0  0  0
 39 42  1  0  0  0  0
 39 43  1  0  0  0  0
M  END
$$$$

  -OEChem-05262217303D

 43 42  0     1  0  0  0  0  0999 V2000
    3.5880   -1.8359    4.1030 C   0  0  0  0  0  0  0  0  0  0  0  0
    2.7453   -1.6405    4.9640 O   0  0  0  0  0  0  0  0  0  0  0  0
    4.8500   -2.6105    4.4321 C   0  0  0  0  0  0  0  0  0  0  0  0
    5.7237   -1.9642    4.3182 H   0  0  0  0  0  0  0  0  0  0  0  0
    4.8116   -2.9720    5.4633 H   0  0  0  0  0  0  0  0  0  0  0  0
    4.9484   -3.4680    3.7619 H   0  0  0  0  0  0  0  0  0  0  0  0
    3.3959   -1.3477    2.8278 N   0  0  0  0  0  0  0  0  0  0  0  0
    2.1733   -0.6728    2.3701 C   0  0  2  0  0  0  0  0  0  0  0  0
    1.9549   -0.8386    0.8492 C   0  0  0  0  0  0  0  0  0  0  0  0
    2.8316   -1.3650    0.1725 O   0  0  0  0  0  0  0  0  0  0  0  0
    2.2741    0.8114    2.7401 C   0  0  0  0  0  0  0  0  0  0  0  0
    4.0660   -1.6268    2.1124 H   0  0  0  0  0  0  0  0  0  0  0  0
    1.3050   -1.1122    2.8738 H   0  0  0  0  0  0  0  0  0  0  0  0
    3.1345    1.2717    2.2439 H   0  0  0  0  0  0  0  0  0  0  0  0
    1.3689    1.3468    2.4391 H   0  0  0  0  0  0  0  0  0  0  0  0
    2.3949    0.9253    3.8221 H   0  0  0  0  0  0  0  0  0  0  0  0
    0.7491   -0.4453    0.2898 N   0  0  0  0  0  0  0  0  0  0  0  0
    0.2604   -0.5637   -1.1093 C   0  0  2  0  0  0  0  0  0  0  0  0
   -1.1951   -1.0769   -1.1467 C   0  0  0  0  0  0  0  0  0  0  0  0
   -1.7694   -1.3259   -0.0904 O   0  0  0  0  0  0  0  0  0  0  0  0
    1.1260   -1.3435   -2.1158 C   0  0  0  0  0  0  0  0  0  0  0  0
    1.1931   -2.7230   -1.7640 O   0  0  0  0  0  0  0  0  0  0  0  0
    0.0213   -0.2387    0.9737 H   0  0  0  0  0  0  0  0  0  0  0  0
    0.2223    0.4594   -1.4935 H   0  0  0  0  0  0  0  0  0  0  0  0
    2.1305   -0.9130   -2.1760 H   0  0  0  0  0  0  0  0  0  0  0  0
    0.6884   -1.2584   -3.1155 H   0  0  0  0  0  0  0  0  0  0  0  0
    1.7918   -2.8089   -0.9925 H   0  0  0  0  0  0  0  0  0  0  0  0
   -1.9358   -0.9659   -2.3143 N   0  0  0  0  0  0  0  0  0  0  0  0
   -3.3556   -1.3269   -2.5103 C   0  0  2  0  0  0  0  0  0  0  0  0
   -4.3645   -0.3795   -1.8214 C   0  0  0  0  0  0  0  0  0  0  0  0
   -5.2145    0.1872   -2.4953 O   0  0  0  0  0  0  0  0  0  0  0  0
   -3.6178   -2.7898   -2.1242 C   0  0  0  0  0  0  0  0  0  0  0  0
   -1.4050   -0.7382   -3.1499 H   0  0  0  0  0  0  0  0  0  0  0  0
   -3.5555   -1.2464   -3.5839 H   0  0  0  0  0  0  0  0  0  0  0  0
   -3.5385   -2.9375   -1.0433 H   0  0  0  0  0  0  0  0  0  0  0  0
   -4.6257   -3.0836   -2.4344 H   0  0  0  0  0  0  0  0  0  0  0  0
   -2.8980   -3.4492   -2.6187 H   0  0  0  0  0  0  0  0  0  0  0  0
   -4.3154   -0.1456   -0.4620 N   0  0  0  0  0  0  0  0  0  0  0  0
   -5.2134    0.7564    0.2454 C   0  0  0  0  0  0  0  0  0  0  0  0
   -3.5510   -0.5988    0.0452 H   0  0  0  0  0  0  0  0  0  0  0  0
   -4.9978    0.7382    1.3181 H   0  0  0  0  0  0  0  0  0  0  0  0
   -5.0891    1.7821   -0.1167 H   0  0  0  0  0  0  0  0  0  0  0  0
   -6.2555    0.4540    0.0975 H   0  0  0  0  0  0  0  0  0  0  0  0
  1  2  2  0  0  0  0
  1  3  1  0  0  0  0
  1  7  1  0  0  0  0
  3  4  1  0  0  0  0
  3  5  1  0  0  0  0
  3  6  1  0  0  0  0
  7  8  1  0  0  0  0
  7 12  1  0  0  0  0
  8  9  1  0  0  0  0
  8 11  1  0  0  0  0
  8 13  1  0  0  0  0
  9 10  2  0  0  0  0
  9 17  1  0  0  0  0
 11 14  1  0  0  0  0
 11 15  1  0  0  0  0
 11 16  1  0  0  0  0
 17 18  1  0  0  0  0
 17 23  1  0  0  0  0
 18 19  1  0  0  0  0
 18 21  1  0  0  0  0
 18 24  1  0  0  0  0
 19 20  2  0  0  0  0
 19 28  1  0  0  0  0
 21 22  1  0  0  0  0
 21 25  1  0  0  0  0
 21 26  1  0  0  0  0
 22 27  1  0  0  0  0
 28 29  1  0  0  0  0
 28 33  1  0  0  0  0
 29 30  1  0  0  0  0
 29 32  1  0  0  0  0
 29 34  1  0  0  0  0
 30 31  2  0  0  0  0
 30 38  1  0  0  0  0
 32 35  1  0  0  0  0
 32 36  1  0  0  0  0
 32 37  1  0  0  0  0
 38 39  1  0  0  0  0
 38 40  1  0  0  0  0
 39 41  1  0  0  0  0
 39 42  1  0  0  0  0
 39 43  1  0  0  0  0
M  END
$$$$

  -OEChem-05262217303D

 43 42  0     1  0  0  0  0  0999 V2000
    3.5980   -1.8954    3.8510 C   0  0  0  0  0  0  0  0  0  0  0  0
    2.6950   -1.9972    4.6664 O   0  0  0  0  0  0  0  0  0  0  0  0
    4.9007   -2.6452    4.0570 C   0  0  0  0  0  0  0  0  0  0  0  0
    5.7240   -1.9364    4.1743 H   0  0  0  0  0  0  0  0  0  0  0  0
    4.8403   -3.2681    4.9538 H   0  0  0  0  0  0  0  0  0  0  0  0
    5.1019   -3.2871    3.1959 H   0  0  0  0  0  0  0  0  0  0  0  0
    3.4358   -1.1017    2.7360 N   0  0  0  0  0  0  0  0  0  0  0  0
    2.1685   -0.4728    2.3424 C   0  0  2  0  0  0  0  0  0  0  0  0
    2.0363   -0.3907    0.8071 C   0  0  0  0  0  0  0  0  0  0  0  0
    3.0325   -0.5176    0.1035 O   0  0  0  0  0  0  0  0  0  0  0  0
    2.1073    0.9240    2.9679 C   0  0  0  0  0  0  0  0  0  0  0  0
    4.1630   -1.1447    2.0227 H   0  0  0  0  0  0  0  0  0  0  0  0
    1.3278   -1.0712    2.7106 H   0  0  0  0  0  0  0  0  0  0  0  0
    2.9355    1.5413    2.6052 H   0  0  0  0  0  0  0  0  0  0  0  0
    1.1651    1.4196    2.7147 H   0  0  0  0  0  0  0  0  0  0  0  0
    2.1758    0.8536    4.0583 H   0  0  0  0  0  0  0  0  0  0  0  0
    0.8214   -0.0685    0.2286 N   0  0  0  0  0  0  0  0  0  0  0  0
    0.3578   -0.4596   -1.1225 C   0  0  2  0  0  0  0  0  0  0  0  0
   -1.1799   -0.5899   -1.1471 C   0  0  0  0  0  0  0  0  0  0  0  0
   -1.8183   -0.4008   -0.1171 O   0  0  0  0  0  0  0  0  0  0  0  0
    0.9165   -1.8230   -1.6060 C   0  0  0  0  0  0  0  0  0  0  0  0
    0.4254   -2.9143   -0.8101 O   0  0  0  0  0  0  0  0  0  0  0  0
    0.0614    0.0389    0.9015 H   0  0  0  0  0  0  0  0  0  0  0  0
    0.6604    0.3169   -1.8305 H   0  0  0  0  0  0  0  0  0  0  0  0
    2.0084   -1.8314   -1.6108 H   0  0  0  0  0  0  0  0  0  0  0  0
    0.6136   -1.9870   -2.6449 H   0  0  0  0  0  0  0  0  0  0  0  0
   -0.5472   -2.9507   -0.7880 H   0  0  0  0  0  0  0  0  0  0  0  0
   -1.8436   -0.9467   -2.3117 N   0  0  0  0  0  0  0  0  0  0  0  0
   -3.2986   -1.1413   -2.4871 C   0  0  2  0  0  0  0  0  0  0  0  0
   -4.1431    0.1457   -2.3372 C   0  0  0  0  0  0  0  0  0  0  0  0
   -4.8260    0.5266   -3.2781 O   0  0  0  0  0  0  0  0  0  0  0  0
   -3.8263   -2.2607   -1.5779 C   0  0  0  0  0  0  0  0  0  0  0  0
   -1.2669   -1.0303   -3.1453 H   0  0  0  0  0  0  0  0  0  0  0  0
   -3.4492   -1.4790   -3.5180 H   0  0  0  0  0  0  0  0  0  0  0  0
   -3.8033   -1.9660   -0.5249 H   0  0  0  0  0  0  0  0  0  0  0  0
   -4.8623   -2.4965   -1.8406 H   0  0  0  0  0  0  0  0  0  0  0  0
   -3.2248   -3.1663   -1.7004 H   0  0  0  0  0  0  0  0  0  0  0  0
   -4.1189    0.8875   -1.1731 N   0  0  0  0  0  0  0  0  0  0  0  0
   -4.8350    2.1426   -0.9919 C   0  0  0  0  0  0  0  0  0  0  0  0
   -3.4719    0.5693   -0.4473 H   0  0  0  0  0  0  0  0  0  0  0  0
   -4.6847    2.5175    0.0249 H   0  0  0  0  0  0  0  0  0  0  0  0
   -4.4720    2.8972   -1.6976 H   0  0  0  0  0  0  0  0  0  0  0  0
   -5.9086    1.9971   -1.1508 H   0  0  0  0  0  0  0  0  0  0  0  0
  1  2  2  0  0  0  0
  1  3  1  0  0  0  0
  1  7  1  0  0  0  0
  3  4  1  0  0  0  0
  3  5  1  0  0  0  0
  3  6  1  0  0  0  0
  7  8  1  0  0  0  0
  7 12  1  0  0  0  0
  8  9  1  0  0  0  0
  8 11  1  0  0  0  0
  8 13  1  0  0  0  0
  9 10  2  0  0  0  0
  9 17  1  0  0  0  0
 11 14  1  0  0  0  0
 11 15  1  0  0  0  0
 11 16  1  0  0  0  0
 17 18  1  0  0  0  0
 17 23  1  0  0  0  0
 18 19  1  0  0  0  0
 18 21  1  0  0  0  0
 18 24  1  0  0  0  0
 19 20  2  0  0  0  0
 19 28  1  0  0  0  0
 21 22  1  0  0  0  0
 21 25  1  0  0  0  0
 21 26  1  0  0  0  0
 22 27  1  0  0  0  0
 28 29  1  0  0  0  0
 28 33  1  0  0  0  0
 29 30  1  0  0  0  0
 29 32  1  0  0  0  0
 29 34  1  0  0  0  0
 30 31  2  0  0  0  0
 30 38  1  0  0  0  0
 32 35  1  0  0  0  0
 32 36  1  0  0  0  0
 32 37  1  0  0  0  0
 38 39  1  0  0  0  0
 38 40  1  0  0  0  0
 39 41  1  0  0  0  0
 39 42  1  0  0  0  0
 39 43  1  0  0  0  0
M  END
$$$$

  -OEChem-05262217303D

 43 42  0     1  0  0  0  0  0999 V2000
    3.6696   -1.8672    3.8498 C   0  0  0  0  0  0  0  0  0  0  0  0
    2.7769   -2.0102    4.6703 O   0  0  0  0  0  0  0  0  0  0  0  0
    5.0065   -2.5558    4.0483 C   0  0  0  0  0  0  0  0  0  0  0  0
    5.7934   -1.8089    4.1785 H   0  0  0  0  0  0  0  0  0  0  0  0
    4.9745   -3.1942    4.9356 H   0  0  0  0  0  0  0  0  0  0  0  0
    5.2405   -3.1743    3.1783 H   0  0  0  0  0  0  0  0  0  0  0  0
    3.4657   -1.0827    2.7352 N   0  0  0  0  0  0  0  0  0  0  0  0
    2.1699   -0.5108    2.3481 C   0  0  2  0  0  0  0  0  0  0  0  0
    2.0302   -0.4295    0.8130 C   0  0  0  0  0  0  0  0  0  0  0  0
    3.0257   -0.5414    0.1059 O   0  0  0  0  0  0  0  0  0  0  0  0
    2.0458    0.8781    2.9816 C   0  0  0  0  0  0  0  0  0  0  0  0
    4.1886   -1.0974    2.0162 H   0  0  0  0  0  0  0  0  0  0  0  0
    1.3592   -1.1502    2.7146 H   0  0  0  0  0  0  0  0  0  0  0  0
    2.8424    1.5355    2.6188 H   0  0  0  0  0  0  0  0  0  0  0  0
    1.0804    1.3296    2.7346 H   0  0  0  0  0  0  0  0  0  0  0  0
    2.1227    0.8056    4.0712 H   0  0  0  0  0  0  0  0  0  0  0  0
    0.8077   -0.1256    0.2403 N   0  0  0  0  0  0  0  0  0  0  0  0
    0.3377   -0.5029   -1.1131 C   0  0  2  0  0  0  0  0  0  0  0  0
   -1.2009   -0.6567   -1.1102 C   0  0  0  0  0  0  0  0  0  0  0  0
   -1.8403   -0.2377   -0.1513 O   0  0  0  0  0  0  0  0  0  0  0  0
    0.9319   -1.8390   -1.6315 C   0  0  0  0  0  0  0  0  0  0  0  0
    0.4835   -2.9597   -0.8511 O   0  0  0  0  0  0  0  0  0  0  0  0
    0.0519    0.0055    0.9138 H   0  0  0  0  0  0  0  0  0  0  0  0
    0.6099    0.2951   -1.8100 H   0  0  0  0  0  0  0  0  0  0  0  0
    2.0230   -1.8134   -1.6467 H   0  0  0  0  0  0  0  0  0  0  0  0
    0.6275   -1.9905   -2.6717 H   0  0  0  0  0  0  0  0  0  0  0  0
   -0.4859   -3.0478   -0.8489 H   0  0  0  0  0  0  0  0  0  0  0  0
   -1.8688   -1.2920   -2.1488 N   0  0  0  0  0  0  0  0  0  0  0  0
   -3.3214   -1.5470   -2.2565 C   0  0  2  0  0  0  0  0  0  0  0  0
   -4.1902   -0.2786   -2.4202 C   0  0  0  0  0  0  0  0  0  0  0  0
   -4.9398   -0.1881   -3.3825 O   0  0  0  0  0  0  0  0  0  0  0  0
   -3.8276   -2.4154   -1.0954 C   0  0  0  0  0  0  0  0  0  0  0  0
   -1.3002   -1.5480   -2.9525 H   0  0  0  0  0  0  0  0  0  0  0  0
   -3.4724   -2.1308   -3.1708 H   0  0  0  0  0  0  0  0  0  0  0  0
   -3.8088   -1.8687   -0.1481 H   0  0  0  0  0  0  0  0  0  0  0  0
   -4.8600   -2.7260   -1.2857 H   0  0  0  0  0  0  0  0  0  0  0  0
   -3.2115   -3.3137   -0.9932 H   0  0  0  0  0  0  0  0  0  0  0  0
   -4.1226    0.7614   -1.5151 N   0  0  0  0  0  0  0  0  0  0  0  0
   -4.8969    1.9894   -1.6269 C   0  0  0  0  0  0  0  0  0  0  0  0
   -3.4589    0.6517   -0.7444 H   0  0  0  0  0  0  0  0  0  0  0  0
   -4.6560    2.6637   -0.7997 H   0  0  0  0  0  0  0  0  0  0  0  0
   -4.6707    2.5010   -2.5683 H   0  0  0  0  0  0  0  0  0  0  0  0
   -5.9688    1.7687   -1.5928 H   0  0  0  0  0  0  0  0  0  0  0  0
  1  2  2  0  0  0  0
  1  3  1  0  0  0  0
  1  7  1  0  0  0  0
  3  4  1  0  0  0  0
  3  5  1  0  0  0  0
  3  6  1  0  0  0  0
  7  8  1  0  0  0  0
  7 12  1  0  0  0  0
  8  9  1  0  0  0  0
  8 11  1  0  0  0  0
  8 13  1  0  0  0  0
  9 10  2  0  0  0  0
  9 17  1  0  0  0  0
 11 14  1  0  0  0  0
 11 15  1  0  0  0  0
 11 16  1  0  0  0  0
 17 18  1  0  0  0  0
 17 23  1  0  0  0  0
 18 19  1  0  0  0  0
 18 21  1  0  0  0  0
 18 24  1  0  0  0  0
 19 20  2  0  0  0  0
 19 28  1  0  0  0  0
 21 22  1  0  0  0  0
 21 25  1  0  0  0  0
 21 26  1  0  0  0  0
 22 27  1  0  0  0  0
 28 29  1  0  0  0  0
 28 33  1  0  0  0  0
 29 30  1  0  0  0  0
 29 32  1  0  0  0  0
 29 34  1  0  0  0  0
 30 31  2  0  0  0  0
 30 38  1  0  0  0  0
 32 35  1  0  0  0  0
 32 36  1  0  0  0  0
 32 37  1  0  0  0  0
 38 39  1  0  0  0  0
 38 40  1  0  0  0  0
 39 41  1  0  0  0  0
 39 42  1  0  0  0  0
 39 43  1  0  0  0  0
M  END
$$$$

  -OEChem-05262217303D

 43 42  0     1  0  0  0  0  0999 V2000
    3.6788   -1.8255    3.8646 C   0  0  0  0  0  0  0  0  0  0  0  0
    2.7803   -1.9294    4.6847 O   0  0  0  0  0  0  0  0  0  0  0  0
    5.0022   -2.5316    4.0936 C   0  0  0  0  0  0  0  0  0  0  0  0
    5.7947   -1.7962    4.2523 H   0  0  0  0  0  0  0  0  0  0  0  0
    4.9372   -3.1762    4.9747 H   0  0  0  0  0  0  0  0  0  0  0  0
    5.2533   -3.1469    3.2261 H   0  0  0  0  0  0  0  0  0  0  0  0
    3.4891   -1.0697    2.7271 N   0  0  0  0  0  0  0  0  0  0  0  0
    2.2017   -0.4859    2.3276 C   0  0  2  0  0  0  0  0  0  0  0  0
    2.0411   -0.4614    0.7927 C   0  0  0  0  0  0  0  0  0  0  0  0
    3.0281   -0.5992    0.0794 O   0  0  0  0  0  0  0  0  0  0  0  0
    2.1129    0.9284    2.9091 C   0  0  0  0  0  0  0  0  0  0  0  0
    4.2120   -1.1143    2.0094 H   0  0  0  0  0  0  0  0  0  0  0  0
    1.3815   -1.0919    2.7279 H   0  0  0  0  0  0  0  0  0  0  0  0
    2.9168    1.5566    2.5121 H   0  0  0  0  0  0  0  0  0  0  0  0
    1.1528    1.3903    2.6595 H   0  0  0  0  0  0  0  0  0  0  0  0
    2.2034    0.8936    3.9995 H   0  0  0  0  0  0  0  0  0  0  0  0
    0.8046   -0.1844    0.2346 N   0  0  0  0  0  0  0  0  0  0  0  0
    0.3111   -0.5417   -1.1166 C   0  0  2  0  0  0  0  0  0  0  0  0
   -1.2247   -0.7305   -1.0742 C   0  0  0  0  0  0  0  0  0  0  0  0
   -1.8627   -0.1393   -0.2105 O   0  0  0  0  0  0  0  0  0  0  0  0
    0.9465   -1.8319   -1.6972 C   0  0  0  0  0  0  0  0  0  0  0  0
    0.5747   -2.9985   -0.9433 O   0  0  0  0  0  0  0  0  0  0  0  0
    0.0640   -0.0101    0.9144 H   0  0  0  0  0  0  0  0  0  0  0  0
    0.5358    0.2848   -1.7969 H   0  0  0  0  0  0  0  0  0  0  0  0
    2.0342   -1.7554   -1.7489 H   0  0  0  0  0  0  0  0  0  0  0  0
    0.6124   -1.9606   -2.7316 H   0  0  0  0  0  0  0  0  0  0  0  0
   -0.3899   -3.0929   -0.8545 H   0  0  0  0  0  0  0  0  0  0  0  0
   -1.8890   -1.6048   -1.9262 N   0  0  0  0  0  0  0  0  0  0  0  0
   -3.3374   -1.9029   -1.9501 C   0  0  2  0  0  0  0  0  0  0  0  0
   -4.2272   -0.7134   -2.3798 C   0  0  0  0  0  0  0  0  0  0  0  0
   -4.9269   -0.8207   -3.3773 O   0  0  0  0  0  0  0  0  0  0  0  0
   -3.8145   -2.4986   -0.6169 C   0  0  0  0  0  0  0  0  0  0  0  0
   -1.3315   -1.9936   -2.6839 H   0  0  0  0  0  0  0  0  0  0  0  0
   -3.4872   -2.6784   -2.7092 H   0  0  0  0  0  0  0  0  0  0  0  0
   -3.8078   -1.7511    0.1814 H   0  0  0  0  0  0  0  0  0  0  0  0
   -4.8384   -2.8715   -0.7209 H   0  0  0  0  0  0  0  0  0  0  0  0
   -3.1724   -3.3327   -0.3188 H   0  0  0  0  0  0  0  0  0  0  0  0
   -4.2193    0.4782   -1.6824 N   0  0  0  0  0  0  0  0  0  0  0  0
   -4.9732    1.6592   -2.0808 C   0  0  0  0  0  0  0  0  0  0  0  0
   -3.5552    0.5433   -0.9068 H   0  0  0  0  0  0  0  0  0  0  0  0
   -4.8499    2.4535   -1.3384 H   0  0  0  0  0  0  0  0  0  0  0  0
   -4.6206    2.0304   -3.0487 H   0  0  0  0  0  0  0  0  0  0  0  0
   -6.0399    1.4246   -2.1602 H   0  0  0  0  0  0  0  0  0  0  0  0
  1  2  2  0  0  0  0
  1  3  1  0  0  0  0
  1  7  1  0  0  0  0
  3  4  1  0  0  0  0
  3  5  1  0  0  0  0
  3  6  1  0  0  0  0
  7  8  1  0  0  0  0
  7 12  1  0  0  0  0
  8  9  1  0  0  0  0
  8 11  1  0  0  0  0
  8 13  1  0  0  0  0
  9 10  2  0  0  0  0
  9 17  1  0  0  0  0
 11 14  1  0  0  0  0
 11 15  1  0  0  0  0
 11 16  1  0  0  0  0
 17 18  1  0  0  0  0
 17 23  1  0  0  0  0
 18 19  1  0  0  0  0
 18 21  1  0  0  0  0
 18 24  1  0  0  0  0
 19 20  2  0  0  0  0
 19 28  1  0  0  0  0
 21 22  1  0  0  0  0
 21 25  1  0  0  0  0
 21 26  1  0  0  0  0
 22 27  1  0  0  0  0
 28 29  1  0  0  0  0
 28 33  1  0  0  0  0
 29 30  1  0  0  0  0
 29 32  1  0  0  0  0
 29 34  1  0  0  0  0
 30 31  2  0  0  0  0
 30 38  1  0  0  0  0
 32 35  1  0  0  0  0
 32 36  1  0  0  0  0
 32 37  1  0  0  0  0
 38 39  1  0  0  0  0
 38 40  1  0  0  0  0
 39 41  1  0  0  0  0
 39 42  1  0  0  0  0
 39 43  1  0  0  0  0
M  END
$$$$

  -OEChem-05262217303D

 43 42  0     1  0  0  0  0  0999 V2000
    3.7389   -1.6028    4.1462 C   0  0  0  0  0  0  0  0  0  0  0  0
    2.9527   -1.3039    5.0306 O   0  0  0  0  0  0  0  0  0  0  0  0
    4.9862   -2.4034    4.4712 C   0  0  0  0  0  0  0  0  0  0  0  0
    5.8766   -1.8412    4.1798 H   0  0  0  0  0  0  0  0  0  0  0  0
    5.0347   -2.6078    5.5446 H   0  0  0  0  0  0  0  0  0  0  0  0
    4.9715   -3.3536    3.9316 H   0  0  0  0  0  0  0  0  0  0  0  0
    3.4898   -1.2179    2.8458 N   0  0  0  0  0  0  0  0  0  0  0  0
    2.2576   -0.5546    2.3970 C   0  0  2  0  0  0  0  0  0  0  0  0
    1.9122   -0.9092    0.9335 C   0  0  0  0  0  0  0  0  0  0  0  0
    2.7114   -1.5549    0.2659 O   0  0  0  0  0  0  0  0  0  0  0  0
    2.4410    0.9587    2.5545 C   0  0  0  0  0  0  0  0  0  0  0  0
    4.1055   -1.5866    2.1219 H   0  0  0  0  0  0  0  0  0  0  0  0
    1.4169   -0.8820    3.0188 H   0  0  0  0  0  0  0  0  0  0  0  0
    3.2754    1.3092    1.9386 H   0  0  0  0  0  0  0  0  0  0  0  0
    1.5348    1.4915    2.2511 H   0  0  0  0  0  0  0  0  0  0  0  0
    2.6509    1.2083    3.5997 H   0  0  0  0  0  0  0  0  0  0  0  0
    0.6777   -0.5529    0.4159 N   0  0  0  0  0  0  0  0  0  0  0  0
    0.1706   -0.6255   -0.9767 C   0  0  2  0  0  0  0  0  0  0  0  0
   -1.3555   -0.8512   -0.9557 C   0  0  0  0  0  0  0  0  0  0  0  0
   -2.0263   -0.1419   -0.2135 O   0  0  0  0  0  0  0  0  0  0  0  0
    0.8814   -1.5850   -1.9519 C   0  0  0  0  0  0  0  0  0  0  0  0
    0.6992   -2.9435   -1.5515 O   0  0  0  0  0  0  0  0  0  0  0  0
    0.0458   -0.1004    1.0766 H   0  0  0  0  0  0  0  0  0  0  0  0
    0.3116    0.3699   -1.4072 H   0  0  0  0  0  0  0  0  0  0  0  0
    1.9450   -1.3443   -2.0377 H   0  0  0  0  0  0  0  0  0  0  0  0
    0.4560   -1.4532   -2.9524 H   0  0  0  0  0  0  0  0  0  0  0  0
    1.2953   -3.1212   -0.7948 H   0  0  0  0  0  0  0  0  0  0  0  0
   -1.9692   -1.7821   -1.7782 N   0  0  0  0  0  0  0  0  0  0  0  0
   -3.4026   -2.1388   -1.8235 C   0  0  2  0  0  0  0  0  0  0  0  0
   -4.3384   -1.0316   -2.3617 C   0  0  0  0  0  0  0  0  0  0  0  0
   -5.1309   -1.2954   -3.2562 O   0  0  0  0  0  0  0  0  0  0  0  0
   -3.8893   -2.6477   -0.4599 C   0  0  0  0  0  0  0  0  0  0  0  0
   -1.3168   -2.4321   -2.2209 H   0  0  0  0  0  0  0  0  0  0  0  0
   -3.4954   -2.9736   -2.5264 H   0  0  0  0  0  0  0  0  0  0  0  0
   -3.9123   -1.8427    0.2802 H   0  0  0  0  0  0  0  0  0  0  0  0
   -4.9016   -3.0536   -0.5525 H   0  0  0  0  0  0  0  0  0  0  0  0
   -3.2311   -3.4410   -0.0934 H   0  0  0  0  0  0  0  0  0  0  0  0
   -4.3140    0.2470   -1.8414 N   0  0  0  0  0  0  0  0  0  0  0  0
   -5.1824    1.3278   -2.2868 C   0  0  0  0  0  0  0  0  0  0  0  0
   -3.6368    0.4174   -1.0940 H   0  0  0  0  0  0  0  0  0  0  0  0
   -5.0102    2.2237   -1.6828 H   0  0  0  0  0  0  0  0  0  0  0  0
   -4.9818    1.5712   -3.3354 H   0  0  0  0  0  0  0  0  0  0  0  0
   -6.2344    1.0412   -2.1852 H   0  0  0  0  0  0  0  0  0  0  0  0
  1  2  2  0  0  0  0
  1  3  1  0  0  0  0
  1  7  1  0  0  0  0
  3  4  1  0  0  0  0
  3  5  1  0  0  0  0
  3  6  1  0  0  0  0
  7  8  1  0  0  0  0
  7 12  1  0  0  0  0
  8  9  1  0  0  0  0
  8 11  1  0  0  0  0
  8 13  1  0  0  0  0
  9 10  2  0  0  0  0
  9 17  1  0  0  0  0
 11 14  1  0  0  0  0
 11 15  1  0  0  0  0
 11 16  1  0  0  0  0
 17 18  1  0  0  0  0
 17 23  1  0  0  0  0
 18 19  1  0  0  0  0
 18 21  1  0  0  0  0
 18 24  1  0  0  0  0
 19 20  2  0  0  0  0
 19 28  1  0  0  0  0
 21 22  1  0  0  0  0
 21 25  1  0  0  0  0
 21 26  1  0  0  0  0
 22 27  1  0  0  0  0
 28 29  1  0  0  0  0
 28 33  1  0  0  0  0
 29 30  1  0  0  0  0
 29 32  1  0  0  0  0
 29 34  1  0  0  0  0
 30 31  2  0  0  0  0
 30 38  1  0  0  0  0
 32 35  1  0  0  0  0
 32 36  1  0  0  0  0
 32 37  1  0  0  0  0
 38 39  1  0  0  0  0
 38 40  1  0  0  0  0
 39 41  1  0  0  0  0
 39 42  1  0  0  0  0
 39 43  1  0  0  0  0
M  END
$$$$

  -OEChem-05262217303D

 43 42  0     1  0  0  0  0  0999 V2000
    3.7755   -1.5821    4.1384 C   0  0  0  0  0  0  0  0  0  0  0  0
    3.0059   -1.2502    5.0257 O   0  0  0  0  0  0  0  0  0  0  0  0
    4.9970   -2.4221    4.4619 C   0  0  0  0  0  0  0  0  0  0  0  0
    5.9029   -1.9058    4.1350 H   0  0  0  0  0  0  0  0  0  0  0  0
    5.0611   -2.5955    5.5400 H   0  0  0  0  0  0  0  0  0  0  0  0
    4.9316   -3.3873    3.9536 H   0  0  0  0  0  0  0  0  0  0  0  0
    3.5273   -1.2023    2.8363 N   0  0  0  0  0  0  0  0  0  0  0  0
    2.3074   -0.5136    2.3926 C   0  0  2  0  0  0  0  0  0  0  0  0
    1.9221   -0.8957    0.9467 C   0  0  0  0  0  0  0  0  0  0  0  0
    2.6952   -1.5704    0.2765 O   0  0  0  0  0  0  0  0  0  0  0  0
    2.5381    0.9966    2.5089 C   0  0  0  0  0  0  0  0  0  0  0  0
    4.1232   -1.6003    2.1115 H   0  0  0  0  0  0  0  0  0  0  0  0
    1.4692   -0.7994    3.0375 H   0  0  0  0  0  0  0  0  0  0  0  0
    3.3678    1.3081    1.8664 H   0  0  0  0  0  0  0  0  0  0  0  0
    1.6410    1.5489    2.2138 H   0  0  0  0  0  0  0  0  0  0  0  0
    2.7793    1.2640    3.5427 H   0  0  0  0  0  0  0  0  0  0  0  0
    0.6750   -0.5422    0.4569 N   0  0  0  0  0  0  0  0  0  0  0  0
    0.1380   -0.6185   -0.9246 C   0  0  2  0  0  0  0  0  0  0  0  0
   -1.3856   -0.8478   -0.8840 C   0  0  0  0  0  0  0  0  0  0  0  0
   -2.0710   -0.0194   -0.2959 O   0  0  0  0  0  0  0  0  0  0  0  0
    0.8452   -1.5679   -1.9130 C   0  0  0  0  0  0  0  0  0  0  0  0
    0.6966   -2.9325   -1.5135 O   0  0  0  0  0  0  0  0  0  0  0  0
    0.0774   -0.0506    1.1211 H   0  0  0  0  0  0  0  0  0  0  0  0
    0.2660    0.3783   -1.3574 H   0  0  0  0  0  0  0  0  0  0  0  0
    1.9019   -1.3070   -2.0223 H   0  0  0  0  0  0  0  0  0  0  0  0
    0.3922   -1.4441   -2.9025 H   0  0  0  0  0  0  0  0  0  0  0  0
    1.3292   -3.1041   -0.7846 H   0  0  0  0  0  0  0  0  0  0  0  0
   -1.9717   -1.9641   -1.4563 N   0  0  0  0  0  0  0  0  0  0  0  0
   -3.3922   -2.3680   -1.4087 C   0  0  2  0  0  0  0  0  0  0  0  0
   -4.3680   -1.4399   -2.1692 C   0  0  0  0  0  0  0  0  0  0  0  0
   -5.2059   -1.9300   -2.9147 O   0  0  0  0  0  0  0  0  0  0  0  0
   -3.8578   -2.5739    0.0389 C   0  0  0  0  0  0  0  0  0  0  0  0
   -1.2984   -2.6524   -1.8032 H   0  0  0  0  0  0  0  0  0  0  0  0
   -3.4582   -3.3408   -1.9072 H   0  0  0  0  0  0  0  0  0  0  0  0
   -3.9063   -1.6237    0.5788 H   0  0  0  0  0  0  0  0  0  0  0  0
   -4.8559   -3.0235    0.0500 H   0  0  0  0  0  0  0  0  0  0  0  0
   -3.1724   -3.2424    0.5684 H   0  0  0  0  0  0  0  0  0  0  0  0
   -4.3358   -0.0696   -2.0038 N   0  0  0  0  0  0  0  0  0  0  0  0
   -5.2763    0.8494   -2.6288 C   0  0  0  0  0  0  0  0  0  0  0  0
   -3.6592    0.2860   -1.3241 H   0  0  0  0  0  0  0  0  0  0  0  0
   -5.0247    1.8818   -2.3681 H   0  0  0  0  0  0  0  0  0  0  0  0
   -5.2426    0.7501   -3.7188 H   0  0  0  0  0  0  0  0  0  0  0  0
   -6.2957    0.6433   -2.2869 H   0  0  0  0  0  0  0  0  0  0  0  0
  1  2  2  0  0  0  0
  1  3  1  0  0  0  0
  1  7  1  0  0  0  0
  3  4  1  0  0  0  0
  3  5  1  0  0  0  0
  3  6  1  0  0  0  0
  7  8  1  0  0  0  0
  7 12  1  0  0  0  0
  8  9  1  0  0  0  0
  8 11  1  0  0  0  0
  8 13  1  0  0  0  0
  9 10  2  0  0  0  0
  9 17  1  0  0  0  0
 11 14  1  0  0  0  0
 11 15  1  0  0  0  0
 11 16  1  0  0  0  0
 17 18  1  0  0  0  0
 17 23  1  0  0  0  0
 18 19  1  0  0  0  0
 18 21  1  0  0  0  0
 18 24  1  0  0  0  0
 19 20  2  0  0  0  0
 19 28  1  0  0  0  0
 21 22  1  0  0  0  0
 21 25  1  0  0  0  0
 21 26  1  0  0  0  0
 22 27  1  0  0  0  0
 28 29  1  0  0  0  0
 28 33  1  0  0  0  0
 29 30  1  0  0  0  0
 29 32  1  0  0  0  0
 29 34  1  0  0  0  0
 30 31  2  0  0  0  0
 30 38  1  0  0  0  0
 32 35  1  0  0  0  0
 32 36  1  0  0  0  0
 32 37  1  0  0  0  0
 38 39  1  0  0  0  0
 38 40  1  0  0  0  0
 39 41  1  0  0  0  0
 39 42  1  0  0  0  0
 39 43  1  0  0  0  0
M  END
$$$$

  -OEChem-05262217303D

 43 42  0     1  0  0  0  0  0999 V2000
    3.8550   -1.5470    4.1198 C   0  0  0  0  0  0  0  0  0  0  0  0
    3.1178   -1.1807    5.0209 O   0  0  0  0  0  0  0  0  0  0  0  0
    5.0586   -2.4191    4.4245 C   0  0  0  0  0  0  0  0  0  0  0  0
    5.9651   -1.9583    4.0244 H   0  0  0  0  0  0  0  0  0  0  0  0
    5.1728   -2.5391    5.5056 H   0  0  0  0  0  0  0  0  0  0  0  0
    4.9292   -3.4055    3.9719 H   0  0  0  0  0  0  0  0  0  0  0  0
    3.5844   -1.1808    2.8183 N   0  0  0  0  0  0  0  0  0  0  0  0
    2.3658   -0.4787    2.3927 C   0  0  2  0  0  0  0  0  0  0  0  0
    1.9234   -0.8989    0.9741 C   0  0  0  0  0  0  0  0  0  0  0  0
    2.6629   -1.6037    0.2967 O   0  0  0  0  0  0  0  0  0  0  0  0
    2.6335    1.0289    2.4500 C   0  0  0  0  0  0  0  0  0  0  0  0
    4.1509   -1.6081    2.0865 H   0  0  0  0  0  0  0  0  0  0  0  0
    1.5436   -0.7237    3.0742 H   0  0  0  0  0  0  0  0  0  0  0  0
    3.4444    1.3003    1.7665 H   0  0  0  0  0  0  0  0  0  0  0  0
    1.7377    1.5912    2.1700 H   0  0  0  0  0  0  0  0  0  0  0  0
    2.9200    1.3244    3.4644 H   0  0  0  0  0  0  0  0  0  0  0  0
    0.6622   -0.5450    0.5214 N   0  0  0  0  0  0  0  0  0  0  0  0
    0.0898   -0.6197   -0.8459 C   0  0  2  0  0  0  0  0  0  0  0  0
   -1.4315   -0.8514   -0.7814 C   0  0  0  0  0  0  0  0  0  0  0  0
   -2.1322    0.0658   -0.3714 O   0  0  0  0  0  0  0  0  0  0  0  0
    0.7808   -1.5627   -1.8522 C   0  0  0  0  0  0  0  0  0  0  0  0
    0.6549   -2.9310   -1.4541 O   0  0  0  0  0  0  0  0  0  0  0  0
    0.1026   -0.0197    1.1920 H   0  0  0  0  0  0  0  0  0  0  0  0
    0.2088    0.3788   -1.2778 H   0  0  0  0  0  0  0  0  0  0  0  0
    1.8323   -1.2926   -1.9879 H   0  0  0  0  0  0  0  0  0  0  0  0
    0.2994   -1.4411   -2.8285 H   0  0  0  0  0  0  0  0  0  0  0  0
    1.3208   -3.1011   -0.7544 H   0  0  0  0  0  0  0  0  0  0  0  0
   -1.9899   -2.0848   -1.0674 N   0  0  0  0  0  0  0  0  0  0  0  0
   -3.4031   -2.4967   -0.9456 C   0  0  2  0  0  0  0  0  0  0  0  0
   -4.3796   -1.7809   -1.9073 C   0  0  0  0  0  0  0  0  0  0  0  0
   -5.1714   -2.4419   -2.5661 O   0  0  0  0  0  0  0  0  0  0  0  0
   -3.8861   -2.3754    0.5055 C   0  0  0  0  0  0  0  0  0  0  0  0
   -1.3088   -2.7956   -1.3488 H   0  0  0  0  0  0  0  0  0  0  0  0
   -3.4456   -3.5586   -1.2097 H   0  0  0  0  0  0  0  0  0  0  0  0
   -3.9601   -1.3282    0.8127 H   0  0  0  0  0  0  0  0  0  0  0  0
   -4.8760   -2.8310    0.6088 H   0  0  0  0  0  0  0  0  0  0  0  0
   -3.1957   -2.8900    1.1804 H   0  0  0  0  0  0  0  0  0  0  0  0
   -4.3961   -0.4049   -2.0198 N   0  0  0  0  0  0  0  0  0  0  0  0
   -5.3138    0.3353   -2.8741 C   0  0  0  0  0  0  0  0  0  0  0  0
   -3.7372    0.1045   -1.4260 H   0  0  0  0  0  0  0  0  0  0  0  0
   -5.1379    1.4105   -2.7716 H   0  0  0  0  0  0  0  0  0  0  0  0
   -5.1679    0.0582   -3.9233 H   0  0  0  0  0  0  0  0  0  0  0  0
   -6.3518    0.1259   -2.5951 H   0  0  0  0  0  0  0  0  0  0  0  0
  1  2  2  0  0  0  0
  1  3  1  0  0  0  0
  1  7  1  0  0  0  0
  3  4  1  0  0  0  0
  3  5  1  0  0  0  0
  3  6  1  0  0  0  0
  7  8  1  0  0  0  0
  7 12  1  0  0  0  0
  8  9  1  0  0  0  0
  8 11  1  0  0  0  0
  8 13  1  0  0  0  0
  9 10  2  0  0  0  0
  9 17  1  0  0  0  0
 11 14  1  0  0  0  0
 11 15  1  0  0  0  0
 11 16  1  0  0  0  0
 17 18  1  0  0  0  0
 17 23  1  0  0  0  0
 18 19  1  0  0  0  0
 18 21  1  0  0  0  0
 18 24  1  0  0  0  0
 19 20  2  0  0  0  0
 19 28  1  0  0  0  0
 21 22  1  0  0  0  0
 21 25  1  0  0  0  0
 21 26  1  0  0  0  0
 22 27  1  0  0  0  0
 28 29  1  0  0  0  0
 28 33  1  0  0  0  0
 29 30  1  0  0  0  0
 29 32  1  0  0  0  0
 29 34  1  0  0  0  0
 30 31  2  0  0  0  0
 30 38  1  0  0  0  0
 32 35  1  0  0  0  0
 32 36  1  0  0  0  0
 32 37  1  0  0  0  0
 38 39  1  0  0  0  0
 38 40  1  0  0  0  0
 39 41  1  0  0  0  0
 39 42  1  0  0  0  0
 39 43  1  0  0  0  0
M  END
$$$$

  -OEChem-05262217303D

 43 42  0     1  0  0  0  0  0999 V2000
    3.9024   -1.5419    4.0752 C   0  0  0  0  0  0  0  0  0  0  0  0
    3.2003   -1.1148    4.9775 O   0  0  0  0  0  0  0  0  0  0  0  0
    5.0633   -2.4685    4.3847 C   0  0  0  0  0  0  0  0  0  0  0  0
    5.9904   -2.0531    3.9821 H   0  0  0  0  0  0  0  0  0  0  0  0
    5.1722   -2.5887    5.4665 H   0  0  0  0  0  0  0  0  0  0  0  0
    4.8875   -3.4500    3.9376 H   0  0  0  0  0  0  0  0  0  0  0  0
    3.6300   -1.1936    2.7690 N   0  0  0  0  0  0  0  0  0  0  0  0
    2.4475   -0.4312    2.3455 C   0  0  2  0  0  0  0  0  0  0  0  0
    1.9462   -0.8687    0.9521 C   0  0  0  0  0  0  0  0  0  0  0  0
    2.6470   -1.6016    0.2635 O   0  0  0  0  0  0  0  0  0  0  0  0
    2.8090    1.0575    2.3445 C   0  0  0  0  0  0  0  0  0  0  0  0
    4.1610   -1.6663    2.0388 H   0  0  0  0  0  0  0  0  0  0  0  0
    1.6282   -0.6004    3.0529 H   0  0  0  0  0  0  0  0  0  0  0  0
    3.6136    1.2564    1.6291 H   0  0  0  0  0  0  0  0  0  0  0  0
    1.9408    1.6655    2.0721 H   0  0  0  0  0  0  0  0  0  0  0  0
    3.1443    1.3662    3.3400 H   0  0  0  0  0  0  0  0  0  0  0  0
    0.6710   -0.5097    0.5444 N   0  0  0  0  0  0  0  0  0  0  0  0
    0.0497   -0.5892   -0.8021 C   0  0  2  0  0  0  0  0  0  0  0  0
   -1.4690   -0.8123   -0.6938 C   0  0  0  0  0  0  0  0  0  0  0  0
   -2.1825    0.1623   -0.4933 O   0  0  0  0  0  0  0  0  0  0  0  0
    0.6987   -1.5448   -1.8223 C   0  0  0  0  0  0  0  0  0  0  0  0
    0.5765   -2.9083   -1.4067 O   0  0  0  0  0  0  0  0  0  0  0  0
    0.1534    0.0449    1.2245 H   0  0  0  0  0  0  0  0  0  0  0  0
    0.1639    0.4050   -1.2456 H   0  0  0  0  0  0  0  0  0  0  0  0
    1.7464   -1.2828   -1.9986 H   0  0  0  0  0  0  0  0  0  0  0  0
    0.1820   -1.4299   -2.7812 H   0  0  0  0  0  0  0  0  0  0  0  0
    1.2830   -3.0817   -0.7487 H   0  0  0  0  0  0  0  0  0  0  0  0
   -2.0010   -2.0888   -0.6554 N   0  0  0  0  0  0  0  0  0  0  0  0
   -3.4025   -2.4863   -0.4114 C   0  0  2  0  0  0  0  0  0  0  0  0
   -4.4089   -2.0423   -1.4983 C   0  0  0  0  0  0  0  0  0  0  0  0
   -5.1948   -2.8589   -1.9603 O   0  0  0  0  0  0  0  0  0  0  0  0
   -3.8658   -2.0312    0.9791 C   0  0  0  0  0  0  0  0  0  0  0  0
   -1.3266   -2.8272   -0.8737 H   0  0  0  0  0  0  0  0  0  0  0  0
   -3.4247   -3.5812   -0.4128 H   0  0  0  0  0  0  0  0  0  0  0  0
   -3.9469   -0.9419    1.0340 H   0  0  0  0  0  0  0  0  0  0  0  0
   -4.8488   -2.4574    1.2032 H   0  0  0  0  0  0  0  0  0  0  0  0
   -3.1602   -2.3682    1.7445 H   0  0  0  0  0  0  0  0  0  0  0  0
   -4.4550   -0.7370   -1.9461 N   0  0  0  0  0  0  0  0  0  0  0  0
   -5.3904   -0.2513   -2.9506 C   0  0  0  0  0  0  0  0  0  0  0  0
   -3.8000   -0.0847   -1.5079 H   0  0  0  0  0  0  0  0  0  0  0  0
   -5.2212    0.8130   -3.1401 H   0  0  0  0  0  0  0  0  0  0  0  0
   -5.2578   -0.7956   -3.8914 H   0  0  0  0  0  0  0  0  0  0  0  0
   -6.4222   -0.3832   -2.6087 H   0  0  0  0  0  0  0  0  0  0  0  0
  1  2  2  0  0  0  0
  1  3  1  0  0  0  0
  1  7  1  0  0  0  0
  3  4  1  0  0  0  0
  3  5  1  0  0  0  0
  3  6  1  0  0  0  0
  7  8  1  0  0  0  0
  7 12  1  0  0  0  0
  8  9  1  0  0  0  0
  8 11  1  0  0  0  0
  8 13  1  0  0  0  0
  9 10  2  0  0  0  0
  9 17  1  0  0  0  0
 11 14  1  0  0  0  0
 11 15  1  0  0  0  0
 11 16  1  0  0  0  0
 17 18  1  0  0  0  0
 17 23  1  0  0  0  0
 18 19  1  0  0  0  0
 18 21  1  0  0  0  0
 18 24  1  0  0  0  0
 19 20  2  0  0  0  0
 19 28  1  0  0  0  0
 21 22  1  0  0  0  0
 21 25  1  0  0  0  0
 21 26  1  0  0  0  0
 22 27  1  0  0  0  0
 28 29  1  0  0  0  0
 28 33  1  0  0  0  0
 29 30  1  0  0  0  0
 29 32  1  0  0  0  0
 29 34  1  0  0  0  0
 30 31  2  0  0  0  0
 30 38  1  0  0  0  0
 32 35  1  0  0  0  0
 32 36  1  0  0  0  0
 32 37  1  0  0  0  0
 38 39  1  0  0  0  0
 38 40  1  0  0  0  0
 39 41  1  0  0  0  0
 39 42  1  0  0  0  0
 39 43  1  0  0  0  0
M  END
$$$$

  -OEChem-05262217303D

 43 42  0     1  0  0  0  0  0999 V2000
    3.9105   -1.8044    3.7975 C   0  0  0  0  0  0  0  0  0  0  0  0
    3.1101   -1.7253    4.7158 O   0  0  0  0  0  0  0  0  0  0  0  0
    5.1216   -2.7106    3.9177 C   0  0  0  0  0  0  0  0  0  0  0  0
    6.0371   -2.1145    3.8972 H   0  0  0  0  0  0  0  0  0  0  0  0
    5.0840   -3.2676    4.8581 H   0  0  0  0  0  0  0  0  0  0  0  0
    5.1394   -3.4221    3.0885 H   0  0  0  0  0  0  0  0  0  0  0  0
    3.7071   -1.0836    2.6398 N   0  0  0  0  0  0  0  0  0  0  0  0
    2.4784   -0.3379    2.3338 C   0  0  2  0  0  0  0  0  0  0  0  0
    2.0475   -0.5295    0.8643 C   0  0  0  0  0  0  0  0  0  0  0  0
    2.8751   -0.9203    0.0503 O   0  0  0  0  0  0  0  0  0  0  0  0
    2.7326    1.1413    2.6354 C   0  0  0  0  0  0  0  0  0  0  0  0
    4.3207   -1.2908    1.8525 H   0  0  0  0  0  0  0  0  0  0  0  0
    1.6558   -0.6957    2.9619 H   0  0  0  0  0  0  0  0  0  0  0  0
    3.5451    1.5261    2.0104 H   0  0  0  0  0  0  0  0  0  0  0  0
    1.8334    1.7342    2.4422 H   0  0  0  0  0  0  0  0  0  0  0  0
    3.0102    1.2693    3.6866 H   0  0  0  0  0  0  0  0  0  0  0  0
    0.7550   -0.1985    0.4875 N   0  0  0  0  0  0  0  0  0  0  0  0
    0.0507   -0.4945   -0.7847 C   0  0  2  0  0  0  0  0  0  0  0  0
   -1.4638   -0.6343   -0.5361 C   0  0  0  0  0  0  0  0  0  0  0  0
   -2.1925    0.3117   -0.8046 O   0  0  0  0  0  0  0  0  0  0  0  0
    0.5543   -1.7270   -1.5743 C   0  0  0  0  0  0  0  0  0  0  0  0
    0.3248   -2.9599   -0.8726 O   0  0  0  0  0  0  0  0  0  0  0  0
    0.1704    0.1502    1.2437 H   0  0  0  0  0  0  0  0  0  0  0  0
    0.1896    0.3720   -1.4390 H   0  0  0  0  0  0  0  0  0  0  0  0
    1.6104   -1.6254   -1.8333 H   0  0  0  0  0  0  0  0  0  0  0  0
    0.0142   -1.7702   -2.5261 H   0  0  0  0  0  0  0  0  0  0  0  0
    0.8153   -3.6857   -1.3018 H   0  0  0  0  0  0  0  0  0  0  0  0
   -1.9883   -1.7653    0.0647 N   0  0  0  0  0  0  0  0  0  0  0  0
   -3.4048   -2.0583    0.3648 C   0  0  2  0  0  0  0  0  0  0  0  0
   -4.3082   -2.2030   -0.8815 C   0  0  0  0  0  0  0  0  0  0  0  0
   -4.9789   -3.2165   -1.0265 O   0  0  0  0  0  0  0  0  0  0  0  0
   -3.9892   -1.0351    1.3485 C   0  0  0  0  0  0  0  0  0  0  0  0
   -1.3209   -2.5388    0.1230 H   0  0  0  0  0  0  0  0  0  0  0  0
   -3.4271   -3.0301    0.8690 H   0  0  0  0  0  0  0  0  0  0  0  0
   -4.0903   -0.0491    0.8858 H   0  0  0  0  0  0  0  0  0  0  0  0
   -4.9816   -1.3588    1.6777 H   0  0  0  0  0  0  0  0  0  0  0  0
   -3.3456   -0.9434    2.2284 H   0  0  0  0  0  0  0  0  0  0  0  0
   -4.3679   -1.2122   -1.8414 N   0  0  0  0  0  0  0  0  0  0  0  0
   -5.1676   -1.2983   -3.0550 C   0  0  0  0  0  0  0  0  0  0  0  0
   -3.7701   -0.3962   -1.6869 H   0  0  0  0  0  0  0  0  0  0  0  0
   -5.0472   -0.3890   -3.6515 H   0  0  0  0  0  0  0  0  0  0  0  0
   -4.8517   -2.1541   -3.6602 H   0  0  0  0  0  0  0  0  0  0  0  0
   -6.2281   -1.4117   -2.8072 H   0  0  0  0  0  0  0  0  0  0  0  0
  1  2  2  0  0  0  0
  1  3  1  0  0  0  0
  1  7  1  0  0  0  0
  3  4  1  0  0  0  0
  3  5  1  0  0  0  0
  3  6  1  0  0  0  0
  7  8  1  0  0  0  0
  7 12  1  0  0  0  0
  8  9  1  0  0  0  0
  8 11  1  0  0  0  0
  8 13  1  0  0  0  0
  9 10  2  0  0  0  0
  9 17  1  0  0  0  0
 11 14  1  0  0  0  0
 11 15  1  0  0  0  0
 11 16  1  0  0  0  0
 17 18  1  0  0  0  0
 17 23  1  0  0  0  0
 18 19  1  0  0  0  0
 18 21  1  0  0  0  0
 18 24  1  0  0  0  0
 19 20  2  0  0  0  0
 19 28  1  0  0  0  0
 21 22  1  0  0  0  0
 21 25  1  0  0  0  0
 21 26  1  0  0  0  0
 22 27  1  0  0  0  0
 28 29  1  0  0  0  0
 28 33  1  0  0  0  0
 29 30  1  0  0  0  0
 29 32  1  0  0  0  0
 29 34  1  0  0  0  0
 30 31  2  0  0  0  0
 30 38  1  0  0  0  0
 32 35  1  0  0  0  0
 32 36  1  0  0  0  0
 32 37  1  0  0  0  0
 38 39  1  0  0  0  0
 38 40  1  0  0  0  0
 39 41  1  0  0  0  0
 39 42  1  0  0  0  0
 39 43  1  0  0  0  0
M  END
$$$$

  -OEChem-05262217303D

 43 42  0     1  0  0  0  0  0999 V2000
    3.8918   -1.8501    3.7629 C   0  0  0  0  0  0  0  0  0  0  0  0
    3.0926   -1.7323    4.6783 O   0  0  0  0  0  0  0  0  0  0  0  0
    5.0821   -2.7797    3.9052 C   0  0  0  0  0  0  0  0  0  0  0  0
    6.0091   -2.2016    3.8862 H   0  0  0  0  0  0  0  0  0  0  0  0
    5.0243   -3.3242    4.8520 H   0  0  0  0  0  0  0  0  0  0  0  0
    5.0941   -3.5010    3.0844 H   0  0  0  0  0  0  0  0  0  0  0  0
    3.7136   -1.1392    2.5949 N   0  0  0  0  0  0  0  0  0  0  0  0
    2.5255   -0.3311    2.2902 C   0  0  2  0  0  0  0  0  0  0  0  0
    2.0744   -0.5031    0.8248 C   0  0  0  0  0  0  0  0  0  0  0  0
    2.8800   -0.9070   -0.0045 O   0  0  0  0  0  0  0  0  0  0  0  0
    2.8617    1.1330    2.5844 C   0  0  0  0  0  0  0  0  0  0  0  0
    4.3256   -1.3679    1.8125 H   0  0  0  0  0  0  0  0  0  0  0  0
    1.6889   -0.6418    2.9252 H   0  0  0  0  0  0  0  0  0  0  0  0
    3.6927    1.4695    1.9557 H   0  0  0  0  0  0  0  0  0  0  0  0
    1.9963    1.7736    2.3905 H   0  0  0  0  0  0  0  0  0  0  0  0
    3.1487    1.2501    3.6345 H   0  0  0  0  0  0  0  0  0  0  0  0
    0.7867   -0.1355    0.4677 N   0  0  0  0  0  0  0  0  0  0  0  0
    0.0483   -0.4419   -0.7830 C   0  0  2  0  0  0  0  0  0  0  0  0
   -1.4639   -0.5228   -0.5078 C   0  0  0  0  0  0  0  0  0  0  0  0
   -2.2100    0.2991   -1.0232 O   0  0  0  0  0  0  0  0  0  0  0  0
    0.4650   -1.7433   -1.5073 C   0  0  0  0  0  0  0  0  0  0  0  0
    0.1564   -2.9117   -0.7295 O   0  0  0  0  0  0  0  0  0  0  0  0
    0.2229    0.2189    1.2367 H   0  0  0  0  0  0  0  0  0  0  0  0
    0.2167    0.3854   -1.4795 H   0  0  0  0  0  0  0  0  0  0  0  0
    1.5229   -1.7297   -1.7768 H   0  0  0  0  0  0  0  0  0  0  0  0
   -0.0871   -1.8038   -2.4513 H   0  0  0  0  0  0  0  0  0  0  0  0
    0.5230   -3.7078   -1.1572 H   0  0  0  0  0  0  0  0  0  0  0  0
   -1.9545   -1.4547    0.3904 N   0  0  0  0  0  0  0  0  0  0  0  0
   -3.3660   -1.6953    0.7502 C   0  0  2  0  0  0  0  0  0  0  0  0
   -4.2473   -2.1988   -0.4162 C   0  0  0  0  0  0  0  0  0  0  0  0
   -4.8530   -3.2562   -0.3019 O   0  0  0  0  0  0  0  0  0  0  0  0
   -3.9900   -0.4616    1.4181 C   0  0  0  0  0  0  0  0  0  0  0  0
   -1.2922   -2.2121    0.5726 H   0  0  0  0  0  0  0  0  0  0  0  0
   -3.3683   -2.4944    1.4989 H   0  0  0  0  0  0  0  0  0  0  0  0
   -4.1152    0.3582    0.7049 H   0  0  0  0  0  0  0  0  0  0  0  0
   -4.9759   -0.7147    1.8210 H   0  0  0  0  0  0  0  0  0  0  0  0
   -3.3590   -0.1139    2.2416 H   0  0  0  0  0  0  0  0  0  0  0  0
   -4.3592   -1.4800   -1.5900 N   0  0  0  0  0  0  0  0  0  0  0  0
   -5.1404   -1.9124   -2.7401 C   0  0  0  0  0  0  0  0  0  0  0  0
   -3.7941   -0.6292   -1.6543 H   0  0  0  0  0  0  0  0  0  0  0  0
   -5.0786   -1.1674   -3.5392 H   0  0  0  0  0  0  0  0  0  0  0  0
   -4.7611   -2.8654   -3.1230 H   0  0  0  0  0  0  0  0  0  0  0  0
   -6.1928   -2.0360   -2.4638 H   0  0  0  0  0  0  0  0  0  0  0  0
  1  2  2  0  0  0  0
  1  3  1  0  0  0  0
  1  7  1  0  0  0  0
  3  4  1  0  0  0  0
  3  5  1  0  0  0  0
  3  6  1  0  0  0  0
  7  8  1  0  0  0  0
  7 12  1  0  0  0  0
  8  9  1  0  0  0  0
  8 11  1  0  0  0  0
  8 13  1  0  0  0  0
  9 10  2  0  0  0  0
  9 17  1  0  0  0  0
 11 14  1  0  0  0  0
 11 15  1  0  0  0  0
 11 16  1  0  0  0  0
 17 18  1  0  0  0  0
 17 23  1  0  0  0  0
 18 19  1  0  0  0  0
 18 21  1  0  0  0  0
 18 24  1  0  0  0  0
 19 20  2  0  0  0  0
 19 28  1  0  0  0  0
 21 22  1  0  0  0  0
 21 25  1  0  0  0  0
 21 26  1  0  0  0  0
 22 27  1  0  0  0  0
 28 29  1  0  0  0  0
 28 33  1  0  0  0  0
 29 30  1  0  0  0  0
 29 32  1  0  0  0  0
 29 34  1  0  0  0  0
 30 31  2  0  0  0  0
 30 38  1  0  0  0  0
 32 35  1  0  0  0  0
 32 36  1  0  0  0  0
 32 37  1  0  0  0  0
 38 39  1  0  0  0  0
 38 40  1  0  0  0  0
 39 41  1  0  0  0  0
 39 42  1  0  0  0  0
 39 43  1  0  0  0  0
M  END
$$$$

  -OEChem-05262217303D

 43 42  0     1  0  0  0  0  0999 V2000
    3.9436   -1.8922    3.8649 C   0  0  0  0  0  0  0  0  0  0  0  0
    3.2591   -1.5145    4.8033 O   0  0  0  0  0  0  0  0  0  0  0  0
    4.9729   -2.9883    4.0632 C   0  0  0  0  0  0  0  0  0  0  0  0
    5.9638   -2.6261    3.7789 H   0  0  0  0  0  0  0  0  0  0  0  0
    4.9978   -3.2971    5.1119 H   0  0  0  0  0  0  0  0  0  0  0  0
    4.7176   -3.8535    3.4465 H   0  0  0  0  0  0  0  0  0  0  0  0
    3.7728   -1.3300    2.6180 N   0  0  0  0  0  0  0  0  0  0  0  0
    2.7021   -0.3859    2.2770 C   0  0  2  0  0  0  0  0  0  0  0  0
    2.2039   -0.5890    0.8310 C   0  0  0  0  0  0  0  0  0  0  0  0
    2.9371   -1.1358    0.0175 O   0  0  0  0  0  0  0  0  0  0  0  0
    3.2372    1.0361    2.4701 C   0  0  0  0  0  0  0  0  0  0  0  0
    4.2710   -1.7584    1.8379 H   0  0  0  0  0  0  0  0  0  0  0  0
    1.8460   -0.5432    2.9416 H   0  0  0  0  0  0  0  0  0  0  0  0
    4.0870    1.2186    1.8042 H   0  0  0  0  0  0  0  0  0  0  0  0
    2.4590    1.7735    2.2527 H   0  0  0  0  0  0  0  0  0  0  0  0
    3.5680    1.1791    3.5038 H   0  0  0  0  0  0  0  0  0  0  0  0
    0.9857   -0.0485    0.4518 N   0  0  0  0  0  0  0  0  0  0  0  0
    0.1831   -0.3650   -0.7568 C   0  0  2  0  0  0  0  0  0  0  0  0
   -1.3139   -0.1699   -0.4791 C   0  0  0  0  0  0  0  0  0  0  0  0
   -2.0239    0.3660   -1.3184 O   0  0  0  0  0  0  0  0  0  0  0  0
    0.3131   -1.8196   -1.2782 C   0  0  0  0  0  0  0  0  0  0  0  0
   -0.2233   -2.7834   -0.3534 O   0  0  0  0  0  0  0  0  0  0  0  0
    0.5021    0.4581    1.1885 H   0  0  0  0  0  0  0  0  0  0  0  0
    0.4818    0.3155   -1.5598 H   0  0  0  0  0  0  0  0  0  0  0  0
    1.3516   -2.0644   -1.5087 H   0  0  0  0  0  0  0  0  0  0  0  0
   -0.2356   -1.9062   -2.2223 H   0  0  0  0  0  0  0  0  0  0  0  0
   -1.1820   -2.9569   -0.5352 H   0  0  0  0  0  0  0  0  0  0  0  0
   -1.8545   -0.6640    0.6986 N   0  0  0  0  0  0  0  0  0  0  0  0
   -3.2796   -1.0209    0.8136 C   0  0  2  0  0  0  0  0  0  0  0  0
   -3.7011   -2.0123   -0.3014 C   0  0  0  0  0  0  0  0  0  0  0  0
   -2.9449   -2.9413   -0.5773 O   0  0  0  0  0  0  0  0  0  0  0  0
   -4.1604    0.2367    0.9038 C   0  0  0  0  0  0  0  0  0  0  0  0
   -1.2083   -1.3013    1.1647 H   0  0  0  0  0  0  0  0  0  0  0  0
   -3.4080   -1.5600    1.7573 H   0  0  0  0  0  0  0  0  0  0  0  0
   -4.1930    0.7719   -0.0495 H   0  0  0  0  0  0  0  0  0  0  0  0
   -5.1830   -0.0360    1.1819 H   0  0  0  0  0  0  0  0  0  0  0  0
   -3.7681    0.9156    1.6672 H   0  0  0  0  0  0  0  0  0  0  0  0
   -4.8830   -1.8680   -1.0043 N   0  0  0  0  0  0  0  0  0  0  0  0
   -5.2108   -2.6819   -2.1687 C   0  0  0  0  0  0  0  0  0  0  0  0
   -5.3782   -0.9901   -0.8769 H   0  0  0  0  0  0  0  0  0  0  0  0
   -6.2179   -2.4439   -2.5245 H   0  0  0  0  0  0  0  0  0  0  0  0
   -4.5012   -2.4916   -2.9809 H   0  0  0  0  0  0  0  0  0  0  0  0
   -5.1793   -3.7472   -1.9161 H   0  0  0  0  0  0  0  0  0  0  0  0
  1  2  2  0  0  0  0
  1  3  1  0  0  0  0
  1  7  1  0  0  0  0
  3  4  1  0  0  0  0
  3  5  1  0  0  0  0
  3  6  1  0  0  0  0
  7  8  1  0  0  0  0
  7 12  1  0  0  0  0
  8  9  1  0  0  0  0
  8 11  1  0  0  0  0
  8 13  1  0  0  0  0
  9 10  2  0  0  0  0
  9 17  1  0  0  0  0
 11 14  1  0  0  0  0
 11 15  1  0  0  0  0
 11 16  1  0  0  0  0
 17 18  1  0  0  0  0
 17 23  1  0  0  0  0
 18 19  1  0  0  0  0
 18 21  1  0  0  0  0
 18 24  1  0  0  0  0
 19 20  2  0  0  0  0
 19 28  1  0  0  0  0
 21 22  1  0  0  0  0
 21 25  1  0  0  0  0
 21 26  1  0  0  0  0
 22 27  1  0  0  0  0
 28 29  1  0  0  0  0
 28 33  1  0  0  0  0
 29 30  1  0  0  0  0
 29 32  1  0  0  0  0
 29 34  1  0  0  0  0
 30 31  2  0  0  0  0
 30 38  1  0  0  0  0
 32 35  1  0  0  0  0
 32 36  1  0  0  0  0
 32 37  1  0  0  0  0
 38 39  1  0  0  0  0
 38 40  1  0  0  0  0
 39 41  1  0  0  0  0
 39 42  1  0  0  0  0
 39 43  1  0  0  0  0
M  END
$$$$

  -OEChem-05262217303D

 43 42  0     1  0  0  0  0  0999 V2000
    3.9331   -1.8494    3.9424 C   0  0  0  0  0  0  0  0  0  0  0  0
    3.2521   -1.4206    4.8612 O   0  0  0  0  0  0  0  0  0  0  0  0
    4.9484   -2.9486    4.1933 C   0  0  0  0  0  0  0  0  0  0  0  0
    5.9524   -2.5933    3.9485 H   0  0  0  0  0  0  0  0  0  0  0  0
    4.9274   -3.2483    5.2449 H   0  0  0  0  0  0  0  0  0  0  0  0
    4.7165   -3.8188    3.5741 H   0  0  0  0  0  0  0  0  0  0  0  0
    3.7736   -1.3369    2.6725 N   0  0  0  0  0  0  0  0  0  0  0  0
    2.7215   -0.3878    2.2889 C   0  0  2  0  0  0  0  0  0  0  0  0
    2.2400   -0.6249    0.8419 C   0  0  0  0  0  0  0  0  0  0  0  0
    2.9789   -1.2024    0.0555 O   0  0  0  0  0  0  0  0  0  0  0  0
    3.2731    1.0323    2.4492 C   0  0  0  0  0  0  0  0  0  0  0  0
    4.2721   -1.7994    1.9125 H   0  0  0  0  0  0  0  0  0  0  0  0
    1.8548   -0.5152    2.9461 H   0  0  0  0  0  0  0  0  0  0  0  0
    4.1356    1.1836    1.7920 H   0  0  0  0  0  0  0  0  0  0  0  0
    2.5092    1.7741    2.1981 H   0  0  0  0  0  0  0  0  0  0  0  0
    3.5895    1.2008    3.4835 H   0  0  0  0  0  0  0  0  0  0  0  0
    1.0351   -0.0755    0.4314 N   0  0  0  0  0  0  0  0  0  0  0  0
    0.2537   -0.3752   -0.7978 C   0  0  2  0  0  0  0  0  0  0  0  0
   -1.2525   -0.1757   -0.5819 C   0  0  0  0  0  0  0  0  0  0  0  0
   -1.9550    0.1818   -1.5172 O   0  0  0  0  0  0  0  0  0  0  0  0
    0.3683   -1.8432   -1.2821 C   0  0  0  0  0  0  0  0  0  0  0  0
   -0.2204   -2.7651   -0.3444 O   0  0  0  0  0  0  0  0  0  0  0  0
    0.5663    0.4881    1.1350 H   0  0  0  0  0  0  0  0  0  0  0  0
    0.5877    0.2882   -1.6013 H   0  0  0  0  0  0  0  0  0  0  0  0
    1.4059   -2.1196   -1.4761 H   0  0  0  0  0  0  0  0  0  0  0  0
   -0.1539   -1.9433   -2.2398 H   0  0  0  0  0  0  0  0  0  0  0  0
   -1.2029   -2.8308   -0.4501 H   0  0  0  0  0  0  0  0  0  0  0  0
   -1.8008   -0.3841    0.6753 N   0  0  0  0  0  0  0  0  0  0  0  0
   -3.2375   -0.6648    0.8556 C   0  0  2  0  0  0  0  0  0  0  0  0
   -3.7166   -1.8357   -0.0438 C   0  0  0  0  0  0  0  0  0  0  0  0
   -2.9608   -2.7854   -0.2358 O   0  0  0  0  0  0  0  0  0  0  0  0
   -4.0664    0.6200    0.6908 C   0  0  0  0  0  0  0  0  0  0  0  0
   -1.1750   -0.9169    1.2765 H   0  0  0  0  0  0  0  0  0  0  0  0
   -3.3800   -1.0017    1.8870 H   0  0  0  0  0  0  0  0  0  0  0  0
   -4.0909    0.9472   -0.3529 H   0  0  0  0  0  0  0  0  0  0  0  0
   -5.0951    0.4549    1.0250 H   0  0  0  0  0  0  0  0  0  0  0  0
   -3.6361    1.4250    1.2944 H   0  0  0  0  0  0  0  0  0  0  0  0
   -4.9725   -1.8476   -0.6228 N   0  0  0  0  0  0  0  0  0  0  0  0
   -5.3925   -2.8674   -1.5765 C   0  0  0  0  0  0  0  0  0  0  0  0
   -5.5043   -0.9837   -0.5747 H   0  0  0  0  0  0  0  0  0  0  0  0
   -6.4196   -2.6792   -1.9039 H   0  0  0  0  0  0  0  0  0  0  0  0
   -4.7411   -2.8597   -2.4569 H   0  0  0  0  0  0  0  0  0  0  0  0
   -5.3541   -3.8612   -1.1178 H   0  0  0  0  0  0  0  0  0  0  0  0
  1  2  2  0  0  0  0
  1  3  1  0  0  0  0
  1  7  1  0  0  0  0
  3  4  1  0  0  0  0
  3  5  1  0  0  0  0
  3  6  1  0  0  0  0
  7  8  1  0  0  0  0
  7 12  1  0  0  0  0
  8  9  1  0  0  0  0
  8 11  1  0  0  0  0
  8 13  1  0  0  0  0
  9 10  2  0  0  0  0
  9 17  1  0  0  0  0
 11 14  1  0  0  0  0
 11 15  1  0  0  0  0
 11 16  1  0  0  0  0
 17 18  1  0  0  0  0
 17 23  1  0  0  0  0
 18 19  1  0  0  0  0
 18 21  1  0  0  0  0
 18 24  1  0  0  0  0
 19 20  2  0  0  0  0
 19 28  1  0  0  0  0
 21 22  1  0  0  0  0
 21 25  1  0  0  0  0
 21 26  1  0  0  0  0
 22 27  1  0  0  0  0
 28 29  1  0  0  0  0
 28 33  1  0  0  0  0
 29 30  1  0  0  0  0
 29 32  1  0  0  0  0
 29 34  1  0  0  0  0
 30 31  2  0  0  0  0
 30 38  1  0  0  0  0
 32 35  1  0  0  0  0
 32 36  1  0  0  0  0
 32 37  1  0  0  0  0
 38 39  1  0  0  0  0
 38 40  1  0  0  0  0
 39 41  1  0  0  0  0
 39 42  1  0  0  0  0
 39 43  1  0  0  0  0
M  END
$$$$

  -OEChem-05262217303D

 43 42  0     1  0  0  0  0  0999 V2000
    3.9290   -1.8401    3.9661 C   0  0  0  0  0  0  0  0  0  0  0  0
    3.2482   -1.4016    4.8806 O   0  0  0  0  0  0  0  0  0  0  0  0
    4.9314   -2.9491    4.2241 C   0  0  0  0  0  0  0  0  0  0  0  0
    5.9343   -2.6206    3.9406 H   0  0  0  0  0  0  0  0  0  0  0  0
    4.9342   -3.2153    5.2848 H   0  0  0  0  0  0  0  0  0  0  0  0
    4.6663   -3.8333    3.6396 H   0  0  0  0  0  0  0  0  0  0  0  0
    3.7783   -1.3337    2.6927 N   0  0  0  0  0  0  0  0  0  0  0  0
    2.7275   -0.3875    2.2991 C   0  0  2  0  0  0  0  0  0  0  0  0
    2.2627   -0.6254    0.8468 C   0  0  0  0  0  0  0  0  0  0  0  0
    3.0105   -1.2050    0.0705 O   0  0  0  0  0  0  0  0  0  0  0  0
    3.2737    1.0334    2.4688 C   0  0  0  0  0  0  0  0  0  0  0  0
    4.2741   -1.8072    1.9374 H   0  0  0  0  0  0  0  0  0  0  0  0
    1.8539   -0.5199    2.9460 H   0  0  0  0  0  0  0  0  0  0  0  0
    4.1426    1.1881    1.8210 H   0  0  0  0  0  0  0  0  0  0  0  0
    2.5106    1.7739    2.2120 H   0  0  0  0  0  0  0  0  0  0  0  0
    3.5793    1.2001    3.5068 H   0  0  0  0  0  0  0  0  0  0  0  0
    1.0673   -0.0688    0.4171 N   0  0  0  0  0  0  0  0  0  0  0  0
    0.2903   -0.3819   -0.8134 C   0  0  2  0  0  0  0  0  0  0  0  0
   -1.2220   -0.1706   -0.6484 C   0  0  0  0  0  0  0  0  0  0  0  0
   -1.9184   -0.0412   -1.6464 O   0  0  0  0  0  0  0  0  0  0  0  0
    0.3928   -1.8716   -1.2354 C   0  0  0  0  0  0  0  0  0  0  0  0
   -0.2219   -2.7447   -0.2656 O   0  0  0  0  0  0  0  0  0  0  0  0
    0.6167    0.5384    1.0947 H   0  0  0  0  0  0  0  0  0  0  0  0
    0.6481    0.2481   -1.6332 H   0  0  0  0  0  0  0  0  0  0  0  0
    1.4275   -2.1716   -1.4074 H   0  0  0  0  0  0  0  0  0  0  0  0
   -0.1193   -2.0062   -2.1945 H   0  0  0  0  0  0  0  0  0  0  0  0
   -1.2093   -2.7155   -0.2880 H   0  0  0  0  0  0  0  0  0  0  0  0
   -1.7824   -0.0405    0.6145 N   0  0  0  0  0  0  0  0  0  0  0  0
   -3.2268   -0.2497    0.8344 C   0  0  2  0  0  0  0  0  0  0  0  0
   -3.7204   -1.5916    0.2279 C   0  0  0  0  0  0  0  0  0  0  0  0
   -2.9647   -2.5606    0.2260 O   0  0  0  0  0  0  0  0  0  0  0  0
   -4.0297    0.9736    0.3593 C   0  0  0  0  0  0  0  0  0  0  0  0
   -1.1786   -0.4170    1.3404 H   0  0  0  0  0  0  0  0  0  0  0  0
   -3.3873   -0.3321    1.9136 H   0  0  0  0  0  0  0  0  0  0  0  0
   -4.0280    1.0518   -0.7320 H   0  0  0  0  0  0  0  0  0  0  0  0
   -5.0678    0.9038    0.6978 H   0  0  0  0  0  0  0  0  0  0  0  0
   -3.5972    1.8906    0.7712 H   0  0  0  0  0  0  0  0  0  0  0  0
   -4.9934   -1.7311   -0.2942 N   0  0  0  0  0  0  0  0  0  0  0  0
   -5.4366   -2.9373   -0.9833 C   0  0  0  0  0  0  0  0  0  0  0  0
   -5.5316   -0.8789   -0.4178 H   0  0  0  0  0  0  0  0  0  0  0  0
   -6.4806   -2.8333   -1.2945 H   0  0  0  0  0  0  0  0  0  0  0  0
   -4.8249   -3.1166   -1.8741 H   0  0  0  0  0  0  0  0  0  0  0  0
   -5.3603   -3.8071   -0.3222 H   0  0  0  0  0  0  0  0  0  0  0  0
  1  2  2  0  0  0  0
  1  3  1  0  0  0  0
  1  7  1  0  0  0  0
  3  4  1  0  0  0  0
  3  5  1  0  0  0  0
  3  6  1  0  0  0  0
  7  8  1  0  0  0  0
  7 12  1  0  0  0  0
  8  9  1  0  0  0  0
  8 11  1  0  0  0  0
  8 13  1  0  0  0  0
  9 10  2  0  0  0  0
  9 17  1  0  0  0  0
 11 14  1  0  0  0  0
 11 15  1  0  0  0  0
 11 16  1  0  0  0  0
 17 18  1  0  0  0  0
 17 23  1  0  0  0  0
 18 19  1  0  0  0  0
 18 21  1  0  0  0  0
 18 24  1  0  0  0  0
 19 20  2  0  0  0  0
 19 28  1  0  0  0  0
 21 22  1  0  0  0  0
 21 25  1  0  0  0  0
 21 26  1  0  0  0  0
 22 27  1  0  0  0  0
 28 29  1  0  0  0  0
 28 33  1  0  0  0  0
 29 30  1  0  0  0  0
 29 32  1  0  0  0  0
 29 34  1  0  0  0  0
 30 31  2  0  0  0  0
 30 38  1  0  0  0  0
 32 35  1  0  0  0  0
 32 36  1  0  0  0  0
 32 37  1  0  0  0  0
 38 39  1  0  0  0  0
 38 40  1  0  0  0  0
 39 41  1  0  0  0  0
 39 42  1  0  0  0  0
 39 43  1  0  0  0  0
M  END
$$$$

  -OEChem-05262217303D

 43 42  0     1  0  0  0  0  0999 V2000
    3.9254   -1.8283    3.9885 C   0  0  0  0  0  0  0  0  0  0  0  0
    3.2558   -1.3640    4.8984 O   0  0  0  0  0  0  0  0  0  0  0  0
    4.9316   -2.9290    4.2662 C   0  0  0  0  0  0  0  0  0  0  0  0
    5.9302   -2.6087    3.9587 H   0  0  0  0  0  0  0  0  0  0  0  0
    4.9501   -3.1628    5.3345 H   0  0  0  0  0  0  0  0  0  0  0  0
    4.6588   -3.8310    3.7126 H   0  0  0  0  0  0  0  0  0  0  0  0
    3.7632   -1.3535    2.7046 N   0  0  0  0  0  0  0  0  0  0  0  0
    2.7209   -0.4025    2.3004 C   0  0  2  0  0  0  0  0  0  0  0  0
    2.2717   -0.6358    0.8425 C   0  0  0  0  0  0  0  0  0  0  0  0
    3.0300   -1.2100    0.0718 O   0  0  0  0  0  0  0  0  0  0  0  0
    3.2704    1.0169    2.4764 C   0  0  0  0  0  0  0  0  0  0  0  0
    4.2556   -1.8403    1.9557 H   0  0  0  0  0  0  0  0  0  0  0  0
    1.8399   -0.5333    2.9379 H   0  0  0  0  0  0  0  0  0  0  0  0
    4.1473    1.1684    1.8386 H   0  0  0  0  0  0  0  0  0  0  0  0
    2.5131    1.7601    2.2106 H   0  0  0  0  0  0  0  0  0  0  0  0
    3.5649    1.1829    3.5177 H   0  0  0  0  0  0  0  0  0  0  0  0
    1.0883   -0.0647    0.3978 N   0  0  0  0  0  0  0  0  0  0  0  0
    0.3149   -0.3807   -0.8358 C   0  0  2  0  0  0  0  0  0  0  0  0
   -1.2023   -0.1502   -0.7095 C   0  0  0  0  0  0  0  0  0  0  0  0
   -1.9028   -0.2432   -1.7096 O   0  0  0  0  0  0  0  0  0  0  0  0
    0.4048   -1.8868   -1.2100 C   0  0  0  0  0  0  0  0  0  0  0  0
   -0.2340   -2.7189   -0.2188 O   0  0  0  0  0  0  0  0  0  0  0  0
    0.6456    0.5505    1.0707 H   0  0  0  0  0  0  0  0  0  0  0  0
    0.6958    0.2227   -1.6648 H   0  0  0  0  0  0  0  0  0  0  0  0
    1.4363   -2.2087   -1.3590 H   0  0  0  0  0  0  0  0  0  0  0  0
   -0.0936   -2.0493   -2.1718 H   0  0  0  0  0  0  0  0  0  0  0  0
   -1.2103   -2.5952   -0.1785 H   0  0  0  0  0  0  0  0  0  0  0  0
   -1.7695    0.3062    0.4727 N   0  0  0  0  0  0  0  0  0  0  0  0
   -3.2168    0.1576    0.7273 C   0  0  2  0  0  0  0  0  0  0  0  0
   -3.7182   -1.2866    0.4454 C   0  0  0  0  0  0  0  0  0  0  0  0
   -2.9589   -2.2338    0.6371 O   0  0  0  0  0  0  0  0  0  0  0  0
   -4.0110    1.2402   -0.0231 C   0  0  0  0  0  0  0  0  0  0  0  0
   -1.1779    0.1425    1.2796 H   0  0  0  0  0  0  0  0  0  0  0  0
   -3.3817    0.3278    1.7954 H   0  0  0  0  0  0  0  0  0  0  0  0
   -4.0164    1.0533   -1.1012 H   0  0  0  0  0  0  0  0  0  0  0  0
   -5.0472    1.2658    0.3275 H   0  0  0  0  0  0  0  0  0  0  0  0
   -3.5658    2.2237    0.1547 H   0  0  0  0  0  0  0  0  0  0  0  0
   -5.0030   -1.5368   -0.0021 N   0  0  0  0  0  0  0  0  0  0  0  0
   -5.4530   -2.8638   -0.4052 C   0  0  0  0  0  0  0  0  0  0  0  0
   -5.5485   -0.7323   -0.2962 H   0  0  0  0  0  0  0  0  0  0  0  0
   -6.5053   -2.8312   -0.7034 H   0  0  0  0  0  0  0  0  0  0  0  0
   -4.8625   -3.2271   -1.2530 H   0  0  0  0  0  0  0  0  0  0  0  0
   -5.3521   -3.5717    0.4242 H   0  0  0  0  0  0  0  0  0  0  0  0
  1  2  2  0  0  0  0
  1  3  1  0  0  0  0
  1  7  1  0  0  0  0
  3  4  1  0  0  0  0
  3  5  1  0  0  0  0
  3  6  1  0  0  0  0
  7  8  1  0  0  0  0
  7 12  1  0  0  0  0
  8  9  1  0  0  0  0
  8 11  1  0  0  0  0
  8 13  1  0  0  0  0
  9 10  2  0  0  0  0
  9 17  1  0  0  0  0
 11 14  1  0  0  0  0
 11 15  1  0  0  0  0
 11 16  1  0  0  0  0
 17 18  1  0  0  0  0
 17 23  1  0  0  0  0
 18 19  1  0  0  0  0
 18 21  1  0  0  0  0
 18 24  1  0  0  0  0
 19 20  2  0  0  0  0
 19 28  1  0  0  0  0
 21 22  1  0  0  0  0
 21 25  1  0  0  0  0
 21 26  1  0  0  0  0
 22 27  1  0  0  0  0
 28 29  1  0  0  0  0
 28 33  1  0  0  0  0
 29 30  1  0  0  0  0
 29 32  1  0  0  0  0
 29 34  1  0  0  0  0
 30 31  2  0  0  0  0
 30 38  1  0  0  0  0
 32 35  1  0  0  0  0
 32 36  1  0  0  0  0
 32 37  1  0  0  0  0
 38 39  1  0  0  0  0
 38 40  1  0  0  0  0
 39 41  1  0  0  0  0
 39 42  1  0  0  0  0
 39 43  1  0  0  0  0
M  END
$$$$

  -OEChem-05262217303D

 43 42  0     1  0  0  0  0  0999 V2000
    3.7591   -2.1845    3.6813 C   0  0  0  0  0  0  0  0  0  0  0  0
    2.9428   -2.1357    4.5878 O   0  0  0  0  0  0  0  0  0  0  0  0
    4.9486   -3.1212    3.7754 C   0  0  0  0  0  0  0  0  0  0  0  0
    5.8789   -2.5547    3.6899 H   0  0  0  0  0  0  0  0  0  0  0  0
    4.9417   -3.6432    4.7363 H   0  0  0  0  0  0  0  0  0  0  0  0
    4.9051   -3.8608    2.9720 H   0  0  0  0  0  0  0  0  0  0  0  0
    3.5948   -1.3928    2.5649 N   0  0  0  0  0  0  0  0  0  0  0  0
    2.3979   -0.5871    2.2932 C   0  0  2  0  0  0  0  0  0  0  0  0
    2.1529   -0.4356    0.7770 C   0  0  0  0  0  0  0  0  0  0  0  0
    3.0538   -0.6816   -0.0167 O   0  0  0  0  0  0  0  0  0  0  0  0
    2.5743    0.7844    2.9540 C   0  0  0  0  0  0  0  0  0  0  0  0
    4.2307   -1.5476    1.7828 H   0  0  0  0  0  0  0  0  0  0  0  0
    1.5190   -1.0854    2.7177 H   0  0  0  0  0  0  0  0  0  0  0  0
    3.4428    1.3014    2.5332 H   0  0  0  0  0  0  0  0  0  0  0  0
    1.6879    1.4062    2.7982 H   0  0  0  0  0  0  0  0  0  0  0  0
    2.7262    0.6694    4.0322 H   0  0  0  0  0  0  0  0  0  0  0  0
    0.9669    0.1037    0.3048 N   0  0  0  0  0  0  0  0  0  0  0  0
    0.2825   -0.3838   -0.9244 C   0  0  2  0  0  0  0  0  0  0  0  0
   -1.2520   -0.1831   -0.8337 C   0  0  0  0  0  0  0  0  0  0  0  0
   -2.0185   -0.8607   -1.5086 O   0  0  0  0  0  0  0  0  0  0  0  0
    0.5378   -1.8876   -1.2139 C   0  0  0  0  0  0  0  0  0  0  0  0
   -0.0514   -2.7057   -0.1934 O   0  0  0  0  0  0  0  0  0  0  0  0
    0.3329    0.2689    1.0803 H   0  0  0  0  0  0  0  0  0  0  0  0
    0.6504    0.1955   -1.7765 H   0  0  0  0  0  0  0  0  0  0  0  0
    1.6040   -2.1078   -1.2961 H   0  0  0  0  0  0  0  0  0  0  0  0
    0.1030   -2.1538   -2.1831 H   0  0  0  0  0  0  0  0  0  0  0  0
   -1.0169   -2.7583   -0.3255 H   0  0  0  0  0  0  0  0  0  0  0  0
   -1.7812    0.6607    0.1345 N   0  0  0  0  0  0  0  0  0  0  0  0
   -3.2110    0.9314    0.3979 C   0  0  2  0  0  0  0  0  0  0  0  0
   -3.9914   -0.2625    0.9933 C   0  0  0  0  0  0  0  0  0  0  0  0
   -4.5035   -0.1510    2.0985 O   0  0  0  0  0  0  0  0  0  0  0  0
   -3.9181    1.4912   -0.8456 C   0  0  0  0  0  0  0  0  0  0  0  0
   -1.1167    1.2964    0.5643 H   0  0  0  0  0  0  0  0  0  0  0  0
   -3.2472    1.7186    1.1582 H   0  0  0  0  0  0  0  0  0  0  0  0
   -4.0251    0.7289   -1.6231 H   0  0  0  0  0  0  0  0  0  0  0  0
   -4.9192    1.8447   -0.5781 H   0  0  0  0  0  0  0  0  0  0  0  0
   -3.3541    2.3331   -1.2584 H   0  0  0  0  0  0  0  0  0  0  0  0
   -4.1015   -1.4577    0.3114 N   0  0  0  0  0  0  0  0  0  0  0  0
   -4.7726   -2.6378    0.8392 C   0  0  0  0  0  0  0  0  0  0  0  0
   -3.5958   -1.5176   -0.5756 H   0  0  0  0  0  0  0  0  0  0  0  0
   -4.7969   -3.4287    0.0832 H   0  0  0  0  0  0  0  0  0  0  0  0
   -4.2447   -3.0152    1.7213 H   0  0  0  0  0  0  0  0  0  0  0  0
   -5.8037   -2.3983    1.1202 H   0  0  0  0  0  0  0  0  0  0  0  0
  1  2  2  0  0  0  0
  1  3  1  0  0  0  0
  1  7  1  0  0  0  0
  3  4  1  0  0  0  0
  3  5  1  0  0  0  0
  3  6  1  0  0  0  0
  7  8  1  0  0  0  0
  7 12  1  0  0  0  0
  8  9  1  0  0  0  0
  8 11  1  0  0  0  0
  8 13  1  0  0  0  0
  9 10  2  0  0  0  0
  9 17  1  0  0  0  0
 11 14  1  0  0  0  0
 11 15  1  0  0  0  0
 11 16  1  0  0  0  0
 17 18  1  0  0  0  0
 17 23  1  0  0  0  0
 18 19  1  0  0  0  0
 18 21  1  0  0  0  0
 18 24  1  0  0  0  0
 19 20  2  0  0  0  0
 19 28  1  0  0  0  0
 21 22  1  0  0  0  0
 21 25  1  0  0  0  0
 21 26  1  0  0  0  0
 22 27  1  0  0  0  0
 28 29  1  0  0  0  0
 28 33  1  0  0  0  0
 29 30  1  0  0  0  0
 29 32  1  0  0  0  0
 29 34  1  0  0  0  0
 30 31  2  0  0  0  0
 30 38  1  0  0  0  0
 32 35  1  0  0  0  0
 32 36  1  0  0  0  0
 32 37  1  0  0  0  0
 38 39  1  0  0  0  0
 38 40  1  0  0  0  0
 39 41  1  0  0  0  0
 39 42  1  0  0  0  0
 39 43  1  0  0  0  0
M  END
$$$$

  -OEChem-05262217303D

 43 42  0     1  0  0  0  0  0999 V2000
    3.6467   -2.1524    3.7523 C   0  0  0  0  0  0  0  0  0  0  0  0
    2.8079   -2.0955    4.6375 O   0  0  0  0  0  0  0  0  0  0  0  0
    4.8371   -3.0832    3.8880 C   0  0  0  0  0  0  0  0  0  0  0  0
    5.7673   -2.5175    3.7967 H   0  0  0  0  0  0  0  0  0  0  0  0
    4.8201   -3.5772    4.8635 H   0  0  0  0  0  0  0  0  0  0  0  0
    4.8045   -3.8459    3.1062 H   0  0  0  0  0  0  0  0  0  0  0  0
    3.5076   -1.3759    2.6216 N   0  0  0  0  0  0  0  0  0  0  0  0
    2.3171   -0.5765    2.3069 C   0  0  2  0  0  0  0  0  0  0  0  0
    2.1140   -0.4479    0.7819 C   0  0  0  0  0  0  0  0  0  0  0  0
    3.0410   -0.6951    0.0194 O   0  0  0  0  0  0  0  0  0  0  0  0
    2.4745    0.8038    2.9533 C   0  0  0  0  0  0  0  0  0  0  0  0
    4.1668   -1.5347    1.8600 H   0  0  0  0  0  0  0  0  0  0  0  0
    1.4279   -1.0696    2.7154 H   0  0  0  0  0  0  0  0  0  0  0  0
    3.3484    1.3204    2.5434 H   0  0  0  0  0  0  0  0  0  0  0  0
    1.5881    1.4188    2.7733 H   0  0  0  0  0  0  0  0  0  0  0  0
    2.6065    0.7024    4.0354 H   0  0  0  0  0  0  0  0  0  0  0  0
    0.9407    0.0804    0.2681 N   0  0  0  0  0  0  0  0  0  0  0  0
    0.3076   -0.3874   -0.9953 C   0  0  2  0  0  0  0  0  0  0  0  0
   -1.2285   -0.1936   -0.9261 C   0  0  0  0  0  0  0  0  0  0  0  0
   -2.0110   -1.0012   -1.4162 O   0  0  0  0  0  0  0  0  0  0  0  0
    0.6003   -1.8751   -1.3298 C   0  0  0  0  0  0  0  0  0  0  0  0
   -0.0010   -2.7422   -0.3592 O   0  0  0  0  0  0  0  0  0  0  0  0
    0.2751    0.2607    1.0152 H   0  0  0  0  0  0  0  0  0  0  0  0
    0.6904    0.2223   -1.8186 H   0  0  0  0  0  0  0  0  0  0  0  0
    1.6723   -2.0723   -1.3929 H   0  0  0  0  0  0  0  0  0  0  0  0
    0.1924   -2.1117   -2.3185 H   0  0  0  0  0  0  0  0  0  0  0  0
   -0.9704   -2.7428   -0.4840 H   0  0  0  0  0  0  0  0  0  0  0  0
   -1.7297    0.8523   -0.1635 N   0  0  0  0  0  0  0  0  0  0  0  0
   -3.1489    1.1820    0.0861 C   0  0  2  0  0  0  0  0  0  0  0  0
   -3.8960    0.1486    0.9595 C   0  0  0  0  0  0  0  0  0  0  0  0
   -4.3084    0.4836    2.0613 O   0  0  0  0  0  0  0  0  0  0  0  0
   -3.9010    1.4572   -1.2240 C   0  0  0  0  0  0  0  0  0  0  0  0
   -1.0415    1.5350    0.1422 H   0  0  0  0  0  0  0  0  0  0  0  0
   -3.1609    2.1174    0.6558 H   0  0  0  0  0  0  0  0  0  0  0  0
   -4.0238    0.5453   -1.8151 H   0  0  0  0  0  0  0  0  0  0  0  0
   -4.8964    1.8567   -1.0064 H   0  0  0  0  0  0  0  0  0  0  0  0
   -3.3586    2.1918   -1.8261 H   0  0  0  0  0  0  0  0  0  0  0  0
   -4.0624   -1.1557    0.5394 N   0  0  0  0  0  0  0  0  0  0  0  0
   -4.6469   -2.2040    1.3648 C   0  0  0  0  0  0  0  0  0  0  0  0
   -3.5935   -1.4069   -0.3339 H   0  0  0  0  0  0  0  0  0  0  0  0
   -4.7100   -3.1381    0.7985 H   0  0  0  0  0  0  0  0  0  0  0  0
   -4.0335   -2.3770    2.2551 H   0  0  0  0  0  0  0  0  0  0  0  0
   -5.6571   -1.9244    1.6817 H   0  0  0  0  0  0  0  0  0  0  0  0
  1  2  2  0  0  0  0
  1  3  1  0  0  0  0
  1  7  1  0  0  0  0
  3  4  1  0  0  0  0
  3  5  1  0  0  0  0
  3  6  1  0  0  0  0
  7  8  1  0  0  0  0
  7 12  1  0  0  0  0
  8  9  1  0  0  0  0
  8 11  1  0  0  0  0
  8 13  1  0  0  0  0
  9 10  2  0  0  0  0
  9 17  1  0  0  0  0
 11 14  1  0  0  0  0
 11 15  1  0  0  0  0
 11 16  1  0  0  0  0
 17 18  1  0  0  0  0
 17 23  1  0  0  0  0
 18 19  1  0  0  0  0
 18 21  1  0  0  0  0
 18 24  1  0  0  0  0
 19 20  2  0  0  0  0
 19 28  1  0  0  0  0
 21 22  1  0  0  0  0
 21 25  1  0  0  0  0
 21 26  1  0  0  0  0
 22 27  1  0  0  0  0
 28 29  1  0  0  0  0
 28 33  1  0  0  0  0
 29 30  1  0  0  0  0
 29 32  1  0  0  0  0
 29 34  1  0  0  0  0
 30 31  2  0  0  0  0
 30 38  1  0  0  0  0
 32 35  1  0  0  0  0
 32 36  1  0  0  0  0
 32 37  1  0  0  0  0
 38 39  1  0  0  0  0
 38 40  1  0  0  0  0
 39 41  1  0  0  0  0
 39 42  1  0  0  0  0
 39 43  1  0  0  0  0
M  END
$$$$

  -OEChem-05262217303D

 43 42  0     1  0  0  0  0  0999 V2000
    3.4677   -2.1518    3.8048 C   0  0  0  0  0  0  0  0  0  0  0  0
    2.5650   -2.1516    4.6269 O   0  0  0  0  0  0  0  0  0  0  0  0
    4.6886   -3.0279    4.0132 C   0  0  0  0  0  0  0  0  0  0  0  0
    5.5851   -2.4077    4.0844 H   0  0  0  0  0  0  0  0  0  0  0  0
    4.5850   -3.6055    4.9361 H   0  0  0  0  0  0  0  0  0  0  0  0
    4.7983   -3.7204    3.1752 H   0  0  0  0  0  0  0  0  0  0  0  0
    3.3746   -1.3598    2.6800 N   0  0  0  0  0  0  0  0  0  0  0  0
    2.1682   -0.6181    2.2917 C   0  0  2  0  0  0  0  0  0  0  0  0
    2.0563   -0.4802    0.7584 C   0  0  0  0  0  0  0  0  0  0  0  0
    3.0224   -0.7290    0.0466 O   0  0  0  0  0  0  0  0  0  0  0  0
    2.2063    0.7589    2.9635 C   0  0  0  0  0  0  0  0  0  0  0  0
    4.0853   -1.4861    1.9596 H   0  0  0  0  0  0  0  0  0  0  0  0
    1.2803   -1.1625    2.6323 H   0  0  0  0  0  0  0  0  0  0  0  0
    3.0757    1.3285    2.6201 H   0  0  0  0  0  0  0  0  0  0  0  0
    1.3014    1.3280    2.7325 H   0  0  0  0  0  0  0  0  0  0  0  0
    2.2704    0.6477    4.0505 H   0  0  0  0  0  0  0  0  0  0  0  0
    0.9114    0.0498    0.1867 N   0  0  0  0  0  0  0  0  0  0  0  0
    0.3424   -0.3968   -1.1118 C   0  0  2  0  0  0  0  0  0  0  0  0
   -1.1924   -0.1947   -1.0913 C   0  0  0  0  0  0  0  0  0  0  0  0
   -1.9855   -1.0925   -1.3588 O   0  0  0  0  0  0  0  0  0  0  0  0
    0.6656   -1.8719   -1.4723 C   0  0  0  0  0  0  0  0  0  0  0  0
    0.0371   -2.7763   -0.5557 O   0  0  0  0  0  0  0  0  0  0  0  0
    0.2099    0.2511    0.8957 H   0  0  0  0  0  0  0  0  0  0  0  0
    0.7568    0.2333   -1.9043 H   0  0  0  0  0  0  0  0  0  0  0  0
    1.7413   -2.0557   -1.5010 H   0  0  0  0  0  0  0  0  0  0  0  0
    0.2939   -2.0807   -2.4812 H   0  0  0  0  0  0  0  0  0  0  0  0
   -0.9338   -2.7135   -0.6674 H   0  0  0  0  0  0  0  0  0  0  0  0
   -1.6726    1.0088   -0.5963 N   0  0  0  0  0  0  0  0  0  0  0  0
   -3.0796    1.3766   -0.3352 C   0  0  2  0  0  0  0  0  0  0  0  0
   -3.7172    0.5941    0.8342 C   0  0  0  0  0  0  0  0  0  0  0  0
   -4.0445    1.1935    1.8488 O   0  0  0  0  0  0  0  0  0  0  0  0
   -3.9375    1.2856   -1.6055 C   0  0  0  0  0  0  0  0  0  0  0  0
   -0.9660    1.7118   -0.3921 H   0  0  0  0  0  0  0  0  0  0  0  0
   -3.0820    2.4290   -0.0321 H   0  0  0  0  0  0  0  0  0  0  0  0
   -4.0884    0.2476   -1.9150 H   0  0  0  0  0  0  0  0  0  0  0  0
   -4.9207    1.7310   -1.4242 H   0  0  0  0  0  0  0  0  0  0  0  0
   -3.4593    1.8274   -2.4267 H   0  0  0  0  0  0  0  0  0  0  0  0
   -3.8431   -0.7795    0.7850 N   0  0  0  0  0  0  0  0  0  0  0  0
   -4.3000   -1.5930    1.9034 C   0  0  0  0  0  0  0  0  0  0  0  0
   -3.4415   -1.2371   -0.0365 H   0  0  0  0  0  0  0  0  0  0  0  0
   -4.3154   -2.6495    1.6192 H   0  0  0  0  0  0  0  0  0  0  0  0
   -3.6311   -1.4742    2.7620 H   0  0  0  0  0  0  0  0  0  0  0  0
   -5.3121   -1.3007    2.2021 H   0  0  0  0  0  0  0  0  0  0  0  0
  1  2  2  0  0  0  0
  1  3  1  0  0  0  0
  1  7  1  0  0  0  0
  3  4  1  0  0  0  0
  3  5  1  0  0  0  0
  3  6  1  0  0  0  0
  7  8  1  0  0  0  0
  7 12  1  0  0  0  0
  8  9  1  0  0  0  0
  8 11  1  0  0  0  0
  8 13  1  0  0  0  0
  9 10  2  0  0  0  0
  9 17  1  0  0  0  0
 11 14  1  0  0  0  0
 11 15  1  0  0  0  0
 11 16  1  0  0  0  0
 17 18  1  0  0  0  0
 17 23  1  0  0  0  0
 18 19  1  0  0  0  0
 18 21  1  0  0  0  0
 18 24  1  0  0  0  0
 19 20  2  0  0  0  0
 19 28  1  0  0  0  0
 21 22  1  0  0  0  0
 21 25  1  0  0  0  0
 21 26  1  0  0  0  0
 22 27  1  0  0  0  0
 28 29  1  0  0  0  0
 28 33  1  0  0  0  0
 29 30  1  0  0  0  0
 29 32  1  0  0  0  0
 29 34  1  0  0  0  0
 30 31  2  0  0  0  0
 30 38  1  0  0  0  0
 32 35  1  0  0  0  0
 32 36  1  0  0  0  0
 32 37  1  0  0  0  0
 38 39  1  0  0  0  0
 38 40  1  0  0  0  0
 39 41  1  0  0  0  0
 39 42  1  0  0  0  0
 39 43  1  0  0  0  0
M  END
$$$$

  -OEChem-05262217303D

 43 42  0     1  0  0  0  0  0999 V2000
    3.2387   -2.1098    3.8784 C   0  0  0  0  0  0  0  0  0  0  0  0
    2.2945   -2.1059    4.6525 O   0  0  0  0  0  0  0  0  0  0  0  0
    4.4637   -2.9538    4.1751 C   0  0  0  0  0  0  0  0  0  0  0  0
    5.3583   -2.3264    4.1730 H   0  0  0  0  0  0  0  0  0  0  0  0
    4.3671   -3.4259    5.1569 H   0  0  0  0  0  0  0  0  0  0  0  0
    4.5718   -3.7339    3.4176 H   0  0  0  0  0  0  0  0  0  0  0  0
    3.1934   -1.3456    2.7318 N   0  0  0  0  0  0  0  0  0  0  0  0
    2.0081   -0.6093    2.2753 C   0  0  2  0  0  0  0  0  0  0  0  0
    1.9810   -0.4742    0.7379 C   0  0  0  0  0  0  0  0  0  0  0  0
    2.9876   -0.7154    0.0819 O   0  0  0  0  0  0  0  0  0  0  0  0
    2.0031    0.7701    2.9435 C   0  0  0  0  0  0  0  0  0  0  0  0
    3.9435   -1.4731    2.0529 H   0  0  0  0  0  0  0  0  0  0  0  0
    1.1054   -1.1568    2.5683 H   0  0  0  0  0  0  0  0  0  0  0  0
    2.8873    1.3424    2.6451 H   0  0  0  0  0  0  0  0  0  0  0  0
    1.1093    1.3340    2.6610 H   0  0  0  0  0  0  0  0  0  0  0  0
    2.0091    0.6638    4.0331 H   0  0  0  0  0  0  0  0  0  0  0  0
    0.8616    0.0380    0.1038 N   0  0  0  0  0  0  0  0  0  0  0  0
    0.3743   -0.3959   -1.2298 C   0  0  2  0  0  0  0  0  0  0  0  0
   -1.1611   -0.2190   -1.2791 C   0  0  0  0  0  0  0  0  0  0  0  0
   -1.9403   -1.1672   -1.3062 O   0  0  0  0  0  0  0  0  0  0  0  0
    0.7577   -1.8526   -1.6086 C   0  0  0  0  0  0  0  0  0  0  0  0
    0.1166   -2.8051   -0.7515 O   0  0  0  0  0  0  0  0  0  0  0  0
    0.1219    0.2547    0.7687 H   0  0  0  0  0  0  0  0  0  0  0  0
    0.8163    0.2592   -1.9862 H   0  0  0  0  0  0  0  0  0  0  0  0
    1.8391   -2.0048   -1.5960 H   0  0  0  0  0  0  0  0  0  0  0  0
    0.4336   -2.0420   -2.6373 H   0  0  0  0  0  0  0  0  0  0  0  0
   -0.8552   -2.6894   -0.8246 H   0  0  0  0  0  0  0  0  0  0  0  0
   -1.6555    1.0622   -1.0912 N   0  0  0  0  0  0  0  0  0  0  0  0
   -3.0462    1.4313   -0.7607 C   0  0  2  0  0  0  0  0  0  0  0  0
   -3.4841    0.9167    0.6289 C   0  0  0  0  0  0  0  0  0  0  0  0
   -3.5469    1.7039    1.5629 O   0  0  0  0  0  0  0  0  0  0  0  0
   -4.0310    1.0203   -1.8662 C   0  0  0  0  0  0  0  0  0  0  0  0
   -0.9519    1.7900   -0.9877 H   0  0  0  0  0  0  0  0  0  0  0  0
   -3.0849    2.5244   -0.7050 H   0  0  0  0  0  0  0  0  0  0  0  0
   -4.1356   -0.0661   -1.9325 H   0  0  0  0  0  0  0  0  0  0  0  0
   -5.0197    1.4431   -1.6613 H   0  0  0  0  0  0  0  0  0  0  0  0
   -3.6897    1.3956   -2.8358 H   0  0  0  0  0  0  0  0  0  0  0  0
   -3.6640   -0.4320    0.8648 N   0  0  0  0  0  0  0  0  0  0  0  0
   -3.8801   -0.9961    2.1911 C   0  0  0  0  0  0  0  0  0  0  0  0
   -3.3951   -1.0547    0.0998 H   0  0  0  0  0  0  0  0  0  0  0  0
   -4.0355   -2.0769    2.1204 H   0  0  0  0  0  0  0  0  0  0  0  0
   -3.0131   -0.8110    2.8336 H   0  0  0  0  0  0  0  0  0  0  0  0
   -4.7655   -0.5512    2.6572 H   0  0  0  0  0  0  0  0  0  0  0  0
  1  2  2  0  0  0  0
  1  3  1  0  0  0  0
  1  7  1  0  0  0  0
  3  4  1  0  0  0  0
  3  5  1  0  0  0  0
  3  6  1  0  0  0  0
  7  8  1  0  0  0  0
  7 12  1  0  0  0  0
  8  9  1  0  0  0  0
  8 11  1  0  0  0  0
  8 13  1  0  0  0  0
  9 10  2  0  0  0  0
  9 17  1  0  0  0  0
 11 14  1  0  0  0  0
 11 15  1  0  0  0  0
 11 16  1  0  0  0  0
 17 18  1  0  0  0  0
 17 23  1  0  0  0  0
 18 19  1  0  0  0  0
 18 21  1  0  0  0  0
 18 24  1  0  0  0  0
 19 20  2  0  0  0  0
 19 28  1  0  0  0  0
 21 22  1  0  0  0  0
 21 25  1  0  0  0  0
 21 26  1  0  0  0  0
 22 27  1  0  0  0  0
 28 29  1  0  0  0  0
 28 33  1  0  0  0  0
 29 30  1  0  0  0  0
 29 32  1  0  0  0  0
 29 34  1  0  0  0  0
 30 31  2  0  0  0  0
 30 38  1  0  0  0  0
 32 35  1  0  0  0  0
 32 36  1  0  0  0  0
 32 37  1  0  0  0  0
 38 39  1  0  0  0  0
 38 40  1  0  0  0  0
 39 41  1  0  0  0  0
 39 42  1  0  0  0  0
 39 43  1  0  0  0  0
M  END
$$$$

  -OEChem-05262217303D

 43 42  0     1  0  0  0  0  0999 V2000
    2.8914   -1.9797    3.9401 C   0  0  0  0  0  0  0  0  0  0  0  0
    1.8648   -2.0573    4.5969 O   0  0  0  0  0  0  0  0  0  0  0  0
    4.1187   -2.7703    4.3523 C   0  0  0  0  0  0  0  0  0  0  0  0
    4.9253   -2.0874    4.6295 H   0  0  0  0  0  0  0  0  0  0  0  0
    3.8855   -3.4090    5.2087 H   0  0  0  0  0  0  0  0  0  0  0  0
    4.4521   -3.4005    3.5242 H   0  0  0  0  0  0  0  0  0  0  0  0
    2.9415   -1.1781    2.8200 N   0  0  0  0  0  0  0  0  0  0  0  0
    1.7704   -0.5335    2.2125 C   0  0  2  0  0  0  0  0  0  0  0  0
    1.9189   -0.4272    0.6799 C   0  0  0  0  0  0  0  0  0  0  0  0
    3.0133   -0.6059    0.1556 O   0  0  0  0  0  0  0  0  0  0  0  0
    1.5940    0.8512    2.8427 C   0  0  0  0  0  0  0  0  0  0  0  0
    3.7724   -1.2500    2.2335 H   0  0  0  0  0  0  0  0  0  0  0  0
    0.8746   -1.1333    2.4083 H   0  0  0  0  0  0  0  0  0  0  0  0
    2.4694    1.4772    2.6431 H   0  0  0  0  0  0  0  0  0  0  0  0
    0.7079    1.3484    2.4368 H   0  0  0  0  0  0  0  0  0  0  0  0
    1.4685    0.7603    3.9262 H   0  0  0  0  0  0  0  0  0  0  0  0
    0.8413   -0.0223   -0.0849 N   0  0  0  0  0  0  0  0  0  0  0  0
    0.5754   -0.3716   -1.4996 C   0  0  2  0  0  0  0  0  0  0  0  0
   -0.9554   -0.3762   -1.6956 C   0  0  0  0  0  0  0  0  0  0  0  0
   -1.6284   -1.3934   -1.5602 O   0  0  0  0  0  0  0  0  0  0  0  0
    1.1820   -1.7221   -1.9662 C   0  0  0  0  0  0  0  0  0  0  0  0
    0.5852   -2.8410   -1.2992 O   0  0  0  0  0  0  0  0  0  0  0  0
    0.0040    0.1715    0.4765 H   0  0  0  0  0  0  0  0  0  0  0  0
    1.0058    0.4078   -2.1335 H   0  0  0  0  0  0  0  0  0  0  0  0
    2.2667   -1.7441   -1.8395 H   0  0  0  0  0  0  0  0  0  0  0  0
    0.9942   -1.8276   -3.0394 H   0  0  0  0  0  0  0  0  0  0  0  0
   -0.3932   -2.7355   -1.3162 H   0  0  0  0  0  0  0  0  0  0  0  0
   -1.5854    0.8572   -1.7577 N   0  0  0  0  0  0  0  0  0  0  0  0
   -2.8684    1.1012   -1.0692 C   0  0  2  0  0  0  0  0  0  0  0  0
   -2.7864    0.7293    0.4365 C   0  0  0  0  0  0  0  0  0  0  0  0
   -1.7219    0.8824    1.0333 O   0  0  0  0  0  0  0  0  0  0  0  0
   -4.0419    0.4354   -1.8083 C   0  0  0  0  0  0  0  0  0  0  0  0
   -0.9315    1.6355   -1.7265 H   0  0  0  0  0  0  0  0  0  0  0  0
   -3.0542    2.1790   -1.1018 H   0  0  0  0  0  0  0  0  0  0  0  0
   -4.0294   -0.6511   -1.6830 H   0  0  0  0  0  0  0  0  0  0  0  0
   -4.9947    0.8132   -1.4260 H   0  0  0  0  0  0  0  0  0  0  0  0
   -3.9894    0.6606   -2.8779 H   0  0  0  0  0  0  0  0  0  0  0  0
   -3.8845    0.2643    1.1361 N   0  0  0  0  0  0  0  0  0  0  0  0
   -3.8133   -0.1728    2.5256 C   0  0  0  0  0  0  0  0  0  0  0  0
   -4.7091    0.0239    0.5936 H   0  0  0  0  0  0  0  0  0  0  0  0
   -4.8062   -0.4621    2.8826 H   0  0  0  0  0  0  0  0  0  0  0  0
   -3.1447   -1.0347    2.6224 H   0  0  0  0  0  0  0  0  0  0  0  0
   -3.4417    0.6355    3.1641 H   0  0  0  0  0  0  0  0  0  0  0  0
  1  2  2  0  0  0  0
  1  3  1  0  0  0  0
  1  7  1  0  0  0  0
  3  4  1  0  0  0  0
  3  5  1  0  0  0  0
  3  6  1  0  0  0  0
  7  8  1  0  0  0  0
  7 12  1  0  0  0  0
  8  9  1  0  0  0  0
  8 11  1  0  0  0  0
  8 13  1  0  0  0  0
  9 10  2  0  0  0  0
  9 17  1  0  0  0  0
 11 14  1  0  0  0  0
 11 15  1  0  0  0  0
 11 16  1  0  0  0  0
 17 18  1  0  0  0  0
 17 23  1  0  0  0  0
 18 19  1  0  0  0  0
 18 21  1  0  0  0  0
 18 24  1  0  0  0  0
 19 20  2  0  0  0  0
 19 28  1  0  0  0  0
 21 22  1  0  0  0  0
 21 25  1  0  0  0  0
 21 26  1  0  0  0  0
 22 27  1  0  0  0  0
 28 29  1  0  0  0  0
 28 33  1  0  0  0  0
 29 30  1  0  0  0  0
 29 32  1  0  0  0  0
 29 34  1  0  0  0  0
 30 31  2  0  0  0  0
 30 38  1  0  0  0  0
 32 35  1  0  0  0  0
 32 36  1  0  0  0  0
 32 37  1  0  0  0  0
 38 39  1  0  0  0  0
 38 40  1  0  0  0  0
 39 41  1  0  0  0  0
 39 42  1  0  0  0  0
 39 43  1  0  0  0  0
M  END
$$$$

  -OEChem-05262217303D

 43 42  0     1  0  0  0  0  0999 V2000
    2.9716   -1.8517    4.0023 C   0  0  0  0  0  0  0  0  0  0  0  0
    1.9639   -1.8827    4.6913 O   0  0  0  0  0  0  0  0  0  0  0  0
    4.2179   -2.5941    4.4462 C   0  0  0  0  0  0  0  0  0  0  0  0
    5.0535   -1.8969    4.5429 H   0  0  0  0  0  0  0  0  0  0  0  0
    4.0459   -3.0746    5.4133 H   0  0  0  0  0  0  0  0  0  0  0  0
    4.4753   -3.3613    3.7122 H   0  0  0  0  0  0  0  0  0  0  0  0
    2.9811   -1.1469    2.8178 N   0  0  0  0  0  0  0  0  0  0  0  0
    1.7922   -0.5417    2.2037 C   0  0  2  0  0  0  0  0  0  0  0  0
    1.9162   -0.4893    0.6659 C   0  0  0  0  0  0  0  0  0  0  0  0
    3.0059   -0.6760    0.1355 O   0  0  0  0  0  0  0  0  0  0  0  0
    1.6038    0.8648    2.7817 C   0  0  0  0  0  0  0  0  0  0  0  0
    3.7978   -1.2530    2.2166 H   0  0  0  0  0  0  0  0  0  0  0  0
    0.9099   -1.1482    2.4365 H   0  0  0  0  0  0  0  0  0  0  0  0
    2.4691    1.4933    2.5485 H   0  0  0  0  0  0  0  0  0  0  0  0
    0.7073    1.3345    2.3658 H   0  0  0  0  0  0  0  0  0  0  0  0
    1.4910    0.8158    3.8692 H   0  0  0  0  0  0  0  0  0  0  0  0
    0.8208   -0.1225   -0.0933 N   0  0  0  0  0  0  0  0  0  0  0  0
    0.5690   -0.4103   -1.5228 C   0  0  2  0  0  0  0  0  0  0  0  0
   -0.9578   -0.4998   -1.7133 C   0  0  0  0  0  0  0  0  0  0  0  0
   -1.5850   -1.5013   -1.3812 O   0  0  0  0  0  0  0  0  0  0  0  0
    1.2347   -1.7008   -2.0674 C   0  0  0  0  0  0  0  0  0  0  0  0
    0.6942   -2.8826   -1.4629 O   0  0  0  0  0  0  0  0  0  0  0  0
   -0.0143    0.0989    0.4595 H   0  0  0  0  0  0  0  0  0  0  0  0
    0.9540    0.4250   -2.1136 H   0  0  0  0  0  0  0  0  0  0  0  0
    2.3206   -1.6793   -1.9505 H   0  0  0  0  0  0  0  0  0  0  0  0
    1.0414   -1.7533   -3.1438 H   0  0  0  0  0  0  0  0  0  0  0  0
   -0.2801   -2.7799   -1.3667 H   0  0  0  0  0  0  0  0  0  0  0  0
   -1.6414    0.6648   -2.0245 N   0  0  0  0  0  0  0  0  0  0  0  0
   -2.9344    0.9751   -1.3817 C   0  0  2  0  0  0  0  0  0  0  0  0
   -2.8621    0.8511    0.1672 C   0  0  0  0  0  0  0  0  0  0  0  0
   -1.8001    1.0778    0.7458 O   0  0  0  0  0  0  0  0  0  0  0  0
   -4.0745    0.1552   -2.0110 C   0  0  0  0  0  0  0  0  0  0  0  0
   -1.0278    1.4644   -2.1556 H   0  0  0  0  0  0  0  0  0  0  0  0
   -3.1557    2.0269   -1.5873 H   0  0  0  0  0  0  0  0  0  0  0  0
   -4.0243   -0.8953   -1.7096 H   0  0  0  0  0  0  0  0  0  0  0  0
   -5.0457    0.5542   -1.7035 H   0  0  0  0  0  0  0  0  0  0  0  0
   -4.0156    0.2041   -3.1028 H   0  0  0  0  0  0  0  0  0  0  0  0
   -3.9774    0.5345    0.9210 N   0  0  0  0  0  0  0  0  0  0  0  0
   -3.9294    0.3271    2.3640 C   0  0  0  0  0  0  0  0  0  0  0  0
   -4.8054    0.2338    0.4152 H   0  0  0  0  0  0  0  0  0  0  0  0
   -4.9320    0.1168    2.7488 H   0  0  0  0  0  0  0  0  0  0  0  0
   -3.2794   -0.5198    2.6088 H   0  0  0  0  0  0  0  0  0  0  0  0
   -3.5487    1.2213    2.8689 H   0  0  0  0  0  0  0  0  0  0  0  0
  1  2  2  0  0  0  0
  1  3  1  0  0  0  0
  1  7  1  0  0  0  0
  3  4  1  0  0  0  0
  3  5  1  0  0  0  0
  3  6  1  0  0  0  0
  7  8  1  0  0  0  0
  7 12  1  0  0  0  0
  8  9  1  0  0  0  0
  8 11  1  0  0  0  0
  8 13  1  0  0  0  0
  9 10  2  0  0  0  0
  9 17  1  0  0  0  0
 11 14  1  0  0  0  0
 11 15  1  0  0  0  0
 11 16  1  0  0  0  0
 17 18  1  0  0  0  0
 17 23  1  0  0  0  0
 18 19  1  0  0  0  0
 18 21  1  0  0  0  0
 18 24  1  0  0  0  0
 19 20  2  0  0  0  0
 19 28  1  0  0  0  0
 21 22  1  0  0  0  0
 21 25  1  0  0  0  0
 21 26  1  0  0  0  0
 22 27  1  0  0  0  0
 28 29  1  0  0  0  0
 28 33  1  0  0  0  0
 29 30  1  0  0  0  0
 29 32  1  0  0  0  0
 29 34  1  0  0  0  0
 30 31  2  0  0  0  0
 30 38  1  0  0  0  0
 32 35  1  0  0  0  0
 32 36  1  0  0  0  0
 32 37  1  0  0  0  0
 38 39  1  0  0  0  0
 38 40  1  0  0  0  0
 39 41  1  0  0  0  0
 39 42  1  0  0  0  0
 39 43  1  0  0  0  0
M  END
$$$$

  -OEChem-05262217303D

 43 42  0     1  0  0  0  0  0999 V2000
    3.3293   -1.9244    3.9059 C   0  0  0  0  0  0  0  0  0  0  0  0
    2.3768   -1.9361    4.6698 O   0  0  0  0  0  0  0  0  0  0  0  0
    4.5553   -2.7669    4.2058 C   0  0  0  0  0  0  0  0  0  0  0  0
    5.4251   -2.1222    4.3527 H   0  0  0  0  0  0  0  0  0  0  0  0
    4.3948   -3.3548    5.1140 H   0  0  0  0  0  0  0  0  0  0  0  0
    4.7524   -3.4489    3.3749 H   0  0  0  0  0  0  0  0  0  0  0  0
    3.2911   -1.1501    2.7661 N   0  0  0  0  0  0  0  0  0  0  0  0
    2.0959   -0.4472    2.2828 C   0  0  2  0  0  0  0  0  0  0  0  0
    2.0694   -0.3775    0.7413 C   0  0  0  0  0  0  0  0  0  0  0  0
    3.1004   -0.5638    0.1043 O   0  0  0  0  0  0  0  0  0  0  0  0
    2.0781    0.9592    2.8898 C   0  0  0  0  0  0  0  0  0  0  0  0
    4.0513   -1.2662    2.0969 H   0  0  0  0  0  0  0  0  0  0  0  0
    1.1977   -0.9893    2.5988 H   0  0  0  0  0  0  0  0  0  0  0  0
    2.9632    1.5219    2.5762 H   0  0  0  0  0  0  0  0  0  0  0  0
    1.1855    1.5059    2.5703 H   0  0  0  0  0  0  0  0  0  0  0  0
    2.0717    0.8999    3.9830 H   0  0  0  0  0  0  0  0  0  0  0  0
    0.9102   -0.0028    0.0851 N   0  0  0  0  0  0  0  0  0  0  0  0
    0.5123   -0.4300   -1.2753 C   0  0  2  0  0  0  0  0  0  0  0  0
   -1.0251   -0.4671   -1.3770 C   0  0  0  0  0  0  0  0  0  0  0  0
   -1.6674   -1.2840   -0.7236 O   0  0  0  0  0  0  0  0  0  0  0  0
    1.0498   -1.8172   -1.7119 C   0  0  0  0  0  0  0  0  0  0  0  0
    0.4927   -2.8769   -0.9229 O   0  0  0  0  0  0  0  0  0  0  0  0
    0.1297    0.1631    0.7196 H   0  0  0  0  0  0  0  0  0  0  0  0
    0.8971    0.3070   -1.9853 H   0  0  0  0  0  0  0  0  0  0  0  0
    2.1408   -1.8612   -1.6864 H   0  0  0  0  0  0  0  0  0  0  0  0
    0.7600   -1.9821   -2.7547 H   0  0  0  0  0  0  0  0  0  0  0  0
   -0.4565   -2.6920   -0.7427 H   0  0  0  0  0  0  0  0  0  0  0  0
   -1.6887    0.5340   -2.0669 N   0  0  0  0  0  0  0  0  0  0  0  0
   -3.1088    0.8648   -1.8486 C   0  0  2  0  0  0  0  0  0  0  0  0
   -3.3923    1.2206   -0.3671 C   0  0  0  0  0  0  0  0  0  0  0  0
   -2.6885    2.0629    0.1791 O   0  0  0  0  0  0  0  0  0  0  0  0
   -4.0219   -0.2363   -2.4166 C   0  0  0  0  0  0  0  0  0  0  0  0
   -1.0960    1.2927   -2.3937 H   0  0  0  0  0  0  0  0  0  0  0  0
   -3.3266    1.7742   -2.4172 H   0  0  0  0  0  0  0  0  0  0  0  0
   -3.9409   -1.1631   -1.8411 H   0  0  0  0  0  0  0  0  0  0  0  0
   -5.0659    0.0910   -2.3979 H   0  0  0  0  0  0  0  0  0  0  0  0
   -3.7491   -0.4517   -3.4543 H   0  0  0  0  0  0  0  0  0  0  0  0
   -4.3929    0.6019    0.3603 N   0  0  0  0  0  0  0  0  0  0  0  0
   -4.5826    0.8226    1.7887 C   0  0  0  0  0  0  0  0  0  0  0  0
   -4.8165   -0.2191   -0.0622 H   0  0  0  0  0  0  0  0  0  0  0  0
   -5.4158    0.2168    2.1575 H   0  0  0  0  0  0  0  0  0  0  0  0
   -3.6800    0.5457    2.3437 H   0  0  0  0  0  0  0  0  0  0  0  0
   -4.8091    1.8755    1.9857 H   0  0  0  0  0  0  0  0  0  0  0  0
  1  2  2  0  0  0  0
  1  3  1  0  0  0  0
  1  7  1  0  0  0  0
  3  4  1  0  0  0  0
  3  5  1  0  0  0  0
  3  6  1  0  0  0  0
  7  8  1  0  0  0  0
  7 12  1  0  0  0  0
  8  9  1  0  0  0  0
  8 11  1  0  0  0  0
  8 13  1  0  0  0  0
  9 10  2  0  0  0  0
  9 17  1  0  0  0  0
 11 14  1  0  0  0  0
 11 15  1  0  0  0  0
 11 16  1  0  0  0  0
 17 18  1  0  0  0  0
 17 23  1  0  0  0  0
 18 19  1  0  0  0  0
 18 21  1  0  0  0  0
 18 24  1  0  0  0  0
 19 20  2  0  0  0  0
 19 28  1  0  0  0  0
 21 22  1  0  0  0  0
 21 25  1  0  0  0  0
 21 26  1  0  0  0  0
 22 27  1  0  0  0  0
 28 29  1  0  0  0  0
 28 33  1  0  0  0  0
 29 30  1  0  0  0  0
 29 32  1  0  0  0  0
 29 34  1  0  0  0  0
 30 31  2  0  0  0  0
 30 38  1  0  0  0  0
 32 35  1  0  0  0  0
 32 36  1  0  0  0  0
 32 37  1  0  0  0  0
 38 39  1  0  0  0  0
 38 40  1  0  0  0  0
 39 41  1  0  0  0  0
 39 42  1  0  0  0  0
 39 43  1  0  0  0  0
M  END
$$$$

  -OEChem-05262217303D

 43 42  0     1  0  0  0  0  0999 V2000
    3.4177   -1.9859    3.8985 C   0  0  0  0  0  0  0  0  0  0  0  0
    2.4855   -2.0288    4.6860 O   0  0  0  0  0  0  0  0  0  0  0  0
    4.6830   -2.7769    4.1726 C   0  0  0  0  0  0  0  0  0  0  0  0
    5.5413   -2.1026    4.2243 H   0  0  0  0  0  0  0  0  0  0  0  0
    4.5953   -3.3078    5.1247 H   0  0  0  0  0  0  0  0  0  0  0  0
    4.8477   -3.5064    3.3757 H   0  0  0  0  0  0  0  0  0  0  0  0
    3.3214   -1.2165    2.7584 N   0  0  0  0  0  0  0  0  0  0  0  0
    2.0973   -0.5321    2.3237 C   0  0  2  0  0  0  0  0  0  0  0  0
    2.0259   -0.4130    0.7866 C   0  0  0  0  0  0  0  0  0  0  0  0
    3.0363   -0.5737    0.1117 O   0  0  0  0  0  0  0  0  0  0  0  0
    2.0588    0.8537    2.9773 C   0  0  0  0  0  0  0  0  0  0  0  0
    4.0704   -1.2983    2.0715 H   0  0  0  0  0  0  0  0  0  0  0  0
    1.2226   -1.1083    2.6449 H   0  0  0  0  0  0  0  0  0  0  0  0
    2.9251    1.4473    2.6674 H   0  0  0  0  0  0  0  0  0  0  0  0
    1.1483    1.3898    2.6931 H   0  0  0  0  0  0  0  0  0  0  0  0
    2.0739    0.7587    4.0680 H   0  0  0  0  0  0  0  0  0  0  0  0
    0.8528   -0.0028    0.1772 N   0  0  0  0  0  0  0  0  0  0  0  0
    0.4162   -0.3919   -1.1828 C   0  0  2  0  0  0  0  0  0  0  0  0
   -1.1223   -0.4121   -1.2659 C   0  0  0  0  0  0  0  0  0  0  0  0
   -1.7604   -1.0730   -0.4518 O   0  0  0  0  0  0  0  0  0  0  0  0
    0.8979   -1.7909   -1.6412 C   0  0  0  0  0  0  0  0  0  0  0  0
    0.3117   -2.8364   -0.8520 O   0  0  0  0  0  0  0  0  0  0  0  0
    0.0879    0.1036    0.8410 H   0  0  0  0  0  0  0  0  0  0  0  0
    0.8078    0.3466   -1.8879 H   0  0  0  0  0  0  0  0  0  0  0  0
    1.9868   -1.8760   -1.6288 H   0  0  0  0  0  0  0  0  0  0  0  0
    0.5903   -1.9345   -2.6822 H   0  0  0  0  0  0  0  0  0  0  0  0
   -0.6188   -2.6185   -0.6276 H   0  0  0  0  0  0  0  0  0  0  0  0
   -1.7833    0.4095   -2.1647 N   0  0  0  0  0  0  0  0  0  0  0  0
   -3.2444    0.6042   -2.2797 C   0  0  2  0  0  0  0  0  0  0  0  0
   -3.8878    1.3096   -1.0630 C   0  0  0  0  0  0  0  0  0  0  0  0
   -4.4104    2.4054   -1.2115 O   0  0  0  0  0  0  0  0  0  0  0  0
   -3.9650   -0.7133   -2.6029 C   0  0  0  0  0  0  0  0  0  0  0  0
   -1.1949    1.0087   -2.7384 H   0  0  0  0  0  0  0  0  0  0  0  0
   -3.4098    1.2686   -3.1345 H   0  0  0  0  0  0  0  0  0  0  0  0
   -3.9382   -1.4040   -1.7553 H   0  0  0  0  0  0  0  0  0  0  0  0
   -5.0140   -0.5151   -2.8443 H   0  0  0  0  0  0  0  0  0  0  0  0
   -3.4987   -1.2004   -3.4645 H   0  0  0  0  0  0  0  0  0  0  0  0
   -3.8461    0.7440    0.1961 N   0  0  0  0  0  0  0  0  0  0  0  0
   -4.3632    1.3875    1.3963 C   0  0  0  0  0  0  0  0  0  0  0  0
   -3.3079   -0.1212    0.2828 H   0  0  0  0  0  0  0  0  0  0  0  0
   -4.2757    0.7122    2.2529 H   0  0  0  0  0  0  0  0  0  0  0  0
   -3.7999    2.3010    1.6137 H   0  0  0  0  0  0  0  0  0  0  0  0
   -5.4198    1.6456    1.2688 H   0  0  0  0  0  0  0  0  0  0  0  0
  1  2  2  0  0  0  0
  1  3  1  0  0  0  0
  1  7  1  0  0  0  0
  3  4  1  0  0  0  0
  3  5  1  0  0  0  0
  3  6  1  0  0  0  0
  7  8  1  0  0  0  0
  7 12  1  0  0  0  0
  8  9  1  0  0  0  0
  8 11  1  0  0  0  0
  8 13  1  0  0  0  0
  9 10  2  0  0  0  0
  9 17  1  0  0  0  0
 11 14  1  0  0  0  0
 11 15  1  0  0  0  0
 11 16  1  0  0  0  0
 17 18  1  0  0  0  0
 17 23  1  0  0  0  0
 18 19  1  0  0  0  0
 18 21  1  0  0  0  0
 18 24  1  0  0  0  0
 19 20  2  0  0  0  0
 19 28  1  0  0  0  0
 21 22  1  0  0  0  0
 21 25  1  0  0  0  0
 21 26  1  0  0  0  0
 22 27  1  0  0  0  0
 28 29  1  0  0  0  0
 28 33  1  0  0  0  0
 29 30  1  0  0  0  0
 29 32  1  0  0  0  0
 29 34  1  0  0  0  0
 30 31  2  0  0  0  0
 30 38  1  0  0  0  0
 32 35  1  0  0  0  0
 32 36  1  0  0  0  0
 32 37  1  0  0  0  0
 38 39  1  0  0  0  0
 38 40  1  0  0  0  0
 39 41  1  0  0  0  0
 39 42  1  0  0  0  0
 39 43  1  0  0  0  0
M  END
$$$$

  -OEChem-05262217303D

 43 42  0     1  0  0  0  0  0999 V2000
    3.5385   -1.9662    3.8880 C   0  0  0  0  0  0  0  0  0  0  0  0
    2.6255   -2.0271    4.6964 O   0  0  0  0  0  0  0  0  0  0  0  0
    4.8266   -2.7276    4.1372 C   0  0  0  0  0  0  0  0  0  0  0  0
    5.6745   -2.0383    4.1365 H   0  0  0  0  0  0  0  0  0  0  0  0
    4.7830   -3.2317    5.1068 H   0  0  0  0  0  0  0  0  0  0  0  0
    4.9738   -3.4776    3.3563 H   0  0  0  0  0  0  0  0  0  0  0  0
    3.3973   -1.2087    2.7447 N   0  0  0  0  0  0  0  0  0  0  0  0
    2.1437   -0.5666    2.3299 C   0  0  2  0  0  0  0  0  0  0  0  0
    2.0504   -0.4350    0.7951 C   0  0  0  0  0  0  0  0  0  0  0  0
    3.0455   -0.6108    0.1009 O   0  0  0  0  0  0  0  0  0  0  0  0
    2.0556    0.8089    3.0003 C   0  0  0  0  0  0  0  0  0  0  0  0
    4.1329   -1.2765    2.0419 H   0  0  0  0  0  0  0  0  0  0  0  0
    1.2961   -1.1812    2.6530 H   0  0  0  0  0  0  0  0  0  0  0  0
    2.8874    1.4449    2.6809 H   0  0  0  0  0  0  0  0  0  0  0  0
    1.1160    1.3057    2.7411 H   0  0  0  0  0  0  0  0  0  0  0  0
    2.0971    0.7029    4.0890 H   0  0  0  0  0  0  0  0  0  0  0  0
    0.8722   -0.0113    0.2057 N   0  0  0  0  0  0  0  0  0  0  0  0
    0.4049   -0.4046   -1.1426 C   0  0  2  0  0  0  0  0  0  0  0  0
   -1.1326   -0.4072   -1.2122 C   0  0  0  0  0  0  0  0  0  0  0  0
   -1.7705   -0.8845   -0.2790 O   0  0  0  0  0  0  0  0  0  0  0  0
    0.8409   -1.8254   -1.5758 C   0  0  0  0  0  0  0  0  0  0  0  0
    0.2304   -2.8343   -0.7557 O   0  0  0  0  0  0  0  0  0  0  0  0
    0.1187    0.1068    0.8813 H   0  0  0  0  0  0  0  0  0  0  0  0
    0.8004    0.3157   -1.8638 H   0  0  0  0  0  0  0  0  0  0  0  0
    1.9269   -1.9435   -1.5749 H   0  0  0  0  0  0  0  0  0  0  0  0
    0.5166   -1.9840   -2.6095 H   0  0  0  0  0  0  0  0  0  0  0  0
   -0.6812   -2.5804   -0.5012 H   0  0  0  0  0  0  0  0  0  0  0  0
   -1.7876    0.1612   -2.2927 N   0  0  0  0  0  0  0  0  0  0  0  0
   -3.2483    0.2388   -2.5096 C   0  0  2  0  0  0  0  0  0  0  0  0
   -4.0020    1.1599   -1.5213 C   0  0  0  0  0  0  0  0  0  0  0  0
   -4.6731    2.0845   -1.9578 O   0  0  0  0  0  0  0  0  0  0  0  0
   -3.8802   -1.1601   -2.5506 C   0  0  0  0  0  0  0  0  0  0  0  0
   -1.1958    0.5872   -3.0016 H   0  0  0  0  0  0  0  0  0  0  0  0
   -3.3967    0.6781   -3.5021 H   0  0  0  0  0  0  0  0  0  0  0  0
   -3.8694   -1.6322   -1.5640 H   0  0  0  0  0  0  0  0  0  0  0  0
   -4.9213   -1.0899   -2.8822 H   0  0  0  0  0  0  0  0  0  0  0  0
   -3.3380   -1.8032   -3.2507 H   0  0  0  0  0  0  0  0  0  0  0  0
   -3.9177    0.9725   -0.1558 N   0  0  0  0  0  0  0  0  0  0  0  0
   -4.5831    1.8169    0.8274 C   0  0  0  0  0  0  0  0  0  0  0  0
   -3.3183    0.2070    0.1606 H   0  0  0  0  0  0  0  0  0  0  0  0
   -4.3702    1.4582    1.8390 H   0  0  0  0  0  0  0  0  0  0  0  0
   -4.2320    2.8508    0.7452 H   0  0  0  0  0  0  0  0  0  0  0  0
   -5.6674    1.7992    0.6764 H   0  0  0  0  0  0  0  0  0  0  0  0
  1  2  2  0  0  0  0
  1  3  1  0  0  0  0
  1  7  1  0  0  0  0
  3  4  1  0  0  0  0
  3  5  1  0  0  0  0
  3  6  1  0  0  0  0
  7  8  1  0  0  0  0
  7 12  1  0  0  0  0
  8  9  1  0  0  0  0
  8 11  1  0  0  0  0
  8 13  1  0  0  0  0
  9 10  2  0  0  0  0
  9 17  1  0  0  0  0
 11 14  1  0  0  0  0
 11 15  1  0  0  0  0
 11 16  1  0  0  0  0
 17 18  1  0  0  0  0
 17 23  1  0  0  0  0
 18 19  1  0  0  0  0
 18 21  1  0  0  0  0
 18 24  1  0  0  0  0
 19 20  2  0  0  0  0
 19 28  1  0  0  0  0
 21 22  1  0  0  0  0
 21 25  1  0  0  0  0
 21 26  1  0  0  0  0
 22 27  1  0  0  0  0
 28 29  1  0  0  0  0
 28 33  1  0  0  0  0
 29 30  1  0  0  0  0
 29 32  1  0  0  0  0
 29 34  1  0  0  0  0
 30 31  2  0  0  0  0
 30 38  1  0  0  0  0
 32 35  1  0  0  0  0
 32 36  1  0  0  0  0
 32 37  1  0  0  0  0
 38 39  1  0  0  0  0
 38 40  1  0  0  0  0
 39 41  1  0  0  0  0
 39 42  1  0  0  0  0
 39 43  1  0  0  0  0
M  END
$$$$

  -OEChem-05262217303D

 43 42  0     1  0  0  0  0  0999 V2000
    3.5577   -1.9606    3.8697 C   0  0  0  0  0  0  0  0  0  0  0  0
    2.6554   -2.0067    4.6909 O   0  0  0  0  0  0  0  0  0  0  0  0
    4.8395   -2.7387    4.0995 C   0  0  0  0  0  0  0  0  0  0  0  0
    5.6915   -2.0551    4.1214 H   0  0  0  0  0  0  0  0  0  0  0  0
    4.7916   -3.2724    5.0529 H   0  0  0  0  0  0  0  0  0  0  0  0
    4.9837   -3.4648    3.2957 H   0  0  0  0  0  0  0  0  0  0  0  0
    3.4139   -1.2012    2.7282 N   0  0  0  0  0  0  0  0  0  0  0  0
    2.1737   -0.5219    2.3333 C   0  0  2  0  0  0  0  0  0  0  0  0
    2.0574   -0.4046    0.7987 C   0  0  0  0  0  0  0  0  0  0  0  0
    3.0462   -0.5747    0.0938 O   0  0  0  0  0  0  0  0  0  0  0  0
    2.1518    0.8630    2.9886 C   0  0  0  0  0  0  0  0  0  0  0  0
    4.1416   -1.2769    2.0181 H   0  0  0  0  0  0  0  0  0  0  0  0
    1.3111   -1.1010    2.6809 H   0  0  0  0  0  0  0  0  0  0  0  0
    3.0096    1.4563    2.6563 H   0  0  0  0  0  0  0  0  0  0  0  0
    1.2342    1.3992    2.7290 H   0  0  0  0  0  0  0  0  0  0  0  0
    2.1963    0.7666    4.0782 H   0  0  0  0  0  0  0  0  0  0  0  0
    0.8696    0.0026    0.2170 N   0  0  0  0  0  0  0  0  0  0  0  0
    0.3965   -0.3986   -1.1274 C   0  0  2  0  0  0  0  0  0  0  0  0
   -1.1409   -0.4227   -1.1926 C   0  0  0  0  0  0  0  0  0  0  0  0
   -1.7745   -0.7076   -0.1816 O   0  0  0  0  0  0  0  0  0  0  0  0
    0.8307   -1.8252   -1.5429 C   0  0  0  0  0  0  0  0  0  0  0  0
    0.2191   -2.8239   -0.7094 O   0  0  0  0  0  0  0  0  0  0  0  0
    0.1161    0.1134    0.8947 H   0  0  0  0  0  0  0  0  0  0  0  0
    0.7825    0.3190   -1.8567 H   0  0  0  0  0  0  0  0  0  0  0  0
    1.9163   -1.9455   -1.5368 H   0  0  0  0  0  0  0  0  0  0  0  0
    0.5106   -1.9970   -2.5757 H   0  0  0  0  0  0  0  0  0  0  0  0
   -0.6962   -2.5815   -0.4648 H   0  0  0  0  0  0  0  0  0  0  0  0
   -1.7983   -0.1558   -2.3828 N   0  0  0  0  0  0  0  0  0  0  0  0
   -3.2560   -0.1993   -2.6263 C   0  0  2  0  0  0  0  0  0  0  0  0
   -4.0714    0.8886   -1.8895 C   0  0  0  0  0  0  0  0  0  0  0  0
   -4.7968    1.6329   -2.5343 O   0  0  0  0  0  0  0  0  0  0  0  0
   -3.8265   -1.5971   -2.3453 C   0  0  0  0  0  0  0  0  0  0  0  0
   -1.2096    0.0998   -3.1716 H   0  0  0  0  0  0  0  0  0  0  0  0
   -3.4031   -0.0094   -3.6948 H   0  0  0  0  0  0  0  0  0  0  0  0
   -3.8198   -1.8240   -1.2752 H   0  0  0  0  0  0  0  0  0  0  0  0
   -4.8617   -1.6550   -2.6970 H   0  0  0  0  0  0  0  0  0  0  0  0
   -3.2416   -2.3602   -2.8680 H   0  0  0  0  0  0  0  0  0  0  0  0
   -3.9926    1.0413   -0.5195 N   0  0  0  0  0  0  0  0  0  0  0  0
   -4.7389    2.0387    0.2353 C   0  0  0  0  0  0  0  0  0  0  0  0
   -3.3609    0.4057   -0.0272 H   0  0  0  0  0  0  0  0  0  0  0  0
   -4.5033    1.9586    1.3010 H   0  0  0  0  0  0  0  0  0  0  0  0
   -4.4801    3.0480   -0.1012 H   0  0  0  0  0  0  0  0  0  0  0  0
   -5.8159    1.8890    0.1066 H   0  0  0  0  0  0  0  0  0  0  0  0
  1  2  2  0  0  0  0
  1  3  1  0  0  0  0
  1  7  1  0  0  0  0
  3  4  1  0  0  0  0
  3  5  1  0  0  0  0
  3  6  1  0  0  0  0
  7  8  1  0  0  0  0
  7 12  1  0  0  0  0
  8  9  1  0  0  0  0
  8 11  1  0  0  0  0
  8 13  1  0  0  0  0
  9 10  2  0  0  0  0
  9 17  1  0  0  0  0
 11 14  1  0  0  0  0
 11 15  1  0  0  0  0
 11 16  1  0  0  0  0
 17 18  1  0  0  0  0
 17 23  1  0  0  0  0
 18 19  1  0  0  0  0
 18 21  1  0  0  0  0
 18 24  1  0  0  0  0
 19 20  2  0  0  0  0
 19 28  1  0  0  0  0
 21 22  1  0  0  0  0
 21 25  1  0  0  0  0
 21 26  1  0  0  0  0
 22 27  1  0  0  0  0
 28 29  1  0  0  0  0
 28 33  1  0  0  0  0
 29 30  1  0  0  0  0
 29 32  1  0  0  0  0
 29 34  1  0  0  0  0
 30 31  2  0  0  0  0
 30 38  1  0  0  0  0
 32 35  1  0  0  0  0
 32 36  1  0  0  0  0
 32 37  1  0  0  0  0
 38 39  1  0  0  0  0
 38 40  1  0  0  0  0
 39 41  1  0  0  0  0
 39 42  1  0  0  0  0
 39 43  1  0  0  0  0
M  END
$$$$

  -OEChem-05262217303D

 43 42  0     1  0  0  0  0  0999 V2000
    3.5759   -1.9009    3.8775 C   0  0  0  0  0  0  0  0  0  0  0  0
    2.6717   -1.9520    4.6964 O   0  0  0  0  0  0  0  0  0  0  0  0
    4.8611   -2.6716    4.1140 C   0  0  0  0  0  0  0  0  0  0  0  0
    5.7074   -1.9819    4.1563 H   0  0  0  0  0  0  0  0  0  0  0  0
    4.8037   -3.2179    5.0597 H   0  0  0  0  0  0  0  0  0  0  0  0
    5.0223   -3.3863    3.3033 H   0  0  0  0  0  0  0  0  0  0  0  0
    3.4284   -1.1466    2.7329 N   0  0  0  0  0  0  0  0  0  0  0  0
    2.1765   -0.4951    2.3262 C   0  0  2  0  0  0  0  0  0  0  0  0
    2.0543   -0.4069    0.7898 C   0  0  0  0  0  0  0  0  0  0  0  0
    3.0476   -0.5623    0.0879 O   0  0  0  0  0  0  0  0  0  0  0  0
    2.1296    0.9008    2.9564 C   0  0  0  0  0  0  0  0  0  0  0  0
    4.1577   -1.2205    2.0243 H   0  0  0  0  0  0  0  0  0  0  0  0
    1.3243   -1.0824    2.6854 H   0  0  0  0  0  0  0  0  0  0  0  0
    2.9718    1.5066    2.6073 H   0  0  0  0  0  0  0  0  0  0  0  0
    1.1987    1.4119    2.6932 H   0  0  0  0  0  0  0  0  0  0  0  0
    2.1827    0.8260    4.0473 H   0  0  0  0  0  0  0  0  0  0  0  0
    0.8534   -0.0401    0.2076 N   0  0  0  0  0  0  0  0  0  0  0  0
    0.3837   -0.4306   -1.1417 C   0  0  2  0  0  0  0  0  0  0  0  0
   -1.1546   -0.5056   -1.1906 C   0  0  0  0  0  0  0  0  0  0  0  0
   -1.7870   -0.5629   -0.1416 O   0  0  0  0  0  0  0  0  0  0  0  0
    0.8791   -1.8259   -1.5964 C   0  0  0  0  0  0  0  0  0  0  0  0
    0.3270   -2.8759   -0.7844 O   0  0  0  0  0  0  0  0  0  0  0  0
    0.0956    0.0659    0.8827 H   0  0  0  0  0  0  0  0  0  0  0  0
    0.7309    0.3198   -1.8575 H   0  0  0  0  0  0  0  0  0  0  0  0
    1.9694   -1.8910   -1.6004 H   0  0  0  0  0  0  0  0  0  0  0  0
    0.5634   -1.9901   -2.6319 H   0  0  0  0  0  0  0  0  0  0  0  0
   -0.6309   -2.7680   -0.6400 H   0  0  0  0  0  0  0  0  0  0  0  0
   -1.8204   -0.5455   -2.4060 N   0  0  0  0  0  0  0  0  0  0  0  0
   -3.2783   -0.6645   -2.6211 C   0  0  2  0  0  0  0  0  0  0  0  0
   -4.1023    0.5552   -2.1474 C   0  0  0  0  0  0  0  0  0  0  0  0
   -4.7648    1.1829   -2.9619 O   0  0  0  0  0  0  0  0  0  0  0  0
   -3.8274   -1.9670   -2.0209 C   0  0  0  0  0  0  0  0  0  0  0  0
   -1.2419   -0.4471   -3.2366 H   0  0  0  0  0  0  0  0  0  0  0  0
   -3.4352   -0.7292   -3.7032 H   0  0  0  0  0  0  0  0  0  0  0  0
   -3.7935   -1.9498   -0.9278 H   0  0  0  0  0  0  0  0  0  0  0  0
   -4.8700   -2.1071   -2.3245 H   0  0  0  0  0  0  0  0  0  0  0  0
   -3.2471   -2.8241   -2.3757 H   0  0  0  0  0  0  0  0  0  0  0  0
   -4.0922    0.9585   -0.8269 N   0  0  0  0  0  0  0  0  0  0  0  0
   -4.7974    2.1315   -0.3293 C   0  0  0  0  0  0  0  0  0  0  0  0
   -3.4500    0.4589   -0.2072 H   0  0  0  0  0  0  0  0  0  0  0  0
   -4.7054    2.1921    0.7594 H   0  0  0  0  0  0  0  0  0  0  0  0
   -4.3783    3.0433   -0.7670 H   0  0  0  0  0  0  0  0  0  0  0  0
   -5.8616    2.0760   -0.5814 H   0  0  0  0  0  0  0  0  0  0  0  0
  1  2  2  0  0  0  0
  1  3  1  0  0  0  0
  1  7  1  0  0  0  0
  3  4  1  0  0  0  0
  3  5  1  0  0  0  0
  3  6  1  0  0  0  0
  7  8  1  0  0  0  0
  7 12  1  0  0  0  0
  8  9  1  0  0  0  0
  8 11  1  0  0  0  0
  8 13  1  0  0  0  0
  9 10  2  0  0  0  0
  9 17  1  0  0  0  0
 11 14  1  0  0  0  0
 11 15  1  0  0  0  0
 11 16  1  0  0  0  0
 17 18  1  0  0  0  0
 17 23  1  0  0  0  0
 18 19  1  0  0  0  0
 18 21  1  0  0  0  0
 18 24  1  0  0  0  0
 19 20  2  0  0  0  0
 19 28  1  0  0  0  0
 21 22  1  0  0  0  0
 21 25  1  0  0  0  0
 21 26  1  0  0  0  0
 22 27  1  0  0  0  0
 28 29  1  0  0  0  0
 28 33  1  0  0  0  0
 29 30  1  0  0  0  0
 29 32  1  0  0  0  0
 29 34  1  0  0  0  0
 30 31  2  0  0  0  0
 30 38  1  0  0  0  0
 32 35  1  0  0  0  0
 32 36  1  0  0  0  0
 32 37  1  0  0  0  0
 38 39  1  0  0  0  0
 38 40  1  0  0  0  0
 39 41  1  0  0  0  0
 39 42  1  0  0  0  0
 39 43  1  0  0  0  0
M  END
$$$$

  -OEChem-05262217303D

 43 42  0     1  0  0  0  0  0999 V2000
    3.6577   -1.7866    3.9273 C   0  0  0  0  0  0  0  0  0  0  0  0
    2.7886   -1.7938    4.7849 O   0  0  0  0  0  0  0  0  0  0  0  0
    4.9514   -2.5480    4.1479 C   0  0  0  0  0  0  0  0  0  0  0  0
    5.7931   -1.8522    4.1779 H   0  0  0  0  0  0  0  0  0  0  0  0
    4.9114   -3.0943    5.0944 H   0  0  0  0  0  0  0  0  0  0  0  0
    5.1065   -3.2629    3.3364 H   0  0  0  0  0  0  0  0  0  0  0  0
    3.4634   -1.0909    2.7528 N   0  0  0  0  0  0  0  0  0  0  0  0
    2.1960   -0.4585    2.3646 C   0  0  2  0  0  0  0  0  0  0  0  0
    2.0061   -0.4644    0.8330 C   0  0  0  0  0  0  0  0  0  0  0  0
    2.9565   -0.7051    0.0956 O   0  0  0  0  0  0  0  0  0  0  0  0
    2.1840    0.9738    2.9086 C   0  0  0  0  0  0  0  0  0  0  0  0
    4.1619   -1.2051    2.0188 H   0  0  0  0  0  0  0  0  0  0  0  0
    1.3583   -1.0167    2.7972 H   0  0  0  0  0  0  0  0  0  0  0  0
    3.0093    1.5525    2.4815 H   0  0  0  0  0  0  0  0  0  0  0  0
    1.2426    1.4730    2.6603 H   0  0  0  0  0  0  0  0  0  0  0  0
    2.2916    0.9653    3.9980 H   0  0  0  0  0  0  0  0  0  0  0  0
    0.7890   -0.1162    0.2771 N   0  0  0  0  0  0  0  0  0  0  0  0
    0.3300   -0.4642   -1.0839 C   0  0  2  0  0  0  0  0  0  0  0  0
   -1.1885   -0.2361   -1.2315 C   0  0  0  0  0  0  0  0  0  0  0  0
   -1.8409    0.1394   -0.2634 O   0  0  0  0  0  0  0  0  0  0  0  0
    0.5967   -1.9506   -1.4284 C   0  0  0  0  0  0  0  0  0  0  0  0
   -0.1833   -2.8356   -0.6081 O   0  0  0  0  0  0  0  0  0  0  0  0
    0.0407    0.0656    0.9462 H   0  0  0  0  0  0  0  0  0  0  0  0
    0.8546    0.1711   -1.8038 H   0  0  0  0  0  0  0  0  0  0  0  0
    1.6554   -2.1995   -1.3235 H   0  0  0  0  0  0  0  0  0  0  0  0
    0.3445   -2.1284   -2.4785 H   0  0  0  0  0  0  0  0  0  0  0  0
   -1.1385   -2.6608   -0.6781 H   0  0  0  0  0  0  0  0  0  0  0  0
   -1.8298   -0.4988   -2.4332 N   0  0  0  0  0  0  0  0  0  0  0  0
   -3.2737   -0.3650   -2.7232 C   0  0  2  0  0  0  0  0  0  0  0  0
   -3.8049    1.0870   -2.6911 C   0  0  0  0  0  0  0  0  0  0  0  0
   -4.3320    1.5531   -3.6917 O   0  0  0  0  0  0  0  0  0  0  0  0
   -4.1131   -1.2819   -1.8217 C   0  0  0  0  0  0  0  0  0  0  0  0
   -1.2279   -0.7494   -3.2139 H   0  0  0  0  0  0  0  0  0  0  0  0
   -3.4232   -0.7151   -3.7504 H   0  0  0  0  0  0  0  0  0  0  0  0
   -4.1080   -0.9371   -0.7837 H   0  0  0  0  0  0  0  0  0  0  0  0
   -5.1511   -1.2969   -2.1691 H   0  0  0  0  0  0  0  0  0  0  0  0
   -3.7255   -2.3043   -1.8520 H   0  0  0  0  0  0  0  0  0  0  0  0
   -3.6696    1.8766   -1.5668 N   0  0  0  0  0  0  0  0  0  0  0  0
   -4.0745    3.2735   -1.5004 C   0  0  0  0  0  0  0  0  0  0  0  0
   -3.1543    1.4656   -0.7846 H   0  0  0  0  0  0  0  0  0  0  0  0
   -3.8982    3.6701   -0.4958 H   0  0  0  0  0  0  0  0  0  0  0  0
   -3.5009    3.8721   -2.2156 H   0  0  0  0  0  0  0  0  0  0  0  0
   -5.1405    3.3740   -1.7296 H   0  0  0  0  0  0  0  0  0  0  0  0
  1  2  2  0  0  0  0
  1  3  1  0  0  0  0
  1  7  1  0  0  0  0
  3  4  1  0  0  0  0
  3  5  1  0  0  0  0
  3  6  1  0  0  0  0
  7  8  1  0  0  0  0
  7 12  1  0  0  0  0
  8  9  1  0  0  0  0
  8 11  1  0  0  0  0
  8 13  1  0  0  0  0
  9 10  2  0  0  0  0
  9 17  1  0  0  0  0
 11 14  1  0  0  0  0
 11 15  1  0  0  0  0
 11 16  1  0  0  0  0
 17 18  1  0  0  0  0
 17 23  1  0  0  0  0
 18 19  1  0  0  0  0
 18 21  1  0  0  0  0
 18 24  1  0  0  0  0
 19 20  2  0  0  0  0
 19 28  1  0  0  0  0
 21 22  1  0  0  0  0
 21 25  1  0  0  0  0
 21 26  1  0  0  0  0
 22 27  1  0  0  0  0
 28 29  1  0  0  0  0
 28 33  1  0  0  0  0
 29 30  1  0  0  0  0
 29 32  1  0  0  0  0
 29 34  1  0  0  0  0
 30 31  2  0  0  0  0
 30 38  1  0  0  0  0
 32 35  1  0  0  0  0
 32 36  1  0  0  0  0
 32 37  1  0  0  0  0
 38 39  1  0  0  0  0
 38 40  1  0  0  0  0
 39 41  1  0  0  0  0
 39 42  1  0  0  0  0
 39 43  1  0  0  0  0
M  END
$$$$

  -OEChem-05262217303D

 43 42  0     1  0  0  0  0  0999 V2000
    3.6915   -1.7829    3.9086 C   0  0  0  0  0  0  0  0  0  0  0  0
    2.8261   -1.8118    4.7692 O   0  0  0  0  0  0  0  0  0  0  0  0
    4.9926   -2.5370    4.1101 C   0  0  0  0  0  0  0  0  0  0  0  0
    5.8230   -1.8315    4.1923 H   0  0  0  0  0  0  0  0  0  0  0  0
    4.9450   -3.1346    5.0247 H   0  0  0  0  0  0  0  0  0  0  0  0
    5.1725   -3.2046    3.2640 H   0  0  0  0  0  0  0  0  0  0  0  0
    3.4868   -1.0689    2.7473 N   0  0  0  0  0  0  0  0  0  0  0  0
    2.2098   -0.4483    2.3704 C   0  0  2  0  0  0  0  0  0  0  0  0
    2.0079   -0.4597    0.8401 C   0  0  0  0  0  0  0  0  0  0  0  0
    2.9565   -0.6929    0.0978 O   0  0  0  0  0  0  0  0  0  0  0  0
    2.1890    0.9841    2.9132 C   0  0  0  0  0  0  0  0  0  0  0  0
    4.1804   -1.1713    2.0071 H   0  0  0  0  0  0  0  0  0  0  0  0
    1.3809   -1.0138    2.8104 H   0  0  0  0  0  0  0  0  0  0  0  0
    3.0078    1.5685    2.4816 H   0  0  0  0  0  0  0  0  0  0  0  0
    1.2427    1.4760    2.6693 H   0  0  0  0  0  0  0  0  0  0  0  0
    2.3019    0.9772    4.0020 H   0  0  0  0  0  0  0  0  0  0  0  0
    0.7809   -0.1338    0.2917 N   0  0  0  0  0  0  0  0  0  0  0  0
    0.3143   -0.4813   -1.0675 C   0  0  2  0  0  0  0  0  0  0  0  0
   -1.2126   -0.2761   -1.1872 C   0  0  0  0  0  0  0  0  0  0  0  0
   -1.8101    0.3211   -0.2985 O   0  0  0  0  0  0  0  0  0  0  0  0
    0.6176   -1.9587   -1.4268 C   0  0  0  0  0  0  0  0  0  0  0  0
   -0.1298   -2.8694   -0.6040 O   0  0  0  0  0  0  0  0  0  0  0  0
    0.0407    0.0773    0.9611 H   0  0  0  0  0  0  0  0  0  0  0  0
    0.8133    0.1719   -1.7896 H   0  0  0  0  0  0  0  0  0  0  0  0
    1.6831   -2.1795   -1.3311 H   0  0  0  0  0  0  0  0  0  0  0  0
    0.3661   -2.1376   -2.4769 H   0  0  0  0  0  0  0  0  0  0  0  0
   -1.0910   -2.7396   -0.6866 H   0  0  0  0  0  0  0  0  0  0  0  0
   -1.9299   -0.8143   -2.2471 N   0  0  0  0  0  0  0  0  0  0  0  0
   -3.3920   -0.7577   -2.4602 C   0  0  2  0  0  0  0  0  0  0  0  0
   -3.9486    0.6556   -2.7483 C   0  0  0  0  0  0  0  0  0  0  0  0
   -4.5900    0.8467   -3.7722 O   0  0  0  0  0  0  0  0  0  0  0  0
   -4.1552   -1.4265   -1.3076 C   0  0  0  0  0  0  0  0  0  0  0  0
   -1.3761   -1.2316   -2.9913 H   0  0  0  0  0  0  0  0  0  0  0  0
   -3.6022   -1.3493   -3.3578 H   0  0  0  0  0  0  0  0  0  0  0  0
   -4.0793   -0.8438   -0.3851 H   0  0  0  0  0  0  0  0  0  0  0  0
   -5.2156   -1.5145   -1.5649 H   0  0  0  0  0  0  0  0  0  0  0  0
   -3.7613   -2.4299   -1.1205 H   0  0  0  0  0  0  0  0  0  0  0  0
   -3.7172    1.7094   -1.8873 N   0  0  0  0  0  0  0  0  0  0  0  0
   -4.1812    3.0696   -2.1221 C   0  0  0  0  0  0  0  0  0  0  0  0
   -3.1393    1.5081   -1.0674 H   0  0  0  0  0  0  0  0  0  0  0  0
   -3.9031    3.7128   -1.2818 H   0  0  0  0  0  0  0  0  0  0  0  0
   -3.7309    3.4756   -3.0337 H   0  0  0  0  0  0  0  0  0  0  0  0
   -5.2710    3.0898   -2.2274 H   0  0  0  0  0  0  0  0  0  0  0  0
  1  2  2  0  0  0  0
  1  3  1  0  0  0  0
  1  7  1  0  0  0  0
  3  4  1  0  0  0  0
  3  5  1  0  0  0  0
  3  6  1  0  0  0  0
  7  8  1  0  0  0  0
  7 12  1  0  0  0  0
  8  9  1  0  0  0  0
  8 11  1  0  0  0  0
  8 13  1  0  0  0  0
  9 10  2  0  0  0  0
  9 17  1  0  0  0  0
 11 14  1  0  0  0  0
 11 15  1  0  0  0  0
 11 16  1  0  0  0  0
 17 18  1  0  0  0  0
 17 23  1  0  0  0  0
 18 19  1  0  0  0  0
 18 21  1  0  0  0  0
 18 24  1  0  0  0  0
 19 20  2  0  0  0  0
 19 28  1  0  0  0  0
 21 22  1  0  0  0  0
 21 25  1  0  0  0  0
 21 26  1  0  0  0  0
 22 27  1  0  0  0  0
 28 29  1  0  0  0  0
 28 33  1  0  0  0  0
 29 30  1  0  0  0  0
 29 32  1  0  0  0  0
 29 34  1  0  0  0  0
 30 31  2  0  0  0  0
 30 38  1  0  0  0  0
 32 35  1  0  0  0  0
 32 36  1  0  0  0  0
 32 37  1  0  0  0  0
 38 39  1  0  0  0  0
 38 40  1  0  0  0  0
 39 41  1  0  0  0  0
 39 42  1  0  0  0  0
 39 43  1  0  0  0  0
M  END
$$$$

  -OEChem-05262217303D

 43 42  0     1  0  0  0  0  0999 V2000
    3.6916   -1.7682    3.8926 C   0  0  0  0  0  0  0  0  0  0  0  0
    2.8227   -1.7904    4.7500 O   0  0  0  0  0  0  0  0  0  0  0  0
    4.9793   -2.5448    4.0930 C   0  0  0  0  0  0  0  0  0  0  0  0
    5.8167   -1.8534    4.2143 H   0  0  0  0  0  0  0  0  0  0  0  0
    4.9060   -3.1704    4.9868 H   0  0  0  0  0  0  0  0  0  0  0  0
    5.1673   -3.1867    3.2289 H   0  0  0  0  0  0  0  0  0  0  0  0
    3.5021   -1.0428    2.7358 N   0  0  0  0  0  0  0  0  0  0  0  0
    2.2340   -0.4049    2.3582 C   0  0  2  0  0  0  0  0  0  0  0  0
    2.0123   -0.4512    0.8313 C   0  0  0  0  0  0  0  0  0  0  0  0
    2.9570   -0.6774    0.0827 O   0  0  0  0  0  0  0  0  0  0  0  0
    2.2512    1.0399    2.8662 C   0  0  0  0  0  0  0  0  0  0  0  0
    4.1934   -1.1573    1.9952 H   0  0  0  0  0  0  0  0  0  0  0  0
    1.3978   -0.9396    2.8219 H   0  0  0  0  0  0  0  0  0  0  0  0
    3.0796    1.5951    2.4148 H   0  0  0  0  0  0  0  0  0  0  0  0
    1.3140    1.5470    2.6179 H   0  0  0  0  0  0  0  0  0  0  0  0
    2.3733    1.0558    3.9539 H   0  0  0  0  0  0  0  0  0  0  0  0
    0.7691   -0.1626    0.2981 N   0  0  0  0  0  0  0  0  0  0  0  0
    0.2853   -0.5046   -1.0576 C   0  0  2  0  0  0  0  0  0  0  0  0
   -1.2511   -0.3423   -1.1354 C   0  0  0  0  0  0  0  0  0  0  0  0
   -1.8005    0.4309   -0.3595 O   0  0  0  0  0  0  0  0  0  0  0  0
    0.6525   -1.9556   -1.4614 C   0  0  0  0  0  0  0  0  0  0  0  0
   -0.0250   -2.9235   -0.6428 O   0  0  0  0  0  0  0  0  0  0  0  0
    0.0438    0.0812    0.9721 H   0  0  0  0  0  0  0  0  0  0  0  0
    0.7399    0.1831   -1.7770 H   0  0  0  0  0  0  0  0  0  0  0  0
    1.7297   -2.1255   -1.4061 H   0  0  0  0  0  0  0  0  0  0  0  0
    0.3771   -2.1178   -2.5082 H   0  0  0  0  0  0  0  0  0  0  0  0
   -0.9909   -2.8033   -0.6481 H   0  0  0  0  0  0  0  0  0  0  0  0
   -2.0328   -1.1145   -1.9861 N   0  0  0  0  0  0  0  0  0  0  0  0
   -3.5060   -1.0910   -2.1130 C   0  0  2  0  0  0  0  0  0  0  0  0
   -4.0822    0.2284   -2.6781 C   0  0  0  0  0  0  0  0  0  0  0  0
   -4.7446    0.1986   -3.7060 O   0  0  0  0  0  0  0  0  0  0  0  0
   -4.1905   -1.4737   -0.7926 C   0  0  0  0  0  0  0  0  0  0  0  0
   -1.5254   -1.6694   -2.6718 H   0  0  0  0  0  0  0  0  0  0  0  0
   -3.7725   -1.8681   -2.8375 H   0  0  0  0  0  0  0  0  0  0  0  0
   -4.0682   -0.6936   -0.0358 H   0  0  0  0  0  0  0  0  0  0  0  0
   -5.2630   -1.6183   -0.9575 H   0  0  0  0  0  0  0  0  0  0  0  0
   -3.7722   -2.4064   -0.4029 H   0  0  0  0  0  0  0  0  0  0  0  0
   -3.8382    1.4408   -2.0643 N   0  0  0  0  0  0  0  0  0  0  0  0
   -4.2909    2.7235   -2.5850 C   0  0  0  0  0  0  0  0  0  0  0  0
   -3.2158    1.4194   -1.2526 H   0  0  0  0  0  0  0  0  0  0  0  0
   -4.0514    3.5236   -1.8782 H   0  0  0  0  0  0  0  0  0  0  0  0
   -3.8010    2.9433   -3.5390 H   0  0  0  0  0  0  0  0  0  0  0  0
   -5.3749    2.7143   -2.7391 H   0  0  0  0  0  0  0  0  0  0  0  0
  1  2  2  0  0  0  0
  1  3  1  0  0  0  0
  1  7  1  0  0  0  0
  3  4  1  0  0  0  0
  3  5  1  0  0  0  0
  3  6  1  0  0  0  0
  7  8  1  0  0  0  0
  7 12  1  0  0  0  0
  8  9  1  0  0  0  0
  8 11  1  0  0  0  0
  8 13  1  0  0  0  0
  9 10  2  0  0  0  0
  9 17  1  0  0  0  0
 11 14  1  0  0  0  0
 11 15  1  0  0  0  0
 11 16  1  0  0  0  0
 17 18  1  0  0  0  0
 17 23  1  0  0  0  0
 18 19  1  0  0  0  0
 18 21  1  0  0  0  0
 18 24  1  0  0  0  0
 19 20  2  0  0  0  0
 19 28  1  0  0  0  0
 21 22  1  0  0  0  0
 21 25  1  0  0  0  0
 21 26  1  0  0  0  0
 22 27  1  0  0  0  0
 28 29  1  0  0  0  0
 28 33  1  0  0  0  0
 29 30  1  0  0  0  0
 29 32  1  0  0  0  0
 29 34  1  0  0  0  0
 30 31  2  0  0  0  0
 30 38  1  0  0  0  0
 32 35  1  0  0  0  0
 32 36  1  0  0  0  0
 32 37  1  0  0  0  0
 38 39  1  0  0  0  0
 38 40  1  0  0  0  0
 39 41  1  0  0  0  0
 39 42  1  0  0  0  0
 39 43  1  0  0  0  0
M  END
$$$$

  -OEChem-05262217303D

 43 42  0     1  0  0  0  0  0999 V2000
    3.5837   -1.6836    4.0422 C   0  0  0  0  0  0  0  0  0  0  0  0
    2.7039   -1.5407    4.8758 O   0  0  0  0  0  0  0  0  0  0  0  0
    4.8162   -2.5054    4.3693 C   0  0  0  0  0  0  0  0  0  0  0  0
    5.7001   -1.8629    4.3807 H   0  0  0  0  0  0  0  0  0  0  0  0
    4.7072   -2.9730    5.3522 H   0  0  0  0  0  0  0  0  0  0  0  0
    4.9536   -3.2897    3.6210 H   0  0  0  0  0  0  0  0  0  0  0  0
    3.4521   -1.1057    2.7973 N   0  0  0  0  0  0  0  0  0  0  0  0
    2.2455   -0.4095    2.3309 C   0  0  2  0  0  0  0  0  0  0  0  0
    1.9694   -0.6744    0.8356 C   0  0  0  0  0  0  0  0  0  0  0  0
    2.8475   -1.1586    0.1339 O   0  0  0  0  0  0  0  0  0  0  0  0
    2.4289    1.0877    2.5954 C   0  0  0  0  0  0  0  0  0  0  0  0
    4.1455   -1.3511    2.0918 H   0  0  0  0  0  0  0  0  0  0  0  0
    1.3715   -0.7657    2.8869 H   0  0  0  0  0  0  0  0  0  0  0  0
    3.2908    1.4730    2.0412 H   0  0  0  0  0  0  0  0  0  0  0  0
    1.5388    1.6457    2.2890 H   0  0  0  0  0  0  0  0  0  0  0  0
    2.5944    1.2643    3.6632 H   0  0  0  0  0  0  0  0  0  0  0  0
    0.7303   -0.3646    0.3037 N   0  0  0  0  0  0  0  0  0  0  0  0
    0.2365   -0.5419   -1.0820 C   0  0  2  0  0  0  0  0  0  0  0  0
   -1.3032   -0.3999   -1.0857 C   0  0  0  0  0  0  0  0  0  0  0  0
   -1.7912    0.5319   -0.4549 O   0  0  0  0  0  0  0  0  0  0  0  0
    0.6654   -1.8463   -1.7938 C   0  0  0  0  0  0  0  0  0  0  0  0
    0.0938   -2.9973   -1.1640 O   0  0  0  0  0  0  0  0  0  0  0  0
    0.0743    0.0839    0.9440 H   0  0  0  0  0  0  0  0  0  0  0  0
    0.6300    0.2846   -1.6812 H   0  0  0  0  0  0  0  0  0  0  0  0
    1.7520   -1.9428   -1.8462 H   0  0  0  0  0  0  0  0  0  0  0  0
    0.3177   -1.8078   -2.8316 H   0  0  0  0  0  0  0  0  0  0  0  0
    0.5736   -3.1879   -0.3358 H   0  0  0  0  0  0  0  0  0  0  0  0
   -2.1267   -1.2768   -1.7740 N   0  0  0  0  0  0  0  0  0  0  0  0
   -3.6040   -1.3014   -1.7893 C   0  0  2  0  0  0  0  0  0  0  0  0
   -4.2706   -0.0993   -2.4979 C   0  0  0  0  0  0  0  0  0  0  0  0
   -5.0905   -0.3007   -3.3840 O   0  0  0  0  0  0  0  0  0  0  0  0
   -4.1677   -1.4837   -0.3734 C   0  0  0  0  0  0  0  0  0  0  0  0
   -1.6493   -2.1217   -2.0927 H   0  0  0  0  0  0  0  0  0  0  0  0
   -3.8968   -2.1864   -2.3642 H   0  0  0  0  0  0  0  0  0  0  0  0
   -4.0097   -0.5890    0.2360 H   0  0  0  0  0  0  0  0  0  0  0  0
   -5.2442   -1.6766   -0.4212 H   0  0  0  0  0  0  0  0  0  0  0  0
   -3.6859   -2.3327    0.1207 H   0  0  0  0  0  0  0  0  0  0  0  0
   -3.9700    1.2002   -2.1420 N   0  0  0  0  0  0  0  0  0  0  0  0
   -4.5511    2.3767   -2.7729 C   0  0  0  0  0  0  0  0  0  0  0  0
   -3.2582    1.3159   -1.4166 H   0  0  0  0  0  0  0  0  0  0  0  0
   -4.1979    3.2839   -2.2737 H   0  0  0  0  0  0  0  0  0  0  0  0
   -4.2637    2.4259   -3.8282 H   0  0  0  0  0  0  0  0  0  0  0  0
   -5.6437    2.3489   -2.7051 H   0  0  0  0  0  0  0  0  0  0  0  0
  1  2  2  0  0  0  0
  1  3  1  0  0  0  0
  1  7  1  0  0  0  0
  3  4  1  0  0  0  0
  3  5  1  0  0  0  0
  3  6  1  0  0  0  0
  7  8  1  0  0  0  0
  7 12  1  0  0  0  0
  8  9  1  0  0  0  0
  8 11  1  0  0  0  0
  8 13  1  0  0  0  0
  9 10  2  0  0  0  0
  9 17  1  0  0  0  0
 11 14  1  0  0  0  0
 11 15  1  0  0  0  0
 11 16  1  0  0  0  0
 17 18  1  0  0  0  0
 17 23  1  0  0  0  0
 18 19  1  0  0  0  0
 18 21  1  0  0  0  0
 18 24  1  0  0  0  0
 19 20  2  0  0  0  0
 19 28  1  0  0  0  0
 21 22  1  0  0  0  0
 21 25  1  0  0  0  0
 21 26  1  0  0  0  0
 22 27  1  0  0  0  0
 28 29  1  0  0  0  0
 28 33  1  0  0  0  0
 29 30  1  0  0  0  0
 29 32  1  0  0  0  0
 29 34  1  0  0  0  0
 30 31  2  0  0  0  0
 30 38  1  0  0  0  0
 32 35  1  0  0  0  0
 32 36  1  0  0  0  0
 32 37  1  0  0  0  0
 38 39  1  0  0  0  0
 38 40  1  0  0  0  0
 39 41  1  0  0  0  0
 39 42  1  0  0  0  0
 39 43  1  0  0  0  0
M  END
$$$$

  -OEChem-05262217303D

 43 42  0     1  0  0  0  0  0999 V2000
    3.6269   -1.6960    4.0222 C   0  0  0  0  0  0  0  0  0  0  0  0
    2.7452   -1.5898    4.8594 O   0  0  0  0  0  0  0  0  0  0  0  0
    4.8521   -2.5432    4.3107 C   0  0  0  0  0  0  0  0  0  0  0  0
    5.7420   -1.9103    4.3491 H   0  0  0  0  0  0  0  0  0  0  0  0
    4.7407   -3.0530    5.2720 H   0  0  0  0  0  0  0  0  0  0  0  0
    4.9814   -3.2947    3.5280 H   0  0  0  0  0  0  0  0  0  0  0  0
    3.5063   -1.0567    2.8061 N   0  0  0  0  0  0  0  0  0  0  0  0
    2.2933   -0.3611    2.3524 C   0  0  2  0  0  0  0  0  0  0  0  0
    1.9655   -0.6793    0.8775 C   0  0  0  0  0  0  0  0  0  0  0  0
    2.8164   -1.2028    0.1706 O   0  0  0  0  0  0  0  0  0  0  0  0
    2.5090    1.1421    2.5488 C   0  0  0  0  0  0  0  0  0  0  0  0
    4.1915   -1.2955    2.0903 H   0  0  0  0  0  0  0  0  0  0  0  0
    1.4315   -0.6782    2.9495 H   0  0  0  0  0  0  0  0  0  0  0  0
    3.3586    1.4893    1.9519 H   0  0  0  0  0  0  0  0  0  0  0  0
    1.6186    1.7025    2.2475 H   0  0  0  0  0  0  0  0  0  0  0  0
    2.7114    1.3594    3.6026 H   0  0  0  0  0  0  0  0  0  0  0  0
    0.7143   -0.3700    0.3720 N   0  0  0  0  0  0  0  0  0  0  0  0
    0.1891   -0.5445   -1.0031 C   0  0  2  0  0  0  0  0  0  0  0  0
   -1.3494   -0.4075   -0.9894 C   0  0  0  0  0  0  0  0  0  0  0  0
   -1.8215    0.6293   -0.5379 O   0  0  0  0  0  0  0  0  0  0  0  0
    0.6273   -1.8330   -1.7388 C   0  0  0  0  0  0  0  0  0  0  0  0
    0.1023   -3.0087   -1.1115 O   0  0  0  0  0  0  0  0  0  0  0  0
    0.0908    0.1147    1.0174 H   0  0  0  0  0  0  0  0  0  0  0  0
    0.5653    0.2903   -1.6023 H   0  0  0  0  0  0  0  0  0  0  0  0
    1.7134   -1.9023   -1.8310 H   0  0  0  0  0  0  0  0  0  0  0  0
    0.2396   -1.7895   -2.7623 H   0  0  0  0  0  0  0  0  0  0  0  0
    0.6377   -3.2202   -0.3227 H   0  0  0  0  0  0  0  0  0  0  0  0
   -2.1907   -1.4281   -1.4011 N   0  0  0  0  0  0  0  0  0  0  0  0
   -3.6664   -1.4689   -1.3424 C   0  0  2  0  0  0  0  0  0  0  0  0
   -4.3857   -0.4606   -2.2685 C   0  0  0  0  0  0  0  0  0  0  0  0
   -5.2670   -0.8555   -3.0203 O   0  0  0  0  0  0  0  0  0  0  0  0
   -4.1643   -1.3349    0.1027 C   0  0  0  0  0  0  0  0  0  0  0  0
   -1.7054   -2.3027   -1.6171 H   0  0  0  0  0  0  0  0  0  0  0  0
   -3.9675   -2.4619   -1.6923 H   0  0  0  0  0  0  0  0  0  0  0  0
   -3.9869   -0.3283    0.4922 H   0  0  0  0  0  0  0  0  0  0  0  0
   -5.2400   -1.5327    0.1472 H   0  0  0  0  0  0  0  0  0  0  0  0
   -3.6536   -2.0551    0.7489 H   0  0  0  0  0  0  0  0  0  0  0  0
   -4.0642    0.8821   -2.2580 N   0  0  0  0  0  0  0  0  0  0  0  0
   -4.7055    1.8824   -3.0998 C   0  0  0  0  0  0  0  0  0  0  0  0
   -3.3261    1.1657   -1.6090 H   0  0  0  0  0  0  0  0  0  0  0  0
   -4.2810    2.8712   -2.9004 H   0  0  0  0  0  0  0  0  0  0  0  0
   -4.5527    1.6461   -4.1581 H   0  0  0  0  0  0  0  0  0  0  0  0
   -5.7811    1.9205   -2.8984 H   0  0  0  0  0  0  0  0  0  0  0  0
  1  2  2  0  0  0  0
  1  3  1  0  0  0  0
  1  7  1  0  0  0  0
  3  4  1  0  0  0  0
  3  5  1  0  0  0  0
  3  6  1  0  0  0  0
  7  8  1  0  0  0  0
  7 12  1  0  0  0  0
  8  9  1  0  0  0  0
  8 11  1  0  0  0  0
  8 13  1  0  0  0  0
  9 10  2  0  0  0  0
  9 17  1  0  0  0  0
 11 14  1  0  0  0  0
 11 15  1  0  0  0  0
 11 16  1  0  0  0  0
 17 18  1  0  0  0  0
 17 23  1  0  0  0  0
 18 19  1  0  0  0  0
 18 21  1  0  0  0  0
 18 24  1  0  0  0  0
 19 20  2  0  0  0  0
 19 28  1  0  0  0  0
 21 22  1  0  0  0  0
 21 25  1  0  0  0  0
 21 26  1  0  0  0  0
 22 27  1  0  0  0  0
 28 29  1  0  0  0  0
 28 33  1  0  0  0  0
 29 30  1  0  0  0  0
 29 32  1  0  0  0  0
 29 34  1  0  0  0  0
 30 31  2  0  0  0  0
 30 38  1  0  0  0  0
 32 35  1  0  0  0  0
 32 36  1  0  0  0  0
 32 37  1  0  0  0  0
 38 39  1  0  0  0  0
 38 40  1  0  0  0  0
 39 41  1  0  0  0  0
 39 42  1  0  0  0  0
 39 43  1  0  0  0  0
M  END
$$$$

  -OEChem-05262217303D

 43 42  0     1  0  0  0  0  0999 V2000
    3.6778   -1.6938    3.9928 C   0  0  0  0  0  0  0  0  0  0  0  0
    2.8201   -1.5304    4.8456 O   0  0  0  0  0  0  0  0  0  0  0  0
    4.8705   -2.5892    4.2718 C   0  0  0  0  0  0  0  0  0  0  0  0
    5.7944   -2.0083    4.2157 H   0  0  0  0  0  0  0  0  0  0  0  0
    4.7885   -3.0252    5.2712 H   0  0  0  0  0  0  0  0  0  0  0  0
    4.9110   -3.3978    3.5379 H   0  0  0  0  0  0  0  0  0  0  0  0
    3.5555   -1.0795    2.7644 N   0  0  0  0  0  0  0  0  0  0  0  0
    2.3616   -0.3469    2.3195 C   0  0  2  0  0  0  0  0  0  0  0  0
    1.9864   -0.6921    0.8624 C   0  0  0  0  0  0  0  0  0  0  0  0
    2.8004   -1.2652    0.1505 O   0  0  0  0  0  0  0  0  0  0  0  0
    2.6444    1.1502    2.4697 C   0  0  0  0  0  0  0  0  0  0  0  0
    4.2144   -1.3627    2.0403 H   0  0  0  0  0  0  0  0  0  0  0  0
    1.5019   -0.6114    2.9448 H   0  0  0  0  0  0  0  0  0  0  0  0
    3.4991    1.4434    1.8516 H   0  0  0  0  0  0  0  0  0  0  0  0
    1.7748    1.7404    2.1651 H   0  0  0  0  0  0  0  0  0  0  0  0
    2.8724    1.3877    3.5139 H   0  0  0  0  0  0  0  0  0  0  0  0
    0.7282   -0.3647    0.3868 N   0  0  0  0  0  0  0  0  0  0  0  0
    0.1563   -0.5618   -0.9664 C   0  0  2  0  0  0  0  0  0  0  0  0
   -1.3769   -0.3886   -0.9235 C   0  0  0  0  0  0  0  0  0  0  0  0
   -1.8154    0.7340   -0.7063 O   0  0  0  0  0  0  0  0  0  0  0  0
    0.5558   -1.8720   -1.6856 C   0  0  0  0  0  0  0  0  0  0  0  0
    0.0420   -3.0319   -1.0193 O   0  0  0  0  0  0  0  0  0  0  0  0
    0.1430    0.1584    1.0369 H   0  0  0  0  0  0  0  0  0  0  0  0
    0.5347    0.2513   -1.5939 H   0  0  0  0  0  0  0  0  0  0  0  0
    1.6368   -1.9531   -1.8175 H   0  0  0  0  0  0  0  0  0  0  0  0
    0.1296   -1.8458   -2.6943 H   0  0  0  0  0  0  0  0  0  0  0  0
    0.6275   -3.2565   -0.2704 H   0  0  0  0  0  0  0  0  0  0  0  0
   -2.2451   -1.4651   -0.9908 N   0  0  0  0  0  0  0  0  0  0  0  0
   -3.7114   -1.4695   -0.8072 C   0  0  2  0  0  0  0  0  0  0  0  0
   -4.5133   -0.7258   -1.9000 C   0  0  0  0  0  0  0  0  0  0  0  0
   -5.4998   -1.2593   -2.3900 O   0  0  0  0  0  0  0  0  0  0  0  0
   -4.0927   -0.9591    0.5890 C   0  0  0  0  0  0  0  0  0  0  0  0
   -1.7794   -2.3693   -1.1080 H   0  0  0  0  0  0  0  0  0  0  0  0
   -4.0306   -2.5154   -0.8633 H   0  0  0  0  0  0  0  0  0  0  0  0
   -3.9002    0.1133    0.6859 H   0  0  0  0  0  0  0  0  0  0  0  0
   -5.1581   -1.1313    0.7723 H   0  0  0  0  0  0  0  0  0  0  0  0
   -3.5200   -1.4882    1.3563 H   0  0  0  0  0  0  0  0  0  0  0  0
   -4.1561    0.5412   -2.3163 N   0  0  0  0  0  0  0  0  0  0  0  0
   -4.9084    1.3219   -3.2882 C   0  0  0  0  0  0  0  0  0  0  0  0
   -3.3658    0.9699   -1.8285 H   0  0  0  0  0  0  0  0  0  0  0  0
   -5.9013    1.5660   -2.8964 H   0  0  0  0  0  0  0  0  0  0  0  0
   -4.3821    2.2553   -3.5097 H   0  0  0  0  0  0  0  0  0  0  0  0
   -5.0252    0.7621   -4.2220 H   0  0  0  0  0  0  0  0  0  0  0  0
  1  2  2  0  0  0  0
  1  3  1  0  0  0  0
  1  7  1  0  0  0  0
  3  4  1  0  0  0  0
  3  5  1  0  0  0  0
  3  6  1  0  0  0  0
  7  8  1  0  0  0  0
  7 12  1  0  0  0  0
  8  9  1  0  0  0  0
  8 11  1  0  0  0  0
  8 13  1  0  0  0  0
  9 10  2  0  0  0  0
  9 17  1  0  0  0  0
 11 14  1  0  0  0  0
 11 15  1  0  0  0  0
 11 16  1  0  0  0  0
 17 18  1  0  0  0  0
 17 23  1  0  0  0  0
 18 19  1  0  0  0  0
 18 21  1  0  0  0  0
 18 24  1  0  0  0  0
 19 20  2  0  0  0  0
 19 28  1  0  0  0  0
 21 22  1  0  0  0  0
 21 25  1  0  0  0  0
 21 26  1  0  0  0  0
 22 27  1  0  0  0  0
 28 29  1  0  0  0  0
 28 33  1  0  0  0  0
 29 30  1  0  0  0  0
 29 32  1  0  0  0  0
 29 34  1  0  0  0  0
 30 31  2  0  0  0  0
 30 38  1  0  0  0  0
 32 35  1  0  0  0  0
 32 36  1  0  0  0  0
 32 37  1  0  0  0  0
 38 39  1  0  0  0  0
 38 40  1  0  0  0  0
 39 41  1  0  0  0  0
 39 42  1  0  0  0  0
 39 43  1  0  0  0  0
M  END
$$$$

  -OEChem-05262217303D

 43 42  0     1  0  0  0  0  0999 V2000
    3.8687   -1.8255    3.8062 C   0  0  0  0  0  0  0  0  0  0  0  0
    3.0480   -1.8223    4.7098 O   0  0  0  0  0  0  0  0  0  0  0  0
    5.1147   -2.6849    3.9119 C   0  0  0  0  0  0  0  0  0  0  0  0
    6.0064   -2.0535    3.8924 H   0  0  0  0  0  0  0  0  0  0  0  0
    5.1036   -3.2514    4.8475 H   0  0  0  0  0  0  0  0  0  0  0  0
    5.1562   -3.3880    3.0762 H   0  0  0  0  0  0  0  0  0  0  0  0
    3.6581   -1.0617    2.6779 N   0  0  0  0  0  0  0  0  0  0  0  0
    2.4048   -0.3558    2.3784 C   0  0  2  0  0  0  0  0  0  0  0  0
    2.0103   -0.5036    0.8931 C   0  0  0  0  0  0  0  0  0  0  0  0
    2.8570   -0.8500    0.0775 O   0  0  0  0  0  0  0  0  0  0  0  0
    2.5921    1.1186    2.7465 C   0  0  0  0  0  0  0  0  0  0  0  0
    4.2950   -1.2084    1.8959 H   0  0  0  0  0  0  0  0  0  0  0  0
    1.5860   -0.7727    2.9747 H   0  0  0  0  0  0  0  0  0  0  0  0
    3.3956    1.5629    2.1500 H   0  0  0  0  0  0  0  0  0  0  0  0
    1.6710    1.6810    2.5652 H   0  0  0  0  0  0  0  0  0  0  0  0
    2.8508    1.2140    3.8062 H   0  0  0  0  0  0  0  0  0  0  0  0
    0.7281   -0.1770    0.4847 N   0  0  0  0  0  0  0  0  0  0  0  0
    0.1002   -0.4512   -0.8286 C   0  0  2  0  0  0  0  0  0  0  0  0
   -1.4287   -0.2595   -0.7431 C   0  0  0  0  0  0  0  0  0  0  0  0
   -1.8827    0.8653   -0.9054 O   0  0  0  0  0  0  0  0  0  0  0  0
    0.4411   -1.8385   -1.4328 C   0  0  0  0  0  0  0  0  0  0  0  0
   -0.0839   -2.9324   -0.6625 O   0  0  0  0  0  0  0  0  0  0  0  0
    0.1057    0.1431    1.2230 H   0  0  0  0  0  0  0  0  0  0  0  0
    0.4743    0.2995   -1.5320 H   0  0  0  0  0  0  0  0  0  0  0  0
    1.5190   -1.9599   -1.5578 H   0  0  0  0  0  0  0  0  0  0  0  0
    0.0102   -1.8897   -2.4383 H   0  0  0  0  0  0  0  0  0  0  0  0
    0.3004   -3.7748   -0.9709 H   0  0  0  0  0  0  0  0  0  0  0  0
   -2.2792   -1.2977   -0.4068 N   0  0  0  0  0  0  0  0  0  0  0  0
   -3.7429   -1.2581   -0.2132 C   0  0  2  0  0  0  0  0  0  0  0  0
   -4.5595   -0.9473   -1.4884 C   0  0  0  0  0  0  0  0  0  0  0  0
   -5.4949   -1.6739   -1.7969 O   0  0  0  0  0  0  0  0  0  0  0  0
   -4.1247   -0.3027    0.9254 C   0  0  0  0  0  0  0  0  0  0  0  0
   -1.8075   -2.1989   -0.2985 H   0  0  0  0  0  0  0  0  0  0  0  0
   -4.0460   -2.2627    0.0998 H   0  0  0  0  0  0  0  0  0  0  0  0
   -3.9408    0.7395    0.6486 H   0  0  0  0  0  0  0  0  0  0  0  0
   -5.1884   -0.4086    1.1613 H   0  0  0  0  0  0  0  0  0  0  0  0
   -3.5465   -0.5339    1.8248 H   0  0  0  0  0  0  0  0  0  0  0  0
   -4.2604    0.1403   -2.2840 N   0  0  0  0  0  0  0  0  0  0  0  0
   -4.9930    0.4967   -3.4905 C   0  0  0  0  0  0  0  0  0  0  0  0
   -3.4769    0.7227   -1.9775 H   0  0  0  0  0  0  0  0  0  0  0  0
   -4.5910    1.4214   -3.9153 H   0  0  0  0  0  0  0  0  0  0  0  0
   -4.9057   -0.2966   -4.2403 H   0  0  0  0  0  0  0  0  0  0  0  0
   -6.0527    0.6526   -3.2628 H   0  0  0  0  0  0  0  0  0  0  0  0
  1  2  2  0  0  0  0
  1  3  1  0  0  0  0
  1  7  1  0  0  0  0
  3  4  1  0  0  0  0
  3  5  1  0  0  0  0
  3  6  1  0  0  0  0
  7  8  1  0  0  0  0
  7 12  1  0  0  0  0
  8  9  1  0  0  0  0
  8 11  1  0  0  0  0
  8 13  1  0  0  0  0
  9 10  2  0  0  0  0
  9 17  1  0  0  0  0
 11 14  1  0  0  0  0
 11 15  1  0  0  0  0
 11 16  1  0  0  0  0
 17 18  1  0  0  0  0
 17 23  1  0  0  0  0
 18 19  1  0  0  0  0
 18 21  1  0  0  0  0
 18 24  1  0  0  0  0
 19 20  2  0  0  0  0
 19 28  1  0  0  0  0
 21 22  1  0  0  0  0
 21 25  1  0  0  0  0
 21 26  1  0  0  0  0
 22 27  1  0  0  0  0
 28 29  1  0  0  0  0
 28 33  1  0  0  0  0
 29 30  1  0  0  0  0
 29 32  1  0  0  0  0
 29 34  1  0  0  0  0
 30 31  2  0  0  0  0
 30 38  1  0  0  0  0
 32 35  1  0  0  0  0
 32 36  1  0  0  0  0
 32 37  1  0  0  0  0
 38 39  1  0  0  0  0
 38 40  1  0  0  0  0
 39 41  1  0  0  0  0
 39 42  1  0  0  0  0
 39 43  1  0  0  0  0
M  END
$$$$

  -OEChem-05262217303D

 43 42  0     1  0  0  0  0  0999 V2000
    3.9047   -1.8977    3.7264 C   0  0  0  0  0  0  0  0  0  0  0  0
    3.1013   -1.8841    4.6454 O   0  0  0  0  0  0  0  0  0  0  0  0
    5.1124   -2.8142    3.7833 C   0  0  0  0  0  0  0  0  0  0  0  0
    6.0305   -2.2235    3.7384 H   0  0  0  0  0  0  0  0  0  0  0  0
    5.1073   -3.3885    4.7141 H   0  0  0  0  0  0  0  0  0  0  0  0
    5.0931   -3.5099    2.9408 H   0  0  0  0  0  0  0  0  0  0  0  0
    3.7099   -1.0925    2.6241 N   0  0  0  0  0  0  0  0  0  0  0  0
    2.4827   -0.3271    2.3655 C   0  0  2  0  0  0  0  0  0  0  0  0
    2.0355   -0.4541    0.8938 C   0  0  0  0  0  0  0  0  0  0  0  0
    2.8451   -0.8103    0.0456 O   0  0  0  0  0  0  0  0  0  0  0  0
    2.7509    1.1366    2.7256 C   0  0  0  0  0  0  0  0  0  0  0  0
    4.3238   -1.2492    1.8256 H   0  0  0  0  0  0  0  0  0  0  0  0
    1.6643   -0.7052    2.9876 H   0  0  0  0  0  0  0  0  0  0  0  0
    3.5545    1.5431    2.1030 H   0  0  0  0  0  0  0  0  0  0  0  0
    1.8523    1.7417    2.5731 H   0  0  0  0  0  0  0  0  0  0  0  0
    3.0478    1.2194    3.7761 H   0  0  0  0  0  0  0  0  0  0  0  0
    0.7487   -0.0948    0.5315 N   0  0  0  0  0  0  0  0  0  0  0  0
    0.0704   -0.3754   -0.7551 C   0  0  2  0  0  0  0  0  0  0  0  0
   -1.4484   -0.1422   -0.6328 C   0  0  0  0  0  0  0  0  0  0  0  0
   -1.9228    0.8995   -1.0657 O   0  0  0  0  0  0  0  0  0  0  0  0
    0.3323   -1.7951   -1.3191 C   0  0  0  0  0  0  0  0  0  0  0  0
   -0.2229   -2.8316   -0.4926 O   0  0  0  0  0  0  0  0  0  0  0  0
    0.1556    0.2170    1.2966 H   0  0  0  0  0  0  0  0  0  0  0  0
    0.4499    0.3397   -1.4921 H   0  0  0  0  0  0  0  0  0  0  0  0
    1.3995   -1.9722   -1.4664 H   0  0  0  0  0  0  0  0  0  0  0  0
   -0.1293   -1.8615   -2.3100 H   0  0  0  0  0  0  0  0  0  0  0  0
    0.0644   -3.7073   -0.8130 H   0  0  0  0  0  0  0  0  0  0  0  0
   -2.2575   -1.0469    0.0320 N   0  0  0  0  0  0  0  0  0  0  0  0
   -3.7165   -0.9730    0.2482 C   0  0  2  0  0  0  0  0  0  0  0  0
   -4.5657   -1.0489   -1.0412 C   0  0  0  0  0  0  0  0  0  0  0  0
   -5.4545   -1.8857   -1.1291 O   0  0  0  0  0  0  0  0  0  0  0  0
   -4.0927    0.2608    1.0797 C   0  0  0  0  0  0  0  0  0  0  0  0
   -1.7924   -1.9357    0.2341 H   0  0  0  0  0  0  0  0  0  0  0  0
   -3.9911   -1.8506    0.8426 H   0  0  0  0  0  0  0  0  0  0  0  0
   -3.9352    1.1845    0.5152 H   0  0  0  0  0  0  0  0  0  0  0  0
   -5.1486    0.2116    1.3648 H   0  0  0  0  0  0  0  0  0  0  0  0
   -3.4900    0.3012    1.9918 H   0  0  0  0  0  0  0  0  0  0  0  0
   -4.3401   -0.1911   -2.0991 N   0  0  0  0  0  0  0  0  0  0  0  0
   -5.0872   -0.2209   -3.3481 C   0  0  0  0  0  0  0  0  0  0  0  0
   -3.5733    0.4767   -1.9846 H   0  0  0  0  0  0  0  0  0  0  0  0
   -4.7527    0.5865   -4.0066 H   0  0  0  0  0  0  0  0  0  0  0  0
   -4.9340   -1.1753   -3.8623 H   0  0  0  0  0  0  0  0  0  0  0  0
   -6.1574   -0.0906   -3.1570 H   0  0  0  0  0  0  0  0  0  0  0  0
  1  2  2  0  0  0  0
  1  3  1  0  0  0  0
  1  7  1  0  0  0  0
  3  4  1  0  0  0  0
  3  5  1  0  0  0  0
  3  6  1  0  0  0  0
  7  8  1  0  0  0  0
  7 12  1  0  0  0  0
  8  9  1  0  0  0  0
  8 11  1  0  0  0  0
  8 13  1  0  0  0  0
  9 10  2  0  0  0  0
  9 17  1  0  0  0  0
 11 14  1  0  0  0  0
 11 15  1  0  0  0  0
 11 16  1  0  0  0  0
 17 18  1  0  0  0  0
 17 23  1  0  0  0  0
 18 19  1  0  0  0  0
 18 21  1  0  0  0  0
 18 24  1  0  0  0  0
 19 20  2  0  0  0  0
 19 28  1  0  0  0  0
 21 22  1  0  0  0  0
 21 25  1  0  0  0  0
 21 26  1  0  0  0  0
 22 27  1  0  0  0  0
 28 29  1  0  0  0  0
 28 33  1  0  0  0  0
 29 30  1  0  0  0  0
 29 32  1  0  0  0  0
 29 34  1  0  0  0  0
 30 31  2  0  0  0  0
 30 38  1  0  0  0  0
 32 35  1  0  0  0  0
 32 36  1  0  0  0  0
 32 37  1  0  0  0  0
 38 39  1  0  0  0  0
 38 40  1  0  0  0  0
 39 41  1  0  0  0  0
 39 42  1  0  0  0  0
 39 43  1  0  0  0  0
M  END
$$$$

  -OEChem-05262217303D

 43 42  0     1  0  0  0  0  0999 V2000
    3.8945   -1.9808    3.6495 C   0  0  0  0  0  0  0  0  0  0  0  0
    3.0866   -1.9650    4.5645 O   0  0  0  0  0  0  0  0  0  0  0  0
    5.0688   -2.9405    3.6878 C   0  0  0  0  0  0  0  0  0  0  0  0
    6.0062   -2.3804    3.7279 H   0  0  0  0  0  0  0  0  0  0  0  0
    5.0022   -3.5817    4.5713 H   0  0  0  0  0  0  0  0  0  0  0  0
    5.0666   -3.5707    2.7952 H   0  0  0  0  0  0  0  0  0  0  0  0
    3.7377   -1.1337    2.5729 N   0  0  0  0  0  0  0  0  0  0  0  0
    2.5457   -0.3078    2.3384 C   0  0  2  0  0  0  0  0  0  0  0  0
    2.0621   -0.4093    0.8771 C   0  0  0  0  0  0  0  0  0  0  0  0
    2.8371   -0.7861    0.0057 O   0  0  0  0  0  0  0  0  0  0  0  0
    2.8985    1.1381    2.6958 C   0  0  0  0  0  0  0  0  0  0  0  0
    4.3470   -1.2915    1.7713 H   0  0  0  0  0  0  0  0  0  0  0  0
    1.7206   -0.6424    2.9764 H   0  0  0  0  0  0  0  0  0  0  0  0
    3.7177    1.4996    2.0657 H   0  0  0  0  0  0  0  0  0  0  0  0
    2.0337    1.7931    2.5528 H   0  0  0  0  0  0  0  0  0  0  0  0
    3.2101    1.2020    3.7433 H   0  0  0  0  0  0  0  0  0  0  0  0
    0.7797   -0.0073    0.5477 N   0  0  0  0  0  0  0  0  0  0  0  0
    0.0617   -0.2949   -0.7154 C   0  0  2  0  0  0  0  0  0  0  0  0
   -1.4437   -0.0076   -0.5728 C   0  0  0  0  0  0  0  0  0  0  0  0
   -1.9507    0.8753   -1.2517 O   0  0  0  0  0  0  0  0  0  0  0  0
    0.2266   -1.7534   -1.2069 C   0  0  0  0  0  0  0  0  0  0  0  0
   -0.3857   -2.6959   -0.3110 O   0  0  0  0  0  0  0  0  0  0  0  0
    0.2097    0.2998    1.3319 H   0  0  0  0  0  0  0  0  0  0  0  0
    0.4579    0.3685   -1.4913 H   0  0  0  0  0  0  0  0  0  0  0  0
    1.2780   -2.0097   -1.3533 H   0  0  0  0  0  0  0  0  0  0  0  0
   -0.2536   -1.8443   -2.1869 H   0  0  0  0  0  0  0  0  0  0  0  0
   -0.2235   -3.6080   -0.6170 H   0  0  0  0  0  0  0  0  0  0  0  0
   -2.1944   -0.6871    0.3716 N   0  0  0  0  0  0  0  0  0  0  0  0
   -3.6468   -0.5695    0.6108 C   0  0  2  0  0  0  0  0  0  0  0  0
   -4.5292   -1.0228   -0.5752 C   0  0  0  0  0  0  0  0  0  0  0  0
   -5.3526   -1.9127   -0.4086 O   0  0  0  0  0  0  0  0  0  0  0  0
   -4.0231    0.8466    1.0683 C   0  0  0  0  0  0  0  0  0  0  0  0
   -1.7386   -1.5436    0.6944 H   0  0  0  0  0  0  0  0  0  0  0  0
   -3.8859   -1.2424    1.4407 H   0  0  0  0  0  0  0  0  0  0  0  0
   -3.9024    1.5733    0.2598 H   0  0  0  0  0  0  0  0  0  0  0  0
   -5.0687    0.8690    1.3918 H   0  0  0  0  0  0  0  0  0  0  0  0
   -3.3946    1.1537    1.9096 H   0  0  0  0  0  0  0  0  0  0  0  0
   -4.3939   -0.4540   -1.8262 N   0  0  0  0  0  0  0  0  0  0  0  0
   -5.1445   -0.8752   -3.0006 C   0  0  0  0  0  0  0  0  0  0  0  0
   -3.6499    0.2417   -1.9267 H   0  0  0  0  0  0  0  0  0  0  0  0
   -4.8482   -0.2800   -3.8697 H   0  0  0  0  0  0  0  0  0  0  0  0
   -4.9507   -1.9300   -3.2208 H   0  0  0  0  0  0  0  0  0  0  0  0
   -6.2187   -0.7396   -2.8378 H   0  0  0  0  0  0  0  0  0  0  0  0
  1  2  2  0  0  0  0
  1  3  1  0  0  0  0
  1  7  1  0  0  0  0
  3  4  1  0  0  0  0
  3  5  1  0  0  0  0
  3  6  1  0  0  0  0
  7  8  1  0  0  0  0
  7 12  1  0  0  0  0
  8  9  1  0  0  0  0
  8 11  1  0  0  0  0
  8 13  1  0  0  0  0
  9 10  2  0  0  0  0
  9 17  1  0  0  0  0
 11 14  1  0  0  0  0
 11 15  1  0  0  0  0
 11 16  1  0  0  0  0
 17 18  1  0  0  0  0
 17 23  1  0  0  0  0
 18 19  1  0  0  0  0
 18 21  1  0  0  0  0
 18 24  1  0  0  0  0
 19 20  2  0  0  0  0
 19 28  1  0  0  0  0
 21 22  1  0  0  0  0
 21 25  1  0  0  0  0
 21 26  1  0  0  0  0
 22 27  1  0  0  0  0
 28 29  1  0  0  0  0
 28 33  1  0  0  0  0
 29 30  1  0  0  0  0
 29 32  1  0  0  0  0
 29 34  1  0  0  0  0
 30 31  2  0  0  0  0
 30 38  1  0  0  0  0
 32 35  1  0  0  0  0
 32 36  1  0  0  0  0
 32 37  1  0  0  0  0
 38 39  1  0  0  0  0
 38 40  1  0  0  0  0
 39 41  1  0  0  0  0
 39 42  1  0  0  0  0
 39 43  1  0  0  0  0
M  END
$$$$

  -OEChem-05262217303D

 43 42  0     1  0  0  0  0  0999 V2000
    4.0194   -1.9887    3.8645 C   0  0  0  0  0  0  0  0  0  0  0  0
    3.4051   -1.5937    4.8434 O   0  0  0  0  0  0  0  0  0  0  0  0
    5.0584   -3.0847    4.0052 C   0  0  0  0  0  0  0  0  0  0  0  0
    6.0339   -2.7182    3.6765 H   0  0  0  0  0  0  0  0  0  0  0  0
    5.1343   -3.4005    5.0495 H   0  0  0  0  0  0  0  0  0  0  0  0
    4.7758   -3.9463    3.3954 H   0  0  0  0  0  0  0  0  0  0  0  0
    3.7653   -1.4399    2.6259 N   0  0  0  0  0  0  0  0  0  0  0  0
    2.6993   -0.4687    2.3523 C   0  0  2  0  0  0  0  0  0  0  0  0
    2.1614   -0.6035    0.9122 C   0  0  0  0  0  0  0  0  0  0  0  0
    2.8414   -1.1660    0.0624 O   0  0  0  0  0  0  0  0  0  0  0  0
    3.2581    0.9383    2.5881 C   0  0  0  0  0  0  0  0  0  0  0  0
    4.2154   -1.8693    1.8178 H   0  0  0  0  0  0  0  0  0  0  0  0
    1.8598   -0.6449    3.0334 H   0  0  0  0  0  0  0  0  0  0  0  0
    4.0955    1.1349    1.9109 H   0  0  0  0  0  0  0  0  0  0  0  0
    2.4863    1.6944    2.4165 H   0  0  0  0  0  0  0  0  0  0  0  0
    3.6135    1.0374    3.6187 H   0  0  0  0  0  0  0  0  0  0  0  0
    0.9666    0.0028    0.5629 N   0  0  0  0  0  0  0  0  0  0  0  0
    0.2006   -0.2228   -0.6862 C   0  0  2  0  0  0  0  0  0  0  0  0
   -1.2277    0.3286   -0.5705 C   0  0  0  0  0  0  0  0  0  0  0  0
   -1.7295    0.9200   -1.5159 O   0  0  0  0  0  0  0  0  0  0  0  0
    0.0434   -1.7189   -1.0608 C   0  0  0  0  0  0  0  0  0  0  0  0
   -0.7600   -2.4376   -0.1078 O   0  0  0  0  0  0  0  0  0  0  0  0
    0.4931    0.4986    1.3129 H   0  0  0  0  0  0  0  0  0  0  0  0
    0.7079    0.2920   -1.5082 H   0  0  0  0  0  0  0  0  0  0  0  0
    1.0175   -2.2043   -1.1520 H   0  0  0  0  0  0  0  0  0  0  0  0
   -0.4325   -1.7922   -2.0447 H   0  0  0  0  0  0  0  0  0  0  0  0
   -1.7152   -2.4254   -0.3726 H   0  0  0  0  0  0  0  0  0  0  0  0
   -1.9613    0.0753    0.5796 N   0  0  0  0  0  0  0  0  0  0  0  0
   -3.4354    0.0513    0.5782 C   0  0  2  0  0  0  0  0  0  0  0  0
   -3.9795   -0.9421   -0.4808 C   0  0  0  0  0  0  0  0  0  0  0  0
   -3.4166   -2.0273   -0.6131 O   0  0  0  0  0  0  0  0  0  0  0  0
   -4.0184    1.4700    0.4635 C   0  0  0  0  0  0  0  0  0  0  0  0
   -1.5186   -0.6460    1.1492 H   0  0  0  0  0  0  0  0  0  0  0  0
   -3.7576   -0.3399    1.5483 H   0  0  0  0  0  0  0  0  0  0  0  0
   -3.8480    1.8940   -0.5300 H   0  0  0  0  0  0  0  0  0  0  0  0
   -5.0963    1.4532    0.6505 H   0  0  0  0  0  0  0  0  0  0  0  0
   -3.5532    2.1280    1.2034 H   0  0  0  0  0  0  0  0  0  0  0  0
   -5.0728   -0.6437   -1.2735 N   0  0  0  0  0  0  0  0  0  0  0  0
   -5.5083   -1.4992   -2.3707 C   0  0  0  0  0  0  0  0  0  0  0  0
   -5.3966    0.3193   -1.2553 H   0  0  0  0  0  0  0  0  0  0  0  0
   -6.4206   -1.0990   -2.8231 H   0  0  0  0  0  0  0  0  0  0  0  0
   -4.7338   -1.5558   -3.1429 H   0  0  0  0  0  0  0  0  0  0  0  0
   -5.7202   -2.5108   -2.0089 H   0  0  0  0  0  0  0  0  0  0  0  0
  1  2  2  0  0  0  0
  1  3  1  0  0  0  0
  1  7  1  0  0  0  0
  3  4  1  0  0  0  0
  3  5  1  0  0  0  0
  3  6  1  0  0  0  0
  7  8  1  0  0  0  0
  7 12  1  0  0  0  0
  8  9  1  0  0  0  0
  8 11  1  0  0  0  0
  8 13  1  0  0  0  0
  9 10  2  0  0  0  0
  9 17  1  0  0  0  0
 11 14  1  0  0  0  0
 11 15  1  0  0  0  0
 11 16  1  0  0  0  0
 17 18  1  0  0  0  0
 17 23  1  0  0  0  0
 18 19  1  0  0  0  0
 18 21  1  0  0  0  0
 18 24  1  0  0  0  0
 19 20  2  0  0  0  0
 19 28  1  0  0  0  0
 21 22  1  0  0  0  0
 21 25  1  0  0  0  0
 21 26  1  0  0  0  0
 22 27  1  0  0  0  0
 28 29  1  0  0  0  0
 28 33  1  0  0  0  0
 29 30  1  0  0  0  0
 29 32  1  0  0  0  0
 29 34  1  0  0  0  0
 30 31  2  0  0  0  0
 30 38  1  0  0  0  0
 32 35  1  0  0  0  0
 32 36  1  0  0  0  0
 32 37  1  0  0  0  0
 38 39  1  0  0  0  0
 38 40  1  0  0  0  0
 39 41  1  0  0  0  0
 39 42  1  0  0  0  0
 39 43  1  0  0  0  0
M  END
$$$$

  -OEChem-05262217303D

 43 42  0     1  0  0  0  0  0999 V2000
    4.0025   -1.9368    3.9330 C   0  0  0  0  0  0  0  0  0  0  0  0
    3.3830   -1.4937    4.8876 O   0  0  0  0  0  0  0  0  0  0  0  0
    5.0179   -3.0460    4.1319 C   0  0  0  0  0  0  0  0  0  0  0  0
    6.0069   -2.7077    3.8139 H   0  0  0  0  0  0  0  0  0  0  0  0
    5.0647   -3.3289    5.1872 H   0  0  0  0  0  0  0  0  0  0  0  0
    4.7337   -3.9226    3.5448 H   0  0  0  0  0  0  0  0  0  0  0  0
    3.7737   -1.4312    2.6710 N   0  0  0  0  0  0  0  0  0  0  0  0
    2.7238   -0.4574    2.3479 C   0  0  2  0  0  0  0  0  0  0  0  0
    2.1990   -0.6376    0.9081 C   0  0  0  0  0  0  0  0  0  0  0  0
    2.8820   -1.2356    0.0857 O   0  0  0  0  0  0  0  0  0  0  0  0
    3.2972    0.9503    2.5400 C   0  0  0  0  0  0  0  0  0  0  0  0
    4.2268   -1.8978    1.8856 H   0  0  0  0  0  0  0  0  0  0  0  0
    1.8742   -0.5979    3.0245 H   0  0  0  0  0  0  0  0  0  0  0  0
    4.1451    1.1116    1.8663 H   0  0  0  0  0  0  0  0  0  0  0  0
    2.5365    1.7086    2.3317 H   0  0  0  0  0  0  0  0  0  0  0  0
    3.6414    1.0823    3.5710 H   0  0  0  0  0  0  0  0  0  0  0  0
    1.0138   -0.0308    0.5275 N   0  0  0  0  0  0  0  0  0  0  0  0
    0.2622   -0.2700   -0.7294 C   0  0  2  0  0  0  0  0  0  0  0  0
   -1.1691    0.2817   -0.6772 C   0  0  0  0  0  0  0  0  0  0  0  0
   -1.7077    0.6668   -1.7058 O   0  0  0  0  0  0  0  0  0  0  0  0
    0.0797   -1.7800   -1.0262 C   0  0  0  0  0  0  0  0  0  0  0  0
   -0.7577   -2.4179   -0.0428 O   0  0  0  0  0  0  0  0  0  0  0  0
    0.5608    0.5309    1.2419 H   0  0  0  0  0  0  0  0  0  0  0  0
    0.7929    0.2009   -1.5627 H   0  0  0  0  0  0  0  0  0  0  0  0
    1.0422   -2.2935   -1.0743 H   0  0  0  0  0  0  0  0  0  0  0  0
   -0.3831   -1.8993   -2.0119 H   0  0  0  0  0  0  0  0  0  0  0  0
   -1.7206   -2.2991   -0.2430 H   0  0  0  0  0  0  0  0  0  0  0  0
   -1.8397    0.3360    0.5366 N   0  0  0  0  0  0  0  0  0  0  0  0
   -3.3120    0.3946    0.6053 C   0  0  2  0  0  0  0  0  0  0  0  0
   -3.9734   -0.7443   -0.2161 C   0  0  0  0  0  0  0  0  0  0  0  0
   -3.4363   -1.8498   -0.2393 O   0  0  0  0  0  0  0  0  0  0  0  0
   -3.8214    1.7984    0.2389 C   0  0  0  0  0  0  0  0  0  0  0  0
   -1.3992   -0.2597    1.2350 H   0  0  0  0  0  0  0  0  0  0  0  0
   -3.5998    0.2186    1.6462 H   0  0  0  0  0  0  0  0  0  0  0  0
   -3.6919    2.0037   -0.8279 H   0  0  0  0  0  0  0  0  0  0  0  0
   -4.8840    1.8922    0.4822 H   0  0  0  0  0  0  0  0  0  0  0  0
   -3.2732    2.5573    0.8052 H   0  0  0  0  0  0  0  0  0  0  0  0
   -5.1571   -0.5545   -0.9057 N   0  0  0  0  0  0  0  0  0  0  0  0
   -5.7257   -1.5629   -1.7919 C   0  0  0  0  0  0  0  0  0  0  0  0
   -5.4843    0.4032   -0.9920 H   0  0  0  0  0  0  0  0  0  0  0  0
   -6.6784   -1.2124   -2.2005 H   0  0  0  0  0  0  0  0  0  0  0  0
   -5.0446   -1.7684   -2.6246 H   0  0  0  0  0  0  0  0  0  0  0  0
   -5.9084   -2.4957   -1.2480 H   0  0  0  0  0  0  0  0  0  0  0  0
  1  2  2  0  0  0  0
  1  3  1  0  0  0  0
  1  7  1  0  0  0  0
  3  4  1  0  0  0  0
  3  5  1  0  0  0  0
  3  6  1  0  0  0  0
  7  8  1  0  0  0  0
  7 12  1  0  0  0  0
  8  9  1  0  0  0  0
  8 11  1  0  0  0  0
  8 13  1  0  0  0  0
  9 10  2  0  0  0  0
  9 17  1  0  0  0  0
 11 14  1  0  0  0  0
 11 15  1  0  0  0  0
 11 16  1  0  0  0  0
 17 18  1  0  0  0  0
 17 23  1  0  0  0  0
 18 19  1  0  0  0  0
 18 21  1  0  0  0  0
 18 24  1  0  0  0  0
 19 20  2  0  0  0  0
 19 28  1  0  0  0  0
 21 22  1  0  0  0  0
 21 25  1  0  0  0  0
 21 26  1  0  0  0  0
 22 27  1  0  0  0  0
 28 29  1  0  0  0  0
 28 33  1  0  0  0  0
 29 30  1  0  0  0  0
 29 32  1  0  0  0  0
 29 34  1  0  0  0  0
 30 31  2  0  0  0  0
 30 38  1  0  0  0  0
 32 35  1  0  0  0  0
 32 36  1  0  0  0  0
 32 37  1  0  0  0  0
 38 39  1  0  0  0  0
 38 40  1  0  0  0  0
 39 41  1  0  0  0  0
 39 42  1  0  0  0  0
 39 43  1  0  0  0  0
M  END
$$$$

  -OEChem-05262217303D

 43 42  0     1  0  0  0  0  0999 V2000
    4.0077   -1.9238    3.9696 C   0  0  0  0  0  0  0  0  0  0  0  0
    3.3972   -1.4542    4.9175 O   0  0  0  0  0  0  0  0  0  0  0  0
    5.0089   -3.0432    4.1854 C   0  0  0  0  0  0  0  0  0  0  0  0
    5.9991   -2.7297    3.8458 H   0  0  0  0  0  0  0  0  0  0  0  0
    5.0645   -3.2990    5.2473 H   0  0  0  0  0  0  0  0  0  0  0  0
    4.7035   -3.9302    3.6251 H   0  0  0  0  0  0  0  0  0  0  0  0
    3.7808   -1.4394    2.6989 N   0  0  0  0  0  0  0  0  0  0  0  0
    2.7374   -0.4641    2.3594 C   0  0  2  0  0  0  0  0  0  0  0  0
    2.2271   -0.6529    0.9155 C   0  0  0  0  0  0  0  0  0  0  0  0
    2.9133   -1.2646    0.1058 O   0  0  0  0  0  0  0  0  0  0  0  0
    3.3108    0.9444    2.5484 C   0  0  0  0  0  0  0  0  0  0  0  0
    4.2240   -1.9283    1.9213 H   0  0  0  0  0  0  0  0  0  0  0  0
    1.8805   -0.6001    3.0280 H   0  0  0  0  0  0  0  0  0  0  0  0
    4.1630    1.1031    1.8794 H   0  0  0  0  0  0  0  0  0  0  0  0
    2.5522    1.7023    2.3329 H   0  0  0  0  0  0  0  0  0  0  0  0
    3.6485    1.0810    3.5808 H   0  0  0  0  0  0  0  0  0  0  0  0
    1.0540   -0.0333    0.5172 N   0  0  0  0  0  0  0  0  0  0  0  0
    0.3074   -0.2780   -0.7436 C   0  0  2  0  0  0  0  0  0  0  0  0
   -1.1232    0.2823   -0.7496 C   0  0  0  0  0  0  0  0  0  0  0  0
   -1.6954    0.4443   -1.8192 O   0  0  0  0  0  0  0  0  0  0  0  0
    0.1027   -1.7965   -0.9840 C   0  0  0  0  0  0  0  0  0  0  0  0
   -0.7543   -2.3805    0.0179 O   0  0  0  0  0  0  0  0  0  0  0  0
    0.6185    0.5591    1.2156 H   0  0  0  0  0  0  0  0  0  0  0  0
    0.8602    0.1555   -1.5829 H   0  0  0  0  0  0  0  0  0  0  0  0
    1.0552   -2.3292   -1.0033 H   0  0  0  0  0  0  0  0  0  0  0  0
   -0.3524   -1.9484   -1.9689 H   0  0  0  0  0  0  0  0  0  0  0  0
   -1.7085   -2.1558   -0.1139 H   0  0  0  0  0  0  0  0  0  0  0  0
   -1.7385    0.6650    0.4345 N   0  0  0  0  0  0  0  0  0  0  0  0
   -3.2061    0.7931    0.5277 C   0  0  2  0  0  0  0  0  0  0  0  0
   -3.9374   -0.4755    0.0092 C   0  0  0  0  0  0  0  0  0  0  0  0
   -3.4021   -1.5736    0.1450 O   0  0  0  0  0  0  0  0  0  0  0  0
   -3.6816    2.0943   -0.1413 C   0  0  0  0  0  0  0  0  0  0  0  0
   -1.2949    0.2490    1.2477 H   0  0  0  0  0  0  0  0  0  0  0  0
   -3.4620    0.8724    1.5886 H   0  0  0  0  0  0  0  0  0  0  0  0
   -3.5896    2.0389   -1.2302 H   0  0  0  0  0  0  0  0  0  0  0  0
   -4.7293    2.2901    0.1064 H   0  0  0  0  0  0  0  0  0  0  0  0
   -3.0833    2.9394    0.2125 H   0  0  0  0  0  0  0  0  0  0  0  0
   -5.1917   -0.4075   -0.5694 N   0  0  0  0  0  0  0  0  0  0  0  0
   -5.8450   -1.5621   -1.1750 C   0  0  0  0  0  0  0  0  0  0  0  0
   -5.5410    0.5190   -0.7953 H   0  0  0  0  0  0  0  0  0  0  0  0
   -6.8545   -1.2967   -1.5030 H   0  0  0  0  0  0  0  0  0  0  0  0
   -5.2768   -1.9103   -2.0440 H   0  0  0  0  0  0  0  0  0  0  0  0
   -5.9235   -2.3828   -0.4540 H   0  0  0  0  0  0  0  0  0  0  0  0
  1  2  2  0  0  0  0
  1  3  1  0  0  0  0
  1  7  1  0  0  0  0
  3  4  1  0  0  0  0
  3  5  1  0  0  0  0
  3  6  1  0  0  0  0
  7  8  1  0  0  0  0
  7 12  1  0  0  0  0
  8  9  1  0  0  0  0
  8 11  1  0  0  0  0
  8 13  1  0  0  0  0
  9 10  2  0  0  0  0
  9 17  1  0  0  0  0
 11 14  1  0  0  0  0
 11 15  1  0  0  0  0
 11 16  1  0  0  0  0
 17 18  1  0  0  0  0
 17 23  1  0  0  0  0
 18 19  1  0  0  0  0
 18 21  1  0  0  0  0
 18 24  1  0  0  0  0
 19 20  2  0  0  0  0
 19 28  1  0  0  0  0
 21 22  1  0  0  0  0
 21 25  1  0  0  0  0
 21 26  1  0  0  0  0
 22 27  1  0  0  0  0
 28 29  1  0  0  0  0
 28 33  1  0  0  0  0
 29 30  1  0  0  0  0
 29 32  1  0  0  0  0
 29 34  1  0  0  0  0
 30 31  2  0  0  0  0
 30 38  1  0  0  0  0
 32 35  1  0  0  0  0
 32 36  1  0  0  0  0
 32 37  1  0  0  0  0
 38 39  1  0  0  0  0
 38 40  1  0  0  0  0
 39 41  1  0  0  0  0
 39 42  1  0  0  0  0
 39 43  1  0  0  0  0
M  END
$$$$

  -OEChem-05262217303D

 43 42  0     1  0  0  0  0  0999 V2000
    3.8948   -2.1280    3.8285 C   0  0  0  0  0  0  0  0  0  0  0  0
    3.1992   -1.8606    4.7958 O   0  0  0  0  0  0  0  0  0  0  0  0
    4.9606   -3.2030    3.9277 C   0  0  0  0  0  0  0  0  0  0  0  0
    5.9426   -2.7750    3.7124 H   0  0  0  0  0  0  0  0  0  0  0  0
    4.9740   -3.6288    4.9348 H   0  0  0  0  0  0  0  0  0  0  0  0
    4.7533   -4.0013    3.2109 H   0  0  0  0  0  0  0  0  0  0  0  0
    3.7126   -1.4525    2.6406 N   0  0  0  0  0  0  0  0  0  0  0  0
    2.6234   -0.5022    2.3842 C   0  0  2  0  0  0  0  0  0  0  0  0
    2.2750   -0.4372    0.8825 C   0  0  0  0  0  0  0  0  0  0  0  0
    3.0600   -0.8792    0.0503 O   0  0  0  0  0  0  0  0  0  0  0  0
    3.0481    0.8783    2.8968 C   0  0  0  0  0  0  0  0  0  0  0  0
    4.2397   -1.7758    1.8296 H   0  0  0  0  0  0  0  0  0  0  0  0
    1.7229   -0.8286    2.9162 H   0  0  0  0  0  0  0  0  0  0  0  0
    3.9428    1.2231    2.3685 H   0  0  0  0  0  0  0  0  0  0  0  0
    2.2498    1.6104    2.7449 H   0  0  0  0  0  0  0  0  0  0  0  0
    3.2719    0.8335    3.9673 H   0  0  0  0  0  0  0  0  0  0  0  0
    1.1239    0.2024    0.4532 N   0  0  0  0  0  0  0  0  0  0  0  0
    0.3990   -0.2060   -0.7786 C   0  0  2  0  0  0  0  0  0  0  0  0
   -1.0280    0.3563   -0.9348 C   0  0  0  0  0  0  0  0  0  0  0  0
   -1.6864    0.0538   -1.9218 O   0  0  0  0  0  0  0  0  0  0  0  0
    0.2178   -1.7485   -0.7754 C   0  0  0  0  0  0  0  0  0  0  0  0
   -0.6480   -2.1637    0.2993 O   0  0  0  0  0  0  0  0  0  0  0  0
    0.5265    0.4345    1.2382 H   0  0  0  0  0  0  0  0  0  0  0  0
    0.9825    0.0935   -1.6548 H   0  0  0  0  0  0  0  0  0  0  0  0
    1.1749   -2.2689   -0.6952 H   0  0  0  0  0  0  0  0  0  0  0  0
   -0.2204   -2.0672   -1.7273 H   0  0  0  0  0  0  0  0  0  0  0  0
   -1.5753   -1.8405    0.2003 H   0  0  0  0  0  0  0  0  0  0  0  0
   -1.5976    1.1892    0.0184 N   0  0  0  0  0  0  0  0  0  0  0  0
   -3.0598    1.3249    0.1718 C   0  0  2  0  0  0  0  0  0  0  0  0
   -3.7765   -0.0516    0.2546 C   0  0  0  0  0  0  0  0  0  0  0  0
   -3.1858   -1.0094    0.7477 O   0  0  0  0  0  0  0  0  0  0  0  0
   -3.6255    2.2434   -0.9249 C   0  0  0  0  0  0  0  0  0  0  0  0
   -1.0340    1.3594    0.8417 H   0  0  0  0  0  0  0  0  0  0  0  0
   -3.2481    1.8191    1.1295 H   0  0  0  0  0  0  0  0  0  0  0  0
   -3.6001    1.7547   -1.9037 H   0  0  0  0  0  0  0  0  0  0  0  0
   -4.6617    2.5135   -0.7014 H   0  0  0  0  0  0  0  0  0  0  0  0
   -3.0383    3.1651   -0.9845 H   0  0  0  0  0  0  0  0  0  0  0  0
   -5.0784   -0.2234   -0.1804 N   0  0  0  0  0  0  0  0  0  0  0  0
   -5.7336   -1.5261   -0.2131 C   0  0  0  0  0  0  0  0  0  0  0  0
   -5.4890    0.5388   -0.7112 H   0  0  0  0  0  0  0  0  0  0  0  0
   -6.7480   -1.4299   -0.6115 H   0  0  0  0  0  0  0  0  0  0  0  0
   -5.1755   -2.2200   -0.8508 H   0  0  0  0  0  0  0  0  0  0  0  0
   -5.7983   -1.9489    0.7951 H   0  0  0  0  0  0  0  0  0  0  0  0
  1  2  2  0  0  0  0
  1  3  1  0  0  0  0
  1  7  1  0  0  0  0
  3  4  1  0  0  0  0
  3  5  1  0  0  0  0
  3  6  1  0  0  0  0
  7  8  1  0  0  0  0
  7 12  1  0  0  0  0
  8  9  1  0  0  0  0
  8 11  1  0  0  0  0
  8 13  1  0  0  0  0
  9 10  2  0  0  0  0
  9 17  1  0  0  0  0
 11 14  1  0  0  0  0
 11 15  1  0  0  0  0
 11 16  1  0  0  0  0
 17 18  1  0  0  0  0
 17 23  1  0  0  0  0
 18 19  1  0  0  0  0
 18 21  1  0  0  0  0
 18 24  1  0  0  0  0
 19 20  2  0  0  0  0
 19 28  1  0  0  0  0
 21 22  1  0  0  0  0
 21 25  1  0  0  0  0
 21 26  1  0  0  0  0
 22 27  1  0  0  0  0
 28 29  1  0  0  0  0
 28 33  1  0  0  0  0
 29 30  1  0  0  0  0
 29 32  1  0  0  0  0
 29 34  1  0  0  0  0
 30 31  2  0  0  0  0
 30 38  1  0  0  0  0
 32 35  1  0  0  0  0
 32 36  1  0  0  0  0
 32 37  1  0  0  0  0
 38 39  1  0  0  0  0
 38 40  1  0  0  0  0
 39 41  1  0  0  0  0
 39 42  1  0  0  0  0
 39 43  1  0  0  0  0
M  END
$$$$

  -OEChem-05262217303D

 43 42  0     1  0  0  0  0  0999 V2000
    3.7794   -2.1882    3.7283 C   0  0  0  0  0  0  0  0  0  0  0  0
    2.9973   -2.0895    4.6606 O   0  0  0  0  0  0  0  0  0  0  0  0
    4.9390   -3.1635    3.8049 C   0  0  0  0  0  0  0  0  0  0  0  0
    5.8842   -2.6313    3.6730 H   0  0  0  0  0  0  0  0  0  0  0  0
    4.9484   -3.6623    4.7781 H   0  0  0  0  0  0  0  0  0  0  0  0
    4.8421   -3.9198    3.0222 H   0  0  0  0  0  0  0  0  0  0  0  0
    3.6061   -1.4147    2.6001 N   0  0  0  0  0  0  0  0  0  0  0  0
    2.4414   -0.5545    2.3572 C   0  0  2  0  0  0  0  0  0  0  0  0
    2.1462   -0.4124    0.8493 C   0  0  0  0  0  0  0  0  0  0  0  0
    2.9853   -0.7448    0.0194 O   0  0  0  0  0  0  0  0  0  0  0  0
    2.7086    0.8158    2.9887 C   0  0  0  0  0  0  0  0  0  0  0  0
    4.2103   -1.6075    1.8018 H   0  0  0  0  0  0  0  0  0  0  0  0
    1.5548   -1.0017    2.8206 H   0  0  0  0  0  0  0  0  0  0  0  0
    3.5884    1.2814    2.5331 H   0  0  0  0  0  0  0  0  0  0  0  0
    1.8500    1.4792    2.8495 H   0  0  0  0  0  0  0  0  0  0  0  0
    2.8887    0.7094    4.0633 H   0  0  0  0  0  0  0  0  0  0  0  0
    0.9623    0.1582    0.4132 N   0  0  0  0  0  0  0  0  0  0  0  0
    0.2939   -0.2750   -0.8407 C   0  0  2  0  0  0  0  0  0  0  0  0
   -1.1626    0.2412   -0.9199 C   0  0  0  0  0  0  0  0  0  0  0  0
   -1.9911   -0.3150   -1.6313 O   0  0  0  0  0  0  0  0  0  0  0  0
    0.2601   -1.8197   -0.9640 C   0  0  0  0  0  0  0  0  0  0  0  0
   -0.5694   -2.3853    0.0599 O   0  0  0  0  0  0  0  0  0  0  0  0
    0.3248    0.3020    1.1920 H   0  0  0  0  0  0  0  0  0  0  0  0
    0.8449    0.1318   -1.6942 H   0  0  0  0  0  0  0  0  0  0  0  0
    1.2637   -2.2472   -0.9000 H   0  0  0  0  0  0  0  0  0  0  0  0
   -0.1319   -2.1050   -1.9460 H   0  0  0  0  0  0  0  0  0  0  0  0
   -1.5102   -2.2688   -0.1726 H   0  0  0  0  0  0  0  0  0  0  0  0
   -1.5771    1.2519   -0.0641 N   0  0  0  0  0  0  0  0  0  0  0  0
   -2.9267    1.8473    0.0327 C   0  0  2  0  0  0  0  0  0  0  0  0
   -4.0049    0.9014    0.6100 C   0  0  0  0  0  0  0  0  0  0  0  0
   -4.5814    1.2100    1.6440 O   0  0  0  0  0  0  0  0  0  0  0  0
   -3.3752    2.4450   -1.3094 C   0  0  0  0  0  0  0  0  0  0  0  0
   -0.8304    1.7294    0.4319 H   0  0  0  0  0  0  0  0  0  0  0  0
   -2.8534    2.6811    0.7389 H   0  0  0  0  0  0  0  0  0  0  0  0
   -3.5656    1.6642   -2.0513 H   0  0  0  0  0  0  0  0  0  0  0  0
   -4.2993    3.0158   -1.1739 H   0  0  0  0  0  0  0  0  0  0  0  0
   -2.6085    3.1191   -1.7028 H   0  0  0  0  0  0  0  0  0  0  0  0
   -4.3118   -0.2960   -0.0050 N   0  0  0  0  0  0  0  0  0  0  0  0
   -5.2756   -1.2555    0.5164 C   0  0  0  0  0  0  0  0  0  0  0  0
   -3.7582   -0.5336   -0.8318 H   0  0  0  0  0  0  0  0  0  0  0  0
   -5.3623   -2.1100   -0.1612 H   0  0  0  0  0  0  0  0  0  0  0  0
   -4.9582   -1.6218    1.4982 H   0  0  0  0  0  0  0  0  0  0  0  0
   -6.2626   -0.7915    0.6148 H   0  0  0  0  0  0  0  0  0  0  0  0
  1  2  2  0  0  0  0
  1  3  1  0  0  0  0
  1  7  1  0  0  0  0
  3  4  1  0  0  0  0
  3  5  1  0  0  0  0
  3  6  1  0  0  0  0
  7  8  1  0  0  0  0
  7 12  1  0  0  0  0
  8  9  1  0  0  0  0
  8 11  1  0  0  0  0
  8 13  1  0  0  0  0
  9 10  2  0  0  0  0
  9 17  1  0  0  0  0
 11 14  1  0  0  0  0
 11 15  1  0  0  0  0
 11 16  1  0  0  0  0
 17 18  1  0  0  0  0
 17 23  1  0  0  0  0
 18 19  1  0  0  0  0
 18 21  1  0  0  0  0
 18 24  1  0  0  0  0
 19 20  2  0  0  0  0
 19 28  1  0  0  0  0
 21 22  1  0  0  0  0
 21 25  1  0  0  0  0
 21 26  1  0  0  0  0
 22 27  1  0  0  0  0
 28 29  1  0  0  0  0
 28 33  1  0  0  0  0
 29 30  1  0  0  0  0
 29 32  1  0  0  0  0
 29 34  1  0  0  0  0
 30 31  2  0  0  0  0
 30 38  1  0  0  0  0
 32 35  1  0  0  0  0
 32 36  1  0  0  0  0
 32 37  1  0  0  0  0
 38 39  1  0  0  0  0
 38 40  1  0  0  0  0
 39 41  1  0  0  0  0
 39 42  1  0  0  0  0
 39 43  1  0  0  0  0
M  END
$$$$

  -OEChem-05262217303D

 43 42  0     1  0  0  0  0  0999 V2000
    3.5822   -2.1519    3.8089 C   0  0  0  0  0  0  0  0  0  0  0  0
    2.7416   -2.0779    4.6910 O   0  0  0  0  0  0  0  0  0  0  0  0
    4.7777   -3.0718    3.9708 C   0  0  0  0  0  0  0  0  0  0  0  0
    5.7000   -2.4860    3.9732 H   0  0  0  0  0  0  0  0  0  0  0  0
    4.7057   -3.6205    4.9140 H   0  0  0  0  0  0  0  0  0  0  0  0
    4.8118   -3.7902    3.1481 H   0  0  0  0  0  0  0  0  0  0  0  0
    3.4488   -1.3945    2.6644 N   0  0  0  0  0  0  0  0  0  0  0  0
    2.2656   -0.5887    2.3375 C   0  0  2  0  0  0  0  0  0  0  0  0
    2.0713   -0.4622    0.8113 C   0  0  0  0  0  0  0  0  0  0  0  0
    2.9557   -0.8201    0.0410 O   0  0  0  0  0  0  0  0  0  0  0  0
    2.4229    0.7919    2.9845 C   0  0  0  0  0  0  0  0  0  0  0  0
    4.1045   -1.5752    1.9049 H   0  0  0  0  0  0  0  0  0  0  0  0
    1.3696   -1.0764    2.7380 H   0  0  0  0  0  0  0  0  0  0  0  0
    3.3075    1.3011    2.5892 H   0  0  0  0  0  0  0  0  0  0  0  0
    1.5441    1.4131    2.7887 H   0  0  0  0  0  0  0  0  0  0  0  0
    2.5355    0.6919    4.0690 H   0  0  0  0  0  0  0  0  0  0  0  0
    0.9313    0.1261    0.2913 N   0  0  0  0  0  0  0  0  0  0  0  0
    0.3344   -0.2975   -1.0000 C   0  0  2  0  0  0  0  0  0  0  0  0
   -1.1002    0.2666   -1.1390 C   0  0  0  0  0  0  0  0  0  0  0  0
   -2.0129   -0.3914   -1.6283 O   0  0  0  0  0  0  0  0  0  0  0  0
    0.2881   -1.8409   -1.1394 C   0  0  0  0  0  0  0  0  0  0  0  0
   -0.6064   -2.4070   -0.1731 O   0  0  0  0  0  0  0  0  0  0  0  0
    0.2491    0.3215    1.0208 H   0  0  0  0  0  0  0  0  0  0  0  0
    0.9403    0.1043   -1.8179 H   0  0  0  0  0  0  0  0  0  0  0  0
    1.2805   -2.2832   -1.0238 H   0  0  0  0  0  0  0  0  0  0  0  0
   -0.0534   -2.1071   -2.1455 H   0  0  0  0  0  0  0  0  0  0  0  0
   -1.5268   -2.1991   -0.4287 H   0  0  0  0  0  0  0  0  0  0  0  0
   -1.3927    1.4735   -0.5216 N   0  0  0  0  0  0  0  0  0  0  0  0
   -2.7196    2.1008   -0.3560 C   0  0  2  0  0  0  0  0  0  0  0  0
   -3.6507    1.3210    0.5988 C   0  0  0  0  0  0  0  0  0  0  0  0
   -3.9447    1.8101    1.6807 O   0  0  0  0  0  0  0  0  0  0  0  0
   -3.3945    2.3739   -1.7087 C   0  0  0  0  0  0  0  0  0  0  0  0
   -0.5912    1.9748   -0.1462 H   0  0  0  0  0  0  0  0  0  0  0  0
   -2.5563    3.0770    0.1127 H   0  0  0  0  0  0  0  0  0  0  0  0
   -3.6887    1.4460   -2.2068 H   0  0  0  0  0  0  0  0  0  0  0  0
   -4.2945    2.9789   -1.5611 H   0  0  0  0  0  0  0  0  0  0  0  0
   -2.7148    2.9213   -2.3683 H   0  0  0  0  0  0  0  0  0  0  0  0
   -4.0808    0.0462    0.2888 N   0  0  0  0  0  0  0  0  0  0  0  0
   -4.8183   -0.8048    1.2130 C   0  0  0  0  0  0  0  0  0  0  0  0
   -3.6852   -0.3623   -0.5610 H   0  0  0  0  0  0  0  0  0  0  0  0
   -5.1138   -1.7343    0.7172 H   0  0  0  0  0  0  0  0  0  0  0  0
   -4.1988   -1.0540    2.0807 H   0  0  0  0  0  0  0  0  0  0  0  0
   -5.7245   -0.2983    1.5610 H   0  0  0  0  0  0  0  0  0  0  0  0
  1  2  2  0  0  0  0
  1  3  1  0  0  0  0
  1  7  1  0  0  0  0
  3  4  1  0  0  0  0
  3  5  1  0  0  0  0
  3  6  1  0  0  0  0
  7  8  1  0  0  0  0
  7 12  1  0  0  0  0
  8  9  1  0  0  0  0
  8 11  1  0  0  0  0
  8 13  1  0  0  0  0
  9 10  2  0  0  0  0
  9 17  1  0  0  0  0
 11 14  1  0  0  0  0
 11 15  1  0  0  0  0
 11 16  1  0  0  0  0
 17 18  1  0  0  0  0
 17 23  1  0  0  0  0
 18 19  1  0  0  0  0
 18 21  1  0  0  0  0
 18 24  1  0  0  0  0
 19 20  2  0  0  0  0
 19 28  1  0  0  0  0
 21 22  1  0  0  0  0
 21 25  1  0  0  0  0
 21 26  1  0  0  0  0
 22 27  1  0  0  0  0
 28 29  1  0  0  0  0
 28 33  1  0  0  0  0
 29 30  1  0  0  0  0
 29 32  1  0  0  0  0
 29 34  1  0  0  0  0
 30 31  2  0  0  0  0
 30 38  1  0  0  0  0
 32 35  1  0  0  0  0
 32 36  1  0  0  0  0
 32 37  1  0  0  0  0
 38 39  1  0  0  0  0
 38 40  1  0  0  0  0
 39 41  1  0  0  0  0
 39 42  1  0  0  0  0
 39 43  1  0  0  0  0
M  END
$$$$

  -OEChem-05262217303D

 43 42  0     1  0  0  0  0  0999 V2000
    2.9226   -1.9508    3.9686 C   0  0  0  0  0  0  0  0  0  0  0  0
    1.9398   -1.8761    4.6891 O   0  0  0  0  0  0  0  0  0  0  0  0
    4.0873   -2.8394    4.3625 C   0  0  0  0  0  0  0  0  0  0  0  0
    4.9799   -2.2315    4.5285 H   0  0  0  0  0  0  0  0  0  0  0  0
    3.8535   -3.3818    5.2828 H   0  0  0  0  0  0  0  0  0  0  0  0
    4.2891   -3.5631    3.5690 H   0  0  0  0  0  0  0  0  0  0  0  0
    2.9810   -1.2311    2.7944 N   0  0  0  0  0  0  0  0  0  0  0  0
    1.8529   -0.4837    2.2234 C   0  0  2  0  0  0  0  0  0  0  0  0
    1.9425   -0.4206    0.6836 C   0  0  0  0  0  0  0  0  0  0  0  0
    2.9644   -0.7758    0.1041 O   0  0  0  0  0  0  0  0  0  0  0  0
    1.8413    0.9247    2.8270 C   0  0  0  0  0  0  0  0  0  0  0  0
    3.7606   -1.4254    2.1671 H   0  0  0  0  0  0  0  0  0  0  0  0
    0.9124   -0.9884    2.4724 H   0  0  0  0  0  0  0  0  0  0  0  0
    2.7617    1.4589    2.5713 H   0  0  0  0  0  0  0  0  0  0  0  0
    0.9877    1.4971    2.4518 H   0  0  0  0  0  0  0  0  0  0  0  0
    1.7613    0.8687    3.9172 H   0  0  0  0  0  0  0  0  0  0  0  0
    0.9060    0.1186   -0.0527 N   0  0  0  0  0  0  0  0  0  0  0  0
    0.5741   -0.2870   -1.4387 C   0  0  2  0  0  0  0  0  0  0  0  0
   -0.8356    0.2483   -1.7817 C   0  0  0  0  0  0  0  0  0  0  0  0
   -1.7604   -0.4941   -2.0960 O   0  0  0  0  0  0  0  0  0  0  0  0
    0.6381   -1.8236   -1.6387 C   0  0  0  0  0  0  0  0  0  0  0  0
   -0.3750   -2.4875   -0.8736 O   0  0  0  0  0  0  0  0  0  0  0  0
    0.0927    0.3401    0.5336 H   0  0  0  0  0  0  0  0  0  0  0  0
    1.2915    0.1723   -2.1250 H   0  0  0  0  0  0  0  0  0  0  0  0
    1.6206   -2.2225   -1.3748 H   0  0  0  0  0  0  0  0  0  0  0  0
    0.4820   -2.0494   -2.6988 H   0  0  0  0  0  0  0  0  0  0  0  0
   -1.2508   -2.1493   -1.1595 H   0  0  0  0  0  0  0  0  0  0  0  0
   -1.1063    1.5604   -1.4233 N   0  0  0  0  0  0  0  0  0  0  0  0
   -2.3661    1.9541   -0.7647 C   0  0  2  0  0  0  0  0  0  0  0  0
   -2.5588    1.1677    0.5575 C   0  0  0  0  0  0  0  0  0  0  0  0
   -1.5712    0.9412    1.2536 O   0  0  0  0  0  0  0  0  0  0  0  0
   -3.5710    1.8853   -1.7188 C   0  0  0  0  0  0  0  0  0  0  0  0
   -0.2785    2.0386   -1.0737 H   0  0  0  0  0  0  0  0  0  0  0  0
   -2.2650    3.0051   -0.4772 H   0  0  0  0  0  0  0  0  0  0  0  0
   -3.8692    0.8521   -1.9182 H   0  0  0  0  0  0  0  0  0  0  0  0
   -4.4270    2.4103   -1.2842 H   0  0  0  0  0  0  0  0  0  0  0  0
   -3.3228    2.3633   -2.6714 H   0  0  0  0  0  0  0  0  0  0  0  0
   -3.7955    0.7116    0.9741 N   0  0  0  0  0  0  0  0  0  0  0  0
   -3.9702   -0.1473    2.1403 C   0  0  0  0  0  0  0  0  0  0  0  0
   -4.5629    0.7941    0.3134 H   0  0  0  0  0  0  0  0  0  0  0  0
   -5.0320   -0.3588    2.2989 H   0  0  0  0  0  0  0  0  0  0  0  0
   -3.4454   -1.0979    1.9978 H   0  0  0  0  0  0  0  0  0  0  0  0
   -3.5794    0.3395    3.0403 H   0  0  0  0  0  0  0  0  0  0  0  0
  1  2  2  0  0  0  0
  1  3  1  0  0  0  0
  1  7  1  0  0  0  0
  3  4  1  0  0  0  0
  3  5  1  0  0  0  0
  3  6  1  0  0  0  0
  7  8  1  0  0  0  0
  7 12  1  0  0  0  0
  8  9  1  0  0  0  0
  8 11  1  0  0  0  0
  8 13  1  0  0  0  0
  9 10  2  0  0  0  0
  9 17  1  0  0  0  0
 11 14  1  0  0  0  0
 11 15  1  0  0  0  0
 11 16  1  0  0  0  0
 17 18  1  0  0  0  0
 17 23  1  0  0  0  0
 18 19  1  0  0  0  0
 18 21  1  0  0  0  0
 18 24  1  0  0  0  0
 19 20  2  0  0  0  0
 19 28  1  0  0  0  0
 21 22  1  0  0  0  0
 21 25  1  0  0  0  0
 21 26  1  0  0  0  0
 22 27  1  0  0  0  0
 28 29  1  0  0  0  0
 28 33  1  0  0  0  0
 29 30  1  0  0  0  0
 29 32  1  0  0  0  0
 29 34  1  0  0  0  0
 30 31  2  0  0  0  0
 30 38  1  0  0  0  0
 32 35  1  0  0  0  0
 32 36  1  0  0  0  0
 32 37  1  0  0  0  0
 38 39  1  0  0  0  0
 38 40  1  0  0  0  0
 39 41  1  0  0  0  0
 39 42  1  0  0  0  0
 39 43  1  0  0  0  0
M  END
$$$$

  -OEChem-05262217303D

 43 42  0     1  0  0  0  0  0999 V2000
    2.9781   -1.8429    4.0101 C   0  0  0  0  0  0  0  0  0  0  0  0
    1.9909   -1.7906    4.7265 O   0  0  0  0  0  0  0  0  0  0  0  0
    4.1705   -2.6867    4.4195 C   0  0  0  0  0  0  0  0  0  0  0  0
    5.0301   -2.0431    4.6213 H   0  0  0  0  0  0  0  0  0  0  0  0
    3.9357   -3.2580    5.3221 H   0  0  0  0  0  0  0  0  0  0  0  0
    4.4267   -3.3847    3.6186 H   0  0  0  0  0  0  0  0  0  0  0  0
    3.0159   -1.1405    2.8249 N   0  0  0  0  0  0  0  0  0  0  0  0
    1.8614   -0.4517    2.2333 C   0  0  2  0  0  0  0  0  0  0  0  0
    1.9406   -0.4475    0.6913 C   0  0  0  0  0  0  0  0  0  0  0  0
    2.9770   -0.7784    0.1233 O   0  0  0  0  0  0  0  0  0  0  0  0
    1.8123    0.9778    2.7831 C   0  0  0  0  0  0  0  0  0  0  0  0
    3.8031   -1.3207    2.2029 H   0  0  0  0  0  0  0  0  0  0  0  0
    0.9382   -0.9745    2.5080 H   0  0  0  0  0  0  0  0  0  0  0  0
    2.7179    1.5268    2.5064 H   0  0  0  0  0  0  0  0  0  0  0  0
    0.9436    1.5127    2.3874 H   0  0  0  0  0  0  0  0  0  0  0  0
    1.7345    0.9610    3.8748 H   0  0  0  0  0  0  0  0  0  0  0  0
    0.8793    0.0170   -0.0609 N   0  0  0  0  0  0  0  0  0  0  0  0
    0.5835   -0.3878   -1.4540 C   0  0  2  0  0  0  0  0  0  0  0  0
   -0.8577    0.0567   -1.7856 C   0  0  0  0  0  0  0  0  0  0  0  0
   -1.7882   -0.7370   -1.8865 O   0  0  0  0  0  0  0  0  0  0  0  0
    0.7633   -1.9098   -1.6930 C   0  0  0  0  0  0  0  0  0  0  0  0
   -0.1932   -2.6758   -0.9517 O   0  0  0  0  0  0  0  0  0  0  0  0
    0.0633    0.2793    0.5043 H   0  0  0  0  0  0  0  0  0  0  0  0
    1.2690    0.1350   -2.1270 H   0  0  0  0  0  0  0  0  0  0  0  0
    1.7746   -2.2400   -1.4437 H   0  0  0  0  0  0  0  0  0  0  0  0
    0.6201   -2.1148   -2.7589 H   0  0  0  0  0  0  0  0  0  0  0  0
   -1.0928   -2.3444   -1.1692 H   0  0  0  0  0  0  0  0  0  0  0  0
   -1.1210    1.4149   -1.7002 N   0  0  0  0  0  0  0  0  0  0  0  0
   -2.3641    1.9309   -1.0957 C   0  0  2  0  0  0  0  0  0  0  0  0
   -2.5548    1.3888    0.3462 C   0  0  0  0  0  0  0  0  0  0  0  0
   -1.5624    1.2069    1.0496 O   0  0  0  0  0  0  0  0  0  0  0  0
   -3.5800    1.7065   -2.0116 C   0  0  0  0  0  0  0  0  0  0  0  0
   -0.2872    1.9567   -1.4854 H   0  0  0  0  0  0  0  0  0  0  0  0
   -2.2488    3.0146   -0.9951 H   0  0  0  0  0  0  0  0  0  0  0  0
   -3.8809    0.6551   -2.0290 H   0  0  0  0  0  0  0  0  0  0  0  0
   -4.4308    2.3005   -1.6647 H   0  0  0  0  0  0  0  0  0  0  0  0
   -3.3419    2.0141   -3.0343 H   0  0  0  0  0  0  0  0  0  0  0  0
   -3.8067    1.1302    0.8732 N   0  0  0  0  0  0  0  0  0  0  0  0
   -4.0060    0.5314    2.1881 C   0  0  0  0  0  0  0  0  0  0  0  0
   -4.5941    1.1677    0.2322 H   0  0  0  0  0  0  0  0  0  0  0  0
   -5.0748    0.4316    2.4003 H   0  0  0  0  0  0  0  0  0  0  0  0
   -3.5499   -0.4634    2.2293 H   0  0  0  0  0  0  0  0  0  0  0  0
   -3.5580    1.1573    2.9672 H   0  0  0  0  0  0  0  0  0  0  0  0
  1  2  2  0  0  0  0
  1  3  1  0  0  0  0
  1  7  1  0  0  0  0
  3  4  1  0  0  0  0
  3  5  1  0  0  0  0
  3  6  1  0  0  0  0
  7  8  1  0  0  0  0
  7 12  1  0  0  0  0
  8  9  1  0  0  0  0
  8 11  1  0  0  0  0
  8 13  1  0  0  0  0
  9 10  2  0  0  0  0
  9 17  1  0  0  0  0
 11 14  1  0  0  0  0
 11 15  1  0  0  0  0
 11 16  1  0  0  0  0
 17 18  1  0  0  0  0
 17 23  1  0  0  0  0
 18 19  1  0  0  0  0
 18 21  1  0  0  0  0
 18 24  1  0  0  0  0
 19 20  2  0  0  0  0
 19 28  1  0  0  0  0
 21 22  1  0  0  0  0
 21 25  1  0  0  0  0
 21 26  1  0  0  0  0
 22 27  1  0  0  0  0
 28 29  1  0  0  0  0
 28 33  1  0  0  0  0
 29 30  1  0  0  0  0
 29 32  1  0  0  0  0
 29 34  1  0  0  0  0
 30 31  2  0  0  0  0
 30 38  1  0  0  0  0
 32 35  1  0  0  0  0
 32 36  1  0  0  0  0
 32 37  1  0  0  0  0
 38 39  1  0  0  0  0
 38 40  1  0  0  0  0
 39 41  1  0  0  0  0
 39 42  1  0  0  0  0
 39 43  1  0  0  0  0
M  END
$$$$

  -OEChem-05262217303D

 43 42  0     1  0  0  0  0  0999 V2000
    3.0204   -1.7394    4.0497 C   0  0  0  0  0  0  0  0  0  0  0  0
    2.0374   -1.6733    4.7708 O   0  0  0  0  0  0  0  0  0  0  0  0
    4.2375   -2.5282    4.4934 C   0  0  0  0  0  0  0  0  0  0  0  0
    5.0829   -1.8529    4.6458 H   0  0  0  0  0  0  0  0  0  0  0  0
    4.0271   -3.0500    5.4311 H   0  0  0  0  0  0  0  0  0  0  0  0
    4.5014   -3.2663    3.7321 H   0  0  0  0  0  0  0  0  0  0  0  0
    3.0332   -1.0966    2.8307 N   0  0  0  0  0  0  0  0  0  0  0  0
    1.8641   -0.4484    2.2224 C   0  0  2  0  0  0  0  0  0  0  0  0
    1.9347   -0.4949    0.6805 C   0  0  0  0  0  0  0  0  0  0  0  0
    2.9797   -0.8106    0.1198 O   0  0  0  0  0  0  0  0  0  0  0  0
    1.7925    0.9981    2.7224 C   0  0  0  0  0  0  0  0  0  0  0  0
    3.8220   -1.2833    2.2125 H   0  0  0  0  0  0  0  0  0  0  0  0
    0.9521   -0.9773    2.5213 H   0  0  0  0  0  0  0  0  0  0  0  0
    2.6893    1.5510    2.4262 H   0  0  0  0  0  0  0  0  0  0  0  0
    0.9155    1.5053    2.3090 H   0  0  0  0  0  0  0  0  0  0  0  0
    1.7150    1.0176    3.8139 H   0  0  0  0  0  0  0  0  0  0  0  0
    0.8539   -0.0869   -0.0769 N   0  0  0  0  0  0  0  0  0  0  0  0
    0.5892   -0.4499   -1.4857 C   0  0  2  0  0  0  0  0  0  0  0  0
   -0.8782   -0.0921   -1.7986 C   0  0  0  0  0  0  0  0  0  0  0  0
   -1.7891   -0.9071   -1.6871 O   0  0  0  0  0  0  0  0  0  0  0  0
    0.8705   -1.9424   -1.8003 C   0  0  0  0  0  0  0  0  0  0  0  0
   -0.0286   -2.8134   -1.1044 O   0  0  0  0  0  0  0  0  0  0  0  0
    0.0396    0.2145    0.4699 H   0  0  0  0  0  0  0  0  0  0  0  0
    1.2391    0.1484   -2.1302 H   0  0  0  0  0  0  0  0  0  0  0  0
    1.9027   -2.2158   -1.5696 H   0  0  0  0  0  0  0  0  0  0  0  0
    0.7376   -2.0988   -2.8755 H   0  0  0  0  0  0  0  0  0  0  0  0
   -0.9465   -2.4774   -1.2196 H   0  0  0  0  0  0  0  0  0  0  0  0
   -1.1753    1.2508   -1.9690 N   0  0  0  0  0  0  0  0  0  0  0  0
   -2.4090    1.8412   -1.4143 C   0  0  2  0  0  0  0  0  0  0  0  0
   -2.5520    1.5571    0.1065 C   0  0  0  0  0  0  0  0  0  0  0  0
   -1.5407    1.4341    0.7959 O   0  0  0  0  0  0  0  0  0  0  0  0
   -3.6445    1.4328   -2.2355 C   0  0  0  0  0  0  0  0  0  0  0  0
   -0.3526    1.8449   -1.9042 H   0  0  0  0  0  0  0  0  0  0  0  0
   -2.3187    2.9275   -1.5091 H   0  0  0  0  0  0  0  0  0  0  0  0
   -3.9218    0.3909   -2.0505 H   0  0  0  0  0  0  0  0  0  0  0  0
   -4.4987    2.0653   -1.9767 H   0  0  0  0  0  0  0  0  0  0  0  0
   -3.4422    1.5512   -3.3045 H   0  0  0  0  0  0  0  0  0  0  0  0
   -3.7895    1.4909    0.7200 N   0  0  0  0  0  0  0  0  0  0  0  0
   -3.9620    1.1594    2.1299 C   0  0  0  0  0  0  0  0  0  0  0  0
   -4.6056    1.4808    0.1153 H   0  0  0  0  0  0  0  0  0  0  0  0
   -5.0223    1.1910    2.3990 H   0  0  0  0  0  0  0  0  0  0  0  0
   -3.5818    0.1534    2.3371 H   0  0  0  0  0  0  0  0  0  0  0  0
   -3.4259    1.8756    2.7618 H   0  0  0  0  0  0  0  0  0  0  0  0
  1  2  2  0  0  0  0
  1  3  1  0  0  0  0
  1  7  1  0  0  0  0
  3  4  1  0  0  0  0
  3  5  1  0  0  0  0
  3  6  1  0  0  0  0
  7  8  1  0  0  0  0
  7 12  1  0  0  0  0
  8  9  1  0  0  0  0
  8 11  1  0  0  0  0
  8 13  1  0  0  0  0
  9 10  2  0  0  0  0
  9 17  1  0  0  0  0
 11 14  1  0  0  0  0
 11 15  1  0  0  0  0
 11 16  1  0  0  0  0
 17 18  1  0  0  0  0
 17 23  1  0  0  0  0
 18 19  1  0  0  0  0
 18 21  1  0  0  0  0
 18 24  1  0  0  0  0
 19 20  2  0  0  0  0
 19 28  1  0  0  0  0
 21 22  1  0  0  0  0
 21 25  1  0  0  0  0
 21 26  1  0  0  0  0
 22 27  1  0  0  0  0
 28 29  1  0  0  0  0
 28 33  1  0  0  0  0
 29 30  1  0  0  0  0
 29 32  1  0  0  0  0
 29 34  1  0  0  0  0
 30 31  2  0  0  0  0
 30 38  1  0  0  0  0
 32 35  1  0  0  0  0
 32 36  1  0  0  0  0
 32 37  1  0  0  0  0
 38 39  1  0  0  0  0
 38 40  1  0  0  0  0
 39 41  1  0  0  0  0
 39 42  1  0  0  0  0
 39 43  1  0  0  0  0
M  END
$$$$

  -OEChem-05262217303D

 43 42  0     1  0  0  0  0  0999 V2000
    3.1274   -1.6579    4.0581 C   0  0  0  0  0  0  0  0  0  0  0  0
    2.1549   -1.6217    4.7954 O   0  0  0  0  0  0  0  0  0  0  0  0
    4.3842   -2.3885    4.4933 C   0  0  0  0  0  0  0  0  0  0  0  0
    5.2339   -1.7016    4.4921 H   0  0  0  0  0  0  0  0  0  0  0  0
    4.2573   -2.7898    5.5026 H   0  0  0  0  0  0  0  0  0  0  0  0
    4.5916   -3.2153    3.8095 H   0  0  0  0  0  0  0  0  0  0  0  0
    3.0884   -1.0401    2.8264 N   0  0  0  0  0  0  0  0  0  0  0  0
    1.8771   -0.4681    2.2232 C   0  0  2  0  0  0  0  0  0  0  0  0
    1.9319   -0.5344    0.6818 C   0  0  0  0  0  0  0  0  0  0  0  0
    2.9782   -0.8331    0.1145 O   0  0  0  0  0  0  0  0  0  0  0  0
    1.7234    0.9805    2.6995 C   0  0  0  0  0  0  0  0  0  0  0  0
    3.8716   -1.2087    2.1958 H   0  0  0  0  0  0  0  0  0  0  0  0
    1.0014   -1.0451    2.5402 H   0  0  0  0  0  0  0  0  0  0  0  0
    2.5781    1.5826    2.3759 H   0  0  0  0  0  0  0  0  0  0  0  0
    0.8089    1.4249    2.2940 H   0  0  0  0  0  0  0  0  0  0  0  0
    1.6649    1.0160    3.7919 H   0  0  0  0  0  0  0  0  0  0  0  0
    0.8295   -0.1696   -0.0664 N   0  0  0  0  0  0  0  0  0  0  0  0
    0.5722   -0.5105   -1.4798 C   0  0  2  0  0  0  0  0  0  0  0  0
   -0.9120   -0.2232   -1.7770 C   0  0  0  0  0  0  0  0  0  0  0  0
   -1.7953   -1.0026   -1.4310 O   0  0  0  0  0  0  0  0  0  0  0  0
    0.9083   -1.9820   -1.8327 C   0  0  0  0  0  0  0  0  0  0  0  0
    0.0493   -2.9075   -1.1555 O   0  0  0  0  0  0  0  0  0  0  0  0
    0.0210    0.1524    0.4738 H   0  0  0  0  0  0  0  0  0  0  0  0
    1.1922    0.1303   -2.1123 H   0  0  0  0  0  0  0  0  0  0  0  0
    1.9524   -2.2210   -1.6170 H   0  0  0  0  0  0  0  0  0  0  0  0
    0.7717   -2.1151   -2.9105 H   0  0  0  0  0  0  0  0  0  0  0  0
   -0.8727   -2.5622   -1.1692 H   0  0  0  0  0  0  0  0  0  0  0  0
   -1.2499    1.0431   -2.2270 N   0  0  0  0  0  0  0  0  0  0  0  0
   -2.4699    1.7192   -1.7427 C   0  0  2  0  0  0  0  0  0  0  0  0
   -2.5645    1.7216   -0.1905 C   0  0  0  0  0  0  0  0  0  0  0  0
   -1.5360    1.7161    0.4841 O   0  0  0  0  0  0  0  0  0  0  0  0
   -3.7233    1.1507   -2.4301 C   0  0  0  0  0  0  0  0  0  0  0  0
   -0.4439    1.6502   -2.3504 H   0  0  0  0  0  0  0  0  0  0  0  0
   -2.3991    2.7697   -2.0399 H   0  0  0  0  0  0  0  0  0  0  0  0
   -3.9619    0.1492   -2.0601 H   0  0  0  0  0  0  0  0  0  0  0  0
   -4.5855    1.7986   -2.2469 H   0  0  0  0  0  0  0  0  0  0  0  0
   -3.5650    1.0903   -3.5112 H   0  0  0  0  0  0  0  0  0  0  0  0
   -3.7846    1.7798    0.4581 N   0  0  0  0  0  0  0  0  0  0  0  0
   -3.9178    1.7029    1.9084 C   0  0  0  0  0  0  0  0  0  0  0  0
   -4.6171    1.6658   -0.1125 H   0  0  0  0  0  0  0  0  0  0  0  0
   -4.9706    1.7814    2.1972 H   0  0  0  0  0  0  0  0  0  0  0  0
   -3.5268    0.7491    2.2786 H   0  0  0  0  0  0  0  0  0  0  0  0
   -3.3680    2.5193    2.3887 H   0  0  0  0  0  0  0  0  0  0  0  0
  1  2  2  0  0  0  0
  1  3  1  0  0  0  0
  1  7  1  0  0  0  0
  3  4  1  0  0  0  0
  3  5  1  0  0  0  0
  3  6  1  0  0  0  0
  7  8  1  0  0  0  0
  7 12  1  0  0  0  0
  8  9  1  0  0  0  0
  8 11  1  0  0  0  0
  8 13  1  0  0  0  0
  9 10  2  0  0  0  0
  9 17  1  0  0  0  0
 11 14  1  0  0  0  0
 11 15  1  0  0  0  0
 11 16  1  0  0  0  0
 17 18  1  0  0  0  0
 17 23  1  0  0  0  0
 18 19  1  0  0  0  0
 18 21  1  0  0  0  0
 18 24  1  0  0  0  0
 19 20  2  0  0  0  0
 19 28  1  0  0  0  0
 21 22  1  0  0  0  0
 21 25  1  0  0  0  0
 21 26  1  0  0  0  0
 22 27  1  0  0  0  0
 28 29  1  0  0  0  0
 28 33  1  0  0  0  0
 29 30  1  0  0  0  0
 29 32  1  0  0  0  0
 29 34  1  0  0  0  0
 30 31  2  0  0  0  0
 30 38  1  0  0  0  0
 32 35  1  0  0  0  0
 32 36  1  0  0  0  0
 32 37  1  0  0  0  0
 38 39  1  0  0  0  0
 38 40  1  0  0  0  0
 39 41  1  0  0  0  0
 39 42  1  0  0  0  0
 39 43  1  0  0  0  0
M  END
$$$$

  -OEChem-05262217303D

 43 42  0     1  0  0  0  0  0999 V2000
    3.4830   -1.8428    3.9724 C   0  0  0  0  0  0  0  0  0  0  0  0
    2.5928   -1.7260    4.7997 O   0  0  0  0  0  0  0  0  0  0  0  0
    4.6906   -2.7113    4.2694 C   0  0  0  0  0  0  0  0  0  0  0  0
    5.5900   -2.0928    4.3197 H   0  0  0  0  0  0  0  0  0  0  0  0
    4.5601   -3.2241    5.2264 H   0  0  0  0  0  0  0  0  0  0  0  0
    4.8146   -3.4598    3.4830 H   0  0  0  0  0  0  0  0  0  0  0  0
    3.3961   -1.1834    2.7652 N   0  0  0  0  0  0  0  0  0  0  0  0
    2.2193   -0.4299    2.3145 C   0  0  2  0  0  0  0  0  0  0  0  0
    2.0890   -0.4478    0.7772 C   0  0  0  0  0  0  0  0  0  0  0  0
    3.0463   -0.7685    0.0802 O   0  0  0  0  0  0  0  0  0  0  0  0
    2.3381    1.0083    2.8288 C   0  0  0  0  0  0  0  0  0  0  0  0
    4.1020   -1.3968    2.0614 H   0  0  0  0  0  0  0  0  0  0  0  0
    1.3115   -0.8878    2.7226 H   0  0  0  0  0  0  0  0  0  0  0  0
    3.2353    1.4865    2.4231 H   0  0  0  0  0  0  0  0  0  0  0  0
    1.4645    1.5968    2.5327 H   0  0  0  0  0  0  0  0  0  0  0  0
    2.4028    1.0164    3.9215 H   0  0  0  0  0  0  0  0  0  0  0  0
    0.9240   -0.0164    0.1696 N   0  0  0  0  0  0  0  0  0  0  0  0
    0.4788   -0.4401   -1.1736 C   0  0  2  0  0  0  0  0  0  0  0  0
   -1.0036   -0.0739   -1.3889 C   0  0  0  0  0  0  0  0  0  0  0  0
   -1.8839   -0.6449   -0.7513 O   0  0  0  0  0  0  0  0  0  0  0  0
    0.6516   -1.9603   -1.4223 C   0  0  0  0  0  0  0  0  0  0  0  0
   -0.2020   -2.7358   -0.5710 O   0  0  0  0  0  0  0  0  0  0  0  0
    0.1750    0.2034    0.8244 H   0  0  0  0  0  0  0  0  0  0  0  0
    1.0828    0.0886   -1.9166 H   0  0  0  0  0  0  0  0  0  0  0  0
    1.6889   -2.2790   -1.2936 H   0  0  0  0  0  0  0  0  0  0  0  0
    0.3867   -2.1715   -2.4634 H   0  0  0  0  0  0  0  0  0  0  0  0
   -1.0863   -2.3088   -0.5123 H   0  0  0  0  0  0  0  0  0  0  0  0
   -1.3319    0.9980   -2.2024 N   0  0  0  0  0  0  0  0  0  0  0  0
   -2.6568    1.6445   -2.2262 C   0  0  2  0  0  0  0  0  0  0  0  0
   -3.0576    2.2001   -0.8373 C   0  0  0  0  0  0  0  0  0  0  0  0
   -2.3473    3.0544   -0.3213 O   0  0  0  0  0  0  0  0  0  0  0  0
   -3.7115    0.7162   -2.8533 C   0  0  0  0  0  0  0  0  0  0  0  0
   -0.5453    1.5630   -2.5127 H   0  0  0  0  0  0  0  0  0  0  0  0
   -2.5838    2.5183   -2.8815 H   0  0  0  0  0  0  0  0  0  0  0  0
   -3.8996   -0.1615   -2.2286 H   0  0  0  0  0  0  0  0  0  0  0  0
   -4.6557    1.2533   -2.9848 H   0  0  0  0  0  0  0  0  0  0  0  0
   -3.3727    0.3725   -3.8352 H   0  0  0  0  0  0  0  0  0  0  0  0
   -4.1739    1.7458   -0.1580 N   0  0  0  0  0  0  0  0  0  0  0  0
   -4.4940    2.1571    1.2035 C   0  0  0  0  0  0  0  0  0  0  0  0
   -4.6026    0.8978   -0.5182 H   0  0  0  0  0  0  0  0  0  0  0  0
   -5.4554    1.7337    1.5098 H   0  0  0  0  0  0  0  0  0  0  0  0
   -3.7228    1.8097    1.8990 H   0  0  0  0  0  0  0  0  0  0  0  0
   -4.5645    3.2480    1.2702 H   0  0  0  0  0  0  0  0  0  0  0  0
  1  2  2  0  0  0  0
  1  3  1  0  0  0  0
  1  7  1  0  0  0  0
  3  4  1  0  0  0  0
  3  5  1  0  0  0  0
  3  6  1  0  0  0  0
  7  8  1  0  0  0  0
  7 12  1  0  0  0  0
  8  9  1  0  0  0  0
  8 11  1  0  0  0  0
  8 13  1  0  0  0  0
  9 10  2  0  0  0  0
  9 17  1  0  0  0  0
 11 14  1  0  0  0  0
 11 15  1  0  0  0  0
 11 16  1  0  0  0  0
 17 18  1  0  0  0  0
 17 23  1  0  0  0  0
 18 19  1  0  0  0  0
 18 21  1  0  0  0  0
 18 24  1  0  0  0  0
 19 20  2  0  0  0  0
 19 28  1  0  0  0  0
 21 22  1  0  0  0  0
 21 25  1  0  0  0  0
 21 26  1  0  0  0  0
 22 27  1  0  0  0  0
 28 29  1  0  0  0  0
 28 33  1  0  0  0  0
 29 30  1  0  0  0  0
 29 32  1  0  0  0  0
 29 34  1  0  0  0  0
 30 31  2  0  0  0  0
 30 38  1  0  0  0  0
 32 35  1  0  0  0  0
 32 36  1  0  0  0  0
 32 37  1  0  0  0  0
 38 39  1  0  0  0  0
 38 40  1  0  0  0  0
 39 41  1  0  0  0  0
 39 42  1  0  0  0  0
 39 43  1  0  0  0  0
M  END
$$$$

  -OEChem-05262217303D

 43 42  0     1  0  0  0  0  0999 V2000
    3.5346   -1.8922    3.9582 C   0  0  0  0  0  0  0  0  0  0  0  0
    2.6503   -1.8761    4.7998 O   0  0  0  0  0  0  0  0  0  0  0  0
    4.8030   -2.6884    4.1990 C   0  0  0  0  0  0  0  0  0  0  0  0
    5.6752   -2.0361    4.1117 H   0  0  0  0  0  0  0  0  0  0  0  0
    4.7892   -3.1253    5.2013 H   0  0  0  0  0  0  0  0  0  0  0  0
    4.8829   -3.4935    3.4643 H   0  0  0  0  0  0  0  0  0  0  0  0
    3.3790   -1.1913    2.7815 N   0  0  0  0  0  0  0  0  0  0  0  0
    2.1351   -0.5271    2.3718 C   0  0  2  0  0  0  0  0  0  0  0  0
    2.0020   -0.4771    0.8350 C   0  0  0  0  0  0  0  0  0  0  0  0
    2.9599   -0.7555    0.1211 O   0  0  0  0  0  0  0  0  0  0  0  0
    2.1160    0.8875    2.9626 C   0  0  0  0  0  0  0  0  0  0  0  0
    4.0837   -1.3296    2.0577 H   0  0  0  0  0  0  0  0  0  0  0  0
    1.2766   -1.0906    2.7540 H   0  0  0  0  0  0  0  0  0  0  0  0
    2.9621    1.4708    2.5854 H   0  0  0  0  0  0  0  0  0  0  0  0
    1.1890    1.4044    2.6969 H   0  0  0  0  0  0  0  0  0  0  0  0
    2.1819    0.8441    4.0544 H   0  0  0  0  0  0  0  0  0  0  0  0
    0.8340   -0.0279    0.2461 N   0  0  0  0  0  0  0  0  0  0  0  0
    0.3990   -0.4013   -1.1151 C   0  0  2  0  0  0  0  0  0  0  0  0
   -1.0823   -0.0455   -1.3365 C   0  0  0  0  0  0  0  0  0  0  0  0
   -1.9289   -0.4721   -0.5566 O   0  0  0  0  0  0  0  0  0  0  0  0
    0.5572   -1.9137   -1.4046 C   0  0  0  0  0  0  0  0  0  0  0  0
   -0.3177   -2.7000   -0.5835 O   0  0  0  0  0  0  0  0  0  0  0  0
    0.0764    0.1273    0.9092 H   0  0  0  0  0  0  0  0  0  0  0  0
    1.0116    0.1498   -1.8341 H   0  0  0  0  0  0  0  0  0  0  0  0
    1.5891   -2.2483   -1.2715 H   0  0  0  0  0  0  0  0  0  0  0  0
    0.3018   -2.0941   -2.4540 H   0  0  0  0  0  0  0  0  0  0  0  0
   -1.1922   -2.2630   -0.4959 H   0  0  0  0  0  0  0  0  0  0  0  0
   -1.4414    0.8377   -2.3416 N   0  0  0  0  0  0  0  0  0  0  0  0
   -2.7970    1.3499   -2.6346 C   0  0  2  0  0  0  0  0  0  0  0  0
   -3.3786    2.2827   -1.5466 C   0  0  0  0  0  0  0  0  0  0  0  0
   -3.6952    3.4263   -1.8433 O   0  0  0  0  0  0  0  0  0  0  0  0
   -3.7700    0.2074   -2.9619 C   0  0  0  0  0  0  0  0  0  0  0  0
   -0.6764    1.2292   -2.8856 H   0  0  0  0  0  0  0  0  0  0  0  0
   -2.7152    1.9601   -3.5403 H   0  0  0  0  0  0  0  0  0  0  0  0
   -3.9872   -0.3994   -2.0783 H   0  0  0  0  0  0  0  0  0  0  0  0
   -4.7153    0.6166   -3.3324 H   0  0  0  0  0  0  0  0  0  0  0  0
   -3.3488   -0.4417   -3.7356 H   0  0  0  0  0  0  0  0  0  0  0  0
   -3.5211    1.8592   -0.2401 N   0  0  0  0  0  0  0  0  0  0  0  0
   -4.0210    2.6982    0.8407 C   0  0  0  0  0  0  0  0  0  0  0  0
   -3.1973    0.9117   -0.0333 H   0  0  0  0  0  0  0  0  0  0  0  0
   -4.0342    2.1357    1.7793 H   0  0  0  0  0  0  0  0  0  0  0  0
   -3.3812    3.5770    0.9724 H   0  0  0  0  0  0  0  0  0  0  0  0
   -5.0405    3.0339    0.6246 H   0  0  0  0  0  0  0  0  0  0  0  0
  1  2  2  0  0  0  0
  1  3  1  0  0  0  0
  1  7  1  0  0  0  0
  3  4  1  0  0  0  0
  3  5  1  0  0  0  0
  3  6  1  0  0  0  0
  7  8  1  0  0  0  0
  7 12  1  0  0  0  0
  8  9  1  0  0  0  0
  8 11  1  0  0  0  0
  8 13  1  0  0  0  0
  9 10  2  0  0  0  0
  9 17  1  0  0  0  0
 11 14  1  0  0  0  0
 11 15  1  0  0  0  0
 11 16  1  0  0  0  0
 17 18  1  0  0  0  0
 17 23  1  0  0  0  0
 18 19  1  0  0  0  0
 18 21  1  0  0  0  0
 18 24  1  0  0  0  0
 19 20  2  0  0  0  0
 19 28  1  0  0  0  0
 21 22  1  0  0  0  0
 21 25  1  0  0  0  0
 21 26  1  0  0  0  0
 22 27  1  0  0  0  0
 28 29  1  0  0  0  0
 28 33  1  0  0  0  0
 29 30  1  0  0  0  0
 29 32  1  0  0  0  0
 29 34  1  0  0  0  0
 30 31  2  0  0  0  0
 30 38  1  0  0  0  0
 32 35  1  0  0  0  0
 32 36  1  0  0  0  0
 32 37  1  0  0  0  0
 38 39  1  0  0  0  0
 38 40  1  0  0  0  0
 39 41  1  0  0  0  0
 39 42  1  0  0  0  0
 39 43  1  0  0  0  0
M  END
$$$$

  -OEChem-05262217303D

 43 42  0     1  0  0  0  0  0999 V2000
    3.5620   -1.8774    3.9391 C   0  0  0  0  0  0  0  0  0  0  0  0
    2.6772   -1.8587    4.7802 O   0  0  0  0  0  0  0  0  0  0  0  0
    4.8332   -2.6665    4.1875 C   0  0  0  0  0  0  0  0  0  0  0  0
    5.6966   -1.9970    4.1667 H   0  0  0  0  0  0  0  0  0  0  0  0
    4.7885   -3.1547    5.1651 H   0  0  0  0  0  0  0  0  0  0  0  0
    4.9550   -3.4318    3.4169 H   0  0  0  0  0  0  0  0  0  0  0  0
    3.4090   -1.1773    2.7615 N   0  0  0  0  0  0  0  0  0  0  0  0
    2.1711   -0.4993    2.3569 C   0  0  2  0  0  0  0  0  0  0  0  0
    2.0206   -0.4565    0.8213 C   0  0  0  0  0  0  0  0  0  0  0  0
    2.9704   -0.7351    0.0970 O   0  0  0  0  0  0  0  0  0  0  0  0
    2.1803    0.9178    2.9415 C   0  0  0  0  0  0  0  0  0  0  0  0
    4.1166   -1.3122    2.0401 H   0  0  0  0  0  0  0  0  0  0  0  0
    1.3085   -1.0474    2.7515 H   0  0  0  0  0  0  0  0  0  0  0  0
    3.0363    1.4835    2.5595 H   0  0  0  0  0  0  0  0  0  0  0  0
    1.2626    1.4516    2.6770 H   0  0  0  0  0  0  0  0  0  0  0  0
    2.2492    0.8771    4.0334 H   0  0  0  0  0  0  0  0  0  0  0  0
    0.8406   -0.0231    0.2449 N   0  0  0  0  0  0  0  0  0  0  0  0
    0.3909   -0.3993   -1.1109 C   0  0  2  0  0  0  0  0  0  0  0  0
   -1.0961   -0.0644   -1.3190 C   0  0  0  0  0  0  0  0  0  0  0  0
   -1.8961   -0.3344   -0.4282 O   0  0  0  0  0  0  0  0  0  0  0  0
    0.5371   -1.9148   -1.3817 C   0  0  0  0  0  0  0  0  0  0  0  0
   -0.3398   -2.6812   -0.5417 O   0  0  0  0  0  0  0  0  0  0  0  0
    0.0880    0.1307    0.9142 H   0  0  0  0  0  0  0  0  0  0  0  0
    0.9923    0.1497   -1.8414 H   0  0  0  0  0  0  0  0  0  0  0  0
    1.5672   -2.2549   -1.2488 H   0  0  0  0  0  0  0  0  0  0  0  0
    0.2745   -2.1087   -2.4272 H   0  0  0  0  0  0  0  0  0  0  0  0
   -1.1978   -2.2236   -0.4171 H   0  0  0  0  0  0  0  0  0  0  0  0
   -1.5220    0.5524   -2.4844 N   0  0  0  0  0  0  0  0  0  0  0  0
   -2.9034    0.9559   -2.8236 C   0  0  2  0  0  0  0  0  0  0  0  0
   -3.4775    2.0890   -1.9412 C   0  0  0  0  0  0  0  0  0  0  0  0
   -3.8403    3.1326   -2.4660 O   0  0  0  0  0  0  0  0  0  0  0  0
   -3.8481   -0.2541   -2.8515 C   0  0  0  0  0  0  0  0  0  0  0  0
   -0.7948    0.8021   -3.1501 H   0  0  0  0  0  0  0  0  0  0  0  0
   -2.8755    1.3549   -3.8432 H   0  0  0  0  0  0  0  0  0  0  0  0
   -4.0083   -0.6598   -1.8486 H   0  0  0  0  0  0  0  0  0  0  0  0
   -4.8210    0.0417   -3.2569 H   0  0  0  0  0  0  0  0  0  0  0  0
   -3.4358   -1.0445   -3.4860 H   0  0  0  0  0  0  0  0  0  0  0  0
   -3.5633    1.9562   -0.5695 N   0  0  0  0  0  0  0  0  0  0  0  0
   -4.0277    3.0081    0.3243 C   0  0  0  0  0  0  0  0  0  0  0  0
   -3.1848    1.0920   -0.1750 H   0  0  0  0  0  0  0  0  0  0  0  0
   -4.0387    2.6478    1.3576 H   0  0  0  0  0  0  0  0  0  0  0  0
   -3.3658    3.8785    0.2671 H   0  0  0  0  0  0  0  0  0  0  0  0
   -5.0432    3.3182    0.0564 H   0  0  0  0  0  0  0  0  0  0  0  0
  1  2  2  0  0  0  0
  1  3  1  0  0  0  0
  1  7  1  0  0  0  0
  3  4  1  0  0  0  0
  3  5  1  0  0  0  0
  3  6  1  0  0  0  0
  7  8  1  0  0  0  0
  7 12  1  0  0  0  0
  8  9  1  0  0  0  0
  8 11  1  0  0  0  0
  8 13  1  0  0  0  0
  9 10  2  0  0  0  0
  9 17  1  0  0  0  0
 11 14  1  0  0  0  0
 11 15  1  0  0  0  0
 11 16  1  0  0  0  0
 17 18  1  0  0  0  0
 17 23  1  0  0  0  0
 18 19  1  0  0  0  0
 18 21  1  0  0  0  0
 18 24  1  0  0  0  0
 19 20  2  0  0  0  0
 19 28  1  0  0  0  0
 21 22  1  0  0  0  0
 21 25  1  0  0  0  0
 21 26  1  0  0  0  0
 22 27  1  0  0  0  0
 28 29  1  0  0  0  0
 28 33  1  0  0  0  0
 29 30  1  0  0  0  0
 29 32  1  0  0  0  0
 29 34  1  0  0  0  0
 30 31  2  0  0  0  0
 30 38  1  0  0  0  0
 32 35  1  0  0  0  0
 32 36  1  0  0  0  0
 32 37  1  0  0  0  0
 38 39  1  0  0  0  0
 38 40  1  0  0  0  0
 39 41  1  0  0  0  0
 39 42  1  0  0  0  0
 39 43  1  0  0  0  0
M  END
$$$$

  -OEChem-05262217303D

 43 42  0     1  0  0  0  0  0999 V2000
    3.5856   -1.8515    3.9385 C   0  0  0  0  0  0  0  0  0  0  0  0
    2.7136   -1.8010    4.7913 O   0  0  0  0  0  0  0  0  0  0  0  0
    4.8434   -2.6639    4.1824 C   0  0  0  0  0  0  0  0  0  0  0  0
    5.7169   -2.0075    4.1788 H   0  0  0  0  0  0  0  0  0  0  0  0
    4.7846   -3.1678    5.1513 H   0  0  0  0  0  0  0  0  0  0  0  0
    4.9591   -3.4182    3.4002 H   0  0  0  0  0  0  0  0  0  0  0  0
    3.4291   -1.1682    2.7514 N   0  0  0  0  0  0  0  0  0  0  0  0
    2.2012   -0.4680    2.3537 C   0  0  2  0  0  0  0  0  0  0  0  0
    2.0270   -0.4546    0.8203 C   0  0  0  0  0  0  0  0  0  0  0  0
    2.9682   -0.7420    0.0877 O   0  0  0  0  0  0  0  0  0  0  0  0
    2.2584    0.9613    2.9040 C   0  0  0  0  0  0  0  0  0  0  0  0
    4.1248   -1.3258    2.0230 H   0  0  0  0  0  0  0  0  0  0  0  0
    1.3312   -0.9836    2.7755 H   0  0  0  0  0  0  0  0  0  0  0  0
    3.1135    1.4993    2.4825 H   0  0  0  0  0  0  0  0  0  0  0  0
    1.3441    1.5079    2.6544 H   0  0  0  0  0  0  0  0  0  0  0  0
    2.3604    0.9451    3.9939 H   0  0  0  0  0  0  0  0  0  0  0  0
    0.8372   -0.0342    0.2545 N   0  0  0  0  0  0  0  0  0  0  0  0
    0.3777   -0.4030   -1.1003 C   0  0  2  0  0  0  0  0  0  0  0  0
   -1.1145   -0.0889   -1.2989 C   0  0  0  0  0  0  0  0  0  0  0  0
   -1.8738   -0.1861   -0.3402 O   0  0  0  0  0  0  0  0  0  0  0  0
    0.5267   -1.9177   -1.3717 C   0  0  0  0  0  0  0  0  0  0  0  0
   -0.3434   -2.6853   -0.5246 O   0  0  0  0  0  0  0  0  0  0  0  0
    0.0888    0.1308    0.9272 H   0  0  0  0  0  0  0  0  0  0  0  0
    0.9671    0.1553   -1.8336 H   0  0  0  0  0  0  0  0  0  0  0  0
    1.5584   -2.2560   -1.2466 H   0  0  0  0  0  0  0  0  0  0  0  0
    0.2577   -2.1143   -2.4147 H   0  0  0  0  0  0  0  0  0  0  0  0
   -1.2048   -2.2401   -0.3954 H   0  0  0  0  0  0  0  0  0  0  0  0
   -1.6029    0.2397   -2.5533 N   0  0  0  0  0  0  0  0  0  0  0  0
   -3.0066    0.5304   -2.9146 C   0  0  2  0  0  0  0  0  0  0  0  0
   -3.5827    1.8165   -2.2771 C   0  0  0  0  0  0  0  0  0  0  0  0
   -4.0039    2.7081   -3.0010 O   0  0  0  0  0  0  0  0  0  0  0  0
   -3.9138   -0.6778   -2.6404 C   0  0  0  0  0  0  0  0  0  0  0  0
   -0.9111    0.3309   -3.2931 H   0  0  0  0  0  0  0  0  0  0  0  0
   -3.0268    0.6986   -3.9967 H   0  0  0  0  0  0  0  0  0  0  0  0
   -4.0380   -0.8492   -1.5672 H   0  0  0  0  0  0  0  0  0  0  0  0
   -4.9045   -0.5068   -3.0737 H   0  0  0  0  0  0  0  0  0  0  0  0
   -3.4921   -1.5811   -3.0917 H   0  0  0  0  0  0  0  0  0  0  0  0
   -3.6067    1.9890   -0.9074 N   0  0  0  0  0  0  0  0  0  0  0  0
   -4.0746    3.1990   -0.2459 C   0  0  0  0  0  0  0  0  0  0  0  0
   -3.1790    1.2458   -0.3501 H   0  0  0  0  0  0  0  0  0  0  0  0
   -4.0296    3.0750    0.8403 H   0  0  0  0  0  0  0  0  0  0  0  0
   -3.4491    4.0533   -0.5246 H   0  0  0  0  0  0  0  0  0  0  0  0
   -5.1114    3.4136   -0.5256 H   0  0  0  0  0  0  0  0  0  0  0  0
  1  2  2  0  0  0  0
  1  3  1  0  0  0  0
  1  7  1  0  0  0  0
  3  4  1  0  0  0  0
  3  5  1  0  0  0  0
  3  6  1  0  0  0  0
  7  8  1  0  0  0  0
  7 12  1  0  0  0  0
  8  9  1  0  0  0  0
  8 11  1  0  0  0  0
  8 13  1  0  0  0  0
  9 10  2  0  0  0  0
  9 17  1  0  0  0  0
 11 14  1  0  0  0  0
 11 15  1  0  0  0  0
 11 16  1  0  0  0  0
 17 18  1  0  0  0  0
 17 23  1  0  0  0  0
 18 19  1  0  0  0  0
 18 21  1  0  0  0  0
 18 24  1  0  0  0  0
 19 20  2  0  0  0  0
 19 28  1  0  0  0  0
 21 22  1  0  0  0  0
 21 25  1  0  0  0  0
 21 26  1  0  0  0  0
 22 27  1  0  0  0  0
 28 29  1  0  0  0  0
 28 33  1  0  0  0  0
 29 30  1  0  0  0  0
 29 32  1  0  0  0  0
 29 34  1  0  0  0  0
 30 31  2  0  0  0  0
 30 38  1  0  0  0  0
 32 35  1  0  0  0  0
 32 36  1  0  0  0  0
 32 37  1  0  0  0  0
 38 39  1  0  0  0  0
 38 40  1  0  0  0  0
 39 41  1  0  0  0  0
 39 42  1  0  0  0  0
 39 43  1  0  0  0  0
M  END
$$$$

  -OEChem-05262217303D

 43 42  0     1  0  0  0  0  0999 V2000
    3.5945   -1.8304    3.9398 C   0  0  0  0  0  0  0  0  0  0  0  0
    2.7231   -1.7732    4.7929 O   0  0  0  0  0  0  0  0  0  0  0  0
    4.8461   -2.6525    4.1837 C   0  0  0  0  0  0  0  0  0  0  0  0
    5.7277   -2.0077    4.1498 H   0  0  0  0  0  0  0  0  0  0  0  0
    4.7977   -3.1320    5.1655 H   0  0  0  0  0  0  0  0  0  0  0  0
    4.9393   -3.4268    3.4183 H   0  0  0  0  0  0  0  0  0  0  0  0
    3.4421   -1.1489    2.7508 N   0  0  0  0  0  0  0  0  0  0  0  0
    2.2187   -0.4416    2.3507 C   0  0  2  0  0  0  0  0  0  0  0  0
    2.0327   -0.4475    0.8187 C   0  0  0  0  0  0  0  0  0  0  0  0
    2.9746   -0.7255    0.0836 O   0  0  0  0  0  0  0  0  0  0  0  0
    2.2947    0.9949    2.8790 C   0  0  0  0  0  0  0  0  0  0  0  0
    4.1380   -1.3114    2.0239 H   0  0  0  0  0  0  0  0  0  0  0  0
    1.3468   -0.9420    2.7860 H   0  0  0  0  0  0  0  0  0  0  0  0
    3.1476    1.5200    2.4374 H   0  0  0  0  0  0  0  0  0  0  0  0
    1.3813    1.5449    2.6337 H   0  0  0  0  0  0  0  0  0  0  0  0
    2.4122    0.9940    3.9674 H   0  0  0  0  0  0  0  0  0  0  0  0
    0.8316   -0.0533    0.2585 N   0  0  0  0  0  0  0  0  0  0  0  0
    0.3681   -0.4108   -1.0979 C   0  0  2  0  0  0  0  0  0  0  0  0
   -1.1342   -0.1285   -1.2772 C   0  0  0  0  0  0  0  0  0  0  0  0
   -1.8442   -0.0046   -0.2852 O   0  0  0  0  0  0  0  0  0  0  0  0
    0.5581   -1.9162   -1.3989 C   0  0  0  0  0  0  0  0  0  0  0  0
   -0.2779   -2.7299   -0.5599 O   0  0  0  0  0  0  0  0  0  0  0  0
    0.0839    0.1192    0.9305 H   0  0  0  0  0  0  0  0  0  0  0  0
    0.9324    0.1783   -1.8269 H   0  0  0  0  0  0  0  0  0  0  0  0
    1.6009   -2.2227   -1.2868 H   0  0  0  0  0  0  0  0  0  0  0  0
    0.2908   -2.1048   -2.4439 H   0  0  0  0  0  0  0  0  0  0  0  0
   -1.1901   -2.3892   -0.5071 H   0  0  0  0  0  0  0  0  0  0  0  0
   -1.6953   -0.0971   -2.5441 N   0  0  0  0  0  0  0  0  0  0  0  0
   -3.1232    0.0801   -2.8829 C   0  0  2  0  0  0  0  0  0  0  0  0
   -3.7010    1.4707   -2.5307 C   0  0  0  0  0  0  0  0  0  0  0  0
   -4.1754    2.1651   -3.4189 O   0  0  0  0  0  0  0  0  0  0  0  0
   -3.9792   -1.0446   -2.2825 C   0  0  0  0  0  0  0  0  0  0  0  0
   -1.0456   -0.1726   -3.3227 H   0  0  0  0  0  0  0  0  0  0  0  0
   -3.2038   -0.0109   -3.9714 H   0  0  0  0  0  0  0  0  0  0  0  0
   -4.0413   -0.9624   -1.1937 H   0  0  0  0  0  0  0  0  0  0  0  0
   -4.9963   -0.9953   -2.6837 H   0  0  0  0  0  0  0  0  0  0  0  0
   -3.5560   -2.0214   -2.5351 H   0  0  0  0  0  0  0  0  0  0  0  0
   -3.6693    1.9534   -1.2376 N   0  0  0  0  0  0  0  0  0  0  0  0
   -4.1309    3.2793   -0.8505 C   0  0  0  0  0  0  0  0  0  0  0  0
   -3.1925    1.3668   -0.5486 H   0  0  0  0  0  0  0  0  0  0  0  0
   -4.0550    3.4020    0.2342 H   0  0  0  0  0  0  0  0  0  0  0  0
   -3.5227    4.0522   -1.3315 H   0  0  0  0  0  0  0  0  0  0  0  0
   -5.1771    3.4214   -1.1409 H   0  0  0  0  0  0  0  0  0  0  0  0
  1  2  2  0  0  0  0
  1  3  1  0  0  0  0
  1  7  1  0  0  0  0
  3  4  1  0  0  0  0
  3  5  1  0  0  0  0
  3  6  1  0  0  0  0
  7  8  1  0  0  0  0
  7 12  1  0  0  0  0
  8  9  1  0  0  0  0
  8 11  1  0  0  0  0
  8 13  1  0  0  0  0
  9 10  2  0  0  0  0
  9 17  1  0  0  0  0
 11 14  1  0  0  0  0
 11 15  1  0  0  0  0
 11 16  1  0  0  0  0
 17 18  1  0  0  0  0
 17 23  1  0  0  0  0
 18 19  1  0  0  0  0
 18 21  1  0  0  0  0
 18 24  1  0  0  0  0
 19 20  2  0  0  0  0
 19 28  1  0  0  0  0
 21 22  1  0  0  0  0
 21 25  1  0  0  0  0
 21 26  1  0  0  0  0
 22 27  1  0  0  0  0
 28 29  1  0  0  0  0
 28 33  1  0  0  0  0
 29 30  1  0  0  0  0
 29 32  1  0  0  0  0
 29 34  1  0  0  0  0
 30 31  2  0  0  0  0
 30 38  1  0  0  0  0
 32 35  1  0  0  0  0
 32 36  1  0  0  0  0
 32 37  1  0  0  0  0
 38 39  1  0  0  0  0
 38 40  1  0  0  0  0
 39 41  1  0  0  0  0
 39 42  1  0  0  0  0
 39 43  1  0  0  0  0
M  END
$$$$
