@<TRIPOS>MOLECULE
default_name
   44    43     1     0     0
SMALL
No Charge or Current Charge


@<TRIPOS>ATOM
      1 H1          28.5730    24.0320    26.0990 H          1 ACE       0.112300
      2 CH3         28.4030    25.0750    26.3640 C.3        1 ACE      -0.366200
      3 H2          29.0470    25.3510    27.1960 H          1 ACE       0.112300
      4 H3          27.3600    25.2150    26.6430 H          1 ACE       0.112300
      5 C           28.7260    25.9450    25.1730 C.2        1 ACE       0.597200
      6 O           29.1290    25.4420    24.1320 O.2        1 ACE      -0.567900
      7 N           28.5330    27.2520    25.3190 N.am       2 CYX      -0.415700
      8 H           28.1950    27.6010    26.2050 H          2 CYX       0.271900
      9 CA          28.7880    28.2550    24.2840 C.3        2 CYX       0.042900
     10 HA          29.7260    28.0000    23.7880 H          2 CYX       0.076600
     11 CB          27.6650    28.2120    23.2330 C.3        2 CYX      -0.079000
     12 HB2         27.5420    27.1830    22.8930 H          2 CYX       0.091000
     13 HB3         27.9970    28.7840    22.3670 H          2 CYX       0.091000
     14 SG          26.0350    28.8640    23.7030 S.3        2 CYX      -0.108100
     15 C           28.9480    29.6580    24.8990 C.2        2 CYX       0.597300
     16 O           28.6160    29.8710    26.0650 O.2        2 CYX      -0.567900
     17 N           29.4640    30.6140    24.1150 N.am       3 NME      -0.415700
     18 H           29.7170    30.3700    23.1710 H          3 NME       0.271900
     19 CH3         29.6760    31.9930    24.5500 C.3        3 NME      -0.149000
     20 HH31        28.7170    32.4490    24.8050 H          3 NME       0.097600
     21 HH32        30.3120    32.0070    25.4370 H          3 NME       0.097600
     22 HH33        30.1510    32.5720    23.7570 H          3 NME       0.097600
     23 H1          23.1230    21.2950    23.9340 H          4 ACE       0.112300
     24 CH3         23.3750    22.0840    23.2270 C.3        4 ACE      -0.366200
     25 H2          22.6410    22.1050    22.4230 H          4 ACE       0.112300
     26 H3          24.3670    21.9040    22.8170 H          4 ACE       0.112300
     27 C           23.3650    23.4110    23.9490 C.2        4 ACE       0.597200
     28 O           23.1120    23.4620    25.1450 O.2        4 ACE      -0.567900
     29 N           23.6500    24.4860    23.2190 N.am       5 CYX      -0.415700
     30 H           23.8390    24.3700    22.2340 H          5 CYX       0.271900
     31 CA          23.6960    25.8530    23.7380 C.3        5 CYX       0.042900
     32 HA          22.9090    25.9770    24.4840 H          5 CYX       0.076600
     33 CB          25.0520    26.0540    24.4290 C.3        5 CYX      -0.079000
     34 HB2         25.1360    25.3000    25.2130 H          5 CYX       0.091000
     35 HB3         25.8470    25.8590    23.7090 H          5 CYX       0.091000
     36 SG          25.3620    27.6610    25.2090 S.3        5 CYX      -0.108100
     37 C           23.4490    26.8670    22.6070 C.2        5 CYX       0.597300
     38 O           23.7980    26.6010    21.4560 O.2        5 CYX      -0.567900
     39 N           22.8440    28.0170    22.9310 N.am       6 NME      -0.415700
     40 H           22.6200    28.1730    23.9010 H          6 NME       0.271900
     41 CH3         22.5450    29.0860    21.9790 C.3        6 NME      -0.149000
     42 HH31        23.4640    29.6130    21.7170 H          6 NME       0.097600
     43 HH32        22.1130    28.6650    21.0680 H          6 NME       0.097600
     44 HH33        21.8380    29.7920    22.4150 H          6 NME       0.097600
@<TRIPOS>BOND
     1     5     6 2   
     2     5     7 am  
     3     2     3 1   
     4     2     4 1   
     5     2     5 1   
     6     1     2 1   
     7    15    16 2   
     8    15    17 am  
     9    14    36 1   
    10    11    12 1   
    11    11    13 1   
    12    11    14 1   
    13     9    10 1   
    14     9    11 1   
    15     9    15 1   
    16     7     8 1   
    17     7     9 1   
    18    19    20 1   
    19    19    21 1   
    20    19    22 1   
    21    17    18 1   
    22    17    19 1   
    23    27    28 2   
    24    27    29 am  
    25    24    25 1   
    26    24    26 1   
    27    24    27 1   
    28    23    24 1   
    29    37    38 2   
    30    37    39 am  
    31    33    34 1   
    32    33    35 1   
    33    33    36 1   
    34    31    32 1   
    35    31    33 1   
    36    31    37 1   
    37    29    30 1   
    38    29    31 1   
    39    41    42 1   
    40    41    43 1   
    41    41    44 1   
    42    39    40 1   
    43    39    41 1   
@<TRIPOS>SUBSTRUCTURE
     1 ACE         1 TEMP              0 ****  ****    0 ROOT
