@<TRIPOS>MOLECULE
default_name
   19    18     1     0     0
SMALL
No Charge or Current Charge


@<TRIPOS>ATOM
      1 N           27.3840    25.5410    24.0310 N.4        1 NSE       0.000000
      2 H1          27.7510    25.0210    23.2440 H          1 NSE       0.000000
      3 H2          26.3790    25.6100    23.9580 H          1 NSE       0.000000
      4 H3          27.6420    25.0360    24.8680 H          1 NSE       0.000000
      5 CA          28.0090    26.8820    24.0590 C.3        1 NSE       0.000000
      6 HA          27.7800    27.3950    23.1260 H          1 NSE       0.000000
      7 CB          27.4650    27.7320    25.2110 C.3        1 NSE       0.000000
      8 HB2         26.3740    27.7080    25.2060 H          1 NSE       0.000000
      9 HB3         27.8340    27.3540    26.1660 H          1 NSE       0.000000
     10 OG          27.8940    29.0590    25.0170 O.3        1 NSE       0.000000
     11 HG          27.5660    29.6240    25.7310 H          1 NSE       0.000000
     12 C           29.5230    26.7200    24.1450 C.2        1 NSE       0.000000
     13 O           29.9600    25.5950    24.3590 O.2        1 NSE       0.000000
     14 N           30.3060    27.7880    23.9570 N.am       2 NME      -0.415700
     15 H           29.8630    28.6930    23.8510 H          2 NME       0.271900
     16 CH3         31.7690    27.7500    23.9850 C.3        2 NME      -0.149000
     17 HH31        32.1390    26.9460    23.3450 H          2 NME       0.097600
     18 HH32        32.1780    28.6980    23.6320 H          2 NME       0.097600
     19 HH33        32.1180    27.5720    25.0050 H          2 NME       0.097600
@<TRIPOS>BOND
     1    12    13 2   
     2    12    14 am  
     3    10    11 1   
     4     7     8 1   
     5     7     9 1   
     6     7    10 1   
     7     5     6 1   
     8     5     7 1   
     9     5    12 1   
    10     1     2 1   
    11     1     3 1   
    12     1     4 1   
    13     1     5 1   
    14    16    17 1   
    15    16    18 1   
    16    16    19 1   
    17    14    15 1   
    18    14    16 1   
@<TRIPOS>SUBSTRUCTURE
     1 NSE         1 TEMP              0 ****  ****    0 ROOT
