@<TRIPOS>MOLECULE
default_name
   31    32     1     0     0
SMALL
No Charge or Current Charge


@<TRIPOS>ATOM
      1 H1          25.8760    25.4490    25.2390 H          1 ACE       0.112300
      2 CH3         25.9470    26.1120    24.3790 C.3        1 ACE      -0.366200
      3 H2          25.0490    26.7220    24.3030 H          1 ACE       0.112300
      4 H3          26.0770    25.5300    23.4690 H          1 ACE       0.112300
      5 C           27.1410    27.0230    24.5580 C.2        1 ACE       0.597200
      6 O           27.7740    26.9880    25.6080 O.2        1 ACE      -0.567900
      7 N           27.4260    27.8130    23.5230 N.am       2 CTR      -0.567900
      8 H           26.8400    27.7700    22.7010 H          2 CTR      -0.567900
      9 CA          28.4900    28.8170    23.4250 C.3        2 CTR      -0.567900
     10 HA          28.5800    29.3690    24.3590 H          2 CTR      -0.567900
     11 CB          29.8190    28.1130    23.1110 C.3        2 CTR      -0.567900
     12 HB2         30.0480    27.4210    23.9230 H          2 CTR      -0.567900
     13 HB3         29.6920    27.5270    22.2000 H          2 CTR      -0.567900
     14 CG          30.9980    29.0180    22.9260 C.2        2 CTR      -0.567900
     15 CD1         31.3830    29.5500    21.7460 C.2        2 CTR      -0.567900
     16 HD1         30.8560    29.3860    20.8140 H          2 CTR      -0.567900
     17 NE1         32.4730    30.3770    21.9370 N.pl3      2 CTR      -0.567900
     18 HE1         32.8720    30.9350    21.1990 H          2 CTR      -0.567900
     19 CE2         32.8310    30.4390    23.2670 C.ar       2 CTR      -0.567900
     20 CZ2         33.8270    31.1460    23.9590 C.ar       2 CTR      -0.567900
     21 HZ2         34.5060    31.7900    23.4230 H          2 CTR      -0.567900
     22 CH2         33.9120    31.0180    25.3560 C.ar       2 CTR      -0.567900
     23 HH2         34.6650    31.5640    25.9060 H          2 CTR      -0.567900
     24 CZ3         33.0000    30.1940    26.0410 C.ar       2 CTR      -0.567900
     25 HZ3         33.0520    30.1110    27.1160 H          2 CTR      -0.567900
     26 CE3         32.0020    29.4910    25.3350 C.ar       2 CTR      -0.567900
     27 HE3         31.2870    28.8790    25.8660 H          2 CTR      -0.567900
     28 CD2         31.8960    29.5870    23.9300 C.ar       2 CTR      -0.567900
     29 C           28.1170    29.8310    22.3340 C.2        2 CTR      -0.567900
     30 O           27.6720    29.3600    21.2610 O.co2      2 CTR      -0.567900
     31 OXT         28.2330    31.0450    22.6040 O.co2      2 CTR      -0.567900
@<TRIPOS>BOND
     1     5     6 2   
     2     5     7 am  
     3     2     3 1   
     4     2     4 1   
     5     2     5 1   
     6     1     2 1   
     7    29    30 1   
     8    29    31 1   
     9    26    27 1   
    10    26    28 ar  
    11    24    25 1   
    12    24    26 ar  
    13    22    23 1   
    14    22    24 ar  
    15    20    21 1   
    16    20    22 ar  
    17    19    20 ar  
    18    19    28 ar  
    19    17    18 1   
    20    17    19 1   
    21    15    16 1   
    22    15    17 1   
    23    14    15 2   
    24    14    28 1   
    25    11    12 1   
    26    11    13 1   
    27    11    14 1   
    28     9    10 1   
    29     9    11 1   
    30     9    29 1   
    31     7     8 1   
    32     7     9 1   
@<TRIPOS>SUBSTRUCTURE
     1 ACE         1 TEMP              0 ****  ****    0 ROOT
